data_PCOD9453822
_publ_section_title
;
Structure prediction by ZEFSAII (Michael W. Deem and Ramdas Pophale) SiO2 
 PCOD9453822
Probable space group: P B C N
;
_chemical_formula_sum "Si O2"
_cell_formula_units_Z 60
_cell_length_a 23.578797
_cell_length_b 13.923264
_cell_length_c 7.942654
_cell_angle_alpha 90.000000
_cell_angle_beta 90.000000
_cell_angle_gamma 90.000000
_cell_volume 2607.524186
_symmetry_space_group_name_H-M "P B C N"
_symmetry_group_IT_number 60
_symmetry_cell_setting 'orthorhombic'
loop_
_space_group_symop_operation_xyz
x,y,z
1/2-x,1/2-y,1/2+z
1/2+x,1/2-y,-z
-x,y,1/2-z
-x,-y,-z
1/2+x,1/2+y,1/2-z
1/2-x,1/2+y,z
x,-y,1/2+z
loop_
_atom_site_type_symbol
_atom_site_label
_atom_site_fract_x
_atom_site_fract_y
_atom_site_fract_z
Si Si1 0.000000 0.428629 0.750000
Si Si2 0.771902 0.140531 0.675522
Si Si3 0.372461 0.276940 0.178703
Si Si4 0.411534 0.242916 0.655874
Si Si5 0.977894 0.745408 0.494501
Si Si6 0.236062 0.523209 0.498908
Si Si7 0.885390 0.415868 0.608457
Si Si8 0.806353 0.817738 0.665387
O O1 0.940325 0.472211 0.683613
O O2 0.013875 0.357126 0.595333
O O3 0.838758 0.151459 0.700710
O O4 0.745747 0.245710 0.690083
O O5 0.754817 0.087007 0.505423
O O6 0.743299 0.079452 0.826640
O O7 0.373446 0.170963 0.259824
O O8 0.436581 0.302867 0.129405
O O9 0.336841 0.281678 0.006642
O O10 0.443465 0.230411 0.833262
O O11 0.460462 0.287408 0.536456
O O12 0.398065 0.142496 0.564020
O O13 0.354262 0.301226 0.693408
O O14 0.172094 0.528200 0.429391
O O15 0.280515 0.579074 0.377405
#
# Coordination Sequence:
#
# PCOD9453822 Si02
#       8
#     4   8   8   8   8   8   8   8
#     4   8  16  28  52  80 110 140 188 234 282 336
#     4  11  23  37  54  82 114 151 193 242 287 352
#     4   9  19  33  55  79 112 146 185 238 289 343
#     4   9  16  29  55  81 112 142 192 233 287 348
#     4   8  15  29  51  86 109 143 190 239 283 349
#     4  11  24  35  55  80 113 152 193 233 292 347
#     4  10  17  32  53  80 108 146 185 231 283 344
#     4  10  20  37  55  80 111 148 188 239 292 348
#
# _framework density 23.010334
#
# number of rings (size 3 to 8) (size 9 to 14) (size 15 to 20)
#    0.000    2.400    2.667    0.000    1.867    1.067 
#    0.000    0.000    0.000    4.800    0.000   14.933 
#    0.000    0.000    0.000    0.000    0.000    0.000 
#
# Total GULP energy -334937.287704 kJ/mol
# GULP energy per Si atom -5582.288128 kJ/mol
# Density = 2.295796 g / cm^3
# Si number density = 23.010334 Si / 1000 Ang^3
#
#
#
# Elastic Constant Matrix: (Units=GPa)
#
#
# Indices 1 2 3 4 5 6 
#
# 1 120.4966 21.7533 16.6462 0.0000 0.0000 0.0000
# 2 21.7533 35.6856 -2.3421 0.0000 0.0000 0.0000
# 3 16.6462 -2.3421 78.7211 0.0000 0.0000 0.0000
# 4 0.0000 0.0000 0.0000 13.0754 0.0000 0.0000
# 5 0.0000 0.0000 0.0000 0.0000 30.2601 0.0000
# 6 0.0000 0.0000 0.0000 0.0000 0.0000 9.6531
#
#
#
# Elastic Compliance Matrix: (Units=1/GPa)
#
#
# Indices 1 2 3 4 5 6 
#
# 1 0.009701 -0.006060 -0.002232 0.000000 0.000000 0.000000
# 2 -0.006060 0.031863 0.002229 0.000000 0.000000 0.000000
# 3 -0.002232 0.002229 0.013241 0.000000 0.000000 0.000000
# 4 0.000000 0.000000 0.000000 0.076480 0.000000 0.000000
# 5 0.000000 0.000000 0.000000 0.000000 0.033047 0.000000
# 6 0.000000 0.000000 0.000000 0.000000 0.000000 0.103594
#
#
# Mechanical properties :
#
#
# Convention : Reuss Voigt Hill
#
# Bulk Modulus (GPa) = 23.42977 34.11311 28.77144
# Shear Modulus (GPa) = 16.99075 23.85411 20.42243
#
# Velocity S-wave (km/s) = 2.72029 3.22323 2.98238
# Velocity P-wave (km/s) = 4.48007 5.35813 4.93865
#
# Compressibility (1/GPa) = 0.04268073
#
# Stress axis : x y z
#
# Youngs Moduli (GPa) = 103.07842 31.38432 75.52113
#
# Poissons Ratio (x) = 0.19020 0.16854
# Poissons Ratio (y) = 0.62468 -0.16837
# Poissons Ratio (z) = 0.23004 -0.06997
#
# Static dielectric constant tensor:
#      x y z
#    x 1.910540 0.000000 0.000000 
#    y 0.000000 1.782410 0.000000 
#    z 0.000000 0.000000 1.956810 
# 
# From -- ./inp_files/7940.got.cif
#   From: 2010.05.17/outbox.cif.g08.bks.cpg/sg60_4_cif.got.tgz:7940.got - 2010.06.03 14:59:27.
