data_PCOD9453500
_publ_section_title
;
Structure prediction by ZEFSAII (Michael W. Deem and Ramdas Pophale) SiO2 
 PCOD9453500
Probable space group: P M M N
;
_chemical_formula_sum "Si O2"
_cell_formula_units_Z 64
_cell_length_a 24.000000
_cell_length_b 9.000000
_cell_length_c 15.000000
_cell_angle_alpha 90.000000
_cell_angle_beta 90.000000
_cell_angle_gamma 90.000000
_cell_volume 3240.000000
_symmetry_space_group_name_H-M "P M M N"
_symmetry_group_IT_number 59
_space_group.IT_coordinate_system_code '2'
_symmetry_cell_setting 'orthorhombic'
loop_
_space_group_symop_operation_xyz
x,y,z
1/2-x,1/2-y,z
1/2+x,-y,-z
-x,1/2+y,-z
-x,-y,-z
1/2+x,1/2+y,-z
1/2-x,y,z
x,1/2-y,z
loop_
_atom_site_type_symbol
_atom_site_label
_atom_site_fract_x
_atom_site_fract_y
_atom_site_fract_z
Si Si1 0.686288 0.074136 0.002648
Si Si2 0.523643 0.082453 0.604922
Si Si3 0.184717 0.570704 0.657960
Si Si4 0.405822 0.073462 0.540188
Si Si5 0.810033 0.575104 0.811237
Si Si6 0.998701 0.571402 0.096602
Si Si7 0.408394 0.915043 0.222706
Si Si8 0.110553 0.570409 0.830616
O O1 0.750000 0.050652 0.033761
O O2 0.679171 0.250000 0.987414
O O3 0.644381 0.029250 0.079882
O O4 0.680109 0.991341 0.909342
O O5 0.525414 0.250000 0.565040
O O6 0.459610 0.033308 0.601808
O O7 0.544381 0.091680 0.704096
O O8 0.567596 0.981690 0.552422
O O9 0.250000 0.524306 0.661758
O O10 0.184403 0.750000 0.653692
O O11 0.149518 0.505794 0.575255
O O12 0.148748 0.527667 0.745923
O O13 0.397390 0.250000 0.541425
O O14 0.750000 0.520801 0.779972
O O15 0.809577 0.750000 0.817817
O O16 0.859260 0.521103 0.749756
O O17 0.993837 0.750000 0.093573
O O18 0.059153 0.534208 0.136141
O O19 0.949244 0.505115 0.156874
O O20 0.000000 0.500000 0.000000
O O21 0.385142 0.750000 0.209689
O O22 0.104088 0.750000 0.828281
#
# Coordination Sequence:
#
# PCOD9453500 Si02
#       8
#     8   8   8   8   8   8   8   8
#     4   9  17  31  51  72  97 134 179 221 258 301
#     4   9  19  37  60  84 109 139 177 222 272 326
#     4  10  21  37  57  82 115 154 192 230 276 336
#     4  10  20  36  59  86 113 140 175 222 274 327
#     4  10  21  35  51  74 103 132 166 213 264 309
#     4  11  23  37  53  78 113 149 185 228 277 326
#     4  10  21  37  56  77 103 137 177 216 256 311
#     4  10  20  34  53  78 107 142 186 230 271 318
#
# _framework density 19.753086
#
# number of rings (size 3 to 8) (size 9 to 14) (size 15 to 20)
#    0.000    2.125    0.000    3.000    0.000    9.500 
#    0.000    0.625    0.000    3.000    0.000    0.000 
#    0.000    0.000    0.000    0.000    0.000    0.000 
#
# Total GULP energy -356706.072943 kJ/mol
# GULP energy per Si atom -5573.532390 kJ/mol
# Density = 1.970813 g / cm^3
# Si number density = 19.753086 Si / 1000 Ang^3
#
#
#
# Elastic Constant Matrix: (Units=GPa)
#
#
# Indices 1 2 3 4 5 6 
#
# 1 121.9522 55.8822 32.1376 0.0000 0.0000 0.0000
# 2 55.8822 3.1110 11.0190 0.0000 0.0000 0.0000
# 3 32.1376 11.0190 26.2641 0.0000 0.0000 0.0000
# 4 0.0000 0.0000 0.0000 4.5691 0.0000 0.0000
# 5 0.0000 0.0000 0.0000 0.0000 24.7924 0.0000
# 6 0.0000 0.0000 0.0000 0.0000 0.0000 26.8897
#
#
#
# Elastic Compliance Matrix: (Units=1/GPa)
#
#
# Indices 1 2 3 4 5 6 
#
# 1 0.000786 0.022053 -0.010214 0.000000 0.000000 0.000000
# 2 0.022053 -0.042977 -0.008954 0.000000 0.000000 0.000000
# 3 -0.010214 -0.008954 0.054330 0.000000 0.000000 0.000000
# 4 0.000000 0.000000 0.000000 0.218862 0.000000 0.000000
# 5 0.000000 0.000000 0.000000 0.000000 0.040335 0.000000
# 6 0.000000 0.000000 0.000000 0.000000 0.000000 0.037189
#
#
# Mechanical properties :
#
#
# Convention : Reuss Voigt Hill
#
# Bulk Modulus (GPa) = 55.83883 38.82278 47.33080
# Shear Modulus (GPa) = 16.19561 14.73613 15.46587
#
# Velocity S-wave (km/s) = 2.86650 2.73429 2.80118
# Velocity P-wave (km/s) = 6.26782 5.44658 5.87157
#
# Compressibility (1/GPa) = 0.01790869
#
# Stress axis : x y z
#
# Youngs Moduli (GPa) = 1271.58771 -23.26838 18.40605
#
# Poissons Ratio (x) = 0.51313 0.18801
# Poissons Ratio (y) = -28.04213 0.16481
# Poissons Ratio (z) = 12.98856 -0.20834
#
# Static dielectric constant tensor:
#      x y z
#    x 1.714200 0.000000 0.000000 
#    y 0.000000 1.700250 0.000000 
#    z 0.000000 0.000000 1.727670 
# 
# From -- ./inp_files/24772.got.cif
#   From: 2010.05.17/outbox.ucp.g08.bks.cvg/sg59_13_cif.got.tgz:24772.got - 2010.06.11 16:43:56.
