data_PCOD9453974
_publ_section_title
;
Structure prediction by ZEFSAII (Michael W. Deem and Ramdas Pophale) SiO2 
 PCOD9453974
Probable space group: P B C N
;
_chemical_formula_sum "Si O2"
_cell_formula_units_Z 48
_cell_length_a 9.059028
_cell_length_b 19.076978
_cell_length_c 15.380156
_cell_angle_alpha 90.000000
_cell_angle_beta 90.000000
_cell_angle_gamma 90.000000
_cell_volume 2657.981301
_symmetry_space_group_name_H-M "P B C N"
_symmetry_group_IT_number 60
_symmetry_cell_setting 'orthorhombic'
loop_
_space_group_symop_operation_xyz
x,y,z
1/2-x,1/2-y,1/2+z
1/2+x,1/2-y,-z
-x,y,1/2-z
-x,-y,-z
1/2+x,1/2+y,1/2-z
1/2-x,1/2+y,z
x,-y,1/2+z
loop_
_atom_site_type_symbol
_atom_site_label
_atom_site_fract_x
_atom_site_fract_y
_atom_site_fract_z
Si Si1 0.752419 0.071343 0.360033
Si Si2 0.500000 0.487922 0.750000
Si Si3 0.891415 0.319044 0.558367
Si Si4 0.716085 0.179339 0.513180
Si Si5 0.891611 0.067760 0.603190
Si Si6 0.500000 0.861085 0.750000
Si Si7 0.794505 0.055344 0.975228
O O1 0.767425 0.135052 0.428130
O O2 0.632050 0.092863 0.289544
O O3 0.910082 0.058208 0.317033
O O4 0.713633 0.997828 0.407850
O O5 0.391132 0.539469 0.799928
O O6 0.791063 0.253177 0.532545
O O7 0.806076 0.388132 0.523830
O O8 0.042897 0.313548 0.503785
O O9 0.934887 0.322572 0.662121
O O10 0.773936 0.128161 0.588524
O O11 0.059422 0.087334 0.572511
O O12 0.851646 0.000379 0.545590
#
# Coordination Sequence:
#
# PCOD9453974 Si02
#       7
#     8   4   8   8   8   4   8
#     4   9  20  36  56  84 108 140 182 223 271 323
#     4  10  18  31  58  83 112 144 180 232 268 307
#     4  11  22  38  58  80 109 146 183 226 272 325
#     4  10  22  36  54  78 108 146 186 219 271 332
#     4   9  18  33  54  82 108 141 180 219 266 318
#     4  10  22  35  56  83 108 136 180 236 276 311
#     4   9  18  34  57  79 107 142 179 217 266 329
#
# _framework density 18.058816
#
# number of rings (size 3 to 8) (size 9 to 14) (size 15 to 20)
#    0.000    2.333    0.000    3.000    0.000    9.333 
#    0.000    1.667    0.000    9.000    0.000    0.000 
#    0.000    0.000    0.000    0.000    0.000    0.000 
#
# Total GULP energy -267215.426828 kJ/mol
# GULP energy per Si atom -5566.988059 kJ/mol
# Density = 1.801771 g / cm^3
# Si number density = 18.058816 Si / 1000 Ang^3
#
#
#
# Elastic Constant Matrix: (Units=GPa)
#
#
# Indices 1 2 3 4 5 6 
#
# 1 92.5909 58.6917 31.0791 0.0000 0.0000 0.0000
# 2 58.6917 106.5567 36.3155 0.0000 0.0000 0.0000
# 3 31.0791 36.3155 42.1005 0.0000 0.0000 0.0000
# 4 0.0000 0.0000 0.0000 153.9184 0.0000 0.0000
# 5 0.0000 0.0000 0.0000 0.0000 35.6061 0.0000
# 6 0.0000 0.0000 0.0000 0.0000 0.0000 28.6152
#
#
#
# Elastic Compliance Matrix: (Units=1/GPa)
#
#
# Indices 1 2 3 4 5 6 
#
# 1 0.017814 -0.007550 -0.006638 0.000000 0.000000 0.000000
# 2 -0.007550 0.016492 -0.008653 0.000000 0.000000 0.000000
# 3 -0.006638 -0.008653 0.036117 0.000000 0.000000 0.000000
# 4 0.000000 0.000000 0.000000 0.006497 0.000000 0.000000
# 5 0.000000 0.000000 0.000000 0.000000 0.028085 0.000000
# 6 0.000000 0.000000 0.000000 0.000000 0.000000 0.034946
#
#
# Mechanical properties :
#
#
# Convention : Reuss Voigt Hill
#
# Bulk Modulus (GPa) = 40.41747 54.82452 47.62100
# Shear Modulus (GPa) = 25.78926 51.30539 38.54732
#
# Velocity S-wave (km/s) = 3.78308 5.33590 4.62512
# Velocity P-wave (km/s) = 6.44297 8.26966 7.41280
#
# Compressibility (1/GPa) = 0.02474177
#
# Stress axis : x y z
#
# Youngs Moduli (GPa) = 56.13576 60.63597 27.68797
#
# Poissons Ratio (x) = 0.45778 0.18380
# Poissons Ratio (y) = 0.42380 0.23957
# Poissons Ratio (z) = 0.37265 0.52465
#
# Static dielectric constant tensor:
#      x y z
#    x 1.650250 0.000000 0.000000 
#    y 0.000000 1.607120 0.000000 
#    z 0.000000 0.000000 1.679270 
# 
# From -- ./inp_files/15055.got.cif
#   From: 2010.05.17/outbox.cif.g08.bks.cpg/sg60_8_cif.got.tgz:15055.got - 2010.06.03 14:59:27.
