data_PCOD9453634
_publ_section_title
;
Structure prediction by ZEFSAII (Michael W. Deem and Ramdas Pophale) SiO2 
 PCOD9453634
Probable space group: P M M N
;
_chemical_formula_sum "Si O2"
_cell_formula_units_Z 64
_cell_length_a 9.000000
_cell_length_b 15.000000
_cell_length_c 24.000000
_cell_angle_alpha 90.000000
_cell_angle_beta 90.000000
_cell_angle_gamma 90.000000
_cell_volume 3240.000000
_symmetry_space_group_name_H-M "P M M N"
_symmetry_group_IT_number 59
_space_group.IT_coordinate_system_code '2'
_symmetry_cell_setting 'orthorhombic'
loop_
_space_group_symop_operation_xyz
x,y,z
1/2-x,1/2-y,z
1/2+x,-y,-z
-x,1/2+y,-z
-x,-y,-z
1/2+x,1/2+y,-z
1/2-x,y,z
x,1/2-y,z
loop_
_atom_site_type_symbol
_atom_site_label
_atom_site_fract_x
_atom_site_fract_y
_atom_site_fract_z
Si Si1 0.417513 0.351672 0.617754
Si Si2 0.925221 0.855171 0.774141
Si Si3 0.924048 0.502619 0.559023
Si Si4 0.579404 0.519550 0.185788
Si Si5 0.420568 0.849828 0.267005
Si Si6 0.930481 0.649646 0.645342
Si Si7 0.080752 0.959765 0.078230
Si Si8 0.922481 0.646143 0.983845
O O1 0.250000 0.386965 0.610412
O O2 0.419070 0.250000 0.597985
O O3 0.538628 0.409348 0.586938
O O4 0.466383 0.352049 0.681740
O O5 0.750000 0.876307 0.782185
O O6 0.942484 0.750000 0.784173
O O7 0.965751 0.872709 0.709301
O O8 0.029187 0.917134 0.810404
O O9 0.750000 0.517279 0.552443
O O10 0.984130 0.578492 0.600783
O O11 0.000000 0.500000 0.500000
O O12 0.750000 0.531371 0.201230
O O13 0.470681 0.573940 0.225844
O O14 0.542276 0.553915 0.124834
O O15 0.250000 0.863470 0.285832
O O16 0.428523 0.750000 0.242078
O O17 0.750000 0.650399 0.643527
O O18 0.981719 0.750000 0.633260
O O19 0.250000 0.943717 0.097381
O O20 0.073001 0.064372 0.060362
O O21 0.037870 0.891590 0.029203
O O22 0.750000 0.645122 0.004094
O O23 0.952430 0.750000 0.967250
#
# Coordination Sequence:
#
# PCOD9453634 Si02
#       8
#     8   8   8   8   8   8   8   8
#     4  10  21  38  59  82 110 144 182 227 281 338
#     4   9  18  35  59  83 107 140 184 230 277 332
#     4  11  22  35  54  80 110 144 184 230 279 331
#     4  12  24  36  54  82 119 155 185 227 277 325
#     4  10  21  38  60  84 110 144 187 231 278 336
#     4   8  16  33  56  78 100 133 177 221 268 324
#     4  10  21  37  57  83 113 146 187 229 273 327
#     4   9  19  38  62  84 108 142 184 230 280 331
#
# _framework density 19.753086
#
# number of rings (size 3 to 8) (size 9 to 14) (size 15 to 20)
#    0.000    2.125    0.000    4.125    0.000    5.000 
#    0.000    3.125    0.000    2.625    0.000    0.000 
#    0.000    0.000    0.000    0.000    0.000    0.000 
#
# Total GULP energy -356763.739322 kJ/mol
# GULP energy per Si atom -5574.433427 kJ/mol
# Density = 1.970813 g / cm^3
# Si number density = 19.753086 Si / 1000 Ang^3
#
#
#
# Elastic Constant Matrix: (Units=GPa)
#
#
# Indices 1 2 3 4 5 6 
#
# 1 40.5818 8.8655 2.1718 0.0000 0.0000 0.0000
# 2 8.8655 39.3192 5.1800 0.0000 0.0000 0.0000
# 3 2.1718 5.1800 16.5660 0.0000 0.0000 0.0000
# 4 0.0000 0.0000 0.0000 23.0255 0.0000 0.0000
# 5 0.0000 0.0000 0.0000 0.0000 26.3666 0.0000
# 6 0.0000 0.0000 0.0000 0.0000 0.0000 21.5656
#
#
#
# Elastic Compliance Matrix: (Units=1/GPa)
#
#
# Indices 1 2 3 4 5 6 
#
# 1 0.025961 -0.005637 -0.001641 0.000000 0.000000 0.000000
# 2 -0.005637 0.027750 -0.007938 0.000000 0.000000 0.000000
# 3 -0.001641 -0.007938 0.063062 0.000000 0.000000 0.000000
# 4 0.000000 0.000000 0.000000 0.043430 0.000000 0.000000
# 5 0.000000 0.000000 0.000000 0.000000 0.037927 0.000000
# 6 0.000000 0.000000 0.000000 0.000000 0.000000 0.046370
#
#
# Mechanical properties :
#
#
# Convention : Reuss Voigt Hill
#
# Bulk Modulus (GPa) = 11.58208 14.32241 12.95225
# Shear Modulus (GPa) = 16.46300 19.54153 18.00227
#
# Velocity S-wave (km/s) = 2.89007 3.14871 3.02216
# Velocity P-wave (km/s) = 4.12466 4.52611 4.33004
#
# Compressibility (1/GPa) = 0.08634024
#
# Stress axis : x y z
#
# Youngs Moduli (GPa) = 38.51941 36.03640 15.85752
#
# Poissons Ratio (x) = 0.20315 0.02602
# Poissons Ratio (y) = 0.21715 0.12588
# Poissons Ratio (z) = 0.06320 0.28605
#
# Static dielectric constant tensor:
#      x y z
#    x 1.673760 0.000000 0.000000 
#    y 0.000000 1.715040 0.000000 
#    z 0.000000 0.000000 1.705640 
# 
# From -- ./inp_files/31483.got.cif
#   From: 2010.05.17/outbox.ucp.g08.bks.cvg/sg59_16_cif.got.tgz:31483.got - 2010.06.11 16:43:56.
