data_PCOD9453576
_publ_section_title
;
Structure prediction by ZEFSAII (Michael W. Deem and Ramdas Pophale) SiO2 
 PCOD9453576
Probable space group: P M M N
;
_chemical_formula_sum "Si O2"
_cell_formula_units_Z 48
_cell_length_a 9.000000
_cell_length_b 18.000000
_cell_length_c 15.000000
_cell_angle_alpha 90.000000
_cell_angle_beta 90.000000
_cell_angle_gamma 90.000000
_cell_volume 2430.000000
_symmetry_space_group_name_H-M "P M M N"
_symmetry_group_IT_number 59
_space_group.IT_coordinate_system_code '2'
_symmetry_cell_setting 'orthorhombic'
loop_
_space_group_symop_operation_xyz
x,y,z
1/2-x,1/2-y,z
1/2+x,-y,-z
-x,1/2+y,-z
-x,-y,-z
1/2+x,1/2+y,-z
1/2-x,y,z
x,1/2-y,z
loop_
_atom_site_type_symbol
_atom_site_label
_atom_site_fract_x
_atom_site_fract_y
_atom_site_fract_z
Si Si1 0.424679 0.250000 0.075570
Si Si2 0.571280 0.875518 0.583888
Si Si3 0.583140 0.384966 0.991025
Si Si4 0.582361 0.516149 0.135724
Si Si5 0.074643 0.482980 0.661297
Si Si6 0.927923 0.333932 0.602390
Si Si7 0.069920 0.250000 0.276405
O O1 0.250000 0.250000 0.085083
O O2 0.475145 0.321158 0.021583
O O3 0.489918 0.250000 0.176060
O O4 0.750000 0.874449 0.573183
O O5 0.492046 0.842383 0.497354
O O6 0.529261 0.822979 0.667264
O O7 0.513347 0.958545 0.600925
O O8 0.750000 0.356536 0.984634
O O9 0.576563 0.447483 0.068022
O O10 0.532758 0.423925 0.900313
O O11 0.750000 0.547307 0.131151
O O12 0.555778 0.492211 0.236389
O O13 0.250000 0.482859 0.638775
O O14 0.008187 0.400561 0.653977
O O15 0.750000 0.344302 0.602635
O O16 0.959831 0.250000 0.634525
O O17 0.250000 0.250000 0.273053
#
# Coordination Sequence:
#
# PCOD9453576 Si02
#       7
#     4   8   8   8   8   8   4
#     4  11  21  35  55  84 119 152 189 231 286 347
#     4  11  21  38  62  88 120 154 195 241 293 348
#     4  10  20  36  59  85 116 151 191 238 289 341
#     4   9  20  39  60  84 114 152 194 237 287 344
#     4  11  23  39  61  89 118 153 198 241 289 349
#     4  11  24  42  61  84 116 155 198 245 297 346
#     4   9  20  35  57  88 119 154 193 239 290 345
#
# _framework density 19.753086
#
# number of rings (size 3 to 8) (size 9 to 14) (size 15 to 20)
#    0.000    1.667    0.833    3.750    0.000    3.000 
#    1.500    2.500    0.000    0.000    0.000    0.000 
#    0.000    0.000    0.000    0.000    0.000    0.000 
#
# Total GULP energy -268020.136256 kJ/mol
# GULP energy per Si atom -5583.752839 kJ/mol
# Density = 1.970813 g / cm^3
# Si number density = 19.753086 Si / 1000 Ang^3
#
#
#
# Elastic Constant Matrix: (Units=GPa)
#
#
# Indices 1 2 3 4 5 6 
#
# 1 58.2991 19.1189 8.1469 0.0000 0.0000 0.0000
# 2 19.1189 60.3338 4.1075 0.0000 0.0000 0.0000
# 3 8.1469 4.1075 17.2666 0.0000 0.0000 0.0000
# 4 0.0000 0.0000 0.0000 3.7920 0.0000 0.0000
# 5 0.0000 0.0000 0.0000 0.0000 24.4384 0.0000
# 6 0.0000 0.0000 0.0000 0.0000 0.0000 -36.9465
#
#
#
# Elastic Compliance Matrix: (Units=1/GPa)
#
#
# Indices 1 2 3 4 5 6 
#
# 1 0.020209 -0.005850 -0.008144 0.000000 0.000000 0.000000
# 2 -0.005850 0.018540 -0.001651 0.000000 0.000000 0.000000
# 3 -0.008144 -0.001651 0.062150 0.000000 0.000000 0.000000
# 4 0.000000 0.000000 0.000000 0.263713 0.000000 0.000000
# 5 0.000000 0.000000 0.000000 0.000000 0.040919 0.000000
# 6 0.000000 0.000000 0.000000 0.000000 0.000000 -0.027066
#
#
# Mechanical properties :
#
#
# Convention : Reuss Voigt Hill
#
# Bulk Modulus (GPa) = 14.36530 22.07181 18.21855
# Shear Modulus (GPa) = 11.54846 5.22520 8.38683
#
# Velocity S-wave (km/s) = 2.42056 1.62819 2.06278
# Velocity P-wave (km/s) = 3.88592 3.83833 3.86220
#
# Compressibility (1/GPa) = 0.06961219
#
# Stress axis : x y z
#
# Youngs Moduli (GPa) = 49.48216 53.93602 16.09004
#
# Poissons Ratio (x) = 0.31551 0.13103
# Poissons Ratio (y) = 0.28945 0.02656
# Poissons Ratio (z) = 0.40297 0.08903
#
# Static dielectric constant tensor:
#      x y z
#    x 1.665870 0.000000 0.000000 
#    y 0.000000 1.694990 0.000000 
#    z 0.000000 0.000000 1.701460 
# 
# From -- ./inp_files/20594.got.cif
#   From: 2010.05.17/outbox.ucp.g08.bks.cvg/sg59_11_cif.got.tgz:20594.got - 2010.06.11 16:43:56.
