data_PCOD9453503
_publ_section_title
;
Structure prediction by ZEFSAII (Michael W. Deem and Ramdas Pophale) SiO2 
 PCOD9453503
Probable space group: P M M N
;
_chemical_formula_sum "Si O2"
_cell_formula_units_Z 56
_cell_length_a 9.000000
_cell_length_b 21.000000
_cell_length_c 15.000000
_cell_angle_alpha 90.000000
_cell_angle_beta 90.000000
_cell_angle_gamma 90.000000
_cell_volume 2835.000000
_symmetry_space_group_name_H-M "P M M N"
_symmetry_group_IT_number 59
_space_group.IT_coordinate_system_code '2'
_symmetry_cell_setting 'orthorhombic'
loop_
_space_group_symop_operation_xyz
x,y,z
1/2-x,1/2-y,z
1/2+x,-y,-z
-x,1/2+y,-z
-x,-y,-z
1/2+x,1/2+y,-z
1/2-x,y,z
x,1/2-y,z
loop_
_atom_site_type_symbol
_atom_site_label
_atom_site_fract_x
_atom_site_fract_y
_atom_site_fract_z
Si Si1 0.427853 0.179809 0.820254
Si Si2 0.072105 0.952914 0.228124
Si Si3 0.425794 0.821032 0.986021
Si Si4 0.572312 0.455005 0.572537
Si Si5 0.571170 0.179711 0.506028
Si Si6 0.074745 0.177054 0.314610
Si Si7 0.428993 0.415733 0.150747
O O1 0.250000 0.176318 0.816593
O O2 0.473270 0.250000 0.782900
O O3 0.497327 0.115705 0.780835
O O4 0.485206 0.179126 0.921841
O O5 0.250000 0.944348 0.219431
O O6 0.040693 0.977358 0.327762
O O7 0.027199 0.010282 0.162374
O O8 0.250000 0.828750 0.002963
O O9 0.447047 0.750000 0.945093
O O10 0.487199 0.877576 0.925833
O O11 0.500000 0.500000 0.500000
O O12 0.750000 0.456158 0.560414
O O13 0.520957 0.381822 0.560782
O O14 0.750000 0.181028 0.509255
O O15 0.516751 0.250000 0.534747
O O16 0.518475 0.169747 0.404582
O O17 0.250000 0.170804 0.336470
O O18 0.051870 0.250000 0.281823
O O19 0.039443 0.124690 0.240565
O O20 0.250000 0.413295 0.137136
#
# Coordination Sequence:
#
# PCOD9453503 Si02
#       7
#     8   8   8   8   8   8   8
#     4  10  22  41  63  85 110 142 182 228 278 330
#     4  10  22  38  57  83 112 146 187 228 275 329
#     4  10  21  37  59  86 113 144 182 222 268 323
#     4  10  21  37  57  80 108 144 184 226 273 325
#     4   9  18  32  50  74 103 135 175 223 272 320
#     4   9  17  30  50  76 107 144 182 220 265 316
#     4  10  20  34  53  79 112 147 184 224 267 322
#
# _framework density 19.753086
#
# number of rings (size 3 to 8) (size 9 to 14) (size 15 to 20)
#    0.000    2.286    0.000    2.143    0.000    6.857 
#    0.000    2.857    0.000    1.714    0.000    0.000 
#    0.000    0.000    0.000    0.000    0.000    0.000 
#
# Total GULP energy -312420.881942 kJ/mol
# GULP energy per Si atom -5578.944320 kJ/mol
# Density = 1.970813 g / cm^3
# Si number density = 19.753086 Si / 1000 Ang^3
#
#
#
# Elastic Constant Matrix: (Units=GPa)
#
#
# Indices 1 2 3 4 5 6 
#
# 1 16.6177 31.8430 12.5839 0.0000 0.0000 0.0000
# 2 31.8430 127.1276 32.9101 0.0000 0.0000 0.0000
# 3 12.5839 32.9101 40.8761 0.0000 0.0000 0.0000
# 4 0.0000 0.0000 0.0000 36.0078 0.0000 0.0000
# 5 0.0000 0.0000 0.0000 0.0000 23.7467 0.0000
# 6 0.0000 0.0000 0.0000 0.0000 0.0000 34.7694
#
#
#
# Elastic Compliance Matrix: (Units=1/GPa)
#
#
# Indices 1 2 3 4 5 6 
#
# 1 0.124080 -0.026771 -0.016645 0.000000 0.000000 0.000000
# 2 -0.026771 0.015713 -0.004409 0.000000 0.000000 0.000000
# 3 -0.016645 -0.004409 0.033139 0.000000 0.000000 0.000000
# 4 0.000000 0.000000 0.000000 0.027772 0.000000 0.000000
# 5 0.000000 0.000000 0.000000 0.000000 0.042111 0.000000
# 6 0.000000 0.000000 0.000000 0.000000 0.000000 0.028761
#
#
# Mechanical properties :
#
#
# Convention : Reuss Voigt Hill
#
# Bulk Modulus (GPa) = 12.93975 37.69949 25.31962
# Shear Modulus (GPa) = 12.72311 26.05707 19.39009
#
# Velocity S-wave (km/s) = 2.54068 3.63594 3.13649
# Velocity P-wave (km/s) = 3.89509 6.06247 5.09535
#
# Compressibility (1/GPa) = 0.07728122
#
# Stress axis : x y z
#
# Youngs Moduli (GPa) = 8.05934 63.64115 30.17630
#
# Poissons Ratio (x) = 1.70371 0.50229
# Poissons Ratio (y) = 0.21575 0.13306
# Poissons Ratio (z) = 0.13415 0.28062
#
# Static dielectric constant tensor:
#      x y z
#    x 1.661890 0.000000 0.000000 
#    y 0.000000 1.728160 0.000000 
#    z 0.000000 0.000000 1.687660 
# 
# From -- ./inp_files/20908.got.cif
#   From: 2010.05.17/outbox.ucp.g08.bks.cvg/sg59_11_cif.got.tgz:20908.got - 2010.06.11 16:43:56.
