data_PCOD9453663
_publ_section_title
;
Structure prediction by ZEFSAII (Michael W. Deem and Ramdas Pophale) SiO2 
 PCOD9453663
Probable space group: P M M N
;
_chemical_formula_sum "Si O2"
_cell_formula_units_Z 64
_cell_length_a 9.000000
_cell_length_b 18.000000
_cell_length_c 21.000000
_cell_angle_alpha 90.000000
_cell_angle_beta 90.000000
_cell_angle_gamma 90.000000
_cell_volume 3402.000000
_symmetry_space_group_name_H-M "P M M N"
_symmetry_group_IT_number 59
_space_group.IT_coordinate_system_code '2'
_symmetry_cell_setting 'orthorhombic'
loop_
_space_group_symop_operation_xyz
x,y,z
1/2-x,1/2-y,z
1/2+x,-y,-z
-x,1/2+y,-z
-x,-y,-z
1/2+x,1/2+y,-z
1/2-x,y,z
x,1/2-y,z
loop_
_atom_site_type_symbol
_atom_site_label
_atom_site_fract_x
_atom_site_fract_y
_atom_site_fract_z
Si Si1 0.571124 0.835349 0.284825
Si Si2 0.572074 0.605761 0.787431
Si Si3 0.920448 0.661004 0.424541
Si Si4 0.572211 0.072282 0.968838
Si Si5 0.573627 0.073680 0.469343
Si Si6 0.929603 0.336726 0.343488
Si Si7 0.918282 0.837659 0.925212
Si Si8 0.926989 0.434885 0.821437
O O1 0.750000 0.835870 0.283251
O O2 0.520927 0.750000 0.280952
O O3 0.530623 0.866754 0.354681
O O4 0.506919 0.880207 0.226607
O O5 0.750000 0.618668 0.781795
O O6 0.494791 0.638319 0.724703
O O7 0.523266 0.639989 0.855349
O O8 0.545048 0.518259 0.796804
O O9 0.750000 0.635688 0.436976
O O10 0.915762 0.750000 0.420293
O O11 0.028962 0.636132 0.479649
O O12 0.750000 0.067877 0.970244
O O13 0.525724 0.076156 0.894839
O O14 0.514732 0.136554 0.015190
O O15 0.500000 0.000000 0.000000
O O16 0.750000 0.062421 0.465925
O O17 0.524040 0.106356 0.400310
O O18 0.500000 0.000000 0.500000
O O19 0.750000 0.339075 0.340683
O O20 0.971622 0.250000 0.356712
O O21 0.750000 0.870318 0.930687
O O22 0.907280 0.750000 0.926261
O O23 0.750000 0.422705 0.819293
#
# Coordination Sequence:
#
# PCOD9453663 Si02
#       8
#     8   8   8   8   8   8   8   8
#     4   9  20  38  59  85 117 152 192 236 284 342
#     4  10  21  39  61  87 119 155 196 239 289 346
#     4   9  19  38  62  86 114 149 190 235 282 337
#     4  11  22  39  60  83 115 153 195 240 290 345
#     4  11  24  40  59  86 120 155 194 241 292 344
#     4  10  23  42  61  85 119 155 194 241 292 347
#     4  10  21  39  62  88 120 155 193 241 294 348
#     4  10  22  38  58  85 118 152 192 241 288 343
#
# _framework density 18.812463000000001
#
# number of rings (size 3 to 8) (size 9 to 14) (size 15 to 20)
#    0.000    2.000    1.250    2.250    1.750    6.000 
#    0.000    3.750    0.000    0.000    0.000    0.000 
#    0.000    0.000    0.000    0.000    0.000    0.000 
#
# Total GULP energy -357028.849362 kJ/mol
# GULP energy per Si atom -5578.575771 kJ/mol
# Density = 1.876965 g / cm^3
# Si number density = 18.812463 Si / 1000 Ang^3
#
#
#
# Elastic Constant Matrix: (Units=GPa)
#
#
# Indices 1 2 3 4 5 6 
#
# 1 24.3003 19.2016 31.8169 0.0000 0.0000 0.0000
# 2 19.2016 52.3888 41.7823 0.0000 0.0000 0.0000
# 3 31.8169 41.7823 138.8037 0.0000 0.0000 0.0000
# 4 0.0000 0.0000 0.0000 32.0905 0.0000 0.0000
# 5 0.0000 0.0000 0.0000 0.0000 34.9712 0.0000
# 6 0.0000 0.0000 0.0000 0.0000 0.0000 31.0042
#
#
#
# Elastic Compliance Matrix: (Units=1/GPa)
#
#
# Indices 1 2 3 4 5 6 
#
# 1 0.068117 -0.016467 -0.010657 0.000000 0.000000 0.000000
# 2 -0.016467 0.029099 -0.004985 0.000000 0.000000 0.000000
# 3 -0.010657 -0.004985 0.011148 0.000000 0.000000 0.000000
# 4 0.000000 0.000000 0.000000 0.031162 0.000000 0.000000
# 5 0.000000 0.000000 0.000000 0.000000 0.028595 0.000000
# 6 0.000000 0.000000 0.000000 0.000000 0.000000 0.032254
#
#
# Mechanical properties :
#
#
# Convention : Reuss Voigt Hill
#
# Bulk Modulus (GPa) = 22.65183 44.56603 33.60893
# Shear Modulus (GPa) = 17.90141 27.79265 22.84703
#
# Velocity S-wave (km/s) = 3.08810 3.84780 3.48869
# Velocity P-wave (km/s) = 4.97817 6.59408 5.84226
#
# Compressibility (1/GPa) = 0.04414653
#
# Stress axis : x y z
#
# Youngs Moduli (GPa) = 14.68057 34.36541 89.70400
#
# Poissons Ratio (x) = 0.56589 0.95599
# Poissons Ratio (y) = 0.24174 0.44715
# Poissons Ratio (z) = 0.15645 0.17130
#
# Static dielectric constant tensor:
#      x y z
#    x 1.642550 0.000000 0.000000 
#    y 0.000000 1.706470 0.000000 
#    z 0.000000 0.000000 1.728930 
# 
# From -- ./inp_files/29359.got.cif
#   From: 2010.05.17/outbox.ucp.g08.bks.cvg/sg59_15_cif.got.tgz:29359.got - 2010.06.11 16:43:56.
