data_PCOD9453877
_publ_section_title
;
Structure prediction by ZEFSAII (Michael W. Deem and Ramdas Pophale) SiO2 
 PCOD9453877
Probable space group: P B C N
;
_chemical_formula_sum "Si O2"
_cell_formula_units_Z 48
_cell_length_a 17.050164
_cell_length_b 8.466958
_cell_length_c 14.503492
_cell_angle_alpha 90.000000
_cell_angle_beta 90.000000
_cell_angle_gamma 90.000000
_cell_volume 2093.767942
_symmetry_space_group_name_H-M "P B C N"
_symmetry_group_IT_number 60
_symmetry_cell_setting 'orthorhombic'
loop_
_space_group_symop_operation_xyz
x,y,z
1/2-x,1/2-y,1/2+z
1/2+x,1/2-y,-z
-x,y,1/2-z
-x,-y,-z
1/2+x,1/2+y,1/2-z
1/2-x,1/2+y,z
x,-y,1/2+z
loop_
_atom_site_type_symbol
_atom_site_label
_atom_site_fract_x
_atom_site_fract_y
_atom_site_fract_z
Si Si1 0.827490 0.217155 0.610180
Si Si2 0.412450 0.557589 0.722502
Si Si3 0.895722 0.479006 0.184788
Si Si4 0.911399 0.045691 0.470892
Si Si5 0.345362 0.224701 0.958394
Si Si6 0.931747 0.594915 0.368966
O O1 0.855015 0.096559 0.691971
O O2 0.832105 0.392893 0.651109
O O3 0.744864 0.188963 0.561390
O O4 0.890777 0.198914 0.528918
O O5 0.500000 0.508664 0.750000
O O6 0.391880 0.444990 0.637039
O O7 0.423703 0.730023 0.674697
O O8 0.885198 0.309758 0.139688
O O9 0.891834 0.479549 0.294728
O O10 0.977719 0.546638 0.144131
O O11 0.858689 0.901905 0.509019
O O12 0.000000 0.000000 0.500000
O O13 0.389402 0.112188 0.033000
#
# Coordination Sequence:
#
# PCOD9453877 Si02
#       6
#     8   8   8   8   8   8
#     4  11  21  38  59  87 124 163 202 256 313 376
#     4  10  17  37  63  82 113 169 207 238 316 387
#     4  10  19  39  62  79 115 163 201 245 301 380
#     4  11  22  39  64  89 122 164 217 258 307 383
#     4  11  23  35  58  94 121 151 206 259 317 363
#     4   9  18  36  61  81 110 161 205 233 308 389
#
# _framework density 22.925176
#
# number of rings (size 3 to 8) (size 9 to 14) (size 15 to 20)
#    0.000    1.667    5.000    2.500    0.000    1.333 
#    0.000    8.333    0.000    0.000    0.000    0.000 
#    0.000    0.000    0.000    0.000    0.000    0.000 
#
# Total GULP energy -267838.668069 kJ/mol
# GULP energy per Si atom -5579.972251 kJ/mol
# Density = 2.287300 g / cm^3
# Si number density = 22.925176 Si / 1000 Ang^3
#
#
#
# Elastic Constant Matrix: (Units=GPa)
#
#
# Indices 1 2 3 4 5 6 
#
# 1 74.9747 -5.2725 4.4601 0.0000 0.0000 0.0000
# 2 -5.2725 29.9070 16.5535 0.0000 0.0000 0.0000
# 3 4.4601 16.5535 104.0207 0.0000 0.0000 0.0000
# 4 0.0000 0.0000 0.0000 17.8482 0.0000 0.0000
# 5 0.0000 0.0000 0.0000 0.0000 24.7768 0.0000
# 6 0.0000 0.0000 0.0000 0.0000 0.0000 5.2117
#
#
#
# Elastic Compliance Matrix: (Units=1/GPa)
#
#
# Indices 1 2 3 4 5 6 
#
# 1 0.013611 0.002986 -0.001059 0.000000 0.000000 0.000000
# 2 0.002986 0.037322 -0.006067 0.000000 0.000000 0.000000
# 3 -0.001059 -0.006067 0.010624 0.000000 0.000000 0.000000
# 4 0.000000 0.000000 0.000000 0.056028 0.000000 0.000000
# 5 0.000000 0.000000 0.000000 0.000000 0.040360 0.000000
# 6 0.000000 0.000000 0.000000 0.000000 0.000000 0.191876
#
#
# Mechanical properties :
#
#
# Convention : Reuss Voigt Hill
#
# Bulk Modulus (GPa) = 18.77023 26.70941 22.73982
# Shear Modulus (GPa) = 13.30282 22.44476 17.87379
#
# Velocity S-wave (km/s) = 2.41150 3.13236 2.79526
# Velocity P-wave (km/s) = 3.99489 4.97577 4.51206
#
# Compressibility (1/GPa) = 0.05327584
#
# Stress axis : x y z
#
# Youngs Moduli (GPa) = 73.47126 26.79418 94.12310
#
# Poissons Ratio (x) = -0.07999 0.09965
# Poissons Ratio (y) = -0.21935 0.57107
# Poissons Ratio (z) = 0.07778 0.16257
#
# Static dielectric constant tensor:
#      x y z
#    x 1.879620 0.000000 0.000000 
#    y 0.000000 1.871950 0.000000 
#    z 0.000000 0.000000 1.918580 
# 
# From -- ./inp_files/17629.got.cif
#   From: 2010.05.17/outbox.cif.g08.bks.cpg/sg60_9_cif.got.tgz:17629.got - 2010.06.03 14:59:27.
