data_PCOD9453574
_publ_section_title
;
Structure prediction by ZEFSAII (Michael W. Deem and Ramdas Pophale) SiO2 
 PCOD9453574
Probable space group: P M M N
;
_chemical_formula_sum "Si O2"
_cell_formula_units_Z 64
_cell_length_a 18.000000
_cell_length_b 9.000000
_cell_length_c 21.000000
_cell_angle_alpha 90.000000
_cell_angle_beta 90.000000
_cell_angle_gamma 90.000000
_cell_volume 3402.000000
_symmetry_space_group_name_H-M "P M M N"
_symmetry_group_IT_number 59
_space_group.IT_coordinate_system_code '2'
_symmetry_cell_setting 'orthorhombic'
loop_
_space_group_symop_operation_xyz
x,y,z
1/2-x,1/2-y,z
1/2+x,-y,-z
-x,1/2+y,-z
-x,-y,-z
1/2+x,1/2+y,-z
1/2-x,y,z
x,1/2-y,z
loop_
_atom_site_type_symbol
_atom_site_label
_atom_site_fract_x
_atom_site_fract_y
_atom_site_fract_z
Si Si1 0.610390 0.574543 0.613238
Si Si2 0.833032 0.074232 0.494319
Si Si3 0.449309 0.073791 0.598052
Si Si4 0.574765 0.923708 0.259756
Si Si5 0.840561 0.076199 0.011009
Si Si6 0.582822 0.573283 0.754238
Si Si7 0.835390 0.071037 0.148846
Si Si8 0.164490 0.427948 0.116507
O O1 0.614941 0.750000 0.599124
O O2 0.661568 0.481041 0.566682
O O3 0.526430 0.516011 0.600800
O O4 0.626605 0.553263 0.688087
O O5 0.750000 0.044118 0.469530
O O6 0.847009 0.250000 0.490311
O O7 0.895928 0.986006 0.456424
O O8 0.464680 0.250000 0.591122
O O9 0.408742 0.050005 0.665900
O O10 0.582639 0.750000 0.246976
O O11 0.490603 0.976519 0.251091
O O12 0.622569 0.013795 0.209851
O O13 0.750000 0.063690 0.013137
O O14 0.857929 0.250000 0.004928
O O15 0.868035 0.992574 0.948654
O O16 0.866916 0.020742 0.080158
O O17 0.563945 0.750000 0.757407
O O18 0.624715 0.530881 0.818309
O O19 0.750000 0.022732 0.152917
O O20 0.836691 0.250000 0.147285
O O21 0.250000 0.477455 0.120480
O O22 0.163547 0.250000 0.112171
#
# Coordination Sequence:
#
# PCOD9453574 Si02
#       8
#     8   8   8   8   8   8   8   8
#     4  10  20  36  59  81 103 137 177 213 253 306
#     4  11  24  39  55  79 110 139 170 212 257 301
#     4  10  21  38  58  78 104 138 174 212 255 307
#     4  10  21  35  53  78 105 133 169 214 257 299
#     4   8  15  29  48  71  99 132 170 208 250 304
#     4   9  19  35  54  76 104 138 172 207 251 306
#     4   9  18  33  53  75 101 135 172 210 255 309
#     4   9  17  30  50  76 103 131 167 212 257 300
#
# _framework density 18.812463000000001
#
# number of rings (size 3 to 8) (size 9 to 14) (size 15 to 20)
#    0.000    2.500    0.000    2.625    0.000    5.250 
#    0.000    5.625    0.000    1.500    0.000    0.000 
#    0.000    0.000    0.000    0.000    0.000    0.000 
#
# Total GULP energy -356804.232260 kJ/mol
# GULP energy per Si atom -5575.066129 kJ/mol
# Density = 1.876965 g / cm^3
# Si number density = 18.812463 Si / 1000 Ang^3
#
#
#
# Elastic Constant Matrix: (Units=GPa)
#
#
# Indices 1 2 3 4 5 6 
#
# 1 12.3986 0.3466 20.6502 0.0000 0.0000 0.0000
# 2 0.3466 9.3341 19.7372 0.0000 0.0000 0.0000
# 3 20.6502 19.7372 85.4312 0.0000 0.0000 0.0000
# 4 0.0000 0.0000 0.0000 31.0545 0.0000 0.0000
# 5 0.0000 0.0000 0.0000 0.0000 26.6334 0.0000
# 6 0.0000 0.0000 0.0000 0.0000 0.0000 17.6274
#
#
#
# Elastic Compliance Matrix: (Units=1/GPa)
#
#
# Indices 1 2 3 4 5 6 
#
# 1 0.302372 0.280205 -0.137824 0.000000 0.000000 0.000000
# 2 0.280205 0.469121 -0.176111 0.000000 0.000000 0.000000
# 3 -0.137824 -0.176111 0.085707 0.000000 0.000000 0.000000
# 4 0.000000 0.000000 0.000000 0.032201 0.000000 0.000000
# 5 0.000000 0.000000 0.000000 0.000000 0.037547 0.000000
# 6 0.000000 0.000000 0.000000 0.000000 0.000000 0.056730
#
#
# Mechanical properties :
#
#
# Convention : Reuss Voigt Hill
#
# Bulk Modulus (GPa) = 1.26624 20.95908 11.11266
# Shear Modulus (GPa) = 3.80406 19.49171 11.64788
#
# Velocity S-wave (km/s) = 1.42355 3.22235 2.49099
# Velocity P-wave (km/s) = 1.83753 5.00100 3.76739
#
# Compressibility (1/GPa) = 0.78973817
#
# Stress axis : x y z
#
# Youngs Moduli (GPa) = 3.30719 2.13165 11.66769
#
# Poissons Ratio (x) = -0.59730 1.60809
# Poissons Ratio (y) = -0.92669 2.05481
# Poissons Ratio (z) = 0.45581 0.37541
#
# Static dielectric constant tensor:
#      x y z
#    x 1.644350 0.000000 0.000000 
#    y 0.000000 1.622450 0.000000 
#    z 0.000000 0.000000 1.690800 
# 
# From -- ./inp_files/30713.got.cif
#   From: 2010.05.17/outbox.ucp.g08.bks.cvg/sg59_16_cif.got.tgz:30713.got - 2010.06.11 16:43:56.
