data_PCOD9453627
_publ_section_title
;
Structure prediction by ZEFSAII (Michael W. Deem and Ramdas Pophale) SiO2 
 PCOD9453627
Probable space group: P M M N
;
_chemical_formula_sum "Si O2"
_cell_formula_units_Z 64
_cell_length_a 9.000000
_cell_length_b 24.000000
_cell_length_c 15.000000
_cell_angle_alpha 90.000000
_cell_angle_beta 90.000000
_cell_angle_gamma 90.000000
_cell_volume 3240.000000
_symmetry_space_group_name_H-M "P M M N"
_symmetry_group_IT_number 59
_space_group.IT_coordinate_system_code '2'
_symmetry_cell_setting 'orthorhombic'
loop_
_space_group_symop_operation_xyz
x,y,z
1/2-x,1/2-y,z
1/2+x,-y,-z
-x,1/2+y,-z
-x,-y,-z
1/2+x,1/2+y,-z
1/2-x,y,z
x,1/2-y,z
loop_
_atom_site_type_symbol
_atom_site_label
_atom_site_fract_x
_atom_site_fract_y
_atom_site_fract_z
Si Si1 0.073880 0.854047 0.120982
Si Si2 0.927192 0.867898 0.300160
Si Si3 0.921551 0.182640 0.218663
Si Si4 0.570826 0.812466 0.488191
Si Si5 0.585405 0.814506 0.953787
Si Si6 0.926255 0.502125 0.287046
Si Si7 0.071437 0.474123 0.912318
Si Si8 0.926629 0.606168 0.638987
O O1 0.250000 0.851149 0.110807
O O2 0.021195 0.842179 0.220443
O O3 0.988190 0.817373 0.049598
O O4 0.009614 0.915389 0.100983
O O5 0.750000 0.866883 0.278535
O O6 0.953433 0.832549 0.388163
O O7 0.967001 0.933676 0.309976
O O8 0.750000 0.168027 0.235104
O O9 0.934624 0.250000 0.229286
O O10 0.028518 0.148964 0.283271
O O11 0.970766 0.164126 0.119753
O O12 0.750000 0.810039 0.501076
O O13 0.513079 0.750000 0.506245
O O14 0.515130 0.861431 0.552037
O O15 0.750000 0.840890 0.951461
O O16 0.603296 0.750000 0.930614
O O17 0.750000 0.497444 0.300637
O O18 0.955743 0.493868 0.181100
O O19 0.005383 0.454159 0.342392
O O20 0.250000 0.467736 0.920994
O O21 0.000000 0.500000 0.000000
O O22 0.750000 0.600121 0.633805
#
# Coordination Sequence:
#
# PCOD9453627 Si02
#       8
#     8   8   8   8   8   8   8   8
#     4  11  22  36  56  83 117 151 185 235 294 350
#     4   9  19  39  62  83 113 152 197 246 294 350
#     4  10  21  37  56  79 112 152 191 238 296 352
#     4   9  19  37  62  90 116 147 192 245 300 355
#     4  10  21  37  57  81 110 149 197 241 285 345
#     4   9  20  37  55  80 116 155 195 240 294 348
#     4  10  21  37  57  81 113 153 199 244 287 340
#     4  11  22  35  57  87 118 153 195 241 289 354
#
# _framework density 19.753086
#
# number of rings (size 3 to 8) (size 9 to 14) (size 15 to 20)
#    0.000    2.125    0.000    3.750    1.750    5.500 
#    0.000    2.500    0.000    1.500    0.000    0.000 
#    0.000    0.000    0.000    0.000    0.000    0.000 
#
# Total GULP energy -356959.387698 kJ/mol
# GULP energy per Si atom -5577.490433 kJ/mol
# Density = 1.970813 g / cm^3
# Si number density = 19.753086 Si / 1000 Ang^3
#
#
#
# Elastic Constant Matrix: (Units=GPa)
#
#
# Indices 1 2 3 4 5 6 
#
# 1 27.0202 -15.1376 -12.1374 0.0000 0.0000 0.0000
# 2 -15.1376 -10.9499 -22.5170 0.0000 0.0000 0.0000
# 3 -12.1374 -22.5170 13.6859 0.0000 0.0000 0.0000
# 4 0.0000 0.0000 0.0000 11.0408 0.0000 0.0000
# 5 0.0000 0.0000 0.0000 0.0000 15.9871 0.0000
# 6 0.0000 0.0000 0.0000 0.0000 0.0000 22.0749
#
#
#
# Elastic Compliance Matrix: (Units=1/GPa)
#
#
# Indices 1 2 3 4 5 6 
#
# 1 0.023846 -0.017442 -0.007549 0.000000 0.000000 0.000000
# 2 -0.017442 -0.008077 -0.028757 0.000000 0.000000 0.000000
# 3 -0.007549 -0.028757 0.019060 0.000000 0.000000 0.000000
# 4 0.000000 0.000000 0.000000 0.090574 0.000000 0.000000
# 5 0.000000 0.000000 0.000000 0.000000 0.062550 0.000000
# 6 0.000000 0.000000 0.000000 0.000000 0.000000 0.045300
#
#
# Mechanical properties :
#
#
# Convention : Reuss Voigt Hill
#
# Bulk Modulus (GPa) = -13.76116 -7.75864 -10.75990
# Shear Modulus (GPa) = 15.79637 15.12377 15.46007
#
# Velocity S-wave (km/s) = 2.83095 2.77002 2.80065
# Velocity P-wave (km/s) = 1.92457 2.50886 2.23588
#
# Compressibility (1/GPa) = -0.07266828
#
# Stress axis : x y z
#
# Youngs Moduli (GPa) = 41.93496 -123.81373 52.46724
#
# Poissons Ratio (x) = -2.15962 0.39608
# Poissons Ratio (y) = 0.73145 1.50881
# Poissons Ratio (z) = 0.31657 -3.56053
#
# Static dielectric constant tensor:
#      x y z
#    x 1.667840 0.000000 0.000000 
#    y 0.000000 1.590840 0.000000 
#    z 0.000000 0.000000 1.741410 
# 
# From -- ./inp_files/21500.got.cif
#   From: 2010.05.17/outbox.ucp.g08.bks.cvg/sg59_11_cif.got.tgz:21500.got - 2010.06.11 16:43:56.
