data_PCOD9453013
_publ_section_title
;
Structure prediction by ZEFSAII (Michael W. Deem and Ramdas Pophale) SiO2 
 PCOD9453013
Probable space group: P M M N
;
_chemical_formula_sum "Si O2"
_cell_formula_units_Z 40
_cell_length_a 21.260299
_cell_length_b 8.619692
_cell_length_c 11.400516
_cell_angle_alpha 90.000000
_cell_angle_beta 90.000000
_cell_angle_gamma 90.000000
_cell_volume 2089.226974
_symmetry_space_group_name_H-M "P M M N"
_symmetry_group_IT_number 59
_space_group.IT_coordinate_system_code '2'
_symmetry_cell_setting 'orthorhombic'
loop_
_space_group_symop_operation_xyz
x,y,z
1/2-x,1/2-y,z
1/2+x,-y,-z
-x,1/2+y,-z
-x,-y,-z
1/2+x,1/2+y,-z
1/2-x,y,z
x,1/2-y,z
loop_
_atom_site_type_symbol
_atom_site_label
_atom_site_fract_x
_atom_site_fract_y
_atom_site_fract_z
Si Si1 0.004648 0.434914 0.131042
Si Si2 0.066624 0.575607 0.519039
Si Si3 0.750000 0.940140 0.346520
Si Si4 0.382536 0.070218 0.736089
Si Si5 0.125468 0.924297 0.264101
Si Si6 0.750000 0.565363 0.627105
O O1 0.006613 0.250000 0.131204
O O2 0.069704 0.496902 0.188965
O O3 0.940894 0.489427 0.198174
O O4 0.000000 0.500000 0.000000
O O5 0.064038 0.750000 0.571817
O O6 0.102108 0.453754 0.599457
O O7 0.096725 0.589743 0.393281
O O8 0.000000 0.500000 0.500000
O O9 0.750000 0.750000 0.350295
O O10 0.810850 0.989628 0.269559
O O11 0.750000 0.991112 0.486882
O O12 0.382881 0.250000 0.771175
O O13 0.137738 0.750000 0.217724
O O14 0.190047 0.011539 0.295555
O O15 0.750000 0.750000 0.618219
#
# Coordination Sequence:
#
# PCOD9453013 Si02
#       6
#     8   8   4   8   8   4
#     4  12  26  45  67  90 117 159 212 265 315 370
#     4  11  21  32  54  88 125 161 200 251 309 368
#     4   9  20  35  58  91 130 167 199 239 299 370
#     4  11  21  38  61  90 126 163 204 253 305 368
#     4  11  23  39  60  91 128 165 205 255 308 366
#     4  11  21  37  60  93 132 171 205 245 305 372
#
# _framework density 19.145838000000001
#
# number of rings (size 3 to 8) (size 9 to 14) (size 15 to 20)
#    0.000    1.000    4.000    3.900    0.000    1.600 
#    0.000    3.000    0.000    1.200    0.000    0.000 
#    0.000    0.000    0.000    0.000    0.000    0.000 
#
# Total GULP energy -222778.294824 kJ/mol
# GULP energy per Si atom -5569.457371 kJ/mol
# Density = 1.910226 g / cm^3
# Si number density = 19.145838 Si / 1000 Ang^3
#
#
#
# Elastic Constant Matrix: (Units=GPa)
#
#
# Indices 1 2 3 4 5 6 
#
# 1 178.9064 62.1165 48.1197 0.0000 0.0000 0.0000
# 2 62.1165 98.1815 34.2171 0.0000 0.0000 0.0000
# 3 48.1197 34.2171 88.9091 0.0000 0.0000 0.0000
# 4 0.0000 0.0000 0.0000 28.8535 0.0000 0.0000
# 5 0.0000 0.0000 0.0000 0.0000 3.3390 0.0000
# 6 0.0000 0.0000 0.0000 0.0000 0.0000 16.7689
#
#
#
# Elastic Compliance Matrix: (Units=1/GPa)
#
#
# Indices 1 2 3 4 5 6 
#
# 1 0.007663 -0.003930 -0.002635 0.000000 0.000000 0.000000
# 2 -0.003930 0.013778 -0.003176 0.000000 0.000000 0.000000
# 3 -0.002635 -0.003176 0.013896 0.000000 0.000000 0.000000
# 4 0.000000 0.000000 0.000000 0.034658 0.000000 0.000000
# 5 0.000000 0.000000 0.000000 0.000000 0.299489 0.000000
# 6 0.000000 0.000000 0.000000 0.000000 0.000000 0.059634
#
#
# Mechanical properties :
#
#
# Convention : Reuss Voigt Hill
#
# Bulk Modulus (GPa) = 63.06784 72.76706 67.91745
# Shear Modulus (GPa) = 11.01606 24.56186 17.78896
#
# Velocity S-wave (km/s) = 2.40130 3.58562 3.05147
# Velocity P-wave (km/s) = 6.37970 7.43179 6.92575
#
# Compressibility (1/GPa) = 0.01585594
#
# Stress axis : x y z
#
# Youngs Moduli (GPa) = 130.50472 72.57865 71.96471
#
# Poissons Ratio (x) = 0.28521 0.18961
# Poissons Ratio (y) = 0.51283 0.22855
# Poissons Ratio (z) = 0.34386 0.23050
#
# Static dielectric constant tensor:
#      x y z
#    x 1.772910 0.000000 0.000000 
#    y 0.000000 1.721270 0.000000 
#    z 0.000000 0.000000 1.641310 
# 
# From -- ./inp_files/18153.got.cif
#   From: 2010.05.17/outbox.cif.g08.bks.cpg/sg59_10_cif.got.tgz:18153.got - 2010.06.03 14:40:33.
