data_PCOD9453120
_publ_section_title
;
Structure prediction by ZEFSAII (Michael W. Deem and Ramdas Pophale) SiO2 
 PCOD9453120
Probable space group: P M M N
;
_chemical_formula_sum "Si O2"
_cell_formula_units_Z 34
_cell_length_a 18.757431
_cell_length_b 7.681356
_cell_length_c 9.701593
_cell_angle_alpha 90.000000
_cell_angle_beta 90.000000
_cell_angle_gamma 90.000000
_cell_volume 1397.829823
_symmetry_space_group_name_H-M "P M M N"
_symmetry_group_IT_number 59
_space_group.IT_coordinate_system_code '2'
_symmetry_cell_setting 'orthorhombic'
loop_
_space_group_symop_operation_xyz
x,y,z
1/2-x,1/2-y,z
1/2+x,-y,-z
-x,1/2+y,-z
-x,-y,-z
1/2+x,1/2+y,-z
1/2-x,y,z
x,1/2-y,z
loop_
_atom_site_type_symbol
_atom_site_label
_atom_site_fract_x
_atom_site_fract_y
_atom_site_fract_z
Si Si1 0.962183 0.540217 0.744241
Si Si2 0.875988 0.547742 0.231641
Si Si3 0.671067 0.962940 0.932756
Si Si4 0.143362 0.941242 0.462487
Si Si5 0.250000 0.250000 0.392912
O O1 0.967050 0.750000 0.744034
O O2 0.898230 0.483317 0.846785
O O3 0.935688 0.471044 0.596970
O O4 0.038882 0.467970 0.785211
O O5 0.855966 0.750000 0.250133
O O6 0.854927 0.454919 0.372534
O O7 0.839830 0.484809 0.091518
O O8 0.750000 0.018407 0.885656
O O9 0.671552 0.750000 0.926942
O O10 0.167342 0.750000 0.420805
O O11 0.188782 0.097980 0.401502
#
# Coordination Sequence:
#
# PCOD9453120 Si02
#       5
#     8   8   8   8   2
#     4  11  22  41  68  99 137 182 233 287 342 407
#     4  11  22  41  68  99 137 182 233 287 342 407
#     4   9  21  38  65  95 134 183 231 285 351 407
#     4  12  26  44  72 105 137 180 230 278 338 411
#     4  12  26  48  68 104 148 176 216 282 356 394
#
# _framework density 24.323421
#
# number of rings (size 3 to 8) (size 9 to 14) (size 15 to 20)
#    0.000    1.176    2.353    3.176    3.294    0.000 
#    0.000    3.529    0.000    5.647    0.000    0.000 
#    0.000    0.000    0.000    0.000    0.000    0.000 
#
# Total GULP energy -189933.534974 kJ/mol
# GULP energy per Si atom -5586.280440 kJ/mol
# Density = 2.426806 g / cm^3
# Si number density = 24.323421 Si / 1000 Ang^3
#
#
#
# Elastic Constant Matrix: (Units=GPa)
#
#
# Indices 1 2 3 4 5 6 
#
# 1 105.6166 17.2241 5.8106 0.0000 0.0000 0.0000
# 2 17.2241 130.3339 19.2714 0.0000 0.0000 0.0000
# 3 5.8106 19.2714 93.4537 0.0000 0.0000 0.0000
# 4 0.0000 0.0000 0.0000 0.1136 0.0000 0.0000
# 5 0.0000 0.0000 0.0000 0.0000 14.8153 0.0000
# 6 0.0000 0.0000 0.0000 0.0000 0.0000 -306.0709
#
#
#
# Elastic Compliance Matrix: (Units=1/GPa)
#
#
# Indices 1 2 3 4 5 6 
#
# 1 0.009688 -0.001229 -0.000349 0.000000 0.000000 0.000000
# 2 -0.001229 0.008070 -0.001588 0.000000 0.000000 0.000000
# 3 -0.000349 -0.001588 0.011050 0.000000 0.000000 0.000000
# 4 0.000000 0.000000 0.000000 8.801674 0.000000 0.000000
# 5 0.000000 0.000000 0.000000 0.000000 0.067498 0.000000
# 6 0.000000 0.000000 0.000000 0.000000 0.000000 -0.003267
#
#
# Mechanical properties :
#
#
# Convention : Reuss Voigt Hill
#
# Bulk Modulus (GPa) = 44.49111 46.00183 45.24647
# Shear Modulus (GPa) = 0.56126 -39.08852 -19.26363
#
# Velocity S-wave (km/s) = 0.48088 -4.01313 -2.81726
# Velocity P-wave (km/s) = 4.31735 1.58745 2.83897
#
# Compressibility (1/GPa) = 0.02247640
#
# Stress axis : x y z
#
# Youngs Moduli (GPa) = 103.22279 123.91982 90.50110
#
# Poissons Ratio (x) = 0.15226 0.03158
# Poissons Ratio (y) = 0.12683 0.14369
# Poissons Ratio (z) = 0.03602 0.19675
#
# Static dielectric constant tensor:
#      x y z
#    x 1.944340 0.000000 0.000000 
#    y 0.000000 1.875580 0.000000 
#    z 0.000000 0.000000 1.979620 
# 
# From -- ./inp_files/10960.got.cif
#   From: 2010.05.17/outbox.cif.g08.bks.cpg/sg59_6_cif.got.tgz:10960.got - 2010.06.03 14:40:33.
