data_PCOD9453180
_publ_section_title
;
Structure prediction by ZEFSAII (Michael W. Deem and Ramdas Pophale) SiO2 
 PCOD9453180
Probable space group: P M M N
;
_chemical_formula_sum "Si O2"
_cell_formula_units_Z 32
_cell_length_a 14.034795
_cell_length_b 7.853955
_cell_length_c 14.335179
_cell_angle_alpha 90.000000
_cell_angle_beta 90.000000
_cell_angle_gamma 90.000000
_cell_volume 1580.147405
_symmetry_space_group_name_H-M "P M M N"
_symmetry_group_IT_number 59
_space_group.IT_coordinate_system_code '2'
_symmetry_cell_setting 'orthorhombic'
loop_
_space_group_symop_operation_xyz
x,y,z
1/2-x,1/2-y,z
1/2+x,-y,-z
-x,1/2+y,-z
-x,-y,-z
1/2+x,1/2+y,-z
1/2-x,y,z
x,1/2-y,z
loop_
_atom_site_type_symbol
_atom_site_label
_atom_site_fract_x
_atom_site_fract_y
_atom_site_fract_z
Si Si1 0.519555 0.452148 0.106862
Si Si2 0.366279 0.937848 0.462660
Si Si3 0.133373 0.250000 0.589371
Si Si4 0.858951 0.545972 0.742030
Si Si5 0.136740 0.250000 0.804096
O O1 0.541637 0.250000 0.114753
O O2 0.427015 0.488124 0.171100
O O3 0.598680 0.580399 0.145858
O O4 0.500000 0.500000 0.000000
O O5 0.250000 0.946564 0.461211
O O6 0.393430 0.750000 0.494422
O O7 0.398615 0.084184 0.532499
O O8 0.394141 0.968002 0.355348
O O9 0.250000 0.250000 0.588765
O O10 0.103762 0.250000 0.696468
O O11 0.750000 0.489420 0.759138
O O12 0.857114 0.750000 0.727766
O O13 0.250000 0.250000 0.805402
#
# Coordination Sequence:
#
# PCOD9453180 Si02
#       5
#     8   8   4   8   4
#     4  11  24  44  68  94 131 165 210 275 328 378
#     4   9  16  28  54  89 123 162 207 254 309 371
#     4   9  18  36  57  84 126 169 209 254 307 372
#     4   9  18  35  62  94 128 164 205 261 328 385
#     4  11  26  46  68  92 128 177 218 256 314 386
#
# _framework density 20.251273999999999
#
# number of rings (size 3 to 8) (size 9 to 14) (size 15 to 20)
#    0.000    2.250    2.500    0.000    1.750    2.500 
#    0.000    3.750    0.000    0.000    0.000    0.000 
#    0.000    0.000    0.000    0.000    0.000    0.000 
#
# Total GULP energy -178869.200156 kJ/mol
# GULP energy per Si atom -5589.662505 kJ/mol
# Density = 2.020518 g / cm^3
# Si number density = 20.251274 Si / 1000 Ang^3
#
#
#
# Elastic Constant Matrix: (Units=GPa)
#
#
# Indices 1 2 3 4 5 6 
#
# 1 84.0817 52.4696 51.6219 0.0000 0.0000 0.0000
# 2 52.4696 150.0423 102.6774 0.0000 0.0000 0.0000
# 3 51.6219 102.6774 181.9113 0.0000 0.0000 0.0000
# 4 0.0000 0.0000 0.0000 30.3064 0.0000 0.0000
# 5 0.0000 0.0000 0.0000 0.0000 32.4510 0.0000
# 6 0.0000 0.0000 0.0000 0.0000 0.0000 31.4542
#
#
#
# Elastic Compliance Matrix: (Units=1/GPa)
#
#
# Indices 1 2 3 4 5 6 
#
# 1 0.015743 -0.003989 -0.002216 0.000000 0.000000 0.000000
# 2 -0.003989 0.011870 -0.005568 0.000000 0.000000 0.000000
# 3 -0.002216 -0.005568 0.009269 0.000000 0.000000 0.000000
# 4 0.000000 0.000000 0.000000 0.032996 0.000000 0.000000
# 5 0.000000 0.000000 0.000000 0.000000 0.030816 0.000000
# 6 0.000000 0.000000 0.000000 0.000000 0.000000 0.031792
#
#
# Mechanical properties :
#
#
# Convention : Reuss Voigt Hill
#
# Bulk Modulus (GPa) = 74.98431 92.17479 83.57955
# Shear Modulus (GPa) = 31.15722 32.79342 31.97532
#
# Velocity S-wave (km/s) = 3.92667 4.02845 3.97788
# Velocity P-wave (km/s) = 7.59379 8.20075 7.90310
#
# Compressibility (1/GPa) = 0.01333612
#
# Stress axis : x y z
#
# Youngs Moduli (GPa) = 63.52095 84.24676 107.88945
#
# Poissons Ratio (x) = 0.33604 0.23908
# Poissons Ratio (y) = 0.25337 0.60072
# Poissons Ratio (z) = 0.14076 0.46908
#
# Static dielectric constant tensor:
#      x y z
#    x 1.758140 0.000000 0.000000 
#    y 0.000000 1.731310 0.000000 
#    z 0.000000 0.000000 1.663820 
# 
# From -- ./inp_files/16472.got.cif
#   From: 2010.05.17/outbox.cif.g08.bks.cpg/sg59_9_cif.got.tgz:16472.got - 2010.06.03 14:40:33.
