data_PCOD9453833
_publ_section_title
;
Structure prediction by ZEFSAII (Michael W. Deem and Ramdas Pophale) SiO2 
 PCOD9453833
Probable space group: P B C N
;
_chemical_formula_sum "Si O2"
_cell_formula_units_Z 48
_cell_length_a 20.212519
_cell_length_b 5.519126
_cell_length_c 18.361605
_cell_angle_alpha 90.000000
_cell_angle_beta 90.000000
_cell_angle_gamma 90.000000
_cell_volume 2048.336909
_symmetry_space_group_name_H-M "P B C N"
_symmetry_group_IT_number 60
_symmetry_cell_setting 'orthorhombic'
loop_
_space_group_symop_operation_xyz
x,y,z
1/2-x,1/2-y,1/2+z
1/2+x,1/2-y,-z
-x,y,1/2-z
-x,-y,-z
1/2+x,1/2+y,1/2-z
1/2-x,1/2+y,z
x,-y,1/2+z
loop_
_atom_site_type_symbol
_atom_site_label
_atom_site_fract_x
_atom_site_fract_y
_atom_site_fract_z
Si Si1 0.789314 0.730612 0.952905
Si Si2 0.901297 0.288949 0.333437
Si Si3 0.492059 0.031170 0.414133
Si Si4 0.236939 0.941770 0.282762
Si Si5 0.435163 0.716142 0.700687
Si Si6 0.841580 0.342070 0.615673
O O1 0.742634 0.495731 0.941513
O O2 0.850772 0.697618 0.899210
O O3 0.814979 0.716659 0.035735
O O4 0.975561 0.312288 0.367673
O O5 0.896156 0.532782 0.285191
O O6 0.896238 0.031693 0.295697
O O7 0.538890 0.245094 0.382458
O O8 0.416969 0.079318 0.392316
O O9 0.500000 0.000000 0.500000
O O10 0.171746 0.883992 0.330207
O O11 0.293478 0.962229 0.346109
O O12 0.256030 0.694942 0.241206
O O13 0.500000 0.710040 0.750000
#
# Coordination Sequence:
#
# PCOD9453833 Si02
#       6
#     8   8   8   8   8   8
#     4  12  21  35  57  88 125 172 203 254 318 386
#     4  10  23  40  61  96 124 163 217 268 314 384
#     4  10  22  37  60  97 132 156 197 281 327 378
#     4   8  16  28  44  68 100 155 196 220 267 378
#     4  10  22  44  65  90 122 172 213 261 327 395
#     4  10  17  33  49  81 122 162 194 241 313 377
#
# _framework density 23.433644000000001
#
# number of rings (size 3 to 8) (size 9 to 14) (size 15 to 20)
#    2.000    0.000    3.333    1.500    0.000    2.000 
#    0.000    0.000    0.000    0.000   13.000    0.000 
#    0.000    0.000    0.000    0.000    0.000    0.000 
#
# Total GULP energy -267912.582059 kJ/mol
# GULP energy per Si atom -5581.512126 kJ/mol
# Density = 2.338031 g / cm^3
# Si number density = 23.433644 Si / 1000 Ang^3
#
#
#
# Elastic Constant Matrix: (Units=GPa)
#
#
# Indices 1 2 3 4 5 6 
#
# 1 88.5893 9.6191 31.5967 0.0000 0.0000 0.0000
# 2 9.6191 162.4941 32.6716 0.0000 0.0000 0.0000
# 3 31.5967 32.6716 79.4376 0.0000 0.0000 0.0000
# 4 0.0000 0.0000 0.0000 10.2619 0.0000 0.0000
# 5 0.0000 0.0000 0.0000 0.0000 46.4880 0.0000
# 6 0.0000 0.0000 0.0000 0.0000 0.0000 14.1572
#
#
#
# Elastic Compliance Matrix: (Units=1/GPa)
#
#
# Indices 1 2 3 4 5 6 
#
# 1 0.013167 0.000298 -0.005360 0.000000 0.000000 0.000000
# 2 0.000298 0.006716 -0.002881 0.000000 0.000000 0.000000
# 3 -0.005360 -0.002881 0.015905 0.000000 0.000000 0.000000
# 4 0.000000 0.000000 0.000000 0.097448 0.000000 0.000000
# 5 0.000000 0.000000 0.000000 0.000000 0.021511 0.000000
# 6 0.000000 0.000000 0.000000 0.000000 0.000000 0.070635
#
#
# Mechanical properties :
#
#
# Convention : Reuss Voigt Hill
#
# Bulk Modulus (GPa) = 50.24287 53.14395 51.69341
# Shear Modulus (GPa) = 20.16924 31.29032 25.72978
#
# Velocity S-wave (km/s) = 2.93694 3.65810 3.31718
# Velocity P-wave (km/s) = 5.74351 6.36946 6.06457
#
# Compressibility (1/GPa) = 0.01990332
#
# Stress axis : x y z
#
# Youngs Moduli (GPa) = 75.94513 148.90677 62.87229
#
# Poissons Ratio (x) = -0.04441 0.33700
# Poissons Ratio (y) = -0.02265 0.18111
# Poissons Ratio (z) = 0.40707 0.42895
#
# Static dielectric constant tensor:
#      x y z
#    x 1.886030 0.000000 0.000000 
#    y 0.000000 1.979010 0.000000 
#    z 0.000000 0.000000 1.821730 
# 
# From -- ./inp_files/23157.got.cif
#   From: 2010.05.17/outbox.cif.g08.bks.cpg/sg60_12_cif.got.tgz:23157.got - 2010.06.03 14:59:27.
