data_PCOD9453190
_publ_section_title
;
Structure prediction by ZEFSAII (Michael W. Deem and Ramdas Pophale) SiO2 
 PCOD9453190
Probable space group: P M M N
;
_chemical_formula_sum "Si O2"
_cell_formula_units_Z 32
_cell_length_a 13.882116
_cell_length_b 7.779254
_cell_length_c 14.446327
_cell_angle_alpha 90.000000
_cell_angle_beta 90.000000
_cell_angle_gamma 90.000000
_cell_volume 1560.095061
_symmetry_space_group_name_H-M "P M M N"
_symmetry_group_IT_number 59
_space_group.IT_coordinate_system_code '2'
_symmetry_cell_setting 'orthorhombic'
loop_
_space_group_symop_operation_xyz
x,y,z
1/2-x,1/2-y,z
1/2+x,-y,-z
-x,1/2+y,-z
-x,-y,-z
1/2+x,1/2+y,-z
1/2-x,y,z
x,1/2-y,z
loop_
_atom_site_type_symbol
_atom_site_label
_atom_site_fract_x
_atom_site_fract_y
_atom_site_fract_z
Si Si1 0.861827 0.541695 0.245146
Si Si2 0.367786 0.750000 0.411754
Si Si3 0.864418 0.250000 0.800272
Si Si4 0.975965 0.945399 0.895600
Si Si5 0.632393 0.552896 0.454023
O O1 0.750000 0.492145 0.234360
O O2 0.866682 0.750000 0.237667
O O3 0.894074 0.497804 0.349735
O O4 0.928898 0.461010 0.167765
O O5 0.250000 0.750000 0.410838
O O6 0.400642 0.750000 0.305947
O O7 0.398495 0.580948 0.468072
O O8 0.750000 0.250000 0.798923
O O9 0.903016 0.417987 0.851906
O O10 0.940170 0.750000 0.894057
O O11 0.000000 0.000000 0.000000
O O12 0.750000 0.553337 0.453851
O O13 0.602889 0.750000 0.470261
#
# Coordination Sequence:
#
# PCOD9453190 Si02
#       5
#     8   4   4   8   8
#     4   9  18  36  65  99 134 169 210 267 332 388
#     4   9  18  34  59  88 126 171 213 256 309 376
#     4  11  26  48  68  94 132 175 220 264 318 388
#     4  12  25  45  70  94 131 169 213 276 333 383
#     4   8  15  29  54  89 127 166 209 257 310 370
#
# _framework density 20.511571
#
# number of rings (size 3 to 8) (size 9 to 14) (size 15 to 20)
#    0.000    2.250    2.500    1.500    1.750    3.000 
#    0.000    3.750    0.000    0.000    0.000    0.000 
#    0.000    0.000    0.000    0.000    0.000    0.000 
#
# Total GULP energy -178976.525400 kJ/mol
# GULP energy per Si atom -5593.016419 kJ/mol
# Density = 2.046489 g / cm^3
# Si number density = 20.511571 Si / 1000 Ang^3
#
#
#
# Elastic Constant Matrix: (Units=GPa)
#
#
# Indices 1 2 3 4 5 6 
#
# 1 81.3214 38.1876 49.0106 0.0000 0.0000 0.0000
# 2 38.1876 149.4853 99.7709 0.0000 0.0000 0.0000
# 3 49.0106 99.7709 195.7419 0.0000 0.0000 0.0000
# 4 0.0000 0.0000 0.0000 33.8425 0.0000 0.0000
# 5 0.0000 0.0000 0.0000 0.0000 33.9928 0.0000
# 6 0.0000 0.0000 0.0000 0.0000 0.0000 29.6420
#
#
#
# Elastic Compliance Matrix: (Units=1/GPa)
#
#
# Indices 1 2 3 4 5 6 
#
# 1 0.014863 -0.001990 -0.002707 0.000000 0.000000 0.000000
# 2 -0.001990 0.010405 -0.004805 0.000000 0.000000 0.000000
# 3 -0.002707 -0.004805 0.008236 0.000000 0.000000 0.000000
# 4 0.000000 0.000000 0.000000 0.029549 0.000000 0.000000
# 5 0.000000 0.000000 0.000000 0.000000 0.029418 0.000000
# 6 0.000000 0.000000 0.000000 0.000000 0.000000 0.033736
#
#
# Mechanical properties :
#
#
# Convention : Reuss Voigt Hill
#
# Bulk Modulus (GPa) = 68.97020 88.94300 78.95660
# Shear Modulus (GPa) = 33.32345 35.46744 34.39544
#
# Velocity S-wave (km/s) = 4.03503 4.16281 4.09941
# Velocity P-wave (km/s) = 7.44356 8.15854 7.80924
#
# Compressibility (1/GPa) = 0.01449902
#
# Stress axis : x y z
#
# Youngs Moduli (GPa) = 67.28163 96.10554 121.42009
#
# Poissons Ratio (x) = 0.19126 0.32869
# Poissons Ratio (y) = 0.13390 0.58346
# Poissons Ratio (z) = 0.18213 0.46182
#
# Static dielectric constant tensor:
#      x y z
#    x 1.778390 0.000000 0.000000 
#    y 0.000000 1.715760 0.000000 
#    z 0.000000 0.000000 1.685690 
# 
# From -- ./inp_files/13685.got.cif
#   From: 2010.05.17/outbox.cif.g08.bks.cpg/sg59_7_cif.got.tgz:13685.got - 2010.06.03 14:40:33.
