data_PCOD9453395
_publ_section_title
;
Structure prediction by ZEFSAII (Michael W. Deem and Ramdas Pophale) SiO2 
 PCOD9453395
Probable space group: P M M N
;
_chemical_formula_sum "Si O2"
_cell_formula_units_Z 64
_cell_length_a 18.000000
_cell_length_b 9.000000
_cell_length_c 21.000000
_cell_angle_alpha 90.000000
_cell_angle_beta 90.000000
_cell_angle_gamma 90.000000
_cell_volume 3402.000000
_symmetry_space_group_name_H-M "P M M N"
_symmetry_group_IT_number 59
_space_group.IT_coordinate_system_code '2'
_symmetry_cell_setting 'orthorhombic'
loop_
_space_group_symop_operation_xyz
x,y,z
1/2-x,1/2-y,z
1/2+x,-y,-z
-x,1/2+y,-z
-x,-y,-z
1/2+x,1/2+y,-z
1/2-x,y,z
x,1/2-y,z
loop_
_atom_site_type_symbol
_atom_site_label
_atom_site_fract_x
_atom_site_fract_y
_atom_site_fract_z
Si Si1 0.338628 0.581288 0.568874
Si Si2 0.403509 0.571575 0.699197
Si Si3 0.662540 0.915082 0.913966
Si Si4 0.336585 0.428492 0.441761
Si Si5 0.408340 0.584627 0.197440
Si Si6 0.570146 0.574384 0.034377
Si Si7 0.425228 0.072855 0.320634
Si Si8 0.414526 0.419899 0.825936
O O1 0.250000 0.587028 0.564327
O O2 0.368144 0.750000 0.565055
O O3 0.358082 0.520249 0.638056
O O4 0.365553 0.489152 0.508741
O O5 0.399242 0.750000 0.703847
O O6 0.488693 0.528790 0.683860
O O7 0.380097 0.505166 0.766602
O O8 0.750000 0.916399 0.907781
O O9 0.633875 0.750000 0.895765
O O10 0.627347 0.033819 0.867788
O O11 0.637814 0.939791 0.985948
O O12 0.250000 0.470638 0.433510
O O13 0.339410 0.250000 0.442929
O O14 0.384398 0.485975 0.382815
O O15 0.386050 0.750000 0.214612
O O16 0.387808 0.478637 0.255439
O O17 0.496845 0.580743 0.186889
O O18 0.552887 0.750000 0.043173
O O19 0.591256 0.513329 0.103569
O O20 0.500000 0.500000 0.000000
O O21 0.423291 0.250000 0.323443
O O22 0.387616 0.250000 0.826523
#
# Coordination Sequence:
#
# PCOD9453395 Si02
#       8
#     8   8   8   8   8   8   8   8
#     4   9  18  33  51  70  95 127 163 204 248 295
#     4   9  18  32  50  72  97 128 164 200 242 295
#     4  10  21  35  51  73 102 136 171 206 248 300
#     4   9  18  32  49  69  94 126 163 201 242 293
#     4  10  19  32  50  73 101 131 164 204 249 295
#     4  10  19  33  54  76  99 130 169 209 250 298
#     4   9  18  32  49  71 100 131 164 201 242 293
#     4   9  18  32  50  75 102 125 159 206 250 291
#
# _framework density 18.812463000000001
#
# number of rings (size 3 to 8) (size 9 to 14) (size 15 to 20)
#    0.000    2.625    1.250    0.375    0.000    3.250 
#    0.000    1.875    0.000    0.750    0.000    0.000 
#    0.000    0.000    0.000    0.000    0.000    0.000 
#
# Total GULP energy -356355.717978 kJ/mol
# GULP energy per Si atom -5568.058093 kJ/mol
# Density = 1.876965 g / cm^3
# Si number density = 18.812463 Si / 1000 Ang^3
#
#
#
# Elastic Constant Matrix: (Units=GPa)
#
#
# Indices 1 2 3 4 5 6 
#
# 1 -10.1688 15.9708 3.5330 0.0000 0.0000 0.0000
# 2 15.9708 -22.3352 6.2818 0.0000 0.0000 0.0000
# 3 3.5330 6.2818 112.8872 0.0000 0.0000 0.0000
# 4 0.0000 0.0000 0.0000 25.7361 0.0000 0.0000
# 5 0.0000 0.0000 0.0000 0.0000 44.5378 0.0000
# 6 0.0000 0.0000 0.0000 0.0000 0.0000 -1.9430
#
#
#
# Elastic Compliance Matrix: (Units=1/GPa)
#
#
# Indices 1 2 3 4 5 6 
#
# 1 1.450595 1.008689 -0.101529 0.000000 0.000000 0.000000
# 2 1.008689 0.657322 -0.068147 0.000000 0.000000 0.000000
# 3 -0.101529 -0.068147 0.015828 0.000000 0.000000 0.000000
# 4 0.000000 0.000000 0.000000 0.038856 0.000000 0.000000
# 5 0.000000 0.000000 0.000000 0.000000 0.022453 0.000000
# 6 0.000000 0.000000 0.000000 0.000000 0.000000 -0.514660
#
#
# Mechanical properties :
#
#
# Convention : Reuss Voigt Hill
#
# Bulk Modulus (GPa) = 0.26304 14.66159 7.46231
# Shear Modulus (GPa) = 3.96944 17.30601 10.63772
#
# Velocity S-wave (km/s) = 1.45416 3.03631 2.38052
# Velocity P-wave (km/s) = 1.72034 4.48361 3.39575
#
# Compressibility (1/GPa) = 3.80177121
#
# Stress axis : x y z
#
# Youngs Moduli (GPa) = 0.68937 1.52132 63.17879
#
# Poissons Ratio (x) = -1.53454 6.41450
# Poissons Ratio (y) = -0.69536 4.30542
# Poissons Ratio (z) = 0.06999 0.10367
#
# Static dielectric constant tensor:
#      x y z
#    x 1.640400 0.000000 0.000000 
#    y 0.000000 1.665800 0.000000 
#    z 0.000000 0.000000 1.655660 
# 
# From -- ./inp_files/28294.got.cif
#   From: 2010.05.17/outbox.ucp.g08.bks.cvg/sg59_15_cif.got.tgz:28294.got - 2010.06.11 16:43:56.
