data_PCOD9453904
_publ_section_title
;
Structure prediction by ZEFSAII (Michael W. Deem and Ramdas Pophale) SiO2 
 PCOD9453904
Probable space group: P B C N
;
_chemical_formula_sum "Si O2"
_cell_formula_units_Z 48
_cell_length_a 22.574883
_cell_length_b 21.543370
_cell_length_c 5.126425
_cell_angle_alpha 90.000000
_cell_angle_beta 90.000000
_cell_angle_gamma 90.000000
_cell_volume 2493.180701
_symmetry_space_group_name_H-M "P B C N"
_symmetry_group_IT_number 60
_symmetry_cell_setting 'orthorhombic'
loop_
_space_group_symop_operation_xyz
x,y,z
1/2-x,1/2-y,1/2+z
1/2+x,1/2-y,-z
-x,y,1/2-z
-x,-y,-z
1/2+x,1/2+y,1/2-z
1/2-x,1/2+y,z
x,-y,1/2+z
loop_
_atom_site_type_symbol
_atom_site_label
_atom_site_fract_x
_atom_site_fract_y
_atom_site_fract_z
Si Si1 0.432946 0.973670 0.947887
Si Si2 0.000000 0.361401 0.750000
Si Si3 0.732942 0.788431 0.269685
Si Si4 0.122610 0.225889 0.111765
Si Si5 0.500000 0.219612 0.750000
Si Si6 0.567802 0.458530 0.228417
Si Si7 0.344929 0.651117 0.614431
O O1 0.445673 0.905219 0.843719
O O2 0.404062 0.016364 0.727179
O O3 0.500000 0.000000 0.000000
O O4 0.017224 0.321949 0.498767
O O5 0.756266 0.736077 0.476822
O O6 0.663238 0.786133 0.327011
O O7 0.774079 0.847456 0.331420
O O8 0.054986 0.239660 0.162929
O O9 0.143280 0.173411 0.319399
O O10 0.132548 0.203741 0.817398
O O11 0.500000 0.433434 0.250000
O O12 0.573317 0.514554 0.437193
O O13 0.617404 0.408810 0.307058
#
# Coordination Sequence:
#
# PCOD9453904 Si02
#       7
#     8   4   8   8   4   8   8
#     4   8  13  24  42  60  74 104 155 196 223 272
#     4  10  18  29  40  62  96 125 154 186 250 292
#     4   8  16  32  51  72  92 121 169 216 234 289
#     4  10  21  32  48  75 103 134 178 201 248 308
#     4  12  22  29  42  70 108 137 154 204 252 308
#     4  10  21  34  50  78 107 131 168 214 258 314
#     4  10  19  35  56  70  97 137 171 209 254 294
#
# _framework density 19.252514999999999
#
# number of rings (size 3 to 8) (size 9 to 14) (size 15 to 20)
#    0.000    2.667    0.000    4.000    2.333    0.000 
#    0.000    0.000    0.000    0.000    0.000   21.000 
#    0.000    0.000    0.000    0.000    0.000    0.000 
#
# Total GULP energy -267235.964783 kJ/mol
# GULP energy per Si atom -5567.415933 kJ/mol
# Density = 1.920870 g / cm^3
# Si number density = 19.252515 Si / 1000 Ang^3
#
#
#
# Elastic Constant Matrix: (Units=GPa)
#
#
# Indices 1 2 3 4 5 6 
#
# 1 79.4864 13.7403 -22.8619 0.0000 0.0000 0.0000
# 2 13.7403 23.3355 -5.2098 0.0000 0.0000 0.0000
# 3 -22.8619 -5.2098 104.0585 0.0000 0.0000 0.0000
# 4 0.0000 0.0000 0.0000 25.4466 0.0000 0.0000
# 5 0.0000 0.0000 0.0000 0.0000 15.4076 0.0000
# 6 0.0000 0.0000 0.0000 0.0000 0.0000 27.8246
#
#
#
# Elastic Compliance Matrix: (Units=1/GPa)
#
#
# Indices 1 2 3 4 5 6 
#
# 1 0.014796 -0.008076 0.002846 0.000000 0.000000 0.000000
# 2 -0.008076 0.047746 0.000616 0.000000 0.000000 0.000000
# 3 0.002846 0.000616 0.010266 0.000000 0.000000 0.000000
# 4 0.000000 0.000000 0.000000 0.039298 0.000000 0.000000
# 5 0.000000 0.000000 0.000000 0.000000 0.064903 0.000000
# 6 0.000000 0.000000 0.000000 0.000000 0.000000 0.035939
#
#
# Mechanical properties :
#
#
# Convention : Reuss Voigt Hill
#
# Bulk Modulus (GPa) = 15.72828 19.80196 17.76512
# Shear Modulus (GPa) = 20.54488 28.48322 24.51405
#
# Velocity S-wave (km/s) = 3.27023 3.85054 3.57219
# Velocity P-wave (km/s) = 4.73777 5.48421 5.12460
#
# Compressibility (1/GPa) = 0.06357976
#
# Stress axis : x y z
#
# Youngs Moduli (GPa) = 67.58803 20.94406 97.40750
#
# Poissons Ratio (x) = 0.16915 -0.27725
# Poissons Ratio (y) = 0.54587 -0.06001
# Poissons Ratio (z) = -0.19237 -0.01290
#
# Static dielectric constant tensor:
#      x y z
#    x 1.794130 0.000000 0.000000 
#    y 0.000000 1.697900 0.000000 
#    z 0.000000 0.000000 1.793320 
# 
# From -- ./inp_files/2354.got.cif
#   From: 2010.05.17/outbox.cif.g08.bks.cpg/sg60_2_cif.got.tgz:2354.got - 2010.06.03 14:59:27.
