data_PCOD9453046
_publ_section_title
;
Structure prediction by ZEFSAII (Michael W. Deem and Ramdas Pophale) SiO2 
 PCOD9453046
Probable space group: P M M N
;
_chemical_formula_sum "Si O2"
_cell_formula_units_Z 48
_cell_length_a 8.602599
_cell_length_b 14.823227
_cell_length_c 20.891526
_cell_angle_alpha 90.000000
_cell_angle_beta 90.000000
_cell_angle_gamma 90.000000
_cell_volume 2664.051415
_symmetry_space_group_name_H-M "P M M N"
_symmetry_group_IT_number 59
_space_group.IT_coordinate_system_code '2'
_symmetry_cell_setting 'orthorhombic'
loop_
_space_group_symop_operation_xyz
x,y,z
1/2-x,1/2-y,z
1/2+x,-y,-z
-x,1/2+y,-z
-x,-y,-z
1/2+x,1/2+y,-z
1/2-x,y,z
x,1/2-y,z
loop_
_atom_site_type_symbol
_atom_site_label
_atom_site_fract_x
_atom_site_fract_y
_atom_site_fract_z
Si Si1 0.063776 0.062783 0.820266
Si Si2 0.938961 0.250000 0.480320
Si Si3 0.936856 0.056429 0.681542
Si Si4 0.436655 0.940599 0.941183
Si Si5 0.064358 0.750000 0.126059
Si Si6 0.562731 0.053424 0.438198
Si Si7 0.064443 0.250000 0.018853
Si Si8 0.939069 0.250000 0.628286
O O1 0.250000 0.070108 0.819263
O O2 0.002320 0.034001 0.751119
O O3 0.994094 0.159989 0.838857
O O4 0.020643 0.991798 0.875749
O O5 0.750000 0.250000 0.482004
O O6 0.986386 0.342361 0.446355
O O7 0.991262 0.250000 0.554388
O O8 0.750000 0.054521 0.682531
O O9 0.987844 0.158429 0.663086
O O10 0.997596 0.991551 0.625784
O O11 0.250000 0.936474 0.945528
O O12 0.504619 0.840580 0.947302
O O13 0.500000 0.000000 0.000000
O O14 0.250000 0.750000 0.124430
O O15 0.999596 0.750000 0.053787
O O16 0.750000 0.049032 0.438195
O O17 0.500000 0.000000 0.500000
O O18 0.250000 0.250000 0.016275
O O19 0.750000 0.250000 0.627591
#
# Coordination Sequence:
#
# PCOD9453046 Si02
#       8
#     8   4   8   8   4   8   4   4
#     4  11  24  41  61  89 125 161 203 251 302 364
#     4   9  18  35  58  83 115 152 192 235 290 353
#     4  11  22  38  60  87 121 158 197 243 301 364
#     4  11  23  40  64  90 122 161 205 254 306 363
#     4  12  23  37  62  92 126 163 200 247 308 366
#     4  11  21  37  60  85 115 155 200 247 296 354
#     4  12  24  39  62  93 126 158 204 258 304 361
#     4   9  17  33  56  84 117 153 190 232 288 354
#
# _framework density 18.017669999999999
#
# number of rings (size 3 to 8) (size 9 to 14) (size 15 to 20)
#    0.000    1.167    3.333    4.000    0.000    2.667 
#    0.000    4.583    0.000    2.000    0.000    0.000 
#    0.000    0.000    0.000    0.000    0.000    0.000 
#
# Total GULP energy -268353.544590 kJ/mol
# GULP energy per Si atom -5590.698846 kJ/mol
# Density = 1.797666 g / cm^3
# Si number density = 18.017670 Si / 1000 Ang^3
#
#
#
# Elastic Constant Matrix: (Units=GPa)
#
#
# Indices 1 2 3 4 5 6 
#
# 1 74.5795 48.9563 57.2638 0.0000 0.0000 0.0000
# 2 48.9563 161.0582 93.9981 0.0000 0.0000 0.0000
# 3 57.2638 93.9981 183.8315 0.0000 0.0000 0.0000
# 4 0.0000 0.0000 0.0000 18.2615 0.0000 0.0000
# 5 0.0000 0.0000 0.0000 0.0000 33.1549 0.0000
# 6 0.0000 0.0000 0.0000 0.0000 0.0000 30.2924
#
#
#
# Elastic Compliance Matrix: (Units=1/GPa)
#
#
# Indices 1 2 3 4 5 6 
#
# 1 0.018756 -0.003266 -0.004173 0.000000 0.000000 0.000000
# 2 -0.003266 0.009419 -0.003799 0.000000 0.000000 0.000000
# 3 -0.004173 -0.003799 0.008682 0.000000 0.000000 0.000000
# 4 0.000000 0.000000 0.000000 0.054760 0.000000 0.000000
# 5 0.000000 0.000000 0.000000 0.000000 0.030161 0.000000
# 6 0.000000 0.000000 0.000000 0.000000 0.000000 0.033012
#
#
# Mechanical properties :
#
#
# Convention : Reuss Voigt Hill
#
# Bulk Modulus (GPa) = 69.53005 91.10064 80.31535
# Shear Modulus (GPa) = 27.46367 30.95848 29.21107
#
# Velocity S-wave (km/s) = 3.90842 4.14965 4.03084
# Velocity P-wave (km/s) = 7.68384 8.58085 8.14470
#
# Compressibility (1/GPa) = 0.01438227
#
# Stress axis : x y z
#
# Youngs Moduli (GPa) = 53.31552 106.17155 115.18210
#
# Poissons Ratio (x) = 0.34676 0.48061
# Poissons Ratio (y) = 0.17413 0.43754
# Poissons Ratio (z) = 0.22246 0.40331
#
# Static dielectric constant tensor:
#      x y z
#    x 1.608300 0.000000 0.000000 
#    y 0.000000 1.592900 0.000000 
#    z 0.000000 0.000000 1.590640 
# 
# From -- ./inp_files/25704.got.cif
#   From: 2010.05.17/outbox.cif.g08.bks.cpg/sg59_13_cif.got.tgz:25704.got - 2010.06.03 14:40:33.
