data_PCOD9453720
_publ_section_title
;
Structure prediction by ZEFSAII (Michael W. Deem and Ramdas Pophale) SiO2 
 PCOD9453720
Probable space group: P B C N
;
_chemical_formula_sum "Si O2"
_cell_formula_units_Z 48
_cell_length_a 27.758139
_cell_length_b 5.379629
_cell_length_c 17.701868
_cell_angle_alpha 90.000000
_cell_angle_beta 90.000000
_cell_angle_gamma 90.000000
_cell_volume 2643.393211
_symmetry_space_group_name_H-M "P B C N"
_symmetry_group_IT_number 60
_symmetry_cell_setting 'orthorhombic'
loop_
_space_group_symop_operation_xyz
x,y,z
1/2-x,1/2-y,1/2+z
1/2+x,1/2-y,-z
-x,y,1/2-z
-x,-y,-z
1/2+x,1/2+y,1/2-z
1/2-x,1/2+y,z
x,-y,1/2+z
loop_
_atom_site_type_symbol
_atom_site_label
_atom_site_fract_x
_atom_site_fract_y
_atom_site_fract_z
Si Si1 0.621884 0.499998 0.994937
Si Si2 0.883822 0.499999 0.094353
Si Si3 0.725550 0.000014 0.123070
Si Si4 0.233682 0.999992 0.048815
Si Si5 0.024496 0.999987 0.082777
Si Si6 0.986864 0.500013 0.662679
O O1 0.677103 0.499999 0.967960
O O2 0.581857 0.500003 0.929960
O O3 0.614068 0.250022 0.043867
O O4 0.614069 0.749974 0.043868
O O5 0.831485 0.500004 0.132881
O O6 0.929515 0.499995 0.148854
O O7 0.750001 0.750017 0.152679
O O8 0.737139 0.000015 0.031949
O O9 0.250002 0.249989 0.089000
O O10 0.007830 0.250558 0.124337
O O11 0.007833 0.749399 0.124330
O O12 0.000000 0.000000 0.000000
O O13 0.000000 0.500000 0.750000
#
# Coordination Sequence:
#
# PCOD9453720 Si02
#       6
#     8   8   8   8   8   8
#     4  12  20  30  55  86 115 144 183 245 302 331
#     4  12  19  32  55  82 115 150 189 236 294 345
#     4  10  16  27  45  77 116 137 176 234 298 330
#     4  10  16  27  44  76 121 137 170 229 305 338
#     4  12  23  40  62  88 117 150 203 250 290 346
#     4  12  26  43  59  84 122 166 201 244 299 358
#
# _framework density 18.158477999999999
#
# number of rings (size 3 to 8) (size 9 to 14) (size 15 to 20)
#    0.000    0.667   10.000    2.000    0.000    0.000 
#    0.000    0.000    0.000    0.000    0.000    7.000 
#    0.000    0.000    0.000    0.000    0.000    0.000 
#
# Total GULP energy -267979.446733 kJ/mol
# GULP energy per Si atom -5582.905140 kJ/mol
# Density = 1.811715 g / cm^3
# Si number density = 18.158478 Si / 1000 Ang^3
#
#
#
# Elastic Constant Matrix: (Units=GPa)
#
#
# Indices 1 2 3 4 5 6 
#
# 1 202.0804 66.9611 48.8960 0.0000 0.0000 0.0000
# 2 66.9611 215.6485 57.4085 0.0000 0.0000 0.0000
# 3 48.8960 57.4085 73.1048 0.0000 0.0000 0.0000
# 4 0.0000 0.0000 0.0000 4.3667 0.0000 0.0000
# 5 0.0000 0.0000 0.0000 0.0000 4.7262 0.0000
# 6 0.0000 0.0000 0.0000 0.0000 0.0000 27.5179
#
#
#
# Elastic Compliance Matrix: (Units=1/GPa)
#
#
# Indices 1 2 3 4 5 6 
#
# 1 0.006076 -0.001017 -0.003265 0.000000 0.000000 0.000000
# 2 -0.001017 0.006033 -0.004057 0.000000 0.000000 0.000000
# 3 -0.003265 -0.004057 0.019049 0.000000 0.000000 0.000000
# 4 0.000000 0.000000 0.000000 0.229005 0.000000 0.000000
# 5 0.000000 0.000000 0.000000 0.000000 0.211584 0.000000
# 6 0.000000 0.000000 0.000000 0.000000 0.000000 0.036340
#
#
# Mechanical properties :
#
#
# Convention : Reuss Voigt Hill
#
# Bulk Modulus (GPa) = 69.06694 93.04054 81.05374
# Shear Modulus (GPa) = 9.44124 28.49339 18.96731
#
# Velocity S-wave (km/s) = 2.28268 3.96555 3.23545
# Velocity P-wave (km/s) = 6.71310 8.50392 7.66102
#
# Compressibility (1/GPa) = 0.01447871
#
# Stress axis : x y z
#
# Youngs Moduli (GPa) = 164.59308 165.74927 52.49695
#
# Poissons Ratio (x) = 0.16864 0.17138
# Poissons Ratio (y) = 0.16746 0.21300
# Poissons Ratio (z) = 0.53734 0.67250
#
# Static dielectric constant tensor:
#      x y z
#    x 1.630740 0.000000 0.000000 
#    y 0.000000 1.709290 0.000000 
#    z 0.000000 0.000000 1.578690 
# 
# From -- ./inp_files/18045.got.cif
#   From: 2010.05.17/outbox.cif.g08.bks.cpg/sg60_10_cif.got.tgz:18045.got - 2010.06.03 14:59:27.
