data_PCOD9453973
_publ_section_title
;
Structure prediction by ZEFSAII (Michael W. Deem and Ramdas Pophale) SiO2 
 PCOD9453973
Probable space group: P B C N
;
_chemical_formula_sum "Si O2"
_cell_formula_units_Z 40
_cell_length_a 19.618665
_cell_length_b 5.414065
_cell_length_c 17.741049
_cell_angle_alpha 90.000000
_cell_angle_beta 90.000000
_cell_angle_gamma 90.000000
_cell_volume 1884.396168
_symmetry_space_group_name_H-M "P B C N"
_symmetry_group_IT_number 60
_symmetry_cell_setting 'orthorhombic'
loop_
_space_group_symop_operation_xyz
x,y,z
1/2-x,1/2-y,1/2+z
1/2+x,1/2-y,-z
-x,y,1/2-z
-x,-y,-z
1/2+x,1/2+y,1/2-z
1/2-x,1/2+y,z
x,-y,1/2+z
loop_
_atom_site_type_symbol
_atom_site_label
_atom_site_fract_x
_atom_site_fract_y
_atom_site_fract_z
Si Si1 0.233147 0.362533 0.184861
Si Si2 0.924932 0.908813 0.026349
Si Si3 0.583355 0.117880 0.884183
Si Si4 0.712507 0.352405 0.483401
Si Si5 0.993465 0.878571 0.338467
O O1 0.251960 0.610733 0.227291
O O2 0.156380 0.370529 0.155368
O O3 0.280032 0.355854 0.108422
O O4 0.936058 0.866822 0.114636
O O5 0.864573 0.097793 0.007951
O O6 0.909514 0.673782 0.973370
O O7 0.000000 0.000000 0.000000
O O8 0.540651 0.353157 0.853224
O O9 0.549636 0.854569 0.868995
O O10 0.755763 0.592947 0.508468
O O11 0.000000 0.846004 0.250000
#
# Coordination Sequence:
#
# PCOD9453973 Si02
#       5
#     8   8   8   8   8
#     4  10  18  31  57  88 120 146 194 255 315 348
#     4  10  22  37  64  97 119 158 213 265 300 372
#     4  11  21  38  64  90 117 160 216 256 305 369
#     4  10  20  33  56  89 126 150 190 255 325 352
#     4  11  25  41  59  87 131 168 204 256 321 370
#
# _framework density 21.226960999999999
#
# number of rings (size 3 to 8) (size 9 to 14) (size 15 to 20)
#    0.000    1.600    4.000    2.400    8.400    3.200 
#    0.000    0.000    0.000    7.200    0.000    0.000 
#    0.000    0.000    0.000    0.000    0.000    0.000 
#
# Total GULP energy -223344.139819 kJ/mol
# GULP energy per Si atom -5583.603495 kJ/mol
# Density = 2.117865 g / cm^3
# Si number density = 21.226961 Si / 1000 Ang^3
#
#
#
# Elastic Constant Matrix: (Units=GPa)
#
#
# Indices 1 2 3 4 5 6 
#
# 1 86.0439 45.4240 0.3938 0.0000 0.0000 0.0000
# 2 45.4240 173.0284 19.9978 0.0000 0.0000 0.0000
# 3 0.3938 19.9978 69.8196 0.0000 0.0000 0.0000
# 4 0.0000 0.0000 0.0000 12.2779 0.0000 0.0000
# 5 0.0000 0.0000 0.0000 0.0000 3.4786 0.0000
# 6 0.0000 0.0000 0.0000 0.0000 0.0000 17.9037
#
#
#
# Elastic Compliance Matrix: (Units=1/GPa)
#
#
# Indices 1 2 3 4 5 6 
#
# 1 0.013556 -0.003671 0.000975 0.000000 0.000000 0.000000
# 2 -0.003671 0.006972 -0.001976 0.000000 0.000000 0.000000
# 3 0.000975 -0.001976 0.014883 0.000000 0.000000 0.000000
# 4 0.000000 0.000000 0.000000 0.081447 0.000000 0.000000
# 5 0.000000 0.000000 0.000000 0.000000 0.287474 0.000000
# 6 0.000000 0.000000 0.000000 0.000000 0.000000 0.055855
#
#
# Mechanical properties :
#
#
# Convention : Reuss Voigt Hill
#
# Bulk Modulus (GPa) = 38.36469 51.16926 44.76697
# Shear Modulus (GPa) = 10.45544 24.27044 17.36294
#
# Velocity S-wave (km/s) = 2.22177 3.38506 2.86311
# Velocity P-wave (km/s) = 4.96935 6.27983 5.66263
#
# Compressibility (1/GPa) = 0.02606564
#
# Stress axis : x y z
#
# Youngs Moduli (GPa) = 73.76971 143.43889 67.19022
#
# Poissons Ratio (x) = 0.52662 -0.06552
# Poissons Ratio (y) = 0.27084 0.13278
# Poissons Ratio (z) = -0.07193 0.28345
#
# Static dielectric constant tensor:
#      x y z
#    x 1.788710 0.000000 0.000000 
#    y 0.000000 1.851150 0.000000 
#    z 0.000000 0.000000 1.787560 
# 
# From -- ./inp_files/20729.got.cif
#   From: 2010.05.17/outbox.cif.g08.bks.cpg/sg60_11_cif.got.tgz:20729.got - 2010.06.03 14:59:27.
