data_PCOD9453260
_publ_section_title
;
Structure prediction by ZEFSAII (Michael W. Deem and Ramdas Pophale) SiO2 
 PCOD9453260
Probable space group: P M M N
;
_chemical_formula_sum "Si O2"
_cell_formula_units_Z 48
_cell_length_a 13.594967
_cell_length_b 7.385640
_cell_length_c 19.530508
_cell_angle_alpha 90.000000
_cell_angle_beta 90.000000
_cell_angle_gamma 90.000000
_cell_volume 1961.010108
_symmetry_space_group_name_H-M "P M M N"
_symmetry_group_IT_number 59
_space_group.IT_coordinate_system_code '2'
_symmetry_cell_setting 'orthorhombic'
loop_
_space_group_symop_operation_xyz
x,y,z
1/2-x,1/2-y,z
1/2+x,-y,-z
-x,1/2+y,-z
-x,-y,-z
1/2+x,1/2+y,-z
1/2-x,y,z
x,1/2-y,z
loop_
_atom_site_type_symbol
_atom_site_label
_atom_site_fract_x
_atom_site_fract_y
_atom_site_fract_z
Si Si1 0.638515 0.970685 0.187845
Si Si2 0.575290 0.458924 0.598605
Si Si3 0.359645 0.969835 0.549348
Si Si4 0.550681 0.471848 0.744533
Si Si5 0.365064 0.033474 0.963543
Si Si6 0.360146 0.965413 0.112549
O O1 0.750000 0.030841 0.197700
O O2 0.639286 0.750000 0.186743
O O3 0.563118 0.025445 0.246170
O O4 0.601558 0.028462 0.111908
O O5 0.607049 0.250000 0.600170
O O6 0.622713 0.533732 0.529308
O O7 0.456612 0.465717 0.589088
O O8 0.596237 0.536949 0.673523
O O9 0.250000 0.024049 0.572563
O O10 0.363598 0.750000 0.550151
O O11 0.554554 0.250000 0.742681
O O12 0.597892 0.533154 0.815844
O O13 0.250000 0.972867 0.965624
O O14 0.366304 0.250000 0.960851
O O15 0.409047 0.987172 0.037764
O O16 0.250000 0.039337 0.105630
O O17 0.356100 0.750000 0.121251
#
# Coordination Sequence:
#
# PCOD9453260 Si02
#       6
#     8   8   8   8   8   8
#     4   8  14  25  41  61  85 113 146 186 228 262
#     4   9  18  32  50  73  97 120 154 195 225 264
#     4   9  18  33  52  72  96 126 153 181 227 280
#     4   9  17  28  43  66  93 117 144 181 223 264
#     4   8  14  26  43  60  80 111 152 191 221 256
#     4   9  17  28  42  62  89 118 146 181 225 266
#
# _framework density 24.477180000000001
#
# number of rings (size 3 to 8) (size 9 to 14) (size 15 to 20)
#    0.000    3.333    0.000    1.000    0.000    2.333 
#    0.000    5.833    0.000    1.000    0.000    4.667 
#    0.000    0.000    0.000    0.000    0.000    0.000 
#
# Total GULP energy -267745.618294 kJ/mol
# GULP energy per Si atom -5578.033714 kJ/mol
# Density = 2.442147 g / cm^3
# Si number density = 24.477180 Si / 1000 Ang^3
#
#
#
# Elastic Constant Matrix: (Units=GPa)
#
#
# Indices 1 2 3 4 5 6 
#
# 1 32.5925 -10.4953 -13.0412 0.0000 0.0000 0.0000
# 2 -10.4953 86.2724 -3.0788 0.0000 0.0000 0.0000
# 3 -13.0412 -3.0788 106.3978 0.0000 0.0000 0.0000
# 4 0.0000 0.0000 0.0000 5.8989 0.0000 0.0000
# 5 0.0000 0.0000 0.0000 0.0000 14.0893 0.0000
# 6 0.0000 0.0000 0.0000 0.0000 0.0000 4.0406
#
#
#
# Elastic Compliance Matrix: (Units=1/GPa)
#
#
# Indices 1 2 3 4 5 6 
#
# 1 0.033758 0.004259 0.004261 0.000000 0.000000 0.000000
# 2 0.004259 0.012140 0.000873 0.000000 0.000000 0.000000
# 3 0.004261 0.000873 0.009946 0.000000 0.000000 0.000000
# 4 0.000000 0.000000 0.000000 0.169522 0.000000 0.000000
# 5 0.000000 0.000000 0.000000 0.000000 0.070976 0.000000
# 6 0.000000 0.000000 0.000000 0.000000 0.000000 0.247485
#
#
# Mechanical properties :
#
#
# Convention : Reuss Voigt Hill
#
# Bulk Modulus (GPa) = 13.39921 19.11468 16.25694
# Shear Modulus (GPa) = 9.09225 21.59764 15.34494
#
# Velocity S-wave (km/s) = 1.92942 2.97367 2.50653
# Velocity P-wave (km/s) = 3.23258 4.42905 3.87724
#
# Compressibility (1/GPa) = 0.07463129
#
# Stress axis : x y z
#
# Youngs Moduli (GPa) = 29.62237 82.36920 100.54058
#
# Poissons Ratio (x) = -0.35080 -0.42840
# Poissons Ratio (y) = -0.12616 -0.08780
# Poissons Ratio (z) = -0.12622 -0.07193
#
# Static dielectric constant tensor:
#      x y z
#    x 1.988810 0.000000 0.000000 
#    y 0.000000 1.944980 0.000000 
#    z 0.000000 0.000000 1.938420 
# 
# From -- ./inp_files/27369.got.cif
#   From: 2010.05.17/outbox.cif.g08.bks.cpg/sg59_14_cif.got.tgz:27369.got - 2010.06.03 14:40:33.
