data_PCOD9453227
_publ_section_title
;
Structure prediction by ZEFSAII (Michael W. Deem and Ramdas Pophale) SiO2 
 PCOD9453227
Probable space group: P M M N
;
_chemical_formula_sum "Si O2"
_cell_formula_units_Z 56
_cell_length_a 9.598633
_cell_length_b 14.552619
_cell_length_c 18.821424
_cell_angle_alpha 90.000000
_cell_angle_beta 90.000000
_cell_angle_gamma 90.000000
_cell_volume 2629.075297
_symmetry_space_group_name_H-M "P M M N"
_symmetry_group_IT_number 59
_space_group.IT_coordinate_system_code '2'
_symmetry_cell_setting 'orthorhombic'
loop_
_space_group_symop_operation_xyz
x,y,z
1/2-x,1/2-y,z
1/2+x,-y,-z
-x,1/2+y,-z
-x,-y,-z
1/2+x,1/2+y,-z
1/2-x,y,z
x,1/2-y,z
loop_
_atom_site_type_symbol
_atom_site_label
_atom_site_fract_x
_atom_site_fract_y
_atom_site_fract_z
Si Si1 0.592843 0.401361 0.077186
Si Si2 0.907396 0.857082 0.208858
Si Si3 0.907559 0.616915 0.049920
Si Si4 0.081475 0.642364 0.767162
Si Si5 0.409835 0.637250 0.338954
Si Si6 0.088267 0.637425 0.611699
Si Si7 0.410220 0.362319 0.524071
O O1 0.750000 0.362938 0.078394
O O2 0.601804 0.506748 0.053314
O O3 0.536772 0.400397 0.157916
O O4 0.498329 0.355264 0.017380
O O5 0.750000 0.899075 0.210225
O O6 0.890895 0.750000 0.227263
O O7 0.961739 0.858954 0.128322
O O8 0.012539 0.894613 0.267247
O O9 0.750000 0.651582 0.044440
O O10 0.250000 0.635567 0.764228
O O11 0.045548 0.750000 0.772208
O O12 0.035216 0.607870 0.689731
O O13 0.250000 0.606098 0.343885
O O14 0.405285 0.750000 0.338613
O O15 0.503459 0.610278 0.406258
O O16 0.250000 0.609771 0.601576
O O17 0.088997 0.750000 0.612927
O O18 0.991756 0.608341 0.546703
O O19 0.250000 0.393051 0.526091
O O20 0.408362 0.250000 0.523624
#
# Coordination Sequence:
#
# PCOD9453227 Si02
#       7
#     8   8   8   8   8   8   8
#     4   9  17  30  47  64  83 109 141 174 207 248
#     4   9  17  29  43  59  83 113 141 171 210 253
#     4   9  18  31  45  62  84 110 140 173 210 251
#     4   8  14  25  42  64  87 110 138 173 211 248
#     4   9  16  25  38  58  83 109 139 174 209 245
#     4   8  13  22  36  54  78 107 137 168 201 238
#     4   9  15  22  34  54  82 114 142 166 199 244
#
# _framework density 21.300265
#
# number of rings (size 3 to 8) (size 9 to 14) (size 15 to 20)
#    0.000    3.286    0.000    1.714    0.000    4.571 
#    0.000    0.714    0.000    0.857    0.000    1.000 
#    0.000    0.000    0.000    0.000    0.000    0.000 
#
# Total GULP energy -312297.115605 kJ/mol
# GULP energy per Si atom -5576.734207 kJ/mol
# Density = 2.125178 g / cm^3
# Si number density = 21.300265 Si / 1000 Ang^3
#
#
#
# Elastic Constant Matrix: (Units=GPa)
#
#
# Indices 1 2 3 4 5 6 
#
# 1 117.5413 3.4234 119.1265 0.0000 0.0000 0.0000
# 2 3.4234 48.9747 -1.3380 0.0000 0.0000 0.0000
# 3 119.1265 -1.3380 234.0743 0.0000 0.0000 0.0000
# 4 0.0000 0.0000 0.0000 23.3261 0.0000 0.0000
# 5 0.0000 0.0000 0.0000 0.0000 49.7021 0.0000
# 6 0.0000 0.0000 0.0000 0.0000 0.0000 -9.0345
#
#
#
# Elastic Compliance Matrix: (Units=1/GPa)
#
#
# Indices 1 2 3 4 5 6 
#
# 1 0.017677 -0.001482 -0.009005 0.000000 0.000000 0.000000
# 2 -0.001482 0.020546 0.000871 0.000000 0.000000 0.000000
# 3 -0.009005 0.000871 0.008860 0.000000 0.000000 0.000000
# 4 0.000000 0.000000 0.000000 0.042870 0.000000 0.000000
# 5 0.000000 0.000000 0.000000 0.000000 0.020120 0.000000
# 6 0.000000 0.000000 0.000000 0.000000 0.000000 -0.110686
#
#
# Mechanical properties :
#
#
# Convention : Reuss Voigt Hill
#
# Bulk Modulus (GPa) = 35.90257 71.44600 53.67428
# Shear Modulus (GPa) = 179.20403 31.42396 105.31399
#
# Velocity S-wave (km/s) = 9.18232 3.84511 7.03917
# Velocity P-wave (km/s) = 11.37154 7.30262 9.55616
#
# Compressibility (1/GPa) = 0.02785316
#
# Stress axis : x y z
#
# Youngs Moduli (GPa) = 56.57072 48.67105 112.86834
#
# Poissons Ratio (x) = 0.07211 1.01635
# Poissons Ratio (y) = 0.08382 -0.09836
# Poissons Ratio (z) = 0.50941 -0.04242
#
# Static dielectric constant tensor:
#      x y z
#    x 1.743300 0.000000 0.000000 
#    y 0.000000 1.838740 0.000000 
#    z 0.000000 0.000000 1.765900 
# 
# From -- ./inp_files/26000.got.cif
#   From: 2010.05.17/outbox.cif.g08.bks.cpg/sg59_13_cif.got.tgz:26000.got - 2010.06.03 14:40:33.
