data_PCOD9453708
_publ_section_title
;
Structure prediction by ZEFSAII (Michael W. Deem and Ramdas Pophale) SiO2 
 PCOD9453708
Probable space group: P B C N
;
_chemical_formula_sum "Si O2"
_cell_formula_units_Z 48
_cell_length_a 7.856650
_cell_length_b 13.810373
_cell_length_c 15.555748
_cell_angle_alpha 90.000000
_cell_angle_beta 90.000000
_cell_angle_gamma 90.000000
_cell_volume 1687.849479
_symmetry_space_group_name_H-M "P B C N"
_symmetry_group_IT_number 60
_symmetry_cell_setting 'orthorhombic'
loop_
_space_group_symop_operation_xyz
x,y,z
1/2-x,1/2-y,1/2+z
1/2+x,1/2-y,-z
-x,y,1/2-z
-x,-y,-z
1/2+x,1/2+y,1/2-z
1/2-x,1/2+y,z
x,-y,1/2+z
loop_
_atom_site_type_symbol
_atom_site_label
_atom_site_fract_x
_atom_site_fract_y
_atom_site_fract_z
Si Si1 0.724020 0.253108 0.729595
Si Si2 0.052039 0.798488 0.925465
Si Si3 0.319590 0.537187 0.039841
Si Si4 0.443674 0.768535 0.619299
Si Si5 0.305920 0.514950 0.227959
Si Si6 0.856039 0.544086 0.109695
O O1 0.433161 0.238252 0.836555
O O2 0.881908 0.230073 0.664258
O O3 0.708943 0.368647 0.753944
O O4 0.800092 0.220237 0.820765
O O5 0.874731 0.855313 0.932857
O O6 0.204377 0.877828 0.914047
O O7 0.070604 0.753046 0.018912
O O8 0.280381 0.485896 0.129815
O O9 0.500000 0.500000 0.000000
O O10 0.171364 0.526266 0.970750
O O11 0.485073 0.884893 0.625482
O O12 0.500000 0.490224 0.250000
O O13 0.183023 0.482000 0.304652
#
# Coordination Sequence:
#
# PCOD9453708 Si02
#       6
#     8   8   8   8   8   8
#     4   9  19  33  53  80 112 158 191 217 291 359
#     4   9  17  31  54  84 112 150 193 240 286 347
#     4  10  17  31  54  84 111 140 199 246 283 338
#     4   9  18  36  54  80 121 148 191 239 290 356
#     4  10  15  30  52  79 108 147 193 232 277 356
#     4   9  20  34  54  85 110 150 191 244 298 334
#
# _framework density 28.438555999999998
#
# number of rings (size 3 to 8) (size 9 to 14) (size 15 to 20)
#    0.000    3.000    5.000    0.000    0.000    2.667 
#    0.000    7.500    0.000    0.000    0.000    0.000 
#    0.000    0.000    0.000    0.000    0.000    0.000 
#
# Total GULP energy -267785.130292 kJ/mol
# GULP energy per Si atom -5578.856881 kJ/mol
# Density = 2.837383 g / cm^3
# Si number density = 28.438556 Si / 1000 Ang^3
#
#
#
# Elastic Constant Matrix: (Units=GPa)
#
#
# Indices 1 2 3 4 5 6 
#
# 1 147.8776 30.8574 64.2816 0.0000 0.0000 0.0000
# 2 30.8574 62.8547 45.4361 0.0000 0.0000 0.0000
# 3 64.2816 45.4361 336.3322 0.0000 0.0000 0.0000
# 4 0.0000 0.0000 0.0000 33.8386 0.0000 0.0000
# 5 0.0000 0.0000 0.0000 0.0000 42.2143 0.0000
# 6 0.0000 0.0000 0.0000 0.0000 0.0000 29.0271
#
#
#
# Elastic Compliance Matrix: (Units=1/GPa)
#
#
# Indices 1 2 3 4 5 6 
#
# 1 0.007879 -0.003080 -0.001090 0.000000 0.000000 0.000000
# 2 -0.003080 0.018836 -0.001956 0.000000 0.000000 0.000000
# 3 -0.001090 -0.001956 0.003446 0.000000 0.000000 0.000000
# 4 0.000000 0.000000 0.000000 0.029552 0.000000 0.000000
# 5 0.000000 0.000000 0.000000 0.000000 0.023689 0.000000
# 6 0.000000 0.000000 0.000000 0.000000 0.000000 0.034451
#
#
# Mechanical properties :
#
#
# Convention : Reuss Voigt Hill
#
# Bulk Modulus (GPa) = 55.83888 92.02384 73.93136
# Shear Modulus (GPa) = 36.74505 48.11528 42.43017
#
# Velocity S-wave (km/s) = 3.59846 4.11774 3.86682
# Velocity P-wave (km/s) = 6.07805 7.41868 6.78157
#
# Compressibility (1/GPa) = 0.01790867
#
# Stress axis : x y z
#
# Youngs Moduli (GPa) = 126.92307 53.09055 290.21269
#
# Poissons Ratio (x) = 0.16353 0.31625
# Poissons Ratio (y) = 0.39095 0.56762
# Poissons Ratio (z) = 0.13831 0.10384
#
# Static dielectric constant tensor:
#      x y z
#    x 2.304780 0.000000 0.000000 
#    y 0.000000 2.426480 0.000000 
#    z 0.000000 0.000000 2.354250 
# 
# From -- ./inp_files/15149.got.cif
#   From: 2010.05.17/outbox.cif.g08.bks.cpg/sg60_8_cif.got.tgz:15149.got - 2010.06.03 14:59:27.
