data_PCOD9453241
_publ_section_title
;
Structure prediction by ZEFSAII (Michael W. Deem and Ramdas Pophale) SiO2 
 PCOD9453241
Probable space group: P M M N
;
_chemical_formula_sum "Si O2"
_cell_formula_units_Z 64
_cell_length_a 7.466832
_cell_length_b 20.856179
_cell_length_c 20.545601
_cell_angle_alpha 90.000000
_cell_angle_beta 90.000000
_cell_angle_gamma 90.000000
_cell_volume 3199.557912
_symmetry_space_group_name_H-M "P M M N"
_symmetry_group_IT_number 59
_space_group.IT_coordinate_system_code '2'
_symmetry_cell_setting 'orthorhombic'
loop_
_space_group_symop_operation_xyz
x,y,z
1/2-x,1/2-y,z
1/2+x,-y,-z
-x,1/2+y,-z
-x,-y,-z
1/2+x,1/2+y,-z
1/2-x,y,z
x,1/2-y,z
loop_
_atom_site_type_symbol
_atom_site_label
_atom_site_fract_x
_atom_site_fract_y
_atom_site_fract_z
Si Si1 0.464328 0.178324 0.112983
Si Si2 0.461091 0.893134 0.382368
Si Si3 0.969660 0.964511 0.656864
Si Si4 0.960951 0.926515 0.521265
Si Si5 0.030713 0.057380 0.195285
Si Si6 0.464482 0.677769 0.038975
Si Si7 0.468498 0.918795 0.148669
Si Si8 0.531412 0.179378 0.739665
O O1 0.250000 0.180368 0.121400
O O2 0.533945 0.250000 0.127595
O O3 0.531388 0.120748 0.157836
O O4 0.498644 0.165507 0.036794
O O5 0.250000 0.896887 0.370724
O O6 0.481091 0.884726 0.459585
O O7 0.528130 0.839456 0.332995
O O8 0.530584 0.962951 0.359831
O O9 0.750000 0.964687 0.656681
O O10 0.029807 0.921437 0.595233
O O11 0.024883 0.945014 0.729083
O O12 0.750000 0.918690 0.524864
O O13 0.000000 0.000000 0.500000
O O14 0.250000 0.057375 0.195013
O O15 0.973498 0.991878 0.159257
O O16 0.250000 0.680104 0.047542
O O17 0.531730 0.750000 0.054805
O O18 0.530027 0.620965 0.085587
O O19 0.250000 0.920467 0.147315
O O20 0.522012 0.876128 0.210762
O O21 0.750000 0.180966 0.741544
O O22 0.469952 0.250000 0.758912
#
# Coordination Sequence:
#
# PCOD9453241 Si02
#       8
#     8   8   8   8   8   8   8   8
#     4   9  18  31  46  64  84 110 145 179 215 262
#     4   9  15  25  41  62  87 112 142 178 216 257
#     4   8  13  23  39  61  84 106 135 174 216 252
#     4   9  16  25  41  63  86 112 143 177 215 259
#     4   9  15  25  43  64  87 112 139 180 223 255
#     4   9  17  29  45  65  89 114 140 174 215 259
#     4   9  15  24  41  66  90 111 142 182 221 257
#     4   9  15  23  39  64  91 116 146 185 222 259
#
# _framework density 20.002763000000002
#
# number of rings (size 3 to 8) (size 9 to 14) (size 15 to 20)
#    0.000    3.125    1.250    1.500    0.000    2.000 
#    0.000    0.000    0.000    5.625    0.000    1.750 
#    0.000    0.000    0.000    0.000    0.000    0.000 
#
# Total GULP energy -356627.102576 kJ/mol
# GULP energy per Si atom -5572.298478 kJ/mol
# Density = 1.995724 g / cm^3
# Si number density = 20.002763 Si / 1000 Ang^3
#
#
#
# Elastic Constant Matrix: (Units=GPa)
#
#
# Indices 1 2 3 4 5 6 
#
# 1 52.7428 5.6695 -1.2993 0.0000 0.0000 0.0000
# 2 5.6695 130.8212 98.9082 0.0000 0.0000 0.0000
# 3 -1.2993 98.9082 149.6746 0.0000 0.0000 0.0000
# 4 0.0000 0.0000 0.0000 8.6614 0.0000 0.0000
# 5 0.0000 0.0000 0.0000 0.0000 16.0691 0.0000
# 6 0.0000 0.0000 0.0000 0.0000 0.0000 -1.5080
#
#
#
# Elastic Compliance Matrix: (Units=1/GPa)
#
#
# Indices 1 2 3 4 5 6 
#
# 1 0.019201 -0.001915 0.001432 0.000000 0.000000 0.000000
# 2 -0.001915 0.015467 -0.010238 0.000000 0.000000 0.000000
# 3 0.001432 -0.010238 0.013459 0.000000 0.000000 0.000000
# 4 0.000000 0.000000 0.000000 0.115455 0.000000 0.000000
# 5 0.000000 0.000000 0.000000 0.000000 0.062231 0.000000
# 6 0.000000 0.000000 0.000000 0.000000 0.000000 -0.663144
#
#
# Mechanical properties :
#
#
# Convention : Reuss Voigt Hill
#
# Bulk Modulus (GPa) = 37.47257 59.97726 48.72492
# Shear Modulus (GPa) = -12.28521 19.97518 3.84498
#
# Velocity S-wave (km/s) = -2.48095 3.16352 1.38795
# Velocity P-wave (km/s) = 3.25078 6.58737 5.19428
#
# Compressibility (1/GPa) = 0.02668619
#
# Stress axis : x y z
#
# Youngs Moduli (GPa) = 52.08050 64.65238 74.30010
#
# Poissons Ratio (x) = 0.12380 -0.10640
# Poissons Ratio (y) = 0.09973 0.76067
# Poissons Ratio (z) = -0.07458 0.66190
#
# Static dielectric constant tensor:
#      x y z
#    x 1.774290 0.000000 0.000000 
#    y 0.000000 1.684510 0.000000 
#    z 0.000000 0.000000 1.721570 
# 
# From -- ./inp_files/29767.got.cif
#   From: 2010.05.17/outbox.cif.g08.bks.cpg/sg59_15_cif.got.tgz:29767.got - 2010.06.03 14:40:33.
