data_PCOD9453326
_publ_section_title
;
Structure prediction by ZEFSAII (Michael W. Deem and Ramdas Pophale) SiO2 
 PCOD9453326
Probable space group: P M M N
;
_chemical_formula_sum "Si O2"
_cell_formula_units_Z 64
_cell_length_a 9.000000
_cell_length_b 30.000000
_cell_length_c 15.000000
_cell_angle_alpha 90.000000
_cell_angle_beta 90.000000
_cell_angle_gamma 90.000000
_cell_volume 4050.000000
_symmetry_space_group_name_H-M "P M M N"
_symmetry_group_IT_number 59
_space_group.IT_coordinate_system_code '2'
_symmetry_cell_setting 'orthorhombic'
loop_
_space_group_symop_operation_xyz
x,y,z
1/2-x,1/2-y,z
1/2+x,-y,-z
-x,1/2+y,-z
-x,-y,-z
1/2+x,1/2+y,-z
1/2-x,y,z
x,1/2-y,z
loop_
_atom_site_type_symbol
_atom_site_label
_atom_site_fract_x
_atom_site_fract_y
_atom_site_fract_z
Si Si1 0.926816 0.385523 0.303513
Si Si2 0.069771 0.798553 0.797630
Si Si3 0.571327 0.199010 0.992752
Si Si4 0.072539 0.556477 0.874199
Si Si5 0.571359 0.036934 0.827780
Si Si6 0.074583 0.440214 0.446692
Si Si7 0.071422 0.392316 0.959264
Si Si8 0.573921 0.527837 0.363688
O O1 0.750000 0.383726 0.322821
O O2 0.980530 0.339090 0.262255
O O3 0.945579 0.421139 0.223196
O O4 0.017632 0.398698 0.390412
O O5 0.250000 0.799130 0.794708
O O6 0.017996 0.750000 0.767686
O O7 0.033610 0.803891 0.901784
O O8 0.750000 0.192434 0.984231
O O9 0.538452 0.250000 0.964054
O O10 0.483471 0.158585 0.948537
O O11 0.250000 0.552417 0.891396
O O12 0.993492 0.508647 0.870507
O O13 0.998458 0.587510 0.949331
O O14 0.750000 0.037574 0.833731
O O15 0.497800 0.077442 0.881418
O O16 0.516872 0.037904 0.725298
O O17 0.250000 0.448327 0.432568
O O18 0.050632 0.438756 0.552993
O O19 0.981550 0.481056 0.404692
O O20 0.250000 0.395188 0.961328
O O21 0.750000 0.525304 0.343129
#
# Coordination Sequence:
#
# PCOD9453326 Si02
#       8
#     8   8   8   8   8   8   8   8
#     4  10  18  29  50  74 101 134 169 207 247 294
#     4   8  14  27  48  72  97 128 165 203 244 289
#     4   9  17  33  55  75  99 132 171 213 255 300
#     4  11  21  35  51  72 103 138 176 211 248 297
#     4  12  24  37  53  72  98 134 176 217 258 304
#     4  10  20  32  50  73 100 131 164 201 246 300
#     4  12  24  36  51  73 104 139 173 212 255 306
#     4  10  20  35  51  71  98 129 165 208 252 295
#
# _framework density 15.802469
#
# number of rings (size 3 to 8) (size 9 to 14) (size 15 to 20)
#    0.000    1.750    2.500    4.500    0.000    2.250 
#    0.000    0.000    0.000    0.375    0.000    0.875 
#    0.000    3.000    0.000    0.000    0.000    0.000 
#
# Total GULP energy -357088.391308 kJ/mol
# GULP energy per Si atom -5579.506114 kJ/mol
# Density = 1.576650 g / cm^3
# Si number density = 15.802469 Si / 1000 Ang^3
#
#
#
# Elastic Constant Matrix: (Units=GPa)
#
#
# Indices 1 2 3 4 5 6 
#
# 1 99.4946 45.3514 32.7161 0.0000 0.0000 0.0000
# 2 45.3514 115.4030 32.3147 0.0000 0.0000 0.0000
# 3 32.7161 32.3147 53.8264 0.0000 0.0000 0.0000
# 4 0.0000 0.0000 0.0000 21.6455 0.0000 0.0000
# 5 0.0000 0.0000 0.0000 0.0000 25.6413 0.0000
# 6 0.0000 0.0000 0.0000 0.0000 0.0000 23.3095
#
#
#
# Elastic Compliance Matrix: (Units=1/GPa)
#
#
# Indices 1 2 3 4 5 6 
#
# 1 0.013751 -0.003683 -0.006147 0.000000 0.000000 0.000000
# 2 -0.003683 0.011403 -0.004607 0.000000 0.000000 0.000000
# 3 -0.006147 -0.004607 0.025080 0.000000 0.000000 0.000000
# 4 0.000000 0.000000 0.000000 0.046199 0.000000 0.000000
# 5 0.000000 0.000000 0.000000 0.000000 0.039000 0.000000
# 6 0.000000 0.000000 0.000000 0.000000 0.000000 0.042901
#
#
# Mechanical properties :
#
#
# Convention : Reuss Voigt Hill
#
# Bulk Modulus (GPa) = 46.81622 54.38761 50.60191
# Shear Modulus (GPa) = 23.32889 24.67538 24.00214
#
# Velocity S-wave (km/s) = 3.84641 3.95586 3.90152
# Velocity P-wave (km/s) = 7.02970 7.44022 7.23787
#
# Compressibility (1/GPa) = 0.02136012
#
# Stress axis : x y z
#
# Youngs Moduli (GPa) = 72.72406 87.69964 39.87176
#
# Poissons Ratio (x) = 0.32295 0.24509
# Poissons Ratio (y) = 0.26781 0.18370
# Poissons Ratio (z) = 0.44703 0.40406
#
# Static dielectric constant tensor:
#      x y z
#    x 1.522830 0.000000 0.000000 
#    y 0.000000 1.552480 0.000000 
#    z 0.000000 0.000000 1.522970 
# 
# From -- ./inp_files/21878.got.cif
#   From: 2010.05.17/outbox.ucp.g08.bks.cvg/sg59_11_cif.got.tgz:21878.got - 2010.06.11 16:43:56.
