data_PCOD9453332
_publ_section_title
;
Structure prediction by ZEFSAII (Michael W. Deem and Ramdas Pophale) SiO2 
 PCOD9453332
Probable space group: P M M N
;
_chemical_formula_sum "Si O2"
_cell_formula_units_Z 64
_cell_length_a 15.000000
_cell_length_b 24.000000
_cell_length_c 9.000000
_cell_angle_alpha 90.000000
_cell_angle_beta 90.000000
_cell_angle_gamma 90.000000
_cell_volume 3240.000000
_symmetry_space_group_name_H-M "P M M N"
_symmetry_group_IT_number 59
_space_group.IT_coordinate_system_code '2'
_symmetry_cell_setting 'orthorhombic'
loop_
_space_group_symop_operation_xyz
x,y,z
1/2-x,1/2-y,z
1/2+x,-y,-z
-x,1/2+y,-z
-x,-y,-z
1/2+x,1/2+y,-z
1/2-x,y,z
x,1/2-y,z
loop_
_atom_site_type_symbol
_atom_site_label
_atom_site_fract_x
_atom_site_fract_y
_atom_site_fract_z
Si Si1 0.645649 0.315950 0.557652
Si Si2 0.355703 0.186367 0.008245
Si Si3 0.103381 0.996589 0.354480
Si Si4 0.647238 0.591016 0.444101
Si Si5 0.851849 0.080758 0.369305
Si Si6 0.151717 0.435427 0.079411
Si Si7 0.575017 0.982161 0.202640
Si Si8 0.461481 0.314827 0.701548
O O1 0.750000 0.327776 0.601038
O O2 0.641829 0.250000 0.521799
O O3 0.624170 0.356820 0.419486
O O4 0.567011 0.326914 0.677964
O O5 0.250000 0.186379 0.964769
O O6 0.372797 0.250000 0.065716
O O7 0.419777 0.177234 0.865834
O O8 0.368073 0.130348 0.107605
O O9 0.086774 0.053069 0.448348
O O10 0.155673 0.023831 0.219184
O O11 0.143391 0.955025 0.476361
O O12 0.018906 0.968696 0.278063
O O13 0.750000 0.596378 0.495690
O O14 0.646049 0.554793 0.293338
O O15 0.597938 0.647880 0.407613
O O16 0.750000 0.080994 0.317677
O O17 0.907006 0.046477 0.246490
O O18 0.250000 0.436397 0.010165
O O19 0.083016 0.462702 0.964915
O O20 0.449379 0.250000 0.666028
#
# Coordination Sequence:
#
# PCOD9453332 Si02
#       8
#     8   8   8   8   8   8   8   8
#     4   9  18  32  51  77 106 136 172 218 271 321
#     4   9  18  32  52  76 102 138 182 220 255 307
#     4  11  22  34  50  75 107 142 174 220 272 317
#     4  11  20  34  54  79 109 142 176 217 268 322
#     4  10  19  33  53  76 102 132 169 217 267 320
#     4  11  21  35  52  75 106 141 179 220 266 316
#     4  11  20  33  52  75 101 137 180 216 260 315
#     4  10  18  30  51  79 106 134 176 226 266 308
#
# _framework density 19.753086
#
# number of rings (size 3 to 8) (size 9 to 14) (size 15 to 20)
#    0.000    1.750    1.250    6.750    0.000    0.750 
#    0.000    0.625    0.000    2.250    0.000    0.875 
#    0.000    5.000    0.000    0.250    0.000    0.000 
#
# Total GULP energy -356323.052140 kJ/mol
# GULP energy per Si atom -5567.547690 kJ/mol
# Density = 1.970813 g / cm^3
# Si number density = 19.753086 Si / 1000 Ang^3
#
#
#
# Elastic Constant Matrix: (Units=GPa)
#
#
# Indices 1 2 3 4 5 6 
#
# 1 50.8637 28.8801 -3.0838 0.0000 0.0000 0.0000
# 2 28.8801 87.8321 13.7715 0.0000 0.0000 0.0000
# 3 -3.0838 13.7715 36.2035 0.0000 0.0000 0.0000
# 4 0.0000 0.0000 0.0000 17.0218 0.0000 0.0000
# 5 0.0000 0.0000 0.0000 0.0000 17.2966 0.0000
# 6 0.0000 0.0000 0.0000 0.0000 0.0000 21.0259
#
#
#
# Elastic Compliance Matrix: (Units=1/GPa)
#
#
# Indices 1 2 3 4 5 6 
#
# 1 0.025211 -0.009173 0.005637 0.000000 0.000000 0.000000
# 2 -0.009173 0.015445 -0.006657 0.000000 0.000000 0.000000
# 3 0.005637 -0.006657 0.030634 0.000000 0.000000 0.000000
# 4 0.000000 0.000000 0.000000 0.058748 0.000000 0.000000
# 5 0.000000 0.000000 0.000000 0.000000 0.057815 0.000000
# 6 0.000000 0.000000 0.000000 0.000000 0.000000 0.047560
#
#
# Mechanical properties :
#
#
# Convention : Reuss Voigt Hill
#
# Bulk Modulus (GPa) = 19.64488 28.22610 23.93549
# Shear Modulus (GPa) = 18.33061 20.09095 19.21078
#
# Velocity S-wave (km/s) = 3.04959 3.19267 3.12195
# Velocity P-wave (km/s) = 4.72936 5.28312 5.01389
#
# Compressibility (1/GPa) = 0.05090385
#
# Stress axis : x y z
#
# Youngs Moduli (GPa) = 39.66561 64.74414 32.64347
#
# Poissons Ratio (x) = 0.59392 -0.18401
# Poissons Ratio (y) = 0.36387 0.21730
# Poissons Ratio (z) = -0.22359 0.43098
#
# Static dielectric constant tensor:
#      x y z
#    x 1.729840 0.000000 0.000000 
#    y 0.000000 1.719950 0.000000 
#    z 0.000000 0.000000 1.722380 
# 
# From -- ./inp_files/9609.got.cif
#   From: 2010.05.17/outbox.ucp.g08.bks.cvg/sg59_5_cif.got.tgz:9609.got - 2010.06.11 16:43:56.
