data_PCOD9453454
_publ_section_title
;
Structure prediction by ZEFSAII (Michael W. Deem and Ramdas Pophale) SiO2 
 PCOD9453454
Probable space group: P M M N
;
_chemical_formula_sum "Si O2"
_cell_formula_units_Z 64
_cell_length_a 18.000000
_cell_length_b 15.000000
_cell_length_c 12.000000
_cell_angle_alpha 90.000000
_cell_angle_beta 90.000000
_cell_angle_gamma 90.000000
_cell_volume 3240.000000
_symmetry_space_group_name_H-M "P M M N"
_symmetry_group_IT_number 59
_space_group.IT_coordinate_system_code '2'
_symmetry_cell_setting 'orthorhombic'
loop_
_space_group_symop_operation_xyz
x,y,z
1/2-x,1/2-y,z
1/2+x,-y,-z
-x,1/2+y,-z
-x,-y,-z
1/2+x,1/2+y,-z
1/2-x,y,z
x,1/2-y,z
loop_
_atom_site_type_symbol
_atom_site_label
_atom_site_fract_x
_atom_site_fract_y
_atom_site_fract_z
Si Si1 0.448224 0.354942 0.791418
Si Si2 0.161023 0.649740 0.901718
Si Si3 0.333863 0.347653 0.587841
Si Si4 0.334330 0.356186 0.197715
Si Si5 0.834470 0.550496 0.042265
Si Si6 0.165866 0.960534 0.475329
Si Si7 0.414376 0.854896 0.659080
Si Si8 0.047395 0.008355 0.304077
O O1 0.469289 0.250000 0.813678
O O2 0.398040 0.353059 0.679412
O O3 0.393311 0.396578 0.883339
O O4 0.511356 0.430708 0.773083
O O5 0.250000 0.650704 0.882048
O O6 0.142846 0.750000 0.948853
O O7 0.146212 0.555927 0.966238
O O8 0.117212 0.641937 0.785106
O O9 0.250000 0.348947 0.637560
O O10 0.341010 0.250000 0.530240
O O11 0.338239 0.436187 0.514778
O O12 0.250000 0.365739 0.244868
O O13 0.352042 0.250000 0.198224
O O14 0.395122 0.418963 0.254794
O O15 0.332153 0.396945 0.073686
O O16 0.750000 0.553945 0.089647
O O17 0.250000 0.945029 0.432916
O O18 0.148413 0.893352 0.576532
O O19 0.097497 0.953264 0.390961
O O20 0.433047 0.750000 0.635539
O O21 0.481175 0.927433 0.650708
#
# Coordination Sequence:
#
# PCOD9453454 Si02
#       8
#     8   8   8   8   8   8   8   8
#     4  11  22  36  57  88 124 156 192 246 305 360
#     4   9  17  32  57  91 127 160 195 240 298 360
#     4   9  18  33  56  86 118 152 191 240 298 356
#     4  10  23  43  66  90 117 155 204 251 296 353
#     4  10  19  37  64  91 120 157 202 248 294 350
#     4  11  23  40  60  84 113 155 205 246 288 350
#     4  11  22  37  60  90 121 157 197 245 299 356
#     4  12  24  41  58  86 122 161 196 245 306 360
#
# _framework density 19.753086
#
# number of rings (size 3 to 8) (size 9 to 14) (size 15 to 20)
#    0.000    1.625    2.500    2.250    0.000    6.000 
#    0.000    1.875    0.000    1.875    0.000    0.000 
#    0.000    0.000    0.000    0.000    0.000    0.000 
#
# Total GULP energy -356832.049988 kJ/mol
# GULP energy per Si atom -5575.500781 kJ/mol
# Density = 1.970813 g / cm^3
# Si number density = 19.753086 Si / 1000 Ang^3
#
#
#
# Elastic Constant Matrix: (Units=GPa)
#
#
# Indices 1 2 3 4 5 6 
#
# 1 72.4646 34.8789 12.3500 0.0000 0.0000 0.0000
# 2 34.8789 154.1933 14.0749 0.0000 0.0000 0.0000
# 3 12.3500 14.0749 20.7787 0.0000 0.0000 0.0000
# 4 0.0000 0.0000 0.0000 23.2404 0.0000 0.0000
# 5 0.0000 0.0000 0.0000 0.0000 339.5059 0.0000
# 6 0.0000 0.0000 0.0000 0.0000 0.0000 41.5646
#
#
#
# Elastic Compliance Matrix: (Units=1/GPa)
#
#
# Indices 1 2 3 4 5 6 
#
# 1 0.016593 -0.003041 -0.007802 0.000000 0.000000 0.000000
# 2 -0.003041 0.007470 -0.003252 0.000000 0.000000 0.000000
# 3 -0.007802 -0.003252 0.054967 0.000000 0.000000 0.000000
# 4 0.000000 0.000000 0.000000 0.043028 0.000000 0.000000
# 5 0.000000 0.000000 0.000000 0.000000 0.002945 0.000000
# 6 0.000000 0.000000 0.000000 0.000000 0.000000 0.024059
#
#
# Mechanical properties :
#
#
# Convention : Reuss Voigt Hill
#
# Bulk Modulus (GPa) = 19.67030 41.11600 30.39315
# Shear Modulus (GPa) = 25.74645 93.27103 59.50874
#
# Velocity S-wave (km/s) = 3.61420 6.87902 5.49470
# Velocity P-wave (km/s) = 5.23415 9.16268 7.46160
#
# Compressibility (1/GPa) = 0.05083807
#
# Stress axis : x y z
#
# Youngs Moduli (GPa) = 60.26483 133.86527 18.19283
#
# Poissons Ratio (x) = 0.40712 0.14195
# Poissons Ratio (y) = 0.18328 0.05917
# Poissons Ratio (z) = 0.47021 0.43539
#
# Static dielectric constant tensor:
#      x y z
#    x 1.716330 0.000000 0.000000 
#    y 0.000000 1.690460 0.000000 
#    z 0.000000 0.000000 1.728710 
# 
# From -- ./inp_files/17842.got.cif
#   From: 2010.05.17/outbox.ucp.g08.bks.cvg/sg59_9_cif.got.tgz:17842.got - 2010.06.11 16:43:56.
