data_PCOD9453921
_publ_section_title
;
Structure prediction by ZEFSAII (Michael W. Deem and Ramdas Pophale) SiO2 
 PCOD9453921
Probable space group: P B C N
;
_chemical_formula_sum "Si O2"
_cell_formula_units_Z 60
_cell_length_a 5.644715
_cell_length_b 18.490067
_cell_length_c 20.421861
_cell_angle_alpha 90.000000
_cell_angle_beta 90.000000
_cell_angle_gamma 90.000000
_cell_volume 2131.453292
_symmetry_space_group_name_H-M "P B C N"
_symmetry_group_IT_number 60
_symmetry_cell_setting 'orthorhombic'
loop_
_space_group_symop_operation_xyz
x,y,z
1/2-x,1/2-y,1/2+z
1/2+x,1/2-y,-z
-x,y,1/2-z
-x,-y,-z
1/2+x,1/2+y,1/2-z
1/2-x,1/2+y,z
x,-y,1/2+z
loop_
_atom_site_type_symbol
_atom_site_label
_atom_site_fract_x
_atom_site_fract_y
_atom_site_fract_z
Si Si1 0.980656 0.591979 0.823400
Si Si2 0.192506 0.086297 0.497248
Si Si3 0.199095 0.571964 0.043529
Si Si4 0.522339 0.242072 0.886929
Si Si5 0.514380 0.602046 0.641406
Si Si6 0.089298 0.587305 0.186687
Si Si7 0.500000 0.676713 0.250000
Si Si8 0.458390 0.766020 0.876092
O O1 0.965098 0.656615 0.876576
O O2 0.239842 0.561827 0.843352
O O3 0.000000 0.620073 0.750000
O O4 0.708605 0.564709 0.824468
O O5 0.463279 0.113368 0.483676
O O6 0.056220 0.104510 0.564888
O O7 0.971469 0.100999 0.448147
O O8 0.252372 0.000473 0.501947
O O9 0.112622 0.551756 0.116468
O O10 0.473497 0.271168 0.813063
O O11 0.780119 0.269255 0.908278
O O12 0.274269 0.260771 0.921347
O O13 0.534905 0.687639 0.660927
O O14 0.321994 0.621060 0.216275
O O15 0.946754 0.661948 0.168702
O O16 0.000000 0.543028 0.250000
#
# Coordination Sequence:
#
# PCOD9453921 Si02
#       8
#     8   8   8   8   8   8   4   8
#     4  10  18  29  51  86 123 158 203 240 295 369
#     4  10  22  47  66  88 112 164 226 265 299 367
#     4  10  24  42  71  88 115 159 216 269 316 359
#     4   9  16  27  44  74 118 161 192 220 273 365
#     4  10  20  34  60  83 120 166 202 257 296 360
#     4  11  22  36  61  97 129 160 193 253 319 387
#     4  10  18  30  52  82 126 160 184 238 294 380
#     4   9  19  30  49  86 119 157 188 230 303 364
#
# _framework density 28.149805000000001
#
# number of rings (size 3 to 8) (size 9 to 14) (size 15 to 20)
#    0.000    2.133    2.000    1.200    1.867    0.000 
#    0.000    2.000    2.933    0.000    0.000    0.000 
#    0.000    0.000    0.000    0.000    0.000    0.000 
#
# Total GULP energy -334338.624183 kJ/mol
# GULP energy per Si atom -5572.310403 kJ/mol
# Density = 2.808574 g / cm^3
# Si number density = 28.149805 Si / 1000 Ang^3
#
#
#
# Elastic Constant Matrix: (Units=GPa)
#
#
# Indices 1 2 3 4 5 6 
#
# 1 299.9786 29.1035 55.6576 0.0000 0.0000 0.0000
# 2 29.1035 66.3699 15.0440 0.0000 0.0000 0.0000
# 3 55.6576 15.0440 106.4304 0.0000 0.0000 0.0000
# 4 0.0000 0.0000 0.0000 28.0881 0.0000 0.0000
# 5 0.0000 0.0000 0.0000 0.0000 35.3847 0.0000
# 6 0.0000 0.0000 0.0000 0.0000 0.0000 40.7810
#
#
#
# Elastic Compliance Matrix: (Units=1/GPa)
#
#
# Indices 1 2 3 4 5 6 
#
# 1 0.003790 -0.001253 -0.001805 0.000000 0.000000 0.000000
# 2 -0.001253 0.015980 -0.001604 0.000000 0.000000 0.000000
# 3 -0.001805 -0.001604 0.010566 0.000000 0.000000 0.000000
# 4 0.000000 0.000000 0.000000 0.035602 0.000000 0.000000
# 5 0.000000 0.000000 0.000000 0.000000 0.028261 0.000000
# 6 0.000000 0.000000 0.000000 0.000000 0.000000 0.024521
#
#
# Mechanical properties :
#
#
# Convention : Reuss Voigt Hill
#
# Bulk Modulus (GPa) = 47.58817 74.70991 61.14904
# Shear Modulus (GPa) = 37.02396 45.71568 41.36982
#
# Velocity S-wave (km/s) = 3.63057 4.03428 3.83774
# Velocity P-wave (km/s) = 5.87509 6.94969 6.43487
#
# Compressibility (1/GPa) = 0.02101363
#
# Stress axis : x y z
#
# Youngs Moduli (GPa) = 263.85266 62.57852 94.64015
#
# Poissons Ratio (x) = 0.07840 0.17081
# Poissons Ratio (y) = 0.33056 0.15177
# Poissons Ratio (z) = 0.47622 0.10035
#
# Static dielectric constant tensor:
#      x y z
#    x 2.421060 0.000000 0.000000 
#    y 0.000000 2.413530 0.000000 
#    z 0.000000 0.000000 2.181700 
# 
# From -- ./inp_files/18808.got.cif
#   From: 2010.05.17/outbox.cif.g08.bks.cpg/sg60_10_cif.got.tgz:18808.got - 2010.06.03 14:59:27.
