data_PCOD9453863
_publ_section_title
;
Structure prediction by ZEFSAII (Michael W. Deem and Ramdas Pophale) SiO2 
 PCOD9453863
Probable space group: P B C N
;
_chemical_formula_sum "Si O2"
_cell_formula_units_Z 52
_cell_length_a 21.603478
_cell_length_b 13.799685
_cell_length_c 8.032825
_cell_angle_alpha 90.000000
_cell_angle_beta 90.000000
_cell_angle_gamma 90.000000
_cell_volume 2394.755359
_symmetry_space_group_name_H-M "P B C N"
_symmetry_group_IT_number 60
_symmetry_cell_setting 'orthorhombic'
loop_
_space_group_symop_operation_xyz
x,y,z
1/2-x,1/2-y,1/2+z
1/2+x,1/2-y,-z
-x,y,1/2-z
-x,-y,-z
1/2+x,1/2+y,1/2-z
1/2-x,1/2+y,z
x,-y,1/2+z
loop_
_atom_site_type_symbol
_atom_site_label
_atom_site_fract_x
_atom_site_fract_y
_atom_site_fract_z
Si Si1 0.323336 0.919227 0.785213
Si Si2 0.620977 0.500393 0.364051
Si Si3 0.212694 0.927170 0.376884
Si Si4 0.000000 0.700343 0.750000
Si Si5 0.881375 0.400012 0.355313
Si Si6 0.312064 0.793571 0.452828
Si Si7 0.912767 0.147366 0.104333
O O1 0.313760 0.840204 0.638379
O O2 0.264964 0.992717 0.823302
O O3 0.374019 0.988596 0.697104
O O4 0.347348 0.885211 0.966902
O O5 0.683452 0.535942 0.453095
O O6 0.650562 0.428383 0.230075
O O7 0.575206 0.438959 0.476576
O O8 0.591845 0.594171 0.280855
O O9 0.243103 0.821707 0.394861
O O10 0.048765 0.636757 0.647549
O O11 0.037987 0.768377 0.877575
O O12 0.850079 0.345293 0.197799
O O13 0.344503 0.689231 0.445740
#
# Coordination Sequence:
#
# PCOD9453863 Si02
#       7
#     8   8   8   4   8   8   8
#     4  11  18  36  66 100 139 173 192 247 332 418
#     4  10  21  39  64  87 124 166 218 263 325 386
#     4  10  17  35  63  96 131 165 191 242 329 410
#     4  10  24  46  62  88 130 170 236 288 318 368
#     4  10  20  36  62  94 133 172 209 254 317 396
#     4  10  20  38  62  99 137 162 209 256 318 414
#     4  10  24  44  62  89 119 166 228 286 322 374
#
# _framework density 21.714117999999999
#
# number of rings (size 3 to 8) (size 9 to 14) (size 15 to 20)
#    0.000    1.846    4.615    0.923    0.000    2.462 
#   11.077    0.000    0.000    0.000    0.000    0.000 
#    0.000    0.000    0.000    0.000    0.000    0.000 
#
# Total GULP energy -289472.970829 kJ/mol
# GULP energy per Si atom -5566.787901 kJ/mol
# Density = 2.166470 g / cm^3
# Si number density = 21.714118 Si / 1000 Ang^3
#
#
#
# Elastic Constant Matrix: (Units=GPa)
#
#
# Indices 1 2 3 4 5 6 
#
# 1 54.3335 10.2922 19.8858 0.0000 0.0000 0.0000
# 2 10.2922 51.0062 14.6176 0.0000 0.0000 0.0000
# 3 19.8858 14.6176 89.7602 0.0000 0.0000 0.0000
# 4 0.0000 0.0000 0.0000 12.2059 0.0000 0.0000
# 5 0.0000 0.0000 0.0000 0.0000 5.9494 0.0000
# 6 0.0000 0.0000 0.0000 0.0000 0.0000 140.6143
#
#
#
# Elastic Compliance Matrix: (Units=1/GPa)
#
#
# Indices 1 2 3 4 5 6 
#
# 1 0.020448 -0.002966 -0.004047 0.000000 0.000000 0.000000
# 2 -0.002966 0.020996 -0.002762 0.000000 0.000000 0.000000
# 3 -0.004047 -0.002762 0.012487 0.000000 0.000000 0.000000
# 4 0.000000 0.000000 0.000000 0.081927 0.000000 0.000000
# 5 0.000000 0.000000 0.000000 0.000000 0.168085 0.000000
# 6 0.000000 0.000000 0.000000 0.000000 0.000000 0.007112
#
#
# Mechanical properties :
#
#
# Convention : Reuss Voigt Hill
#
# Bulk Modulus (GPa) = 29.08662 31.63237 30.35949
# Shear Modulus (GPa) = 14.61708 41.77420 28.19564
#
# Velocity S-wave (km/s) = 2.59735 4.39090 3.60737
# Velocity P-wave (km/s) = 4.73490 6.34870 5.60024
#
# Compressibility (1/GPa) = 0.03438006
#
# Stress axis : x y z
#
# Youngs Moduli (GPa) = 48.90463 47.62918 80.08205
#
# Poissons Ratio (x) = 0.14128 0.32410
# Poissons Ratio (y) = 0.14506 0.22119
# Poissons Ratio (z) = 0.19792 0.13155
#
# Static dielectric constant tensor:
#      x y z
#    x 1.816140 0.000000 0.000000 
#    y 0.000000 1.875860 0.000000 
#    z 0.000000 0.000000 1.913560 
# 
# From -- ./inp_files/7355.got.cif
#   From: 2010.05.17/outbox.cif.g08.bks.cpg/sg60_4_cif.got.tgz:7355.got - 2010.06.03 14:59:27.
