data_PCOD9453525
_publ_section_title
;
Structure prediction by ZEFSAII (Michael W. Deem and Ramdas Pophale) SiO2 
 PCOD9453525
Probable space group: P M M N
;
_chemical_formula_sum "Si O2"
_cell_formula_units_Z 64
_cell_length_a 9.000000
_cell_length_b 15.000000
_cell_length_c 24.000000
_cell_angle_alpha 90.000000
_cell_angle_beta 90.000000
_cell_angle_gamma 90.000000
_cell_volume 3240.000000
_symmetry_space_group_name_H-M "P M M N"
_symmetry_group_IT_number 59
_space_group.IT_coordinate_system_code '2'
_symmetry_cell_setting 'orthorhombic'
loop_
_space_group_symop_operation_xyz
x,y,z
1/2-x,1/2-y,z
1/2+x,-y,-z
-x,1/2+y,-z
-x,-y,-z
1/2+x,1/2+y,-z
1/2-x,y,z
x,1/2-y,z
loop_
_atom_site_type_symbol
_atom_site_label
_atom_site_fract_x
_atom_site_fract_y
_atom_site_fract_z
Si Si1 0.069194 0.150500 0.583648
Si Si2 0.923778 0.856202 0.543557
Si Si3 0.921765 0.652962 0.845792
Si Si4 0.580303 0.384589 0.042544
Si Si5 0.920162 0.596599 0.068132
Si Si6 0.572956 0.471091 0.362314
Si Si7 0.929047 0.350609 0.816388
Si Si8 0.571113 0.980608 0.751686
O O1 0.250000 0.152746 0.583628
O O2 0.016773 0.250000 0.597595
O O3 0.026736 0.127798 0.520068
O O4 0.021295 0.071698 0.623579
O O5 0.750000 0.881860 0.548489
O O6 0.932831 0.750000 0.552561
O O7 0.019213 0.908907 0.587853
O O8 0.750000 0.632268 0.859487
O O9 0.926612 0.750000 0.818343
O O10 0.977606 0.579116 0.803745
O O11 0.010347 0.655277 0.902481
O O12 0.750000 0.359097 0.034940
O O13 0.574917 0.490903 0.055099
O O14 0.491646 0.361646 0.986913
O O15 0.750000 0.623985 0.074891
O O16 0.008024 0.618568 0.124134
O O17 0.750000 0.469701 0.358588
O O18 0.500654 0.445630 0.304233
O O19 0.750000 0.353435 0.819979
O O20 0.976881 0.250000 0.805015
O O21 0.973619 0.419245 0.768155
O O22 0.750000 0.975354 0.747504
#
# Coordination Sequence:
#
# PCOD9453525 Si02
#       8
#     8   8   8   8   8   8   8   8
#     4   8  16  33  56  83 115 150 186 224 271 330
#     4   9  18  35  59  83 111 150 190 225 270 331
#     4  10  21  38  60  81 102 137 184 229 275 326
#     4  10  20  34  56  84 113 143 175 217 274 332
#     4  10  20  34  56  84 113 144 178 218 270 332
#     4  11  22  34  55  85 115 146 185 233 280 323
#     4  10  21  38  60  82 106 141 184 230 278 323
#     4  10  22  40  57  76 109 148 188 230 271 324
#
# _framework density 19.753086
#
# number of rings (size 3 to 8) (size 9 to 14) (size 15 to 20)
#    0.000    2.250    1.250    2.250    0.000    4.250 
#    0.000    1.875    0.000    2.625    0.000    0.000 
#    0.000    0.000    0.000    0.000    0.000    0.000 
#
# Total GULP energy -357099.101913 kJ/mol
# GULP energy per Si atom -5579.673467 kJ/mol
# Density = 1.970813 g / cm^3
# Si number density = 19.753086 Si / 1000 Ang^3
#
#
#
# Elastic Constant Matrix: (Units=GPa)
#
#
# Indices 1 2 3 4 5 6 
#
# 1 10.0926 19.5122 6.5671 0.0000 0.0000 0.0000
# 2 19.5122 40.9968 15.8448 0.0000 0.0000 0.0000
# 3 6.5671 15.8448 36.7687 0.0000 0.0000 0.0000
# 4 0.0000 0.0000 0.0000 -3.0880 0.0000 0.0000
# 5 0.0000 0.0000 0.0000 0.0000 14.3220 0.0000
# 6 0.0000 0.0000 0.0000 0.0000 0.0000 8.6727
#
#
#
# Elastic Compliance Matrix: (Units=1/GPa)
#
#
# Indices 1 2 3 4 5 6 
#
# 1 1.290535 -0.630077 0.041021 0.000000 0.000000 0.000000
# 2 -0.630077 0.336888 -0.032640 0.000000 0.000000 0.000000
# 3 0.041021 -0.032640 0.033936 0.000000 0.000000 0.000000
# 4 0.000000 0.000000 0.000000 -0.323838 0.000000 0.000000
# 5 0.000000 0.000000 0.000000 0.000000 0.069823 0.000000
# 6 0.000000 0.000000 0.000000 0.000000 0.000000 0.115304
#
#
# Mechanical properties :
#
#
# Convention : Reuss Voigt Hill
#
# Bulk Modulus (GPa) = 2.39252 19.07848 10.73550
# Shear Modulus (GPa) = 1.72096 7.04361 4.38228
#
# Velocity S-wave (km/s) = 0.93441 1.89039 1.49109
# Velocity P-wave (km/s) = 1.54208 3.80055 2.90019
#
# Compressibility (1/GPa) = 0.41796872
#
# Stress axis : x y z
#
# Youngs Moduli (GPa) = 0.77487 2.96834 29.46739
#
# Poissons Ratio (x) = 1.87028 -1.20879
# Poissons Ratio (y) = 0.48823 0.96180
# Poissons Ratio (z) = -0.03179 0.09689
#
# Static dielectric constant tensor:
#      x y z
#    x 1.653100 0.000000 0.000000 
#    y 0.000000 1.751840 0.000000 
#    z 0.000000 0.000000 1.637140 
# 
# From -- ./inp_files/31521.got.cif
#   From: 2010.05.17/outbox.ucp.g08.bks.cvg/sg59_16_cif.got.tgz:31521.got - 2010.06.11 16:43:56.
