data_PCOD9453659
_publ_section_title
;
Structure prediction by ZEFSAII (Michael W. Deem and Ramdas Pophale) SiO2 
 PCOD9453659
Probable space group: P M M N
;
_chemical_formula_sum "Si O2"
_cell_formula_units_Z 56
_cell_length_a 9.000000
_cell_length_b 21.000000
_cell_length_c 15.000000
_cell_angle_alpha 90.000000
_cell_angle_beta 90.000000
_cell_angle_gamma 90.000000
_cell_volume 2835.000000
_symmetry_space_group_name_H-M "P M M N"
_symmetry_group_IT_number 59
_space_group.IT_coordinate_system_code '2'
_symmetry_cell_setting 'orthorhombic'
loop_
_space_group_symop_operation_xyz
x,y,z
1/2-x,1/2-y,z
1/2+x,-y,-z
-x,1/2+y,-z
-x,-y,-z
1/2+x,1/2+y,-z
1/2-x,y,z
x,1/2-y,z
loop_
_atom_site_type_symbol
_atom_site_label
_atom_site_fract_x
_atom_site_fract_y
_atom_site_fract_z
Si Si1 0.426359 0.544808 0.659472
Si Si2 0.069375 0.824672 0.124861
Si Si3 0.925441 0.067451 0.016994
Si Si4 0.928267 0.750000 0.777297
Si Si5 0.921787 0.371812 0.502643
Si Si6 0.073253 0.250000 0.422813
Si Si7 0.575012 0.411796 0.705536
Si Si8 0.073870 0.386632 0.186650
O O1 0.250000 0.550693 0.676146
O O2 0.452145 0.564718 0.556233
O O3 0.482309 0.476700 0.695058
O O4 0.524456 0.594972 0.714653
O O5 0.250000 0.821852 0.122712
O O6 0.018761 0.750000 0.120714
O O7 0.022217 0.872870 0.044868
O O8 0.029608 0.862575 0.216466
O O9 0.750000 0.062488 0.003477
O O10 0.970245 0.077763 0.118547
O O11 0.000000 0.000000 0.000000
O O12 0.750000 0.750000 0.767377
O O13 0.990376 0.750000 0.677675
O O14 0.964703 0.813312 0.828178
O O15 0.750000 0.355232 0.484368
O O16 0.937202 0.381436 0.607732
O O17 0.020142 0.313511 0.470982
O O18 0.250000 0.250000 0.419090
O O19 0.750000 0.427983 0.721448
O O20 0.250000 0.397999 0.173860
#
# Coordination Sequence:
#
# PCOD9453659 Si02
#       8
#     8   8   8   4   8   4   8   8
#     4  11  22  37  57  88 126 157 195 250 305 358
#     4   9  20  39  62  88 117 153 201 252 298 355
#     4  11  23  40  64  94 124 157 200 251 309 367
#     4   9  20  37  57  84 115 154 198 245 301 361
#     4  10  22  37  57  88 121 158 203 251 300 357
#     4  11  21  37  59  84 117 160 202 249 303 361
#     4  10  21  38  63  87 114 159 206 246 299 359
#     4  11  22  39  62  87 119 157 200 243 299 368
#
# _framework density 19.753086
#
# number of rings (size 3 to 8) (size 9 to 14) (size 15 to 20)
#    0.000    1.714    1.429    2.786    2.000    2.286 
#    0.000    1.786    0.000    1.714    0.000    0.000 
#    0.000    0.000    0.000    0.000    0.000    0.000 
#
# Total GULP energy -312184.710751 kJ/mol
# GULP energy per Si atom -5574.726978 kJ/mol
# Density = 1.970813 g / cm^3
# Si number density = 19.753086 Si / 1000 Ang^3
#
#
#
# Elastic Constant Matrix: (Units=GPa)
#
#
# Indices 1 2 3 4 5 6 
#
# 1 31.9104 39.4852 20.8424 0.0000 0.0000 0.0000
# 2 39.4852 88.5039 -0.8913 0.0000 0.0000 0.0000
# 3 20.8424 -0.8913 59.3481 0.0000 0.0000 0.0000
# 4 0.0000 0.0000 0.0000 -2.2182 0.0000 0.0000
# 5 0.0000 0.0000 0.0000 0.0000 16.8196 0.0000
# 6 0.0000 0.0000 0.0000 0.0000 0.0000 31.3346
#
#
#
# Elastic Compliance Matrix: (Units=1/GPa)
#
#
# Indices 1 2 3 4 5 6 
#
# 1 0.149438 -0.067209 -0.053490 0.000000 0.000000 0.000000
# 2 -0.067209 0.041528 0.024227 0.000000 0.000000 0.000000
# 3 -0.053490 0.024227 0.035999 0.000000 0.000000 0.000000
# 4 0.000000 0.000000 0.000000 -0.450807 0.000000 0.000000
# 5 0.000000 0.000000 0.000000 0.000000 0.059454 0.000000
# 6 0.000000 0.000000 0.000000 0.000000 0.000000 0.031914
#
#
# Mechanical properties :
#
#
# Convention : Reuss Voigt Hill
#
# Bulk Modulus (GPa) = 29.39526 33.18168 31.28847
# Shear Modulus (GPa) = 69.62799 17.20894 43.41846
#
# Velocity S-wave (km/s) = 5.94354 2.95482 4.69343
# Velocity P-wave (km/s) = 7.87493 5.33629 6.72646
#
# Compressibility (1/GPa) = 0.03401909
#
# Stress axis : x y z
#
# Youngs Moduli (GPa) = 6.69175 24.08042 27.77868
#
# Poissons Ratio (x) = 1.61842 1.48589
# Poissons Ratio (y) = 0.44975 -0.67299
# Poissons Ratio (z) = 0.35794 -0.58339
#
# Static dielectric constant tensor:
#      x y z
#    x 1.663550 0.000000 0.000000 
#    y 0.000000 1.902150 0.000000 
#    z 0.000000 0.000000 1.818400 
# 
# From -- ./inp_files/21128.got.cif
#   From: 2010.05.17/outbox.ucp.g08.bks.cvg/sg59_11_cif.got.tgz:21128.got - 2010.06.11 16:43:56.
