data_PCOD9453252
_publ_section_title
;
Structure prediction by ZEFSAII (Michael W. Deem and Ramdas Pophale) SiO2 
 PCOD9453252
Probable space group: P M M N
;
_chemical_formula_sum "Si O2"
_cell_formula_units_Z 64
_cell_length_a 14.299086
_cell_length_b 7.290745
_cell_length_c 24.229095
_cell_angle_alpha 90.000000
_cell_angle_beta 90.000000
_cell_angle_gamma 90.000000
_cell_volume 2525.907135
_symmetry_space_group_name_H-M "P M M N"
_symmetry_group_IT_number 59
_space_group.IT_coordinate_system_code '2'
_symmetry_cell_setting 'orthorhombic'
loop_
_space_group_symop_operation_xyz
x,y,z
1/2-x,1/2-y,z
1/2+x,-y,-z
-x,1/2+y,-z
-x,-y,-z
1/2+x,1/2+y,-z
1/2-x,y,z
x,1/2-y,z
loop_
_atom_site_type_symbol
_atom_site_label
_atom_site_fract_x
_atom_site_fract_y
_atom_site_fract_z
Si Si1 0.354762 0.038412 0.157010
Si Si2 0.545765 0.025724 0.197245
Si Si3 0.859513 0.027201 0.084858
Si Si4 0.150529 0.461282 0.328066
Si Si5 0.393105 0.972429 0.450166
Si Si6 0.937279 0.025548 0.315911
Si Si7 0.861367 0.469091 0.966200
Si Si8 0.111303 0.541109 0.568142
O O1 0.250000 0.957602 0.158474
O O2 0.345241 0.250000 0.172519
O O3 0.437742 0.962553 0.194161
O O4 0.392230 0.036957 0.093594
O O5 0.545056 0.250000 0.196154
O O6 0.593877 0.963236 0.141025
O O7 0.594617 0.974517 0.254596
O O8 0.750000 0.980280 0.086362
O O9 0.865006 0.250000 0.084129
O O10 0.899594 0.964796 0.025356
O O11 0.250000 0.538803 0.306712
O O12 0.147535 0.250000 0.309294
O O13 0.155748 0.467031 0.394515
O O14 0.046299 0.536029 0.317967
O O15 0.393302 0.750000 0.451357
O O16 0.355382 0.037059 0.509568
O O17 0.499256 0.040247 0.441905
O O18 0.937766 0.250000 0.319823
O O19 0.881401 0.961244 0.370204
O O20 0.750000 0.512562 0.967578
O O21 0.870189 0.250000 0.964530
O O22 0.145123 0.750000 0.570915
#
# Coordination Sequence:
#
# PCOD9453252 Si02
#       8
#     8   8   8   8   8   8   8   8
#     4   9  17  27  39  60  89 114 137 170 211 252
#     4   9  16  25  40  62  85 110 142 179 213 246
#     4   8  14  25  41  61  83 106 136 175 216 257
#     4   9  17  28  41  58  82 111 141 172 205 246
#     4   9  15  23  39  61  81 102 131 168 208 246
#     4   8  14  25  40  57  77 104 139 171 199 239
#     4   8  14  26  43  60  80 109 142 173 208 253
#     4   8  14  25  40  58  80 104 130 163 203 246
#
# _framework density 25.337433000000001
#
# number of rings (size 3 to 8) (size 9 to 14) (size 15 to 20)
#    0.000    3.500    0.000    1.875    0.000    1.750 
#    0.000    2.500    0.000    3.750    0.000    7.000 
#    0.000    0.000    0.000    0.000    0.000    0.000 
#
# Total GULP energy -356906.039986 kJ/mol
# GULP energy per Si atom -5576.656875 kJ/mol
# Density = 2.527976 g / cm^3
# Si number density = 25.337433 Si / 1000 Ang^3
#
#
#
# Elastic Constant Matrix: (Units=GPa)
#
#
# Indices 1 2 3 4 5 6 
#
# 1 46.0932 -6.4704 18.8657 0.0000 0.0000 0.0000
# 2 -6.4704 110.7104 4.6649 0.0000 0.0000 0.0000
# 3 18.8657 4.6649 210.8023 0.0000 0.0000 0.0000
# 4 0.0000 0.0000 0.0000 4.2792 0.0000 0.0000
# 5 0.0000 0.0000 0.0000 0.0000-6325.6556 0.0000
# 6 0.0000 0.0000 0.0000 0.0000 0.0000 -13.3672
#
#
#
# Elastic Compliance Matrix: (Units=1/GPa)
#
#
# Indices 1 2 3 4 5 6 
#
# 1 0.022740 0.001416 -0.002066 0.000000 0.000000 0.000000
# 2 0.001416 0.009129 -0.000329 0.000000 0.000000 0.000000
# 3 -0.002066 -0.000329 0.004936 0.000000 0.000000 0.000000
# 4 0.000000 0.000000 0.000000 0.233689 0.000000 0.000000
# 5 0.000000 0.000000 0.000000 0.000000 -0.000158 0.000000
# 6 0.000000 0.000000 0.000000 0.000000 0.000000 -0.074810
#
#
# Mechanical properties :
#
#
# Convention : Reuss Voigt Hill
#
# Bulk Modulus (GPa) = 28.69713 44.63626 36.66670
# Shear Modulus (GPa) = 23.91199 -1243.57902 -609.83352
#
# Velocity S-wave (km/s) = 3.07537 -22.17820 -15.53085
# Velocity P-wave (km/s) = 4.89501 25.26213 17.52447
#
# Compressibility (1/GPa) = 0.03484669
#
# Stress axis : x y z
#
# Youngs Moduli (GPa) = 43.97591 109.53874 202.59356
#
# Poissons Ratio (x) = -0.15511 0.41864
# Poissons Ratio (y) = -0.06227 0.06660
# Poissons Ratio (z) = 0.09087 0.03601
#
# Static dielectric constant tensor:
#      x y z
#    x 2.013810 0.000000 0.000000 
#    y 0.000000 1.979280 0.000000 
#    z 0.000000 0.000000 2.031220 
# 
# From -- ./inp_files/32286.got.cif
#   From: 2010.05.17/outbox.cif.g08.bks.cpg/sg59_17_cif.got.tgz:32286.got - 2010.06.03 14:40:33.
