data_PCOD9453816
_publ_section_title
;
Structure prediction by ZEFSAII (Michael W. Deem and Ramdas Pophale) SiO2 
 PCOD9453816
Probable space group: P B C N
;
_chemical_formula_sum "Si O2"
_cell_formula_units_Z 60
_cell_length_a 34.531011
_cell_length_b 17.810985
_cell_length_c 5.280739
_cell_angle_alpha 90.000000
_cell_angle_beta 90.000000
_cell_angle_gamma 90.000000
_cell_volume 3247.819872
_symmetry_space_group_name_H-M "P B C N"
_symmetry_group_IT_number 60
_symmetry_cell_setting 'orthorhombic'
loop_
_space_group_symop_operation_xyz
x,y,z
1/2-x,1/2-y,1/2+z
1/2+x,1/2-y,-z
-x,y,1/2-z
-x,-y,-z
1/2+x,1/2+y,1/2-z
1/2-x,1/2+y,z
x,-y,1/2+z
loop_
_atom_site_type_symbol
_atom_site_label
_atom_site_fract_x
_atom_site_fract_y
_atom_site_fract_z
Si Si1 0.641813 0.264379 0.198408
Si Si2 0.936776 0.175931 0.793045
Si Si3 0.786327 0.454577 0.775836
Si Si4 0.956297 0.730580 0.793650
Si Si5 0.772093 0.274700 0.795858
Si Si6 0.000000 0.950272 0.250000
Si Si7 0.877291 0.679060 0.698941
Si Si8 0.371220 0.017267 0.721372
O O1 0.609800 0.328682 0.254327
O O2 0.687251 0.268668 0.250882
O O3 0.628718 0.202821 0.409819
O O4 0.636605 0.239258 0.906950
O O5 0.950862 0.232924 0.571074
O O6 0.961970 0.102060 0.754620
O O7 0.946327 0.208541 0.071990
O O8 0.772668 0.499266 0.524404
O O9 0.777387 0.365675 0.780664
O O10 0.833144 0.464982 0.774685
O O11 0.922832 0.669642 0.753679
O O12 0.000000 0.706070 0.750000
O O13 0.744025 0.248003 0.570314
O O14 0.000000 0.000000 0.500000
O O15 0.856573 0.602046 0.764228
O O16 0.394180 0.001028 0.471166
#
# Coordination Sequence:
#
# PCOD9453816 Si02
#       8
#     8   8   8   8   8   4   8   8
#     4  10  20  36  56  80 111 144 181 233 292 337
#     4  10  20  34  55  79 110 144 183 226 282 339
#     4  10  19  34  57  79 109 144 185 237 288 340
#     4  10  17  31  53  78 114 141 177 226 268 332
#     4  12  24  38  59  89 121 150 194 255 302 350
#     4  12  22  34  56  84 114 146 190 240 288 334
#     4  10  19  31  54  84 106 144 184 226 272 325
#     4  10  18  29  48  73 104 134 174 223 261 316
#
# _framework density 18.473929999999999
#
# number of rings (size 3 to 8) (size 9 to 14) (size 15 to 20)
#    0.000    1.600    1.333    6.400    0.000    0.000 
#    0.000    0.000    0.000    5.600    0.000    0.000 
#    0.000    0.000    0.000    0.000    0.000    0.000 
#
# Total GULP energy -334275.446974 kJ/mol
# GULP energy per Si atom -5571.257450 kJ/mol
# Density = 1.843188 g / cm^3
# Si number density = 18.473930 Si / 1000 Ang^3
#
#
#
# Elastic Constant Matrix: (Units=GPa)
#
#
# Indices 1 2 3 4 5 6 
#
# 1 74.8758 14.1411 -11.4095 0.0000 0.0000 0.0000
# 2 14.1411 85.1625 20.6332 0.0000 0.0000 0.0000
# 3 -11.4095 20.6332 116.0150 0.0000 0.0000 0.0000
# 4 0.0000 0.0000 0.0000 27.3654 0.0000 0.0000
# 5 0.0000 0.0000 0.0000 0.0000 23.3149 0.0000
# 6 0.0000 0.0000 0.0000 0.0000 0.0000 20.5639
#
#
#
# Elastic Compliance Matrix: (Units=1/GPa)
#
#
# Indices 1 2 3 4 5 6 
#
# 1 0.014175 -0.002813 0.001894 0.000000 0.000000 0.000000
# 2 -0.002813 0.012829 -0.002558 0.000000 0.000000 0.000000
# 3 0.001894 -0.002558 0.009261 0.000000 0.000000 0.000000
# 4 0.000000 0.000000 0.000000 0.036542 0.000000 0.000000
# 5 0.000000 0.000000 0.000000 0.000000 0.042891 0.000000
# 6 0.000000 0.000000 0.000000 0.000000 0.000000 0.048629
#
#
# Mechanical properties :
#
#
# Convention : Reuss Voigt Hill
#
# Bulk Modulus (GPa) = 34.11583 35.86477 34.99030
# Shear Modulus (GPa) = 27.61643 31.09476 29.35560
#
# Velocity S-wave (km/s) = 3.87057 4.10710 3.99059
# Velocity P-wave (km/s) = 6.20340 6.47664 6.34149
#
# Compressibility (1/GPa) = 0.02931190
#
# Stress axis : x y z
#
# Youngs Moduli (GPa) = 70.54515 77.94764 107.98133
#
# Poissons Ratio (x) = 0.21925 -0.20455
# Poissons Ratio (y) = 0.19843 0.27625
# Poissons Ratio (z) = -0.13364 0.19941
#
# Static dielectric constant tensor:
#      x y z
#    x 1.667720 0.000000 0.000000 
#    y 0.000000 1.632690 0.000000 
#    z 0.000000 0.000000 1.718100 
# 
# From -- ./inp_files/2730.got.cif
#   From: 2010.05.17/outbox.cif.g08.bks.cpg/sg60_2_cif.got.tgz:2730.got - 2010.06.03 14:59:27.
