data_PCOD9453783
_publ_section_title
;
Structure prediction by ZEFSAII (Michael W. Deem and Ramdas Pophale) SiO2 
 PCOD9453783
Probable space group: P B C N
;
_chemical_formula_sum "Si O2"
_cell_formula_units_Z 48
_cell_length_a 22.956826
_cell_length_b 7.153640
_cell_length_c 11.626448
_cell_angle_alpha 90.000000
_cell_angle_beta 90.000000
_cell_angle_gamma 90.000000
_cell_volume 1909.351897
_symmetry_space_group_name_H-M "P B C N"
_symmetry_group_IT_number 60
_symmetry_cell_setting 'orthorhombic'
loop_
_space_group_symop_operation_xyz
x,y,z
1/2-x,1/2-y,1/2+z
1/2+x,1/2-y,-z
-x,y,1/2-z
-x,-y,-z
1/2+x,1/2+y,1/2-z
1/2-x,1/2+y,z
x,-y,1/2+z
loop_
_atom_site_type_symbol
_atom_site_label
_atom_site_fract_x
_atom_site_fract_y
_atom_site_fract_z
Si Si1 0.281619 0.553835 0.590416
Si Si2 0.072334 0.231907 0.998704
Si Si3 0.351428 0.265335 0.885368
Si Si4 0.336135 0.151845 0.647937
Si Si5 0.865573 0.839143 0.222809
Si Si6 0.057025 0.211326 0.563385
O O1 0.304123 0.649409 0.473513
O O2 0.312231 0.354637 0.606889
O O3 0.212722 0.525126 0.589870
O O4 0.305289 0.662629 0.705121
O O5 0.097744 0.348518 0.105127
O O6 0.064801 0.013439 0.037675
O O7 0.120999 0.253149 0.899121
O O8 0.008959 0.274944 0.948820
O O9 0.330974 0.129089 0.784949
O O10 0.374587 0.442742 0.810876
O O11 0.403654 0.195960 0.964606
O O12 0.913404 0.768335 0.313120
#
# Coordination Sequence:
#
# PCOD9453783 Si02
#       6
#     8   8   8   8   8   8
#     4  10  21  33  49  69 103 138 168 209 241 296
#     4  10  17  26  46  73 102 124 161 206 256 300
#     4   9  17  32  47  69 103 127 167 203 254 301
#     4  11  21  33  49  74 102 137 169 203 251 294
#     4   9  15  31  44  71  99 131 162 199 250 300
#     4   9  16  27  46  71 103 127 153 206 268 294
#
# _framework density 25.139420000000001
#
# number of rings (size 3 to 8) (size 9 to 14) (size 15 to 20)
#    0.000    2.333    6.667    0.500    2.333    0.667 
#    0.000    0.000    0.000    0.000    0.000    4.667 
#   10.000    0.000    1.000    0.000    0.000    0.000 
#
# Total GULP energy -268164.906220 kJ/mol
# GULP energy per Si atom -5586.768880 kJ/mol
# Density = 2.508220 g / cm^3
# Si number density = 25.139420 Si / 1000 Ang^3
#
#
#
# Elastic Constant Matrix: (Units=GPa)
#
#
# Indices 1 2 3 4 5 6 
#
# 1 90.8475 13.0524 20.5295 0.0000 0.0000 0.0000
# 2 13.0524 69.5940 19.5741 0.0000 0.0000 0.0000
# 3 20.5295 19.5741 142.5051 0.0000 0.0000 0.0000
# 4 0.0000 0.0000 0.0000 15.5176 0.0000 0.0000
# 5 0.0000 0.0000 0.0000 0.0000 23.0055 0.0000
# 6 0.0000 0.0000 0.0000 0.0000 0.0000 13.4932
#
#
#
# Elastic Compliance Matrix: (Units=1/GPa)
#
#
# Indices 1 2 3 4 5 6 
#
# 1 0.011584 -0.001772 -0.001425 0.000000 0.000000 0.000000
# 2 -0.001772 0.015217 -0.001835 0.000000 0.000000 0.000000
# 3 -0.001425 -0.001835 0.007475 0.000000 0.000000 0.000000
# 4 0.000000 0.000000 0.000000 0.064443 0.000000 0.000000
# 5 0.000000 0.000000 0.000000 0.000000 0.043468 0.000000
# 6 0.000000 0.000000 0.000000 0.000000 0.000000 0.074111
#
#
# Mechanical properties :
#
#
# Convention : Reuss Voigt Hill
#
# Bulk Modulus (GPa) = 41.30188 45.47317 43.38753
# Shear Modulus (GPa) = 21.32799 27.05595 24.19197
#
# Velocity S-wave (km/s) = 2.91587 3.28416 3.10548
# Velocity P-wave (km/s) = 5.27268 5.70163 5.49135
#
# Compressibility (1/GPa) = 0.02421197
#
# Stress axis : x y z
#
# Youngs Moduli (GPa) = 86.32499 65.71407 133.78464
#
# Poissons Ratio (x) = 0.11642 0.19071
# Poissons Ratio (y) = 0.15294 0.24549
# Poissons Ratio (z) = 0.12305 0.12058
#
# Static dielectric constant tensor:
#      x y z
#    x 1.989440 0.000000 0.000000 
#    y 0.000000 2.117510 0.000000 
#    z 0.000000 0.000000 1.982750 
# 
# From -- ./inp_files/12803.got.cif
#   From: 2010.05.17/outbox.cif.g08.bks.cpg/sg60_7_cif.got.tgz:12803.got - 2010.06.03 14:59:27.
