data_PCOD9453249
_publ_section_title
;
Structure prediction by ZEFSAII (Michael W. Deem and Ramdas Pophale) SiO2 
 PCOD9453249
Probable space group: P M M N
;
_chemical_formula_sum "Si O2"
_cell_formula_units_Z 48
_cell_length_a 7.445593
_cell_length_b 14.508823
_cell_length_c 18.541447
_cell_angle_alpha 90.000000
_cell_angle_beta 90.000000
_cell_angle_gamma 90.000000
_cell_volume 2002.973019
_symmetry_space_group_name_H-M "P M M N"
_symmetry_group_IT_number 59
_space_group.IT_coordinate_system_code '2'
_symmetry_cell_setting 'orthorhombic'
loop_
_space_group_symop_operation_xyz
x,y,z
1/2-x,1/2-y,z
1/2+x,-y,-z
-x,1/2+y,-z
-x,-y,-z
1/2+x,1/2+y,-z
1/2-x,y,z
x,1/2-y,z
loop_
_atom_site_type_symbol
_atom_site_label
_atom_site_fract_x
_atom_site_fract_y
_atom_site_fract_z
Si Si1 0.045016 0.848341 0.141650
Si Si2 0.537200 0.892615 0.984898
Si Si3 0.962009 0.949318 0.677502
Si Si4 0.970012 0.151925 0.632131
Si Si5 0.529935 0.942505 0.833133
Si Si6 0.960301 0.395080 0.477434
O O1 0.250000 0.849483 0.169455
O O2 0.963473 0.750000 0.164471
O O3 0.970260 0.949616 0.160597
O O4 0.047716 0.846485 0.054467
O O5 0.750000 0.872843 0.987963
O O6 0.472441 0.882860 0.902455
O O7 0.500000 0.000000 0.000000
O O8 0.750000 0.960891 0.686450
O O9 0.032735 0.053935 0.663960
O O10 0.027044 0.910584 0.753820
O O11 0.982759 0.888426 0.605542
O O12 0.750000 0.148372 0.632633
O O13 0.021354 0.250000 0.666177
O O14 0.031208 0.154760 0.548437
O O15 0.750000 0.943621 0.838693
O O16 0.750000 0.376825 0.476337
O O17 0.000000 0.500000 0.500000
#
# Coordination Sequence:
#
# PCOD9453249 Si02
#       6
#     8   8   8   8   8   8
#     4   9  17  29  45  66  91 116 144 181 223 265
#     4   9  16  28  45  63  85 115 151 184 215 258
#     4   9  16  27  44  64  86 110 138 174 213 256
#     4   8  14  24  40  62  83 104 133 168 204 244
#     4   8  15  27  43  64  87 112 140 172 214 260
#     4   9  16  27  43  61  82 110 143 176 208 247
#
# _framework density 23.964376999999999
#
# number of rings (size 3 to 8) (size 9 to 14) (size 15 to 20)
#    0.000    3.333    0.000    3.000    0.000    1.000 
#    0.000    7.500    0.000   13.500    0.000    4.667 
#    0.000    0.000    0.000    0.000    0.000    0.000 
#
# Total GULP energy -267217.163652 kJ/mol
# GULP energy per Si atom -5567.024243 kJ/mol
# Density = 2.390983 g / cm^3
# Si number density = 23.964377 Si / 1000 Ang^3
#
#
#
# Elastic Constant Matrix: (Units=GPa)
#
#
# Indices 1 2 3 4 5 6 
#
# 1 71.2441 -6.6101 -1.0580 0.0000 0.0000 0.0000
# 2 -6.6101 31.4598 -12.1006 0.0000 0.0000 0.0000
# 3 -1.0580 -12.1006 182.6764 0.0000 0.0000 0.0000
# 4 0.0000 0.0000 0.0000 -1.8640 0.0000 0.0000
# 5 0.0000 0.0000 0.0000 0.0000 11.9607 0.0000
# 6 0.0000 0.0000 0.0000 0.0000 0.0000 -4.2645
#
#
#
# Elastic Compliance Matrix: (Units=1/GPa)
#
#
# Indices 1 2 3 4 5 6 
#
# 1 0.014330 0.003122 0.000290 0.000000 0.000000 0.000000
# 2 0.003122 0.033298 0.002224 0.000000 0.000000 0.000000
# 3 0.000290 0.002224 0.005623 0.000000 0.000000 0.000000
# 4 0.000000 0.000000 0.000000 -0.536470 0.000000 0.000000
# 5 0.000000 0.000000 0.000000 0.000000 0.083607 0.000000
# 6 0.000000 0.000000 0.000000 0.000000 0.000000 -0.234497
#
#
# Mechanical properties :
#
#
# Convention : Reuss Voigt Hill
#
# Bulk Modulus (GPa) = 15.49822 27.31586 21.40704
# Shear Modulus (GPa) = -8.01446 21.50971 6.74762
#
# Velocity S-wave (km/s) = -1.83073 2.99920 1.67982
# Velocity P-wave (km/s) = 1.41861 4.83910 3.56576
#
# Compressibility (1/GPa) = 0.06452353
#
# Stress axis : x y z
#
# Youngs Moduli (GPa) = 69.78241 30.03181 177.83645
#
# Poissons Ratio (x) = -0.09377 -0.05154
# Poissons Ratio (y) = -0.21789 -0.39547
# Poissons Ratio (z) = -0.02023 -0.06678
#
# Static dielectric constant tensor:
#      x y z
#    x 1.933700 0.000000 0.000000 
#    y 0.000000 1.912290 0.000000 
#    z 0.000000 0.000000 1.982960 
# 
# From -- ./inp_files/25749.got.cif
#   From: 2010.05.17/outbox.cif.g08.bks.cpg/sg59_13_cif.got.tgz:25749.got - 2010.06.03 14:40:33.
