data_PCOD9453975
_publ_section_title
;
Structure prediction by ZEFSAII (Michael W. Deem and Ramdas Pophale) SiO2 
 PCOD9453975
Probable space group: P B C N
;
_chemical_formula_sum "Si O2"
_cell_formula_units_Z 52
_cell_length_a 8.968704
_cell_length_b 17.375829
_cell_length_c 18.561400
_cell_angle_alpha 90.000000
_cell_angle_beta 90.000000
_cell_angle_gamma 90.000000
_cell_volume 2892.583835
_symmetry_space_group_name_H-M "P B C N"
_symmetry_group_IT_number 60
_symmetry_cell_setting 'orthorhombic'
loop_
_space_group_symop_operation_xyz
x,y,z
1/2-x,1/2-y,1/2+z
1/2+x,1/2-y,-z
-x,y,1/2-z
-x,-y,-z
1/2+x,1/2+y,1/2-z
1/2-x,1/2+y,z
x,-y,1/2+z
loop_
_atom_site_type_symbol
_atom_site_label
_atom_site_fract_x
_atom_site_fract_y
_atom_site_fract_z
Si Si1 0.785116 0.744686 0.366132
Si Si2 0.445090 0.115155 0.042135
Si Si3 0.578527 0.356513 0.483913
Si Si4 0.182538 0.124418 0.877269
Si Si5 0.462307 0.225668 0.907857
Si Si6 0.000000 0.193866 0.750000
Si Si7 0.222348 0.516658 0.452797
O O1 0.845998 0.666970 0.404475
O O2 0.830663 0.813052 0.421405
O O3 0.607368 0.754475 0.361051
O O4 0.876577 0.756946 0.292914
O O5 0.595415 0.076706 0.071804
O O6 0.497649 0.170744 0.976795
O O7 0.351775 0.045236 0.007428
O O8 0.412086 0.358032 0.450460
O O9 0.587356 0.304656 0.554953
O O10 0.648663 0.437799 0.505287
O O11 0.325900 0.179839 0.872311
O O12 0.080285 0.142331 0.809733
O O13 0.225113 0.035652 0.886560
#
# Coordination Sequence:
#
# PCOD9453975 Si02
#       7
#     8   8   8   8   8   4   8
#     4  10  20  36  58  78 117 147 197 232 277 343
#     4   9  19  32  57  93 118 140 178 242 306 343
#     4  10  18  31  58  91 114 143 174 244 293 338
#     4  10  22  35  55  82 118 151 193 229 286 347
#     4  10  18  33  58  90 106 144 187 242 292 339
#     4  10  24  40  56  74 110 164 202 230 268 342
#     4  10  18  32  58  89 121 140 180 239 309 340
#
# _framework density 17.977005999999999
#
# number of rings (size 3 to 8) (size 9 to 14) (size 15 to 20)
#    0.000    2.154    1.538    3.231    4.308    0.615 
#    0.000    0.000   10.154    0.000    0.000    0.000 
#    0.000    0.000    0.000    0.000    0.000    0.000 
#
# Total GULP energy -289756.885808 kJ/mol
# GULP energy per Si atom -5572.247804 kJ/mol
# Density = 1.793609 g / cm^3
# Si number density = 17.977006 Si / 1000 Ang^3
#
#
#
# Elastic Constant Matrix: (Units=GPa)
#
#
# Indices 1 2 3 4 5 6 
#
# 1 107.6338 46.3651 35.4735 0.0000 0.0000 0.0000
# 2 46.3651 98.3644 31.5293 0.0000 0.0000 0.0000
# 3 35.4735 31.5293 59.1702 0.0000 0.0000 0.0000
# 4 0.0000 0.0000 0.0000 12.2918 0.0000 0.0000
# 5 0.0000 0.0000 0.0000 0.0000 15.1440 0.0000
# 6 0.0000 0.0000 0.0000 0.0000 0.0000 29.8734
#
#
#
# Elastic Compliance Matrix: (Units=1/GPa)
#
#
# Indices 1 2 3 4 5 6 
#
# 1 0.012967 -0.004366 -0.005447 0.000000 0.000000 0.000000
# 2 -0.004366 0.013730 -0.004699 0.000000 0.000000 0.000000
# 3 -0.005447 -0.004699 0.022670 0.000000 0.000000 0.000000
# 4 0.000000 0.000000 0.000000 0.081355 0.000000 0.000000
# 5 0.000000 0.000000 0.000000 0.000000 0.066033 0.000000
# 6 0.000000 0.000000 0.000000 0.000000 0.000000 0.033475
#
#
# Mechanical properties :
#
#
# Convention : Reuss Voigt Hill
#
# Bulk Modulus (GPa) = 49.15750 54.65603 51.90677
# Shear Modulus (GPa) = 18.79452 21.58187 20.18819
#
# Velocity S-wave (km/s) = 3.23689 3.46862 3.35476
# Velocity P-wave (km/s) = 6.43226 6.81990 6.62891
#
# Compressibility (1/GPa) = 0.02034277
#
# Stress axis : x y z
#
# Youngs Moduli (GPa) = 77.12003 72.83117 44.11116
#
# Poissons Ratio (x) = 0.31798 0.24029
# Poissons Ratio (y) = 0.33670 0.20727
# Poissons Ratio (z) = 0.42010 0.34222
#
# Static dielectric constant tensor:
#      x y z
#    x 1.689030 0.000000 0.000000 
#    y 0.000000 1.629410 0.000000 
#    z 0.000000 0.000000 1.589690 
# 
# From -- ./inp_files/19528.got.cif
#   From: 2010.05.17/outbox.cif.g08.bks.cpg/sg60_10_cif.got.tgz:19528.got - 2010.06.03 14:59:27.
