data_PCOD9453995
_publ_section_title
;
Structure prediction by ZEFSAII (Michael W. Deem and Ramdas Pophale) SiO2 
 PCOD9453995
Probable space group: P B C N
;
_chemical_formula_sum "Si O2"
_cell_formula_units_Z 56
_cell_length_a 6.952313
_cell_length_b 17.478435
_cell_length_c 18.022042
_cell_angle_alpha 90.000000
_cell_angle_beta 90.000000
_cell_angle_gamma 90.000000
_cell_volume 2189.958361
_symmetry_space_group_name_H-M "P B C N"
_symmetry_group_IT_number 60
_symmetry_cell_setting 'orthorhombic'
loop_
_space_group_symop_operation_xyz
x,y,z
1/2-x,1/2-y,1/2+z
1/2+x,1/2-y,-z
-x,y,1/2-z
-x,-y,-z
1/2+x,1/2+y,1/2-z
1/2-x,1/2+y,z
x,-y,1/2+z
loop_
_atom_site_type_symbol
_atom_site_label
_atom_site_fract_x
_atom_site_fract_y
_atom_site_fract_z
Si Si1 0.000000 0.252658 0.250000
Si Si2 0.969278 0.911094 0.166979
Si Si3 0.133574 0.979597 0.570335
Si Si4 0.379955 0.717005 0.491494
Si Si5 0.662231 0.736121 0.840453
Si Si6 0.179026 0.125158 0.356104
Si Si7 0.500000 0.874611 0.750000
Si Si8 0.769109 0.625143 0.536852
O O1 0.837805 0.297490 0.293489
O O2 0.902557 0.196474 0.190244
O O3 0.782350 0.919189 0.113365
O O4 0.000000 0.941052 0.250000
O O5 0.983628 0.819519 0.171299
O O6 0.148782 0.943293 0.117660
O O7 0.305897 0.933898 0.531078
O O8 0.000612 0.928925 0.624999
O O9 0.000000 0.000000 0.500000
O O10 0.301981 0.736925 0.572823
O O11 0.259465 0.664068 0.434373
O O12 0.569448 0.667028 0.509817
O O13 0.403709 0.801383 0.455579
O O14 0.613318 0.818697 0.807016
O O15 0.342078 0.087471 0.303966
#
# Coordination Sequence:
#
# PCOD9453995 Si02
#       8
#     4   8   8   8   8   8   4   8
#     4  10  22  32  53  91 124 134 186 254 298 334
#     4  10  19  32  54  78 107 151 191 223 274 342
#     4   9  19  35  53  82 108 146 201 235 265 344
#     4  10  18  32  54  80 111 141 180 228 292 338
#     4  10  19  34  53  87 113 153 189 238 297 353
#     4  10  20  35  56  87 117 152 188 246 295 351
#     4  10  20  34  55  87 122 146 190 246 314 356
#     4   9  19  33  55  85 105 139 187 234 279 338
#
# _framework density 25.571263999999999
#
# number of rings (size 3 to 8) (size 9 to 14) (size 15 to 20)
#    0.000    2.286    0.714    4.286    3.000    0.000 
#    0.000    0.000    0.000    0.857    7.429   17.000 
#    0.000    0.000    0.000    0.000    0.000    0.000 
#
# Total GULP energy -312261.867205 kJ/mol
# GULP energy per Si atom -5576.104772 kJ/mol
# Density = 2.551306 g / cm^3
# Si number density = 25.571264 Si / 1000 Ang^3
#
#
#
# Elastic Constant Matrix: (Units=GPa)
#
#
# Indices 1 2 3 4 5 6 
#
# 1 48.2692 -4.2256 25.2861 0.0000 0.0000 0.0000
# 2 -4.2256 60.9964 18.5963 0.0000 0.0000 0.0000
# 3 25.2861 18.5963 170.7803 0.0000 0.0000 0.0000
# 4 0.0000 0.0000 0.0000 36.8878 0.0000 0.0000
# 5 0.0000 0.0000 0.0000 0.0000 28.2592 0.0000
# 6 0.0000 0.0000 0.0000 0.0000 0.0000 18.0222
#
#
#
# Elastic Compliance Matrix: (Units=1/GPa)
#
#
# Indices 1 2 3 4 5 6 
#
# 1 0.022884 0.002708 -0.003683 0.000000 0.000000 0.000000
# 2 0.002708 0.017278 -0.002282 0.000000 0.000000 0.000000
# 3 -0.003683 -0.002282 0.006649 0.000000 0.000000 0.000000
# 4 0.000000 0.000000 0.000000 0.027109 0.000000 0.000000
# 5 0.000000 0.000000 0.000000 0.000000 0.035387 0.000000
# 6 0.000000 0.000000 0.000000 0.000000 0.000000 0.055487
#
#
# Mechanical properties :
#
#
# Convention : Reuss Voigt Hill
#
# Bulk Modulus (GPa) = 24.81622 39.92885 32.37253
# Shear Modulus (GPa) = 27.06499 32.65978 29.86238
#
# Velocity S-wave (km/s) = 3.25686 3.57768 3.42103
# Velocity P-wave (km/s) = 4.88555 5.71970 5.31901
#
# Compressibility (1/GPa) = 0.04029623
#
# Stress axis : x y z
#
# Youngs Moduli (GPa) = 43.69938 57.87757 150.39099
#
# Poissons Ratio (x) = -0.15674 0.55390
# Poissons Ratio (y) = -0.11835 0.34325
# Poissons Ratio (z) = 0.16095 0.13210
#
# Static dielectric constant tensor:
#      x y z
#    x 2.142060 0.000000 0.000000 
#    y 0.000000 2.148970 0.000000 
#    z 0.000000 0.000000 2.084980 
# 
# From -- ./inp_files/19659.got.cif
#   From: 2010.05.17/outbox.cif.g08.bks.cpg/sg60_10_cif.got.tgz:19659.got - 2010.06.03 14:59:27.
