data_PCOD9453703
_publ_section_title
;
Structure prediction by ZEFSAII (Michael W. Deem and Ramdas Pophale) SiO2 
 PCOD9453703
Probable space group: P B C N
;
_chemical_formula_sum "Si O2"
_cell_formula_units_Z 48
_cell_length_a 28.027342
_cell_length_b 25.193104
_cell_length_c 5.038677
_cell_angle_alpha 90.000000
_cell_angle_beta 90.000000
_cell_angle_gamma 90.000000
_cell_volume 3557.788374
_symmetry_space_group_name_H-M "P B C N"
_symmetry_group_IT_number 60
_symmetry_cell_setting 'orthorhombic'
loop_
_space_group_symop_operation_xyz
x,y,z
1/2-x,1/2-y,1/2+z
1/2+x,1/2-y,-z
-x,y,1/2-z
-x,-y,-z
1/2+x,1/2+y,1/2-z
1/2-x,1/2+y,z
x,-y,1/2+z
loop_
_atom_site_type_symbol
_atom_site_label
_atom_site_fract_x
_atom_site_fract_y
_atom_site_fract_z
Si Si1 0.552894 0.084242 0.704810
Si Si2 0.052791 0.341511 0.794178
Si Si3 0.349436 0.795980 0.654307
Si Si4 0.193914 0.352856 0.153427
Si Si5 0.271092 0.277516 0.268316
Si Si6 0.653889 0.033033 0.722073
O O1 0.500000 0.060736 0.750000
O O2 0.556572 0.109312 0.412414
O O3 0.597551 0.046351 0.748462
O O4 0.556909 0.132889 0.914663
O O5 0.095357 0.301937 0.724524
O O6 0.000000 0.318775 0.750000
O O7 0.337234 0.818083 0.363103
O O8 0.325041 0.738777 0.700907
O O9 0.322309 0.835052 0.861452
O O10 0.248324 0.334506 0.206722
O O11 0.181885 0.413613 0.204986
O O12 0.259032 0.261036 0.569029
O O13 0.664626 0.013727 0.427209
#
# Coordination Sequence:
#
# PCOD9453703 Si02
#       6
#     8   8   8   8   8   8
#     4  10  20  32  41  51  70  97 129 165 195 217
#     4  10  17  27  43  58  74  98 121 150 192 226
#     4  10  15  28  45  58  74  94 116 151 187 226
#     4  10  18  30  41  56  76  91 119 160 185 227
#     4   8  16  25  42  61  72  89 113 144 192 224
#     4  12  22  30  42  54  70  99 130 160 199 222
#
# _framework density 13.491527
#
# number of rings (size 3 to 8) (size 9 to 14) (size 15 to 20)
#    0.000    2.000    3.333    2.000    0.000    0.667 
#    0.000    0.000    0.000    0.000    0.000    0.000 
#    0.000    0.000    0.000    0.000    0.000    1.667 
#
# Total GULP energy -267548.028560 kJ/mol
# GULP energy per Si atom -5573.917262 kJ/mol
# Density = 1.346082 g / cm^3
# Si number density = 13.491527 Si / 1000 Ang^3
#
#
#
# Elastic Constant Matrix: (Units=GPa)
#
#
# Indices 1 2 3 4 5 6 
#
# 1 43.0558 27.6797 -3.8706 0.0000 0.0000 0.0000
# 2 27.6797 39.0328 -4.5215 0.0000 0.0000 0.0000
# 3 -3.8706 -4.5215 45.1172 0.0000 0.0000 0.0000
# 4 0.0000 0.0000 0.0000 14.5163 0.0000 0.0000
# 5 0.0000 0.0000 0.0000 0.0000 14.0906 0.0000
# 6 0.0000 0.0000 0.0000 0.0000 0.0000 18.3769
#
#
#
# Elastic Compliance Matrix: (Units=1/GPa)
#
#
# Indices 1 2 3 4 5 6 
#
# 1 0.042704 -0.030209 0.000636 0.000000 0.000000 0.000000
# 2 -0.030209 0.047291 0.002148 0.000000 0.000000 0.000000
# 3 0.000636 0.002148 0.022434 0.000000 0.000000 0.000000
# 4 0.000000 0.000000 0.000000 0.068888 0.000000 0.000000
# 5 0.000000 0.000000 0.000000 0.000000 0.070969 0.000000
# 6 0.000000 0.000000 0.000000 0.000000 0.000000 0.054416
#
#
# Mechanical properties :
#
#
# Convention : Reuss Voigt Hill
#
# Bulk Modulus (GPa) = 17.36775 18.42010 17.89392
# Shear Modulus (GPa) = 13.13210 16.59132 14.86171
#
# Velocity S-wave (km/s) = 3.12325 3.51060 3.32257
# Velocity P-wave (km/s) = 5.08992 5.48772 5.29256
#
# Compressibility (1/GPa) = 0.05757798
#
# Stress axis : x y z
#
# Youngs Moduli (GPa) = 23.41703 21.14564 44.57462
#
# Poissons Ratio (x) = 0.63880 -0.02835
# Poissons Ratio (y) = 0.70742 -0.09573
# Poissons Ratio (z) = -0.01489 -0.04541
#
# Static dielectric constant tensor:
#      x y z
#    x 1.473040 0.000000 0.000000 
#    y 0.000000 1.423310 0.000000 
#    z 0.000000 0.000000 1.463990 
# 
# From -- ./inp_files/2191.got.cif
#   From: 2010.05.17/outbox.cif.g08.bks.cpg/sg60_2_cif.got.tgz:2191.got - 2010.06.03 14:59:27.
