data_PCOD9453390
_publ_section_title
;
Structure prediction by ZEFSAII (Michael W. Deem and Ramdas Pophale) SiO2 
 PCOD9453390
Probable space group: P M M N
;
_chemical_formula_sum "Si O2"
_cell_formula_units_Z 64
_cell_length_a 30.000000
_cell_length_b 9.000000
_cell_length_c 12.000000
_cell_angle_alpha 90.000000
_cell_angle_beta 90.000000
_cell_angle_gamma 90.000000
_cell_volume 3240.000000
_symmetry_space_group_name_H-M "P M M N"
_symmetry_group_IT_number 59
_space_group.IT_coordinate_system_code '2'
_symmetry_cell_setting 'orthorhombic'
loop_
_space_group_symop_operation_xyz
x,y,z
1/2-x,1/2-y,z
1/2+x,-y,-z
-x,1/2+y,-z
-x,-y,-z
1/2+x,1/2+y,-z
1/2-x,y,z
x,1/2-y,z
loop_
_atom_site_type_symbol
_atom_site_label
_atom_site_fract_x
_atom_site_fract_y
_atom_site_fract_z
Si Si1 0.487898 0.426137 0.117039
Si Si2 0.047980 0.571633 0.497026
Si Si3 0.369259 0.570645 0.368321
Si Si4 0.197555 0.089131 0.761147
Si Si5 0.896484 0.078320 0.856011
Si Si6 0.853959 0.421252 0.094960
Si Si7 0.800634 0.071866 0.455412
Si Si8 0.930041 0.429936 0.261265
O O1 0.492291 0.250000 0.105517
O O2 0.438583 0.473206 0.146909
O O3 0.522771 0.477689 0.210454
O O4 0.500000 0.500000 0.000000
O O5 0.042828 0.750000 0.494383
O O6 0.080745 0.523513 0.399195
O O7 0.073088 0.528928 0.610930
O O8 0.000000 0.500000 0.500000
O O9 0.368582 0.750000 0.383562
O O10 0.361920 0.539667 0.240184
O O11 0.332940 0.509161 0.451192
O O12 0.250000 0.099776 0.748298
O O13 0.177120 0.250000 0.744642
O O14 0.187529 0.023376 0.881107
O O15 0.182865 0.976713 0.665379
O O16 0.911596 0.250000 0.838628
O O17 0.873726 0.070972 0.974065
O O18 0.843653 0.250000 0.120614
O O19 0.891688 0.480631 0.179072
O O20 0.750000 0.021864 0.473505
O O21 0.800522 0.250000 0.458415
O O22 0.928883 0.250000 0.257101
#
# Coordination Sequence:
#
# PCOD9453390 Si02
#       8
#     8   8   8   8   8   8   8   8
#     4  11  20  33  51  73 103 140 181 223 266 311
#     4  10  19  32  49  69 100 137 172 210 257 308
#     4   9  18  33  54  79 108 140 173 218 270 314
#     4  10  21  36  54  79 109 134 163 213 269 316
#     4  10  20  35  53  76 107 142 179 220 262 308
#     4  10  19  34  54  75 102 135 173 213 258 312
#     4   9  17  33  59  85 106 135 176 215 261 325
#     4   9  18  32  50  72  99 133 169 211 259 303
#
# _framework density 19.753086
#
# number of rings (size 3 to 8) (size 9 to 14) (size 15 to 20)
#    0.000    2.250    1.250    2.250    0.000    3.250 
#    0.000    4.375    0.000    2.250    0.000    1.750 
#    0.000    0.000    0.000    0.000    0.000    0.000 
#
# Total GULP energy -356330.724581 kJ/mol
# GULP energy per Si atom -5567.667572 kJ/mol
# Density = 1.970813 g / cm^3
# Si number density = 19.753086 Si / 1000 Ang^3
#
#
#
# Elastic Constant Matrix: (Units=GPa)
#
#
# Indices 1 2 3 4 5 6 
#
# 1 56.7943 30.8532 33.6285 0.0000 0.0000 0.0000
# 2 30.8532 11.3751 30.0488 0.0000 0.0000 0.0000
# 3 33.6285 30.0488 61.6895 0.0000 0.0000 0.0000
# 4 0.0000 0.0000 0.0000 1.4948 0.0000 0.0000
# 5 0.0000 0.0000 0.0000 0.0000 20.5987 0.0000
# 6 0.0000 0.0000 0.0000 0.0000 0.0000 17.9888
#
#
#
# Elastic Compliance Matrix: (Units=1/GPa)
#
#
# Indices 1 2 3 4 5 6 
#
# 1 0.009739 0.043214 -0.026358 0.000000 0.000000 0.000000
# 2 0.043214 -0.114843 0.032383 0.000000 0.000000 0.000000
# 3 -0.026358 0.032383 0.014805 0.000000 0.000000 0.000000
# 4 0.000000 0.000000 0.000000 0.668995 0.000000 0.000000
# 5 0.000000 0.000000 0.000000 0.000000 0.048547 0.000000
# 6 0.000000 0.000000 0.000000 0.000000 0.000000 0.055590
#
#
# Mechanical properties :
#
#
# Convention : Reuss Voigt Hill
#
# Bulk Modulus (GPa) = 122.28377 35.43555 78.85966
# Shear Modulus (GPa) = 8.51670 10.37168 9.44419
#
# Velocity S-wave (km/s) = 2.07869 2.29392 2.18895
# Velocity P-wave (km/s) = 8.23419 4.99943 6.81161
#
# Compressibility (1/GPa) = 0.00817770
#
# Stress axis : x y z
#
# Youngs Moduli (GPa) = 102.68300 -8.70753 67.54463
#
# Poissons Ratio (x) = 0.37628 1.78035
# Poissons Ratio (y) = -4.43731 -2.18729
# Poissons Ratio (z) = 2.70653 0.28198
#
# Static dielectric constant tensor:
#      x y z
#    x 1.748960 0.000000 0.000000 
#    y 0.000000 1.629960 0.000000 
#    z 0.000000 0.000000 1.712670 
# 
# From -- ./inp_files/19246.got.cif
#   From: 2010.05.17/outbox.ucp.g08.bks.cvg/sg59_10_cif.got.tgz:19246.got - 2010.06.11 16:43:56.
