data_PCOD9453333
_publ_section_title
;
Structure prediction by ZEFSAII (Michael W. Deem and Ramdas Pophale) SiO2 
 PCOD9453333
Probable space group: P M M N
;
_chemical_formula_sum "Si O2"
_cell_formula_units_Z 64
_cell_length_a 15.000000
_cell_length_b 9.000000
_cell_length_c 24.000000
_cell_angle_alpha 90.000000
_cell_angle_beta 90.000000
_cell_angle_gamma 90.000000
_cell_volume 3240.000000
_symmetry_space_group_name_H-M "P M M N"
_symmetry_group_IT_number 59
_space_group.IT_coordinate_system_code '2'
_symmetry_cell_setting 'orthorhombic'
loop_
_space_group_symop_operation_xyz
x,y,z
1/2-x,1/2-y,z
1/2+x,-y,-z
-x,1/2+y,-z
-x,-y,-z
1/2+x,1/2+y,-z
1/2-x,y,z
x,1/2-y,z
loop_
_atom_site_type_symbol
_atom_site_label
_atom_site_fract_x
_atom_site_fract_y
_atom_site_fract_z
Si Si1 0.358103 0.581540 0.477835
Si Si2 0.356444 0.074767 0.589807
Si Si3 0.651695 0.071623 0.888058
Si Si4 0.150765 0.570218 0.784038
Si Si5 0.525712 0.072076 0.315387
Si Si6 0.528782 0.072192 0.114092
Si Si7 0.651455 0.069637 0.018993
Si Si8 0.147217 0.571008 0.351469
O O1 0.250000 0.589062 0.478204
O O2 0.391005 0.750000 0.487515
O O3 0.383332 0.472787 0.527349
O O4 0.379816 0.533438 0.415306
O O5 0.250000 0.041751 0.597153
O O6 0.369002 0.250000 0.597871
O O7 0.417368 0.984171 0.632015
O O8 0.750000 0.024734 0.867189
O O9 0.647379 0.250000 0.883230
O O10 0.562656 0.999118 0.864831
O O11 0.647262 0.032464 0.953930
O O12 0.250000 0.510656 0.776793
O O13 0.155417 0.750000 0.779300
O O14 0.082844 0.519186 0.737218
O O15 0.108408 0.539456 0.843463
O O16 0.520253 0.250000 0.316008
O O17 0.427209 0.004370 0.314284
O O18 0.515513 0.250000 0.111366
O O19 0.568244 0.015785 0.055256
O O20 0.750000 0.022149 0.039711
O O21 0.650432 0.250000 0.022640
O O22 0.250000 0.526012 0.341764
O O23 0.143846 0.750000 0.347137
#
# Coordination Sequence:
#
# PCOD9453333 Si02
#       8
#     8   8   8   8   8   8   8   8
#     4   8  15  30  52  76 102 133 167 204 250 303
#     4  10  20  33  51  77 108 139 171 209 253 304
#     4   9  18  32  48  70 106 145 172 199 245 306
#     4   9  19  36  56  78 103 130 165 211 259 304
#     4  11  22  35  54  77 101 134 173 213 258 306
#     4  10  18  30  53  79  99 127 172 221 259 292
#     4   8  14  26  47  75 104 135 170 206 250 306
#     4   9  19  37  58  78 103 134 168 210 257 304
#
# _framework density 19.753086
#
# number of rings (size 3 to 8) (size 9 to 14) (size 15 to 20)
#    0.000    2.750    0.000    3.375    0.000    4.250 
#    0.000    3.125    0.000    7.500    0.000    0.000 
#    0.000    0.000    0.000    0.000    0.000    0.000 
#
# Total GULP energy -356792.302819 kJ/mol
# GULP energy per Si atom -5574.879732 kJ/mol
# Density = 1.970813 g / cm^3
# Si number density = 19.753086 Si / 1000 Ang^3
#
#
#
# Elastic Constant Matrix: (Units=GPa)
#
#
# Indices 1 2 3 4 5 6 
#
# 1 93.2529 19.6815 21.4311 0.0000 0.0000 0.0000
# 2 19.6815 10.0789 7.8234 0.0000 0.0000 0.0000
# 3 21.4311 7.8234 26.9054 0.0000 0.0000 0.0000
# 4 0.0000 0.0000 0.0000 9.5367 0.0000 0.0000
# 5 0.0000 0.0000 0.0000 0.0000 16.6171 0.0000
# 6 0.0000 0.0000 0.0000 0.0000 0.0000 29.5828
#
#
#
# Elastic Compliance Matrix: (Units=1/GPa)
#
#
# Indices 1 2 3 4 5 6 
#
# 1 0.018867 -0.032517 -0.005573 0.000000 0.000000 0.000000
# 2 -0.032517 0.184181 -0.027654 0.000000 0.000000 0.000000
# 3 -0.005573 -0.027654 0.049648 0.000000 0.000000 0.000000
# 4 0.000000 0.000000 0.000000 0.104858 0.000000 0.000000
# 5 0.000000 0.000000 0.000000 0.000000 0.060179 0.000000
# 6 0.000000 0.000000 0.000000 0.000000 0.000000 0.033803
#
#
# Mechanical properties :
#
#
# Convention : Reuss Voigt Hill
#
# Bulk Modulus (GPa) = 8.25036 25.34547 16.79791
# Shear Modulus (GPa) = 8.02018 16.56740 12.29379
#
# Velocity S-wave (km/s) = 2.01718 2.89922 2.49745
# Velocity P-wave (km/s) = 3.10019 4.90574 4.10350
#
# Compressibility (1/GPa) = 0.12120682
#
# Stress axis : x y z
#
# Youngs Moduli (GPa) = 53.00190 5.42945 20.14197
#
# Poissons Ratio (x) = 0.17655 0.11226
# Poissons Ratio (y) = 1.72346 0.55701
# Poissons Ratio (z) = 0.29540 0.15015
#
# Static dielectric constant tensor:
#      x y z
#    x 1.731650 0.000000 0.000000 
#    y 0.000000 1.711090 0.000000 
#    z 0.000000 0.000000 1.735630 
# 
# From -- ./inp_files/32185.got.cif
#   From: 2010.05.17/outbox.ucp.g08.bks.cvg/sg59_17_cif.got.tgz:32185.got - 2010.06.11 16:43:56.
