data_PCOD9453406
_publ_section_title
;
Structure prediction by ZEFSAII (Michael W. Deem and Ramdas Pophale) SiO2 
 PCOD9453406
Probable space group: P M M N
;
_chemical_formula_sum "Si O2"
_cell_formula_units_Z 56
_cell_length_a 9.000000
_cell_length_b 15.000000
_cell_length_c 21.000000
_cell_angle_alpha 90.000000
_cell_angle_beta 90.000000
_cell_angle_gamma 90.000000
_cell_volume 2835.000000
_symmetry_space_group_name_H-M "P M M N"
_symmetry_group_IT_number 59
_space_group.IT_coordinate_system_code '2'
_symmetry_cell_setting 'orthorhombic'
loop_
_space_group_symop_operation_xyz
x,y,z
1/2-x,1/2-y,z
1/2+x,-y,-z
-x,1/2+y,-z
-x,-y,-z
1/2+x,1/2+y,-z
1/2-x,y,z
x,1/2-y,z
loop_
_atom_site_type_symbol
_atom_site_label
_atom_site_fract_x
_atom_site_fract_y
_atom_site_fract_z
Si Si1 0.070950 0.653288 0.626350
Si Si2 0.424324 0.355217 0.758145
Si Si3 0.427361 0.650684 0.475005
Si Si4 0.426767 0.147878 0.970224
Si Si5 0.427037 0.460454 0.631626
Si Si6 0.927554 0.350323 0.109954
Si Si7 0.425726 0.971784 0.136865
O O1 0.250000 0.656595 0.635283
O O2 0.012343 0.750000 0.648291
O O3 0.043173 0.645693 0.550395
O O4 0.018199 0.558601 0.652938
O O5 0.250000 0.374838 0.773579
O O6 0.445327 0.250000 0.763216
O O7 0.453083 0.389647 0.687128
O O8 0.529608 0.408197 0.805357
O O9 0.250000 0.645378 0.467418
O O10 0.476491 0.750000 0.453746
O O11 0.501692 0.575182 0.432964
O O12 0.250000 0.132550 0.975946
O O13 0.447077 0.250000 0.945433
O O14 0.499939 0.075437 0.924470
O O15 0.503710 0.144568 0.039017
O O16 0.250000 0.467048 0.621482
O O17 0.750000 0.361970 0.107291
O O18 0.957821 0.250000 0.134396
O O19 0.002430 0.431215 0.147064
O O20 0.250000 0.978838 0.128147
#
# Coordination Sequence:
#
# PCOD9453406 Si02
#       7
#     8   8   8   8   8   8   8
#     4   8  15  29  49  75 106 137 169 208 258 317
#     4  10  22  39  55  74 104 138 174 221 272 320
#     4   9  17  29  47  73 106 140 170 206 259 321
#     4  10  20  35  57  85 117 149 180 220 269 317
#     4  10  19  32  53  77 101 134 177 223 265 306
#     4  10  21  38  60  85 113 144 179 218 261 316
#     4  12  24  37  56  80 108 143 183 226 269 317
#
# _framework density 19.753086
#
# number of rings (size 3 to 8) (size 9 to 14) (size 15 to 20)
#    0.000    2.143    0.000    4.714    0.000    5.143 
#    0.000    0.714    0.000    3.857    0.000    0.000 
#    0.000    0.000    0.000    0.000    0.000    0.000 
#
# Total GULP energy -312592.733306 kJ/mol
# GULP energy per Si atom -5582.013095 kJ/mol
# Density = 1.970813 g / cm^3
# Si number density = 19.753086 Si / 1000 Ang^3
#
#
#
# Elastic Constant Matrix: (Units=GPa)
#
#
# Indices 1 2 3 4 5 6 
#
# 1 63.2446 49.7964 14.4475 0.0000 0.0000 0.0000
# 2 49.7964 121.5256 9.8348 0.0000 0.0000 0.0000
# 3 14.4475 9.8348 1.5579 0.0000 0.0000 0.0000
# 4 0.0000 0.0000 0.0000 39.7256 0.0000 0.0000
# 5 0.0000 0.0000 0.0000 0.0000 19.5624 0.0000
# 6 0.0000 0.0000 0.0000 0.0000 0.0000 26.8102
#
#
#
# Elastic Compliance Matrix: (Units=1/GPa)
#
#
# Indices 1 2 3 4 5 6 
#
# 1 -0.010043 -0.006995 0.137289 0.000000 0.000000 0.000000
# 2 -0.006995 0.011950 -0.010566 0.000000 0.000000 0.000000
# 3 0.137289 -0.010566 -0.564567 0.000000 0.000000 0.000000
# 4 0.000000 0.000000 0.000000 0.025173 0.000000 0.000000
# 5 0.000000 0.000000 0.000000 0.000000 0.051118 0.000000
# 6 0.000000 0.000000 0.000000 0.000000 0.000000 0.037299
#
#
# Mechanical properties :
#
#
# Convention : Reuss Voigt Hill
#
# Bulk Modulus (GPa) = -3.09401 37.16506 17.03553
# Shear Modulus (GPa) = -6.27937 24.70293 9.21178
#
# Velocity S-wave (km/s) = -1.78489 3.54020 2.16185
# Velocity P-wave (km/s) = 2.41195 5.96375 3.85674
#
# Compressibility (1/GPa) = -0.32320566
#
# Stress axis : x y z
#
# Youngs Moduli (GPa) = -99.57647 83.68004 -1.77127
#
# Poissons Ratio (x) = 0.58538 0.24318
# Poissons Ratio (y) = -0.69658 -0.01872
# Poissons Ratio (z) = 13.67072 0.88419
#
# Static dielectric constant tensor:
#      x y z
#    x 1.658630 0.000000 0.000000 
#    y 0.000000 1.749420 0.000000 
#    z 0.000000 0.000000 1.684240 
# 
# From -- ./inp_files/28987.got.cif
#   From: 2010.05.17/outbox.ucp.g08.bks.cvg/sg59_15_cif.got.tgz:28987.got - 2010.06.11 16:43:56.
