data_PCOD9453476
_publ_section_title
;
Structure prediction by ZEFSAII (Michael W. Deem and Ramdas Pophale) SiO2 
 PCOD9453476
Probable space group: P M M N
;
_chemical_formula_sum "Si O2"
_cell_formula_units_Z 56
_cell_length_a 15.000000
_cell_length_b 9.000000
_cell_length_c 21.000000
_cell_angle_alpha 90.000000
_cell_angle_beta 90.000000
_cell_angle_gamma 90.000000
_cell_volume 2835.000000
_symmetry_space_group_name_H-M "P M M N"
_symmetry_group_IT_number 59
_space_group.IT_coordinate_system_code '2'
_symmetry_cell_setting 'orthorhombic'
loop_
_space_group_symop_operation_xyz
x,y,z
1/2-x,1/2-y,z
1/2+x,-y,-z
-x,1/2+y,-z
-x,-y,-z
1/2+x,1/2+y,-z
1/2-x,y,z
x,1/2-y,z
loop_
_atom_site_type_symbol
_atom_site_label
_atom_site_fract_x
_atom_site_fract_y
_atom_site_fract_z
Si Si1 0.651470 0.569114 0.840342
Si Si2 0.455911 0.071700 0.649278
Si Si3 0.471947 0.929103 0.779196
Si Si4 0.906275 0.927114 0.982309
Si Si5 0.590953 0.427063 0.474724
Si Si6 0.347462 0.921509 0.896121
Si Si7 0.155354 0.571459 0.388676
O O1 0.750000 0.516810 0.823299
O O2 0.651456 0.750000 0.840441
O O3 0.573750 0.523448 0.792529
O O4 0.628108 0.524351 0.912922
O O5 0.453412 0.250000 0.645445
O O6 0.559451 0.019554 0.637420
O O7 0.432464 0.011387 0.718572
O O8 0.395270 0.002561 0.593475
O O9 0.467933 0.750000 0.770507
O O10 0.419880 0.964797 0.844134
O O11 0.913612 0.750000 0.980609
O O12 0.847436 0.979577 0.041258
O O13 0.000000 0.000000 0.000000
O O14 0.500000 0.500000 0.500000
O O15 0.582021 0.250000 0.466789
O O16 0.654243 0.453490 0.534990
O O17 0.250000 0.926056 0.865606
O O18 0.365738 0.750000 0.915055
O O19 0.250000 0.512501 0.362638
O O20 0.154691 0.750000 0.379348
#
# Coordination Sequence:
#
# PCOD9453476 Si02
#       7
#     8   8   8   8   8   8   8
#     4   9  18  33  53  77 106 139 175 217 271 332
#     4  10  20  33  51  74 102 138 175 213 256 308
#     4  10  20  36  54  74 104 143 181 221 268 321
#     4  11  20  34  57  83 111 142 179 224 279 334
#     4   9  16  29  51  75  99 130 164 203 249 299
#     4  10  21  38  58  80 106 139 183 233 282 332
#     4   8  15  29  50  76 103 129 162 205 252 303
#
# _framework density 19.753086
#
# number of rings (size 3 to 8) (size 9 to 14) (size 15 to 20)
#    0.000    2.429    1.429    2.571    0.000    2.000 
#    0.000    0.714    0.000   21.000    0.000    0.000 
#    0.000    0.000    0.000    0.000    0.000    0.000 
#
# Total GULP energy -312008.644945 kJ/mol
# GULP energy per Si atom -5571.582945 kJ/mol
# Density = 1.970813 g / cm^3
# Si number density = 19.753086 Si / 1000 Ang^3
#
#
#
# Elastic Constant Matrix: (Units=GPa)
#
#
# Indices 1 2 3 4 5 6 
#
# 1 52.7986 2.1619 -11.9426 0.0000 0.0000 0.0000
# 2 2.1619 33.5046 21.5660 0.0000 0.0000 0.0000
# 3 -11.9426 21.5660 71.4300 0.0000 0.0000 0.0000
# 4 0.0000 0.0000 0.0000 27.9718 0.0000 0.0000
# 5 0.0000 0.0000 0.0000 0.0000 -1.5735 0.0000
# 6 0.0000 0.0000 0.0000 0.0000 0.0000 8.2312
#
#
#
# Elastic Compliance Matrix: (Units=1/GPa)
#
#
# Indices 1 2 3 4 5 6 
#
# 1 0.020174 -0.004310 0.004674 0.000000 0.000000 0.000000
# 2 -0.004310 0.037967 -0.012184 0.000000 0.000000 0.000000
# 3 0.004674 -0.012184 0.018460 0.000000 0.000000 0.000000
# 4 0.000000 0.000000 0.000000 0.035750 0.000000 0.000000
# 5 0.000000 0.000000 0.000000 0.000000 -0.635522 0.000000
# 6 0.000000 0.000000 0.000000 0.000000 0.000000 0.121489
#
#
# Mechanical properties :
#
#
# Convention : Reuss Voigt Hill
#
# Bulk Modulus (GPa) = 18.88184 20.14487 19.51336
# Shear Modulus (GPa) = -13.87388 16.65575 1.39093
#
# Velocity S-wave (km/s) = -2.65309 2.90694 0.84005
# Velocity P-wave (km/s) = 0.44101 4.63546 3.29257
#
# Compressibility (1/GPa) = 0.05296093
#
# Stress axis : x y z
#
# Youngs Moduli (GPa) = 49.56954 26.33860 54.17211
#
# Poissons Ratio (x) = 0.11353 -0.25322
# Poissons Ratio (y) = 0.21366 0.66001
# Poissons Ratio (z) = -0.23170 0.32090
#
# Static dielectric constant tensor:
#      x y z
#    x 1.770700 0.000000 0.000000 
#    y 0.000000 1.657350 0.000000 
#    z 0.000000 0.000000 1.698110 
# 
# From -- ./inp_files/30293.got.cif
#   From: 2010.05.17/outbox.ucp.g08.bks.cvg/sg59_16_cif.got.tgz:30293.got - 2010.06.11 16:43:56.
