data_PCOD9453362
_publ_section_title
;
Structure prediction by ZEFSAII (Michael W. Deem and Ramdas Pophale) SiO2 
 PCOD9453362
Probable space group: P M M N
;
_chemical_formula_sum "Si O2"
_cell_formula_units_Z 64
_cell_length_a 9.000000
_cell_length_b 18.000000
_cell_length_c 24.000000
_cell_angle_alpha 90.000000
_cell_angle_beta 90.000000
_cell_angle_gamma 90.000000
_cell_volume 3888.000000
_symmetry_space_group_name_H-M "P M M N"
_symmetry_group_IT_number 59
_space_group.IT_coordinate_system_code '2'
_symmetry_cell_setting 'orthorhombic'
loop_
_space_group_symop_operation_xyz
x,y,z
1/2-x,1/2-y,z
1/2+x,-y,-z
-x,1/2+y,-z
-x,-y,-z
1/2+x,1/2+y,-z
1/2-x,y,z
x,1/2-y,z
loop_
_atom_site_type_symbol
_atom_site_label
_atom_site_fract_x
_atom_site_fract_y
_atom_site_fract_z
Si Si1 0.572909 0.598591 0.432403
Si Si2 0.929280 0.163861 0.458105
Si Si3 0.926670 0.332279 0.672005
Si Si4 0.571893 0.051362 0.366029
Si Si5 0.571126 0.020147 0.738418
Si Si6 0.928716 0.930316 0.967627
Si Si7 0.070539 0.835641 0.058044
Si Si8 0.429883 0.524187 0.134672
O O1 0.750000 0.602719 0.437782
O O2 0.497917 0.618463 0.490644
O O3 0.514079 0.654674 0.385145
O O4 0.533665 0.517700 0.407143
O O5 0.750000 0.160131 0.462658
O O6 0.974122 0.250000 0.461033
O O7 0.970687 0.125125 0.399729
O O8 0.750000 0.338255 0.660182
O O9 0.955546 0.250000 0.694398
O O10 0.965207 0.397850 0.714496
O O11 0.750000 0.050289 0.358570
O O12 0.496656 0.036329 0.306672
O O13 0.750000 0.012273 0.737998
O O14 0.517232 0.015297 0.802042
O O15 0.750000 0.929479 0.973332
O O16 0.965404 0.952771 0.903952
O O17 0.998104 0.859823 0.999091
O O18 0.000000 0.000000 0.000000
O O19 0.250000 0.840681 0.053297
O O20 0.033595 0.750000 0.072414
O O21 0.023467 0.898892 0.103383
O O22 0.250000 0.528681 0.136807
#
# Coordination Sequence:
#
# PCOD9453362 Si02
#       8
#     8   8   8   8   8   8   8   8
#     4  10  19  30  46  67  90 115 143 177 219 269
#     4  10  20  33  49  67  87 112 143 182 227 273
#     4   9  17  28  42  62  89 119 148 178 214 260
#     4   9  19  34  48  65  90 118 147 181 225 270
#     4   9  17  30  48  67  87 116 155 190 219 258
#     4   9  16  28  46  67  93 124 157 190 226 268
#     4   9  17  29  46  70 100 128 152 185 231 277
#     4   8  15  28  46  68  91 118 153 190 225 262
#
# _framework density 16.460905
#
# number of rings (size 3 to 8) (size 9 to 14) (size 15 to 20)
#    0.000    2.875    0.000    2.250    0.000    3.750 
#    0.000    5.625    0.000    0.750    0.000    8.750 
#    0.000    0.000    0.000    0.000    0.000    0.000 
#
# Total GULP energy -356377.507279 kJ/mol
# GULP energy per Si atom -5568.398551 kJ/mol
# Density = 1.642344 g / cm^3
# Si number density = 16.460905 Si / 1000 Ang^3
#
#
#
# Elastic Constant Matrix: (Units=GPa)
#
#
# Indices 1 2 3 4 5 6 
#
# 1 13.1111 13.7064 25.4743 0.0000 0.0000 0.0000
# 2 13.7064 42.7610 41.3524 0.0000 0.0000 0.0000
# 3 25.4743 41.3524 140.9488 0.0000 0.0000 0.0000
# 4 0.0000 0.0000 0.0000 12.6888 0.0000 0.0000
# 5 0.0000 0.0000 0.0000 0.0000 23.4472 0.0000
# 6 0.0000 0.0000 0.0000 0.0000 0.0000 19.5551
#
#
#
# Elastic Compliance Matrix: (Units=1/GPa)
#
#
# Indices 1 2 3 4 5 6 
#
# 1 0.138146 -0.028111 -0.016720 0.000000 0.000000 0.000000
# 2 -0.028111 0.038369 -0.006176 0.000000 0.000000 0.000000
# 3 -0.016720 -0.006176 0.011929 0.000000 0.000000 0.000000
# 4 0.000000 0.000000 0.000000 0.078810 0.000000 0.000000
# 5 0.000000 0.000000 0.000000 0.000000 0.042649 0.000000
# 6 0.000000 0.000000 0.000000 0.000000 0.000000 0.051138
#
#
# Mechanical properties :
#
#
# Convention : Reuss Voigt Hill
#
# Bulk Modulus (GPa) = 11.57026 39.76522 25.66774
# Shear Modulus (GPa) = 10.16540 18.89073 14.52806
#
# Velocity S-wave (km/s) = 2.48775 3.39132 2.97405
# Velocity P-wave (km/s) = 3.91102 6.28844 5.23644
#
# Compressibility (1/GPa) = 0.08642850
#
# Stress axis : x y z
#
# Youngs Moduli (GPa) = 7.23874 26.06255 83.83089
#
# Poissons Ratio (x) = 0.73264 1.40168
# Poissons Ratio (y) = 0.20349 0.51777
# Poissons Ratio (z) = 0.12103 0.16097
#
# Static dielectric constant tensor:
#      x y z
#    x 1.557020 0.000000 0.000000 
#    y 0.000000 1.569880 0.000000 
#    z 0.000000 0.000000 1.556960 
# 
# From -- ./inp_files/31774.got.cif
#   From: 2010.05.17/outbox.ucp.g08.bks.cvg/sg59_16_cif.got.tgz:31774.got - 2010.06.11 16:43:56.
