data_PCOD9453778
_publ_section_title
;
Structure prediction by ZEFSAII (Michael W. Deem and Ramdas Pophale) SiO2 
 PCOD9453778
Probable space group: P B C N
;
_chemical_formula_sum "Si O2"
_cell_formula_units_Z 36
_cell_length_a 12.321326
_cell_length_b 13.769093
_cell_length_c 9.629492
_cell_angle_alpha 90.000000
_cell_angle_beta 90.000000
_cell_angle_gamma 90.000000
_cell_volume 1633.676863
_symmetry_space_group_name_H-M "P B C N"
_symmetry_group_IT_number 60
_symmetry_cell_setting 'orthorhombic'
loop_
_space_group_symop_operation_xyz
x,y,z
1/2-x,1/2-y,1/2+z
1/2+x,1/2-y,-z
-x,y,1/2-z
-x,-y,-z
1/2+x,1/2+y,1/2-z
1/2-x,1/2+y,z
x,-y,1/2+z
loop_
_atom_site_type_symbol
_atom_site_label
_atom_site_fract_x
_atom_site_fract_y
_atom_site_fract_z
Si Si1 0.000000 0.910935 0.750000
Si Si2 0.838240 0.932079 0.118655
Si Si3 0.234971 0.917120 0.095710
Si Si4 0.983306 0.799310 0.478804
Si Si5 0.522711 0.099172 0.917760
O O1 0.972012 0.841109 0.875244
O O2 0.087600 0.982435 0.816122
O O3 0.750974 0.920074 0.238330
O O4 0.917189 0.838587 0.114449
O O5 0.790552 0.978919 0.978136
O O6 0.350414 0.878182 0.048089
O O7 0.128774 0.852701 0.062120
O O8 0.961004 0.687236 0.506112
O O9 0.500000 0.094710 0.750000
O O10 0.500000 0.000000 0.000000
#
# Coordination Sequence:
#
# PCOD9453778 Si02
#       5
#     4   8   8   8   8
#     4  10  16  38  68  98 134 160 214 294 322 386
#     4  11  19  40  69 110 133 164 234 281 341 399
#     4  11  23  40  73 100 134 187 215 287 348 395
#     4  11  22  42  70 102 136 174 231 283 332 401
#     4  12  29  50  65  96 144 185 229 279 334 414
#
# _framework density 22.036183000000001
#
# number of rings (size 3 to 8) (size 9 to 14) (size 15 to 20)
#    0.000    0.889    5.556    2.667    0.000    5.333 
#    0.000    0.000    0.000    0.000    0.000    0.000 
#    0.000    0.000    0.000    0.000    0.000    0.000 
#
# Total GULP energy -200598.485512 kJ/mol
# GULP energy per Si atom -5572.180153 kJ/mol
# Density = 2.198603 g / cm^3
# Si number density = 22.036183 Si / 1000 Ang^3
#
#
#
# Elastic Constant Matrix: (Units=GPa)
#
#
# Indices 1 2 3 4 5 6 
#
# 1 75.8597 1.9971 12.6247 0.0000 0.0000 0.0000
# 2 1.9971 122.2537 31.5272 0.0000 0.0000 0.0000
# 3 12.6247 31.5272 99.0590 0.0000 0.0000 0.0000
# 4 0.0000 0.0000 0.0000 24.9392 0.0000 0.0000
# 5 0.0000 0.0000 0.0000 0.0000 20.9419 0.0000
# 6 0.0000 0.0000 0.0000 0.0000 0.0000 11.6529
#
#
#
# Elastic Compliance Matrix: (Units=1/GPa)
#
#
# Indices 1 2 3 4 5 6 
#
# 1 0.013474 0.000243 -0.001794 0.000000 0.000000 0.000000
# 2 0.000243 0.008915 -0.002868 0.000000 0.000000 0.000000
# 3 -0.001794 -0.002868 0.011237 0.000000 0.000000 0.000000
# 4 0.000000 0.000000 0.000000 0.040097 0.000000 0.000000
# 5 0.000000 0.000000 0.000000 0.000000 0.047751 0.000000
# 6 0.000000 0.000000 0.000000 0.000000 0.000000 0.085815
#
#
# Mechanical properties :
#
#
# Convention : Reuss Voigt Hill
#
# Bulk Modulus (GPa) = 40.34529 43.27448 41.80989
# Shear Modulus (GPa) = 22.28235 28.24171 25.26203
#
# Velocity S-wave (km/s) = 3.18334 3.58384 3.38951
# Velocity P-wave (km/s) = 5.64446 6.06677 5.85942
#
# Compressibility (1/GPa) = 0.02478604
#
# Stress axis : x y z
#
# Youngs Moduli (GPa) = 74.21432 112.16465 88.99480
#
# Poissons Ratio (x) = -0.02722 0.15970
# Poissons Ratio (y) = -0.01801 0.25527
# Poissons Ratio (z) = 0.13318 0.32174
#
# Static dielectric constant tensor:
#      x y z
#    x 1.869770 0.000000 0.000000 
#    y 0.000000 1.846810 0.000000 
#    z 0.000000 0.000000 1.892870 
# 
# From -- ./inp_files/5623.got.cif
#   From: 2010.05.17/outbox.cif.g08.bks.cpg/sg60_3_cif.got.tgz:5623.got - 2010.06.03 14:59:27.
