data_PCOD9453208
_publ_section_title
;
Structure prediction by ZEFSAII (Michael W. Deem and Ramdas Pophale) SiO2 
 PCOD9453208
Probable space group: P M M N
;
_chemical_formula_sum "Si O2"
_cell_formula_units_Z 56
_cell_length_a 7.256613
_cell_length_b 15.404457
_cell_length_c 20.029971
_cell_angle_alpha 90.000000
_cell_angle_beta 90.000000
_cell_angle_gamma 90.000000
_cell_volume 2239.033942
_symmetry_space_group_name_H-M "P M M N"
_symmetry_group_IT_number 59
_space_group.IT_coordinate_system_code '2'
_symmetry_cell_setting 'orthorhombic'
loop_
_space_group_symop_operation_xyz
x,y,z
1/2-x,1/2-y,z
1/2+x,-y,-z
-x,1/2+y,-z
-x,-y,-z
1/2+x,1/2+y,-z
1/2-x,y,z
x,1/2-y,z
loop_
_atom_site_type_symbol
_atom_site_label
_atom_site_fract_x
_atom_site_fract_y
_atom_site_fract_z
Si Si1 0.540859 0.853455 0.427639
Si Si2 0.525346 0.918831 0.712972
Si Si3 0.041092 0.119867 0.717241
Si Si4 0.974511 0.649414 0.569329
Si Si5 0.969547 0.604404 0.997458
Si Si6 0.537731 0.609332 0.854128
Si Si7 0.474616 0.401601 0.858540
O O1 0.750000 0.888752 0.421778
O O2 0.552597 0.750000 0.437991
O O3 0.452789 0.862846 0.354806
O O4 0.461357 0.887868 0.497656
O O5 0.750000 0.918415 0.713878
O O6 0.467139 0.889939 0.639522
O O7 0.464363 0.868643 0.780279
O O8 0.456890 0.016232 0.720617
O O9 0.250000 0.154400 0.713919
O O10 0.963399 0.143756 0.789901
O O11 0.750000 0.644809 0.567056
O O12 0.026752 0.750000 0.572780
O O13 0.750000 0.619177 0.995824
O O14 0.042918 0.636628 0.925882
O O15 0.034456 0.636140 0.069986
O O16 0.000000 0.500000 0.000000
O O17 0.750000 0.637749 0.854109
O O18 0.533147 0.503268 0.856841
O O19 0.250000 0.401317 0.857203
#
# Coordination Sequence:
#
# PCOD9453208 Si02
#       7
#     8   8   8   8   8   8   8
#     4   8  14  25  40  56  73  95 125 156 180 208
#     4   9  16  25  38  57  78  97 119 150 186 219
#     4   9  16  25  38  57  78  97 119 150 186 219
#     4   8  14  25  40  56  73  95 125 156 180 208
#     4   8  12  18  28  42  63  91 117 139 167 204
#     4   8  13  20  30  46  68  92 116 142 173 208
#     4   8  13  20  30  46  68  92 116 142 173 208
#
# _framework density 25.010786
#
# number of rings (size 3 to 8) (size 9 to 14) (size 15 to 20)
#    0.000    3.714    0.000    0.857    0.000    0.571 
#    0.000    0.000    0.000    0.857    0.000    3.000 
#    0.000    8.000    0.000    0.000    0.000  271.714 
#
# Total GULP energy -311831.235861 kJ/mol
# GULP energy per Si atom -5568.414926 kJ/mol
# Density = 2.495386 g / cm^3
# Si number density = 25.010786 Si / 1000 Ang^3
#
#
#
# Elastic Constant Matrix: (Units=GPa)
#
#
# Indices 1 2 3 4 5 6 
#
# 1 121.9510 -3.9116 20.1952 0.0000 0.0000 0.0000
# 2 -3.9116 36.2768 33.2275 0.0000 0.0000 0.0000
# 3 20.1952 33.2275 360.2873 0.0000 0.0000 0.0000
# 4 0.0000 0.0000 0.0000 83.1158 0.0000 0.0000
# 5 0.0000 0.0000 0.0000 0.0000 -79.7758 0.0000
# 6 0.0000 0.0000 0.0000 0.0000 0.0000 -2.9724
#
#
#
# Elastic Compliance Matrix: (Units=1/GPa)
#
#
# Indices 1 2 3 4 5 6 
#
# 1 0.008346 0.001451 -0.000602 0.000000 0.000000 0.000000
# 2 0.001451 0.030362 -0.002881 0.000000 0.000000 0.000000
# 3 -0.000602 -0.002881 0.003075 0.000000 0.000000 0.000000
# 4 0.000000 0.000000 0.000000 0.012031 0.000000 0.000000
# 5 0.000000 0.000000 0.000000 0.000000 -0.012535 0.000000
# 6 0.000000 0.000000 0.000000 0.000000 0.000000 -0.336425
#
#
# Mechanical properties :
#
#
# Convention : Reuss Voigt Hill
#
# Bulk Modulus (GPa) = 26.51212 68.61527 47.56369
# Shear Modulus (GPa) = -17.95273 31.34045 6.69386
#
# Velocity S-wave (km/s) = -2.68208 3.54372 1.63774
# Velocity P-wave (km/s) = 1.01580 6.65115 4.75761
#
# Compressibility (1/GPa) = 0.03771860
#
# Stress axis : x y z
#
# Youngs Moduli (GPa) = 119.81516 32.93644 325.20042
#
# Poissons Ratio (x) = -0.04779 0.19566
# Poissons Ratio (y) = -0.17385 0.93704
# Poissons Ratio (z) = 0.07209 0.09490
#
# Static dielectric constant tensor:
#      x y z
#    x 1.861270 0.000000 0.000000 
#    y 0.000000 1.926490 0.000000 
#    z 0.000000 0.000000 2.117210 
# 
# From -- ./inp_files/27129.got.cif
#   From: 2010.05.17/outbox.cif.g08.bks.cpg/sg59_14_cif.got.tgz:27129.got - 2010.06.03 14:40:33.
