data_PCOD9453608
_publ_section_title
;
Structure prediction by ZEFSAII (Michael W. Deem and Ramdas Pophale) SiO2 
 PCOD9453608
Probable space group: P M M N
;
_chemical_formula_sum "Si O2"
_cell_formula_units_Z 40
_cell_length_a 9.000000
_cell_length_b 15.000000
_cell_length_c 15.000000
_cell_angle_alpha 90.000000
_cell_angle_beta 90.000000
_cell_angle_gamma 90.000000
_cell_volume 2025.000000
_symmetry_space_group_name_H-M "P M M N"
_symmetry_group_IT_number 59
_space_group.IT_coordinate_system_code '2'
_symmetry_cell_setting 'orthorhombic'
loop_
_space_group_symop_operation_xyz
x,y,z
1/2-x,1/2-y,z
1/2+x,-y,-z
-x,1/2+y,-z
-x,-y,-z
1/2+x,1/2+y,-z
1/2-x,y,z
x,1/2-y,z
loop_
_atom_site_type_symbol
_atom_site_label
_atom_site_fract_x
_atom_site_fract_y
_atom_site_fract_z
Si Si1 0.070690 0.584831 0.544983
Si Si2 0.928974 0.599139 0.100466
Si Si3 0.419193 0.649642 0.731105
Si Si4 0.573785 0.594885 0.903426
Si Si5 0.930771 0.750000 0.235574
Si Si6 0.570341 0.750000 0.442755
O O1 0.250000 0.587369 0.539803
O O2 0.031141 0.588325 0.649893
O O3 0.000000 0.500000 0.500000
O O4 0.998332 0.666317 0.492951
O O5 0.750000 0.591340 0.105871
O O6 0.979438 0.663963 0.179052
O O7 0.000366 0.502237 0.105578
O O8 0.965560 0.633702 0.000738
O O9 0.250000 0.625783 0.756134
O O10 0.417260 0.750000 0.694116
O O11 0.516822 0.647374 0.818568
O O12 0.750000 0.586550 0.900825
O O13 0.750000 0.750000 0.233715
O O14 0.973763 0.750000 0.338474
O O15 0.750000 0.750000 0.448001
#
# Coordination Sequence:
#
# PCOD9453608 Si02
#       6
#     8   8   8   8   4   4
#     4  11  24  44  66  90 122 161 203 253 310 367
#     4   9  19  38  59  81 117 159 196 235 287 352
#     4  10  22  41  62  84 116 158 195 235 298 365
#     4  10  21  35  58  89 119 150 193 246 291 337
#     4   9  20  37  60  83 110 156 199 231 284 353
#     4  11  23  41  64  93 122 158 207 253 300 365
#
# _framework density 19.753086
#
# number of rings (size 3 to 8) (size 9 to 14) (size 15 to 20)
#    0.000    2.000    1.000    1.500    4.200    2.800 
#    0.000    1.500    0.000    0.000    0.000    0.000 
#    0.000    0.000    0.000    0.000    0.000    0.000 
#
# Total GULP energy -223168.997820 kJ/mol
# GULP energy per Si atom -5579.224946 kJ/mol
# Density = 1.970813 g / cm^3
# Si number density = 19.753086 Si / 1000 Ang^3
#
#
#
# Elastic Constant Matrix: (Units=GPa)
#
#
# Indices 1 2 3 4 5 6 
#
# 1 34.8984 21.3955 44.9263 0.0000 0.0000 0.0000
# 2 21.3955 84.1012 38.8730 0.0000 0.0000 0.0000
# 3 44.9263 38.8730 116.3846 0.0000 0.0000 0.0000
# 4 0.0000 0.0000 0.0000 21.4102 0.0000 0.0000
# 5 0.0000 0.0000 0.0000 0.0000 32.0479 0.0000
# 6 0.0000 0.0000 0.0000 0.0000 0.0000 26.3779
#
#
#
# Elastic Compliance Matrix: (Units=1/GPa)
#
#
# Indices 1 2 3 4 5 6 
#
# 1 0.058886 -0.005291 -0.020964 0.000000 0.000000 0.000000
# 2 -0.005291 0.014537 -0.002813 0.000000 0.000000 0.000000
# 3 -0.020964 -0.002813 0.017624 0.000000 0.000000 0.000000
# 4 0.000000 0.000000 0.000000 0.046707 0.000000 0.000000
# 5 0.000000 0.000000 0.000000 0.000000 0.031203 0.000000
# 6 0.000000 0.000000 0.000000 0.000000 0.000000 0.037911
#
#
# Mechanical properties :
#
#
# Convention : Reuss Voigt Hill
#
# Bulk Modulus (GPa) = 30.38452 49.53041 39.95747
# Shear Modulus (GPa) = 18.11774 24.64649 21.38212
#
# Velocity S-wave (km/s) = 3.03183 3.53615 3.29366
# Velocity P-wave (km/s) = 5.26038 6.46542 5.89378
#
# Compressibility (1/GPa) = 0.03291150
#
# Stress axis : x y z
#
# Youngs Moduli (GPa) = 16.98201 68.79172 56.74069
#
# Poissons Ratio (x) = 0.36397 1.18949
# Poissons Ratio (y) = 0.08985 0.15961
# Poissons Ratio (z) = 0.35601 0.19351
#
# Static dielectric constant tensor:
#      x y z
#    x 1.658240 0.000000 0.000000 
#    y 0.000000 1.683410 0.000000 
#    z 0.000000 0.000000 1.698520 
# 
# From -- ./inp_files/19910.got.cif
#   From: 2010.05.17/outbox.ucp.g08.bks.cvg/sg59_10_cif.got.tgz:19910.got - 2010.06.11 16:43:56.
