data_PCOD9453433
_publ_section_title
;
Structure prediction by ZEFSAII (Michael W. Deem and Ramdas Pophale) SiO2 
 PCOD9453433
Probable space group: P M M N
;
_chemical_formula_sum "Si O2"
_cell_formula_units_Z 40
_cell_length_a 24.000000
_cell_length_b 9.000000
_cell_length_c 9.000000
_cell_angle_alpha 90.000000
_cell_angle_beta 90.000000
_cell_angle_gamma 90.000000
_cell_volume 1944.000000
_symmetry_space_group_name_H-M "P M M N"
_symmetry_group_IT_number 59
_space_group.IT_coordinate_system_code '2'
_symmetry_cell_setting 'orthorhombic'
loop_
_space_group_symop_operation_xyz
x,y,z
1/2-x,1/2-y,z
1/2+x,-y,-z
-x,1/2+y,-z
-x,-y,-z
1/2+x,1/2+y,-z
1/2-x,y,z
x,1/2-y,z
loop_
_atom_site_type_symbol
_atom_site_label
_atom_site_fract_x
_atom_site_fract_y
_atom_site_fract_z
Si Si1 0.311227 0.428719 0.469418
Si Si2 0.814524 0.583890 0.073553
Si Si3 0.593614 0.579802 0.333279
Si Si4 0.013303 0.569942 0.159985
Si Si5 0.142522 0.923058 0.198263
O O1 0.250000 0.479571 0.522791
O O2 0.312106 0.250000 0.489363
O O3 0.367803 0.494016 0.541895
O O4 0.319198 0.475130 0.300882
O O5 0.750000 0.565584 0.121317
O O6 0.817851 0.750000 0.003705
O O7 0.860585 0.585923 0.202218
O O8 0.834212 0.455375 0.964857
O O9 0.580859 0.750000 0.379835
O O10 0.535161 0.517507 0.273844
O O11 0.008968 0.750000 0.148582
O O12 0.076929 0.534605 0.203502
O O13 0.000000 0.500000 0.000000
O O14 0.147655 0.750000 0.237289
#
# Coordination Sequence:
#
# PCOD9453433 Si02
#       5
#     8   8   8   8   8
#     4  10  21  38  59  82 109 145 189 232 276 327
#     4  10  19  33  57  84 106 139 189 235 276 324
#     4   9  18  35  59  83 108 139 183 238 280 314
#     4  10  20  36  58  83 112 145 183 228 279 330
#     4  11  23  36  53  81 116 150 182 221 276 337
#
# _framework density 20.576132000000001
#
# number of rings (size 3 to 8) (size 9 to 14) (size 15 to 20)
#    0.000    2.000    2.000    1.800    0.000    7.200 
#    0.000    2.000    0.000    2.400    0.000    0.000 
#    0.000    0.000    0.000    0.000    0.000    0.000 
#
# Total GULP energy -222803.424322 kJ/mol
# GULP energy per Si atom -5570.085608 kJ/mol
# Density = 2.052930 g / cm^3
# Si number density = 20.576132 Si / 1000 Ang^3
#
#
#
# Elastic Constant Matrix: (Units=GPa)
#
#
# Indices 1 2 3 4 5 6 
#
# 1 120.6296 15.8169 2.1718 0.0000 0.0000 0.0000
# 2 15.8169 4.7870 2.5695 0.0000 0.0000 0.0000
# 3 2.1718 2.5695 36.3020 0.0000 0.0000 0.0000
# 4 0.0000 0.0000 0.0000 8.2806 0.0000 0.0000
# 5 0.0000 0.0000 0.0000 0.0000 -3.7701 0.0000
# 6 0.0000 0.0000 0.0000 0.0000 0.0000 18.0030
#
#
#
# Elastic Compliance Matrix: (Units=1/GPa)
#
#
# Indices 1 2 3 4 5 6 
#
# 1 0.014875 -0.050594 0.002691 0.000000 0.000000 0.000000
# 2 -0.050594 0.389227 -0.024523 0.000000 0.000000 0.000000
# 3 0.002691 -0.024523 0.029121 0.000000 0.000000 0.000000
# 4 0.000000 0.000000 0.000000 0.120764 0.000000 0.000000
# 5 0.000000 0.000000 0.000000 0.000000 -0.265247 0.000000
# 6 0.000000 0.000000 0.000000 0.000000 0.000000 0.055546
#
#
# Mechanical properties :
#
#
# Convention : Reuss Voigt Hill
#
# Bulk Modulus (GPa) = 3.46773 22.53722 13.00248
# Shear Modulus (GPa) = 8.54317 13.91339 11.22828
#
# Velocity S-wave (km/s) = 2.03985 2.60319 2.33855
# Velocity P-wave (km/s) = 2.69016 4.47351 3.69116
#
# Compressibility (1/GPa) = 0.28837278
#
# Stress axis : x y z
#
# Youngs Moduli (GPa) = 67.22582 2.56920 34.33904
#
# Poissons Ratio (x) = 0.12999 -0.09241
# Poissons Ratio (y) = 3.40121 0.84209
# Poissons Ratio (z) = -0.18091 0.06300
#
# Static dielectric constant tensor:
#      x y z
#    x 1.636170 0.000000 0.000000 
#    y 0.000000 1.721210 0.000000 
#    z 0.000000 0.000000 1.786650 
# 
# From -- ./inp_files/5644.got.cif
#   From: 2010.05.17/outbox.ucp.g08.bks.cvg/sg59_3_cif.got.tgz:5644.got - 2010.06.11 16:43:56.
