data_PCOD9453713
_publ_section_title
;
Structure prediction by ZEFSAII (Michael W. Deem and Ramdas Pophale) SiO2 
 PCOD9453713
Probable space group: P B C N
;
_chemical_formula_sum "Si O2"
_cell_formula_units_Z 48
_cell_length_a 23.769233
_cell_length_b 5.606603
_cell_length_c 12.856198
_cell_angle_alpha 90.000000
_cell_angle_beta 90.000000
_cell_angle_gamma 90.000000
_cell_volume 1713.276766
_symmetry_space_group_name_H-M "P B C N"
_symmetry_group_IT_number 60
_symmetry_cell_setting 'orthorhombic'
loop_
_space_group_symop_operation_xyz
x,y,z
1/2-x,1/2-y,1/2+z
1/2+x,1/2-y,-z
-x,y,1/2-z
-x,-y,-z
1/2+x,1/2+y,1/2-z
1/2-x,1/2+y,z
x,-y,1/2+z
loop_
_atom_site_type_symbol
_atom_site_label
_atom_site_fract_x
_atom_site_fract_y
_atom_site_fract_z
Si Si1 0.279657 0.123850 0.707097
Si Si2 0.407787 0.107690 0.781166
Si Si3 0.388600 0.391455 0.052629
Si Si4 0.056852 0.395942 0.047830
Si Si5 0.065184 0.892838 0.282488
Si Si6 0.737793 0.407175 0.523581
O O1 0.253124 0.380445 0.733374
O O2 0.343244 0.111453 0.746244
O O3 0.276189 0.113827 0.580102
O O4 0.445096 0.106586 0.675197
O O5 0.421650 0.356532 0.836574
O O6 0.420724 0.857791 0.835867
O O7 0.427494 0.620740 0.024171
O O8 0.395537 0.394567 0.179091
O O9 0.326206 0.436543 0.012800
O O10 0.400934 0.115462 0.026887
O O11 0.000000 0.500000 0.000000
O O12 0.000000 0.890117 0.250000
O O13 0.756015 0.651147 0.577786
#
# Coordination Sequence:
#
# PCOD9453713 Si02
#       6
#     8   8   8   8   8   8
#     4  10  16  25  41  60  83 115 132 156 210 262
#     4  10  19  30  42  64  90 114 143 174 204 250
#     4  10  19  30  42  64  90 114 143 174 204 250
#     4  10  18  29  43  58  83 121 148 172 206 240
#     4  10  18  29  43  58  83 121 148 172 206 240
#     4  10  16  25  41  60  83 115 132 156 210 262
#
# _framework density 28.016490000000001
#
# number of rings (size 3 to 8) (size 9 to 14) (size 15 to 20)
#    0.000    2.000    0.000   11.000    0.000    0.000 
#    0.000    0.000    0.000    0.000    0.000    0.000 
#    0.000    0.000    0.000 1464.000    0.000    0.000 
#
# Total GULP energy -269212.373850 kJ/mol
# GULP energy per Si atom -5608.591122 kJ/mol
# Density = 2.795272 g / cm^3
# Si number density = 28.016490 Si / 1000 Ang^3
#
#
#
# Elastic Constant Matrix: (Units=GPa)
#
#
# Indices 1 2 3 4 5 6 
#
# 1 132.4236 66.1509 8.6413 0.0000 0.0000 0.0000
# 2 66.1509 347.3280 67.0380 0.0000 0.0000 0.0000
# 3 8.6413 67.0380 79.2155 0.0000 0.0000 0.0000
# 4 0.0000 0.0000 0.0000 76.4268 0.0000 0.0000
# 5 0.0000 0.0000 0.0000 0.0000 18.4753 0.0000
# 6 0.0000 0.0000 0.0000 0.0000 0.0000 64.8349
#
#
#
# Elastic Compliance Matrix: (Units=1/GPa)
#
#
# Indices 1 2 3 4 5 6 
#
# 1 0.008363 -0.001693 0.000521 0.000000 0.000000 0.000000
# 2 -0.001693 0.003784 -0.003018 0.000000 0.000000 0.000000
# 3 0.000521 -0.003018 0.015121 0.000000 0.000000 0.000000
# 4 0.000000 0.000000 0.000000 0.013084 0.000000 0.000000
# 5 0.000000 0.000000 0.000000 0.000000 0.054126 0.000000
# 6 0.000000 0.000000 0.000000 0.000000 0.000000 0.015424
#
#
# Mechanical properties :
#
#
# Convention : Reuss Voigt Hill
#
# Bulk Modulus (GPa) = 52.94454 93.62528 73.28491
# Shear Modulus (GPa) = 40.13510 59.75653 49.94582
#
# Velocity S-wave (km/s) = 3.78901 4.62335 4.22682
# Velocity P-wave (km/s) = 6.17097 7.87343 7.07361
#
# Compressibility (1/GPa) = 0.01888769
#
# Stress axis : x y z
#
# Youngs Moduli (GPa) = 119.56779 264.26535 66.13435
#
# Poissons Ratio (x) = 0.44750 -0.03444
# Poissons Ratio (y) = 0.20247 0.19957
# Poissons Ratio (z) = -0.06226 0.79746
#
# Static dielectric constant tensor:
#      x y z
#    x 2.062430 0.000000 0.000000 
#    y 0.000000 2.180430 0.000000 
#    z 0.000000 0.000000 2.272390 
# 
# From -- ./inp_files/21121.got.cif
#   From: 2010.05.17/outbox.cif.g08.bks.cpg/sg60_11_cif.got.tgz:21121.got - 2010.06.03 14:59:27.
