data_PCOD9453945
_publ_section_title
;
Structure prediction by ZEFSAII (Michael W. Deem and Ramdas Pophale) SiO2 
 PCOD9453945
Probable space group: P B C N
;
_chemical_formula_sum "Si O2"
_cell_formula_units_Z 40
_cell_length_a 5.608389
_cell_length_b 30.233361
_cell_length_c 7.933657
_cell_angle_alpha 90.000000
_cell_angle_beta 90.000000
_cell_angle_gamma 90.000000
_cell_volume 1345.234445
_symmetry_space_group_name_H-M "P B C N"
_symmetry_group_IT_number 60
_symmetry_cell_setting 'orthorhombic'
loop_
_space_group_symop_operation_xyz
x,y,z
1/2-x,1/2-y,1/2+z
1/2+x,1/2-y,-z
-x,y,1/2-z
-x,-y,-z
1/2+x,1/2+y,1/2-z
1/2-x,1/2+y,z
x,-y,1/2+z
loop_
_atom_site_type_symbol
_atom_site_label
_atom_site_fract_x
_atom_site_fract_y
_atom_site_fract_z
Si Si1 0.246194 0.005082 0.901929
Si Si2 0.500000 0.931221 0.750000
Si Si3 0.246620 0.801691 0.399257
Si Si4 0.743512 0.794913 0.600001
Si Si5 0.751678 0.398367 0.062757
Si Si6 0.500000 0.368865 0.750000
O O1 0.277801 0.964429 0.774405
O O2 0.244771 0.055838 0.836294
O O3 0.500000 0.000000 0.000000
O O4 0.000000 0.000000 0.000000
O O5 0.462626 0.905062 0.576019
O O6 0.498246 0.799178 0.499540
O O7 0.250599 0.753303 0.311747
O O8 0.255521 0.852587 0.334796
O O9 0.985155 0.799078 0.487863
O O10 0.780048 0.835171 0.727530
O O11 0.537463 0.393594 0.925905
#
# Coordination Sequence:
#
# PCOD9453945 Si02
#       6
#     8   4   8   8   8   4
#     4  10  22  37  55  81 113 145 184 239 292 339
#     4  10  20  36  57  82 112 146 187 242 296 344
#     4   9  18  32  49  72 103 136 171 215 263 321
#     4   9  18  31  48  74 105 133 167 217 268 309
#     4  10  19  33  57  82 106 144 190 227 276 345
#     4  10  18  30  55  82 106 142 185 228 272 340
#
# _framework density 29.734594000000001
#
# number of rings (size 3 to 8) (size 9 to 14) (size 15 to 20)
#    0.000    2.400    0.000    2.400    0.000    9.600 
#    0.000    1.000    0.000    0.000    0.000   19.600 
#    0.000    0.000    0.000    0.000    0.000    0.000 
#
# Total GULP energy -223417.638819 kJ/mol
# GULP energy per Si atom -5585.440970 kJ/mol
# Density = 2.966692 g / cm^3
# Si number density = 29.734594 Si / 1000 Ang^3
#
#
#
# Elastic Constant Matrix: (Units=GPa)
#
#
# Indices 1 2 3 4 5 6 
#
# 1 252.1637 32.9664 62.8153 0.0000 0.0000 0.0000
# 2 32.9664 222.4152 4.9765 0.0000 0.0000 0.0000
# 3 62.8153 4.9765 45.4816 0.0000 0.0000 0.0000
# 4 0.0000 0.0000 0.0000 24.4886 0.0000 0.0000
# 5 0.0000 0.0000 0.0000 0.0000 83.3020 0.0000
# 6 0.0000 0.0000 0.0000 0.0000 0.0000 41.4314
#
#
#
# Elastic Compliance Matrix: (Units=1/GPa)
#
#
# Indices 1 2 3 4 5 6 
#
# 1 0.006160 -0.000724 -0.008428 0.000000 0.000000 0.000000
# 2 -0.000724 0.004592 0.000498 0.000000 0.000000 0.000000
# 3 -0.008428 0.000498 0.033573 0.000000 0.000000 0.000000
# 4 0.000000 0.000000 0.000000 0.040835 0.000000 0.000000
# 5 0.000000 0.000000 0.000000 0.000000 0.012005 0.000000
# 6 0.000000 0.000000 0.000000 0.000000 0.000000 0.024136
#
#
# Mechanical properties :
#
#
# Convention : Reuss Voigt Hill
#
# Bulk Modulus (GPa) = 37.01544 80.17523 58.59534
# Shear Modulus (GPa) = 33.87170 57.79788 45.83479
#
# Velocity S-wave (km/s) = 3.37877 4.41363 3.93041
# Velocity P-wave (km/s) = 5.26280 7.27981 6.35188
#
# Compressibility (1/GPa) = 0.02701575
#
# Stress axis : x y z
#
# Youngs Moduli (GPa) = 162.33973 217.75450 29.78595
#
# Poissons Ratio (x) = 0.15775 0.25104
# Poissons Ratio (y) = 0.11761 -0.01484
# Poissons Ratio (z) = 1.36825 -0.10845
#
# Static dielectric constant tensor:
#      x y z
#    x 2.277390 0.000000 0.000000 
#    y 0.000000 2.328890 0.000000 
#    z 0.000000 0.000000 2.464670 
# 
# From -- ./inp_files/9206.got.cif
#   From: 2010.05.17/outbox.cif.g08.bks.cpg/sg60_5_cif.got.tgz:9206.got - 2010.06.03 14:59:27.
