data_PCOD9453264
_publ_section_title
;
Structure prediction by ZEFSAII (Michael W. Deem and Ramdas Pophale) SiO2 
 PCOD9453264
Probable space group: P M M N
;
_chemical_formula_sum "Si O2"
_cell_formula_units_Z 64
_cell_length_a 17.977362
_cell_length_b 7.486126
_cell_length_c 24.235799
_cell_angle_alpha 90.000000
_cell_angle_beta 90.000000
_cell_angle_gamma 90.000000
_cell_volume 3261.673147
_symmetry_space_group_name_H-M "P M M N"
_symmetry_group_IT_number 59
_space_group.IT_coordinate_system_code '2'
_symmetry_cell_setting 'orthorhombic'
loop_
_space_group_symop_operation_xyz
x,y,z
1/2-x,1/2-y,z
1/2+x,-y,-z
-x,1/2+y,-z
-x,-y,-z
1/2+x,1/2+y,-z
1/2-x,y,z
x,1/2-y,z
loop_
_atom_site_type_symbol
_atom_site_label
_atom_site_fract_x
_atom_site_fract_y
_atom_site_fract_z
Si Si1 0.667858 0.034098 0.317343
Si Si2 0.570458 0.538812 0.960675
Si Si3 0.590352 0.465651 0.428545
Si Si4 0.029973 0.041705 0.863483
Si Si5 0.983734 0.958389 0.257901
Si Si6 0.060112 0.958258 0.366390
Si Si7 0.165564 0.468833 0.940493
Si Si8 0.664612 0.469056 0.541176
O O1 0.750000 0.972770 0.301512
O O2 0.666464 0.250000 0.314545
O O3 0.648722 0.984811 0.380489
O O4 0.600799 0.966988 0.279849
O O5 0.578799 0.750000 0.953837
O O6 0.542989 0.466978 0.902121
O O7 0.500000 0.500000 0.000000
O O8 0.639458 0.474510 0.997862
O O9 0.586345 0.250000 0.429699
O O10 0.511160 0.532339 0.407006
O O11 0.616716 0.527511 0.488264
O O12 0.047970 0.250000 0.854903
O O13 0.014885 0.962089 0.803302
O O14 0.101706 0.969546 0.897388
O O15 0.005058 0.750000 0.253259
O O16 0.033778 0.036627 0.307697
O O17 0.076515 0.750000 0.356579
O O18 0.127860 0.033014 0.401906
O O19 0.250000 0.523385 0.927929
O O20 0.163714 0.250000 0.940385
O O21 0.750000 0.522018 0.535194
O O22 0.662634 0.250000 0.541189
#
# Coordination Sequence:
#
# PCOD9453264 Si02
#       8
#     8   8   8   8   8   8   8   8
#     4   9  17  28  41  59  85 114 142 176 218 262
#     4   9  16  27  45  66  88 114 141 172 209 247
#     4   9  16  27  44  63  83 109 141 176 217 269
#     4   9  17  29  45  63  85 115 149 181 208 244
#     4   9  18  30  43  61  85 115 149 182 215 249
#     4   9  17  29  44  62  85 111 141 180 221 259
#     4   8  14  25  42  64  86 107 134 167 202 242
#     4   9  16  26  43  65  84 106 141 182 222 267
#
# _framework density 19.621832000000001
#
# number of rings (size 3 to 8) (size 9 to 14) (size 15 to 20)
#    0.000    3.125    0.000    1.875    0.000    2.750 
#    0.000    1.250    0.000   12.375    0.000    1.750 
#    0.000    0.000    0.000    0.000    0.000    0.000 
#
# Total GULP energy -356565.746840 kJ/mol
# GULP energy per Si atom -5571.339794 kJ/mol
# Density = 1.957717 g / cm^3
# Si number density = 19.621832 Si / 1000 Ang^3
#
#
#
# Elastic Constant Matrix: (Units=GPa)
#
#
# Indices 1 2 3 4 5 6 
#
# 1 29.2169 -0.4583 36.9395 0.0000 0.0000 0.0000
# 2 -0.4583 50.9813 5.7624 0.0000 0.0000 0.0000
# 3 36.9395 5.7624 159.2815 0.0000 0.0000 0.0000
# 4 0.0000 0.0000 0.0000 -3.8113 0.0000 0.0000
# 5 0.0000 0.0000 0.0000 0.0000 10.0417 0.0000
# 6 0.0000 0.0000 0.0000 0.0000 0.0000 9.7593
#
#
#
# Elastic Compliance Matrix: (Units=1/GPa)
#
#
# Indices 1 2 3 4 5 6 
#
# 1 0.048575 0.001717 -0.011327 0.000000 0.000000 0.000000
# 2 0.001717 0.019756 -0.001113 0.000000 0.000000 0.000000
# 3 -0.011327 -0.001113 0.008945 0.000000 0.000000 0.000000
# 4 0.000000 0.000000 0.000000 -0.262380 0.000000 0.000000
# 5 0.000000 0.000000 0.000000 0.000000 0.099585 0.000000
# 6 0.000000 0.000000 0.000000 0.000000 0.000000 0.102466
#
#
# Mechanical properties :
#
#
# Convention : Reuss Voigt Hill
#
# Bulk Modulus (GPa) = 17.91145 35.99631 26.95388
# Shear Modulus (GPa) = 87.71299 16.34703 52.03001
#
# Velocity S-wave (km/s) = 6.69319 2.88949 5.15499
# Velocity P-wave (km/s) = 8.29939 5.43296 7.01416
#
# Compressibility (1/GPa) = 0.05583021
#
# Stress axis : x y z
#
# Youngs Moduli (GPa) = 20.58675 50.61687 111.78922
#
# Poissons Ratio (x) = -0.08691 1.26627
# Poissons Ratio (y) = -0.03535 0.12441
# Poissons Ratio (z) = 0.23319 0.05633
#
# Static dielectric constant tensor:
#      x y z
#    x 1.667690 0.000000 0.000000 
#    y 0.000000 1.741960 0.000000 
#    z 0.000000 0.000000 1.715230 
# 
# From -- ./inp_files/31726.got.cif
#   From: 2010.05.17/outbox.cif.g08.bks.cpg/sg59_16_cif.got.tgz:31726.got - 2010.06.03 14:40:33.
