data_PCOD9453752
_publ_section_title
;
Structure prediction by ZEFSAII (Michael W. Deem and Ramdas Pophale) SiO2 
 PCOD9453752
Probable space group: P B C N
;
_chemical_formula_sum "Si O2"
_cell_formula_units_Z 64
_cell_length_a 8.305934
_cell_length_b 20.027182
_cell_length_c 15.026050
_cell_angle_alpha 90.000000
_cell_angle_beta 90.000000
_cell_angle_gamma 90.000000
_cell_volume 2499.500051
_symmetry_space_group_name_H-M "P B C N"
_symmetry_group_IT_number 60
_symmetry_cell_setting 'orthorhombic'
loop_
_space_group_symop_operation_xyz
x,y,z
1/2-x,1/2-y,1/2+z
1/2+x,1/2-y,-z
-x,y,1/2-z
-x,-y,-z
1/2+x,1/2+y,1/2-z
1/2-x,1/2+y,z
x,-y,1/2+z
loop_
_atom_site_type_symbol
_atom_site_label
_atom_site_fract_x
_atom_site_fract_y
_atom_site_fract_z
Si Si1 0.252066 0.571193 0.217773
Si Si2 0.505606 0.247649 0.640301
Si Si3 0.222940 0.509278 0.462301
Si Si4 0.931300 0.891213 0.611013
Si Si5 0.645801 0.249356 0.373115
Si Si6 0.327718 0.301449 0.316754
Si Si7 0.684883 0.066636 0.725531
Si Si8 0.930971 0.396520 0.933123
O O1 0.402222 0.598619 0.162166
O O2 0.290073 0.598479 0.315579
O O3 0.252850 0.491628 0.213368
O O4 0.086701 0.590667 0.171831
O O5 0.500000 0.258255 0.750000
O O6 0.560549 0.313952 0.588303
O O7 0.328689 0.227164 0.606580
O O8 0.659062 0.200386 0.630867
O O9 0.386554 0.551932 0.458802
O O10 0.188541 0.469576 0.370141
O O11 0.203502 0.447486 0.528594
O O12 0.089250 0.568670 0.473964
O O13 0.484817 0.293862 0.376650
O O14 0.664035 0.246116 0.262986
O O15 0.605210 0.182549 0.429780
O O16 0.305608 0.371908 0.268936
O O17 0.500000 0.084540 0.750000
#
# Coordination Sequence:
#
# PCOD9453752 Si02
#       8
#     8   8   8   8   8   8   8   8
#     4  10  19  33  60  87 120 153 196 250 307 377
#     4  10  16  32  54  85 118 148 194 254 298 345
#     4  10  24  35  61  89 128 160 195 253 314 391
#     4  10  18  33  54  92 117 150 199 257 305 364
#     4  10  20  35  61  85 118 154 197 263 298 342
#     4  10  22  34  58  90 112 154 210 256 295 357
#     4  11  21  39  61  88 121 162 202 252 317 363
#     4  11  20  40  58  90 123 160 206 243 320 382
#
# _framework density 25.605118999999998
#
# number of rings (size 3 to 8) (size 9 to 14) (size 15 to 20)
#    0.000    1.750    3.750    2.625    0.000    7.500 
#    0.000    0.000    5.500    0.000    0.000    0.000 
#    0.000    0.000    0.000    0.000    0.000    0.000 
#
# Total GULP energy -356708.545049 kJ/mol
# GULP energy per Si atom -5573.571016 kJ/mol
# Density = 2.554684 g / cm^3
# Si number density = 25.605119 Si / 1000 Ang^3
#
#
#
# Elastic Constant Matrix: (Units=GPa)
#
#
# Indices 1 2 3 4 5 6 
#
# 1 93.1601 2.6490 -18.8934 0.0000 0.0000 0.0000
# 2 2.6490 69.6319 -10.1117 0.0000 0.0000 0.0000
# 3 -18.8934 -10.1117 42.2724 0.0000 0.0000 0.0000
# 4 0.0000 0.0000 0.0000 16.7457 0.0000 0.0000
# 5 0.0000 0.0000 0.0000 0.0000 24.3378 0.0000
# 6 0.0000 0.0000 0.0000 0.0000 0.0000 29.6497
#
#
#
# Elastic Compliance Matrix: (Units=1/GPa)
#
#
# Indices 1 2 3 4 5 6 
#
# 1 0.011811 0.000329 0.005358 0.000000 0.000000 0.000000
# 2 0.000329 0.014887 0.003708 0.000000 0.000000 0.000000
# 3 0.005358 0.003708 0.026938 0.000000 0.000000 0.000000
# 4 0.000000 0.000000 0.000000 0.059717 0.000000 0.000000
# 5 0.000000 0.000000 0.000000 0.000000 0.041088 0.000000
# 6 0.000000 0.000000 0.000000 0.000000 0.000000 0.033727
#
#
# Mechanical properties :
#
#
# Convention : Reuss Voigt Hill
#
# Bulk Modulus (GPa) = 13.80742 16.92804 15.36773
# Shear Modulus (GPa) = 25.83690 29.57467 27.70578
#
# Velocity S-wave (km/s) = 3.18000 3.40226 3.29301
# Velocity P-wave (km/s) = 4.34596 4.69674 4.52475
#
# Compressibility (1/GPa) = 0.07242485
#
# Stress axis : x y z
#
# Youngs Moduli (GPa) = 84.66379 67.17187 37.12277
#
# Poissons Ratio (x) = -0.02208 -0.19889
# Poissons Ratio (y) = -0.02783 -0.13765
# Poissons Ratio (z) = -0.45360 -0.24907
#
# Static dielectric constant tensor:
#      x y z
#    x 2.018060 0.000000 0.000000 
#    y 0.000000 2.025780 0.000000 
#    z 0.000000 0.000000 1.950990 
# 
# From -- ./inp_files/19700.got.cif
#   From: 2010.05.17/outbox.cif.g08.bks.cpg/sg60_10_cif.got.tgz:19700.got - 2010.06.03 14:59:27.
