data_PCOD9453577
_publ_section_title
;
Structure prediction by ZEFSAII (Michael W. Deem and Ramdas Pophale) SiO2 
 PCOD9453577
Probable space group: P M M N
;
_chemical_formula_sum "Si O2"
_cell_formula_units_Z 48
_cell_length_a 18.000000
_cell_length_b 9.000000
_cell_length_c 15.000000
_cell_angle_alpha 90.000000
_cell_angle_beta 90.000000
_cell_angle_gamma 90.000000
_cell_volume 2430.000000
_symmetry_space_group_name_H-M "P M M N"
_symmetry_group_IT_number 59
_space_group.IT_coordinate_system_code '2'
_symmetry_cell_setting 'orthorhombic'
loop_
_space_group_symop_operation_xyz
x,y,z
1/2-x,1/2-y,z
1/2+x,-y,-z
-x,1/2+y,-z
-x,-y,-z
1/2+x,1/2+y,-z
1/2-x,y,z
x,1/2-y,z
loop_
_atom_site_type_symbol
_atom_site_label
_atom_site_fract_x
_atom_site_fract_y
_atom_site_fract_z
Si Si1 0.577655 0.920017 0.532079
Si Si2 0.887829 0.577555 0.214409
Si Si3 0.750000 0.074464 0.305530
Si Si4 0.833131 0.923588 0.867511
Si Si5 0.837495 0.078582 0.052779
Si Si6 0.750000 0.573728 0.493734
Si Si7 0.967515 0.917317 0.735331
O O1 0.577032 0.750000 0.495288
O O2 0.664100 0.977815 0.520326
O O3 0.565205 0.915107 0.637180
O O4 0.500000 0.000000 0.500000
O O5 0.869995 0.750000 0.227628
O O6 0.824369 0.471907 0.254371
O O7 0.886474 0.532654 0.110842
O O8 0.966165 0.533009 0.255632
O O9 0.750000 0.250000 0.324847
O O10 0.750000 0.971072 0.391462
O O11 0.750000 0.944709 0.828870
O O12 0.836719 0.750000 0.896535
O O13 0.899404 0.949827 0.800114
O O14 0.842151 0.031377 0.950694
O O15 0.750000 0.061692 0.076654
O O16 0.858158 0.250000 0.066995
O O17 0.750000 0.750000 0.513339
O O18 0.996395 0.750000 0.755614
#
# Coordination Sequence:
#
# PCOD9453577 Si02
#       7
#     8   8   4   8   8   4   8
#     4  10  22  40  63  90 124 161 204 255 310 368
#     4  12  24  38  60  88 120 158 200 248 300 358
#     4  12  24  40  62  89 120 153 196 247 304 367
#     4   9  19  36  60  87 118 157 204 251 297 354
#     4  10  20  36  59  86 119 158 199 247 302 356
#     4  10  22  40  64  93 122 161 206 251 306 373
#     4  10  22  39  60  88 121 160 202 250 303 357
#
# _framework density 19.753086
#
# number of rings (size 3 to 8) (size 9 to 14) (size 15 to 20)
#    0.000    1.667    0.833    3.750    1.167    6.000 
#    0.000    0.000    0.000    0.000    0.000    0.000 
#    0.000    0.000    0.000    0.000    0.000    0.000 
#
# Total GULP energy -267446.274760 kJ/mol
# GULP energy per Si atom -5571.797391 kJ/mol
# Density = 1.970813 g / cm^3
# Si number density = 19.753086 Si / 1000 Ang^3
#
#
#
# Elastic Constant Matrix: (Units=GPa)
#
#
# Indices 1 2 3 4 5 6 
#
# 1 103.6165 11.1451 28.9367 0.0000 0.0000 0.0000
# 2 11.1451 -5.9465 -2.0375 0.0000 0.0000 0.0000
# 3 28.9367 -2.0375 53.4071 0.0000 0.0000 0.0000
# 4 0.0000 0.0000 0.0000 15.0291 0.0000 0.0000
# 5 0.0000 0.0000 0.0000 0.0000 23.5344 0.0000
# 6 0.0000 0.0000 0.0000 0.0000 0.0000 23.1401
#
#
#
# Elastic Compliance Matrix: (Units=1/GPa)
#
#
# Indices 1 2 3 4 5 6 
#
# 1 0.008862 0.018019 -0.004114 0.000000 0.000000 0.000000
# 2 0.018019 -0.129359 -0.014698 0.000000 0.000000 0.000000
# 3 -0.004114 -0.014698 0.020392 0.000000 0.000000 0.000000
# 4 0.000000 0.000000 0.000000 0.066538 0.000000 0.000000
# 5 0.000000 0.000000 0.000000 0.000000 0.042491 0.000000
# 6 0.000000 0.000000 0.000000 0.000000 0.000000 0.043215
#
#
# Mechanical properties :
#
#
# Convention : Reuss Voigt Hill
#
# Bulk Modulus (GPa) = -9.83367 25.24063 7.70348
# Shear Modulus (GPa) = 252.17200 19.87624 136.02412
#
# Velocity S-wave (km/s) = 11.31102 3.17556 8.30733
# Velocity P-wave (km/s) = 12.86843 5.12361 9.79408
#
# Compressibility (1/GPa) = -0.10169139
#
# Stress axis : x y z
#
# Youngs Moduli (GPa) = 112.84420 -7.73041 49.03787
#
# Poissons Ratio (x) = 0.13929 0.20174
# Poissons Ratio (y) = -2.03330 0.72075
# Poissons Ratio (z) = 0.46424 -0.11362
#
# Static dielectric constant tensor:
#      x y z
#    x 1.710700 0.000000 0.000000 
#    y 0.000000 1.763610 0.000000 
#    z 0.000000 0.000000 1.729010 
# 
# From -- ./inp_files/23733.got.cif
#   From: 2010.05.17/outbox.ucp.g08.bks.cvg/sg59_12_cif.got.tgz:23733.got - 2010.06.11 16:43:56.
