data_PCOD9453802
_publ_section_title
;
Structure prediction by ZEFSAII (Michael W. Deem and Ramdas Pophale) SiO2 
 PCOD9453802
Probable space group: P B C N
;
_chemical_formula_sum "Si O2"
_cell_formula_units_Z 32
_cell_length_a 7.076706
_cell_length_b 19.400047
_cell_length_c 8.370254
_cell_angle_alpha 90.000000
_cell_angle_beta 90.000000
_cell_angle_gamma 90.000000
_cell_volume 1149.139022
_symmetry_space_group_name_H-M "P B C N"
_symmetry_group_IT_number 60
_symmetry_cell_setting 'orthorhombic'
loop_
_space_group_symop_operation_xyz
x,y,z
1/2-x,1/2-y,1/2+z
1/2+x,1/2-y,-z
-x,y,1/2-z
-x,-y,-z
1/2+x,1/2+y,1/2-z
1/2-x,1/2+y,z
x,-y,1/2+z
loop_
_atom_site_type_symbol
_atom_site_label
_atom_site_fract_x
_atom_site_fract_y
_atom_site_fract_z
Si Si1 0.692499 0.143779 0.530710
Si Si2 0.729651 0.026109 0.740394
Si Si3 0.734657 0.104454 0.056761
Si Si4 0.228753 0.265593 0.763043
O O1 0.786803 0.073861 0.590907
O O2 0.490921 0.118076 0.464162
O O3 0.781034 0.193887 0.398457
O O4 0.688638 0.192099 0.688676
O O5 0.500000 0.027506 0.750000
O O6 0.777195 0.947507 0.702156
O O7 0.796355 0.064202 0.899066
O O8 0.796204 0.181128 0.099326
O O9 0.000000 0.257746 0.750000
#
# Coordination Sequence:
#
# PCOD9453802 Si02
#       4
#     8   8   8   8
#     4  10  19  31  48  73 105 141 173 218 271 310
#     4  10  17  29  50  79 105 130 168 224 273 315
#     4  10  19  32  53  82 108 132 174 227 275 323
#     4  10  20  34  50  76 109 143 180 219 264 326
#
# _framework density 27.846934999999998
#
# number of rings (size 3 to 8) (size 9 to 14) (size 15 to 20)
#    0.000    2.000    0.000    8.250    0.000    2.000 
#    0.000    0.000    0.000    0.000    0.000   68.250 
#    0.000    0.000    0.000    0.000    0.000    0.000 
#
# Total GULP energy -179126.131931 kJ/mol
# GULP energy per Si atom -5597.691623 kJ/mol
# Density = 2.778355 g / cm^3
# Si number density = 27.846935 Si / 1000 Ang^3
#
#
#
# Elastic Constant Matrix: (Units=GPa)
#
#
# Indices 1 2 3 4 5 6 
#
# 1 160.2190 17.5151 17.9205 0.0000 0.0000 0.0000
# 2 17.5151 207.6418 32.9151 0.0000 0.0000 0.0000
# 3 17.9205 32.9151 97.7838 0.0000 0.0000 0.0000
# 4 0.0000 0.0000 0.0000 75.8437 0.0000 0.0000
# 5 0.0000 0.0000 0.0000 0.0000 -12.4590 0.0000
# 6 0.0000 0.0000 0.0000 0.0000 0.0000 -6.6601
#
#
#
# Elastic Compliance Matrix: (Units=1/GPa)
#
#
# Indices 1 2 3 4 5 6 
#
# 1 0.006399 -0.000374 -0.001047 0.000000 0.000000 0.000000
# 2 -0.000374 0.005109 -0.001651 0.000000 0.000000 0.000000
# 3 -0.001047 -0.001651 0.010974 0.000000 0.000000 0.000000
# 4 0.000000 0.000000 0.000000 0.013185 0.000000 0.000000
# 5 0.000000 0.000000 0.000000 0.000000 -0.080263 0.000000
# 6 0.000000 0.000000 0.000000 0.000000 0.000000 -0.150147
#
#
# Mechanical properties :
#
#
# Convention : Reuss Voigt Hill
#
# Bulk Modulus (GPa) = 61.20394 66.92734 64.06564
# Shear Modulus (GPa) = -27.29979 37.83116 5.26568
#
# Velocity S-wave (km/s) = -3.13445 3.68984 1.37661
# Velocity P-wave (km/s) = 2.98775 6.49918 5.05797
#
# Compressibility (1/GPa) = 0.01633882
#
# Stress axis : x y z
#
# Youngs Moduli (GPa) = 156.26394 195.72199 91.12135
#
# Poissons Ratio (x) = 0.07317 0.09540
# Poissons Ratio (y) = 0.05842 0.15047
# Poissons Ratio (z) = 0.16360 0.32320
#
# Static dielectric constant tensor:
#      x y z
#    x 2.160400 0.000000 0.000000 
#    y 0.000000 2.007670 0.000000 
#    z 0.000000 0.000000 2.259290 
# 
# From -- ./inp_files/3567.got.cif
#   From: 2010.05.17/outbox.cif.g08.bks.cpg/sg60_2_cif.got.tgz:3567.got - 2010.06.03 14:59:27.
