data_PCOD9453765
_publ_section_title
;
Structure prediction by ZEFSAII (Michael W. Deem and Ramdas Pophale) SiO2 
 PCOD9453765
Probable space group: P B C N
;
_chemical_formula_sum "Si O2"
_cell_formula_units_Z 56
_cell_length_a 32.207294
_cell_length_b 5.462758
_cell_length_c 13.623130
_cell_angle_alpha 90.000000
_cell_angle_beta 90.000000
_cell_angle_gamma 90.000000
_cell_volume 2396.862388
_symmetry_space_group_name_H-M "P B C N"
_symmetry_group_IT_number 60
_symmetry_cell_setting 'orthorhombic'
loop_
_space_group_symop_operation_xyz
x,y,z
1/2-x,1/2-y,1/2+z
1/2+x,1/2-y,-z
-x,y,1/2-z
-x,-y,-z
1/2+x,1/2+y,1/2-z
1/2-x,1/2+y,z
x,-y,1/2+z
loop_
_atom_site_type_symbol
_atom_site_label
_atom_site_fract_x
_atom_site_fract_y
_atom_site_fract_z
Si Si1 0.500000 0.194210 0.750000
Si Si2 0.772572 0.505043 0.072798
Si Si3 0.000000 0.000000 0.000000
Si Si4 0.238795 0.000919 0.145454
Si Si5 0.356195 0.492602 0.579107
Si Si6 0.061130 0.910562 0.175780
Si Si7 0.864146 0.507074 0.542610
Si Si8 0.548873 0.115758 0.132085
O O1 0.460341 0.357539 0.725612
O O2 0.487328 0.085871 0.857476
O O3 0.752732 0.246508 0.099946
O O4 0.820755 0.524208 0.100446
O O5 0.767704 0.503310 0.952839
O O6 0.962478 0.111526 0.927513
O O7 0.965828 0.833548 0.062512
O O8 0.251081 0.249229 0.197716
O O9 0.190814 0.007123 0.116514
O O10 0.390482 0.546221 0.661429
O O11 0.364829 0.227015 0.531112
O O12 0.360889 0.724949 0.506307
O O13 0.051193 0.696902 0.253240
O O14 0.906913 0.486941 0.601195
#
# Coordination Sequence:
#
# PCOD9453765 Si02
#       8
#     4   8   4   8   8   8   8   8
#     4  12  26  52  70  96 146 188 234 310 374 430
#     4  10  16  33  60  98 140 176 231 288 338 416
#     4  12  22  50  72  94 132 190 240 286 384 428
#     4  10  16  33  60  98 138 177 232 288 338 415
#     4  12  24  40  68 108 139 186 241 289 354 428
#     4  12  28  47  69 105 141 181 240 306 361 440
#     4  12  24  39  69 110 137 187 241 288 356 426
#     4  12  28  47  72 104 144 185 246 311 367 443
#
# _framework density 23.363879000000001
#
# number of rings (size 3 to 8) (size 9 to 14) (size 15 to 20)
#    0.000    0.571   10.000    0.000    6.000    0.571 
#    0.000    0.000    0.000    1.714    0.000    0.000 
#    0.000    0.000    0.000    0.000    0.000    0.000 
#
# Total GULP energy -312042.117441 kJ/mol
# GULP energy per Si atom -5572.180669 kJ/mol
# Density = 2.331070 g / cm^3
# Si number density = 23.363879 Si / 1000 Ang^3
#
#
#
# Elastic Constant Matrix: (Units=GPa)
#
#
# Indices 1 2 3 4 5 6 
#
# 1 153.4120 8.1329 8.8694 0.0000 0.0000 0.0000
# 2 8.1329 90.4590 -9.3184 0.0000 0.0000 0.0000
# 3 8.8694 -9.3184 52.8448 0.0000 0.0000 0.0000
# 4 0.0000 0.0000 0.0000 -111.0801 0.0000 0.0000
# 5 0.0000 0.0000 0.0000 0.0000 -7.7916 0.0000
# 6 0.0000 0.0000 0.0000 0.0000 0.0000 -34.9397
#
#
#
# Elastic Compliance Matrix: (Units=1/GPa)
#
#
# Indices 1 2 3 4 5 6 
#
# 1 0.006628 -0.000724 -0.001240 0.000000 0.000000 0.000000
# 2 -0.000724 0.011338 0.002121 0.000000 0.000000 0.000000
# 3 -0.001240 0.002121 0.019505 0.000000 0.000000 0.000000
# 4 0.000000 0.000000 0.000000 -0.009003 0.000000 0.000000
# 5 0.000000 0.000000 0.000000 0.000000 -0.128344 0.000000
# 6 0.000000 0.000000 0.000000 0.000000 0.000000 -0.028621
#
#
# Mechanical properties :
#
#
# Convention : Reuss Voigt Hill
#
# Bulk Modulus (GPa) = 26.46474 34.67596 30.57035
# Shear Modulus (GPa) = -43.02436 -11.49346 -27.25891
#
# Velocity S-wave (km/s) = -4.29591 -2.22036 -3.41942
# Velocity P-wave (km/s) = 3.64070 2.88107 1.57387
#
# Compressibility (1/GPa) = 0.03778613
#
# Stress axis : x y z
#
# Youngs Moduli (GPa) = 150.86473 88.19695 51.26775
#
# Poissons Ratio (x) = 0.06383 0.06358
# Poissons Ratio (y) = 0.10918 -0.10873
# Poissons Ratio (z) = 0.18709 -0.18705
#
# Static dielectric constant tensor:
#      x y z
#    x 1.821990 0.000000 0.000000 
#    y 0.000000 2.593610 0.000000 
#    z 0.000000 0.000000 1.666580 
# 
# From -- ./inp_files/18210.got.cif
#   From: 2010.05.17/outbox.cif.g08.bks.cpg/sg60_10_cif.got.tgz:18210.got - 2010.06.03 14:59:27.
