data_PCOD9453617
_publ_section_title
;
Structure prediction by ZEFSAII (Michael W. Deem and Ramdas Pophale) SiO2 
 PCOD9453617
Probable space group: P M M N
;
_chemical_formula_sum "Si O2"
_cell_formula_units_Z 48
_cell_length_a 9.000000
_cell_length_b 9.000000
_cell_length_c 30.000000
_cell_angle_alpha 90.000000
_cell_angle_beta 90.000000
_cell_angle_gamma 90.000000
_cell_volume 2430.000000
_symmetry_space_group_name_H-M "P M M N"
_symmetry_group_IT_number 59
_space_group.IT_coordinate_system_code '2'
_symmetry_cell_setting 'orthorhombic'
loop_
_space_group_symop_operation_xyz
x,y,z
1/2-x,1/2-y,z
1/2+x,-y,-z
-x,1/2+y,-z
-x,-y,-z
1/2+x,1/2+y,-z
1/2-x,y,z
x,1/2-y,z
loop_
_atom_site_type_symbol
_atom_site_label
_atom_site_fract_x
_atom_site_fract_y
_atom_site_fract_z
Si Si1 0.079073 0.924711 0.119983
Si Si2 0.571897 0.585953 0.282259
Si Si3 0.074402 0.918139 0.959199
Si Si4 0.426393 0.084897 0.207541
Si Si5 0.083746 0.423909 0.459963
Si Si6 0.072033 0.415628 0.614957
O O1 0.250000 0.977138 0.113344
O O2 0.076984 0.750000 0.113181
O O3 0.034238 0.967671 0.169676
O O4 0.971942 0.002223 0.085714
O O5 0.750000 0.583487 0.280186
O O6 0.521512 0.750000 0.266577
O O7 0.506231 0.457904 0.252542
O O8 0.528918 0.571468 0.333646
O O9 0.250000 0.919176 0.965089
O O10 0.020383 0.750000 0.957756
O O11 0.000000 0.000000 0.000000
O O12 0.250000 0.078381 0.214510
O O13 0.465270 0.250000 0.191911
O O14 0.250000 0.483159 0.457246
O O15 0.088064 0.250000 0.468011
O O16 0.000000 0.500000 0.500000
O O17 0.000777 0.460717 0.414681
O O18 0.250000 0.424380 0.612277
O O19 0.029188 0.250000 0.598881
#
# Coordination Sequence:
#
# PCOD9453617 Si02
#       6
#     8   8   8   8   8   8
#     4  10  21  38  60  84 110 144 187 231 276 327
#     4   9  19  36  57  81 110 145 184 226 272 322
#     4  11  24  40  59  85 115 147 184 225 272 327
#     4  10  21  36  55  81 113 148 185 227 275 325
#     4  11  24  39  56  81 111 142 179 223 270 323
#     4   9  19  37  59  82 109 142 182 226 271 322
#
# _framework density 19.753086
#
# number of rings (size 3 to 8) (size 9 to 14) (size 15 to 20)
#    0.000    2.000    0.000    4.000    0.000   11.333 
#    0.000    5.000    0.000    0.000    0.000    0.000 
#    0.000    0.000    0.000    0.000    0.000    0.000 
#
# Total GULP energy -267800.314438 kJ/mol
# GULP energy per Si atom -5579.173217 kJ/mol
# Density = 1.970813 g / cm^3
# Si number density = 19.753086 Si / 1000 Ang^3
#
#
#
# Elastic Constant Matrix: (Units=GPa)
#
#
# Indices 1 2 3 4 5 6 
#
# 1 14.2494 34.6178 37.8671 0.0000 0.0000 0.0000
# 2 34.6178 57.1504 38.0116 0.0000 0.0000 0.0000
# 3 37.8671 38.0116 60.4587 0.0000 0.0000 0.0000
# 4 0.0000 0.0000 0.0000 31.3521 0.0000 0.0000
# 5 0.0000 0.0000 0.0000 0.0000 26.9431 0.0000
# 6 0.0000 0.0000 0.0000 0.0000 0.0000 25.5461
#
#
#
# Elastic Compliance Matrix: (Units=1/GPa)
#
#
# Indices 1 2 3 4 5 6 
#
# 1 -0.077029 0.025042 0.032501 0.000000 0.000000 0.000000
# 2 0.025042 0.021933 -0.029474 0.000000 0.000000 0.000000
# 3 0.032501 -0.029474 0.014715 0.000000 0.000000 0.000000
# 4 0.000000 0.000000 0.000000 0.031896 0.000000 0.000000
# 5 0.000000 0.000000 0.000000 0.000000 0.037115 0.000000
# 6 0.000000 0.000000 0.000000 0.000000 0.000000 0.039145
#
#
# Mechanical properties :
#
#
# Convention : Reuss Voigt Hill
#
# Bulk Modulus (GPa) = 63.46577 39.20572 51.33575
# Shear Modulus (GPa) = 296.06607 18.19240 157.12924
#
# Velocity S-wave (km/s) = 12.25597 3.03807 8.92857
# Velocity P-wave (km/s) = 15.24722 5.67429 11.50381
#
# Compressibility (1/GPa) = 0.01575653
#
# Stress axis : x y z
#
# Youngs Moduli (GPa) = -12.98216 45.59441 67.95997
#
# Poissons Ratio (x) = -1.14177 -2.20878
# Poissons Ratio (y) = 0.32510 2.00304
# Poissons Ratio (z) = 0.42193 1.34384
#
# Static dielectric constant tensor:
#      x y z
#    x 1.672030 0.000000 0.000000 
#    y 0.000000 1.597350 0.000000 
#    z 0.000000 0.000000 1.739810 
# 
# From -- ./inp_files/32893.got.cif
#   From: 2010.05.17/outbox.ucp.g08.bks.cvg/sg59_17_cif.got.tgz:32893.got - 2010.06.11 16:43:56.
