data_PCOD9453590
_publ_section_title
;
Structure prediction by ZEFSAII (Michael W. Deem and Ramdas Pophale) SiO2 
 PCOD9453590
Probable space group: P M M N
;
_chemical_formula_sum "Si O2"
_cell_formula_units_Z 48
_cell_length_a 15.000000
_cell_length_b 15.000000
_cell_length_c 12.000000
_cell_angle_alpha 90.000000
_cell_angle_beta 90.000000
_cell_angle_gamma 90.000000
_cell_volume 2700.000000
_symmetry_space_group_name_H-M "P M M N"
_symmetry_group_IT_number 59
_space_group.IT_coordinate_system_code '2'
_symmetry_cell_setting 'orthorhombic'
loop_
_space_group_symop_operation_xyz
x,y,z
1/2-x,1/2-y,z
1/2+x,-y,-z
-x,1/2+y,-z
-x,-y,-z
1/2+x,1/2+y,-z
1/2-x,y,z
x,1/2-y,z
loop_
_atom_site_type_symbol
_atom_site_label
_atom_site_fract_x
_atom_site_fract_y
_atom_site_fract_z
Si Si1 0.642736 0.510977 0.690245
Si Si2 0.049615 0.643202 0.165743
Si Si3 0.853088 0.480524 0.425375
Si Si4 0.021488 0.858807 0.717954
Si Si5 0.853481 0.644894 0.255953
Si Si6 0.353982 0.642522 0.931465
O O1 0.750000 0.521628 0.716469
O O2 0.600764 0.422630 0.748755
O O3 0.636140 0.499316 0.556465
O O4 0.575729 0.592833 0.723451
O O5 0.065667 0.750000 0.185792
O O6 0.941484 0.630665 0.177733
O O7 0.092627 0.620482 0.045137
O O8 0.750000 0.450715 0.406377
O O9 0.923073 0.406934 0.381484
O O10 0.864371 0.572569 0.355025
O O11 0.015111 0.750000 0.708096
O O12 0.083423 0.881389 0.826191
O O13 0.750000 0.632614 0.212721
O O14 0.858188 0.750000 0.290654
O O15 0.250000 0.609221 0.927573
O O16 0.347583 0.750000 0.929099
#
# Coordination Sequence:
#
# PCOD9453590 Si02
#       6
#     8   8   8   8   8   8
#     4  11  24  40  57  85 122 154 192 240 292 347
#     4  10  20  37  62  87 115 149 191 242 298 348
#     4  10  21  39  60  85 118 150 188 240 289 341
#     4  11  23  39  60  84 115 156 200 239 283 340
#     4   9  18  34  58  87 117 150 189 233 289 354
#     4   9  19  37  60  86 115 150 194 242 290 344
#
# _framework density 17.777778000000001
#
# number of rings (size 3 to 8) (size 9 to 14) (size 15 to 20)
#    0.000    2.000    1.667    1.500    0.000    4.333 
#    0.000    4.167    0.000    3.000    0.000    0.000 
#    0.000    0.000    0.000    0.000    0.000    0.000 
#
# Total GULP energy -267562.219157 kJ/mol
# GULP energy per Si atom -5574.212899 kJ/mol
# Density = 1.773731 g / cm^3
# Si number density = 17.777778 Si / 1000 Ang^3
#
#
#
# Elastic Constant Matrix: (Units=GPa)
#
#
# Indices 1 2 3 4 5 6 
#
# 1 191.2511 56.2082 62.6281 0.0000 0.0000 0.0000
# 2 56.2082 92.5614 27.9578 0.0000 0.0000 0.0000
# 3 62.6281 27.9578 88.7804 0.0000 0.0000 0.0000
# 4 0.0000 0.0000 0.0000 27.0681 0.0000 0.0000
# 5 0.0000 0.0000 0.0000 0.0000 35.0778 0.0000
# 6 0.0000 0.0000 0.0000 0.0000 0.0000 37.0920
#
#
#
# Elastic Compliance Matrix: (Units=1/GPa)
#
#
# Indices 1 2 3 4 5 6 
#
# 1 0.007623 -0.003321 -0.004332 0.000000 0.000000 0.000000
# 2 -0.003321 0.013386 -0.001873 0.000000 0.000000 0.000000
# 3 -0.004332 -0.001873 0.014909 0.000000 0.000000 0.000000
# 4 0.000000 0.000000 0.000000 0.036944 0.000000 0.000000
# 5 0.000000 0.000000 0.000000 0.000000 0.028508 0.000000
# 6 0.000000 0.000000 0.000000 0.000000 0.000000 0.026960
#
#
# Mechanical properties :
#
#
# Convention : Reuss Voigt Hill
#
# Bulk Modulus (GPa) = 59.28547 74.02011 66.65279
# Shear Modulus (GPa) = 32.67895 34.90085 33.78990
#
# Velocity S-wave (km/s) = 4.29206 4.43558 4.36441
# Velocity P-wave (km/s) = 7.61465 8.24373 7.93543
#
# Compressibility (1/GPa) = 0.01686754
#
# Stress axis : x y z
#
# Youngs Moduli (GPa) = 131.17770 74.70564 67.07214
#
# Poissons Ratio (x) = 0.24808 0.29055
# Poissons Ratio (y) = 0.43562 0.12561
# Poissons Ratio (z) = 0.56825 0.13991
#
# Static dielectric constant tensor:
#      x y z
#    x 1.634600 0.000000 0.000000 
#    y 0.000000 1.604160 0.000000 
#    z 0.000000 0.000000 1.612050 
# 
# From -- ./inp_files/16856.got.cif
#   From: 2010.05.17/outbox.ucp.g08.bks.cvg/sg59_9_cif.got.tgz:16856.got - 2010.06.11 16:43:56.
