data_PCOD9453130
_publ_section_title
;
Structure prediction by ZEFSAII (Michael W. Deem and Ramdas Pophale) SiO2 
 PCOD9453130
Probable space group: P M M N
;
_chemical_formula_sum "Si O2"
_cell_formula_units_Z 40
_cell_length_a 8.968627
_cell_length_b 27.368808
_cell_length_c 9.175752
_cell_angle_alpha 90.000000
_cell_angle_beta 90.000000
_cell_angle_gamma 90.000000
_cell_volume 2252.285870
_symmetry_space_group_name_H-M "P M M N"
_symmetry_group_IT_number 59
_space_group.IT_coordinate_system_code '2'
_symmetry_cell_setting 'orthorhombic'
loop_
_space_group_symop_operation_xyz
x,y,z
1/2-x,1/2-y,z
1/2+x,-y,-z
-x,1/2+y,-z
-x,-y,-z
1/2+x,1/2+y,-z
1/2-x,y,z
x,1/2-y,z
loop_
_atom_site_type_symbol
_atom_site_label
_atom_site_fract_x
_atom_site_fract_y
_atom_site_fract_z
Si Si1 0.927990 0.909481 0.175757
Si Si2 0.571921 0.597440 0.829844
Si Si3 0.071114 0.197229 0.840606
Si Si4 0.571765 0.196698 0.162337
Si Si5 0.928730 0.000362 0.658842
O O1 0.750000 0.916889 0.194055
O O2 0.966706 0.854655 0.231684
O O3 0.960587 0.909586 0.002173
O O4 0.014827 0.952267 0.254827
O O5 0.750000 0.603276 0.817710
O O6 0.496486 0.647195 0.773585
O O7 0.526156 0.549010 0.744045
O O8 0.250000 0.195277 0.867355
O O9 0.038821 0.250000 0.768796
O O10 0.989601 0.197566 0.996493
O O11 0.750000 0.193339 0.161081
O O12 0.529944 0.250000 0.226905
O O13 0.750000 0.000883 0.649576
O O14 0.000000 0.000000 0.500000
#
# Coordination Sequence:
#
# PCOD9453130 Si02
#       5
#     8   8   8   8   8
#     4   9  17  31  52  77 102 128 162 203 243 286
#     4   9  19  34  52  74  99 130 167 202 239 290
#     4   8  14  26  45  70 101 133 161 193 236 286
#     4   9  16  25  42  72 104 129 156 195 242 287
#     4  11  23  37  52  71  97 130 167 206 249 295
#
# _framework density 17.759733000000001
#
# number of rings (size 3 to 8) (size 9 to 14) (size 15 to 20)
#    0.000    2.800    0.000    3.000    0.000    6.000 
#    0.000    0.000    0.000    1.200    0.000    2.800 
#    0.000    0.000    0.000    0.000    0.000    0.000 
#
# Total GULP energy -222734.505040 kJ/mol
# GULP energy per Si atom -5568.362626 kJ/mol
# Density = 1.771931 g / cm^3
# Si number density = 17.759733 Si / 1000 Ang^3
#
#
#
# Elastic Constant Matrix: (Units=GPa)
#
#
# Indices 1 2 3 4 5 6 
#
# 1 29.5021 62.2975 24.8025 0.0000 0.0000 0.0000
# 2 62.2975 232.5646 57.8718 0.0000 0.0000 0.0000
# 3 24.8025 57.8718 37.8799 0.0000 0.0000 0.0000
# 4 0.0000 0.0000 0.0000 -5.2203 0.0000 0.0000
# 5 0.0000 0.0000 0.0000 0.0000 16.8399 0.0000
# 6 0.0000 0.0000 0.0000 0.0000 0.0000 34.1093
#
#
#
# Elastic Compliance Matrix: (Units=1/GPa)
#
#
# Indices 1 2 3 4 5 6 
#
# 1 0.109523 -0.018543 -0.043383 0.000000 0.000000 0.000000
# 2 -0.018543 0.010077 -0.003254 0.000000 0.000000 0.000000
# 3 -0.043383 -0.003254 0.059776 0.000000 0.000000 0.000000
# 4 0.000000 0.000000 0.000000 -0.191560 0.000000 0.000000
# 5 0.000000 0.000000 0.000000 0.000000 0.059383 0.000000
# 6 0.000000 0.000000 0.000000 0.000000 0.000000 0.029318
#
#
# Mechanical properties :
#
#
# Convention : Reuss Voigt Hill
#
# Bulk Modulus (GPa) = 20.40117 65.54336 42.97226
# Shear Modulus (GPa) = 22.40004 19.47742 20.93873
#
# Velocity S-wave (km/s) = 3.55531 3.31527 3.43738
# Velocity P-wave (km/s) = 5.32596 7.18612 6.32480
#
# Compressibility (1/GPa) = 0.04901680
#
# Stress axis : x y z
#
# Youngs Moduli (GPa) = 9.13048 99.24010 16.72923
#
# Poissons Ratio (x) = 1.84018 0.72577
# Poissons Ratio (y) = 0.16930 0.05443
# Poissons Ratio (z) = 0.39611 0.32288
#
# Static dielectric constant tensor:
#      x y z
#    x 1.591740 0.000000 0.000000 
#    y 0.000000 1.670500 0.000000 
#    z 0.000000 0.000000 1.566770 
# 
# From -- ./inp_files/5692.got.cif
#   From: 2010.05.17/outbox.cif.g08.bks.cpg/sg59_3_cif.got.tgz:5692.got - 2010.06.03 14:40:33.
