data_PCOD9453934
_publ_section_title
;
Structure prediction by ZEFSAII (Michael W. Deem and Ramdas Pophale) SiO2 
 PCOD9453934
Probable space group: P B C N
;
_chemical_formula_sum "Si O2"
_cell_formula_units_Z 48
_cell_length_a 15.354489
_cell_length_b 8.472088
_cell_length_c 14.098030
_cell_angle_alpha 90.000000
_cell_angle_beta 90.000000
_cell_angle_gamma 90.000000
_cell_volume 1833.936340
_symmetry_space_group_name_H-M "P B C N"
_symmetry_group_IT_number 60
_symmetry_cell_setting 'orthorhombic'
loop_
_space_group_symop_operation_xyz
x,y,z
1/2-x,1/2-y,1/2+z
1/2+x,1/2-y,-z
-x,y,1/2-z
-x,-y,-z
1/2+x,1/2+y,1/2-z
1/2-x,1/2+y,z
x,-y,1/2+z
loop_
_atom_site_type_symbol
_atom_site_label
_atom_site_fract_x
_atom_site_fract_y
_atom_site_fract_z
Si Si1 0.611147 0.668320 0.036220
Si Si2 0.091627 0.836417 0.473580
Si Si3 0.337182 0.009616 0.761422
Si Si4 0.600553 0.000008 0.030540
Si Si5 0.398974 0.323246 0.741916
Si Si6 0.149404 0.853019 0.264924
O O1 0.640469 0.497662 0.000791
O O2 0.632585 0.672013 0.148240
O O3 0.641495 0.835957 0.995506
O O4 0.505310 0.665836 0.018937
O O5 0.138728 0.671010 0.492953
O O6 0.087547 0.842359 0.357917
O O7 0.367202 0.157938 0.697635
O O8 0.243097 0.074762 0.792624
O O9 0.396906 0.007206 0.855027
O O10 0.338081 0.826824 0.728238
O O11 0.500000 0.000000 0.000000
O O12 0.500000 0.304016 0.750000
O O13 0.383997 0.499612 0.702111
#
# Coordination Sequence:
#
# PCOD9453934 Si02
#       6
#     8   8   8   8   8   8
#     4   8  14  26  42  64  92 119 150 189 234 286
#     4   8  14  24  42  67  92 118 144 188 242 286
#     4  10  18  30  49  73  98 123 162 207 253 293
#     4   8  14  24  40  65  93 118 142 179 232 289
#     4  10  20  32  48  74  97 132 172 210 246 297
#     4  10  18  30  49  75  98 124 165 210 257 294
#
# _framework density 26.173207000000001
#
# number of rings (size 3 to 8) (size 9 to 14) (size 15 to 20)
#    0.000    3.000    1.667    0.000    0.000    0.667 
#    0.000    0.000    0.000    0.000   17.333    0.000 
#    0.000    0.000    0.000    0.000    0.000    0.000 
#
# Total GULP energy -267223.333023 kJ/mol
# GULP energy per Si atom -5567.152771 kJ/mol
# Density = 2.611364 g / cm^3
# Si number density = 26.173207 Si / 1000 Ang^3
#
#
#
# Elastic Constant Matrix: (Units=GPa)
#
#
# Indices 1 2 3 4 5 6 
#
# 1 39.4216 22.5863 -19.3367 0.0000 0.0000 0.0000
# 2 22.5863 408.9246 10.6211 0.0000 0.0000 0.0000
# 3 -19.3367 10.6211 102.0337 0.0000 0.0000 0.0000
# 4 0.0000 0.0000 0.0000 -29.2494 0.0000 0.0000
# 5 0.0000 0.0000 0.0000 0.0000 16.5927 0.0000
# 6 0.0000 0.0000 0.0000 0.0000 0.0000 36.7117
#
#
#
# Elastic Compliance Matrix: (Units=1/GPa)
#
#
# Indices 1 2 3 4 5 6 
#
# 1 0.029177 -0.001760 0.005713 0.000000 0.000000 0.000000
# 2 -0.001760 0.002558 -0.000600 0.000000 0.000000 0.000000
# 3 0.005713 -0.000600 0.010946 0.000000 0.000000 0.000000
# 4 0.000000 0.000000 0.000000 -0.034189 0.000000 0.000000
# 5 0.000000 0.000000 0.000000 0.000000 0.060268 0.000000
# 6 0.000000 0.000000 0.000000 0.000000 0.000000 0.027239
#
#
# Mechanical properties :
#
#
# Convention : Reuss Voigt Hill
#
# Bulk Modulus (GPa) = 20.24821 64.23568 42.24195
# Shear Modulus (GPa) = 47.27872 40.57828 43.92850
#
# Velocity S-wave (km/s) = 4.25476 3.94175 4.10124
# Velocity P-wave (km/s) = 5.64716 6.73145 6.21300
#
# Compressibility (1/GPa) = 0.04938708
#
# Stress axis : x y z
#
# Youngs Moduli (GPa) = 34.27325 390.89605 91.35964
#
# Poissons Ratio (x) = 0.68795 -0.52191
# Poissons Ratio (y) = 0.06032 0.05480
# Poissons Ratio (z) = -0.19579 0.23447
#
# Static dielectric constant tensor:
#      x y z
#    x 1.987410 0.000000 0.000000 
#    y 0.000000 2.242140 0.000000 
#    z 0.000000 0.000000 2.010850 
# 
# From -- ./inp_files/22806.got.cif
#   From: 2010.05.17/outbox.cif.g08.bks.cpg/sg60_12_cif.got.tgz:22806.got - 2010.06.03 14:59:27.
