data_PCOD9453819
_publ_section_title
;
Structure prediction by ZEFSAII (Michael W. Deem and Ramdas Pophale) SiO2 
 PCOD9453819
Probable space group: P B C N
;
_chemical_formula_sum "Si O2"
_cell_formula_units_Z 52
_cell_length_a 7.982342
_cell_length_b 14.235693
_cell_length_c 19.769713
_cell_angle_alpha 90.000000
_cell_angle_beta 90.000000
_cell_angle_gamma 90.000000
_cell_volume 2246.514931
_symmetry_space_group_name_H-M "P B C N"
_symmetry_group_IT_number 60
_symmetry_cell_setting 'orthorhombic'
loop_
_space_group_symop_operation_xyz
x,y,z
1/2-x,1/2-y,1/2+z
1/2+x,1/2-y,-z
-x,y,1/2-z
-x,-y,-z
1/2+x,1/2+y,1/2-z
1/2-x,1/2+y,z
x,-y,1/2+z
loop_
_atom_site_type_symbol
_atom_site_label
_atom_site_fract_x
_atom_site_fract_y
_atom_site_fract_z
Si Si1 0.508741 0.797195 0.057879
Si Si2 0.311123 0.037750 0.585952
Si Si3 0.149330 0.131316 0.123364
Si Si4 0.972384 0.887108 0.144180
Si Si5 0.500000 0.463642 0.750000
Si Si6 0.633681 0.794691 0.591741
Si Si7 0.680755 0.534506 0.066108
O O1 0.480497 0.903227 0.083884
O O2 0.367812 0.736833 0.098752
O O3 0.685674 0.752365 0.074852
O O4 0.470914 0.790677 0.978101
O O5 0.242792 0.045986 0.509757
O O6 0.166684 0.084937 0.632600
O O7 0.313209 0.928291 0.605145
O O8 0.103202 0.104760 0.200383
O O9 0.000299 0.081927 0.079829
O O10 0.947112 0.775809 0.146655
O O11 0.863446 0.927053 0.081625
O O12 0.908387 0.959302 0.202035
O O13 0.689876 0.901093 0.608834
#
# Coordination Sequence:
#
# PCOD9453819 Si02
#       7
#     8   8   8   8   4   8   8
#     4  10  19  31  50  77 102 127 156 197 249 300
#     4   9  16  29  49  73  94 123 161 196 246 291
#     4   9  16  31  48  66  95 128 164 199 229 284
#     4  10  17  32  50  68  95 127 164 206 234 277
#     4   8  18  32  52  70  86 130 180 198 224 282
#     4  10  18  30  49  75 103 125 156 196 246 299
#     4   8  15  27  47  69  92 126 157 188 240 299
#
# _framework density 23.146964000000001
#
# number of rings (size 3 to 8) (size 9 to 14) (size 15 to 20)
#    0.000    3.077    0.000    5.538    0.000    0.000 
#    0.000   17.692    0.000    0.000    0.000    0.000 
#    0.000    0.000    0.000    0.000    0.000    0.000 
#
# Total GULP energy -289696.037244 kJ/mol
# GULP energy per Si atom -5571.077639 kJ/mol
# Density = 2.309428 g / cm^3
# Si number density = 23.146964 Si / 1000 Ang^3
#
#
#
# Elastic Constant Matrix: (Units=GPa)
#
#
# Indices 1 2 3 4 5 6 
#
# 1 68.0823 -7.0877 -5.8446 0.0000 0.0000 0.0000
# 2 -7.0877 85.5089 6.4497 0.0000 0.0000 0.0000
# 3 -5.8446 6.4497 56.6584 0.0000 0.0000 0.0000
# 4 0.0000 0.0000 0.0000 22.9402 0.0000 0.0000
# 5 0.0000 0.0000 0.0000 0.0000 6.0627 0.0000
# 6 0.0000 0.0000 0.0000 0.0000 0.0000 40.3895
#
#
#
# Elastic Compliance Matrix: (Units=1/GPa)
#
#
# Indices 1 2 3 4 5 6 
#
# 1 0.014927 0.001131 0.001411 0.000000 0.000000 0.000000
# 2 0.001131 0.011882 -0.001236 0.000000 0.000000 0.000000
# 3 0.001411 -0.001236 0.017936 0.000000 0.000000 0.000000
# 4 0.000000 0.000000 0.000000 0.043592 0.000000 0.000000
# 5 0.000000 0.000000 0.000000 0.000000 0.164943 0.000000
# 6 0.000000 0.000000 0.000000 0.000000 0.000000 0.024759
#
#
# Mechanical properties :
#
#
# Convention : Reuss Voigt Hill
#
# Bulk Modulus (GPa) = 21.11641 21.92048 21.51844
# Shear Modulus (GPa) = 17.16965 28.32730 22.74847
#
# Velocity S-wave (km/s) = 2.72649 3.50208 3.13834
# Velocity P-wave (km/s) = 4.36512 5.08365 4.73802
#
# Compressibility (1/GPa) = 0.04735654
#
# Stress axis : x y z
#
# Youngs Moduli (GPa) = 66.99280 84.16345 55.75412
#
# Poissons Ratio (x) = -0.09518 -0.07867
# Poissons Ratio (y) = -0.07576 0.06891
# Poissons Ratio (z) = -0.09453 0.10402
#
# Static dielectric constant tensor:
#      x y z
#    x 1.913110 0.000000 0.000000 
#    y 0.000000 2.020190 0.000000 
#    z 0.000000 0.000000 1.912300 
# 
# From -- ./inp_files/22155.got.cif
#   From: 2010.05.17/outbox.cif.g08.bks.cpg/sg60_12_cif.got.tgz:22155.got - 2010.06.03 14:59:27.
