data_PCOD9453953
_publ_section_title
;
Structure prediction by ZEFSAII (Michael W. Deem and Ramdas Pophale) SiO2 
 PCOD9453953
Probable space group: P B C N
;
_chemical_formula_sum "Si O2"
_cell_formula_units_Z 64
_cell_length_a 14.659480
_cell_length_b 31.575342
_cell_length_c 7.521900
_cell_angle_alpha 90.000000
_cell_angle_beta 90.000000
_cell_angle_gamma 90.000000
_cell_volume 3481.722739
_symmetry_space_group_name_H-M "P B C N"
_symmetry_group_IT_number 60
_symmetry_cell_setting 'orthorhombic'
loop_
_space_group_symop_operation_xyz
x,y,z
1/2-x,1/2-y,1/2+z
1/2+x,1/2-y,-z
-x,y,1/2-z
-x,-y,-z
1/2+x,1/2+y,1/2-z
1/2-x,1/2+y,z
x,-y,1/2+z
loop_
_atom_site_type_symbol
_atom_site_label
_atom_site_fract_x
_atom_site_fract_y
_atom_site_fract_z
Si Si1 0.530699 0.725774 0.959277
Si Si2 0.725653 0.712828 0.840670
Si Si3 0.661099 0.703968 0.440657
Si Si4 0.588061 0.049219 0.989911
Si Si5 0.792568 0.370116 0.872957
Si Si6 0.528791 0.823317 0.958695
Si Si7 0.653892 0.864893 0.456276
Si Si8 0.614567 0.953274 0.914232
O O1 0.500000 0.723196 0.750000
O O2 0.636109 0.711583 0.968372
O O3 0.448378 0.705111 0.069477
O O4 0.531991 0.774886 0.012116
O O5 0.685531 0.712175 0.645258
O O6 0.786166 0.755681 0.854581
O O7 0.783207 0.670443 0.870101
O O8 0.702762 0.658175 0.394988
O O9 0.645408 0.086437 0.898402
O O10 0.477981 0.054168 0.969171
O O11 0.595326 0.052746 0.204087
O O12 0.626879 0.003460 0.938245
O O13 0.873733 0.344869 0.971725
O O14 0.815935 0.367273 0.663348
O O15 0.806058 0.418360 0.942166
O O16 0.500000 0.824366 0.750000
O O17 0.448704 0.847639 0.055196
#
# Coordination Sequence:
#
# PCOD9453953 Si02
#       8
#     8   8   8   8   8   8   8   8
#     4   9  18  32  48  63  90 130 160 187 232 285
#     4  11  21  33  49  69  93 125 162 198 234 279
#     4  11  21  33  49  69  93 125 162 198 234 279
#     4   9  17  29  47  69  96 129 160 191 232 283
#     4  10  18  31  49  69  94 129 164 192 231 281
#     4   9  14  26  47  65  91 130 161 182 224 286
#     4  10  18  31  49  69  94 129 164 192 231 281
#     4   9  17  29  47  69  96 129 160 191 232 283
#
# _framework density 18.381706000000001
#
# number of rings (size 3 to 8) (size 9 to 14) (size 15 to 20)
#    0.000    2.250    3.750    0.750    0.000    1.000 
#    0.000    4.375    0.000    0.000    0.000    0.875 
#    0.000    0.000    0.000    0.000    0.000    0.000 
#
# Total GULP energy -356773.190406 kJ/mol
# GULP energy per Si atom -5574.581100 kJ/mol
# Density = 1.833987 g / cm^3
# Si number density = 18.381706 Si / 1000 Ang^3
#
#
#
# Elastic Constant Matrix: (Units=GPa)
#
#
# Indices 1 2 3 4 5 6 
#
# 1 52.3710 42.0607 17.4497 0.0000 0.0000 0.0000
# 2 42.0607 131.6226 10.9118 0.0000 0.0000 0.0000
# 3 17.4497 10.9118 37.1096 0.0000 0.0000 0.0000
# 4 0.0000 0.0000 0.0000 12.7272 0.0000 0.0000
# 5 0.0000 0.0000 0.0000 0.0000 20.4858 0.0000
# 6 0.0000 0.0000 0.0000 0.0000 0.0000 -36.2400
#
#
#
# Elastic Compliance Matrix: (Units=1/GPa)
#
#
# Indices 1 2 3 4 5 6 
#
# 1 0.029810 -0.008573 -0.011497 0.000000 0.000000 0.000000
# 2 -0.008573 0.010253 0.001016 0.000000 0.000000 0.000000
# 3 -0.011497 0.001016 0.032054 0.000000 0.000000 0.000000
# 4 0.000000 0.000000 0.000000 0.078572 0.000000 0.000000
# 5 0.000000 0.000000 0.000000 0.000000 0.048814 0.000000
# 6 0.000000 0.000000 0.000000 0.000000 0.000000 -0.027594
#
#
# Mechanical properties :
#
#
# Convention : Reuss Voigt Hill
#
# Bulk Modulus (GPa) = 29.40219 40.21640 34.80929
# Shear Modulus (GPa) = 22.58834 9.43999 16.01416
#
# Velocity S-wave (km/s) = 3.50930 2.26863 2.95481
# Velocity P-wave (km/s) = 5.69652 5.36547 5.53347
#
# Compressibility (1/GPa) = 0.03401108
#
# Stress axis : x y z
#
# Youngs Moduli (GPa) = 33.54541 97.53482 31.19703
#
# Poissons Ratio (x) = 0.83616 0.35866
# Poissons Ratio (y) = 0.28758 -0.03171
# Poissons Ratio (z) = 0.38566 -0.09914
#
# Static dielectric constant tensor:
#      x y z
#    x 1.659800 0.000000 0.000000 
#    y 0.000000 1.666760 0.000000 
#    z 0.000000 0.000000 1.732400 
# 
# From -- ./inp_files/6413.got.cif
#   From: 2010.05.17/outbox.cif.g08.bks.cpg/sg60_4_cif.got.tgz:6413.got - 2010.06.03 14:59:27.
