data_PCOD9453000
_publ_section_title
;
Structure prediction by ZEFSAII (Michael W. Deem and Ramdas Pophale) SiO2 
 PCOD9453000
Probable space group: P M M N
;
_chemical_formula_sum "Si O2"
_cell_formula_units_Z 64
_cell_length_a 14.851528
_cell_length_b 17.571078
_cell_length_c 12.109505
_cell_angle_alpha 90.000000
_cell_angle_beta 90.000000
_cell_angle_gamma 90.000000
_cell_volume 3160.064418
_symmetry_space_group_name_H-M "P M M N"
_symmetry_group_IT_number 59
_space_group.IT_coordinate_system_code '2'
_symmetry_cell_setting 'orthorhombic'
loop_
_space_group_symop_operation_xyz
x,y,z
1/2-x,1/2-y,z
1/2+x,-y,-z
-x,1/2+y,-z
-x,-y,-z
1/2+x,1/2+y,-z
1/2-x,y,z
x,1/2-y,z
loop_
_atom_site_type_symbol
_atom_site_label
_atom_site_fract_x
_atom_site_fract_y
_atom_site_fract_z
Si Si1 0.042899 0.165710 0.927389
Si Si2 0.108993 0.940970 0.802179
Si Si3 0.521273 0.910590 0.489644
Si Si4 0.348353 0.895831 0.050900
Si Si5 0.648003 0.660998 0.674418
Si Si6 0.404728 0.440546 0.127187
Si Si7 0.146737 0.659802 0.586697
Si Si8 0.352601 0.107763 0.722117
O O1 0.054600 0.250000 0.975164
O O2 0.099449 0.157387 0.816024
O O3 0.936474 0.150222 0.911780
O O4 0.078099 0.102112 0.011920
O O5 0.125461 0.883321 0.701553
O O6 0.003064 0.955344 0.821028
O O7 0.150271 0.021700 0.769475
O O8 0.143963 0.908079 0.918287
O O9 0.579228 0.879565 0.592271
O O10 0.425433 0.868409 0.497211
O O11 0.581974 0.894411 0.383147
O O12 0.500000 0.000000 0.500000
O O13 0.250000 0.863246 0.076774
O O14 0.357431 0.979633 0.104535
O O15 0.750000 0.656736 0.630609
O O16 0.624313 0.750000 0.688192
O O17 0.644007 0.616374 0.789717
O O18 0.250000 0.642225 0.555895
O O19 0.138080 0.750000 0.602686
O O20 0.250000 0.131890 0.697540
#
# Coordination Sequence:
#
# PCOD9453000 Si02
#       8
#     8   8   8   8   8   8   8   8
#     4  11  25  42  63  96 135 172 218 267 320 381
#     4  11  20  39  66  98 132 167 212 268 320 380
#     4  12  25  42  66  97 128 166 213 268 323 383
#     4  11  22  39  66  97 135 178 219 263 316 388
#     4  11  24  41  64  96 132 169 211 266 331 389
#     4  11  20  40  66  99 132 173 212 261 327 378
#     4  11  24  42  67  98 130 166 213 270 332 388
#     4  12  24  43  68  94 125 169 221 268 317 383
#
# _framework density 20.252752000000001
#
# number of rings (size 3 to 8) (size 9 to 14) (size 15 to 20)
#    0.000    0.750    5.000    3.375    0.000    4.500 
#    0.000    0.625    0.000    0.000    0.000    0.000 
#    0.000    0.000    0.000    0.000    0.000    0.000 
#
# Total GULP energy -357848.734667 kJ/mol
# GULP energy per Si atom -5591.386479 kJ/mol
# Density = 2.020666 g / cm^3
# Si number density = 20.252752 Si / 1000 Ang^3
#
#
#
# Elastic Constant Matrix: (Units=GPa)
#
#
# Indices 1 2 3 4 5 6 
#
# 1 148.4100 18.4620 47.7166 0.0000 0.0000 0.0000
# 2 18.4620 60.5695 9.7004 0.0000 0.0000 0.0000
# 3 47.7166 9.7004 68.2955 0.0000 0.0000 0.0000
# 4 0.0000 0.0000 0.0000 22.8152 0.0000 0.0000
# 5 0.0000 0.0000 0.0000 0.0000 14.5616 0.0000
# 6 0.0000 0.0000 0.0000 0.0000 0.0000 17.4521
#
#
#
# Elastic Compliance Matrix: (Units=1/GPa)
#
#
# Indices 1 2 3 4 5 6 
#
# 1 0.008868 -0.001751 -0.005947 0.000000 0.000000 0.000000
# 2 -0.001751 0.017240 -0.001226 0.000000 0.000000 0.000000
# 3 -0.005947 -0.001226 0.018972 0.000000 0.000000 0.000000
# 4 0.000000 0.000000 0.000000 0.043830 0.000000 0.000000
# 5 0.000000 0.000000 0.000000 0.000000 0.068674 0.000000
# 6 0.000000 0.000000 0.000000 0.000000 0.000000 0.057300
#
#
# Mechanical properties :
#
#
# Convention : Reuss Voigt Hill
#
# Bulk Modulus (GPa) = 36.72074 47.67036 42.19555
# Shear Modulus (GPa) = 20.67761 24.39219 22.53490
#
# Velocity S-wave (km/s) = 3.19874 3.47420 3.33931
# Velocity P-wave (km/s) = 5.64032 6.29938 5.97894
#
# Compressibility (1/GPa) = 0.02723257
#
# Stress axis : x y z
#
# Youngs Moduli (GPa) = 112.76489 58.00525 52.71053
#
# Poissons Ratio (x) = 0.10154 0.31348
# Poissons Ratio (y) = 0.19740 0.06460
# Poissons Ratio (z) = 0.67064 0.07109
#
# Static dielectric constant tensor:
#      x y z
#    x 1.746310 0.000000 0.000000 
#    y 0.000000 1.976730 0.000000 
#    z 0.000000 0.000000 1.701270 
# 
# From -- ./inp_files/17251.got.cif
#   From: 2010.05.17/outbox.cif.g08.bks.cpg/sg59_9_cif.got.tgz:17251.got - 2010.06.03 14:40:33.
