data_PCOD9453394
_publ_section_title
;
Structure prediction by ZEFSAII (Michael W. Deem and Ramdas Pophale) SiO2 
 PCOD9453394
Probable space group: P M M N
;
_chemical_formula_sum "Si O2"
_cell_formula_units_Z 64
_cell_length_a 15.000000
_cell_length_b 18.000000
_cell_length_c 15.000000
_cell_angle_alpha 90.000000
_cell_angle_beta 90.000000
_cell_angle_gamma 90.000000
_cell_volume 4050.000000
_symmetry_space_group_name_H-M "P M M N"
_symmetry_group_IT_number 59
_space_group.IT_coordinate_system_code '2'
_symmetry_cell_setting 'orthorhombic'
loop_
_space_group_symop_operation_xyz
x,y,z
1/2-x,1/2-y,z
1/2+x,-y,-z
-x,1/2+y,-z
-x,-y,-z
1/2+x,1/2+y,-z
1/2-x,y,z
x,1/2-y,z
loop_
_atom_site_type_symbol
_atom_site_label
_atom_site_fract_x
_atom_site_fract_y
_atom_site_fract_z
Si Si1 0.978326 0.337991 0.775048
Si Si2 0.854805 0.400263 0.235163
Si Si3 0.525099 0.336481 0.090359
Si Si4 0.647528 0.568283 0.165596
Si Si5 0.355302 0.603784 0.069314
Si Si6 0.147851 0.429845 0.049439
Si Si7 0.857429 0.334473 0.418892
Si Si8 0.352529 0.840397 0.383575
O O1 0.995285 0.250000 0.769541
O O2 0.907516 0.354147 0.853245
O O3 0.925479 0.364416 0.687531
O O4 0.070096 0.380543 0.794565
O O5 0.750000 0.379291 0.221614
O O6 0.922266 0.348236 0.181900
O O7 0.864431 0.484188 0.200306
O O8 0.877260 0.389445 0.338671
O O9 0.512461 0.250000 0.069496
O O10 0.430659 0.378706 0.087066
O O11 0.592264 0.373471 0.019356
O O12 0.750000 0.590846 0.186836
O O13 0.638911 0.569154 0.058223
O O14 0.250000 0.621777 0.064553
O O15 0.363375 0.514912 0.080971
O O16 0.250000 0.406423 0.070082
O O17 0.750000 0.329129 0.423253
O O18 0.890293 0.250000 0.402287
O O19 0.883028 0.360698 0.517075
O O20 0.250000 0.865431 0.366004
O O21 0.349275 0.750000 0.381206
#
# Coordination Sequence:
#
# PCOD9453394 Si02
#       8
#     8   8   8   8   8   8   8   8
#     4  11  21  32  48  72  98 126 160 201 243 286
#     4  10  19  32  50  73 100 128 157 195 245 295
#     4  12  22  31  48  75 101 124 156 202 245 281
#     4  10  20  35  51  65  89 130 172 205 236 278
#     4  11  21  33  49  70  98 129 157 190 238 293
#     4  10  21  38  53  63  89 136 178 201 228 278
#     4   8  14  27  48  72  97 125 154 185 229 289
#     4   8  15  29  48  70  98 127 151 182 233 296
#
# _framework density 15.802469
#
# number of rings (size 3 to 8) (size 9 to 14) (size 15 to 20)
#    0.000    2.000    2.500    3.375    0.000    3.250 
#    0.000    1.875    0.000    0.000    0.000    0.875 
#    0.000    3.000    0.000    0.000    0.000    0.000 
#
# Total GULP energy -356723.520687 kJ/mol
# GULP energy per Si atom -5573.805011 kJ/mol
# Density = 1.576650 g / cm^3
# Si number density = 15.802469 Si / 1000 Ang^3
#
#
#
# Elastic Constant Matrix: (Units=GPa)
#
#
# Indices 1 2 3 4 5 6 
#
# 1 61.0547 19.3863 8.7574 0.0000 0.0000 0.0000
# 2 19.3863 36.0311 -5.7805 0.0000 0.0000 0.0000
# 3 8.7574 -5.7805 54.0634 0.0000 0.0000 0.0000
# 4 0.0000 0.0000 0.0000 2.7277 0.0000 0.0000
# 5 0.0000 0.0000 0.0000 0.0000 -2.5780 0.0000
# 6 0.0000 0.0000 0.0000 0.0000 0.0000 16.5624
#
#
#
# Elastic Compliance Matrix: (Units=1/GPa)
#
#
# Indices 1 2 3 4 5 6 
#
# 1 0.020845 -0.011962 -0.004656 0.000000 0.000000 0.000000
# 2 -0.011962 0.035103 0.005691 0.000000 0.000000 0.000000
# 3 -0.004656 0.005691 0.019859 0.000000 0.000000 0.000000
# 4 0.000000 0.000000 0.000000 0.366603 0.000000 0.000000
# 5 0.000000 0.000000 0.000000 0.000000 -0.387891 0.000000
# 6 0.000000 0.000000 0.000000 0.000000 0.000000 0.060378
#
#
# Mechanical properties :
#
#
# Convention : Reuss Voigt Hill
#
# Bulk Modulus (GPa) = 18.53450 21.76396 20.14923
# Shear Modulus (GPa) = 32.31320 11.92816 22.12068
#
# Velocity S-wave (km/s) = 4.52687 2.75040 3.74548
# Velocity P-wave (km/s) = 6.25122 4.88760 5.61099
#
# Compressibility (1/GPa) = 0.05395344
#
# Stress axis : x y z
#
# Youngs Moduli (GPa) = 47.97344 28.48753 50.35399
#
# Poissons Ratio (x) = 0.34078 0.23443
# Poissons Ratio (y) = 0.57387 -0.28656
# Poissons Ratio (z) = 0.22334 -0.16212
#
# Static dielectric constant tensor:
#      x y z
#    x 1.514610 0.000000 0.000000 
#    y 0.000000 1.518290 0.000000 
#    z 0.000000 0.000000 1.575870 
# 
# From -- ./inp_files/23443.got.cif
#   From: 2010.05.17/outbox.ucp.g08.bks.cvg/sg59_12_cif.got.tgz:23443.got - 2010.06.11 16:43:56.
