data_PCOD9453010
_publ_section_title
;
Structure prediction by ZEFSAII (Michael W. Deem and Ramdas Pophale) SiO2 
 PCOD9453010
Probable space group: P M M N
;
_chemical_formula_sum "Si O2"
_cell_formula_units_Z 64
_cell_length_a 8.114998
_cell_length_b 29.643419
_cell_length_c 16.248510
_cell_angle_alpha 90.000000
_cell_angle_beta 90.000000
_cell_angle_gamma 90.000000
_cell_volume 3908.681217
_symmetry_space_group_name_H-M "P M M N"
_symmetry_group_IT_number 59
_space_group.IT_coordinate_system_code '2'
_symmetry_cell_setting 'orthorhombic'
loop_
_space_group_symop_operation_xyz
x,y,z
1/2-x,1/2-y,z
1/2+x,-y,-z
-x,1/2+y,-z
-x,-y,-z
1/2+x,1/2+y,-z
1/2-x,y,z
x,1/2-y,z
loop_
_atom_site_type_symbol
_atom_site_label
_atom_site_fract_x
_atom_site_fract_y
_atom_site_fract_z
Si Si1 0.948528 0.800318 0.901768
Si Si2 0.947700 0.449272 0.318416
Si Si3 0.053800 0.605435 0.838734
Si Si4 0.048392 0.446320 0.675788
Si Si5 0.048075 0.393699 0.837103
Si Si6 0.946696 0.552342 0.503978
Si Si7 0.053352 0.448153 0.998409
Si Si8 0.549035 0.800245 0.092476
O O1 0.750000 0.799997 0.902091
O O2 0.004567 0.750000 0.876690
O O3 0.003454 0.842581 0.848351
O O4 0.000563 0.807530 0.997101
O O5 0.750000 0.451326 0.311994
O O6 0.012295 0.419428 0.242961
O O7 0.006129 0.501468 0.313388
O O8 0.987814 0.430235 0.408972
O O9 0.250000 0.603665 0.834907
O O10 0.001114 0.578379 0.920252
O O11 0.250000 0.446898 0.676478
O O12 0.993165 0.416085 0.752018
O O13 0.997668 0.429146 0.584993
O O14 0.250000 0.394114 0.836654
O O15 0.994774 0.342304 0.852897
O O16 0.993526 0.423264 0.915594
O O17 0.750000 0.554786 0.506765
O O18 0.000000 0.500000 0.500000
O O19 0.250000 0.446574 0.995994
O O20 0.000000 0.500000 0.000000
O O21 0.750000 0.800257 0.092842
O O22 0.495367 0.750000 0.117527
#
# Coordination Sequence:
#
# PCOD9453010 Si02
#       8
#     8   8   8   8   8   8   8   8
#     4   9  17  31  49  68  91 119 154 195 236 278
#     4   9  18  31  44  61  88 121 154 191 230 273
#     4  11  21  32  47  68  94 123 158 198 237 277
#     4   8  14  25  41  61  85 112 146 184 226 268
#     4   9  15  25  42  62  86 118 149 178 219 269
#     4   9  16  27  44  65  87 114 148 189 233 276
#     4  11  21  32  45  63  91 129 163 189 223 270
#     4   8  13  23  41  64  86 110 145 184 218 260
#
# _framework density 16.373809999999999
#
# number of rings (size 3 to 8) (size 9 to 14) (size 15 to 20)
#    0.000    2.750    1.250    3.375    0.000    3.250 
#    0.000    0.000    0.000    2.250    0.000    0.875 
#    0.000    3.000    0.000    0.000    0.000    0.000 
#
# Total GULP energy -356535.983727 kJ/mol
# GULP energy per Si atom -5570.874746 kJ/mol
# Density = 1.633654 g / cm^3
# Si number density = 16.373810 Si / 1000 Ang^3
#
#
#
# Elastic Constant Matrix: (Units=GPa)
#
#
# Indices 1 2 3 4 5 6 
#
# 1 9.8385 8.8348 6.0995 0.0000 0.0000 0.0000
# 2 8.8348 118.9074 77.1120 0.0000 0.0000 0.0000
# 3 6.0995 77.1120 148.8250 0.0000 0.0000 0.0000
# 4 0.0000 0.0000 0.0000 9.2265 0.0000 0.0000
# 5 0.0000 0.0000 0.0000 0.0000 18.2004 0.0000
# 6 0.0000 0.0000 0.0000 0.0000 0.0000 17.6156
#
#
#
# Elastic Compliance Matrix: (Units=1/GPa)
#
#
# Indices 1 2 3 4 5 6 
#
# 1 0.108924 -0.007829 -0.000408 0.000000 0.000000 0.000000
# 2 -0.007829 0.013228 -0.006533 0.000000 0.000000 0.000000
# 3 -0.000408 -0.006533 0.010121 0.000000 0.000000 0.000000
# 4 0.000000 0.000000 0.000000 0.108383 0.000000 0.000000
# 5 0.000000 0.000000 0.000000 0.000000 0.054944 0.000000
# 6 0.000000 0.000000 0.000000 0.000000 0.000000 0.056768
#
#
# Mechanical properties :
#
#
# Convention : Reuss Voigt Hill
#
# Bulk Modulus (GPa) = 9.73384 51.29595 30.51490
# Shear Modulus (GPa) = 12.01481 21.37683 16.69582
#
# Velocity S-wave (km/s) = 2.71178 3.61716 3.19669
# Velocity P-wave (km/s) = 3.97022 6.98865 5.68348
#
# Compressibility (1/GPa) = 0.10273434
#
# Stress axis : x y z
#
# Youngs Moduli (GPa) = 9.18069 75.59466 98.80267
#
# Poissons Ratio (x) = 0.59179 0.04031
# Poissons Ratio (y) = 0.07187 0.64551
# Poissons Ratio (z) = 0.00375 0.49388
#
# Static dielectric constant tensor:
#      x y z
#    x 1.585140 0.000000 0.000000 
#    y 0.000000 1.540540 0.000000 
#    z 0.000000 0.000000 1.566070 
# 
# From -- ./inp_files/21806.got.cif
#   From: 2010.05.17/outbox.cif.g08.bks.cpg/sg59_11_cif.got.tgz:21806.got - 2010.06.03 14:40:33.
