data_PCOD9453318
_publ_section_title
;
Structure prediction by ZEFSAII (Michael W. Deem and Ramdas Pophale) SiO2 
 PCOD9453318
Probable space group: P M M N
;
_chemical_formula_sum "Si O2"
_cell_formula_units_Z 64
_cell_length_a 9.000000
_cell_length_b 30.000000
_cell_length_c 15.000000
_cell_angle_alpha 90.000000
_cell_angle_beta 90.000000
_cell_angle_gamma 90.000000
_cell_volume 4050.000000
_symmetry_space_group_name_H-M "P M M N"
_symmetry_group_IT_number 59
_space_group.IT_coordinate_system_code '2'
_symmetry_cell_setting 'orthorhombic'
loop_
_space_group_symop_operation_xyz
x,y,z
1/2-x,1/2-y,z
1/2+x,-y,-z
-x,1/2+y,-z
-x,-y,-z
1/2+x,1/2+y,-z
1/2-x,y,z
x,1/2-y,z
loop_
_atom_site_type_symbol
_atom_site_label
_atom_site_fract_x
_atom_site_fract_y
_atom_site_fract_z
Si Si1 0.429573 0.970863 0.846472
Si Si2 0.570803 0.069370 0.648222
Si Si3 0.931045 0.301299 0.147005
Si Si4 0.569185 0.066611 0.853267
Si Si5 0.429786 0.614187 0.969481
Si Si6 0.929652 0.966727 0.651819
Si Si7 0.069478 0.801117 0.646093
Si Si8 0.569130 0.111828 0.466160
O O1 0.250000 0.974004 0.840277
O O2 0.466930 0.929692 0.911305
O O3 0.501373 0.961071 0.750194
O O4 0.497655 0.018481 0.875496
O O5 0.750000 0.070997 0.649958
O O6 0.523704 0.077891 0.750951
O O7 0.524006 0.102848 0.569363
O O8 0.531226 0.017911 0.624896
O O9 0.750000 0.301774 0.145615
O O10 0.975817 0.250000 0.125345
O O11 0.982577 0.340447 0.079763
O O12 0.974230 0.310475 0.250526
O O13 0.750000 0.062002 0.854845
O O14 0.525831 0.102626 0.928713
O O15 0.250000 0.617208 0.970083
O O16 0.750000 0.963337 0.654112
O O17 0.999610 0.929071 0.589286
O O18 0.250000 0.800794 0.644913
O O19 0.022164 0.750000 0.624140
O O20 0.023743 0.841011 0.579341
O O21 0.750000 0.109382 0.461088
#
# Coordination Sequence:
#
# PCOD9453318 Si02
#       8
#     8   8   8   8   8   8   8   8
#     4  10  18  28  43  64  87 112 146 179 208 248
#     4   8  16  28  41  58  82 114 144 172 207 247
#     4   8  13  22  36  57  84 108 132 166 209 255
#     4   9  17  30  43  58  86 117 142 172 215 255
#     4   9  16  25  41  62  83 111 143 175 210 250
#     4  10  19  30  42  61  90 117 140 170 216 261
#     4   8  14  24  40  63  87 107 132 173 218 253
#     4  10  17  27  45  64  82 109 147 180 206 246
#
# _framework density 15.802469
#
# number of rings (size 3 to 8) (size 9 to 14) (size 15 to 20)
#    0.000    3.000    0.000    3.750    0.000    2.000 
#    0.000    3.125    0.000    1.125    0.000    5.250 
#    0.000    4.000    0.000    0.375    0.000    2.375 
#
# Total GULP energy -356324.385471 kJ/mol
# GULP energy per Si atom -5567.568523 kJ/mol
# Density = 1.576650 g / cm^3
# Si number density = 15.802469 Si / 1000 Ang^3
#
#
#
# Elastic Constant Matrix: (Units=GPa)
#
#
# Indices 1 2 3 4 5 6 
#
# 1 18.2658 10.7546 9.5875 0.0000 0.0000 0.0000
# 2 10.7546 131.7186 95.7784 0.0000 0.0000 0.0000
# 3 9.5875 95.7784 124.0259 0.0000 0.0000 0.0000
# 4 0.0000 0.0000 0.0000 34.2991 0.0000 0.0000
# 5 0.0000 0.0000 0.0000 0.0000 15.1202 0.0000
# 6 0.0000 0.0000 0.0000 0.0000 0.0000 17.8115
#
#
#
# Elastic Compliance Matrix: (Units=1/GPa)
#
#
# Indices 1 2 3 4 5 6 
#
# 1 0.057703 -0.003348 -0.001875 0.000000 0.000000 0.000000
# 2 -0.003348 0.017509 -0.013262 0.000000 0.000000 0.000000
# 3 -0.001875 -0.013262 0.018450 0.000000 0.000000 0.000000
# 4 0.000000 0.000000 0.000000 0.029155 0.000000 0.000000
# 5 0.000000 0.000000 0.000000 0.000000 0.066137 0.000000
# 6 0.000000 0.000000 0.000000 0.000000 0.000000 0.056144
#
#
# Mechanical properties :
#
#
# Convention : Reuss Voigt Hill
#
# Bulk Modulus (GPa) = 17.63970 56.25016 36.94493
# Shear Modulus (GPa) = 16.61326 23.97214 20.29270
#
# Velocity S-wave (km/s) = 3.24591 3.89908 3.58739
# Velocity P-wave (km/s) = 5.02342 7.47954 6.37096
#
# Compressibility (1/GPa) = 0.05669032
#
# Stress axis : x y z
#
# Youngs Moduli (GPa) = 17.33025 57.11350 54.20153
#
# Poissons Ratio (x) = 0.19120 0.10164
# Poissons Ratio (y) = 0.05802 0.71885
# Poissons Ratio (z) = 0.03250 0.75747
#
# Static dielectric constant tensor:
#      x y z
#    x 1.521520 0.000000 0.000000 
#    y 0.000000 1.529060 0.000000 
#    z 0.000000 0.000000 1.554870 
# 
# From -- ./inp_files/21874.got.cif
#   From: 2010.05.17/outbox.ucp.g08.bks.cvg/sg59_11_cif.got.tgz:21874.got - 2010.06.11 16:43:56.
