data_PCOD9453100
_publ_section_title
;
Structure prediction by ZEFSAII (Michael W. Deem and Ramdas Pophale) SiO2 
 PCOD9453100
Probable space group: P M M N
;
_chemical_formula_sum "Si O2"
_cell_formula_units_Z 56
_cell_length_a 8.737135
_cell_length_b 23.443946
_cell_length_c 15.687426
_cell_angle_alpha 90.000000
_cell_angle_beta 90.000000
_cell_angle_gamma 90.000000
_cell_volume 3213.301293
_symmetry_space_group_name_H-M "P M M N"
_symmetry_group_IT_number 59
_space_group.IT_coordinate_system_code '2'
_symmetry_cell_setting 'orthorhombic'
loop_
_space_group_symop_operation_xyz
x,y,z
1/2-x,1/2-y,z
1/2+x,-y,-z
-x,1/2+y,-z
-x,-y,-z
1/2+x,1/2+y,-z
1/2-x,y,z
x,1/2-y,z
loop_
_atom_site_type_symbol
_atom_site_label
_atom_site_fract_x
_atom_site_fract_y
_atom_site_fract_z
Si Si1 0.434259 0.371533 0.145775
Si Si2 0.565708 0.419680 0.673412
Si Si3 0.067874 0.135021 0.835725
Si Si4 0.433828 0.053214 0.309705
Si Si5 0.066995 0.937609 0.015429
Si Si6 0.066305 0.750000 0.882222
Si Si7 0.067202 0.936896 0.514181
Si Si8 0.933573 0.250000 0.915177
O O1 0.250000 0.371502 0.137773
O O2 0.476941 0.412520 0.224842
O O3 0.507780 0.396881 0.060035
O O4 0.495449 0.307469 0.156482
O O5 0.750000 0.416275 0.684035
O O6 0.483996 0.379014 0.740174
O O7 0.520738 0.486113 0.691643
O O8 0.528953 0.405752 0.574646
O O9 0.250000 0.134509 0.843431
O O10 0.001995 0.194294 0.870700
O O11 0.995175 0.086613 0.895895
O O12 0.250000 0.053741 0.316436
O O13 0.501141 0.081811 0.395108
O O14 0.250000 0.938687 0.016415
O O15 0.000000 0.000000 0.000000
O O16 0.250000 0.750000 0.873370
O O17 0.030015 0.750000 0.983850
O O18 0.250000 0.940060 0.519621
O O19 0.000000 0.000000 0.500000
O O20 0.750000 0.250000 0.907404
#
# Coordination Sequence:
#
# PCOD9453100 Si02
#       8
#     8   8   8   8   8   4   8   4
#     4  11  22  37  58  82 110 145 183 229 277 325
#     4   9  18  34  54  80 115 149 181 220 272 331
#     4  12  24  37  57  83 109 142 184 230 275 326
#     4   9  19  34  54  82 114 146 180 222 274 326
#     4  12  24  38  55  79 111 146 180 221 273 327
#     4  11  23  39  59  80 104 145 192 232 275 323
#     4   9  17  30  52  79 110 147 182 220 266 321
#     4  11  23  41  61  78 104 145 188 232 277 323
#
# _framework density 17.427558000000001
#
# number of rings (size 3 to 8) (size 9 to 14) (size 15 to 20)
#    0.000    1.571    1.429    5.571    0.000    5.714 
#    0.000    0.000    0.000    0.857    0.000    4.000 
#    0.000    0.000    0.000    0.000    0.000    0.000 
#
# Total GULP energy -312719.025113 kJ/mol
# GULP energy per Si atom -5584.268306 kJ/mol
# Density = 1.738789 g / cm^3
# Si number density = 17.427558 Si / 1000 Ang^3
#
#
#
# Elastic Constant Matrix: (Units=GPa)
#
#
# Indices 1 2 3 4 5 6 
#
# 1 63.7298 8.3787 21.8304 0.0000 0.0000 0.0000
# 2 8.3787 44.2530 -14.2863 0.0000 0.0000 0.0000
# 3 21.8304 -14.2863 68.4325 0.0000 0.0000 0.0000
# 4 0.0000 0.0000 0.0000 15.5759 0.0000 0.0000
# 5 0.0000 0.0000 0.0000 0.0000 31.8942 0.0000
# 6 0.0000 0.0000 0.0000 0.0000 0.0000 27.0540
#
#
#
# Elastic Compliance Matrix: (Units=1/GPa)
#
#
# Indices 1 2 3 4 5 6 
#
# 1 0.018971 -0.005947 -0.007293 0.000000 0.000000 0.000000
# 2 -0.005947 0.026094 0.007345 0.000000 0.000000 0.000000
# 3 -0.007293 0.007345 0.018473 0.000000 0.000000 0.000000
# 4 0.000000 0.000000 0.000000 0.064202 0.000000 0.000000
# 5 0.000000 0.000000 0.000000 0.000000 0.031354 0.000000
# 6 0.000000 0.000000 0.000000 0.000000 0.000000 0.036963
#
#
# Mechanical properties :
#
#
# Convention : Reuss Voigt Hill
#
# Bulk Modulus (GPa) = 19.32449 23.14008 21.23229
# Shear Modulus (GPa) = 22.21263 25.60432 23.90848
#
# Velocity S-wave (km/s) = 3.57398 3.83715 3.70790
# Velocity P-wave (km/s) = 5.30506 5.73920 5.52639
#
# Compressibility (1/GPa) = 0.05174780
#
# Stress axis : x y z
#
# Youngs Moduli (GPa) = 52.71094 38.32253 54.13342
#
# Poissons Ratio (x) = 0.22789 0.39482
# Poissons Ratio (y) = 0.31345 -0.39759
# Poissons Ratio (z) = 0.38444 -0.28146
#
# Static dielectric constant tensor:
#      x y z
#    x 1.579720 0.000000 0.000000 
#    y 0.000000 1.573800 0.000000 
#    z 0.000000 0.000000 1.605960 
# 
# From -- ./inp_files/21197.got.cif
#   From: 2010.05.17/outbox.cif.g08.bks.cpg/sg59_11_cif.got.tgz:21197.got - 2010.06.03 14:40:33.
