data_PCOD9453179
_publ_section_title
;
Structure prediction by ZEFSAII (Michael W. Deem and Ramdas Pophale) SiO2 
 PCOD9453179
Probable space group: P M M N
;
_chemical_formula_sum "Si O2"
_cell_formula_units_Z 30
_cell_length_a 9.979968
_cell_length_b 14.800477
_cell_length_c 10.520194
_cell_angle_alpha 90.000000
_cell_angle_beta 90.000000
_cell_angle_gamma 90.000000
_cell_volume 1553.919833
_symmetry_space_group_name_H-M "P M M N"
_symmetry_group_IT_number 59
_space_group.IT_coordinate_system_code '2'
_symmetry_cell_setting 'orthorhombic'
loop_
_space_group_symop_operation_xyz
x,y,z
1/2-x,1/2-y,z
1/2+x,-y,-z
-x,1/2+y,-z
-x,-y,-z
1/2+x,1/2+y,-z
1/2-x,y,z
x,1/2-y,z
loop_
_atom_site_type_symbol
_atom_site_label
_atom_site_fract_x
_atom_site_fract_y
_atom_site_fract_z
Si Si1 0.750000 0.750000 0.031856
Si Si2 0.005034 0.585995 0.408057
Si Si3 0.972937 0.250000 0.124993
Si Si4 0.750000 0.362341 0.768911
Si Si5 0.250000 0.603317 0.939289
Si Si6 0.085303 0.750000 0.585181
Si Si7 0.250000 0.419014 0.775646
O O1 0.750000 0.662529 0.123270
O O2 0.614617 0.750000 0.946855
O O3 0.875293 0.587948 0.319234
O O4 0.000000 0.500000 0.500000
O O5 0.124636 0.599598 0.308209
O O6 0.031702 0.666042 0.506419
O O7 0.881640 0.336785 0.090588
O O8 0.979238 0.250000 0.276414
O O9 0.750000 0.250000 0.773922
O O10 0.750000 0.404335 0.909000
O O11 0.250000 0.512683 0.855607
O O12 0.250000 0.750000 0.593677
#
# Coordination Sequence:
#
# PCOD9453179 Si02
#       7
#     2   8   4   4   4   4   4
#     4  12  28  46  66 106 148 188 230 300 360 404
#     4  12  25  42  72 103 141 186 233 286 355 412
#     4  11  24  43  76  99 137 181 245 284 354 407
#     4  12  23  46  74 101 134 191 246 278 339 432
#     4  11  24  45  73 101 135 194 235 286 346 426
#     4  12  23  46  74  97 138 188 240 296 337 424
#     4  12  28  45  67 106 154 177 227 302 354 417
#
# _framework density 19.306016
#
# number of rings (size 3 to 8) (size 9 to 14) (size 15 to 20)
#    0.000    0.267    5.333    4.800    0.000    7.467 
#    0.000    0.000    0.000    0.000    0.000    0.000 
#    0.000    0.000    0.000    0.000    0.000    0.000 
#
# Total GULP energy -167607.660594 kJ/mol
# GULP energy per Si atom -5586.922020 kJ/mol
# Density = 1.926207 g / cm^3
# Si number density = 19.306016 Si / 1000 Ang^3
#
#
#
# Elastic Constant Matrix: (Units=GPa)
#
#
# Indices 1 2 3 4 5 6 
#
# 1 207.9398 76.2895 113.8509 0.0000 0.0000 0.0000
# 2 76.2895 140.3442 75.9893 0.0000 0.0000 0.0000
# 3 113.8509 75.9893 228.6366 0.0000 0.0000 0.0000
# 4 0.0000 0.0000 0.0000 71.9883 0.0000 0.0000
# 5 0.0000 0.0000 0.0000 0.0000 50.6241 0.0000
# 6 0.0000 0.0000 0.0000 0.0000 0.0000 18.1053
#
#
#
# Elastic Compliance Matrix: (Units=1/GPa)
#
#
# Indices 1 2 3 4 5 6 
#
# 1 0.007225 -0.002414 -0.002796 0.000000 0.000000 0.000000
# 2 -0.002414 0.009495 -0.001954 0.000000 0.000000 0.000000
# 3 -0.002796 -0.001954 0.006415 0.000000 0.000000 0.000000
# 4 0.000000 0.000000 0.000000 0.013891 0.000000 0.000000
# 5 0.000000 0.000000 0.000000 0.000000 0.019753 0.000000
# 6 0.000000 0.000000 0.000000 0.000000 0.000000 0.055232
#
#
# Mechanical properties :
#
#
# Convention : Reuss Voigt Hill
#
# Bulk Modulus (GPa) = 113.51756 123.24222 118.37989
# Shear Modulus (GPa) = 38.67684 48.86292 43.76988
#
# Velocity S-wave (km/s) = 4.48074 5.03633 4.76664
# Velocity P-wave (km/s) = 9.25722 9.88910 9.57837
#
# Compressibility (1/GPa) = 0.00880921
#
# Stress axis : x y z
#
# Youngs Moduli (GPa) = 138.40118 105.31362 155.87901
#
# Poissons Ratio (x) = 0.25422 0.43578
# Poissons Ratio (y) = 0.33409 0.30457
# Poissons Ratio (z) = 0.38692 0.20577
#
# Static dielectric constant tensor:
#      x y z
#    x 1.576790 0.000000 0.000000 
#    y 0.000000 1.664220 0.000000 
#    z 0.000000 0.000000 1.696260 
# 
# From -- ./inp_files/13602.got.cif
#   From: 2010.05.17/outbox.cif.g08.bks.cpg/sg59_7_cif.got.tgz:13602.got - 2010.06.03 14:40:33.
