data_PCOD9453555
_publ_section_title
;
Structure prediction by ZEFSAII (Michael W. Deem and Ramdas Pophale) SiO2 
 PCOD9453555
Probable space group: P M M N
;
_chemical_formula_sum "Si O2"
_cell_formula_units_Z 56
_cell_length_a 9.000000
_cell_length_b 21.000000
_cell_length_c 15.000000
_cell_angle_alpha 90.000000
_cell_angle_beta 90.000000
_cell_angle_gamma 90.000000
_cell_volume 2835.000000
_symmetry_space_group_name_H-M "P M M N"
_symmetry_group_IT_number 59
_space_group.IT_coordinate_system_code '2'
_symmetry_cell_setting 'orthorhombic'
loop_
_space_group_symop_operation_xyz
x,y,z
1/2-x,1/2-y,z
1/2+x,-y,-z
-x,1/2+y,-z
-x,-y,-z
1/2+x,1/2+y,-z
1/2-x,y,z
x,1/2-y,z
loop_
_atom_site_type_symbol
_atom_site_label
_atom_site_fract_x
_atom_site_fract_y
_atom_site_fract_z
Si Si1 0.916467 0.967482 0.618074
Si Si2 0.081558 0.680159 0.012050
Si Si3 0.071556 0.324903 0.684371
Si Si4 0.924264 0.081945 0.830502
Si Si5 0.074660 0.178719 0.171119
Si Si6 0.077457 0.954954 0.791545
Si Si7 0.080351 0.605421 0.476666
O O1 0.750000 0.956332 0.654998
O O2 0.044512 0.975368 0.690499
O O3 0.967483 0.908752 0.557010
O O4 0.910099 0.034989 0.567813
O O5 0.250000 0.676803 0.973632
O O6 0.070413 0.750000 0.057137
O O7 0.962657 0.678245 0.934035
O O8 0.065406 0.622780 0.079644
O O9 0.250000 0.332348 0.676785
O O10 0.041491 0.250000 0.704988
O O11 0.009383 0.374634 0.757738
O O12 0.989269 0.345590 0.593432
O O13 0.750000 0.076755 0.804587
O O14 0.991895 0.011531 0.843081
O O15 0.250000 0.172670 0.186998
O O16 0.027533 0.250000 0.203359
O O17 0.990055 0.115882 0.203681
O O18 0.250000 0.954555 0.814664
O O19 0.250000 0.622804 0.502153
#
# Coordination Sequence:
#
# PCOD9453555 Si02
#       7
#     8   8   8   8   8   8   8
#     4  10  20  36  59  85 115 148 187 238 288 340
#     4   9  19  37  60  85 115 153 196 240 289 346
#     4  11  23  37  55  83 121 161 199 243 293 345
#     4  11  22  37  58  86 119 156 198 243 291 345
#     4  10  22  41  64  87 113 148 191 240 295 353
#     4  12  24  38  60  88 120 154 192 241 292 347
#     4  10  20  35  58  84 112 151 193 236 285 341
#
# _framework density 19.753086
#
# number of rings (size 3 to 8) (size 9 to 14) (size 15 to 20)
#    0.000    1.571    1.429    3.857    0.000    5.429 
#    0.000    2.143    0.000    4.286    0.000    0.000 
#    0.000    0.000    0.000    0.000    0.000    0.000 
#
# Total GULP energy -312305.796802 kJ/mol
# GULP energy per Si atom -5576.889229 kJ/mol
# Density = 1.970813 g / cm^3
# Si number density = 19.753086 Si / 1000 Ang^3
#
#
#
# Elastic Constant Matrix: (Units=GPa)
#
#
# Indices 1 2 3 4 5 6 
#
# 1 99.2229 48.2686 -2.6865 0.0000 0.0000 0.0000
# 2 48.2686 108.2671 -4.5359 0.0000 0.0000 0.0000
# 3 -2.6865 -4.5359 6.8246 0.0000 0.0000 0.0000
# 4 0.0000 0.0000 0.0000 27.3947 0.0000 0.0000
# 5 0.0000 0.0000 0.0000 0.0000 26.1545 0.0000
# 6 0.0000 0.0000 0.0000 0.0000 0.0000 31.1894
#
#
#
# Elastic Compliance Matrix: (Units=1/GPa)
#
#
# Indices 1 2 3 4 5 6 
#
# 1 0.012880 -0.005688 0.001290 0.000000 0.000000 0.000000
# 2 -0.005688 0.012013 0.005745 0.000000 0.000000 0.000000
# 3 0.001290 0.005745 0.150856 0.000000 0.000000 0.000000
# 4 0.000000 0.000000 0.000000 0.036503 0.000000 0.000000
# 5 0.000000 0.000000 0.000000 0.000000 0.038234 0.000000
# 6 0.000000 0.000000 0.000000 0.000000 0.000000 0.032062
#
#
# Mechanical properties :
#
#
# Convention : Reuss Voigt Hill
#
# Bulk Modulus (GPa) = 5.60406 32.93412 19.26909
# Shear Modulus (GPa) = 14.73461 28.49896 21.61678
#
# Velocity S-wave (km/s) = 2.73415 3.80249 3.31168
# Velocity P-wave (km/s) = 3.57920 5.99897 4.93955
#
# Compressibility (1/GPa) = 0.17844199
#
# Stress axis : x y z
#
# Youngs Moduli (GPa) = 77.63689 83.24185 6.62885
#
# Poissons Ratio (x) = 0.47352 -0.00855
# Poissons Ratio (y) = 0.44163 -0.03808
# Poissons Ratio (z) = -0.10012 -0.47824
#
# Static dielectric constant tensor:
#      x y z
#    x 1.680770 0.000000 0.000000 
#    y 0.000000 1.708430 0.000000 
#    z 0.000000 0.000000 1.744740 
# 
# From -- ./inp_files/20893.got.cif
#   From: 2010.05.17/outbox.ucp.g08.bks.cvg/sg59_11_cif.got.tgz:20893.got - 2010.06.11 16:43:56.
