data_PCOD9453024
_publ_section_title
;
Structure prediction by ZEFSAII (Michael W. Deem and Ramdas Pophale) SiO2 
 PCOD9453024
Probable space group: P M M N
;
_chemical_formula_sum "Si O2"
_cell_formula_units_Z 64
_cell_length_a 14.841492
_cell_length_b 8.385058
_cell_length_c 25.074837
_cell_angle_alpha 90.000000
_cell_angle_beta 90.000000
_cell_angle_gamma 90.000000
_cell_volume 3120.482504
_symmetry_space_group_name_H-M "P M M N"
_symmetry_group_IT_number 59
_space_group.IT_coordinate_system_code '2'
_symmetry_cell_setting 'orthorhombic'
loop_
_space_group_symop_operation_xyz
x,y,z
1/2-x,1/2-y,z
1/2+x,-y,-z
-x,1/2+y,-z
-x,-y,-z
1/2+x,1/2+y,-z
1/2-x,y,z
x,1/2-y,z
loop_
_atom_site_type_symbol
_atom_site_label
_atom_site_fract_x
_atom_site_fract_y
_atom_site_fract_z
Si Si1 0.453448 0.058399 0.127377
Si Si2 0.653865 0.440766 0.095968
Si Si3 0.480359 0.567375 0.441827
Si Si4 0.099973 0.441834 0.014596
Si Si5 0.645187 0.054551 0.651807
Si Si6 0.849431 0.435397 0.259218
Si Si7 0.851068 0.433563 0.387617
Si Si8 0.545249 0.061980 0.759386
O O1 0.458031 0.250000 0.125537
O O2 0.557462 0.998778 0.118373
O O3 0.392195 0.009884 0.076675
O O4 0.419396 0.007745 0.185081
O O5 0.750000 0.500102 0.118534
O O6 0.652258 0.250000 0.102850
O O7 0.654937 0.480293 0.033051
O O8 0.500000 0.500000 0.500000
O O9 0.455165 0.750000 0.449538
O O10 0.404975 0.496088 0.401914
O O11 0.573393 0.548012 0.409817
O O12 0.108252 0.250000 0.011054
O O13 0.000000 0.500000 0.000000
O O14 0.750000 0.010012 0.653387
O O15 0.640561 0.250000 0.651449
O O16 0.592205 0.000029 0.705108
O O17 0.750000 0.495067 0.243318
O O18 0.856362 0.250000 0.241804
O O19 0.851020 0.437204 0.323593
O O20 0.938698 0.524612 0.241711
O O21 0.750000 0.473056 0.405920
O O22 0.870890 0.250000 0.403655
O O23 0.558996 0.250000 0.760200
#
# Coordination Sequence:
#
# PCOD9453024 Si02
#       8
#     8   8   8   8   8   8   8   8
#     4   9  19  34  51  74 107 146 181 219 273 334
#     4   9  18  33  53  77 106 141 180 221 270 331
#     4  11  22  37  59  87 116 147 185 232 283 334
#     4   9  17  31  51  73 100 136 178 221 269 324
#     4   9  20  40  61  80 108 148 189 229 278 331
#     4   9  18  33  54  78 107 145 181 215 268 339
#     4   9  18  34  56  81 110 145 180 216 268 334
#     4  11  21  34  56  84 109 141 190 242 282 323
#
# _framework density 20.509647999999999
#
# number of rings (size 3 to 8) (size 9 to 14) (size 15 to 20)
#    0.000    2.500    1.250    2.625    0.000    4.250 
#    0.000    4.375    0.000    7.875    0.000    0.000 
#    0.000    0.000    0.000    0.000    0.000    0.000 
#
# Total GULP energy -356699.520653 kJ/mol
# GULP energy per Si atom -5573.430010 kJ/mol
# Density = 2.046297 g / cm^3
# Si number density = 20.509648 Si / 1000 Ang^3
#
#
#
# Elastic Constant Matrix: (Units=GPa)
#
#
# Indices 1 2 3 4 5 6 
#
# 1 68.8540 -2.2004 43.7880 0.0000 0.0000 0.0000
# 2 -2.2004 -4.6773 14.1230 0.0000 0.0000 0.0000
# 3 43.7880 14.1230 156.1789 0.0000 0.0000 0.0000
# 4 0.0000 0.0000 0.0000 28.8215 0.0000 0.0000
# 5 0.0000 0.0000 0.0000 0.0000 -1.8351 0.0000
# 6 0.0000 0.0000 0.0000 0.0000 0.0000 12.3296
#
#
#
# Elastic Compliance Matrix: (Units=1/GPa)
#
#
# Indices 1 2 3 4 5 6 
#
# 1 0.015886 -0.016434 -0.002968 0.000000 0.000000 0.000000
# 2 -0.016434 -0.150940 0.018257 0.000000 0.000000 0.000000
# 3 -0.002968 0.018257 0.005584 0.000000 0.000000 0.000000
# 4 0.000000 0.000000 0.000000 0.034696 0.000000 0.000000
# 5 0.000000 0.000000 0.000000 0.000000 -0.544934 0.000000
# 6 0.000000 0.000000 0.000000 0.000000 0.000000 0.081106
#
#
# Mechanical properties :
#
#
# Convention : Reuss Voigt Hill
#
# Bulk Modulus (GPa) = -7.58953 36.86409 14.63728
# Shear Modulus (GPa) = -8.33011 18.83952 5.25471
#
# Velocity S-wave (km/s) = -2.01752 3.03408 1.60238
# Velocity P-wave (km/s) = 3.02253 5.50338 3.25204
#
# Compressibility (1/GPa) = -0.13176044
#
# Stress axis : x y z
#
# Youngs Moduli (GPa) = 62.94989 -6.62514 179.08164
#
# Poissons Ratio (x) = -0.10888 0.53147
# Poissons Ratio (y) = 1.03453 -3.26948
# Poissons Ratio (z) = 0.18682 0.12095
#
# Static dielectric constant tensor:
#      x y z
#    x 1.730580 0.000000 0.000000 
#    y 0.000000 1.729970 0.000000 
#    z 0.000000 0.000000 1.768120 
# 
# From -- ./inp_files/32095.got.cif
#   From: 2010.05.17/outbox.cif.g08.bks.cpg/sg59_17_cif.got.tgz:32095.got - 2010.06.03 14:40:33.
