data_PCOD9453582
_publ_section_title
;
Structure prediction by ZEFSAII (Michael W. Deem and Ramdas Pophale) SiO2 
 PCOD9453582
Probable space group: P M M N
;
_chemical_formula_sum "Si O2"
_cell_formula_units_Z 48
_cell_length_a 9.000000
_cell_length_b 18.000000
_cell_length_c 15.000000
_cell_angle_alpha 90.000000
_cell_angle_beta 90.000000
_cell_angle_gamma 90.000000
_cell_volume 2430.000000
_symmetry_space_group_name_H-M "P M M N"
_symmetry_group_IT_number 59
_space_group.IT_coordinate_system_code '2'
_symmetry_cell_setting 'orthorhombic'
loop_
_space_group_symop_operation_xyz
x,y,z
1/2-x,1/2-y,z
1/2+x,-y,-z
-x,1/2+y,-z
-x,-y,-z
1/2+x,1/2+y,-z
1/2-x,y,z
x,1/2-y,z
loop_
_atom_site_type_symbol
_atom_site_label
_atom_site_fract_x
_atom_site_fract_y
_atom_site_fract_z
Si Si1 0.923241 0.549392 0.220297
Si Si2 0.420526 0.164787 0.474833
Si Si3 0.926909 0.421739 0.962709
Si Si4 0.419717 0.250000 0.192632
Si Si5 0.078728 0.092856 0.291406
Si Si6 0.077776 0.663674 0.343100
Si Si7 0.423162 0.750000 0.986537
O O1 0.750000 0.553016 0.195698
O O2 0.030809 0.571375 0.139999
O O3 0.967731 0.467047 0.251690
O O4 0.965084 0.608466 0.295730
O O5 0.250000 0.155471 0.507944
O O6 0.427690 0.250000 0.440188
O O7 0.445371 0.107210 0.395826
O O8 0.538840 0.158501 0.552763
O O9 0.750000 0.425531 0.981050
O O10 0.977165 0.335483 0.987109
O O11 0.000000 0.500000 0.000000
O O12 0.250000 0.250000 0.154653
O O13 0.434098 0.326107 0.247104
O O14 0.543634 0.250000 0.117684
O O15 0.250000 0.067670 0.277804
O O16 0.250000 0.644507 0.326104
O O17 0.055146 0.750000 0.316093
O O18 0.250000 0.750000 0.012088
#
# Coordination Sequence:
#
# PCOD9453582 Si02
#       7
#     8   8   8   4   8   8   4
#     4  12  26  41  60  90 123 161 207 256 307 364
#     4   9  17  34  60  89 122 159 203 252 303 360
#     4  11  24  45  68  94 128 165 207 261 318 379
#     4  10  20  36  62  93 122 155 200 245 296 363
#     4  10  20  37  61  90 124 163 202 249 305 363
#     4  10  22  40  62  87 119 160 206 255 310 366
#     4  10  24  42  64  91 122 161 202 249 314 377
#
# _framework density 19.753086
#
# number of rings (size 3 to 8) (size 9 to 14) (size 15 to 20)
#    0.000    1.667    0.833    3.500    1.167    7.000 
#    0.000    0.000    0.000    0.000    0.000    0.000 
#    0.000    0.000    0.000    0.000    0.000    0.000 
#
# Total GULP energy -267483.569781 kJ/mol
# GULP energy per Si atom -5572.574370 kJ/mol
# Density = 1.970813 g / cm^3
# Si number density = 19.753086 Si / 1000 Ang^3
#
#
#
# Elastic Constant Matrix: (Units=GPa)
#
#
# Indices 1 2 3 4 5 6 
#
# 1 33.8261 24.5514 1.3736 0.0000 0.0000 0.0000
# 2 24.5514 108.2466 23.7951 0.0000 0.0000 0.0000
# 3 1.3736 23.7951 42.6248 0.0000 0.0000 0.0000
# 4 0.0000 0.0000 0.0000 27.2955 0.0000 0.0000
# 5 0.0000 0.0000 0.0000 0.0000 22.2363 0.0000
# 6 0.0000 0.0000 0.0000 0.0000 0.0000 29.3583
#
#
#
# Elastic Compliance Matrix: (Units=1/GPa)
#
#
# Indices 1 2 3 4 5 6 
#
# 1 0.035939 -0.009001 0.003867 0.000000 0.000000 0.000000
# 2 -0.009001 0.012785 -0.006847 0.000000 0.000000 0.000000
# 3 0.003867 -0.006847 0.027158 0.000000 0.000000 0.000000
# 4 0.000000 0.000000 0.000000 0.036636 0.000000 0.000000
# 5 0.000000 0.000000 0.000000 0.000000 0.044971 0.000000
# 6 0.000000 0.000000 0.000000 0.000000 0.000000 0.034062
#
#
# Mechanical properties :
#
#
# Convention : Reuss Voigt Hill
#
# Bulk Modulus (GPa) = 19.26070 31.57086 25.41578
# Shear Modulus (GPa) = 21.47568 24.77652 23.12610
#
# Velocity S-wave (km/s) = 3.30086 3.54547 3.42535
# Velocity P-wave (km/s) = 4.92945 5.72520 5.34216
#
# Compressibility (1/GPa) = 0.05191918
#
# Stress axis : x y z
#
# Youngs Moduli (GPa) = 27.82469 78.21720 36.82124
#
# Poissons Ratio (x) = 0.70407 -0.14238
# Poissons Ratio (y) = 0.25046 0.25212
# Poissons Ratio (z) = -0.10759 0.53556
#
# Static dielectric constant tensor:
#      x y z
#    x 1.675620 0.000000 0.000000 
#    y 0.000000 1.684080 0.000000 
#    z 0.000000 0.000000 1.741400 
# 
# From -- ./inp_files/20531.got.cif
#   From: 2010.05.17/outbox.ucp.g08.bks.cvg/sg59_11_cif.got.tgz:20531.got - 2010.06.11 16:43:56.
