data_PCOD9453497
_publ_section_title
;
Structure prediction by ZEFSAII (Michael W. Deem and Ramdas Pophale) SiO2 
 PCOD9453497
Probable space group: P M M N
;
_chemical_formula_sum "Si O2"
_cell_formula_units_Z 40
_cell_length_a 9.000000
_cell_length_b 9.000000
_cell_length_c 27.000000
_cell_angle_alpha 90.000000
_cell_angle_beta 90.000000
_cell_angle_gamma 90.000000
_cell_volume 2187.000000
_symmetry_space_group_name_H-M "P M M N"
_symmetry_group_IT_number 59
_space_group.IT_coordinate_system_code '2'
_symmetry_cell_setting 'orthorhombic'
loop_
_space_group_symop_operation_xyz
x,y,z
1/2-x,1/2-y,z
1/2+x,-y,-z
-x,1/2+y,-z
-x,-y,-z
1/2+x,1/2+y,-z
1/2-x,y,z
x,1/2-y,z
loop_
_atom_site_type_symbol
_atom_site_label
_atom_site_fract_x
_atom_site_fract_y
_atom_site_fract_z
Si Si1 0.577188 0.928289 0.046827
Si Si2 0.075345 0.928166 0.546796
Si Si3 0.076764 0.428325 0.753740
Si Si4 0.419806 0.931377 0.146844
Si Si5 0.431068 0.923340 0.654149
O O1 0.750000 0.963324 0.046229
O O2 0.559558 0.750000 0.044437
O O3 0.507306 0.980457 0.098402
O O4 0.500000 0.000000 0.000000
O O5 0.250000 0.961632 0.544746
O O6 0.058887 0.750000 0.545606
O O7 0.016804 0.979368 0.600551
O O8 0.000000 0.000000 0.500000
O O9 0.250000 0.470611 0.758292
O O10 0.070063 0.250000 0.752431
O O11 0.016575 0.490146 0.702171
O O12 0.991261 0.482624 0.801979
O O13 0.250000 0.976769 0.143183
O O14 0.425269 0.750000 0.147524
O O15 0.250000 0.932747 0.653059
O O16 0.468462 0.750000 0.658851
#
# Coordination Sequence:
#
# PCOD9453497 Si02
#       5
#     8   8   8   8   8
#     4  10  20  34  53  76 101 130 165 204 244 287
#     4   9  18  32  49  70  96 126 161 200 241 287
#     4   9  16  27  46  70  90 112 151 197 233 273
#     4   9  17  30  48  69  95 127 159 193 237 285
#     4   8  15  29  47  66  91 122 153 188 234 285
#
# _framework density 18.289895000000001
#
# number of rings (size 3 to 8) (size 9 to 14) (size 15 to 20)
#    0.000    3.000    0.000    2.400    0.000    4.800 
#    0.000    4.000    0.000    7.800    0.000    0.000 
#    0.000    0.000    0.000    0.000    0.000    0.000 
#
# Total GULP energy -222813.924802 kJ/mol
# GULP energy per Si atom -5570.348120 kJ/mol
# Density = 1.824827 g / cm^3
# Si number density = 18.289895 Si / 1000 Ang^3
#
#
#
# Elastic Constant Matrix: (Units=GPa)
#
#
# Indices 1 2 3 4 5 6 
#
# 1 66.9808 38.3712 103.3959 0.0000 0.0000 0.0000
# 2 38.3712 -8.9818 39.0844 0.0000 0.0000 0.0000
# 3 103.3959 39.0844 234.7613 0.0000 0.0000 0.0000
# 4 0.0000 0.0000 0.0000 31.7368 0.0000 0.0000
# 5 0.0000 0.0000 0.0000 0.0000 29.5147 0.0000
# 6 0.0000 0.0000 0.0000 0.0000 0.0000 15.0880
#
#
#
# Elastic Compliance Matrix: (Units=1/GPa)
#
#
# Indices 1 2 3 4 5 6 
#
# 1 0.019864 0.027134 -0.013266 0.000000 0.000000 0.000000
# 2 0.027134 -0.027499 -0.007372 0.000000 0.000000 0.000000
# 3 -0.013266 -0.007372 0.011330 0.000000 0.000000 0.000000
# 4 0.000000 0.000000 0.000000 0.031509 0.000000 0.000000
# 5 0.000000 0.000000 0.000000 0.000000 0.033881 0.000000
# 6 0.000000 0.000000 0.000000 0.000000 0.000000 0.066278
#
#
# Mechanical properties :
#
#
# Convention : Reuss Voigt Hill
#
# Bulk Modulus (GPa) = 59.93278 72.71814 66.32546
# Shear Modulus (GPa) = 39.08250 22.72848 30.90549
#
# Velocity S-wave (km/s) = 4.62761 3.52899 4.11513
# Velocity P-wave (km/s) = 7.83533 7.51332 7.67601
#
# Compressibility (1/GPa) = 0.01668536
#
# Stress axis : x y z
#
# Youngs Moduli (GPa) = 50.34224 -36.36491 88.26282
#
# Poissons Ratio (x) = 0.98671 1.17090
# Poissons Ratio (y) = -1.36597 0.65070
# Poissons Ratio (z) = 0.66784 -0.26809
#
# Static dielectric constant tensor:
#      x y z
#    x 1.623250 0.000000 0.000000 
#    y 0.000000 1.630770 0.000000 
#    z 0.000000 0.000000 1.633300 
# 
# From -- ./inp_files/26736.got.cif
#   From: 2010.05.17/outbox.ucp.g08.bks.cvg/sg59_14_cif.got.tgz:26736.got - 2010.06.11 16:43:56.
