data_PCOD9453256
_publ_section_title
;
Structure prediction by ZEFSAII (Michael W. Deem and Ramdas Pophale) SiO2 
 PCOD9453256
Probable space group: P M M N
;
_chemical_formula_sum "Si O2"
_cell_formula_units_Z 48
_cell_length_a 14.464357
_cell_length_b 7.469470
_cell_length_c 21.427287
_cell_angle_alpha 90.000000
_cell_angle_beta 90.000000
_cell_angle_gamma 90.000000
_cell_volume 2315.027244
_symmetry_space_group_name_H-M "P M M N"
_symmetry_group_IT_number 59
_space_group.IT_coordinate_system_code '2'
_symmetry_cell_setting 'orthorhombic'
loop_
_space_group_symop_operation_xyz
x,y,z
1/2-x,1/2-y,z
1/2+x,-y,-z
-x,1/2+y,-z
-x,-y,-z
1/2+x,1/2+y,-z
1/2-x,y,z
x,1/2-y,z
loop_
_atom_site_type_symbol
_atom_site_label
_atom_site_fract_x
_atom_site_fract_y
_atom_site_fract_z
Si Si1 0.540018 0.034488 0.094758
Si Si2 0.145924 0.463348 0.032536
Si Si3 0.643618 0.030468 0.218665
Si Si4 0.848342 0.969365 0.612286
Si Si5 0.604179 0.539329 0.478287
Si Si6 0.548466 0.459455 0.344438
O O1 0.534243 0.250000 0.097843
O O2 0.582308 0.971831 0.159881
O O3 0.609124 0.991673 0.037815
O O4 0.437594 0.967032 0.076213
O O5 0.250000 0.534702 0.041012
O O6 0.150575 0.250000 0.042634
O O7 0.750000 0.974507 0.212320
O O8 0.644121 0.250000 0.218785
O O9 0.599831 0.967802 0.283947
O O10 0.750000 0.019044 0.642369
O O11 0.852787 0.750000 0.611454
O O12 0.844849 0.028547 0.539819
O O13 0.945199 0.033201 0.641653
O O14 0.500000 0.500000 0.500000
O O15 0.621819 0.750000 0.474174
O O16 0.609266 0.471365 0.407722
O O17 0.534288 0.250000 0.332243
#
# Coordination Sequence:
#
# PCOD9453256 Si02
#       6
#     8   8   8   8   8   8
#     4   9  17  30  48  68  91 123 159 188 221 274
#     4   9  17  29  46  70  98 121 146 190 239 271
#     4   9  17  29  45  65  89 117 150 186 220 260
#     4   8  14  25  41  60  81 105 134 169 209 252
#     4   9  16  27  44  63  84 110 140 177 218 257
#     4   9  17  29  44  62  85 112 142 177 216 256
#
# _framework density 20.734097999999999
#
# number of rings (size 3 to 8) (size 9 to 14) (size 15 to 20)
#    0.000    3.167    0.000    2.000    0.000    1.667 
#    0.000    1.667    0.000   18.000    0.000    0.000 
#    0.000    8.000    0.000    0.000    0.000    0.000 
#
# Total GULP energy -267363.867755 kJ/mol
# GULP energy per Si atom -5570.080578 kJ/mol
# Density = 2.068691 g / cm^3
# Si number density = 20.734098 Si / 1000 Ang^3
#
#
#
# Elastic Constant Matrix: (Units=GPa)
#
#
# Indices 1 2 3 4 5 6 
#
# 1 168.5563 10.1658 85.6331 0.0000 0.0000 0.0000
# 2 10.1658 56.6980 2.6013 0.0000 0.0000 0.0000
# 3 85.6331 2.6013 156.0789 0.0000 0.0000 0.0000
# 4 0.0000 0.0000 0.0000 12.0399 0.0000 0.0000
# 5 0.0000 0.0000 0.0000 0.0000 20.0411 0.0000
# 6 0.0000 0.0000 0.0000 0.0000 0.0000 2.5253
#
#
#
# Elastic Compliance Matrix: (Units=1/GPa)
#
#
# Indices 1 2 3 4 5 6 
#
# 1 0.008318 -0.001283 -0.004542 0.000000 0.000000 0.000000
# 2 -0.001283 0.017849 0.000406 0.000000 0.000000 0.000000
# 3 -0.004542 0.000406 0.008892 0.000000 0.000000 0.000000
# 4 0.000000 0.000000 0.000000 0.083057 0.000000 0.000000
# 5 0.000000 0.000000 0.000000 0.000000 0.049897 0.000000
# 6 0.000000 0.000000 0.000000 0.000000 0.000000 0.395999
#
#
# Mechanical properties :
#
#
# Convention : Reuss Voigt Hill
#
# Bulk Modulus (GPa) = 41.28592 64.23707 52.76150
# Shear Modulus (GPa) = 8.57746 25.78346 17.18046
#
# Velocity S-wave (km/s) = 2.03614 3.53020 2.88168
# Velocity P-wave (km/s) = 5.04808 6.90399 6.04765
#
# Compressibility (1/GPa) = 0.02422133
#
# Stress axis : x y z
#
# Youngs Moduli (GPa) = 120.22561 56.02656 112.45683
#
# Poissons Ratio (x) = 0.07188 0.51080
# Poissons Ratio (y) = 0.15424 -0.04570
# Poissons Ratio (z) = 0.54608 -0.02277
#
# Static dielectric constant tensor:
#      x y z
#    x 1.774790 0.000000 0.000000 
#    y 0.000000 1.790010 0.000000 
#    z 0.000000 0.000000 1.714820 
# 
# From -- ./inp_files/30202.got.cif
#   From: 2010.05.17/outbox.cif.g08.bks.cpg/sg59_16_cif.got.tgz:30202.got - 2010.06.03 14:40:33.
