data_PCOD9453968
_publ_section_title
;
Structure prediction by ZEFSAII (Michael W. Deem and Ramdas Pophale) SiO2 
 PCOD9453968
Probable space group: P B C N
;
_chemical_formula_sum "Si O2"
_cell_formula_units_Z 60
_cell_length_a 11.198245
_cell_length_b 13.741975
_cell_length_c 19.992717
_cell_angle_alpha 90.000000
_cell_angle_beta 90.000000
_cell_angle_gamma 90.000000
_cell_volume 3076.599305
_symmetry_space_group_name_H-M "P B C N"
_symmetry_group_IT_number 60
_symmetry_cell_setting 'orthorhombic'
loop_
_space_group_symop_operation_xyz
x,y,z
1/2-x,1/2-y,1/2+z
1/2+x,1/2-y,-z
-x,y,1/2-z
-x,-y,-z
1/2+x,1/2+y,1/2-z
1/2-x,1/2+y,z
x,-y,1/2+z
loop_
_atom_site_type_symbol
_atom_site_label
_atom_site_fract_x
_atom_site_fract_y
_atom_site_fract_z
Si Si1 0.178472 0.630379 0.068941
Si Si2 0.657748 0.952310 0.348924
Si Si3 0.394705 0.743327 0.378324
Si Si4 0.574998 0.675473 0.496330
Si Si5 0.644970 0.361978 0.431728
Si Si6 0.073510 0.435699 0.435204
Si Si7 0.500000 0.162242 0.750000
Si Si8 0.695052 0.864588 0.561156
O O1 0.167356 0.567522 0.136374
O O2 0.153034 0.744626 0.076009
O O3 0.310714 0.623711 0.036425
O O4 0.089499 0.583835 0.013769
O O5 0.785747 0.908856 0.369714
O O6 0.556921 0.918873 0.403510
O O7 0.602514 0.908122 0.281335
O O8 0.489787 0.708051 0.434467
O O9 0.348816 0.848526 0.403888
O O10 0.452428 0.767422 0.307960
O O11 0.284787 0.670456 0.381305
O O12 0.491210 0.615889 0.547731
O O13 0.619621 0.771928 0.535388
O O14 0.723806 0.389894 0.496569
O O15 0.123568 0.540702 0.417363
#
# Coordination Sequence:
#
# PCOD9453968 Si02
#       8
#     8   8   8   8   8   8   4   8
#     4  11  19  30  55  86 116 137 179 240 289 332
#     4  11  23  36  55  81 109 154 194 230 270 336
#     4  10  21  37  53  82 112 147 189 225 274 346
#     4  10  19  34  54  89 120 139 175 235 303 344
#     4  10  20  32  54  86 119 141 179 228 296 344
#     4  11  18  31  56  82 111 140 180 232 284 325
#     4  10  22  40  60  70 110 164 198 220 266 340
#     4  10  18  31  55  86 111 140 181 226 288 336
#
# _framework density 19.502053
#
# number of rings (size 3 to 8) (size 9 to 14) (size 15 to 20)
#    0.000    1.600    5.333    4.400    0.000    0.533 
#    0.000    5.333    0.000    0.800    0.000    0.000 
#    0.000    0.000    0.000    0.000    0.000    0.000 
#
# Total GULP energy -334533.359893 kJ/mol
# GULP energy per Si atom -5575.555998 kJ/mol
# Density = 1.945767 g / cm^3
# Si number density = 19.502053 Si / 1000 Ang^3
#
#
#
# Elastic Constant Matrix: (Units=GPa)
#
#
# Indices 1 2 3 4 5 6 
#
# 1 88.0093 16.8483 13.6016 0.0000 0.0000 0.0000
# 2 16.8483 60.9663 13.9559 0.0000 0.0000 0.0000
# 3 13.6016 13.9559 70.0187 0.0000 0.0000 0.0000
# 4 0.0000 0.0000 0.0000 21.0391 0.0000 0.0000
# 5 0.0000 0.0000 0.0000 0.0000 26.0975 0.0000
# 6 0.0000 0.0000 0.0000 0.0000 0.0000 24.8320
#
#
#
# Elastic Compliance Matrix: (Units=1/GPa)
#
#
# Indices 1 2 3 4 5 6 
#
# 1 0.012205 -0.002966 -0.001780 0.000000 0.000000 0.000000
# 2 -0.002966 0.017907 -0.002993 0.000000 0.000000 0.000000
# 3 -0.001780 -0.002993 0.015224 0.000000 0.000000 0.000000
# 4 0.000000 0.000000 0.000000 0.047531 0.000000 0.000000
# 5 0.000000 0.000000 0.000000 0.000000 0.038318 0.000000
# 6 0.000000 0.000000 0.000000 0.000000 0.000000 0.040271
#
#
# Mechanical properties :
#
#
# Convention : Reuss Voigt Hill
#
# Bulk Modulus (GPa) = 33.49004 34.20063 33.84533
# Shear Modulus (GPa) = 25.39540 26.03295 25.71418
#
# Velocity S-wave (km/s) = 3.61250 3.65757 3.63511
# Velocity P-wave (km/s) = 5.88303 5.95080 5.91702
#
# Compressibility (1/GPa) = 0.02985962
#
# Stress axis : x y z
#
# Youngs Moduli (GPa) = 81.93212 55.84341 65.68474
#
# Poissons Ratio (x) = 0.16561 0.11691
# Poissons Ratio (y) = 0.24297 0.19660
# Poissons Ratio (z) = 0.14583 0.16715
#
# Static dielectric constant tensor:
#      x y z
#    x 1.756090 0.000000 0.000000 
#    y 0.000000 1.736530 0.000000 
#    z 0.000000 0.000000 1.682950 
# 
# From -- ./inp_files/22724.got.cif
#   From: 2010.05.17/outbox.cif.g08.bks.cpg/sg60_12_cif.got.tgz:22724.got - 2010.06.03 14:59:27.
