data_PCOD9453847
_publ_section_title
;
Structure prediction by ZEFSAII (Michael W. Deem and Ramdas Pophale) SiO2 
 PCOD9453847
Probable space group: P B C N
;
_chemical_formula_sum "Si O2"
_cell_formula_units_Z 44
_cell_length_a 10.769031
_cell_length_b 18.971319
_cell_length_c 11.956736
_cell_angle_alpha 90.000000
_cell_angle_beta 90.000000
_cell_angle_gamma 90.000000
_cell_volume 2442.793716
_symmetry_space_group_name_H-M "P B C N"
_symmetry_group_IT_number 60
_symmetry_cell_setting 'orthorhombic'
loop_
_space_group_symop_operation_xyz
x,y,z
1/2-x,1/2-y,1/2+z
1/2+x,1/2-y,-z
-x,y,1/2-z
-x,-y,-z
1/2+x,1/2+y,1/2-z
1/2-x,1/2+y,z
x,-y,1/2+z
loop_
_atom_site_type_symbol
_atom_site_label
_atom_site_fract_x
_atom_site_fract_y
_atom_site_fract_z
Si Si1 0.148496 0.348402 0.103256
Si Si2 0.200397 0.211557 0.402126
Si Si3 0.131387 0.632975 0.973484
Si Si4 0.351238 0.967810 0.274191
Si Si5 0.000000 0.763192 0.750000
Si Si6 0.147238 0.624418 0.233096
O O1 0.192354 0.415179 0.176041
O O2 0.100459 0.288090 0.189595
O O3 0.019795 0.364944 0.036460
O O4 0.251932 0.323098 0.016520
O O5 0.187064 0.294640 0.425224
O O6 0.066800 0.193242 0.347530
O O7 0.294247 0.186244 0.306251
O O8 0.169825 0.569153 0.893072
O O9 0.170830 0.628069 0.101216
O O10 0.500000 0.970317 0.250000
O O11 0.305759 0.047652 0.272661
O O12 0.000000 0.627054 0.250000
#
# Coordination Sequence:
#
# PCOD9453847 Si02
#       6
#     8   8   8   8   4   8
#     4  10  17  34  55  80 112 152 182 237 300 339
#     4  11  21  34  58  81 115 153 192 227 291 343
#     4  10  20  35  51  81 122 144 185 241 287 351
#     4   9  19  33  54  81 119 147 178 239 311 339
#     4  10  20  38  54  86 116 156 190 238 292 346
#     4  11  22  33  57  91 113 143 194 238 293 358
#
# _framework density 18.012163999999999
#
# number of rings (size 3 to 8) (size 9 to 14) (size 15 to 20)
#    0.000    1.818    6.364    1.091    2.545    2.182 
#    0.000    0.000    0.000    1.091    7.091    0.000 
#    0.000    0.000    0.000    0.000    0.000    0.000 
#
# Total GULP energy -245162.528111 kJ/mol
# GULP energy per Si atom -5571.875639 kJ/mol
# Density = 1.797117 g / cm^3
# Si number density = 18.012164 Si / 1000 Ang^3
#
#
#
# Elastic Constant Matrix: (Units=GPa)
#
#
# Indices 1 2 3 4 5 6 
#
# 1 34.5837 36.2668 25.8921 0.0000 0.0000 0.0000
# 2 36.2668 74.3069 45.5163 0.0000 0.0000 0.0000
# 3 25.8921 45.5163 131.4943 0.0000 0.0000 0.0000
# 4 0.0000 0.0000 0.0000 -5.2421 0.0000 0.0000
# 5 0.0000 0.0000 0.0000 0.0000 38.7421 0.0000
# 6 0.0000 0.0000 0.0000 0.0000 0.0000 7.8901
#
#
#
# Elastic Compliance Matrix: (Units=1/GPa)
#
#
# Indices 1 2 3 4 5 6 
#
# 1 0.059692 -0.027836 -0.002118 0.000000 0.000000 0.000000
# 2 -0.027836 0.030060 -0.004924 0.000000 0.000000 0.000000
# 3 -0.002118 -0.004924 0.009726 0.000000 0.000000 0.000000
# 4 0.000000 0.000000 0.000000 -0.190765 0.000000 0.000000
# 5 0.000000 0.000000 0.000000 0.000000 0.025812 0.000000
# 6 0.000000 0.000000 0.000000 0.000000 0.000000 0.126742
#
#
# Mechanical properties :
#
#
# Convention : Reuss Voigt Hill
#
# Bulk Modulus (GPa) = 33.64585 50.63727 42.14156
# Shear Modulus (GPa) = 35.47821 17.12534 26.30178
#
# Velocity S-wave (km/s) = 4.44292 3.08679 3.82543
# Velocity P-wave (km/s) = 6.71115 6.39361 6.55430
#
# Compressibility (1/GPa) = 0.02972134
#
# Stress axis : x y z
#
# Youngs Moduli (GPa) = 16.75253 33.26693 102.81269
#
# Poissons Ratio (x) = 0.92603 0.21780
# Poissons Ratio (y) = 0.46633 0.50624
# Poissons Ratio (z) = 0.03549 0.16380
#
# Static dielectric constant tensor:
#      x y z
#    x 1.634110 0.000000 0.000000 
#    y 0.000000 1.637340 0.000000 
#    z 0.000000 0.000000 1.651910 
# 
# From -- ./inp_files/10932.got.cif
#   From: 2010.05.17/outbox.cif.g08.bks.cpg/sg60_6_cif.got.tgz:10932.got - 2010.06.03 14:59:27.
