data_PCOD9453027
_publ_section_title
;
Structure prediction by ZEFSAII (Michael W. Deem and Ramdas Pophale) SiO2 
 PCOD9453027
Probable space group: P M M N
;
_chemical_formula_sum "Si O2"
_cell_formula_units_Z 48
_cell_length_a 8.945556
_cell_length_b 31.161954
_cell_length_c 10.346921
_cell_angle_alpha 90.000000
_cell_angle_beta 90.000000
_cell_angle_gamma 90.000000
_cell_volume 2884.318092
_symmetry_space_group_name_H-M "P M M N"
_symmetry_group_IT_number 59
_space_group.IT_coordinate_system_code '2'
_symmetry_cell_setting 'orthorhombic'
loop_
_space_group_symop_operation_xyz
x,y,z
1/2-x,1/2-y,z
1/2+x,-y,-z
-x,1/2+y,-z
-x,-y,-z
1/2+x,1/2+y,-z
1/2-x,y,z
x,1/2-y,z
loop_
_atom_site_type_symbol
_atom_site_label
_atom_site_fract_x
_atom_site_fract_y
_atom_site_fract_z
Si Si1 0.930501 0.523937 0.876820
Si Si2 0.569550 0.979052 0.372988
Si Si3 0.927156 0.202918 0.712475
Si Si4 0.928773 0.884104 0.978545
Si Si5 0.573076 0.203408 0.024521
Si Si6 0.429483 0.385543 0.720173
O O1 0.750000 0.519387 0.875626
O O2 0.003091 0.503871 0.750025
O O3 0.967538 0.574168 0.895859
O O4 0.000000 0.500000 0.000000
O O5 0.750000 0.981961 0.373872
O O6 0.528872 0.928687 0.355817
O O7 0.500000 0.000000 0.500000
O O8 0.750000 0.200361 0.687522
O O9 0.980789 0.250000 0.665569
O O10 0.946775 0.203392 0.868537
O O11 0.004941 0.159193 0.667964
O O12 0.750000 0.880523 0.981134
O O13 0.977301 0.890820 0.128760
O O14 0.995329 0.839603 0.927912
O O15 0.750000 0.201093 0.048922
O O16 0.517695 0.250000 0.071706
O O17 0.250000 0.382418 0.719861
#
# Coordination Sequence:
#
# PCOD9453027 Si02
#       6
#     8   8   8   8   8   8
#     4  11  21  35  54  77 104 136 173 215 257 303
#     4  11  23  39  54  75 104 137 177 218 261 312
#     4   8  14  24  39  63  94 125 160 200 242 294
#     4   9  17  29  45  69  98 128 165 206 249 298
#     4   8  14  24  38  61  94 128 161 198 243 295
#     4   9  17  30  46  67  98 130 164 206 248 298
#
# _framework density 16.641714
#
# number of rings (size 3 to 8) (size 9 to 14) (size 15 to 20)
#    0.000    2.667    1.667    2.000    0.000    3.333 
#    0.000    3.333    0.000    0.000    0.000    1.167 
#    0.000    9.333    0.000    0.000    0.000    0.000 
#
# Total GULP energy -267313.858710 kJ/mol
# GULP energy per Si atom -5569.038723 kJ/mol
# Density = 1.660384 g / cm^3
# Si number density = 16.641714 Si / 1000 Ang^3
#
#
#
# Elastic Constant Matrix: (Units=GPa)
#
#
# Indices 1 2 3 4 5 6 
#
# 1 36.1790 61.6509 26.3258 0.0000 0.0000 0.0000
# 2 61.6509 212.4969 53.9370 0.0000 0.0000 0.0000
# 3 26.3258 53.9370 65.8684 0.0000 0.0000 0.0000
# 4 0.0000 0.0000 0.0000 13.4834 0.0000 0.0000
# 5 0.0000 0.0000 0.0000 0.0000 18.5420 0.0000
# 6 0.0000 0.0000 0.0000 0.0000 0.0000 35.6426
#
#
#
# Elastic Compliance Matrix: (Units=1/GPa)
#
#
# Indices 1 2 3 4 5 6 
#
# 1 0.062083 -0.014787 -0.012704 0.000000 0.000000 0.000000
# 2 -0.014787 0.009463 -0.001839 0.000000 0.000000 0.000000
# 3 -0.012704 -0.001839 0.021765 0.000000 0.000000 0.000000
# 4 0.000000 0.000000 0.000000 0.074165 0.000000 0.000000
# 5 0.000000 0.000000 0.000000 0.000000 0.053932 0.000000
# 6 0.000000 0.000000 0.000000 0.000000 0.000000 0.028056
#
#
# Mechanical properties :
#
#
# Convention : Reuss Voigt Hill
#
# Bulk Modulus (GPa) = 28.85969 66.48574 47.67272
# Shear Modulus (GPa) = 15.64093 25.04229 20.34161
#
# Velocity S-wave (km/s) = 3.06904 3.88337 3.49997
# Velocity P-wave (km/s) = 5.47158 7.75535 6.71132
#
# Compressibility (1/GPa) = 0.03465040
#
# Stress axis : x y z
#
# Youngs Moduli (GPa) = 16.10753 105.67701 45.94551
#
# Poissons Ratio (x) = 1.56267 0.58370
# Poissons Ratio (y) = 0.23819 0.08448
# Poissons Ratio (z) = 0.20463 0.19430
#
# Static dielectric constant tensor:
#      x y z
#    x 1.554320 0.000000 0.000000 
#    y 0.000000 1.602500 0.000000 
#    z 0.000000 0.000000 1.538880 
# 
# From -- ./inp_files/6283.got.cif
#   From: 2010.05.17/outbox.cif.g08.bks.cpg/sg59_4_cif.got.tgz:6283.got - 2010.06.03 14:40:33.
