data_PCOD9453868
_publ_section_title
;
Structure prediction by ZEFSAII (Michael W. Deem and Ramdas Pophale) SiO2 
 PCOD9453868
Probable space group: P B C N
;
_chemical_formula_sum "Si O2"
_cell_formula_units_Z 44
_cell_length_a 8.828483
_cell_length_b 16.849280
_cell_length_c 15.615168
_cell_angle_alpha 90.000000
_cell_angle_beta 90.000000
_cell_angle_gamma 90.000000
_cell_volume 2322.812174
_symmetry_space_group_name_H-M "P B C N"
_symmetry_group_IT_number 60
_symmetry_cell_setting 'orthorhombic'
loop_
_space_group_symop_operation_xyz
x,y,z
1/2-x,1/2-y,1/2+z
1/2+x,1/2-y,-z
-x,y,1/2-z
-x,-y,-z
1/2+x,1/2+y,1/2-z
1/2-x,1/2+y,z
x,-y,1/2+z
loop_
_atom_site_type_symbol
_atom_site_label
_atom_site_fract_x
_atom_site_fract_y
_atom_site_fract_z
Si Si1 0.072853 0.195178 0.122261
Si Si2 0.271922 0.638543 0.292546
Si Si3 0.000000 0.733826 0.250000
Si Si4 0.019299 0.911456 0.462623
Si Si5 0.734591 0.655619 0.850825
Si Si6 0.167224 0.958412 0.292522
O O1 0.175062 0.150150 0.193641
O O2 0.129953 0.285879 0.123172
O O3 0.901085 0.183958 0.154398
O O4 0.080667 0.149542 0.032888
O O5 0.271381 0.545657 0.311395
O O6 0.110896 0.678919 0.304811
O O7 0.892767 0.788370 0.307134
O O8 0.131384 0.914394 0.381106
O O9 0.853541 0.884810 0.429078
O O10 0.000000 0.000000 0.500000
O O11 0.764750 0.590940 0.776307
O O12 0.000000 0.969585 0.250000
#
# Coordination Sequence:
#
# PCOD9453868 Si02
#       6
#     8   8   4   8   8   8
#     4  10  20  35  58  91 114 150 200 258 294 355
#     4  10  19  37  60  82 116 152 201 236 306 363
#     4  10  20  36  60  82 114 158 190 240 300 362
#     4  11  19  34  60  92 116 162 205 243 300 372
#     4  10  21  37  59  84 122 154 201 250 301 363
#     4  10  17  36  60  84 112 164 196 235 299 377
#
# _framework density 18.942556
#
# number of rings (size 3 to 8) (size 9 to 14) (size 15 to 20)
#    0.000    1.818    6.364    1.091    0.000    1.455 
#    3.273    3.636    0.000    2.182    0.000    0.000 
#    0.000    0.000    0.000    0.000    0.000    0.000 
#
# Total GULP energy -245464.778646 kJ/mol
# GULP energy per Si atom -5578.744969 kJ/mol
# Density = 1.889944 g / cm^3
# Si number density = 18.942556 Si / 1000 Ang^3
#
#
#
# Elastic Constant Matrix: (Units=GPa)
#
#
# Indices 1 2 3 4 5 6 
#
# 1 49.8923 47.9754 2.3123 0.0000 0.0000 0.0000
# 2 47.9754 129.7839 27.7584 0.0000 0.0000 0.0000
# 3 2.3123 27.7584 69.0375 0.0000 0.0000 0.0000
# 4 0.0000 0.0000 0.0000 24.9489 0.0000 0.0000
# 5 0.0000 0.0000 0.0000 0.0000 9.3667 0.0000
# 6 0.0000 0.0000 0.0000 0.0000 0.0000 28.1176
#
#
#
# Elastic Compliance Matrix: (Units=1/GPa)
#
#
# Indices 1 2 3 4 5 6 
#
# 1 0.032096 -0.012729 0.004043 0.000000 0.000000 0.000000
# 2 -0.012729 0.013478 -0.004993 0.000000 0.000000 0.000000
# 3 0.004043 -0.004993 0.016357 0.000000 0.000000 0.000000
# 4 0.000000 0.000000 0.000000 0.040082 0.000000 0.000000
# 5 0.000000 0.000000 0.000000 0.000000 0.106761 0.000000
# 6 0.000000 0.000000 0.000000 0.000000 0.000000 0.035565
#
#
# Mechanical properties :
#
#
# Convention : Reuss Voigt Hill
#
# Bulk Modulus (GPa) = 28.92415 44.97843 36.95129
# Shear Modulus (GPa) = 17.65401 23.86448 20.75925
#
# Velocity S-wave (km/s) = 3.05614 3.55327 3.31404
# Velocity P-wave (km/s) = 5.26839 6.37420 5.84749
#
# Compressibility (1/GPa) = 0.03457318
#
# Stress axis : x y z
#
# Youngs Moduli (GPa) = 31.15663 74.19254 61.13572
#
# Poissons Ratio (x) = 0.94441 -0.24718
# Poissons Ratio (y) = 0.39660 0.30525
# Poissons Ratio (z) = -0.12597 0.37044
#
# Static dielectric constant tensor:
#      x y z
#    x 1.663070 0.000000 0.000000 
#    y 0.000000 1.683770 0.000000 
#    z 0.000000 0.000000 1.691480 
# 
# From -- ./inp_files/14924.got.cif
#   From: 2010.05.17/outbox.cif.g08.bks.cpg/sg60_8_cif.got.tgz:14924.got - 2010.06.03 14:59:27.
