data_PCOD9453917
_publ_section_title
;
Structure prediction by ZEFSAII (Michael W. Deem and Ramdas Pophale) SiO2 
 PCOD9453917
Probable space group: P B C N
;
_chemical_formula_sum "Si O2"
_cell_formula_units_Z 52
_cell_length_a 13.803023
_cell_length_b 18.744729
_cell_length_c 7.216590
_cell_angle_alpha 90.000000
_cell_angle_beta 90.000000
_cell_angle_gamma 90.000000
_cell_volume 1867.176660
_symmetry_space_group_name_H-M "P B C N"
_symmetry_group_IT_number 60
_symmetry_cell_setting 'orthorhombic'
loop_
_space_group_symop_operation_xyz
x,y,z
1/2-x,1/2-y,1/2+z
1/2+x,1/2-y,-z
-x,y,1/2-z
-x,-y,-z
1/2+x,1/2+y,1/2-z
1/2-x,1/2+y,z
x,-y,1/2+z
loop_
_atom_site_type_symbol
_atom_site_label
_atom_site_fract_x
_atom_site_fract_y
_atom_site_fract_z
Si Si1 0.373718 0.897852 0.644185
Si Si2 0.151329 0.073136 0.045645
Si Si3 0.876758 0.242989 0.884426
Si Si4 0.146361 0.379868 0.093355
Si Si5 0.350436 0.726960 0.053457
Si Si6 0.874602 0.091294 0.865553
Si Si7 0.500000 0.984802 0.250000
O O1 0.269209 0.923220 0.564122
O O2 0.417159 0.821837 0.581744
O O3 0.454619 0.956263 0.607017
O O4 0.360194 0.893264 0.869952
O O5 0.101825 0.087182 0.849472
O O6 0.128581 0.149808 0.142509
O O7 0.118015 0.991844 0.078853
O O8 0.765886 0.259594 0.943775
O O9 0.878467 0.232349 0.662053
O O10 0.913712 0.165773 0.953488
O O11 0.114022 0.299589 0.143636
O O12 0.259654 0.392116 0.130051
O O13 0.090142 0.431627 0.230264
#
# Coordination Sequence:
#
# PCOD9453917 Si02
#       7
#     8   8   8   8   8   8   4
#     4  10  20  33  46  64  96 130 161 193 229 277
#     4  10  18  29  48  71  94 120 156 197 240 282
#     4   8  16  30  46  64  88 122 156 192 235 278
#     4  10  20  33  46  64  96 130 161 193 229 277
#     4   8  16  30  46  64  88 122 156 192 235 278
#     4  10  18  29  48  71  94 120 156 197 240 282
#     4  12  22  28  48  74 100 128 166 186 230 280
#
# _framework density 27.849536000000001
#
# number of rings (size 3 to 8) (size 9 to 14) (size 15 to 20)
#    0.000    2.462    1.538    1.385    0.000    2.462 
#    0.000    0.000    0.000    0.000    0.000    1.077 
#    0.000    7.385    0.000    0.000    0.000    0.000 
#
# Total GULP energy -289872.269114 kJ/mol
# GULP energy per Si atom -5574.466714 kJ/mol
# Density = 2.778615 g / cm^3
# Si number density = 27.849536 Si / 1000 Ang^3
#
#
#
# Elastic Constant Matrix: (Units=GPa)
#
#
# Indices 1 2 3 4 5 6 
#
# 1 83.5027 29.3368 -9.9885 0.0000 0.0000 0.0000
# 2 29.3368 368.6750 44.2949 0.0000 0.0000 0.0000
# 3 -9.9885 44.2949 64.0515 0.0000 0.0000 0.0000
# 4 0.0000 0.0000 0.0000 19.2293 0.0000 0.0000
# 5 0.0000 0.0000 0.0000 0.0000 42.1342 0.0000
# 6 0.0000 0.0000 0.0000 0.0000 0.0000 21.9691
#
#
#
# Elastic Compliance Matrix: (Units=1/GPa)
#
#
# Indices 1 2 3 4 5 6 
#
# 1 0.012811 -0.001374 0.002948 0.000000 0.000000 0.000000
# 2 -0.001374 0.003105 -0.002362 0.000000 0.000000 0.000000
# 3 0.002948 -0.002362 0.017705 0.000000 0.000000 0.000000
# 4 0.000000 0.000000 0.000000 0.052004 0.000000 0.000000
# 5 0.000000 0.000000 0.000000 0.000000 0.023734 0.000000
# 6 0.000000 0.000000 0.000000 0.000000 0.000000 0.045519
#
#
# Mechanical properties :
#
#
# Convention : Reuss Voigt Hill
#
# Bulk Modulus (GPa) = 31.20477 71.50170 51.35324
# Shear Modulus (GPa) = 29.91587 46.83892 38.37740
#
# Velocity S-wave (km/s) = 3.28105 4.10549 3.71621
# Velocity P-wave (km/s) = 5.05795 6.94287 6.07397
#
# Compressibility (1/GPa) = 0.03204639
#
# Stress axis : x y z
#
# Youngs Moduli (GPa) = 78.05892 322.01193 56.47988
#
# Poissons Ratio (x) = 0.44230 -0.16648
# Poissons Ratio (y) = 0.10722 0.13339
# Poissons Ratio (z) = -0.23009 0.76053
#
# Static dielectric constant tensor:
#      x y z
#    x 2.176000 0.000000 0.000000 
#    y 0.000000 2.198370 0.000000 
#    z 0.000000 0.000000 2.523540 
# 
# From -- ./inp_files/6868.got.cif
#   From: 2010.05.17/outbox.cif.g08.bks.cpg/sg60_4_cif.got.tgz:6868.got - 2010.06.03 14:59:27.
