data_PCOD9453650
_publ_section_title
;
Structure prediction by ZEFSAII (Michael W. Deem and Ramdas Pophale) SiO2 
 PCOD9453650
Probable space group: P M M N
;
_chemical_formula_sum "Si O2"
_cell_formula_units_Z 48
_cell_length_a 18.000000
_cell_length_b 9.000000
_cell_length_c 15.000000
_cell_angle_alpha 90.000000
_cell_angle_beta 90.000000
_cell_angle_gamma 90.000000
_cell_volume 2430.000000
_symmetry_space_group_name_H-M "P M M N"
_symmetry_group_IT_number 59
_space_group.IT_coordinate_system_code '2'
_symmetry_cell_setting 'orthorhombic'
loop_
_space_group_symop_operation_xyz
x,y,z
1/2-x,1/2-y,z
1/2+x,-y,-z
-x,1/2+y,-z
-x,-y,-z
1/2+x,1/2+y,-z
1/2-x,y,z
x,1/2-y,z
loop_
_atom_site_type_symbol
_atom_site_label
_atom_site_fract_x
_atom_site_fract_y
_atom_site_fract_z
Si Si1 0.334560 0.072671 0.188211
Si Si2 0.836565 0.072655 0.462271
Si Si3 0.924357 0.075024 0.967246
Si Si4 0.422478 0.072710 0.698199
Si Si5 0.090472 0.928605 0.351269
Si Si6 0.664874 0.074131 0.145451
O O1 0.250000 0.032912 0.163170
O O2 0.341473 0.250000 0.186885
O O3 0.392801 0.000392 0.120836
O O4 0.353507 0.009449 0.285024
O O5 0.750000 0.038680 0.479337
O O6 0.841965 0.250000 0.446325
O O7 0.886665 0.036141 0.547885
O O8 0.867493 0.987233 0.377466
O O9 0.936531 0.250000 0.952482
O O10 0.862901 0.056390 0.044597
O O11 0.000000 0.000000 0.000000
O O12 0.421108 0.250000 0.701088
O O13 0.506511 0.026499 0.673631
O O14 0.392540 0.008186 0.790591
O O15 0.096809 0.750000 0.340144
O O16 0.750000 0.022657 0.157177
O O17 0.662818 0.250000 0.166376
#
# Coordination Sequence:
#
# PCOD9453650 Si02
#       6
#     8   8   8   8   8   8
#     4  11  24  40  60  89 122 155 194 242 294 347
#     4  10  21  38  60  84 112 151 196 238 285 346
#     4  11  23  40  63  89 118 154 196 242 293 349
#     4  11  23  37  57  87 118 149 188 237 292 344
#     4  10  22  40  61  85 115 154 197 238 286 347
#     4  10  22  40  60  82 111 151 195 234 278 338
#
# _framework density 19.753086
#
# number of rings (size 3 to 8) (size 9 to 14) (size 15 to 20)
#    0.000    1.500    0.000    4.500    0.000   11.333 
#    0.000    0.000    0.000    0.000    0.000    0.000 
#    0.000    0.000    0.000    0.000    0.000    0.000 
#
# Total GULP energy -268406.729314 kJ/mol
# GULP energy per Si atom -5591.806861 kJ/mol
# Density = 1.970813 g / cm^3
# Si number density = 19.753086 Si / 1000 Ang^3
#
#
#
# Elastic Constant Matrix: (Units=GPa)
#
#
# Indices 1 2 3 4 5 6 
#
# 1 56.5900 7.4832 -20.6253 0.0000 0.0000 0.0000
# 2 7.4832 15.1149 16.9672 0.0000 0.0000 0.0000
# 3 -20.6253 16.9672 43.3664 0.0000 0.0000 0.0000
# 4 0.0000 0.0000 0.0000 21.0222 0.0000 0.0000
# 5 0.0000 0.0000 0.0000 0.0000 30.4276 0.0000
# 6 0.0000 0.0000 0.0000 0.0000 0.0000 30.2038
#
#
#
# Elastic Compliance Matrix: (Units=1/GPa)
#
#
# Indices 1 2 3 4 5 6 
#
# 1 0.054814 -0.100576 0.065420 0.000000 0.000000 0.000000
# 2 -0.100576 0.302515 -0.166194 0.000000 0.000000 0.000000
# 3 0.065420 -0.166194 0.119197 0.000000 0.000000 0.000000
# 4 0.000000 0.000000 0.000000 0.047569 0.000000 0.000000
# 5 0.000000 0.000000 0.000000 0.000000 0.032865 0.000000
# 6 0.000000 0.000000 0.000000 0.000000 0.000000 0.033108
#
#
# Mechanical properties :
#
#
# Convention : Reuss Voigt Hill
#
# Bulk Modulus (GPa) = 13.54497 13.63575 13.59036
# Shear Modulus (GPa) = 4.91460 23.74713 14.33086
#
# Velocity S-wave (km/s) = 1.57906 3.47104 2.69643
# Velocity P-wave (km/s) = 3.19321 4.79397 4.07301
#
# Compressibility (1/GPa) = 0.07382814
#
# Stress axis : x y z
#
# Youngs Moduli (GPa) = 18.24342 3.30562 8.38944
#
# Poissons Ratio (x) = 0.33246 -0.54884
# Poissons Ratio (y) = 1.83484 1.39428
# Poissons Ratio (z) = -1.19349 0.54937
#
# Static dielectric constant tensor:
#      x y z
#    x 1.675530 0.000000 0.000000 
#    y 0.000000 1.655640 0.000000 
#    z 0.000000 0.000000 1.663620 
# 
# From -- ./inp_files/20405.got.cif
#   From: 2010.05.17/outbox.ucp.g08.bks.cvg/sg59_11_cif.got.tgz:20405.got - 2010.06.11 16:43:56.
