data_PCOD9453039
_publ_section_title
;
Structure prediction by ZEFSAII (Michael W. Deem and Ramdas Pophale) SiO2 
 PCOD9453039
Probable space group: P M M N
;
_chemical_formula_sum "Si O2"
_cell_formula_units_Z 48
_cell_length_a 8.558830
_cell_length_b 14.824625
_cell_length_c 21.013714
_cell_angle_alpha 90.000000
_cell_angle_beta 90.000000
_cell_angle_gamma 90.000000
_cell_volume 2666.250401
_symmetry_space_group_name_H-M "P M M N"
_symmetry_group_IT_number 59
_space_group.IT_coordinate_system_code '2'
_symmetry_cell_setting 'orthorhombic'
loop_
_space_group_symop_operation_xyz
x,y,z
1/2-x,1/2-y,z
1/2+x,-y,-z
-x,1/2+y,-z
-x,-y,-z
1/2+x,1/2+y,-z
1/2-x,y,z
x,1/2-y,z
loop_
_atom_site_type_symbol
_atom_site_label
_atom_site_fract_x
_atom_site_fract_y
_atom_site_fract_z
Si Si1 0.937868 0.058851 0.824189
Si Si2 0.937642 0.250000 0.478671
Si Si3 0.940371 0.057879 0.680509
Si Si4 0.436175 0.942767 0.940256
Si Si5 0.937677 0.750000 0.128054
Si Si6 0.437850 0.057988 0.440463
Si Si7 0.437140 0.250000 0.022330
Si Si8 0.940259 0.250000 0.627184
O O1 0.750000 0.056596 0.827480
O O2 0.988380 0.035812 0.752237
O O3 0.994037 0.159762 0.840861
O O4 0.005806 0.991094 0.876332
O O5 0.750000 0.250000 0.476873
O O6 0.986032 0.250000 0.553162
O O7 0.001258 0.340680 0.447096
O O8 0.750000 0.058836 0.680010
O O9 0.992724 0.158555 0.661196
O O10 0.989514 0.989372 0.625208
O O11 0.250000 0.944253 0.942526
O O12 0.496757 0.840920 0.946957
O O13 0.500000 0.000000 0.000000
O O14 0.750000 0.750000 0.133513
O O15 0.977784 0.750000 0.052877
O O16 0.250000 0.056961 0.442496
O O17 0.500000 0.000000 0.500000
O O18 0.250000 0.250000 0.027220
O O19 0.750000 0.250000 0.628503
#
# Coordination Sequence:
#
# PCOD9453039 Si02
#       8
#     8   4   8   8   4   8   4   4
#     4  11  22  38  62  88 117 158 203 240 289 354
#     4  11  21  36  59  87 119 153 197 248 295 342
#     4   9  19  35  58  86 117 156 196 238 290 355
#     4  12  24  40  62  89 121 156 195 242 294 346
#     4  11  22  36  58  89 125 155 188 244 301 346
#     4  11  21  37  60  87 118 154 199 245 292 348
#     4  11  23  40  63  91 120 152 198 245 289 344
#     4   9  15  30  56  85 116 150 189 237 287 344
#
# _framework density 18.00281
#
# number of rings (size 3 to 8) (size 9 to 14) (size 15 to 20)
#    0.000    1.333    3.333    3.750    0.000    2.000 
#    0.000    4.167    0.000    2.000    0.000    0.000 
#    0.000    0.000    0.000    0.000    0.000    0.000 
#
# Total GULP energy -268266.609004 kJ/mol
# GULP energy per Si atom -5588.887688 kJ/mol
# Density = 1.796183 g / cm^3
# Si number density = 18.002810 Si / 1000 Ang^3
#
#
#
# Elastic Constant Matrix: (Units=GPa)
#
#
# Indices 1 2 3 4 5 6 
#
# 1 68.0916 44.6488 49.4348 0.0000 0.0000 0.0000
# 2 44.6488 173.4932 104.4841 0.0000 0.0000 0.0000
# 3 49.4348 104.4841 188.2842 0.0000 0.0000 0.0000
# 4 0.0000 0.0000 0.0000 14.2436 0.0000 0.0000
# 5 0.0000 0.0000 0.0000 0.0000 24.5365 0.0000
# 6 0.0000 0.0000 0.0000 0.0000 0.0000 32.8042
#
#
#
# Elastic Compliance Matrix: (Units=1/GPa)
#
#
# Indices 1 2 3 4 5 6 
#
# 1 0.019031 -0.002836 -0.003423 0.000000 0.000000 0.000000
# 2 -0.002836 0.009080 -0.004294 0.000000 0.000000 0.000000
# 3 -0.003423 -0.004294 0.008593 0.000000 0.000000 0.000000
# 4 0.000000 0.000000 0.000000 0.070207 0.000000 0.000000
# 5 0.000000 0.000000 0.000000 0.000000 0.040756 0.000000
# 6 0.000000 0.000000 0.000000 0.000000 0.000000 0.030484
#
#
# Mechanical properties :
#
#
# Convention : Reuss Voigt Hill
#
# Bulk Modulus (GPa) = 64.11367 91.88939 78.00153
# Shear Modulus (GPa) = 24.45528 29.73694 27.09611
#
# Velocity S-wave (km/s) = 3.68967 4.06864 3.88378
# Velocity P-wave (km/s) = 7.33771 8.55712 7.97077
#
# Compressibility (1/GPa) = 0.01559730
#
# Stress axis : x y z
#
# Youngs Moduli (GPa) = 52.54640 110.13407 116.37949
#
# Poissons Ratio (x) = 0.31238 0.39832
# Poissons Ratio (y) = 0.14904 0.49973
# Poissons Ratio (z) = 0.17985 0.47291
#
# Static dielectric constant tensor:
#      x y z
#    x 1.614070 0.000000 0.000000 
#    y 0.000000 1.581910 0.000000 
#    z 0.000000 0.000000 1.608400 
# 
# From -- ./inp_files/25703.got.cif
#   From: 2010.05.17/outbox.cif.g08.bks.cpg/sg59_13_cif.got.tgz:25703.got - 2010.06.03 14:40:33.
