data_PCOD9453304
_publ_section_title
;
Structure prediction by ZEFSAII (Michael W. Deem and Ramdas Pophale) SiO2 
 PCOD9453304
Probable space group: P M M N
;
_chemical_formula_sum "Si O2"
_cell_formula_units_Z 56
_cell_length_a 7.605030
_cell_length_b 14.592320
_cell_length_c 27.134325
_cell_angle_alpha 90.000000
_cell_angle_beta 90.000000
_cell_angle_gamma 90.000000
_cell_volume 3011.232568
_symmetry_space_group_name_H-M "P M M N"
_symmetry_group_IT_number 59
_space_group.IT_coordinate_system_code '2'
_symmetry_cell_setting 'orthorhombic'
loop_
_space_group_symop_operation_xyz
x,y,z
1/2-x,1/2-y,z
1/2+x,-y,-z
-x,1/2+y,-z
-x,-y,-z
1/2+x,1/2+y,-z
1/2-x,y,z
x,1/2-y,z
loop_
_atom_site_type_symbol
_atom_site_label
_atom_site_fract_x
_atom_site_fract_y
_atom_site_fract_z
Si Si1 0.458838 0.852680 0.421769
Si Si2 0.034032 0.469627 0.373084
Si Si3 0.460462 0.854106 0.020539
Si Si4 0.038122 0.355298 0.468200
Si Si5 0.038242 0.966362 0.924872
Si Si6 0.960812 0.645733 0.719641
Si Si7 0.961178 0.145236 0.168629
O O1 0.250000 0.845793 0.414291
O O2 0.534121 0.750000 0.418917
O O3 0.483673 0.888468 0.477652
O O4 0.526158 0.926929 0.383147
O O5 0.250000 0.469651 0.372692
O O6 0.978230 0.411803 0.421026
O O7 0.974073 0.421393 0.323044
O O8 0.250000 0.847733 0.015722
O O9 0.526955 0.750000 0.027002
O O10 0.494988 0.928125 0.063410
O O11 0.527066 0.903318 0.970458
O O12 0.250000 0.355455 0.467348
O O13 0.977446 0.250000 0.464134
O O14 0.250000 0.960553 0.925058
O O15 0.973932 0.923128 0.873701
O O16 0.750000 0.650075 0.714430
O O17 0.028516 0.750000 0.713440
O O18 0.998339 0.616527 0.775544
O O19 0.750000 0.149123 0.164266
O O20 0.026991 0.250000 0.161754
#
# Coordination Sequence:
#
# PCOD9453304 Si02
#       7
#     8   8   8   8   8   8   8
#     4   9  17  28  41  58  80 105 133 164 199 242
#     4   9  16  27  43  60  80 107 135 165 204 248
#     4   9  17  29  45  67  95 123 151 185 222 257
#     4   9  16  26  41  60  81 105 132 161 197 244
#     4   9  17  29  46  67  91 122 155 182 214 261
#     4   9  17  29  45  64  83 105 138 178 215 250
#     4   9  17  30  47  66  90 118 145 175 215 261
#
# _framework density 18.597035999999999
#
# number of rings (size 3 to 8) (size 9 to 14) (size 15 to 20)
#    0.000    3.000    0.000    1.286    0.000    4.286 
#    0.000    1.429    0.000    6.857    0.000    2.000 
#    0.000    0.000    0.000    0.000    0.000    0.000 
#
# Total GULP energy -312203.117614 kJ/mol
# GULP energy per Si atom -5575.055672 kJ/mol
# Density = 1.855471 g / cm^3
# Si number density = 18.597036 Si / 1000 Ang^3
#
#
#
# Elastic Constant Matrix: (Units=GPa)
#
#
# Indices 1 2 3 4 5 6 
#
# 1 38.2783 5.3278 0.4893 0.0000 0.0000 0.0000
# 2 5.3278 142.1808 105.6085 0.0000 0.0000 0.0000
# 3 0.4893 105.6085 148.9438 0.0000 0.0000 0.0000
# 4 0.0000 0.0000 0.0000 30.5398 0.0000 0.0000
# 5 0.0000 0.0000 0.0000 0.0000 18.2386 0.0000
# 6 0.0000 0.0000 0.0000 0.0000 0.0000 11.3858
#
#
#
# Elastic Compliance Matrix: (Units=1/GPa)
#
#
# Indices 1 2 3 4 5 6 
#
# 1 0.026380 -0.001952 0.001298 0.000000 0.000000 0.000000
# 2 -0.001952 0.015004 -0.010632 0.000000 0.000000 0.000000
# 3 0.001298 -0.010632 0.014248 0.000000 0.000000 0.000000
# 4 0.000000 0.000000 0.000000 0.032744 0.000000 0.000000
# 5 0.000000 0.000000 0.000000 0.000000 0.054829 0.000000
# 6 0.000000 0.000000 0.000000 0.000000 0.000000 0.087829
#
#
# Mechanical properties :
#
#
# Convention : Reuss Voigt Hill
#
# Bulk Modulus (GPa) = 30.24963 61.36155 45.80559
# Shear Modulus (GPa) = 18.89463 26.56465 22.72964
#
# Velocity S-wave (km/s) = 3.19094 3.78356 3.49982
# Velocity P-wave (km/s) = 5.46601 7.22178 6.40435
#
# Compressibility (1/GPa) = 0.03305825
#
# Stress axis : x y z
#
# Youngs Moduli (GPa) = 37.90805 66.65102 70.18448
#
# Poissons Ratio (x) = 0.13013 -0.09107
# Poissons Ratio (y) = 0.07401 0.74619
# Poissons Ratio (z) = -0.04919 0.70862
#
# Static dielectric constant tensor:
#      x y z
#    x 1.695200 0.000000 0.000000 
#    y 0.000000 1.664610 0.000000 
#    z 0.000000 0.000000 1.622100 
# 
# From -- ./inp_files/33180.got.cif
#   From: 2010.05.17/outbox.cif.g08.bks.cpg/sg59_17_cif.got.tgz:33180.got - 2010.06.03 14:40:33.
