data_PCOD9453435
_publ_section_title
;
Structure prediction by ZEFSAII (Michael W. Deem and Ramdas Pophale) SiO2 
 PCOD9453435
Probable space group: P M M N
;
_chemical_formula_sum "Si O2"
_cell_formula_units_Z 64
_cell_length_a 30.000000
_cell_length_b 9.000000
_cell_length_c 12.000000
_cell_angle_alpha 90.000000
_cell_angle_beta 90.000000
_cell_angle_gamma 90.000000
_cell_volume 3240.000000
_symmetry_space_group_name_H-M "P M M N"
_symmetry_group_IT_number 59
_space_group.IT_coordinate_system_code '2'
_symmetry_cell_setting 'orthorhombic'
loop_
_space_group_symop_operation_xyz
x,y,z
1/2-x,1/2-y,z
1/2+x,-y,-z
-x,1/2+y,-z
-x,-y,-z
1/2+x,1/2+y,-z
1/2-x,y,z
x,1/2-y,z
loop_
_atom_site_type_symbol
_atom_site_label
_atom_site_fract_x
_atom_site_fract_y
_atom_site_fract_z
Si Si1 0.366448 0.071205 0.364252
Si Si2 0.196857 0.576971 0.538085
Si Si3 0.930026 0.424291 0.278948
Si Si4 0.509809 0.571487 0.881212
Si Si5 0.610000 0.572459 0.868006
Si Si6 0.951546 0.925578 0.499412
Si Si7 0.856715 0.420748 0.086901
Si Si8 0.802439 0.587538 0.239634
O O1 0.362268 0.250000 0.375484
O O2 0.360983 0.026328 0.236667
O O3 0.416538 0.032969 0.404338
O O4 0.330266 0.991407 0.438042
O O5 0.250000 0.559750 0.523282
O O6 0.187097 0.750000 0.552259
O O7 0.182128 0.492577 0.649027
O O8 0.933356 0.250000 0.311636
O O9 0.926993 0.524763 0.386641
O O10 0.890942 0.437585 0.189436
O O11 0.974391 0.469473 0.212168
O O12 0.507193 0.750000 0.892826
O O13 0.559191 0.527159 0.847827
O O14 0.500000 0.500000 0.000000
O O15 0.610570 0.750000 0.872936
O O16 0.625526 0.508369 0.982991
O O17 0.958145 0.750000 0.504770
O O18 0.000000 0.000000 0.500000
O O19 0.852924 0.250000 0.058827
O O20 0.811783 0.489145 0.132918
O O21 0.750000 0.602090 0.252906
O O22 0.823218 0.750000 0.226919
#
# Coordination Sequence:
#
# PCOD9453435 Si02
#       8
#     8   8   8   8   8   8   8   8
#     4  10  22  40  60  83 114 156 201 242 289 345
#     4  10  21  38  62  92 121 148 185 237 295 350
#     4  10  21  36  54  80 114 146 183 232 281 330
#     4  10  19  34  54  77 109 148 190 235 278 326
#     4  10  21  37  57  79 111 154 197 240 281 333
#     4  11  23  38  57  82 114 151 193 238 286 342
#     4  11  22  36  57  85 115 145 182 231 283 335
#     4  10  21  38  61  87 115 147 183 225 276 339
#
# _framework density 19.753086
#
# number of rings (size 3 to 8) (size 9 to 14) (size 15 to 20)
#    0.000    1.750    1.250    3.000    0.000    8.500 
#    0.000    1.875    0.000    0.750    0.000    0.000 
#    0.000    0.000    0.000    0.000    0.000    0.000 
#
# Total GULP energy -357115.591168 kJ/mol
# GULP energy per Si atom -5579.931112 kJ/mol
# Density = 1.970813 g / cm^3
# Si number density = 19.753086 Si / 1000 Ang^3
#
#
#
# Elastic Constant Matrix: (Units=GPa)
#
#
# Indices 1 2 3 4 5 6 
#
# 1 26.3311 40.1075 19.6051 0.0000 0.0000 0.0000
# 2 40.1075 51.2233 25.6150 0.0000 0.0000 0.0000
# 3 19.6051 25.6150 38.0241 0.0000 0.0000 0.0000
# 4 0.0000 0.0000 0.0000 35.1534 0.0000 0.0000
# 5 0.0000 0.0000 0.0000 0.0000 40.0135 0.0000
# 6 0.0000 0.0000 0.0000 0.0000 0.0000 14.2427
#
#
#
# Elastic Compliance Matrix: (Units=1/GPa)
#
#
# Indices 1 2 3 4 5 6 
#
# 1 -0.196819 0.155869 -0.003523 0.000000 0.000000 0.000000
# 2 0.155869 -0.094000 -0.017042 0.000000 0.000000 0.000000
# 3 -0.003523 -0.017042 0.039596 0.000000 0.000000 0.000000
# 4 0.000000 0.000000 0.000000 0.028447 0.000000 0.000000
# 5 0.000000 0.000000 0.000000 0.000000 0.024992 0.000000
# 6 0.000000 0.000000 0.000000 0.000000 0.000000 0.070212
#
#
# Mechanical properties :
#
#
# Convention : Reuss Voigt Hill
#
# Bulk Modulus (GPa) = 51.58413 31.80373 41.69393
# Shear Modulus (GPa) = -12.76422 19.89865 3.56721
#
# Velocity S-wave (km/s) = -2.54478 3.17735 1.34530
# Velocity P-wave (km/s) = 4.18767 5.44025 4.85453
#
# Compressibility (1/GPa) = 0.01938581
#
# Stress axis : x y z
#
# Youngs Moduli (GPa) = -5.08081 -10.63831 25.25510
#
# Poissons Ratio (x) = 1.65819 0.08896
# Poissons Ratio (y) = 0.79194 0.43041
# Poissons Ratio (z) = -0.01790 -0.18130
#
# Static dielectric constant tensor:
#      x y z
#    x 1.726160 0.000000 0.000000 
#    y 0.000000 1.681630 0.000000 
#    z 0.000000 0.000000 1.616090 
# 
# From -- ./inp_files/19227.got.cif
#   From: 2010.05.17/outbox.ucp.g08.bks.cvg/sg59_10_cif.got.tgz:19227.got - 2010.06.11 16:43:56.
