data_PCOD9453305
_publ_section_title
;
Structure prediction by ZEFSAII (Michael W. Deem and Ramdas Pophale) SiO2 
 PCOD9453305
Probable space group: P M M N
;
_chemical_formula_sum "Si O2"
_cell_formula_units_Z 48
_cell_length_a 14.389851
_cell_length_b 7.466935
_cell_length_c 21.601504
_cell_angle_alpha 90.000000
_cell_angle_beta 90.000000
_cell_angle_gamma 90.000000
_cell_volume 2321.040175
_symmetry_space_group_name_H-M "P M M N"
_symmetry_group_IT_number 59
_space_group.IT_coordinate_system_code '2'
_symmetry_cell_setting 'orthorhombic'
loop_
_space_group_symop_operation_xyz
x,y,z
1/2-x,1/2-y,z
1/2+x,-y,-z
-x,1/2+y,-z
-x,-y,-z
1/2+x,1/2+y,-z
1/2-x,y,z
x,1/2-y,z
loop_
_atom_site_type_symbol
_atom_site_label
_atom_site_fract_x
_atom_site_fract_y
_atom_site_fract_z
Si Si1 0.539262 0.530339 0.157109
Si Si2 0.543200 0.963859 0.406280
Si Si3 0.145956 0.539220 0.105440
Si Si4 0.642424 0.530885 0.281679
Si Si5 0.355288 0.035088 0.469204
Si Si6 0.857099 0.534251 0.033320
O O1 0.540055 0.750000 0.157065
O O2 0.432736 0.469131 0.151211
O O3 0.593175 0.473225 0.218288
O O4 0.589442 0.471838 0.093929
O O5 0.555427 0.750000 0.406126
O O6 0.585641 0.029871 0.342008
O O7 0.600977 0.032830 0.465835
O O8 0.434192 0.996951 0.418201
O O9 0.250000 0.461259 0.108576
O O10 0.153980 0.750000 0.117790
O O11 0.109981 0.522765 0.034671
O O12 0.750000 0.475904 0.284439
O O13 0.642020 0.750000 0.281502
O O14 0.250000 0.969489 0.458630
O O15 0.349942 0.250000 0.473786
O O16 0.750000 0.475763 0.037732
O O17 0.859167 0.750000 0.033689
#
# Coordination Sequence:
#
# PCOD9453305 Si02
#       6
#     8   8   8   8   8   8
#     4   9  16  26  41  62  86 111 140 175 216 260
#     4   9  17  29  47  72  96 118 150 190 226 260
#     4   9  17  28  41  58  82 111 141 174 215 260
#     4   9  16  27  45  68  92 116 144 181 224 268
#     4   9  17  30  48  69  95 126 155 183 220 266
#     4   9  16  26  42  63  83 104 136 177 216 255
#
# _framework density 20.680382999999999
#
# number of rings (size 3 to 8) (size 9 to 14) (size 15 to 20)
#    0.000    3.000    0.000    1.500    0.000    4.333 
#    0.000    0.833    0.000    6.500    0.000    2.333 
#    0.000    0.000    0.000    0.000    0.000    0.000 
#
# Total GULP energy -267786.504530 kJ/mol
# GULP energy per Si atom -5578.885511 kJ/mol
# Density = 2.063331 g / cm^3
# Si number density = 20.680383 Si / 1000 Ang^3
#
#
#
# Elastic Constant Matrix: (Units=GPa)
#
#
# Indices 1 2 3 4 5 6 
#
# 1 188.3046 1.8321 117.6841 0.0000 0.0000 0.0000
# 2 1.8321 59.4890 -0.2722 0.0000 0.0000 0.0000
# 3 117.6841 -0.2722 120.1585 0.0000 0.0000 0.0000
# 4 0.0000 0.0000 0.0000 12.1390 0.0000 0.0000
# 5 0.0000 0.0000 0.0000 0.0000 31.2618 0.0000
# 6 0.0000 0.0000 0.0000 0.0000 0.0000 10.1791
#
#
#
# Elastic Compliance Matrix: (Units=1/GPa)
#
#
# Indices 1 2 3 4 5 6 
#
# 1 0.013704 -0.000483 -0.013423 0.000000 0.000000 0.000000
# 2 -0.000483 0.016827 0.000512 0.000000 0.000000 0.000000
# 3 -0.013423 0.000512 0.021470 0.000000 0.000000 0.000000
# 4 0.000000 0.000000 0.000000 0.082379 0.000000 0.000000
# 5 0.000000 0.000000 0.000000 0.000000 0.031988 0.000000
# 6 0.000000 0.000000 0.000000 0.000000 0.000000 0.098240
#
#
# Mechanical properties :
#
#
# Convention : Reuss Voigt Hill
#
# Bulk Modulus (GPa) = 39.66433 67.38223 53.52328
# Shear Modulus (GPa) = 16.67765 27.29653 21.98709
#
# Velocity S-wave (km/s) = 2.84288 3.63702 3.26419
# Velocity P-wave (km/s) = 5.47698 7.09159 6.33593
#
# Compressibility (1/GPa) = 0.02521157
#
# Stress axis : x y z
#
# Youngs Moduli (GPa) = 72.96996 59.42813 46.57615
#
# Poissons Ratio (x) = 0.02873 0.62520
# Poissons Ratio (y) = 0.03528 -0.02383
# Poissons Ratio (z) = 0.97949 -0.03041
#
# Static dielectric constant tensor:
#      x y z
#    x 1.754150 0.000000 0.000000 
#    y 0.000000 1.795080 0.000000 
#    z 0.000000 0.000000 1.701830 
# 
# From -- ./inp_files/28832.got.cif
#   From: 2010.05.17/outbox.cif.g08.bks.cpg/sg59_15_cif.got.tgz:28832.got - 2010.06.03 14:40:33.
