data_PCOD9453167
_publ_section_title
;
Structure prediction by ZEFSAII (Michael W. Deem and Ramdas Pophale) SiO2 
 PCOD9453167
Probable space group: P M M N
;
_chemical_formula_sum "Si O2"
_cell_formula_units_Z 40
_cell_length_a 13.976657
_cell_length_b 22.423013
_cell_length_c 7.115208
_cell_angle_alpha 90.000000
_cell_angle_beta 90.000000
_cell_angle_gamma 90.000000
_cell_volume 2229.897376
_symmetry_space_group_name_H-M "P M M N"
_symmetry_group_IT_number 59
_space_group.IT_coordinate_system_code '2'
_symmetry_cell_setting 'orthorhombic'
loop_
_space_group_symop_operation_xyz
x,y,z
1/2-x,1/2-y,z
1/2+x,-y,-z
-x,1/2+y,-z
-x,-y,-z
1/2+x,1/2+y,-z
1/2-x,y,z
x,1/2-y,z
loop_
_atom_site_type_symbol
_atom_site_label
_atom_site_fract_x
_atom_site_fract_y
_atom_site_fract_z
Si Si1 0.049876 0.604545 0.168620
Si Si2 0.635585 0.181690 0.541494
Si Si3 0.643164 0.544362 0.207279
Si Si4 0.857139 0.519683 0.757834
Si Si5 0.050620 0.580329 0.723446
O O1 0.093673 0.663787 0.255212
O O2 0.110644 0.549023 0.252398
O O3 0.941238 0.591850 0.233357
O O4 0.054526 0.598890 0.943561
O O5 0.750000 0.174913 0.541471
O O6 0.612765 0.250000 0.493538
O O7 0.589600 0.134044 0.399702
O O8 0.750000 0.561916 0.262516
O O9 0.612202 0.480684 0.294752
O O10 0.643463 0.532838 0.981944
O O11 0.750000 0.528875 0.686134
O O12 0.941730 0.560616 0.677379
#
# Coordination Sequence:
#
# PCOD9453167 Si02
#       5
#     8   8   8   8   8
#     4   9  18  33  52  74 102 131 157 195 245 290
#     4  11  24  37  49  69  95 127 171 210 236 277
#     4   8  14  27  51  81 105 125 154 193 242 299
#     4   8  14  27  51  81 105 125 154 193 242 299
#     4   9  18  33  52  74 102 131 157 195 245 290
#
# _framework density 17.938046
#
# number of rings (size 3 to 8) (size 9 to 14) (size 15 to 20)
#    0.000    3.000    0.000    3.600    0.000    6.400 
#    0.000    5.000    0.000    2.400    0.000    5.600 
#    0.000    0.000    0.000    0.000    0.000    0.000 
#
# Total GULP energy -223180.814321 kJ/mol
# GULP energy per Si atom -5579.520358 kJ/mol
# Density = 1.789722 g / cm^3
# Si number density = 17.938046 Si / 1000 Ang^3
#
#
#
# Elastic Constant Matrix: (Units=GPa)
#
#
# Indices 1 2 3 4 5 6 
#
# 1 132.5488 48.2039 12.6534 0.0000 0.0000 0.0000
# 2 48.2039 78.1679 15.4005 0.0000 0.0000 0.0000
# 3 12.6534 15.4005 63.3107 0.0000 0.0000 0.0000
# 4 0.0000 0.0000 0.0000 22.0316 0.0000 0.0000
# 5 0.0000 0.0000 0.0000 0.0000 16.9767 0.0000
# 6 0.0000 0.0000 0.0000 0.0000 0.0000 18.9266
#
#
#
# Elastic Compliance Matrix: (Units=1/GPa)
#
#
# Indices 1 2 3 4 5 6 
#
# 1 0.009741 -0.005907 -0.000510 0.000000 0.000000 0.000000
# 2 -0.005907 0.017018 -0.002959 0.000000 0.000000 0.000000
# 3 -0.000510 -0.002959 0.016617 0.000000 0.000000 0.000000
# 4 0.000000 0.000000 0.000000 0.045389 0.000000 0.000000
# 5 0.000000 0.000000 0.000000 0.000000 0.058904 0.000000
# 6 0.000000 0.000000 0.000000 0.000000 0.000000 0.052836
#
#
# Mechanical properties :
#
#
# Convention : Reuss Voigt Hill
#
# Bulk Modulus (GPa) = 40.60981 47.39366 44.00173
# Shear Modulus (GPa) = 21.98132 24.77161 23.37647
#
# Velocity S-wave (km/s) = 3.50437 3.72015 3.61387
# Velocity P-wave (km/s) = 6.24998 6.70304 6.48047
#
# Compressibility (1/GPa) = 0.02462459
#
# Stress axis : x y z
#
# Youngs Moduli (GPa) = 102.65750 58.75984 60.17961
#
# Poissons Ratio (x) = 0.34707 0.03070
# Poissons Ratio (y) = 0.60635 0.17809
# Poissons Ratio (z) = 0.05237 0.17389
#
# Static dielectric constant tensor:
#      x y z
#    x 1.628150 0.000000 0.000000 
#    y 0.000000 1.561590 0.000000 
#    z 0.000000 0.000000 1.687300 
# 
# From -- ./inp_files/9140.got.cif
#   From: 2010.05.17/outbox.cif.g08.bks.cpg/sg59_5_cif.got.tgz:9140.got - 2010.06.03 14:40:33.
