data_PCOD9453810
_publ_section_title
;
Structure prediction by ZEFSAII (Michael W. Deem and Ramdas Pophale) SiO2 
 PCOD9453810
Probable space group: P B C N
;
_chemical_formula_sum "Si O2"
_cell_formula_units_Z 28
_cell_length_a 8.599177
_cell_length_b 26.230351
_cell_length_c 5.518194
_cell_angle_alpha 90.000000
_cell_angle_beta 90.000000
_cell_angle_gamma 90.000000
_cell_volume 1244.680699
_symmetry_space_group_name_H-M "P B C N"
_symmetry_group_IT_number 60
_symmetry_cell_setting 'orthorhombic'
loop_
_space_group_symop_operation_xyz
x,y,z
1/2-x,1/2-y,1/2+z
1/2+x,1/2-y,-z
-x,y,1/2-z
-x,-y,-z
1/2+x,1/2+y,1/2-z
1/2-x,1/2+y,z
x,-y,1/2+z
loop_
_atom_site_type_symbol
_atom_site_label
_atom_site_fract_x
_atom_site_fract_y
_atom_site_fract_z
Si Si1 0.000000 0.049746 0.250000
Si Si2 0.333399 0.380659 0.369132
Si Si3 0.794205 0.484184 0.174720
Si Si4 0.682831 0.227229 0.688213
O O1 0.890700 0.089322 0.393942
O O2 0.127029 0.012058 0.368949
O O3 0.500000 0.368325 0.250000
O O4 0.233486 0.425722 0.245682
O O5 0.232713 0.330224 0.381120
O O6 0.863595 0.512753 0.405803
O O7 0.729039 0.258260 0.442099
O O8 0.500000 0.232450 0.750000
#
# Coordination Sequence:
#
# PCOD9453810 Si02
#       4
#     4   8   8   8
#     4  10  18  32  56 104 138 168 230 270 322 420
#     4  11  20  35  66  94 134 176 225 280 345 391
#     4  10  17  30  51  94 135 164 218 271 307 404
#     4  12  29  51  71 100 137 181 242 301 354 417
#
# _framework density 22.495728
#
# number of rings (size 3 to 8) (size 9 to 14) (size 15 to 20)
#    0.000    1.143    4.286    4.286    6.000    0.000 
#    0.000    0.000    0.000    6.857    0.000    0.000 
#    0.000    0.000    0.000    0.000    0.000    0.000 
#
# Total GULP energy -155912.526144 kJ/mol
# GULP energy per Si atom -5568.304505 kJ/mol
# Density = 2.244453 g / cm^3
# Si number density = 22.495728 Si / 1000 Ang^3
#
#
#
# Elastic Constant Matrix: (Units=GPa)
#
#
# Indices 1 2 3 4 5 6 
#
# 1 106.9956 37.4235 52.3991 0.0000 0.0000 0.0000
# 2 37.4235 142.2299 33.3278 0.0000 0.0000 0.0000
# 3 52.3991 33.3278 114.5525 0.0000 0.0000 0.0000
# 4 0.0000 0.0000 0.0000 30.4184 0.0000 0.0000
# 5 0.0000 0.0000 0.0000 0.0000 39.8089 0.0000
# 6 0.0000 0.0000 0.0000 0.0000 0.0000 104.7246
#
#
#
# Elastic Compliance Matrix: (Units=1/GPa)
#
#
# Indices 1 2 3 4 5 6 
#
# 1 0.012608 -0.002110 -0.005153 0.000000 0.000000 0.000000
# 2 -0.002110 0.007898 -0.001333 0.000000 0.000000 0.000000
# 3 -0.005153 -0.001333 0.011475 0.000000 0.000000 0.000000
# 4 0.000000 0.000000 0.000000 0.032875 0.000000 0.000000
# 5 0.000000 0.000000 0.000000 0.000000 0.025120 0.000000
# 6 0.000000 0.000000 0.000000 0.000000 0.000000 0.009549
#
#
# Mechanical properties :
#
#
# Convention : Reuss Voigt Hill
#
# Bulk Modulus (GPa) = 67.61846 67.78654 67.70250
# Shear Modulus (GPa) = 41.10283 51.03221 46.06752
#
# Velocity S-wave (km/s) = 4.27914 4.76807 4.53021
# Velocity P-wave (km/s) = 7.38501 7.77889 7.58451
#
# Compressibility (1/GPa) = 0.01478886
#
# Stress axis : x y z
#
# Youngs Moduli (GPa) = 79.31558 126.60909 87.14873
#
# Poissons Ratio (x) = 0.26713 0.44910
# Poissons Ratio (y) = 0.16734 0.11616
# Poissons Ratio (z) = 0.40874 0.16875
#
# Static dielectric constant tensor:
#      x y z
#    x 1.914170 0.000000 0.000000 
#    y 0.000000 1.781020 0.000000 
#    z 0.000000 0.000000 2.035990 
# 
# From -- ./inp_files/301.got.cif
#   From: 2010.05.17/outbox.cif.g08.bks.cpg/sg60_1_cif.got.tgz:301.got - 2010.06.03 14:59:27.
