data_PCOD9453396
_publ_section_title
;
Structure prediction by ZEFSAII (Michael W. Deem and Ramdas Pophale) SiO2 
 PCOD9453396
Probable space group: P M M N
;
_chemical_formula_sum "Si O2"
_cell_formula_units_Z 64
_cell_length_a 18.000000
_cell_length_b 9.000000
_cell_length_c 21.000000
_cell_angle_alpha 90.000000
_cell_angle_beta 90.000000
_cell_angle_gamma 90.000000
_cell_volume 3402.000000
_symmetry_space_group_name_H-M "P M M N"
_symmetry_group_IT_number 59
_space_group.IT_coordinate_system_code '2'
_symmetry_cell_setting 'orthorhombic'
loop_
_space_group_symop_operation_xyz
x,y,z
1/2-x,1/2-y,z
1/2+x,-y,-z
-x,1/2+y,-z
-x,-y,-z
1/2+x,1/2+y,-z
1/2-x,y,z
x,1/2-y,z
loop_
_atom_site_type_symbol
_atom_site_label
_atom_site_fract_x
_atom_site_fract_y
_atom_site_fract_z
Si Si1 0.338231 0.417416 0.581171
Si Si2 0.402371 0.573940 0.698989
Si Si3 0.662483 0.915558 0.912551
Si Si4 0.335762 0.431804 0.443778
Si Si5 0.408631 0.583827 0.199951
Si Si6 0.570883 0.573713 0.033546
Si Si7 0.428240 0.072340 0.323898
Si Si8 0.414703 0.420299 0.825913
O O1 0.250000 0.406047 0.572130
O O2 0.367113 0.250000 0.592776
O O3 0.353565 0.518374 0.641063
O O4 0.365960 0.476914 0.513141
O O5 0.402593 0.750000 0.704105
O O6 0.486263 0.523212 0.681044
O O7 0.380092 0.506379 0.766837
O O8 0.750000 0.915002 0.907107
O O9 0.633293 0.750000 0.895677
O O10 0.628768 0.032209 0.864542
O O11 0.637573 0.944122 0.984307
O O12 0.250000 0.477947 0.434960
O O13 0.335835 0.250000 0.444636
O O14 0.386203 0.484417 0.385929
O O15 0.387208 0.750000 0.217025
O O16 0.390151 0.478254 0.258705
O O17 0.496813 0.579423 0.187250
O O18 0.554934 0.750000 0.041617
O O19 0.591675 0.514891 0.103234
O O20 0.500000 0.500000 0.000000
O O21 0.428028 0.250000 0.326698
O O22 0.388055 0.250000 0.825610
#
# Coordination Sequence:
#
# PCOD9453396 Si02
#       8
#     8   8   8   8   8   8   8   8
#     4   9  18  34  55  75  96 129 173 216 259 308
#     4  10  20  32  49  76 107 136 166 208 258 307
#     4  10  21  35  51  74 104 136 170 210 256 308
#     4   8  15  30  52  74  96 129 174 215 250 300
#     4  10  19  32  50  73 102 135 170 209 253 300
#     4  10  19  33  55  78 100 131 173 216 256 303
#     4   9  18  32  50  75 106 137 170 209 252 301
#     4   9  18  33  52  75 101 130 169 212 252 299
#
# _framework density 18.812463000000001
#
# number of rings (size 3 to 8) (size 9 to 14) (size 15 to 20)
#    0.000    2.625    1.250    1.500    0.000    3.000 
#    0.000    2.500    0.000    3.000    0.000    0.000 
#    0.000    0.000    0.000    0.000    0.000    0.000 
#
# Total GULP energy -356428.714348 kJ/mol
# GULP energy per Si atom -5569.198662 kJ/mol
# Density = 1.876965 g / cm^3
# Si number density = 18.812463 Si / 1000 Ang^3
#
#
#
# Elastic Constant Matrix: (Units=GPa)
#
#
# Indices 1 2 3 4 5 6 
#
# 1 -2.1762 9.5787 4.7015 0.0000 0.0000 0.0000
# 2 9.5787 -7.3747 12.9166 0.0000 0.0000 0.0000
# 3 4.7015 12.9166 117.7531 0.0000 0.0000 0.0000
# 4 0.0000 0.0000 0.0000 9.8913 0.0000 0.0000
# 5 0.0000 0.0000 0.0000 0.0000 38.6223 0.0000
# 6 0.0000 0.0000 0.0000 0.0000 0.0000 11.8701
#
#
#
# Elastic Compliance Matrix: (Units=1/GPa)
#
#
# Indices 1 2 3 4 5 6 
#
# 1 0.143290 0.147713 -0.021924 0.000000 0.000000 0.000000
# 2 0.147713 0.038528 -0.010124 0.000000 0.000000 0.000000
# 3 -0.021924 -0.010124 0.010478 0.000000 0.000000 0.000000
# 4 0.000000 0.000000 0.000000 0.101099 0.000000 0.000000
# 5 0.000000 0.000000 0.000000 0.000000 0.025892 0.000000
# 6 0.000000 0.000000 0.000000 0.000000 0.000000 0.084246
#
#
# Mechanical properties :
#
#
# Convention : Reuss Voigt Hill
#
# Bulk Modulus (GPa) = 2.36057 18.06621 10.21339
# Shear Modulus (GPa) = 15.95350 17.47709 16.71529
#
# Velocity S-wave (km/s) = 2.91525 3.05128 2.98404
# Velocity P-wave (km/s) = 3.54811 4.69446 4.16095
#
# Compressibility (1/GPa) = 0.42362609
#
# Stress axis : x y z
#
# Youngs Moduli (GPa) = 6.97888 25.95509 95.43609
#
# Poissons Ratio (x) = -3.83391 2.09235
# Poissons Ratio (y) = -1.03087 0.96619
# Poissons Ratio (z) = 0.15301 0.26277
#
# Static dielectric constant tensor:
#      x y z
#    x 1.648490 0.000000 0.000000 
#    y 0.000000 1.649370 0.000000 
#    z 0.000000 0.000000 1.653990 
# 
# From -- ./inp_files/28277.got.cif
#   From: 2010.05.17/outbox.ucp.g08.bks.cvg/sg59_15_cif.got.tgz:28277.got - 2010.06.11 16:43:56.
