data_PCOD9453036
_publ_section_title
;
Structure prediction by ZEFSAII (Michael W. Deem and Ramdas Pophale) SiO2 
 PCOD9453036
Probable space group: P M M N
;
_chemical_formula_sum "Si O2"
_cell_formula_units_Z 56
_cell_length_a 8.638939
_cell_length_b 24.775316
_cell_length_c 15.185360
_cell_angle_alpha 90.000000
_cell_angle_beta 90.000000
_cell_angle_gamma 90.000000
_cell_volume 3250.159708
_symmetry_space_group_name_H-M "P M M N"
_symmetry_group_IT_number 59
_space_group.IT_coordinate_system_code '2'
_symmetry_cell_setting 'orthorhombic'
loop_
_space_group_symop_operation_xyz
x,y,z
1/2-x,1/2-y,z
1/2+x,-y,-z
-x,1/2+y,-z
-x,-y,-z
1/2+x,1/2+y,-z
1/2-x,y,z
x,1/2-y,z
loop_
_atom_site_type_symbol
_atom_site_label
_atom_site_fract_x
_atom_site_fract_y
_atom_site_fract_z
Si Si1 0.064080 0.361306 0.784531
Si Si2 0.564681 0.250000 0.711382
Si Si3 0.934927 0.866278 0.536371
Si Si4 0.935337 0.250000 0.502583
Si Si5 0.564077 0.922268 0.046365
Si Si6 0.435089 0.933613 0.371020
Si Si7 0.436625 0.549281 0.671491
Si Si8 0.064075 0.962127 0.873831
O O1 0.250000 0.365156 0.776192
O O2 0.021966 0.375606 0.885021
O O3 0.005896 0.303215 0.754682
O O4 0.989986 0.405076 0.718923
O O5 0.750000 0.250000 0.720778
O O6 0.529288 0.250000 0.607236
O O7 0.750000 0.866855 0.532226
O O8 0.995515 0.805010 0.536219
O O9 0.001872 0.897126 0.450681
O O10 0.994827 0.900206 0.619517
O O11 0.750000 0.250000 0.492436
O O12 0.750000 0.923742 0.038766
O O13 0.513447 0.978364 0.093396
O O14 0.494536 0.921643 0.949026
O O15 0.250000 0.935551 0.375380
O O16 0.503699 0.993800 0.372221
O O17 0.250000 0.550120 0.667193
O O18 0.486075 0.548711 0.774093
O O19 0.250000 0.962024 0.873699
#
# Coordination Sequence:
#
# PCOD9453036 Si02
#       8
#     8   4   8   4   8   8   8   8
#     4  11  21  36  57  82 114 152 188 228 281 335
#     4  11  23  37  57  84 112 145 190 234 279 335
#     4  12  25  40  59  83 112 150 191 235 286 337
#     4  11  23  41  61  84 110 145 192 236 281 331
#     4   9  18  33  53  81 112 144 181 224 272 329
#     4  12  23  36  55  83 116 152 189 231 281 337
#     4  11  22  39  58  82 117 153 191 235 283 338
#     4   9  18  33  54  81 111 146 182 222 274 329
#
# _framework density 17.229921000000001
#
# number of rings (size 3 to 8) (size 9 to 14) (size 15 to 20)
#    0.000    1.286    2.857    4.286    0.000    2.857 
#    0.000    0.000    0.000    0.857    0.000    4.000 
#    0.000    0.000    0.000    0.000    0.000    0.000 
#
# Total GULP energy -312890.881387 kJ/mol
# GULP energy per Si atom -5587.337168 kJ/mol
# Density = 1.719071 g / cm^3
# Si number density = 17.229921 Si / 1000 Ang^3
#
#
#
# Elastic Constant Matrix: (Units=GPa)
#
#
# Indices 1 2 3 4 5 6 
#
# 1 75.9912 47.3199 31.7630 0.0000 0.0000 0.0000
# 2 47.3199 132.9261 58.7333 0.0000 0.0000 0.0000
# 3 31.7630 58.7333 91.9444 0.0000 0.0000 0.0000
# 4 0.0000 0.0000 0.0000 23.9779 0.0000 0.0000
# 5 0.0000 0.0000 0.0000 0.0000 29.0544 0.0000
# 6 0.0000 0.0000 0.0000 0.0000 0.0000 29.9136
#
#
#
# Elastic Compliance Matrix: (Units=1/GPa)
#
#
# Indices 1 2 3 4 5 6 
#
# 1 0.017434 -0.004939 -0.002868 0.000000 0.000000 0.000000
# 2 -0.004939 0.011881 -0.005883 0.000000 0.000000 0.000000
# 3 -0.002868 -0.005883 0.015625 0.000000 0.000000 0.000000
# 4 0.000000 0.000000 0.000000 0.041705 0.000000 0.000000
# 5 0.000000 0.000000 0.000000 0.000000 0.034418 0.000000
# 6 0.000000 0.000000 0.000000 0.000000 0.000000 0.033430
#
#
# Mechanical properties :
#
#
# Convention : Reuss Voigt Hill
#
# Bulk Modulus (GPa) = 56.94848 64.05490 60.50169
# Shear Modulus (GPa) = 26.63479 27.45887 27.04683
#
# Velocity S-wave (km/s) = 3.93599 3.99642 3.96632
# Velocity P-wave (km/s) = 7.33347 7.65195 7.49441
#
# Compressibility (1/GPa) = 0.01755973
#
# Stress axis : x y z
#
# Youngs Moduli (GPa) = 57.36051 84.17060 64.00098
#
# Poissons Ratio (x) = 0.41573 0.18352
# Poissons Ratio (y) = 0.28331 0.37652
# Poissons Ratio (z) = 0.16448 0.49517
#
# Static dielectric constant tensor:
#      x y z
#    x 1.577730 0.000000 0.000000 
#    y 0.000000 1.549150 0.000000 
#    z 0.000000 0.000000 1.586520 
# 
# From -- ./inp_files/21202.got.cif
#   From: 2010.05.17/outbox.cif.g08.bks.cpg/sg59_11_cif.got.tgz:21202.got - 2010.06.03 14:40:33.
