data_PCOD9453611
_publ_section_title
;
Structure prediction by ZEFSAII (Michael W. Deem and Ramdas Pophale) SiO2 
 PCOD9453611
Probable space group: P M M N
;
_chemical_formula_sum "Si O2"
_cell_formula_units_Z 64
_cell_length_a 18.000000
_cell_length_b 9.000000
_cell_length_c 21.000000
_cell_angle_alpha 90.000000
_cell_angle_beta 90.000000
_cell_angle_gamma 90.000000
_cell_volume 3402.000000
_symmetry_space_group_name_H-M "P M M N"
_symmetry_group_IT_number 59
_space_group.IT_coordinate_system_code '2'
_symmetry_cell_setting 'orthorhombic'
loop_
_space_group_symop_operation_xyz
x,y,z
1/2-x,1/2-y,z
1/2+x,-y,-z
-x,1/2+y,-z
-x,-y,-z
1/2+x,1/2+y,-z
1/2-x,y,z
x,1/2-y,z
loop_
_atom_site_type_symbol
_atom_site_label
_atom_site_fract_x
_atom_site_fract_y
_atom_site_fract_z
Si Si1 0.663576 0.071933 0.123824
Si Si2 0.589789 0.571682 0.381128
Si Si3 0.660880 0.577973 0.884012
Si Si4 0.079466 0.573430 0.002137
Si Si5 0.662722 0.571977 0.251329
Si Si6 0.079883 0.570928 0.374935
Si Si7 0.837846 0.079039 0.499754
Si Si8 0.335775 0.428690 0.260158
O O1 0.750000 0.029739 0.119469
O O2 0.659370 0.250000 0.128625
O O3 0.623624 0.022444 0.060254
O O4 0.631934 0.000078 0.187447
O O5 0.593713 0.750000 0.380940
O O6 0.622021 0.518193 0.314210
O O7 0.504597 0.527228 0.386863
O O8 0.636216 0.511617 0.439427
O O9 0.750000 0.572365 0.889886
O O10 0.638102 0.750000 0.893332
O O11 0.642718 0.532681 0.811965
O O12 0.622917 0.476477 0.935586
O O13 0.073371 0.750000 0.000048
O O14 0.000000 0.500000 0.000000
O O15 0.750000 0.534632 0.256849
O O16 0.656719 0.750000 0.247021
O O17 0.084256 0.750000 0.370431
O O18 0.127597 0.520476 0.435145
O O19 0.111697 0.502164 0.311177
O O20 0.750000 0.077523 0.505025
O O21 0.862955 0.250000 0.491900
O O22 0.250000 0.474595 0.270876
O O23 0.338058 0.250000 0.264787
#
# Coordination Sequence:
#
# PCOD9453611 Si02
#       8
#     8   8   8   8   8   8   8   8
#     4   9  19  36  56  77 102 134 174 218 261 310
#     4  10  21  36  54  78 108 140 175 215 261 316
#     4   9  19  37  59  82 110 143 180 224 271 319
#     4  11  23  37  54  79 111 144 181 225 272 324
#     4   9  18  33  53  77 104 134 171 215 259 306
#     4  10  21  36  54  79 111 143 175 216 266 317
#     4  10  21  36  54  77 105 138 178 223 268 314
#     4   9  19  36  57  81 108 140 180 222 264 316
#
# _framework density 18.812463000000001
#
# number of rings (size 3 to 8) (size 9 to 14) (size 15 to 20)
#    0.000    2.375    0.000    2.625    0.000    6.250 
#    0.000    6.250    0.000    0.000    0.000    0.000 
#    0.000    0.000    0.000    0.000    0.000    0.000 
#
# Total GULP energy -357057.673844 kJ/mol
# GULP energy per Si atom -5579.026154 kJ/mol
# Density = 1.876965 g / cm^3
# Si number density = 18.812463 Si / 1000 Ang^3
#
#
#
# Elastic Constant Matrix: (Units=GPa)
#
#
# Indices 1 2 3 4 5 6 
#
# 1 45.4671 28.4598 69.1153 0.0000 0.0000 0.0000
# 2 28.4598 2.4699 42.0361 0.0000 0.0000 0.0000
# 3 69.1153 42.0361 131.7543 0.0000 0.0000 0.0000
# 4 0.0000 0.0000 0.0000 28.0058 0.0000 0.0000
# 5 0.0000 0.0000 0.0000 0.0000 62.2148 0.0000
# 6 0.0000 0.0000 0.0000 0.0000 0.0000 7.2910
#
#
#
# Elastic Compliance Matrix: (Units=1/GPa)
#
#
# Indices 1 2 3 4 5 6 
#
# 1 0.077134 0.045178 -0.054877 0.000000 0.000000 0.000000
# 2 0.045178 -0.064932 -0.002983 0.000000 0.000000 0.000000
# 3 -0.054877 -0.002983 0.037329 0.000000 0.000000 0.000000
# 4 0.000000 0.000000 0.000000 0.035707 0.000000 0.000000
# 5 0.000000 0.000000 0.000000 0.000000 0.016073 0.000000
# 6 0.000000 0.000000 0.000000 0.000000 0.000000 0.137155
#
#
# Mechanical properties :
#
#
# Convention : Reuss Voigt Hill
#
# Bulk Modulus (GPa) = 41.37797 50.99043 46.18420
# Shear Modulus (GPa) = 18.39014 22.17433 20.28224
#
# Velocity S-wave (km/s) = 3.12997 3.43695 3.28705
# Velocity P-wave (km/s) = 5.92495 6.55085 6.24574
#
# Compressibility (1/GPa) = 0.02416745
#
# Stress axis : x y z
#
# Youngs Moduli (GPa) = 12.96442 -15.40062 26.78902
#
# Poissons Ratio (x) = 0.69577 1.47010
# Poissons Ratio (y) = -0.58571 0.07991
# Poissons Ratio (z) = 0.71145 -0.04594
#
# Static dielectric constant tensor:
#      x y z
#    x 1.635350 0.000000 0.000000 
#    y 0.000000 1.680200 0.000000 
#    z 0.000000 0.000000 1.578400 
# 
# From -- ./inp_files/30808.got.cif
#   From: 2010.05.17/outbox.ucp.g08.bks.cvg/sg59_16_cif.got.tgz:30808.got - 2010.06.11 16:43:56.
