data_PCOD9453132
_publ_section_title
;
Structure prediction by ZEFSAII (Michael W. Deem and Ramdas Pophale) SiO2 
 PCOD9453132
Probable space group: P M M N
;
_chemical_formula_sum "Si O2"
_cell_formula_units_Z 48
_cell_length_a 14.793256
_cell_length_b 9.757961
_cell_length_c 15.460409
_cell_angle_alpha 90.000000
_cell_angle_beta 90.000000
_cell_angle_gamma 90.000000
_cell_volume 2231.741194
_symmetry_space_group_name_H-M "P M M N"
_symmetry_group_IT_number 59
_space_group.IT_coordinate_system_code '2'
_symmetry_cell_setting 'orthorhombic'
loop_
_space_group_symop_operation_xyz
x,y,z
1/2-x,1/2-y,z
1/2+x,-y,-z
-x,1/2+y,-z
-x,-y,-z
1/2+x,1/2+y,-z
1/2-x,y,z
x,1/2-y,z
loop_
_atom_site_type_symbol
_atom_site_label
_atom_site_fract_x
_atom_site_fract_y
_atom_site_fract_z
Si Si1 0.077607 0.908959 0.457623
Si Si2 0.359070 0.406667 0.301842
Si Si3 0.860469 0.407213 0.052650
Si Si4 0.139275 0.405194 0.785398
Si Si5 0.853590 0.397783 0.358882
Si Si6 0.360297 0.406710 0.105369
O O1 0.053938 0.750000 0.442555
O O2 0.147047 0.912404 0.538125
O O3 0.109200 0.984222 0.371670
O O4 0.000000 0.000000 0.500000
O O5 0.250000 0.409281 0.300857
O O6 0.385380 0.250000 0.325018
O O7 0.389813 0.435137 0.203631
O O8 0.750000 0.405520 0.051880
O O9 0.890560 0.250000 0.057827
O O10 0.887181 0.496547 0.135713
O O11 0.890668 0.484793 0.965806
O O12 0.250000 0.396983 0.786391
O O13 0.106042 0.250000 0.793970
O O14 0.108105 0.476843 0.696105
O O15 0.750000 0.389135 0.329752
O O16 0.897537 0.250000 0.338956
O O17 0.250000 0.409871 0.105519
O O18 0.385271 0.250000 0.082680
#
# Coordination Sequence:
#
# PCOD9453132 Si02
#       6
#     8   8   8   8   8   8
#     4  11  23  37  53  73  99 131 167 208 253 301
#     4   9  18  33  53  76 102 132 166 206 251 297
#     4   9  15  22  35  59  93 129 160 193 234 279
#     4   9  16  25  40  64  93 125 159 195 237 285
#     4   9  18  33  51  71  96 126 161 202 247 292
#     4   8  14  25  41  63  93 127 160 195 237 284
#
# _framework density 21.507871000000002
#
# number of rings (size 3 to 8) (size 9 to 14) (size 15 to 20)
#    0.000    2.833    0.000    3.000    0.000    7.000 
#    0.000    3.333    0.000    0.000    0.000    1.167 
#    0.000    0.000    0.000    0.000    0.000    0.000 
#
# Total GULP energy -267873.459357 kJ/mol
# GULP energy per Si atom -5580.697070 kJ/mol
# Density = 2.145892 g / cm^3
# Si number density = 21.507871 Si / 1000 Ang^3
#
#
#
# Elastic Constant Matrix: (Units=GPa)
#
#
# Indices 1 2 3 4 5 6 
#
# 1 44.6418 17.9780 7.0501 0.0000 0.0000 0.0000
# 2 17.9780 204.1252 108.3570 0.0000 0.0000 0.0000
# 3 7.0501 108.3570 110.1387 0.0000 0.0000 0.0000
# 4 0.0000 0.0000 0.0000 55.1852 0.0000 0.0000
# 5 0.0000 0.0000 0.0000 0.0000 5.3758 0.0000
# 6 0.0000 0.0000 0.0000 0.0000 0.0000 3.0468
#
#
#
# Elastic Compliance Matrix: (Units=1/GPa)
#
#
# Indices 1 2 3 4 5 6 
#
# 1 0.023288 -0.002637 0.001103 0.000000 0.000000 0.000000
# 2 -0.002637 0.010553 -0.010213 0.000000 0.000000 0.000000
# 3 0.001103 -0.010213 0.019057 0.000000 0.000000 0.000000
# 4 0.000000 0.000000 0.000000 0.018121 0.000000 0.000000
# 5 0.000000 0.000000 0.000000 0.000000 0.186019 0.000000
# 6 0.000000 0.000000 0.000000 0.000000 0.000000 0.328216
#
#
# Mechanical properties :
#
#
# Convention : Reuss Voigt Hill
#
# Bulk Modulus (GPa) = 34.00836 69.51954 51.76395
# Shear Modulus (GPa) = 8.08345 27.75626 17.91985
#
# Velocity S-wave (km/s) = 1.94075 3.59627 2.88961
# Velocity P-wave (km/s) = 4.56820 7.04537 5.93741
#
# Compressibility (1/GPa) = 0.02940454
#
# Stress axis : x y z
#
# Youngs Moduli (GPa) = 42.94033 94.76198 52.47453
#
# Poissons Ratio (x) = 0.24987 -0.05790
# Poissons Ratio (y) = 0.11323 0.53594
# Poissons Ratio (z) = -0.04738 0.96783
#
# Static dielectric constant tensor:
#      x y z
#    x 1.701230 0.000000 0.000000 
#    y 0.000000 1.752950 0.000000 
#    z 0.000000 0.000000 1.777100 
# 
# From -- ./inp_files/23634.got.cif
#   From: 2010.05.17/outbox.cif.g08.bks.cpg/sg59_12_cif.got.tgz:23634.got - 2010.06.03 14:40:33.
