data_PCOD9453186
_publ_section_title
;
Structure prediction by ZEFSAII (Michael W. Deem and Ramdas Pophale) SiO2 
 PCOD9453186
Probable space group: P M M N
;
_chemical_formula_sum "Si O2"
_cell_formula_units_Z 26
_cell_length_a 15.876842
_cell_length_b 13.935289
_cell_length_c 4.686787
_cell_angle_alpha 90.000000
_cell_angle_beta 90.000000
_cell_angle_gamma 90.000000
_cell_volume 1036.944039
_symmetry_space_group_name_H-M "P M M N"
_symmetry_group_IT_number 59
_space_group.IT_coordinate_system_code '2'
_symmetry_cell_setting 'orthorhombic'
loop_
_space_group_symop_operation_xyz
x,y,z
1/2-x,1/2-y,z
1/2+x,-y,-z
-x,1/2+y,-z
-x,-y,-z
1/2+x,1/2+y,-z
1/2-x,y,z
x,1/2-y,z
loop_
_atom_site_type_symbol
_atom_site_label
_atom_site_fract_x
_atom_site_fract_y
_atom_site_fract_z
Si Si1 0.651059 0.034083 0.073671
Si Si2 0.417722 0.639985 0.425891
Si Si3 0.250000 0.250000 0.486489
Si Si4 0.407172 0.354144 0.269702
O O1 0.750000 0.036565 0.011448
O O2 0.599783 0.115880 0.901322
O O3 0.612216 0.935595 0.957927
O O4 0.636149 0.061957 0.400111
O O5 0.393101 0.750000 0.483711
O O6 0.512933 0.626329 0.532848
O O7 0.324090 0.332224 0.456337
O O8 0.421558 0.250000 0.119718
#
# Coordination Sequence:
#
# PCOD9453186 Si02
#       4
#     8   8   2   8
#     4  12  23  42  65  93 125 168 209 253 308 370
#     4  11  25  41  65  91 128 166 208 258 306 366
#     4   8  16  40  72  90 128 154 208 262 320 362
#     4   9  19  40  67  95 126 157 209 259 322 363
#
# _framework density 25.073675999999999
#
# number of rings (size 3 to 8) (size 9 to 14) (size 15 to 20)
#    0.923    0.615    1.538    3.692    0.000    3.692 
#    0.000    4.615    0.000   11.077    0.000    0.000 
#    0.000    0.000    0.000    0.000    0.000    0.000 
#
# Total GULP energy -145127.730500 kJ/mol
# GULP energy per Si atom -5581.835788 kJ/mol
# Density = 2.501661 g / cm^3
# Si number density = 25.073676 Si / 1000 Ang^3
#
#
#
# Elastic Constant Matrix: (Units=GPa)
#
#
# Indices 1 2 3 4 5 6 
#
# 1 114.0040 42.3625 5.2768 0.0000 0.0000 0.0000
# 2 42.3625 130.0691 11.1382 0.0000 0.0000 0.0000
# 3 5.2768 11.1382 67.7618 0.0000 0.0000 0.0000
# 4 0.0000 0.0000 0.0000 19.9247 0.0000 0.0000
# 5 0.0000 0.0000 0.0000 0.0000 5.8655 0.0000
# 6 0.0000 0.0000 0.0000 0.0000 0.0000 40.0666
#
#
#
# Elastic Compliance Matrix: (Units=1/GPa)
#
#
# Indices 1 2 3 4 5 6 
#
# 1 0.009983 -0.003230 -0.000246 0.000000 0.000000 0.000000
# 2 -0.003230 0.008843 -0.001202 0.000000 0.000000 0.000000
# 3 -0.000246 -0.001202 0.014974 0.000000 0.000000 0.000000
# 4 0.000000 0.000000 0.000000 0.050189 0.000000 0.000000
# 5 0.000000 0.000000 0.000000 0.000000 0.170490 0.000000
# 6 0.000000 0.000000 0.000000 0.000000 0.000000 0.024958
#
#
# Mechanical properties :
#
#
# Convention : Reuss Voigt Hill
#
# Bulk Modulus (GPa) = 40.91110 47.71001 44.31055
# Shear Modulus (GPa) = 16.83820 30.04185 23.44003
#
# Velocity S-wave (km/s) = 2.59424 3.46518 3.06084
# Velocity P-wave (km/s) = 5.03242 5.92277 5.49565
#
# Compressibility (1/GPa) = 0.02444324
#
# Stress axis : x y z
#
# Youngs Moduli (GPa) = 100.16617 113.08021 66.78090
#
# Poissons Ratio (x) = 0.36530 0.01646
# Poissons Ratio (y) = 0.32358 0.08027
# Poissons Ratio (z) = 0.02469 0.13593
#
# Static dielectric constant tensor:
#      x y z
#    x 1.907490 0.000000 0.000000 
#    y 0.000000 2.004720 0.000000 
#    z 0.000000 0.000000 1.942510 
# 
# From -- ./inp_files/1724.got.cif
#   From: 2010.05.17/outbox.cif.g08.bks.cpg/sg59_1_cif.got.tgz:1724.got - 2010.06.03 14:40:33.
