data_PCOD9453145
_publ_section_title
;
Structure prediction by ZEFSAII (Michael W. Deem and Ramdas Pophale) SiO2 
 PCOD9453145
Probable space group: P M M N
;
_chemical_formula_sum "Si O2"
_cell_formula_units_Z 64
_cell_length_a 8.572310
_cell_length_b 31.273512
_cell_length_c 12.295995
_cell_angle_alpha 90.000000
_cell_angle_beta 90.000000
_cell_angle_gamma 90.000000
_cell_volume 3296.387062
_symmetry_space_group_name_H-M "P M M N"
_symmetry_group_IT_number 59
_space_group.IT_coordinate_system_code '2'
_symmetry_cell_setting 'orthorhombic'
loop_
_space_group_symop_operation_xyz
x,y,z
1/2-x,1/2-y,z
1/2+x,-y,-z
-x,1/2+y,-z
-x,-y,-z
1/2+x,1/2+y,-z
1/2-x,y,z
x,1/2-y,z
loop_
_atom_site_type_symbol
_atom_site_label
_atom_site_fract_x
_atom_site_fract_y
_atom_site_fract_z
Si Si1 0.564923 0.374456 0.862863
Si Si2 0.434951 0.048466 0.005552
Si Si3 0.561560 0.799785 0.985430
Si Si4 0.931102 0.699183 0.734938
Si Si5 0.935354 0.439901 0.239030
Si Si6 0.067517 0.868212 0.583740
Si Si7 0.567977 0.894552 0.361799
Si Si8 0.433647 0.512620 0.381956
O O1 0.750000 0.375847 0.848666
O O2 0.509775 0.418695 0.919674
O O3 0.516975 0.334565 0.938061
O O4 0.480946 0.370150 0.746850
O O5 0.250000 0.047390 0.988864
O O6 0.476053 0.065818 0.125926
O O7 0.500000 0.000000 0.000000
O O8 0.750000 0.802772 0.994791
O O9 0.519349 0.750000 0.007335
O O10 0.522162 0.809700 0.859605
O O11 0.750000 0.685704 0.721282
O O12 0.937464 0.750000 0.720808
O O13 0.036547 0.674807 0.649616
O O14 0.750000 0.436680 0.219627
O O15 0.979282 0.405820 0.332135
O O16 0.978854 0.485535 0.290051
O O17 0.250000 0.874099 0.558439
O O18 0.971023 0.870362 0.473225
O O19 0.750000 0.905669 0.358333
O O20 0.467133 0.937758 0.364902
O O21 0.500000 0.500000 0.500000
O O22 0.250000 0.503449 0.377719
#
# Coordination Sequence:
#
# PCOD9453145 Si02
#       8
#     8   8   8   8   8   8   8   8
#     4  12  25  42  63  90 126 164 207 257 314 375
#     4  12  25  42  62  87 122 162 208 255 308 369
#     4   9  19  39  67  97 127 160 203 252 305 368
#     4   9  19  37  62  91 123 157 193 238 294 357
#     4  11  23  39  60  88 121 155 197 248 302 355
#     4  11  23  38  59  88 121 153 193 244 295 353
#     4  12  25  42  63  85 117 161 207 253 302 360
#     4  12  23  38  59  86 119 158 202 249 299 354
#
# _framework density 19.415195000000001
#
# number of rings (size 3 to 8) (size 9 to 14) (size 15 to 20)
#    0.000    1.000    1.250    7.500    0.000    4.500 
#    0.000    1.875    0.000    3.750    0.000    0.000 
#    0.000    0.000    0.000    0.000    0.000    0.000 
#
# Total GULP energy -358061.960708 kJ/mol
# GULP energy per Si atom -5594.718136 kJ/mol
# Density = 1.937101 g / cm^3
# Si number density = 19.415195 Si / 1000 Ang^3
#
#
#
# Elastic Constant Matrix: (Units=GPa)
#
#
# Indices 1 2 3 4 5 6 
#
# 1 49.1138 6.4156 17.7033 0.0000 0.0000 0.0000
# 2 6.4156 54.2655 31.1784 0.0000 0.0000 0.0000
# 3 17.7033 31.1784 93.3527 0.0000 0.0000 0.0000
# 4 0.0000 0.0000 0.0000 32.0847 0.0000 0.0000
# 5 0.0000 0.0000 0.0000 0.0000 28.7165 0.0000
# 6 0.0000 0.0000 0.0000 0.0000 0.0000 32.8469
#
#
#
# Elastic Compliance Matrix: (Units=1/GPa)
#
#
# Indices 1 2 3 4 5 6 
#
# 1 0.021858 -0.000251 -0.004061 0.000000 0.000000 0.000000
# 2 -0.000251 0.022807 -0.007570 0.000000 0.000000 0.000000
# 3 -0.004061 -0.007570 0.014010 0.000000 0.000000 0.000000
# 4 0.000000 0.000000 0.000000 0.031167 0.000000 0.000000
# 5 0.000000 0.000000 0.000000 0.000000 0.034823 0.000000
# 6 0.000000 0.000000 0.000000 0.000000 0.000000 0.030444
#
#
# Mechanical properties :
#
#
# Convention : Reuss Voigt Hill
#
# Bulk Modulus (GPa) = 28.64388 34.14740 31.39564
# Shear Modulus (GPa) = 26.24537 28.15860 27.20199
#
# Velocity S-wave (km/s) = 3.68067 3.81246 3.74714
# Velocity P-wave (km/s) = 5.73135 6.08325 5.90992
#
# Compressibility (1/GPa) = 0.03491147
#
# Stress axis : x y z
#
# Youngs Moduli (GPa) = 45.75083 43.84685 71.37566
#
# Poissons Ratio (x) = 0.01099 0.28988
# Poissons Ratio (y) = 0.01147 0.54028
# Poissons Ratio (z) = 0.18581 0.33190
#
# Static dielectric constant tensor:
#      x y z
#    x 1.656060 0.000000 0.000000 
#    y 0.000000 1.674440 0.000000 
#    z 0.000000 0.000000 1.702990 
# 
# From -- ./inp_files/14885.got.cif
#   From: 2010.05.17/outbox.cif.g08.bks.cpg/sg59_8_cif.got.tgz:14885.got - 2010.06.03 14:40:33.
