data_PCOD9453377
_publ_section_title
;
Structure prediction by ZEFSAII (Michael W. Deem and Ramdas Pophale) SiO2 
 PCOD9453377
Probable space group: P M M N
;
_chemical_formula_sum "Si O2"
_cell_formula_units_Z 56
_cell_length_a 9.000000
_cell_length_b 15.000000
_cell_length_c 21.000000
_cell_angle_alpha 90.000000
_cell_angle_beta 90.000000
_cell_angle_gamma 90.000000
_cell_volume 2835.000000
_symmetry_space_group_name_H-M "P M M N"
_symmetry_group_IT_number 59
_space_group.IT_coordinate_system_code '2'
_symmetry_cell_setting 'orthorhombic'
loop_
_space_group_symop_operation_xyz
x,y,z
1/2-x,1/2-y,z
1/2+x,-y,-z
-x,1/2+y,-z
-x,-y,-z
1/2+x,1/2+y,-z
1/2-x,y,z
x,1/2-y,z
loop_
_atom_site_type_symbol
_atom_site_label
_atom_site_fract_x
_atom_site_fract_y
_atom_site_fract_z
Si Si1 0.918219 0.101182 0.345166
Si Si2 0.924960 0.473578 0.094519
Si Si3 0.069633 0.152687 0.734757
Si Si4 0.916997 0.851732 0.530559
Si Si5 0.926317 0.355891 0.967594
Si Si6 0.920362 0.598596 0.399552
Si Si7 0.073458 0.032016 0.223925
O O1 0.750000 0.131634 0.334319
O O2 0.997100 0.149109 0.403384
O O3 0.007787 0.094180 0.279712
O O4 0.914370 0.000500 0.372365
O O5 0.750000 0.480399 0.108931
O O6 0.984862 0.572597 0.075689
O O7 0.015286 0.439821 0.155163
O O8 0.943306 0.402624 0.037037
O O9 0.250000 0.140400 0.735413
O O10 0.036921 0.250000 0.763177
O O11 0.019574 0.152499 0.660523
O O12 0.992923 0.067709 0.765913
O O13 0.750000 0.887743 0.542803
O O14 0.907139 0.750000 0.508867
O O15 0.990956 0.899245 0.469453
O O16 0.750000 0.360002 0.951608
O O17 0.969047 0.250000 0.965737
O O18 0.750000 0.629011 0.409864
O O19 0.250000 0.029574 0.227658
#
# Coordination Sequence:
#
# PCOD9453377 Si02
#       7
#     8   8   8   8   8   8   8
#     4  10  20  35  53  72  97 131 174 218 261 314
#     4  10  20  36  59  86 116 149 184 221 263 314
#     4   9  17  31  51  75 104 137 175 219 268 324
#     4  10  19  31  49  73 100 129 164 210 266 323
#     4   9  19  37  61  89 119 148 179 218 263 310
#     4   8  15  29  50  73  96 127 166 210 264 323
#     4  11  22  36  54  75 104 142 181 221 265 312
#
# _framework density 19.753086
#
# number of rings (size 3 to 8) (size 9 to 14) (size 15 to 20)
#    0.000    2.429    0.000    3.857    0.000    3.714 
#    0.000    3.571    0.000    6.000    0.000    0.000 
#    0.000    0.000    0.000    0.000    0.000    0.000 
#
# Total GULP energy -311976.603678 kJ/mol
# GULP energy per Si atom -5571.010780 kJ/mol
# Density = 1.970813 g / cm^3
# Si number density = 19.753086 Si / 1000 Ang^3
#
#
#
# Elastic Constant Matrix: (Units=GPa)
#
#
# Indices 1 2 3 4 5 6 
#
# 1 77.9943 -3.6422 39.2753 0.0000 0.0000 0.0000
# 2 -3.6422 40.0658 -12.8896 0.0000 0.0000 0.0000
# 3 39.2753 -12.8896 75.7583 0.0000 0.0000 0.0000
# 4 0.0000 0.0000 0.0000 11.6296 0.0000 0.0000
# 5 0.0000 0.0000 0.0000 0.0000 27.3803 0.0000
# 6 0.0000 0.0000 0.0000 0.0000 0.0000 1.0082
#
#
#
# Elastic Compliance Matrix: (Units=1/GPa)
#
#
# Indices 1 2 3 4 5 6 
#
# 1 0.017425 -0.001399 -0.009272 0.000000 0.000000 0.000000
# 2 -0.001399 0.026516 0.005237 0.000000 0.000000 0.000000
# 3 -0.009272 0.005237 0.018898 0.000000 0.000000 0.000000
# 4 0.000000 0.000000 0.000000 0.085987 0.000000 0.000000
# 5 0.000000 0.000000 0.000000 0.000000 0.036523 0.000000
# 6 0.000000 0.000000 0.000000 0.000000 0.000000 0.991851
#
#
# Mechanical properties :
#
#
# Convention : Reuss Voigt Hill
#
# Bulk Modulus (GPa) = 19.24126 26.58950 22.91538
# Shear Modulus (GPa) = 4.14803 19.40861 11.77832
#
# Velocity S-wave (km/s) = 1.45069 3.13798 2.44453
# Velocity P-wave (km/s) = 3.54514 5.15940 4.42648
#
# Compressibility (1/GPa) = 0.05197165
#
# Stress axis : x y z
#
# Youngs Moduli (GPa) = 57.38875 37.71240 52.91694
#
# Poissons Ratio (x) = 0.05275 0.49063
# Poissons Ratio (y) = 0.08027 -0.27711
# Poissons Ratio (z) = 0.53209 -0.19749
#
# Static dielectric constant tensor:
#      x y z
#    x 1.695370 0.000000 0.000000 
#    y 0.000000 1.728450 0.000000 
#    z 0.000000 0.000000 1.742850 
# 
# From -- ./inp_files/29070.got.cif
#   From: 2010.05.17/outbox.ucp.g08.bks.cvg/sg59_15_cif.got.tgz:29070.got - 2010.06.11 16:43:56.
