data_PCOD9453157
_publ_section_title
;
Structure prediction by ZEFSAII (Michael W. Deem and Ramdas Pophale) SiO2 
 PCOD9453157
Probable space group: P M M N
;
_chemical_formula_sum "Si O2"
_cell_formula_units_Z 40
_cell_length_a 8.553558
_cell_length_b 18.272686
_cell_length_c 12.582832
_cell_angle_alpha 90.000000
_cell_angle_beta 90.000000
_cell_angle_gamma 90.000000
_cell_volume 1966.652344
_symmetry_space_group_name_H-M "P M M N"
_symmetry_group_IT_number 59
_space_group.IT_coordinate_system_code '2'
_symmetry_cell_setting 'orthorhombic'
loop_
_space_group_symop_operation_xyz
x,y,z
1/2-x,1/2-y,z
1/2+x,-y,-z
-x,1/2+y,-z
-x,-y,-z
1/2+x,1/2+y,-z
1/2-x,y,z
x,1/2-y,z
loop_
_atom_site_type_symbol
_atom_site_label
_atom_site_fract_x
_atom_site_fract_y
_atom_site_fract_z
Si Si1 0.561866 0.421044 0.961883
Si Si2 0.435750 0.335676 0.156696
Si Si3 0.064995 0.166775 0.519358
Si Si4 0.932552 0.436743 0.341261
Si Si5 0.065456 0.907985 0.284581
O O1 0.750000 0.420597 0.969821
O O2 0.510544 0.638610 0.959408
O O3 0.519012 0.407729 0.839149
O O4 0.500000 0.500000 0.000000
O O5 0.250000 0.348478 0.169209
O O6 0.466439 0.250000 0.173508
O O7 0.525818 0.384957 0.241868
O O8 0.250000 0.159903 0.500170
O O9 0.018212 0.250000 0.493463
O O10 0.977405 0.108711 0.445581
O O11 0.025904 0.148175 0.640918
O O12 0.750000 0.455427 0.341679
O O13 0.029646 0.510981 0.328768
O O14 0.250000 0.893084 0.291576
#
# Coordination Sequence:
#
# PCOD9453157 Si02
#       5
#     8   8   8   8   8
#     4  11  23  40  65  93 126 167 210 260 313 372
#     4  11  24  41  63  93 130 169 211 262 319 377
#     4  11  25  44  65  91 127 168 210 260 318 378
#     4  12  24  40  66  95 126 165 211 264 317 378
#     4  11  24  42  66  94 127 166 211 262 314 375
#
# _framework density 20.339130999999998
#
# number of rings (size 3 to 8) (size 9 to 14) (size 15 to 20)
#    0.000    0.800    2.000    5.400    0.000    8.800 
#    0.000    4.000    0.000    0.000    0.000    0.000 
#    0.000    0.000    0.000    0.000    0.000    0.000 
#
# Total GULP energy -223936.682445 kJ/mol
# GULP energy per Si atom -5598.417061 kJ/mol
# Density = 2.029284 g / cm^3
# Si number density = 20.339131 Si / 1000 Ang^3
#
#
#
# Elastic Constant Matrix: (Units=GPa)
#
#
# Indices 1 2 3 4 5 6 
#
# 1 21.9248 -8.8987 -2.8792 0.0000 0.0000 0.0000
# 2 -8.8987 28.5160 -4.0615 0.0000 0.0000 0.0000
# 3 -2.8792 -4.0615 83.8416 0.0000 0.0000 0.0000
# 4 0.0000 0.0000 0.0000 119.8709 0.0000 0.0000
# 5 0.0000 0.0000 0.0000 0.0000 35.2300 0.0000
# 6 0.0000 0.0000 0.0000 0.0000 0.0000 29.3986
#
#
#
# Elastic Compliance Matrix: (Units=1/GPa)
#
#
# Indices 1 2 3 4 5 6 
#
# 1 0.052795 0.016850 0.002629 0.000000 0.000000 0.000000
# 2 0.016850 0.040689 0.002550 0.000000 0.000000 0.000000
# 3 0.002629 0.002550 0.012141 0.000000 0.000000 0.000000
# 4 0.000000 0.000000 0.000000 0.008342 0.000000 0.000000
# 5 0.000000 0.000000 0.000000 0.000000 0.028385 0.000000
# 6 0.000000 0.000000 0.000000 0.000000 0.000000 0.034015
#
#
# Mechanical properties :
#
#
# Convention : Reuss Voigt Hill
#
# Bulk Modulus (GPa) = 6.68083 11.40039 9.04061
# Shear Modulus (GPa) = 27.44173 46.90801 37.17487
#
# Velocity S-wave (km/s) = 3.67714 4.80760 4.27986
# Velocity P-wave (km/s) = 4.61740 6.03611 5.37378
#
# Compressibility (1/GPa) = 0.14968192
#
# Stress axis : x y z
#
# Youngs Moduli (GPa) = 18.94133 24.57654 82.36509
#
# Poissons Ratio (x) = -0.41410 -0.21656
# Poissons Ratio (y) = -0.31915 -0.21001
# Poissons Ratio (z) = -0.04980 -0.06266
#
# Static dielectric constant tensor:
#      x y z
#    x 1.671280 0.000000 0.000000 
#    y 0.000000 1.692630 0.000000 
#    z 0.000000 0.000000 1.725440 
# 
# From -- ./inp_files/19866.got.cif
#   From: 2010.05.17/outbox.cif.g08.bks.cpg/sg59_10_cif.got.tgz:19866.got - 2010.06.03 14:40:33.
