data_PCOD9453088
_publ_section_title
;
Structure prediction by ZEFSAII (Michael W. Deem and Ramdas Pophale) SiO2 
 PCOD9453088
Probable space group: P M M N
;
_chemical_formula_sum "Si O2"
_cell_formula_units_Z 64
_cell_length_a 9.174486
_cell_length_b 18.643203
_cell_length_c 21.233044
_cell_angle_alpha 90.000000
_cell_angle_beta 90.000000
_cell_angle_gamma 90.000000
_cell_volume 3631.738170
_symmetry_space_group_name_H-M "P M M N"
_symmetry_group_IT_number 59
_space_group.IT_coordinate_system_code '2'
_symmetry_cell_setting 'orthorhombic'
loop_
_space_group_symop_operation_xyz
x,y,z
1/2-x,1/2-y,z
1/2+x,-y,-z
-x,1/2+y,-z
-x,-y,-z
1/2+x,1/2+y,-z
1/2-x,y,z
x,1/2-y,z
loop_
_atom_site_type_symbol
_atom_site_label
_atom_site_fract_x
_atom_site_fract_y
_atom_site_fract_z
Si Si1 0.581508 0.662758 0.933897
Si Si2 0.424993 0.574060 0.317922
Si Si3 0.076140 0.919878 0.680534
Si Si4 0.924442 0.664091 0.793308
Si Si5 0.579174 0.664473 0.571210
Si Si6 0.421490 0.164750 0.576027
Si Si7 0.072492 0.667456 0.196716
Si Si8 0.917989 0.162507 0.941477
O O1 0.750000 0.642027 0.938677
O O2 0.575923 0.750000 0.934325
O O3 0.529027 0.641737 0.864159
O O4 0.498709 0.637310 0.995894
O O5 0.250000 0.565677 0.318541
O O6 0.503774 0.497988 0.319113
O O7 0.478236 0.620125 0.377453
O O8 0.467630 0.617225 0.254566
O O9 0.250000 0.923983 0.682787
O O10 0.012599 0.876378 0.739949
O O11 0.022349 0.878838 0.618027
O O12 0.750000 0.650529 0.787263
O O13 0.943929 0.750000 0.787316
O O14 0.750000 0.648296 0.584375
O O15 0.560483 0.750000 0.580203
O O16 0.551395 0.648628 0.497650
O O17 0.250000 0.149929 0.588414
O O18 0.444119 0.250000 0.584892
O O19 0.250000 0.668794 0.193692
O O20 0.025385 0.750000 0.207134
O O21 0.021999 0.642068 0.127444
O O22 0.750000 0.140343 0.945403
O O23 0.920989 0.250000 0.941233
#
# Coordination Sequence:
#
# PCOD9453088 Si02
#       8
#     8   8   8   8   8   8   8   8
#     4   8  14  25  43  70 101 129 160 201 249 302
#     4  11  22  36  55  76 103 142 182 216 252 303
#     4  12  25  37  51  75 107 138 172 218 263 303
#     4   9  18  34  55  76 101 135 172 210 255 310
#     4   9  19  38  62  83 105 136 170 204 250 310
#     4   9  19  37  60  85 111 135 163 207 259 305
#     4   8  15  29  50  76 102 130 169 213 254 300
#     4   8  13  23  42  69 100 129 158 200 252 300
#
# _framework density 17.622416000000001
#
# number of rings (size 3 to 8) (size 9 to 14) (size 15 to 20)
#    0.000    2.750    0.000    4.500    0.000    4.250 
#    0.000    3.750    0.000    3.750    0.000    0.000 
#    0.000    0.000    0.000    0.000    0.000    0.000 
#
# Total GULP energy -356802.903136 kJ/mol
# GULP energy per Si atom -5575.045362 kJ/mol
# Density = 1.758231 g / cm^3
# Si number density = 17.622416 Si / 1000 Ang^3
#
#
#
# Elastic Constant Matrix: (Units=GPa)
#
#
# Indices 1 2 3 4 5 6 
#
# 1 81.5812 51.4888 84.9449 0.0000 0.0000 0.0000
# 2 51.4888 52.9154 68.8310 0.0000 0.0000 0.0000
# 3 84.9449 68.8310 148.3910 0.0000 0.0000 0.0000
# 4 0.0000 0.0000 0.0000 -9.4593 0.0000 0.0000
# 5 0.0000 0.0000 0.0000 0.0000 31.2523 0.0000
# 6 0.0000 0.0000 0.0000 0.0000 0.0000 18.1644
#
#
#
# Elastic Compliance Matrix: (Units=1/GPa)
#
#
# Indices 1 2 3 4 5 6 
#
# 1 0.038470 -0.022155 -0.011745 0.000000 0.000000 0.000000
# 2 -0.022155 0.060405 -0.015336 0.000000 0.000000 0.000000
# 3 -0.011745 -0.015336 0.020576 0.000000 0.000000 0.000000
# 4 0.000000 0.000000 0.000000 -0.105716 0.000000 0.000000
# 5 0.000000 0.000000 0.000000 0.000000 0.031998 0.000000
# 6 0.000000 0.000000 0.000000 0.000000 0.000000 0.055053
#
#
# Mechanical properties :
#
#
# Convention : Reuss Voigt Hill
#
# Bulk Modulus (GPa) = 47.66916 77.04632 62.35774
# Shear Modulus (GPa) = 24.24243 13.16637 18.70440
#
# Velocity S-wave (km/s) = 3.71301 2.73635 3.26144
# Velocity P-wave (km/s) = 6.74470 7.33478 7.04592
#
# Compressibility (1/GPa) = 0.02097792
#
# Stress axis : x y z
#
# Youngs Moduli (GPa) = 25.99438 16.55505 48.60014
#
# Poissons Ratio (x) = 0.36677 0.57082
# Poissons Ratio (y) = 0.57590 0.74534
# Poissons Ratio (z) = 0.30531 0.25389
#
# Static dielectric constant tensor:
#      x y z
#    x 1.584730 0.000000 0.000000 
#    y 0.000000 1.579890 0.000000 
#    z 0.000000 0.000000 1.614590 
# 
# From -- ./inp_files/29458.got.cif
#   From: 2010.05.17/outbox.cif.g08.bks.cpg/sg59_15_cif.got.tgz:29458.got - 2010.06.03 14:40:33.
