data_PCOD9453357
_publ_section_title
;
Structure prediction by ZEFSAII (Michael W. Deem and Ramdas Pophale) SiO2 
 PCOD9453357
Probable space group: P M M N
;
_chemical_formula_sum "Si O2"
_cell_formula_units_Z 64
_cell_length_a 9.000000
_cell_length_b 24.000000
_cell_length_c 15.000000
_cell_angle_alpha 90.000000
_cell_angle_beta 90.000000
_cell_angle_gamma 90.000000
_cell_volume 3240.000000
_symmetry_space_group_name_H-M "P M M N"
_symmetry_group_IT_number 59
_space_group.IT_coordinate_system_code '2'
_symmetry_cell_setting 'orthorhombic'
loop_
_space_group_symop_operation_xyz
x,y,z
1/2-x,1/2-y,z
1/2+x,-y,-z
-x,1/2+y,-z
-x,-y,-z
1/2+x,1/2+y,-z
1/2-x,y,z
x,1/2-y,z
loop_
_atom_site_type_symbol
_atom_site_label
_atom_site_fract_x
_atom_site_fract_y
_atom_site_fract_z
Si Si1 0.577210 0.620876 0.984704
Si Si2 0.421920 0.634773 0.537523
Si Si3 0.071363 0.473739 0.144035
Si Si4 0.410984 0.816194 0.845018
Si Si5 0.073003 0.914455 0.349995
Si Si6 0.089182 0.184824 0.317862
Si Si7 0.426599 0.602831 0.155015
Si Si8 0.075768 0.531906 0.669612
O O1 0.750000 0.613899 0.000265
O O2 0.517407 0.564588 0.936823
O O3 0.540242 0.666306 0.910848
O O4 0.500136 0.636496 0.076371
O O5 0.250000 0.652039 0.549724
O O6 0.449596 0.623762 0.434704
O O7 0.536356 0.676208 0.582313
O O8 0.444280 0.577332 0.592483
O O9 0.250000 0.470265 0.146400
O O10 0.030210 0.538389 0.136689
O O11 0.008869 0.454440 0.238883
O O12 0.250000 0.839977 0.870582
O O13 0.399197 0.750000 0.845908
O O14 0.458186 0.834892 0.746700
O O15 0.250000 0.927532 0.343875
O O16 0.029001 0.886523 0.256603
O O17 0.987475 0.972323 0.360545
O O18 0.250000 0.158383 0.300358
O O19 0.101953 0.250000 0.299666
O O20 0.250000 0.607704 0.148353
O O21 0.250000 0.527460 0.688867
#
# Coordination Sequence:
#
# PCOD9453357 Si02
#       8
#     8   8   8   8   8   8   8   8
#     4  11  21  32  51  77 102 130 166 208 253 298
#     4  10  20  33  51  75 101 133 172 208 246 297
#     4   9  19  33  47  68 101 138 169 200 244 296
#     4  10  21  37  56  77 102 132 164 199 243 298
#     4   9  19  35  51  69  99 137 174 210 247 290
#     4  10  21  36  54  78 106 132 160 200 250 299
#     4   9  18  33  50  68  97 136 173 209 246 288
#     4  10  19  29  46  74 103 131 166 207 249 294
#
# _framework density 19.753086
#
# number of rings (size 3 to 8) (size 9 to 14) (size 15 to 20)
#    0.000    2.250    0.000    3.750    0.000    8.000 
#    0.000    0.000    0.000    0.750    0.000    1.750 
#    0.000    0.000    0.000    0.000    0.000    0.000 
#
# Total GULP energy -356704.179321 kJ/mol
# GULP energy per Si atom -5573.502802 kJ/mol
# Density = 1.970813 g / cm^3
# Si number density = 19.753086 Si / 1000 Ang^3
#
#
#
# Elastic Constant Matrix: (Units=GPa)
#
#
# Indices 1 2 3 4 5 6 
#
# 1 -6.3546 -0.5423 26.0618 0.0000 0.0000 0.0000
# 2 -0.5423 3.8717 2.9919 0.0000 0.0000 0.0000
# 3 26.0618 2.9919 94.7055 0.0000 0.0000 0.0000
# 4 0.0000 0.0000 0.0000 19.1288 0.0000 0.0000
# 5 0.0000 0.0000 0.0000 0.0000 -27.1914 0.0000
# 6 0.0000 0.0000 0.0000 0.0000 0.0000 18.0958
#
#
#
# Elastic Compliance Matrix: (Units=1/GPa)
#
#
# Indices 1 2 3 4 5 6 
#
# 1 -0.071325 -0.025788 0.020443 0.000000 0.000000 0.000000
# 2 -0.025788 0.255421 -0.000973 0.000000 0.000000 0.000000
# 3 0.020443 -0.000973 0.004964 0.000000 0.000000 0.000000
# 4 0.000000 0.000000 0.000000 0.052277 0.000000 0.000000
# 5 0.000000 0.000000 0.000000 0.000000 -0.036776 0.000000
# 6 0.000000 0.000000 0.000000 0.000000 0.000000 0.055262
#
#
# Mechanical properties :
#
#
# Convention : Reuss Voigt Hill
#
# Bulk Modulus (GPa) = 5.66817 16.58281 11.12549
# Shear Modulus (GPa) = 15.09361 6.25404 10.67383
#
# Velocity S-wave (km/s) = 2.76726 1.78129 2.32709
# Velocity P-wave (km/s) = 3.61746 3.55583 3.58678
#
# Compressibility (1/GPa) = 0.17642376
#
# Stress axis : x y z
#
# Youngs Moduli (GPa) = -14.02024 3.91511 201.44138
#
# Poissons Ratio (x) = 0.10096 -4.11798
# Poissons Ratio (y) = -0.36155 0.19590
# Poissons Ratio (z) = 0.28661 0.00381
#
# Static dielectric constant tensor:
#      x y z
#    x 1.723520 0.000000 0.000000 
#    y 0.000000 1.737890 0.000000 
#    z 0.000000 0.000000 1.696360 
# 
# From -- ./inp_files/21598.got.cif
#   From: 2010.05.17/outbox.ucp.g08.bks.cvg/sg59_11_cif.got.tgz:21598.got - 2010.06.11 16:43:56.
