data_PCOD9453875
_publ_section_title
;
Structure prediction by ZEFSAII (Michael W. Deem and Ramdas Pophale) SiO2 
 PCOD9453875
Probable space group: P B C N
;
_chemical_formula_sum "Si O2"
_cell_formula_units_Z 48
_cell_length_a 13.542253
_cell_length_b 7.810802
_cell_length_c 21.046569
_cell_angle_alpha 90.000000
_cell_angle_beta 90.000000
_cell_angle_gamma 90.000000
_cell_volume 2226.218869
_symmetry_space_group_name_H-M "P B C N"
_symmetry_group_IT_number 60
_symmetry_cell_setting 'orthorhombic'
loop_
_space_group_symop_operation_xyz
x,y,z
1/2-x,1/2-y,1/2+z
1/2+x,1/2-y,-z
-x,y,1/2-z
-x,-y,-z
1/2+x,1/2+y,1/2-z
1/2-x,1/2+y,z
x,-y,1/2+z
loop_
_atom_site_type_symbol
_atom_site_label
_atom_site_fract_x
_atom_site_fract_y
_atom_site_fract_z
Si Si1 0.895215 0.501619 0.210990
Si Si2 0.994327 0.704709 0.993063
Si Si3 0.164317 0.335286 0.669106
Si Si4 0.072896 0.814912 0.864143
Si Si5 0.135805 0.694392 0.614155
Si Si6 0.969982 0.811176 0.134359
O O1 0.820835 0.574890 0.263115
O O2 0.870515 0.321538 0.178785
O O3 0.000000 0.490849 0.250000
O O4 0.911301 0.643584 0.156733
O O5 0.110562 0.258913 0.041770
O O6 0.998040 0.797607 0.060096
O O7 0.073043 0.766065 0.939468
O O8 0.000000 0.500000 0.000000
O O9 0.129518 0.490798 0.623694
O O10 0.261406 0.255503 0.640372
O O11 0.074415 0.200988 0.671631
O O12 0.956504 0.777708 0.848986
O O13 0.088376 0.014313 0.853665
#
# Coordination Sequence:
#
# PCOD9453875 Si02
#       6
#     8   8   8   8   8   8
#     4  10  19  36  56  85 122 160 206 256 303 375
#     4  10  17  37  61  89 120 159 205 263 305 384
#     4  11  21  38  56  93 126 161 203 272 315 376
#     4  10  20  34  60  90 114 161 204 251 307 382
#     4  10  21  36  59  86 124 160 203 259 322 363
#     4  11  19  35  62  92 118 157 215 251 313 379
#
# _framework density 21.561222000000001
#
# number of rings (size 3 to 8) (size 9 to 14) (size 15 to 20)
#    1.000    0.667    6.667    1.500    0.000    2.000 
#    3.000    0.000    0.000    4.000    0.000    0.000 
#    0.000    0.000    0.000    0.000    0.000    0.000 
#
# Total GULP energy -267640.531233 kJ/mol
# GULP energy per Si atom -5575.844401 kJ/mol
# Density = 2.151215 g / cm^3
# Si number density = 21.561222 Si / 1000 Ang^3
#
#
#
# Elastic Constant Matrix: (Units=GPa)
#
#
# Indices 1 2 3 4 5 6 
#
# 1 18.5612 0.4562 5.7320 0.0000 0.0000 0.0000
# 2 0.4562 120.6667 39.5147 0.0000 0.0000 0.0000
# 3 5.7320 39.5147 107.1440 0.0000 0.0000 0.0000
# 4 0.0000 0.0000 0.0000 29.6035 0.0000 0.0000
# 5 0.0000 0.0000 0.0000 0.0000 23.4962 0.0000
# 6 0.0000 0.0000 0.0000 0.0000 0.0000 18.3443
#
#
#
# Elastic Compliance Matrix: (Units=1/GPa)
#
#
# Indices 1 2 3 4 5 6 
#
# 1 0.054859 0.000857 -0.003251 0.000000 0.000000 0.000000
# 2 0.000857 0.009439 -0.003527 0.000000 0.000000 0.000000
# 3 -0.003251 -0.003527 0.010808 0.000000 0.000000 0.000000
# 4 0.000000 0.000000 0.000000 0.033780 0.000000 0.000000
# 5 0.000000 0.000000 0.000000 0.000000 0.042560 0.000000
# 6 0.000000 0.000000 0.000000 0.000000 0.000000 0.054513
#
#
# Mechanical properties :
#
#
# Convention : Reuss Voigt Hill
#
# Bulk Modulus (GPa) = 15.80677 37.53087 26.66882
# Shear Modulus (GPa) = 20.93034 27.66675 24.29855
#
# Velocity S-wave (km/s) = 3.11905 3.58602 3.36066
# Velocity P-wave (km/s) = 4.50759 5.88137 5.23970
#
# Compressibility (1/GPa) = 0.06326402
#
# Stress axis : x y z
#
# Youngs Moduli (GPa) = 18.22869 105.94309 92.52489
#
# Poissons Ratio (x) = -0.09082 0.30080
# Poissons Ratio (y) = -0.01563 0.32633
# Poissons Ratio (z) = 0.05926 0.37366
#
# Static dielectric constant tensor:
#      x y z
#    x 1.784490 0.000000 0.000000 
#    y 0.000000 1.819520 0.000000 
#    z 0.000000 0.000000 1.825340 
# 
# From -- ./inp_files/24367.got.cif
#   From: 2010.05.17/outbox.cif.g08.bks.cpg/sg60_13_cif.got.tgz:24367.got - 2010.06.03 14:59:27.
