data_PCOD9453073
_publ_section_title
;
Structure prediction by ZEFSAII (Michael W. Deem and Ramdas Pophale) SiO2 
 PCOD9453073
Probable space group: P M M N
;
_chemical_formula_sum "Si O2"
_cell_formula_units_Z 56
_cell_length_a 8.706979
_cell_length_b 19.886285
_cell_length_c 17.523521
_cell_angle_alpha 90.000000
_cell_angle_beta 90.000000
_cell_angle_gamma 90.000000
_cell_volume 3034.188302
_symmetry_space_group_name_H-M "P M M N"
_symmetry_group_IT_number 59
_space_group.IT_coordinate_system_code '2'
_symmetry_cell_setting 'orthorhombic'
loop_
_space_group_symop_operation_xyz
x,y,z
1/2-x,1/2-y,z
1/2+x,-y,-z
-x,1/2+y,-z
-x,-y,-z
1/2+x,1/2+y,-z
1/2-x,y,z
x,1/2-y,z
loop_
_atom_site_type_symbol
_atom_site_label
_atom_site_fract_x
_atom_site_fract_y
_atom_site_fract_z
Si Si1 0.565878 0.569801 0.468222
Si Si2 0.432608 0.823040 0.764576
Si Si3 0.068363 0.586584 0.301712
Si Si4 0.426978 0.532308 0.784608
Si Si5 0.576023 0.948890 0.059450
Si Si6 0.436561 0.171141 0.840038
Si Si7 0.428229 0.173125 0.400068
O O1 0.500000 0.500000 0.500000
O O2 0.750000 0.565165 0.462063
O O3 0.499887 0.591461 0.386373
O O4 0.526237 0.624398 0.532443
O O5 0.250000 0.819930 0.777110
O O6 0.498215 0.750000 0.787713
O O7 0.487196 0.892749 0.800625
O O8 0.469163 0.832147 0.675143
O O9 0.250000 0.596008 0.303062
O O10 0.026701 0.511170 0.273417
O O11 0.997000 0.637456 0.238643
O O12 0.250000 0.536435 0.755615
O O13 0.421603 0.490740 0.862105
O O14 0.750000 0.936552 0.032796
O O15 0.510589 0.876659 0.088838
O O16 0.500000 0.000000 0.000000
O O17 0.250000 0.166914 0.838516
O O18 0.478976 0.250000 0.846342
O O19 0.250000 0.159000 0.378559
O O20 0.435343 0.250000 0.426759
#
# Coordination Sequence:
#
# PCOD9453073 Si02
#       7
#     8   8   8   8   8   8   8
#     4  11  22  35  51  72 100 135 176 221 268 317
#     4   9  17  30  50  73  95 123 162 208 252 293
#     4  11  22  34  51  77 105 133 171 220 270 318
#     4   9  18  34  53  72  99 135 172 206 247 305
#     4   9  18  33  54  80 107 137 170 205 250 304
#     4   9  19  38  61  81 105 141 182 221 265 320
#     4   9  19  34  49  66  91 125 163 201 245 299
#
# _framework density 18.456336
#
# number of rings (size 3 to 8) (size 9 to 14) (size 15 to 20)
#    0.000    2.429    0.000    3.429    0.000    7.143 
#    0.000    2.143    0.000    0.857    0.000    0.000 
#    0.000    0.000    0.000    0.000    0.000    0.000 
#
# Total GULP energy -311941.235785 kJ/mol
# GULP energy per Si atom -5570.379210 kJ/mol
# Density = 1.841433 g / cm^3
# Si number density = 18.456336 Si / 1000 Ang^3
#
#
#
# Elastic Constant Matrix: (Units=GPa)
#
#
# Indices 1 2 3 4 5 6 
#
# 1 25.6495 15.8313 5.8387 0.0000 0.0000 0.0000
# 2 15.8313 136.8143 20.4164 0.0000 0.0000 0.0000
# 3 5.8387 20.4164 25.1060 0.0000 0.0000 0.0000
# 4 0.0000 0.0000 0.0000 25.9594 0.0000 0.0000
# 5 0.0000 0.0000 0.0000 0.0000 24.3563 0.0000
# 6 0.0000 0.0000 0.0000 0.0000 0.0000 21.9227
#
#
#
# Elastic Compliance Matrix: (Units=1/GPa)
#
#
# Indices 1 2 3 4 5 6 
#
# 1 0.042974 -0.003962 -0.006772 0.000000 0.000000 0.000000
# 2 -0.003962 0.008684 -0.006140 0.000000 0.000000 0.000000
# 3 -0.006772 -0.006140 0.046399 0.000000 0.000000 0.000000
# 4 0.000000 0.000000 0.000000 0.038522 0.000000 0.000000
# 5 0.000000 0.000000 0.000000 0.000000 0.041057 0.000000
# 6 0.000000 0.000000 0.000000 0.000000 0.000000 0.045615
#
#
# Mechanical properties :
#
#
# Convention : Reuss Voigt Hill
#
# Bulk Modulus (GPa) = 15.55010 30.19363 22.87187
# Shear Modulus (GPa) = 17.95742 24.14657 21.05199
#
# Velocity S-wave (km/s) = 3.12263 3.62098 3.38100
# Velocity P-wave (km/s) = 4.63084 5.82039 5.25936
#
# Compressibility (1/GPa) = 0.06430828
#
# Stress axis : x y z
#
# Youngs Moduli (GPa) = 23.26985 115.15471 21.55198
#
# Poissons Ratio (x) = 0.45626 0.14595
# Poissons Ratio (y) = 0.09220 0.13234
# Poissons Ratio (z) = 0.15758 0.70710
#
# Static dielectric constant tensor:
#      x y z
#    x 1.653540 0.000000 0.000000 
#    y 0.000000 1.683610 0.000000 
#    z 0.000000 0.000000 1.626490 
# 
# From -- ./inp_files/21024.got.cif
#   From: 2010.05.17/outbox.cif.g08.bks.cpg/sg59_11_cif.got.tgz:21024.got - 2010.06.03 14:40:33.
