data_PCOD9453441
_publ_section_title
;
Structure prediction by ZEFSAII (Michael W. Deem and Ramdas Pophale) SiO2 
 PCOD9453441
Probable space group: P M M N
;
_chemical_formula_sum "Si O2"
_cell_formula_units_Z 64
_cell_length_a 15.000000
_cell_length_b 9.000000
_cell_length_c 24.000000
_cell_angle_alpha 90.000000
_cell_angle_beta 90.000000
_cell_angle_gamma 90.000000
_cell_volume 3240.000000
_symmetry_space_group_name_H-M "P M M N"
_symmetry_group_IT_number 59
_space_group.IT_coordinate_system_code '2'
_symmetry_cell_setting 'orthorhombic'
loop_
_space_group_symop_operation_xyz
x,y,z
1/2-x,1/2-y,z
1/2+x,-y,-z
-x,1/2+y,-z
-x,-y,-z
1/2+x,1/2+y,-z
1/2-x,y,z
x,1/2-y,z
loop_
_atom_site_type_symbol
_atom_site_label
_atom_site_fract_x
_atom_site_fract_y
_atom_site_fract_z
Si Si1 0.439119 0.425131 0.894082
Si Si2 0.650709 0.077754 0.755302
Si Si3 0.848178 0.929835 0.995561
Si Si4 0.145906 0.570937 0.487215
Si Si5 0.472584 0.072272 0.583100
Si Si6 0.484809 0.925094 0.701148
Si Si7 0.884398 0.574360 0.869814
Si Si8 0.351132 0.079108 0.782158
O O1 0.468025 0.250000 0.895857
O O2 0.512033 0.534757 0.869491
O O3 0.360451 0.431456 0.849071
O O4 0.415660 0.476025 0.956382
O O5 0.750000 0.070207 0.731348
O O6 0.622207 0.250000 0.756906
O O7 0.580913 0.982480 0.721074
O O8 0.653975 0.014624 0.818046
O O9 0.750000 0.971239 0.015405
O O10 0.853790 0.750000 0.993788
O O11 0.857168 0.978575 0.931749
O O12 0.250000 0.527152 0.478407
O O13 0.144972 0.750000 0.493736
O O14 0.100503 0.496426 0.541233
O O15 0.073195 0.535305 0.438901
O O16 0.464474 0.250000 0.583182
O O17 0.460102 0.006800 0.644159
O O18 0.485078 0.750000 0.693142
O O19 0.416651 0.972339 0.749454
O O20 0.865893 0.750000 0.864588
O O21 0.250000 0.052691 0.765462
O O22 0.375914 0.250000 0.768299
#
# Coordination Sequence:
#
# PCOD9453441 Si02
#       8
#     8   8   8   8   8   8   8   8
#     4  10  19  34  57  80 108 147 192 240 294 359
#     4  11  24  42  63  85 113 153 201 251 303 362
#     4   9  18  32  51  78 109 143 187 238 293 357
#     4   9  19  38  64  94 128 165 204 247 296 344
#     4  10  21  38  62  92 127 166 207 249 294 347
#     4  12  25  41  62  89 124 162 202 252 304 355
#     4  11  21  34  55  82 114 149 186 236 300 365
#     4  10  21  38  61  86 114 154 203 251 301 360
#
# _framework density 19.753086
#
# number of rings (size 3 to 8) (size 9 to 14) (size 15 to 20)
#    0.000    1.750    1.250    3.375    0.000    5.000 
#    0.000    1.875    0.000    2.625    0.000    0.000 
#    0.000    0.000    0.000    0.000    0.000    0.000 
#
# Total GULP energy -357048.084281 kJ/mol
# GULP energy per Si atom -5578.876317 kJ/mol
# Density = 1.970813 g / cm^3
# Si number density = 19.753086 Si / 1000 Ang^3
#
#
#
# Elastic Constant Matrix: (Units=GPa)
#
#
# Indices 1 2 3 4 5 6 
#
# 1 58.8864 13.0911 -9.2691 0.0000 0.0000 0.0000
# 2 13.0911 25.5644 7.5883 0.0000 0.0000 0.0000
# 3 -9.2691 7.5883 58.4330 0.0000 0.0000 0.0000
# 4 0.0000 0.0000 0.0000 21.8152 0.0000 0.0000
# 5 0.0000 0.0000 0.0000 0.0000 22.6915 0.0000
# 6 0.0000 0.0000 0.0000 0.0000 0.0000 -0.5908
#
#
#
# Elastic Compliance Matrix: (Units=1/GPa)
#
#
# Indices 1 2 3 4 5 6 
#
# 1 0.020366 -0.011844 0.004769 0.000000 0.000000 0.000000
# 2 -0.011844 0.047574 -0.008057 0.000000 0.000000 0.000000
# 3 0.004769 -0.008057 0.018916 0.000000 0.000000 0.000000
# 4 0.000000 0.000000 0.000000 0.045840 0.000000 0.000000
# 5 0.000000 0.000000 0.000000 0.000000 0.044069 0.000000
# 6 0.000000 0.000000 0.000000 0.000000 0.000000 -1.692685
#
#
# Mechanical properties :
#
#
# Convention : Reuss Voigt Hill
#
# Bulk Modulus (GPa) = 17.67080 18.41159 18.04120
# Shear Modulus (GPa) = -3.40880 17.54807 7.06964
#
# Velocity S-wave (km/s) = -1.31509 2.98379 1.89388
# Velocity P-wave (km/s) = 2.58057 4.60562 3.73303
#
# Compressibility (1/GPa) = 0.05659052
#
# Stress axis : x y z
#
# Youngs Moduli (GPa) = 49.10236 21.01997 52.86420
#
# Poissons Ratio (x) = 0.24897 -0.25210
# Poissons Ratio (y) = 0.58159 0.42593
# Poissons Ratio (z) = -0.23416 0.16936
#
# Static dielectric constant tensor:
#      x y z
#    x 1.745660 0.000000 0.000000 
#    y 0.000000 1.666370 0.000000 
#    z 0.000000 0.000000 1.691420 
# 
# From -- ./inp_files/31472.got.cif
#   From: 2010.05.17/outbox.ucp.g08.bks.cvg/sg59_16_cif.got.tgz:31472.got - 2010.06.11 16:43:56.
