data_PCOD9453618
_publ_section_title
;
Structure prediction by ZEFSAII (Michael W. Deem and Ramdas Pophale) SiO2 
 PCOD9453618
Probable space group: P M M N
;
_chemical_formula_sum "Si O2"
_cell_formula_units_Z 48
_cell_length_a 9.000000
_cell_length_b 9.000000
_cell_length_c 30.000000
_cell_angle_alpha 90.000000
_cell_angle_beta 90.000000
_cell_angle_gamma 90.000000
_cell_volume 2430.000000
_symmetry_space_group_name_H-M "P M M N"
_symmetry_group_IT_number 59
_space_group.IT_coordinate_system_code '2'
_symmetry_cell_setting 'orthorhombic'
loop_
_space_group_symop_operation_xyz
x,y,z
1/2-x,1/2-y,z
1/2+x,-y,-z
-x,1/2+y,-z
-x,-y,-z
1/2+x,1/2+y,-z
1/2-x,y,z
x,1/2-y,z
loop_
_atom_site_type_symbol
_atom_site_label
_atom_site_fract_x
_atom_site_fract_y
_atom_site_fract_z
Si Si1 0.426837 0.034501 0.103760
Si Si2 0.420725 0.912667 0.806179
Si Si3 0.074410 0.250000 0.926319
Si Si4 0.429596 0.250000 0.026532
Si Si5 0.578111 0.572464 0.278179
Si Si6 0.072037 0.423507 0.457783
Si Si7 0.427601 0.575063 0.367515
O O1 0.250000 0.025417 0.103323
O O2 0.512307 0.884298 0.100742
O O3 0.482377 0.099140 0.149823
O O4 0.473848 0.114786 0.057981
O O5 0.250000 0.953714 0.818392
O O6 0.415487 0.750000 0.784871
O O7 0.483969 0.021727 0.769210
O O8 0.250000 0.250000 0.929009
O O9 0.011464 0.250000 0.976840
O O10 0.250000 0.250000 0.023985
O O11 0.750000 0.524695 0.279038
O O12 0.573631 0.750000 0.279751
O O13 0.495890 0.515848 0.321810
O O14 0.250000 0.444656 0.459633
O O15 0.040143 0.250000 0.458517
O O16 0.017946 0.493317 0.411525
O O17 0.000000 0.500000 0.500000
O O18 0.250000 0.560997 0.364977
O O19 0.462836 0.750000 0.371760
#
# Coordination Sequence:
#
# PCOD9453618 Si02
#       7
#     8   8   4   4   8   8   8
#     4  11  22  39  59  85 115 146 184 232 281 331
#     4  10  21  37  56  80 110 146 185 226 278 338
#     4  11  23  39  59  85 113 149 187 227 276 333
#     4   9  20  39  61  83 115 147 183 229 278 331
#     4   9  19  35  55  79 108 143 183 230 278 329
#     4  10  21  36  55  81 113 150 192 237 284 336
#     4   9  18  34  54  77 108 144 182 228 281 335
#
# _framework density 19.753086
#
# number of rings (size 3 to 8) (size 9 to 14) (size 15 to 20)
#    0.000    2.167    0.833    1.750    1.167    3.000 
#    0.000    4.167    0.000    0.000    0.000    0.000 
#    0.000    0.000    0.000    0.000    0.000    0.000 
#
# Total GULP energy -267242.522201 kJ/mol
# GULP energy per Si atom -5567.552546 kJ/mol
# Density = 1.970813 g / cm^3
# Si number density = 19.753086 Si / 1000 Ang^3
#
#
#
# Elastic Constant Matrix: (Units=GPa)
#
#
# Indices 1 2 3 4 5 6 
#
# 1 18.6455 45.3298 40.5785 0.0000 0.0000 0.0000
# 2 45.3298 57.3485 52.1397 0.0000 0.0000 0.0000
# 3 40.5785 52.1397 132.3083 0.0000 0.0000 0.0000
# 4 0.0000 0.0000 0.0000 44.9395 0.0000 0.0000
# 5 0.0000 0.0000 0.0000 0.0000 34.4396 0.0000
# 6 0.0000 0.0000 0.0000 0.0000 0.0000 97.3923
#
#
#
# Elastic Compliance Matrix: (Units=1/GPa)
#
#
# Indices 1 2 3 4 5 6 
#
# 1 -0.058176 0.046379 -0.000434 0.000000 0.000000 0.000000
# 2 0.046379 -0.009801 -0.010362 0.000000 0.000000 0.000000
# 3 -0.000434 -0.010362 0.011775 0.000000 0.000000 0.000000
# 4 0.000000 0.000000 0.000000 0.022252 0.000000 0.000000
# 5 0.000000 0.000000 0.000000 0.000000 0.029036 0.000000
# 6 0.000000 0.000000 0.000000 0.000000 0.000000 0.010268
#
#
# Mechanical properties :
#
#
# Convention : Reuss Voigt Hill
#
# Bulk Modulus (GPa) = 66.83304 53.82202 60.32753
# Shear Modulus (GPa) = -82.20337 40.03789 -21.08274
#
# Velocity S-wave (km/s) = -6.45800 4.50702 -3.27052
# Velocity P-wave (km/s) = 4.65833 7.37501 4.04294
#
# Compressibility (1/GPa) = 0.01496266
#
# Stress axis : x y z
#
# Youngs Moduli (GPa) = -17.18911 -102.02712 84.92773
#
# Poissons Ratio (x) = 4.73193 0.03690
# Poissons Ratio (y) = 0.79722 0.88001
# Poissons Ratio (z) = -0.00747 -1.05719
#
# Static dielectric constant tensor:
#      x y z
#    x 1.663540 0.000000 0.000000 
#    y 0.000000 1.824460 0.000000 
#    z 0.000000 0.000000 1.671060 
# 
# From -- ./inp_files/32988.got.cif
#   From: 2010.05.17/outbox.ucp.g08.bks.cvg/sg59_17_cif.got.tgz:32988.got - 2010.06.11 16:43:56.
