data_PCOD9453460
_publ_section_title
;
Structure prediction by ZEFSAII (Michael W. Deem and Ramdas Pophale) SiO2 
 PCOD9453460
Probable space group: P M M N
;
_chemical_formula_sum "Si O2"
_cell_formula_units_Z 48
_cell_length_a 9.000000
_cell_length_b 24.000000
_cell_length_c 12.000000
_cell_angle_alpha 90.000000
_cell_angle_beta 90.000000
_cell_angle_gamma 90.000000
_cell_volume 2592.000000
_symmetry_space_group_name_H-M "P M M N"
_symmetry_group_IT_number 59
_space_group.IT_coordinate_system_code '2'
_symmetry_cell_setting 'orthorhombic'
loop_
_space_group_symop_operation_xyz
x,y,z
1/2-x,1/2-y,z
1/2+x,-y,-z
-x,1/2+y,-z
-x,-y,-z
1/2+x,1/2+y,-z
1/2-x,y,z
x,1/2-y,z
loop_
_atom_site_type_symbol
_atom_site_label
_atom_site_fract_x
_atom_site_fract_y
_atom_site_fract_z
Si Si1 0.075743 0.188237 0.318167
Si Si2 0.426328 0.585186 0.562355
Si Si3 0.087621 0.991103 0.161638
Si Si4 0.078119 0.187630 0.049448
Si Si5 0.424119 0.039188 0.640305
Si Si6 0.412008 0.581670 0.941958
O O1 0.250000 0.183785 0.346202
O O2 0.022784 0.250000 0.353575
O O3 0.065541 0.186758 0.184062
O O4 0.990808 0.137176 0.371980
O O5 0.250000 0.587611 0.562838
O O6 0.489204 0.581566 0.437614
O O7 0.470609 0.524705 0.612111
O O8 0.250000 0.991333 0.216007
O O9 0.969594 0.956625 0.232132
O O10 0.100645 0.961029 0.043468
O O11 0.029433 0.053438 0.140577
O O12 0.250000 0.175735 0.021534
O O13 0.042146 0.250000 0.011434
O O14 0.969100 0.139705 0.011122
O O15 0.250000 0.044522 0.621335
O O16 0.250000 0.587180 0.887384
#
# Coordination Sequence:
#
# PCOD9453460 Si02
#       6
#     8   8   8   8   8   8
#     4   9  18  32  49  70  97 128 160 194 234 280
#     4  10  20  32  48  72  99 126 157 194 238 285
#     4  10  20  33  49  70  98 129 160 198 241 284
#     4   9  18  32  50  72  98 129 162 196 237 283
#     4  10  20  33  50  72  97 126 160 197 238 286
#     4  10  20  32  48  72  99 128 161 196 238 285
#
# _framework density 18.518519000000001
#
# number of rings (size 3 to 8) (size 9 to 14) (size 15 to 20)
#    0.000    2.333    0.000    4.000    0.000    8.000 
#    0.000    1.667    0.000    1.000    0.000    4.667 
#    0.000    0.000    0.000    0.000    0.000    0.000 
#
# Total GULP energy -267423.626196 kJ/mol
# GULP energy per Si atom -5571.325546 kJ/mol
# Density = 1.847637 g / cm^3
# Si number density = 18.518519 Si / 1000 Ang^3
#
#
#
# Elastic Constant Matrix: (Units=GPa)
#
#
# Indices 1 2 3 4 5 6 
#
# 1 43.3874 56.6731 2.8948 0.0000 0.0000 0.0000
# 2 56.6731 74.3150 -5.3394 0.0000 0.0000 0.0000
# 3 2.8948 -5.3394 15.8380 0.0000 0.0000 0.0000
# 4 0.0000 0.0000 0.0000 18.9523 0.0000 0.0000
# 5 0.0000 0.0000 0.0000 0.0000 18.3729 0.0000
# 6 0.0000 0.0000 0.0000 0.0000 0.0000 27.0477
#
#
#
# Elastic Compliance Matrix: (Units=1/GPa)
#
#
# Indices 1 2 3 4 5 6 
#
# 1 -0.336417 0.267450 0.151654 0.000000 0.000000 0.000000
# 2 0.267450 -0.198832 -0.115915 0.000000 0.000000 0.000000
# 3 0.151654 -0.115915 -0.003658 0.000000 0.000000 0.000000
# 4 0.000000 0.000000 0.000000 0.052764 0.000000 0.000000
# 5 0.000000 0.000000 0.000000 0.000000 0.054428 0.000000
# 6 0.000000 0.000000 0.000000 0.000000 0.000000 0.036972
#
#
# Mechanical properties :
#
#
# Convention : Reuss Voigt Hill
#
# Bulk Modulus (GPa) = 14.82108 26.88861 20.85485
# Shear Modulus (GPa) = -5.10918 18.16203 6.52643
#
# Velocity S-wave (km/s) = -1.66281 3.13509 1.87934
# Velocity P-wave (km/s) = 2.08187 5.25894 3.99941
#
# Compressibility (1/GPa) = 0.06747147
#
# Stress axis : x y z
#
# Youngs Moduli (GPa) = -2.97250 -5.02938 -273.38707
#
# Poissons Ratio (x) = 1.34511 41.46028
# Poissons Ratio (y) = 0.79500 -31.68977
# Poissons Ratio (z) = 0.45079 -0.58298
#
# Static dielectric constant tensor:
#      x y z
#    x 1.725090 0.000000 0.000000 
#    y 0.000000 1.648630 0.000000 
#    z 0.000000 0.000000 1.687890 
# 
# From -- ./inp_files/14321.got.cif
#   From: 2010.05.17/outbox.ucp.g08.bks.cvg/sg59_8_cif.got.tgz:14321.got - 2010.06.11 16:43:56.
