data_PCOD9453209
_publ_section_title
;
Structure prediction by ZEFSAII (Michael W. Deem and Ramdas Pophale) SiO2 
 PCOD9453209
Probable space group: P M M N
;
_chemical_formula_sum "Si O2"
_cell_formula_units_Z 48
_cell_length_a 16.673571
_cell_length_b 7.287839
_cell_length_c 16.794094
_cell_angle_alpha 90.000000
_cell_angle_beta 90.000000
_cell_angle_gamma 90.000000
_cell_volume 2040.722593
_symmetry_space_group_name_H-M "P M M N"
_symmetry_group_IT_number 59
_space_group.IT_coordinate_system_code '2'
_symmetry_cell_setting 'orthorhombic'
loop_
_space_group_symop_operation_xyz
x,y,z
1/2-x,1/2-y,z
1/2+x,-y,-z
-x,1/2+y,-z
-x,-y,-z
1/2+x,1/2+y,-z
1/2-x,y,z
x,1/2-y,z
loop_
_atom_site_type_symbol
_atom_site_label
_atom_site_fract_x
_atom_site_fract_y
_atom_site_fract_z
Si Si1 0.162031 0.027571 0.006722
Si Si2 0.089764 0.461909 0.321468
Si Si3 0.870968 0.959223 0.166988
Si Si4 0.398690 0.026492 0.664145
Si Si5 0.057942 0.026288 0.152555
Si Si6 0.596097 0.968857 0.507581
O O1 0.250000 0.986252 0.038985
O O2 0.154216 0.250000 0.001885
O O3 0.096554 0.965443 0.069874
O O4 0.156663 0.957785 0.916369
O O5 0.115361 0.250000 0.320033
O O6 0.104484 0.535205 0.232703
O O7 0.120674 0.541822 0.405367
O O8 0.992272 0.468999 0.328973
O O9 0.841426 0.750000 0.168636
O O10 0.855358 0.037061 0.255102
O O11 0.967253 0.959708 0.158985
O O12 0.398093 0.250000 0.665385
O O13 0.368927 0.966265 0.576978
O O14 0.056309 0.250000 0.153843
O O15 0.608820 0.750000 0.510047
O O16 0.500000 0.000000 0.500000
#
# Coordination Sequence:
#
# PCOD9453209 Si02
#       6
#     8   8   8   8   8   8
#     4   9  17  28  41  57  76  99 128 158 186 221
#     4   8  13  20  31  49  71  94 118 144 177 214
#     4   9  16  26  41  59  77  98 125 156 188 221
#     4   8  13  20  31  49  71  94 118 144 177 214
#     4   9  16  26  41  59  77  98 125 156 188 221
#     4   8  12  18  28  44  69  95 115 139 173 212
#
# _framework density 23.521082
#
# number of rings (size 3 to 8) (size 9 to 14) (size 15 to 20)
#    0.000    3.500    0.000    0.500    0.000    0.000 
#    0.000    0.000    0.000    2.000    0.000    1.167 
#    0.000    9.333    0.000    0.000    0.000  317.000 
#
# Total GULP energy -267341.477980 kJ/mol
# GULP energy per Si atom -5569.614125 kJ/mol
# Density = 2.346755 g / cm^3
# Si number density = 23.521082 Si / 1000 Ang^3
#
#
#
# Elastic Constant Matrix: (Units=GPa)
#
#
# Indices 1 2 3 4 5 6 
#
# 1 32.5019 -2.2757 41.7449 0.0000 0.0000 0.0000
# 2 -2.2757 109.9232 9.4472 0.0000 0.0000 0.0000
# 3 41.7449 9.4472 212.6167 0.0000 0.0000 0.0000
# 4 0.0000 0.0000 0.0000 -5.6799 0.0000 0.0000
# 5 0.0000 0.0000 0.0000 0.0000 -12.1462 0.0000
# 6 0.0000 0.0000 0.0000 0.0000 0.0000 -6.4542
#
#
#
# Elastic Compliance Matrix: (Units=1/GPa)
#
#
# Indices 1 2 3 4 5 6 
#
# 1 0.041408 0.001562 -0.008199 0.000000 0.000000 0.000000
# 2 0.001562 0.009191 -0.000715 0.000000 0.000000 0.000000
# 3 -0.008199 -0.000715 0.006345 0.000000 0.000000 0.000000
# 4 0.000000 0.000000 0.000000 -0.176061 0.000000 0.000000
# 5 0.000000 0.000000 0.000000 0.000000 -0.082330 0.000000
# 6 0.000000 0.000000 0.000000 0.000000 0.000000 -0.154937
#
#
# Mechanical properties :
#
#
# Convention : Reuss Voigt Hill
#
# Bulk Modulus (GPa) = 23.67486 50.31940 36.99713
# Shear Modulus (GPa) = -15.26253 15.55231 0.14489
#
# Velocity S-wave (km/s) = -2.55009 2.57418 0.24846
# Velocity P-wave (km/s) = 1.19022 5.50227 3.98068
#
# Compressibility (1/GPa) = 0.04223890
#
# Stress axis : x y z
#
# Youngs Moduli (GPa) = 24.14995 108.80153 157.60619
#
# Poissons Ratio (x) = -0.16994 1.29227
# Poissons Ratio (y) = -0.03772 0.11270
# Poissons Ratio (z) = 0.19801 0.07780
#
# Static dielectric constant tensor:
#      x y z
#    x 2.008510 0.000000 0.000000 
#    y 0.000000 1.848060 0.000000 
#    z 0.000000 0.000000 1.979840 
# 
# From -- ./inp_files/22546.got.cif
#   From: 2010.05.17/outbox.cif.g08.bks.cpg/sg59_12_cif.got.tgz:22546.got - 2010.06.03 14:40:33.
