data_PCOD9453746
_publ_section_title
;
Structure prediction by ZEFSAII (Michael W. Deem and Ramdas Pophale) SiO2 
 PCOD9453746
Probable space group: P B C N
;
_chemical_formula_sum "Si O2"
_cell_formula_units_Z 48
_cell_length_a 26.992686
_cell_length_b 5.297769
_cell_length_c 13.408231
_cell_angle_alpha 90.000000
_cell_angle_beta 90.000000
_cell_angle_gamma 90.000000
_cell_volume 1917.390644
_symmetry_space_group_name_H-M "P B C N"
_symmetry_group_IT_number 60
_symmetry_cell_setting 'orthorhombic'
loop_
_space_group_symop_operation_xyz
x,y,z
1/2-x,1/2-y,1/2+z
1/2+x,1/2-y,-z
-x,y,1/2-z
-x,-y,-z
1/2+x,1/2+y,1/2-z
1/2-x,1/2+y,z
x,-y,1/2+z
loop_
_atom_site_type_symbol
_atom_site_label
_atom_site_fract_x
_atom_site_fract_y
_atom_site_fract_z
Si Si1 0.955680 0.678321 0.529597
Si Si2 0.526574 0.526615 0.843524
Si Si3 0.235615 0.572975 0.911156
Si Si4 0.727707 0.593589 0.821700
Si Si5 0.873775 0.884378 0.759900
Si Si6 0.867447 0.607172 0.136647
O O1 0.912485 0.510980 0.575016
O O2 0.000000 0.500000 0.500000
O O3 0.944387 0.812224 0.425509
O O4 0.981644 0.878669 0.603591
O O5 0.500000 0.664664 0.750000
O O6 0.428782 0.355634 0.696492
O O7 0.227496 0.856489 0.949946
O O8 0.255168 0.616111 0.796132
O O9 0.184148 0.420422 0.920387
O O10 0.737446 0.871908 0.862480
O O11 0.671657 0.491749 0.825164
O O12 0.876889 0.110277 0.676384
O O13 0.859816 0.605506 0.722586
#
# Coordination Sequence:
#
# PCOD9453746 Si02
#       6
#     8   8   8   8   8   8
#     4  11  27  46  66  97 136 175 234 293 341 414
#     4  11  25  46  68  96 130 179 226 289 349 408
#     4  10  16  31  55  96 132 168 217 265 321 398
#     4  10  16  31  54  96 132 164 218 266 316 396
#     4  12  22  37  68 101 129 178 225 268 336 403
#     4  12  22  38  68 100 133 176 225 274 336 403
#
# _framework density 25.034020999999999
#
# number of rings (size 3 to 8) (size 9 to 14) (size 15 to 20)
#    0.000    1.000    8.333    1.000    4.667    0.667 
#    0.000    0.000    0.000    2.000    0.000    0.000 
#    0.000    0.000    0.000    0.000    0.000    0.000 
#
# Total GULP energy -268003.250393 kJ/mol
# GULP energy per Si atom -5583.401050 kJ/mol
# Density = 2.497704 g / cm^3
# Si number density = 25.034021 Si / 1000 Ang^3
#
#
#
# Elastic Constant Matrix: (Units=GPa)
#
#
# Indices 1 2 3 4 5 6 
#
# 1 65.6312 -22.9665 -2.4858 0.0000 0.0000 0.0000
# 2 -22.9665 114.3517 7.6761 0.0000 0.0000 0.0000
# 3 -2.4858 7.6761 46.9796 0.0000 0.0000 0.0000
# 4 0.0000 0.0000 0.0000 18.0191 0.0000 0.0000
# 5 0.0000 0.0000 0.0000 0.0000 19.0422 0.0000
# 6 0.0000 0.0000 0.0000 0.0000 0.0000 37.0075
#
#
#
# Elastic Compliance Matrix: (Units=1/GPa)
#
#
# Indices 1 2 3 4 5 6 
#
# 1 0.016394 0.003270 0.000333 0.000000 0.000000 0.000000
# 2 0.003270 0.009494 -0.001378 0.000000 0.000000 0.000000
# 3 0.000333 -0.001378 0.021529 0.000000 0.000000 0.000000
# 4 0.000000 0.000000 0.000000 0.055497 0.000000 0.000000
# 5 0.000000 0.000000 0.000000 0.000000 0.052515 0.000000
# 6 0.000000 0.000000 0.000000 0.000000 0.000000 0.027022
#
#
# Mechanical properties :
#
#
# Convention : Reuss Voigt Hill
#
# Bulk Modulus (GPa) = 19.28026 21.26778 20.27402
# Shear Modulus (GPa) = 25.60317 31.12968 28.36642
#
# Velocity S-wave (km/s) = 3.20149 3.53015 3.36983
# Velocity P-wave (km/s) = 4.62433 5.01298 4.82257
#
# Compressibility (1/GPa) = 0.05186652
#
# Stress axis : x y z
#
# Youngs Moduli (GPa) = 60.99942 105.32688 46.44970
#
# Poissons Ratio (x) = -0.34443 -0.01547
# Poissons Ratio (y) = -0.19948 0.06402
# Poissons Ratio (z) = -0.02032 0.14517
#
# Static dielectric constant tensor:
#      x y z
#    x 1.997090 0.000000 0.000000 
#    y 0.000000 1.746940 0.000000 
#    z 0.000000 0.000000 2.216220 
# 
# From -- ./inp_files/18044.got.cif
#   From: 2010.05.17/outbox.cif.g08.bks.cpg/sg60_10_cif.got.tgz:18044.got - 2010.06.03 14:59:27.
