data_PCOD9453028
_publ_section_title
;
Structure prediction by ZEFSAII (Michael W. Deem and Ramdas Pophale) SiO2 
 PCOD9453028
Probable space group: P M M N
;
_chemical_formula_sum "Si O2"
_cell_formula_units_Z 48
_cell_length_a 29.268624
_cell_length_b 8.274336
_cell_length_c 10.569832
_cell_angle_alpha 90.000000
_cell_angle_beta 90.000000
_cell_angle_gamma 90.000000
_cell_volume 2559.785311
_symmetry_space_group_name_H-M "P M M N"
_symmetry_group_IT_number 59
_space_group.IT_coordinate_system_code '2'
_symmetry_cell_setting 'orthorhombic'
loop_
_space_group_symop_operation_xyz
x,y,z
1/2-x,1/2-y,z
1/2+x,-y,-z
-x,1/2+y,-z
-x,-y,-z
1/2+x,1/2+y,-z
1/2-x,y,z
x,1/2-y,z
loop_
_atom_site_type_symbol
_atom_site_label
_atom_site_fract_x
_atom_site_fract_y
_atom_site_fract_z
Si Si1 0.699105 0.945293 0.357118
Si Si2 0.604839 0.947388 0.253230
Si Si3 0.395190 0.942594 0.242550
Si Si4 0.447839 0.442201 0.994965
Si Si5 0.947923 0.944047 0.508397
Si Si6 0.198714 0.945434 0.353794
O O1 0.750000 0.002150 0.321209
O O2 0.699302 0.750000 0.355415
O O3 0.657285 0.000831 0.270125
O O4 0.690702 0.997753 0.502086
O O5 0.604929 0.750000 0.249591
O O6 0.578855 0.006431 0.128688
O O7 0.578121 0.994622 0.380510
O O8 0.394092 0.750000 0.227856
O O9 0.343254 0.001572 0.267057
O O10 0.423531 0.984647 0.368497
O O11 0.420278 0.013448 0.120973
O O12 0.449290 0.250000 0.984020
O O13 0.500000 0.500000 0.000000
O O14 0.945980 0.750000 0.516571
O O15 0.000000 0.000000 0.500000
O O16 0.250000 0.998836 0.316931
O O17 0.198292 0.750000 0.354034
#
# Coordination Sequence:
#
# PCOD9453028 Si02
#       6
#     8   8   8   8   8   8
#     4   9  16  30  55  83 109 138 174 220 279 340
#     4   9  19  35  54  79 109 139 176 226 279 328
#     4  11  22  37  56  82 114 149 190 234 280 336
#     4  11  23  40  59  79 110 151 191 234 284 342
#     4  11  21  35  56  82 111 141 183 236 287 338
#     4   9  18  33  54  81 113 147 183 228 279 328
#
# _framework density 18.751571999999999
#
# number of rings (size 3 to 8) (size 9 to 14) (size 15 to 20)
#    0.000    2.000    1.667    2.500    0.000    2.000 
#    0.000    5.000    0.000    1.000    0.000    0.000 
#    0.000    0.000    0.000    0.000    0.000    0.000 
#
# Total GULP energy -267941.077623 kJ/mol
# GULP energy per Si atom -5582.105784 kJ/mol
# Density = 1.870889 g / cm^3
# Si number density = 18.751572 Si / 1000 Ang^3
#
#
#
# Elastic Constant Matrix: (Units=GPa)
#
#
# Indices 1 2 3 4 5 6 
#
# 1 202.9251 15.4641 93.1659 0.0000 0.0000 0.0000
# 2 15.4641 18.9266 7.7946 0.0000 0.0000 0.0000
# 3 93.1659 7.7946 132.4339 0.0000 0.0000 0.0000
# 4 0.0000 0.0000 0.0000 12.5108 0.0000 0.0000
# 5 0.0000 0.0000 0.0000 0.0000 32.7344 0.0000
# 6 0.0000 0.0000 0.0000 0.0000 0.0000 21.3489
#
#
#
# Elastic Compliance Matrix: (Units=1/GPa)
#
#
# Indices 1 2 3 4 5 6 
#
# 1 0.007576 -0.004095 -0.005089 0.000000 0.000000 0.000000
# 2 -0.004095 0.056361 -0.000437 0.000000 0.000000 0.000000
# 3 -0.005089 -0.000437 0.011157 0.000000 0.000000 0.000000
# 4 0.000000 0.000000 0.000000 0.079931 0.000000 0.000000
# 5 0.000000 0.000000 0.000000 0.000000 0.030549 0.000000
# 6 0.000000 0.000000 0.000000 0.000000 0.000000 0.046841
#
#
# Mechanical properties :
#
#
# Convention : Reuss Voigt Hill
#
# Bulk Modulus (GPa) = 17.90393 65.23720 41.57057
# Shear Modulus (GPa) = 18.49984 29.17624 23.83804
#
# Velocity S-wave (km/s) = 3.14439 3.94881 3.56934
# Velocity P-wave (km/s) = 4.76986 7.46034 6.26132
#
# Compressibility (1/GPa) = 0.05585366
#
# Stress axis : x y z
#
# Youngs Moduli (GPa) = 131.98988 17.74276 89.63285
#
# Poissons Ratio (x) = 0.07265 0.45613
# Poissons Ratio (y) = 0.54044 0.03915
# Poissons Ratio (z) = 0.67168 0.00775
#
# Static dielectric constant tensor:
#      x y z
#    x 1.671030 0.000000 0.000000 
#    y 0.000000 1.661440 0.000000 
#    z 0.000000 0.000000 1.612010 
# 
# From -- ./inp_files/12941.got.cif
#   From: 2010.05.17/outbox.cif.g08.bks.cpg/sg59_7_cif.got.tgz:12941.got - 2010.06.03 14:40:33.
