data_PCOD9453705
_publ_section_title
;
Structure prediction by ZEFSAII (Michael W. Deem and Ramdas Pophale) SiO2 
 PCOD9453705
Probable space group: P B C N
;
_chemical_formula_sum "Si O2"
_cell_formula_units_Z 60
_cell_length_a 12.881977
_cell_length_b 19.437117
_cell_length_c 15.530241
_cell_angle_alpha 90.000000
_cell_angle_beta 90.000000
_cell_angle_gamma 90.000000
_cell_volume 3888.593658
_symmetry_space_group_name_H-M "P B C N"
_symmetry_group_IT_number 60
_symmetry_cell_setting 'orthorhombic'
loop_
_space_group_symop_operation_xyz
x,y,z
1/2-x,1/2-y,1/2+z
1/2+x,1/2-y,-z
-x,y,1/2-z
-x,-y,-z
1/2+x,1/2+y,1/2-z
1/2-x,1/2+y,z
x,-y,1/2+z
loop_
_atom_site_type_symbol
_atom_site_label
_atom_site_fract_x
_atom_site_fract_y
_atom_site_fract_z
Si Si1 0.616121 0.734552 0.415123
Si Si2 0.000000 0.450126 0.250000
Si Si3 0.837604 0.669300 0.751779
Si Si4 0.836283 0.684579 0.090314
Si Si5 0.115667 0.765179 0.911976
Si Si6 0.337062 0.184300 0.087093
Si Si7 0.499881 0.917087 0.849190
Si Si8 0.616223 0.716254 0.751873
O O1 0.630725 0.786865 0.335692
O O2 0.629664 0.778440 0.502391
O O3 0.500185 0.705078 0.411725
O O4 0.712013 0.681443 0.411156
O O5 0.099852 0.401327 0.249592
O O6 0.000170 0.501508 0.332205
O O7 0.870338 0.715065 0.669678
O O8 0.712755 0.663871 0.751389
O O9 0.711297 0.681474 0.090229
O O10 0.899035 0.614457 0.104957
O O11 0.867786 0.734873 0.168890
O O12 0.130298 0.718977 0.997360
O O13 0.399659 0.114478 0.104372
O O14 0.369964 0.236549 0.163379
O O15 0.500000 0.889798 0.750000
O O16 0.500000 0.687367 0.750000
#
# Coordination Sequence:
#
# PCOD9453705 Si02
#       8
#     8   4   8   8   8   8   8   8
#     4  10  18  28  47  68 104 117 142 198 234 299
#     4  10  20  34  48  64  94 138 162 196 214 268
#     4  10  20  31  41  66  96 127 157 183 245 260
#     4  10  17  28  47  75  89 122 154 182 250 276
#     4  10  18  28  47  68 104 117 142 198 234 299
#     4  10  17  28  47  75  89 122 154 182 250 276
#     4  10  18  31  52  62  95 124 160 198 210 277
#     4  10  15  28  50  67  93 113 152 206 229 290
#
# _framework density 15.429743
#
# number of rings (size 3 to 8) (size 9 to 14) (size 15 to 20)
#    0.400    1.600    5.333    0.000    0.000    0.000 
#    0.000    2.667    0.000    1.600    0.000    0.000 
#    0.000   12.800    0.000    0.000    0.000    0.000 
#
# Total GULP energy -334024.102825 kJ/mol
# GULP energy per Si atom -5567.068380 kJ/mol
# Density = 1.539462 g / cm^3
# Si number density = 15.429743 Si / 1000 Ang^3
#
#
#
# Elastic Constant Matrix: (Units=GPa)
#
#
# Indices 1 2 3 4 5 6 
#
# 1 152.9289 31.8762 -19.8328 0.0000 0.0000 0.0000
# 2 31.8762 54.0595 1.3174 0.0000 0.0000 0.0000
# 3 -19.8328 1.3174 63.8529 0.0000 0.0000 0.0000
# 4 0.0000 0.0000 0.0000 131.0260 0.0000 0.0000
# 5 0.0000 0.0000 0.0000 0.0000 25.2928 0.0000
# 6 0.0000 0.0000 0.0000 0.0000 0.0000 22.0049
#
#
#
# Elastic Compliance Matrix: (Units=1/GPa)
#
#
# Indices 1 2 3 4 5 6 
#
# 1 0.007845 -0.004687 0.002533 0.000000 0.000000 0.000000
# 2 -0.004687 0.021308 -0.001896 0.000000 0.000000 0.000000
# 3 0.002533 -0.001896 0.016487 0.000000 0.000000 0.000000
# 4 0.000000 0.000000 0.000000 0.007632 0.000000 0.000000
# 5 0.000000 0.000000 0.000000 0.000000 0.039537 0.000000
# 6 0.000000 0.000000 0.000000 0.000000 0.000000 0.045444
#
#
# Mechanical properties :
#
#
# Convention : Reuss Voigt Hill
#
# Bulk Modulus (GPa) = 26.63785 33.06255 29.85020
# Shear Modulus (GPa) = 31.47312 52.83009 42.15161
#
# Velocity S-wave (km/s) = 4.52128 5.85777 5.23237
# Velocity P-wave (km/s) = 6.67513 8.19912 7.47606
#
# Compressibility (1/GPa) = 0.03754057
#
# Stress axis : x y z
#
# Youngs Moduli (GPa) = 127.47762 46.93031 60.65407
#
# Poissons Ratio (x) = 0.21997 -0.15365
# Poissons Ratio (y) = 0.59752 0.11497
# Poissons Ratio (z) = -0.32293 0.08896
#
# Static dielectric constant tensor:
#      x y z
#    x 1.562910 0.000000 0.000000 
#    y 0.000000 1.468480 0.000000 
#    z 0.000000 0.000000 1.525140 
# 
# From -- ./inp_files/16448.got.cif
#   From: 2010.05.17/outbox.cif.g08.bks.cpg/sg60_9_cif.got.tgz:16448.got - 2010.06.03 14:59:27.
