data_PCOD9453060
_publ_section_title
;
Structure prediction by ZEFSAII (Michael W. Deem and Ramdas Pophale) SiO2 
 PCOD9453060
Probable space group: P M M N
;
_chemical_formula_sum "Si O2"
_cell_formula_units_Z 48
_cell_length_a 10.398589
_cell_length_b 8.261947
_cell_length_c 29.971881
_cell_angle_alpha 90.000000
_cell_angle_beta 90.000000
_cell_angle_gamma 90.000000
_cell_volume 2574.961960
_symmetry_space_group_name_H-M "P M M N"
_symmetry_group_IT_number 59
_space_group.IT_coordinate_system_code '2'
_symmetry_cell_setting 'orthorhombic'
loop_
_space_group_symop_operation_xyz
x,y,z
1/2-x,1/2-y,z
1/2+x,-y,-z
-x,1/2+y,-z
-x,-y,-z
1/2+x,1/2+y,-z
1/2-x,y,z
x,1/2-y,z
loop_
_atom_site_type_symbol
_atom_site_label
_atom_site_fract_x
_atom_site_fract_y
_atom_site_fract_z
Si Si1 0.250000 0.561229 0.946086
Si Si2 0.898247 0.947171 0.190421
Si Si3 0.396111 0.054837 0.362850
Si Si4 0.010019 0.942486 0.098877
Si Si5 0.102908 0.054811 0.708977
Si Si6 0.750000 0.935713 0.956211
Si Si7 0.604169 0.554889 0.535600
O O1 0.250000 0.750000 0.933757
O O2 0.376744 0.477676 0.926384
O O3 0.250000 0.543248 0.999418
O O4 0.750000 0.996137 0.181691
O O5 0.898960 0.750000 0.189978
O O6 0.932051 0.999267 0.240609
O O7 0.988316 0.999382 0.149885
O O8 0.250000 0.001019 0.351959
O O9 0.395265 0.250000 0.363124
O O10 0.425280 0.000880 0.413649
O O11 0.501235 0.999344 0.327588
O O12 0.034697 0.750000 0.098932
O O13 0.125056 0.028472 0.073339
O O14 0.250000 0.000610 0.699755
O O15 0.104815 0.250000 0.709515
O O16 0.750000 0.750000 0.971097
O O17 0.500000 0.500000 0.500000
O O18 0.750000 0.500653 0.524695
O O19 0.605274 0.750000 0.535985
#
# Coordination Sequence:
#
# PCOD9453060 Si02
#       7
#     4   8   8   8   8   4   8
#     4  12  24  40  62  88 114 146 186 228 275 330
#     4   8  15  32  58  83 106 137 178 221 266 320
#     4   9  19  36  53  72 106 147 181 215 266 325
#     4  11  21  39  64  86 110 148 189 227 275 332
#     4   9  18  33  55  82 108 135 176 225 266 313
#     4  12  26  42  56  82 120 150 182 230 279 328
#     4   9  19  35  53  74 103 140 180 223 269 321
#
# _framework density 18.641051000000001
#
# number of rings (size 3 to 8) (size 9 to 14) (size 15 to 20)
#    0.000    2.333    0.833    4.500    0.000    2.333 
#    1.500    6.667    0.000    0.000    0.000    0.000 
#    0.000    0.000    0.000    0.000    0.000    0.000 
#
# Total GULP energy -267843.746623 kJ/mol
# GULP energy per Si atom -5580.078055 kJ/mol
# Density = 1.859862 g / cm^3
# Si number density = 18.641051 Si / 1000 Ang^3
#
#
#
# Elastic Constant Matrix: (Units=GPa)
#
#
# Indices 1 2 3 4 5 6 
#
# 1 108.0697 -2.0906 82.8979 0.0000 0.0000 0.0000
# 2 -2.0906 17.8541 -0.9299 0.0000 0.0000 0.0000
# 3 82.8979 -0.9299 140.9971 0.0000 0.0000 0.0000
# 4 0.0000 0.0000 0.0000 26.4244 0.0000 0.0000
# 5 0.0000 0.0000 0.0000 0.0000 33.8867 0.0000
# 6 0.0000 0.0000 0.0000 0.0000 0.0000 32.2128
#
#
#
# Elastic Compliance Matrix: (Units=1/GPa)
#
#
# Indices 1 2 3 4 5 6 
#
# 1 0.016893 0.001461 -0.009922 0.000000 0.000000 0.000000
# 2 0.001461 0.056155 -0.000489 0.000000 0.000000 0.000000
# 3 -0.009922 -0.000489 0.012923 0.000000 0.000000 0.000000
# 4 0.000000 0.000000 0.000000 0.037844 0.000000 0.000000
# 5 0.000000 0.000000 0.000000 0.000000 0.029510 0.000000
# 6 0.000000 0.000000 0.000000 0.000000 0.000000 0.031044
#
#
# Mechanical properties :
#
#
# Convention : Reuss Voigt Hill
#
# Bulk Modulus (GPa) = 14.69053 47.40842 31.04947
# Shear Modulus (GPa) = 22.22635 30.97433 26.60034
#
# Velocity S-wave (km/s) = 3.45676 4.08072 3.78163
# Velocity P-wave (km/s) = 4.88161 6.90583 5.97999
#
# Compressibility (1/GPa) = 0.06807109
#
# Stress axis : x y z
#
# Youngs Moduli (GPa) = 59.19717 17.80780 77.38246
#
# Poissons Ratio (x) = -0.02602 0.76781
# Poissons Ratio (y) = -0.08650 0.03782
# Poissons Ratio (z) = 0.58737 0.00870
#
# Static dielectric constant tensor:
#      x y z
#    x 1.614520 0.000000 0.000000 
#    y 0.000000 1.650620 0.000000 
#    z 0.000000 0.000000 1.644890 
# 
# From -- ./inp_files/32933.got.cif
#   From: 2010.05.17/outbox.cif.g08.bks.cpg/sg59_17_cif.got.tgz:32933.got - 2010.06.03 14:40:33.
