data_PCOD9453258
_publ_section_title
;
Structure prediction by ZEFSAII (Michael W. Deem and Ramdas Pophale) SiO2 
 PCOD9453258
Probable space group: P M M N
;
_chemical_formula_sum "Si O2"
_cell_formula_units_Z 56
_cell_length_a 7.387310
_cell_length_b 15.169744
_cell_length_c 21.702674
_cell_angle_alpha 90.000000
_cell_angle_beta 90.000000
_cell_angle_gamma 90.000000
_cell_volume 2432.079812
_symmetry_space_group_name_H-M "P M M N"
_symmetry_group_IT_number 59
_space_group.IT_coordinate_system_code '2'
_symmetry_cell_setting 'orthorhombic'
loop_
_space_group_symop_operation_xyz
x,y,z
1/2-x,1/2-y,z
1/2+x,-y,-z
-x,1/2+y,-z
-x,-y,-z
1/2+x,1/2+y,-z
1/2-x,y,z
x,1/2-y,z
loop_
_atom_site_type_symbol
_atom_site_label
_atom_site_fract_x
_atom_site_fract_y
_atom_site_fract_z
Si Si1 0.528716 0.852383 0.599312
Si Si2 0.531540 0.850975 0.963524
Si Si3 0.471575 0.469145 0.150083
Si Si4 0.528346 0.532505 0.715162
Si Si5 0.039336 0.848265 0.104719
Si Si6 0.543060 0.151225 0.671552
Si Si7 0.541240 0.856932 0.466298
O O1 0.750000 0.853416 0.597128
O O2 0.475202 0.750000 0.606017
O O3 0.469470 0.908868 0.657568
O O4 0.468480 0.888500 0.532281
O O5 0.750000 0.854204 0.964848
O O6 0.477032 0.750000 0.951942
O O7 0.467799 0.912903 0.908520
O O8 0.469366 0.873572 0.032378
O O9 0.250000 0.469484 0.148053
O O10 0.523259 0.434087 0.217227
O O11 0.535406 0.569677 0.142126
O O12 0.750000 0.531329 0.712898
O O13 0.463503 0.432019 0.706531
O O14 0.250000 0.841623 0.121698
O O15 0.960097 0.750000 0.111679
O O16 0.750000 0.158732 0.692840
O O17 0.462612 0.250000 0.676268
O O18 0.547010 0.124261 0.599194
O O19 0.750000 0.883743 0.460580
O O20 0.536100 0.750000 0.471819
#
# Coordination Sequence:
#
# PCOD9453258 Si02
#       7
#     8   8   8   8   8   8   8
#     4   8  14  25  41  61  84 109 139 176 215 253
#     4   9  17  29  46  68  90 110 136 173 215 252
#     4   9  17  28  42  62  88 115 142 173 208 247
#     4   9  17  27  40  61  87 114 143 173 208 250
#     4   9  17  29  46  67  88 112 143 174 205 245
#     4   9  17  28  42  62  87 112 139 173 212 252
#     4   8  14  26  44  63  82 107 140 177 215 251
#
# _framework density 23.025558
#
# number of rings (size 3 to 8) (size 9 to 14) (size 15 to 20)
#    0.000    3.286    0.000    1.286    0.000    1.714 
#    0.000    5.714    0.000    1.714    0.000    4.000 
#    0.000    4.571    0.000    0.000    0.000    0.000 
#
# Total GULP energy -312491.552307 kJ/mol
# GULP energy per Si atom -5580.206291 kJ/mol
# Density = 2.297315 g / cm^3
# Si number density = 23.025558 Si / 1000 Ang^3
#
#
#
# Elastic Constant Matrix: (Units=GPa)
#
#
# Indices 1 2 3 4 5 6 
#
# 1 78.0691 -1.1388 -7.7083 0.0000 0.0000 0.0000
# 2 -1.1388 49.4089 25.2470 0.0000 0.0000 0.0000
# 3 -7.7083 25.2470 41.6926 0.0000 0.0000 0.0000
# 4 0.0000 0.0000 0.0000 -8.2808 0.0000 0.0000
# 5 0.0000 0.0000 0.0000 0.0000 9.9134 0.0000
# 6 0.0000 0.0000 0.0000 0.0000 0.0000 -5.4108
#
#
#
# Elastic Compliance Matrix: (Units=1/GPa)
#
#
# Indices 1 2 3 4 5 6 
#
# 1 0.013110 -0.001356 0.003245 0.000000 0.000000 0.000000
# 2 -0.001356 0.029448 -0.018083 0.000000 0.000000 0.000000
# 3 0.003245 -0.018083 0.035535 0.000000 0.000000 0.000000
# 4 0.000000 0.000000 0.000000 -0.120761 0.000000 0.000000
# 5 0.000000 0.000000 0.000000 0.000000 0.100874 0.000000
# 6 0.000000 0.000000 0.000000 0.000000 0.000000 -0.184815
#
#
# Mechanical properties :
#
#
# Convention : Reuss Voigt Hill
#
# Bulk Modulus (GPa) = 21.87948 22.44117 22.16033
# Shear Modulus (GPa) = -63.30182 9.42907 -26.93638
#
# Velocity S-wave (km/s) = -5.24897 2.02582 -3.42401
# Velocity P-wave (km/s) = 5.21658 3.90375 2.44677
#
# Compressibility (1/GPa) = 0.04570492
#
# Stress axis : x y z
#
# Youngs Moduli (GPa) = 76.27897 33.95804 28.14110
#
# Poissons Ratio (x) = 0.04604 -0.09131
# Poissons Ratio (y) = 0.10343 0.50888
# Poissons Ratio (z) = -0.24751 0.61406
#
# Static dielectric constant tensor:
#      x y z
#    x 1.894670 0.000000 0.000000 
#    y 0.000000 1.853410 0.000000 
#    z 0.000000 0.000000 1.838710 
# 
# From -- ./inp_files/29082.got.cif
#   From: 2010.05.17/outbox.cif.g08.bks.cpg/sg59_15_cif.got.tgz:29082.got - 2010.06.03 14:40:33.
