data_PCOD9453399
_publ_section_title
;
Structure prediction by ZEFSAII (Michael W. Deem and Ramdas Pophale) SiO2 
 PCOD9453399
Probable space group: P M M N
;
_chemical_formula_sum "Si O2"
_cell_formula_units_Z 40
_cell_length_a 21.000000
_cell_length_b 9.000000
_cell_length_c 12.000000
_cell_angle_alpha 90.000000
_cell_angle_beta 90.000000
_cell_angle_gamma 90.000000
_cell_volume 2268.000000
_symmetry_space_group_name_H-M "P M M N"
_symmetry_group_IT_number 59
_space_group.IT_coordinate_system_code '2'
_symmetry_cell_setting 'orthorhombic'
loop_
_space_group_symop_operation_xyz
x,y,z
1/2-x,1/2-y,z
1/2+x,-y,-z
-x,1/2+y,-z
-x,-y,-z
1/2+x,1/2+y,-z
1/2-x,y,z
x,1/2-y,z
loop_
_atom_site_type_symbol
_atom_site_label
_atom_site_fract_x
_atom_site_fract_y
_atom_site_fract_z
Si Si1 0.553062 0.070786 0.920599
Si Si2 0.174228 0.084015 0.721624
Si Si3 0.823149 0.428595 0.050464
Si Si4 0.095745 0.925704 0.550560
Si Si5 0.525744 0.428148 0.666492
O O1 0.548798 0.250000 0.929002
O O2 0.541094 0.030222 0.792438
O O3 0.623705 0.026418 0.961306
O O4 0.500000 0.000000 0.000000
O O5 0.250000 0.091479 0.726050
O O6 0.147240 0.250000 0.729259
O O7 0.154764 0.990554 0.829886
O O8 0.153778 0.008207 0.607680
O O9 0.750000 0.478133 0.028528
O O10 0.821984 0.250000 0.055832
O O11 0.101942 0.750000 0.564042
O O12 0.082244 0.958767 0.421342
O O13 0.034808 0.984765 0.619330
O O14 0.513680 0.250000 0.661260
#
# Coordination Sequence:
#
# PCOD9453399 Si02
#       5
#     8   8   8   8   8
#     4  10  20  33  50  74 101 129 163 202 245 291
#     4  10  20  33  50  72  98 128 161 199 244 290
#     4   9  18  33  52  73  98 128 163 203 245 292
#     4  10  19  32  51  73  97 127 163 201 241 286
#     4   9  19  34  50  71 100 130 159 196 244 293
#
# _framework density 17.636683999999999
#
# number of rings (size 3 to 8) (size 9 to 14) (size 15 to 20)
#    0.000    2.400    0.000    2.400    0.000    6.800 
#    0.000    1.000    0.000    3.600    0.000    2.800 
#    0.000    0.000    0.000    0.000    0.000    0.000 
#
# Total GULP energy -222986.819921 kJ/mol
# GULP energy per Si atom -5574.670498 kJ/mol
# Density = 1.759654 g / cm^3
# Si number density = 17.636684 Si / 1000 Ang^3
#
#
#
# Elastic Constant Matrix: (Units=GPa)
#
#
# Indices 1 2 3 4 5 6 
#
# 1 50.8902 18.3427 48.8471 0.0000 0.0000 0.0000
# 2 18.3427 17.4116 29.2802 0.0000 0.0000 0.0000
# 3 48.8471 29.2802 134.7252 0.0000 0.0000 0.0000
# 4 0.0000 0.0000 0.0000 17.5105 0.0000 0.0000
# 5 0.0000 0.0000 0.0000 0.0000 27.8571 0.0000
# 6 0.0000 0.0000 0.0000 0.0000 0.0000 24.5168
#
#
#
# Elastic Compliance Matrix: (Units=1/GPa)
#
#
# Indices 1 2 3 4 5 6 
#
# 1 0.036002 -0.025179 -0.007581 0.000000 0.000000 0.000000
# 2 -0.025179 0.108123 -0.014370 0.000000 0.000000 0.000000
# 3 -0.007581 -0.014370 0.013294 0.000000 0.000000 0.000000
# 4 0.000000 0.000000 0.000000 0.057109 0.000000 0.000000
# 5 0.000000 0.000000 0.000000 0.000000 0.035898 0.000000
# 6 0.000000 0.000000 0.000000 0.000000 0.000000 0.040788
#
#
# Mechanical properties :
#
#
# Convention : Reuss Voigt Hill
#
# Bulk Modulus (GPa) = 15.83275 43.99635 29.91455
# Shear Modulus (GPa) = 12.29934 21.08067 16.69000
#
# Velocity S-wave (km/s) = 2.64365 3.46102 3.07957
# Velocity P-wave (km/s) = 4.27962 6.40091 5.44458
#
# Compressibility (1/GPa) = 0.06316023
#
# Stress axis : x y z
#
# Youngs Moduli (GPa) = 27.77600 9.24876 75.22083
#
# Poissons Ratio (x) = 0.23287 0.57026
# Poissons Ratio (y) = 0.69936 1.08089
# Poissons Ratio (z) = 0.21057 0.13290
#
# Static dielectric constant tensor:
#      x y z
#    x 1.625240 0.000000 0.000000 
#    y 0.000000 1.614180 0.000000 
#    z 0.000000 0.000000 1.585670 
# 
# From -- ./inp_files/14033.got.cif
#   From: 2010.05.17/outbox.ucp.g08.bks.cvg/sg59_8_cif.got.tgz:14033.got - 2010.06.11 16:43:56.
