data_PCOD9453402
_publ_section_title
;
Structure prediction by ZEFSAII (Michael W. Deem and Ramdas Pophale) SiO2 
 PCOD9453402
Probable space group: P M M N
;
_chemical_formula_sum "Si O2"
_cell_formula_units_Z 40
_cell_length_a 27.000000
_cell_length_b 9.000000
_cell_length_c 9.000000
_cell_angle_alpha 90.000000
_cell_angle_beta 90.000000
_cell_angle_gamma 90.000000
_cell_volume 2187.000000
_symmetry_space_group_name_H-M "P M M N"
_symmetry_group_IT_number 59
_space_group.IT_coordinate_system_code '2'
_symmetry_cell_setting 'orthorhombic'
loop_
_space_group_symop_operation_xyz
x,y,z
1/2-x,1/2-y,z
1/2+x,-y,-z
-x,1/2+y,-z
-x,-y,-z
1/2+x,1/2+y,-z
1/2-x,y,z
x,1/2-y,z
loop_
_atom_site_type_symbol
_atom_site_label
_atom_site_fract_x
_atom_site_fract_y
_atom_site_fract_z
Si Si1 0.556371 0.927096 0.163286
Si Si2 0.750000 0.921760 0.312556
Si Si3 0.349569 0.576748 0.328802
Si Si4 0.750000 0.919862 0.675311
Si Si5 0.052937 0.570717 0.161054
Si Si6 0.850812 0.077078 0.314824
O O1 0.561521 0.750000 0.159243
O O2 0.501501 0.963852 0.225037
O O3 0.601045 0.997784 0.252526
O O4 0.557348 0.992884 0.997648
O O5 0.750000 0.750000 0.269761
O O6 0.750000 0.928608 0.493979
O O7 0.799967 0.001868 0.261664
O O8 0.344381 0.750000 0.291986
O O9 0.300562 0.495286 0.273474
O O10 0.400991 0.522520 0.260639
O O11 0.351619 0.564648 0.506630
O O12 0.750000 0.750000 0.718954
O O13 0.054845 0.750000 0.141988
O O14 0.851093 0.250000 0.274374
#
# Coordination Sequence:
#
# PCOD9453402 Si02
#       6
#     8   4   8   4   8   8
#     4  10  20  34  52  74 101 133 168 208 253 298
#     4   9  17  31  50  73 102 133 164 202 248 293
#     4   9  18  33  53  75 100 132 168 204 244 295
#     4   9  17  29  48  75 104 131 160 200 250 297
#     4   9  19  36  54  72  98 133 171 209 251 299
#     4  10  19  32  52  77 103 132 166 203 246 298
#
# _framework density 18.289895000000001
#
# number of rings (size 3 to 8) (size 9 to 14) (size 15 to 20)
#    0.000    2.600    0.000    1.800    0.000    5.600 
#    0.000    1.000    0.000    3.600    0.000    0.000 
#    0.000    0.000    0.000    0.000    0.000    0.000 
#
# Total GULP energy -222974.121998 kJ/mol
# GULP energy per Si atom -5574.353050 kJ/mol
# Density = 1.824827 g / cm^3
# Si number density = 18.289895 Si / 1000 Ang^3
#
#
#
# Elastic Constant Matrix: (Units=GPa)
#
#
# Indices 1 2 3 4 5 6 
#
# 1 214.9422 93.9195 29.9483 0.0000 0.0000 0.0000
# 2 93.9195 57.3620 24.6686 0.0000 0.0000 0.0000
# 3 29.9483 24.6686 -10.1764 0.0000 0.0000 0.0000
# 4 0.0000 0.0000 0.0000 18.4412 0.0000 0.0000
# 5 0.0000 0.0000 0.0000 0.0000 44.4157 0.0000
# 6 0.0000 0.0000 0.0000 0.0000 0.0000 129.6375
#
#
#
# Elastic Compliance Matrix: (Units=1/GPa)
#
#
# Indices 1 2 3 4 5 6 
#
# 1 0.015057 -0.021401 -0.007564 0.000000 0.000000 0.000000
# 2 -0.021401 0.038951 0.031441 0.000000 0.000000 0.000000
# 3 -0.007564 0.031441 -0.044311 0.000000 0.000000 0.000000
# 4 0.000000 0.000000 0.000000 0.054226 0.000000 0.000000
# 5 0.000000 0.000000 0.000000 0.000000 0.022515 0.000000
# 6 0.000000 0.000000 0.000000 0.000000 0.000000 0.007714
#
#
# Mechanical properties :
#
#
# Convention : Reuss Voigt Hill
#
# Bulk Modulus (GPa) = 68.25827 62.13339 65.19583
# Shear Modulus (GPa) = 53.14451 46.07165 49.60808
#
# Velocity S-wave (km/s) = 5.39628 5.02438 5.21365
# Velocity P-wave (km/s) = 8.73085 8.22826 8.48328
#
# Compressibility (1/GPa) = 0.01465024
#
# Stress axis : x y z
#
# Youngs Moduli (GPa) = 66.41228 25.67308 -22.56769
#
# Poissons Ratio (x) = 0.54942 -0.17071
# Poissons Ratio (y) = 1.42127 0.70956
# Poissons Ratio (z) = 0.50237 -0.80720
#
# Static dielectric constant tensor:
#      x y z
#    x 1.639570 0.000000 0.000000 
#    y 0.000000 1.611880 0.000000 
#    z 0.000000 0.000000 1.609270 
# 
# From -- ./inp_files/5901.got.cif
#   From: 2010.05.17/outbox.ucp.g08.bks.cvg/sg59_3_cif.got.tgz:5901.got - 2010.06.11 16:43:56.
