data_PCOD9453927
_publ_section_title
;
Structure prediction by ZEFSAII (Michael W. Deem and Ramdas Pophale) SiO2 
 PCOD9453927
Probable space group: P B C N
;
_chemical_formula_sum "Si O2"
_cell_formula_units_Z 56
_cell_length_a 30.010895
_cell_length_b 21.577402
_cell_length_c 5.073434
_cell_angle_alpha 90.000000
_cell_angle_beta 90.000000
_cell_angle_gamma 90.000000
_cell_volume 3285.338440
_symmetry_space_group_name_H-M "P B C N"
_symmetry_group_IT_number 60
_symmetry_cell_setting 'orthorhombic'
loop_
_space_group_symop_operation_xyz
x,y,z
1/2-x,1/2-y,1/2+z
1/2+x,1/2-y,-z
-x,y,1/2-z
-x,-y,-z
1/2+x,1/2+y,1/2-z
1/2-x,1/2+y,z
x,-y,1/2+z
loop_
_atom_site_type_symbol
_atom_site_label
_atom_site_fract_x
_atom_site_fract_y
_atom_site_fract_z
Si Si1 0.246767 0.466454 0.466045
Si Si2 0.096347 0.774605 0.309171
Si Si3 0.264531 0.170143 0.740814
Si Si4 0.595985 0.360593 0.693885
Si Si5 0.000000 0.226039 0.750000
Si Si6 0.646692 0.467795 0.956779
Si Si7 0.500000 0.364159 0.750000
Si Si8 0.192606 0.728532 0.238071
O O1 0.229908 0.517952 0.258103
O O2 0.237621 0.400238 0.335604
O O3 0.300214 0.470558 0.505434
O O4 0.095201 0.803431 0.600899
O O5 0.048486 0.742258 0.253346
O O6 0.140272 0.733828 0.282298
O O7 0.100665 0.830894 0.095157
O O8 0.283177 0.183803 0.449548
O O9 0.216563 0.204253 0.767512
O O10 0.296252 0.205789 0.945992
O O11 0.633760 0.405472 0.805553
O O12 0.548244 0.395842 0.728609
O O13 0.999495 0.180591 0.501014
O O14 0.629783 0.520874 0.753242
#
# Coordination Sequence:
#
# PCOD9453927 Si02
#       8
#     8   8   8   8   4   8   4   8
#     4  10  20  33  49  65  87 122 158 193 227 262
#     4  10  18  30  48  68  87 119 150 179 227 274
#     4  10  20  33  46  69  97 123 156 188 226 279
#     4  10  18  30  46  61  85 113 149 191 227 276
#     4   8  16  28  44  65  88 110 148 185 212 272
#     4  10  20  31  43  62  82 108 152 198 235 266
#     4   8  16  28  42  61  80 110 146 183 230 274
#     4  10  20  31  48  70  97 125 149 186 234 278
#
# _framework density 17.045428000000001
#
# number of rings (size 3 to 8) (size 9 to 14) (size 15 to 20)
#    0.000    2.286    0.000    3.429    0.000    4.571 
#    0.000    0.714    0.000    0.000    0.000    0.000 
#    0.000    0.000    0.000   12.857    0.000    0.000 
#
# Total GULP energy -311789.669030 kJ/mol
# GULP energy per Si atom -5567.672661 kJ/mol
# Density = 1.700663 g / cm^3
# Si number density = 17.045428 Si / 1000 Ang^3
#
#
#
# Elastic Constant Matrix: (Units=GPa)
#
#
# Indices 1 2 3 4 5 6 
#
# 1 62.7789 0.6975 12.3435 0.0000 0.0000 0.0000
# 2 0.6975 33.9510 -1.8345 0.0000 0.0000 0.0000
# 3 12.3435 -1.8345 51.7293 0.0000 0.0000 0.0000
# 4 0.0000 0.0000 0.0000 15.0430 0.0000 0.0000
# 5 0.0000 0.0000 0.0000 0.0000 15.5866 0.0000
# 6 0.0000 0.0000 0.0000 0.0000 0.0000 9.7847
#
#
#
# Elastic Compliance Matrix: (Units=1/GPa)
#
#
# Indices 1 2 3 4 5 6 
#
# 1 0.016724 -0.000560 -0.004010 0.000000 0.000000 0.000000
# 2 -0.000560 0.029530 0.001181 0.000000 0.000000 0.000000
# 3 -0.004010 0.001181 0.020330 0.000000 0.000000 0.000000
# 4 0.000000 0.000000 0.000000 0.066476 0.000000 0.000000
# 5 0.000000 0.000000 0.000000 0.000000 0.064158 0.000000
# 6 0.000000 0.000000 0.000000 0.000000 0.000000 0.102201
#
#
# Mechanical properties :
#
#
# Convention : Reuss Voigt Hill
#
# Bulk Modulus (GPa) = 16.72133 18.98580 17.85357
# Shear Modulus (GPa) = 15.33123 17.23305 16.28214
#
# Velocity S-wave (km/s) = 3.00231 3.18308 3.09402
# Velocity P-wave (km/s) = 4.67436 4.96708 4.82294
#
# Compressibility (1/GPa) = 0.05980385
#
# Stress axis : x y z
#
# Youngs Moduli (GPa) = 59.79547 33.86442 49.18783
#
# Poissons Ratio (x) = 0.01897 0.19726
# Poissons Ratio (y) = 0.03350 -0.05809
# Poissons Ratio (z) = 0.23981 -0.03999
#
# Static dielectric constant tensor:
#      x y z
#    x 1.627580 0.000000 0.000000 
#    y 0.000000 1.573510 0.000000 
#    z 0.000000 0.000000 1.598130 
# 
# From -- ./inp_files/2638.got.cif
#   From: 2010.05.17/outbox.cif.g08.bks.cpg/sg60_2_cif.got.tgz:2638.got - 2010.06.03 14:59:27.
