data_PCOD9453409
_publ_section_title
;
Structure prediction by ZEFSAII (Michael W. Deem and Ramdas Pophale) SiO2 
 PCOD9453409
Probable space group: P M M N
;
_chemical_formula_sum "Si O2"
_cell_formula_units_Z 64
_cell_length_a 9.000000
_cell_length_b 30.000000
_cell_length_c 12.000000
_cell_angle_alpha 90.000000
_cell_angle_beta 90.000000
_cell_angle_gamma 90.000000
_cell_volume 3240.000000
_symmetry_space_group_name_H-M "P M M N"
_symmetry_group_IT_number 59
_space_group.IT_coordinate_system_code '2'
_symmetry_cell_setting 'orthorhombic'
loop_
_space_group_symop_operation_xyz
x,y,z
1/2-x,1/2-y,z
1/2+x,-y,-z
-x,1/2+y,-z
-x,-y,-z
1/2+x,1/2+y,-z
1/2-x,y,z
x,1/2-y,z
loop_
_atom_site_type_symbol
_atom_site_label
_atom_site_fract_x
_atom_site_fract_y
_atom_site_fract_z
Si Si1 0.916810 0.121988 0.904345
Si Si2 0.424311 0.114369 0.675413
Si Si3 0.929615 0.480843 0.642540
Si Si4 0.417138 0.654324 0.517489
Si Si5 0.076629 0.119810 0.137144
Si Si6 0.087170 0.984296 0.105598
Si Si7 0.917786 0.701127 0.696488
Si Si8 0.078340 0.934345 0.670875
O O1 0.750000 0.141162 0.901376
O O2 0.901648 0.068597 0.902126
O O3 0.008938 0.131024 0.792522
O O4 0.000184 0.129799 0.019820
O O5 0.250000 0.105879 0.685377
O O6 0.505403 0.068660 0.634831
O O7 0.465847 0.149402 0.580779
O O8 0.750000 0.479897 0.629020
O O9 0.973212 0.491926 0.771901
O O10 0.000951 0.526550 0.596969
O O11 0.250000 0.658205 0.473735
O O12 0.463985 0.693268 0.600161
O O13 0.424313 0.609790 0.593717
O O14 0.250000 0.108785 0.121979
O O15 0.065060 0.164150 0.210251
O O16 0.997829 0.082261 0.213724
O O17 0.250000 0.004685 0.101418
O O18 0.000000 0.000000 0.000000
O O19 0.750000 0.695716 0.650135
O O20 0.930763 0.750000 0.745239
O O21 0.250000 0.946685 0.690838
#
# Coordination Sequence:
#
# PCOD9453409 Si02
#       8
#     8   8   8   8   8   8   8   8
#     4  10  20  34  50  71 103 140 176 216 261 309
#     4  11  22  36  54  75 102 141 187 228 269 318
#     4  10  20  33  47  67  99 138 181 228 273 314
#     4  10  21  37  56  79 108 140 177 222 268 317
#     4  10  19  32  53  81 110 140 174 213 262 318
#     4   9  18  28  40  60  88 126 169 213 257 298
#     4   9  19  37  61  88 115 140 168 207 257 314
#     4  10  20  33  50  74 104 140 181 225 274 321
#
# _framework density 19.753086
#
# number of rings (size 3 to 8) (size 9 to 14) (size 15 to 20)
#    0.000    2.125    0.000    4.500    0.000    7.750 
#    0.000    0.000    0.000    0.750    0.000    1.750 
#    0.000    0.000    0.000    0.000    0.000    0.000 
#
# Total GULP energy -356646.403508 kJ/mol
# GULP energy per Si atom -5572.600055 kJ/mol
# Density = 1.970813 g / cm^3
# Si number density = 19.753086 Si / 1000 Ang^3
#
#
#
# Elastic Constant Matrix: (Units=GPa)
#
#
# Indices 1 2 3 4 5 6 
#
# 1 101.4524 18.5838 33.6873 0.0000 0.0000 0.0000
# 2 18.5838 58.3046 4.1281 0.0000 0.0000 0.0000
# 3 33.6873 4.1281 52.6238 0.0000 0.0000 0.0000
# 4 0.0000 0.0000 0.0000 2.6373 0.0000 0.0000
# 5 0.0000 0.0000 0.0000 0.0000 27.9653 0.0000
# 6 0.0000 0.0000 0.0000 0.0000 0.0000 15.7497
#
#
#
# Elastic Compliance Matrix: (Units=1/GPa)
#
#
# Indices 1 2 3 4 5 6 
#
# 1 0.013244 -0.003641 -0.008193 0.000000 0.000000 0.000000
# 2 -0.003641 0.018248 0.000900 0.000000 0.000000 0.000000
# 3 -0.008193 0.000900 0.024177 0.000000 0.000000 0.000000
# 4 0.000000 0.000000 0.000000 0.379181 0.000000 0.000000
# 5 0.000000 0.000000 0.000000 0.000000 0.035759 0.000000
# 6 0.000000 0.000000 0.000000 0.000000 0.000000 0.063493
#
#
# Mechanical properties :
#
#
# Convention : Reuss Voigt Hill
#
# Bulk Modulus (GPa) = 29.58558 36.13104 32.85831
# Shear Modulus (GPa) = 8.81465 19.66923 14.24194
#
# Velocity S-wave (km/s) = 2.11473 3.15898 2.68805
# Velocity P-wave (km/s) = 4.57963 5.62464 5.12882
#
# Compressibility (1/GPa) = 0.03380026
#
# Stress axis : x y z
#
# Youngs Moduli (GPa) = 75.50447 54.79977 41.36192
#
# Poissons Ratio (x) = 0.19955 0.33887
# Poissons Ratio (y) = 0.27494 -0.03721
# Poissons Ratio (z) = 0.61859 -0.04929
#
# Static dielectric constant tensor:
#      x y z
#    x 1.592500 0.000000 0.000000 
#    y 0.000000 1.887050 0.000000 
#    z 0.000000 0.000000 1.757850 
# 
# From -- ./inp_files/14875.got.cif
#   From: 2010.05.17/outbox.ucp.g08.bks.cvg/sg59_8_cif.got.tgz:14875.got - 2010.06.11 16:43:56.
