data_PCOD9453463
_publ_section_title
;
Structure prediction by ZEFSAII (Michael W. Deem and Ramdas Pophale) SiO2 
 PCOD9453463
Probable space group: P M M N
;
_chemical_formula_sum "Si O2"
_cell_formula_units_Z 64
_cell_length_a 9.000000
_cell_length_b 18.000000
_cell_length_c 21.000000
_cell_angle_alpha 90.000000
_cell_angle_beta 90.000000
_cell_angle_gamma 90.000000
_cell_volume 3402.000000
_symmetry_space_group_name_H-M "P M M N"
_symmetry_group_IT_number 59
_space_group.IT_coordinate_system_code '2'
_symmetry_cell_setting 'orthorhombic'
loop_
_space_group_symop_operation_xyz
x,y,z
1/2-x,1/2-y,z
1/2+x,-y,-z
-x,1/2+y,-z
-x,-y,-z
1/2+x,1/2+y,-z
1/2-x,y,z
x,1/2-y,z
loop_
_atom_site_type_symbol
_atom_site_label
_atom_site_fract_x
_atom_site_fract_y
_atom_site_fract_z
Si Si1 0.924283 0.924344 0.298793
Si Si2 0.422063 0.897773 0.686921
Si Si3 0.582307 0.613724 0.814058
Si Si4 0.075244 0.069035 0.963577
Si Si5 0.918225 0.435024 0.829619
Si Si6 0.422766 0.339784 0.437845
Si Si7 0.585189 0.162631 0.061532
Si Si8 0.431161 0.164229 0.578173
O O1 0.750000 0.906304 0.290445
O O2 0.981012 0.883502 0.361894
O O3 0.010124 0.903651 0.234645
O O4 0.934365 0.012826 0.309420
O O5 0.250000 0.877804 0.695980
O O6 0.519398 0.866301 0.744921
O O7 0.481274 0.870499 0.619531
O O8 0.750000 0.641571 0.823101
O O9 0.585690 0.524229 0.819659
O O10 0.475110 0.639747 0.869777
O O11 0.250000 0.058897 0.961614
O O12 0.011663 0.078189 0.893017
O O13 0.027779 0.136853 0.007784
O O14 0.000000 0.000000 0.000000
O O15 0.750000 0.408776 0.838584
O O16 0.250000 0.362038 0.429577
O O17 0.426475 0.250000 0.437615
O O18 0.476682 0.363435 0.508159
O O19 0.750000 0.129927 0.050480
O O20 0.596129 0.250000 0.059990
O O21 0.250000 0.162931 0.577042
O O22 0.476122 0.250000 0.585614
#
# Coordination Sequence:
#
# PCOD9453463 Si02
#       8
#     8   8   8   8   8   8   8   8
#     4   9  18  33  53  79 108 138 175 223 274 325
#     4  10  20  32  49  76 110 141 173 219 273 326
#     4  10  20  35  56  78 104 142 184 224 267 324
#     4  12  23  37  61  87 112 147 188 230 274 328
#     4  10  20  35  56  83 110 140 181 226 270 322
#     4   9  18  33  52  73  99 136 182 225 265 320
#     4  11  24  40  58  83 116 149 183 229 281 330
#     4   8  15  31  55  78 101 135 180 225 269 322
#
# _framework density 18.812463000000001
#
# number of rings (size 3 to 8) (size 9 to 14) (size 15 to 20)
#    0.000    2.125    1.250    3.375    0.000    3.750 
#    0.000    1.250    0.000    3.375    0.000    0.000 
#    0.000    0.000    0.000    0.000    0.000    0.000 
#
# Total GULP energy -357048.879672 kJ/mol
# GULP energy per Si atom -5578.888745 kJ/mol
# Density = 1.876965 g / cm^3
# Si number density = 18.812463 Si / 1000 Ang^3
#
#
#
# Elastic Constant Matrix: (Units=GPa)
#
#
# Indices 1 2 3 4 5 6 
#
# 1 90.8623 15.4794 58.0509 0.0000 0.0000 0.0000
# 2 15.4794 4.4929 18.8925 0.0000 0.0000 0.0000
# 3 58.0509 18.8925 156.8438 0.0000 0.0000 0.0000
# 4 0.0000 0.0000 0.0000-1783.8437 0.0000 0.0000
# 5 0.0000 0.0000 0.0000 0.0000 27.2683 0.0000
# 6 0.0000 0.0000 0.0000 0.0000 0.0000 13.7310
#
#
#
# Elastic Compliance Matrix: (Units=1/GPa)
#
#
# Indices 1 2 3 4 5 6 
#
# 1 0.027107 -0.103757 0.002465 0.000000 0.000000 0.000000
# 2 -0.103757 0.848166 -0.063763 0.000000 0.000000 0.000000
# 3 0.002465 -0.063763 0.013144 0.000000 0.000000 0.000000
# 4 0.000000 0.000000 0.000000 -0.000561 0.000000 0.000000
# 5 0.000000 0.000000 0.000000 0.000000 0.036673 0.000000
# 6 0.000000 0.000000 0.000000 0.000000 0.000000 0.072828
#
#
# Mechanical properties :
#
#
# Convention : Reuss Voigt Hill
#
# Bulk Modulus (GPa) = 1.79113 48.56051 25.17582
# Shear Modulus (GPa) = 3.30345 -337.91712 -167.30684
#
# Velocity S-wave (km/s) = 1.32658 -13.41693 -9.44072
# Velocity P-wave (km/s) = 1.81675 14.63385 10.26765
#
# Compressibility (1/GPa) = 0.55830748
#
# Stress axis : x y z
#
# Youngs Moduli (GPa) = 36.89117 1.17901 76.08119
#
# Poissons Ratio (x) = 0.12233 -0.18756
# Poissons Ratio (y) = 3.82771 4.85116
# Poissons Ratio (z) = -0.09095 0.07518
#
# Static dielectric constant tensor:
#      x y z
#    x 1.679130 0.000000 0.000000 
#    y 0.000000 1.647910 0.000000 
#    z 0.000000 0.000000 1.632370 
# 
# From -- ./inp_files/29446.got.cif
#   From: 2010.05.17/outbox.ucp.g08.bks.cvg/sg59_15_cif.got.tgz:29446.got - 2010.06.11 16:43:56.
