data_PCOD9453293
_publ_section_title
;
Structure prediction by ZEFSAII (Michael W. Deem and Ramdas Pophale) SiO2 
 PCOD9453293
Probable space group: P M M N
;
_chemical_formula_sum "Si O2"
_cell_formula_units_Z 64
_cell_length_a 7.764292
_cell_length_b 19.839613
_cell_length_c 22.341349
_cell_angle_alpha 90.000000
_cell_angle_beta 90.000000
_cell_angle_gamma 90.000000
_cell_volume 3441.473654
_symmetry_space_group_name_H-M "P M M N"
_symmetry_group_IT_number 59
_space_group.IT_coordinate_system_code '2'
_symmetry_cell_setting 'orthorhombic'
loop_
_space_group_symop_operation_xyz
x,y,z
1/2-x,1/2-y,z
1/2+x,-y,-z
-x,1/2+y,-z
-x,-y,-z
1/2+x,1/2+y,-z
1/2-x,y,z
x,1/2-y,z
loop_
_atom_site_type_symbol
_atom_site_label
_atom_site_fract_x
_atom_site_fract_y
_atom_site_fract_z
Si Si1 0.450989 0.677907 0.098371
Si Si2 0.956173 0.907371 0.347588
Si Si3 0.042473 0.943522 0.687874
Si Si4 0.043506 0.531219 0.063553
Si Si5 0.042638 0.826447 0.463993
Si Si6 0.039462 0.827061 0.599611
Si Si7 0.455420 0.493895 0.191019
Si Si8 0.053627 0.141713 0.772648
O O1 0.250000 0.678802 0.081473
O O2 0.528391 0.750000 0.079849
O O3 0.525501 0.607606 0.073436
O O4 0.460436 0.673416 0.170623
O O5 0.750000 0.909422 0.339057
O O6 0.021222 0.857673 0.294455
O O7 0.990657 0.877779 0.412529
O O8 0.020836 0.983729 0.337077
O O9 0.250000 0.944080 0.683969
O O10 0.979263 0.882014 0.647329
O O11 0.995348 0.939617 0.758038
O O12 0.250000 0.535878 0.066339
O O13 0.992040 0.486640 0.121630
O O14 0.000000 0.500000 0.000000
O O15 0.250000 0.824858 0.465097
O O16 0.982267 0.750000 0.450667
O O17 0.985793 0.843926 0.531495
O O18 0.250000 0.827585 0.600236
O O19 0.986753 0.750000 0.612432
O O20 0.250000 0.506384 0.192566
O O21 0.548867 0.561798 0.212892
O O22 0.250000 0.166527 0.772983
#
# Coordination Sequence:
#
# PCOD9453293 Si02
#       8
#     8   8   8   8   8   8   8   8
#     4   9  18  32  48  68  96 127 159 196 234 271
#     4   9  18  29  41  63  94 121 146 184 232 275
#     4   9  17  30  49  71  92 116 149 191 235 277
#     4   9  18  31  49  72  96 125 157 188 224 267
#     4   9  18  31  45  61  83 116 157 194 228 275
#     4   8  15  30  50  68  87 114 151 195 239 281
#     4   9  17  30  47  69  95 119 146 182 226 272
#     4   9  17  29  44  64  91 121 153 188 226 270
#
# _framework density 18.596685000000001
#
# number of rings (size 3 to 8) (size 9 to 14) (size 15 to 20)
#    0.000    3.125    0.000    3.000    0.000    6.500 
#    0.000    3.125    0.000    1.875    0.000    5.250 
#    0.000    0.000    0.000    0.000    0.000    0.000 
#
# Total GULP energy -356299.503951 kJ/mol
# GULP energy per Si atom -5567.179749 kJ/mol
# Density = 1.855436 g / cm^3
# Si number density = 18.596685 Si / 1000 Ang^3
#
#
#
# Elastic Constant Matrix: (Units=GPa)
#
#
# Indices 1 2 3 4 5 6 
#
# 1 27.8304 4.0112 1.0690 0.0000 0.0000 0.0000
# 2 4.0112 92.9519 86.5535 0.0000 0.0000 0.0000
# 3 1.0690 86.5535 161.1314 0.0000 0.0000 0.0000
# 4 0.0000 0.0000 0.0000 9.2591 0.0000 0.0000
# 5 0.0000 0.0000 0.0000 0.0000 23.4626 0.0000
# 6 0.0000 0.0000 0.0000 0.0000 0.0000 10.6404
#
#
#
# Elastic Compliance Matrix: (Units=1/GPa)
#
#
# Indices 1 2 3 4 5 6 
#
# 1 0.036273 -0.002683 0.001201 0.000000 0.000000 0.000000
# 2 -0.002683 0.021723 -0.011651 0.000000 0.000000 0.000000
# 3 0.001201 -0.011651 0.012457 0.000000 0.000000 0.000000
# 4 0.000000 0.000000 0.000000 0.108002 0.000000 0.000000
# 5 0.000000 0.000000 0.000000 0.000000 0.042621 0.000000
# 6 0.000000 0.000000 0.000000 0.000000 0.000000 0.093981
#
#
# Mechanical properties :
#
#
# Convention : Reuss Voigt Hill
#
# Bulk Modulus (GPa) = 22.63210 51.68680 37.15945
# Shear Modulus (GPa) = 14.04289 21.35775 17.70032
#
# Velocity S-wave (km/s) = 2.75094 3.39259 3.08847
# Velocity P-wave (km/s) = 4.72087 6.57268 5.72218
#
# Compressibility (1/GPa) = 0.04418502
#
# Stress axis : x y z
#
# Youngs Moduli (GPa) = 27.56901 46.03419 80.27889
#
# Poissons Ratio (x) = 0.12353 -0.09640
# Poissons Ratio (y) = 0.07398 0.93532
# Poissons Ratio (z) = -0.03310 0.53634
#
# Static dielectric constant tensor:
#      x y z
#    x 1.693610 0.000000 0.000000 
#    y 0.000000 1.659830 0.000000 
#    z 0.000000 0.000000 1.663200 
# 
# From -- ./inp_files/29731.got.cif
#   From: 2010.05.17/outbox.cif.g08.bks.cpg/sg59_15_cif.got.tgz:29731.got - 2010.06.03 14:40:33.
