data_PCOD9453757
_publ_section_title
;
Structure prediction by ZEFSAII (Michael W. Deem and Ramdas Pophale) SiO2 
 PCOD9453757
Probable space group: P B C N
;
_chemical_formula_sum "Si O2"
_cell_formula_units_Z 40
_cell_length_a 24.851011
_cell_length_b 12.586430
_cell_length_c 5.364711
_cell_angle_alpha 90.000000
_cell_angle_beta 90.000000
_cell_angle_gamma 90.000000
_cell_volume 1678.003868
_symmetry_space_group_name_H-M "P B C N"
_symmetry_group_IT_number 60
_symmetry_cell_setting 'orthorhombic'
loop_
_space_group_symop_operation_xyz
x,y,z
1/2-x,1/2-y,1/2+z
1/2+x,1/2-y,-z
-x,y,1/2-z
-x,-y,-z
1/2+x,1/2+y,1/2-z
1/2-x,1/2+y,z
x,-y,1/2+z
loop_
_atom_site_type_symbol
_atom_site_label
_atom_site_fract_x
_atom_site_fract_y
_atom_site_fract_z
Si Si1 0.352767 0.937051 0.980275
Si Si2 0.717612 0.744753 0.319271
Si Si3 0.110983 0.125378 0.263523
Si Si4 0.936405 0.886884 0.236560
Si Si5 0.976871 0.620814 0.999434
O O1 0.314664 0.842595 0.063180
O O2 0.344540 0.025328 0.196486
O O3 0.413816 0.897865 0.001174
O O4 0.757982 0.721424 0.550336
O O5 0.673732 0.651758 0.269255
O O6 0.088135 0.170348 0.522509
O O7 0.094760 0.000823 0.273795
O O8 0.079473 0.167382 0.021754
O O9 0.000000 0.908942 0.250000
O O10 0.000000 0.673159 0.250000
O O11 0.000000 0.671527 0.750000
O O12 0.000000 0.500000 0.000000
#
# Coordination Sequence:
#
# PCOD9453757 Si02
#       5
#     8   8   8   8   8
#     4  12  23  43  70  97 126 179 229 268 333 407
#     4  12  28  50  63  92 142 172 233 301 328 375
#     4  10  20  39  64  95 130 177 207 270 341 384
#     4  10  19  38  72 102 138 163 212 268 331 445
#     4  10  16  32  61  90 131 154 202 261 309 383
#
# _framework density 23.837847
#
# number of rings (size 3 to 8) (size 9 to 14) (size 15 to 20)
#    0.000    1.200    4.000    5.400    0.000    0.000 
#   21.600    4.000    0.000    0.000    0.000    0.000 
#    0.000    0.000    0.000    0.000    0.000    0.000 
#
# Total GULP energy -223755.790691 kJ/mol
# GULP energy per Si atom -5593.894767 kJ/mol
# Density = 2.378359 g / cm^3
# Si number density = 23.837847 Si / 1000 Ang^3
#
#
#
# Elastic Constant Matrix: (Units=GPa)
#
#
# Indices 1 2 3 4 5 6 
#
# 1 133.1955 30.9620 45.7203 0.0000 0.0000 0.0000
# 2 30.9620 75.0075 -2.8568 0.0000 0.0000 0.0000
# 3 45.7203 -2.8568 216.5744 0.0000 0.0000 0.0000
# 4 0.0000 0.0000 0.0000 22.8149 0.0000 0.0000
# 5 0.0000 0.0000 0.0000 0.0000 52.6313 0.0000
# 6 0.0000 0.0000 0.0000 0.0000 0.0000 42.9534
#
#
#
# Elastic Compliance Matrix: (Units=1/GPa)
#
#
# Indices 1 2 3 4 5 6 
#
# 1 0.009070 -0.003819 -0.001965 0.000000 0.000000 0.000000
# 2 -0.003819 0.014947 0.001003 0.000000 0.000000 0.000000
# 3 -0.001965 0.001003 0.005045 0.000000 0.000000 0.000000
# 4 0.000000 0.000000 0.000000 0.043831 0.000000 0.000000
# 5 0.000000 0.000000 0.000000 0.000000 0.019000 0.000000
# 6 0.000000 0.000000 0.000000 0.000000 0.000000 0.023281
#
#
# Mechanical properties :
#
#
# Convention : Reuss Voigt Hill
#
# Bulk Modulus (GPa) = 51.27989 63.60315 57.44152
# Shear Modulus (GPa) = 38.09942 47.07671 42.58807
#
# Velocity S-wave (km/s) = 4.00218 4.44878 4.23137
# Velocity P-wave (km/s) = 6.55097 7.28892 6.92977
#
# Compressibility (1/GPa) = 0.01950082
#
# Stress axis : x y z
#
# Youngs Moduli (GPa) = 110.25357 66.90507 198.19896
#
# Poissons Ratio (x) = 0.25550 0.38948
# Poissons Ratio (y) = 0.42104 -0.19886
# Poissons Ratio (z) = 0.21666 -0.06713
#
# Static dielectric constant tensor:
#      x y z
#    x 1.773030 0.000000 0.000000 
#    y 0.000000 2.032170 0.000000 
#    z 0.000000 0.000000 2.164550 
# 
# From -- ./inp_files/2305.got.cif
#   From: 2010.05.17/outbox.cif.g08.bks.cpg/sg60_2_cif.got.tgz:2305.got - 2010.06.03 14:59:27.
