data_PCOD9453710
_publ_section_title
;
Structure prediction by ZEFSAII (Michael W. Deem and Ramdas Pophale) SiO2 
 PCOD9453710
Probable space group: P B C N
;
_chemical_formula_sum "Si O2"
_cell_formula_units_Z 40
_cell_length_a 9.539331
_cell_length_b 27.768385
_cell_length_c 8.983723
_cell_angle_alpha 90.000000
_cell_angle_beta 90.000000
_cell_angle_gamma 90.000000
_cell_volume 2379.714699
_symmetry_space_group_name_H-M "P B C N"
_symmetry_group_IT_number 60
_symmetry_cell_setting 'orthorhombic'
loop_
_space_group_symop_operation_xyz
x,y,z
1/2-x,1/2-y,1/2+z
1/2+x,1/2-y,-z
-x,y,1/2-z
-x,-y,-z
1/2+x,1/2+y,1/2-z
1/2-x,1/2+y,z
x,-y,1/2+z
loop_
_atom_site_type_symbol
_atom_site_label
_atom_site_fract_x
_atom_site_fract_y
_atom_site_fract_z
Si Si1 0.673068 0.935204 0.255248
Si Si2 0.500000 0.264689 0.250000
Si Si3 0.993473 0.683290 0.495865
Si Si4 0.354578 0.977036 0.936434
Si Si5 0.000000 0.398271 0.750000
Si Si6 0.776541 0.672164 0.751574
O O1 0.500000 0.928795 0.250000
O O2 0.711972 0.952779 0.420053
O O3 0.741824 0.884447 0.221302
O O4 0.714015 0.977347 0.142257
O O5 0.512814 0.229223 0.108910
O O6 0.363797 0.297769 0.234468
O O7 0.129652 0.674817 0.598584
O O8 0.965130 0.637131 0.388280
O O9 0.868317 0.690824 0.612601
O O10 0.385568 0.935624 0.814852
O O11 0.500000 0.000000 0.000000
#
# Coordination Sequence:
#
# PCOD9453710 Si02
#       6
#     8   4   8   8   4   8
#     4  10  17  28  49  76 106 136 164 217 259 304
#     4  11  24  36  54  78 104 142 176 217 260 310
#     4  10  21  35  56  78 103 136 175 220 261 307
#     4  10  16  24  44  80 109 127 165 215 265 296
#     4  11  16  28  50  84 108 126 172 223 266 302
#     4  11  20  37  55  76 108 137 176 214 263 308
#
# _framework density 16.808736
#
# number of rings (size 3 to 8) (size 9 to 14) (size 15 to 20)
#    0.000    1.600    7.000    2.400    0.000    0.000 
#    0.000    0.000    0.000    1.200    0.000    0.000 
#    0.000    0.000    0.000    0.000    0.000    0.000 
#
# Total GULP energy -222906.487659 kJ/mol
# GULP energy per Si atom -5572.662191 kJ/mol
# Density = 1.677048 g / cm^3
# Si number density = 16.808736 Si / 1000 Ang^3
#
#
#
# Elastic Constant Matrix: (Units=GPa)
#
#
# Indices 1 2 3 4 5 6 
#
# 1 44.2043 37.6091 27.2753 0.0000 0.0000 0.0000
# 2 37.6091 128.1669 49.4131 0.0000 0.0000 0.0000
# 3 27.2753 49.4131 111.6407 0.0000 0.0000 0.0000
# 4 0.0000 0.0000 0.0000 29.5768 0.0000 0.0000
# 5 0.0000 0.0000 0.0000 0.0000 3.9328 0.0000
# 6 0.0000 0.0000 0.0000 0.0000 0.0000 -1.1495
#
#
#
# Elastic Compliance Matrix: (Units=1/GPa)
#
#
# Indices 1 2 3 4 5 6 
#
# 1 0.031841 -0.007650 -0.004393 0.000000 0.000000 0.000000
# 2 -0.007650 0.011245 -0.003108 0.000000 0.000000 0.000000
# 3 -0.004393 -0.003108 0.011406 0.000000 0.000000 0.000000
# 4 0.000000 0.000000 0.000000 0.033810 0.000000 0.000000
# 5 0.000000 0.000000 0.000000 0.000000 0.254270 0.000000
# 6 0.000000 0.000000 0.000000 0.000000 0.000000 -0.869956
#
#
# Mechanical properties :
#
#
# Convention : Reuss Voigt Hill
#
# Bulk Modulus (GPa) = 41.33889 56.95632 49.14761
# Shear Modulus (GPa) = -10.22460 17.78634 3.78087
#
# Velocity S-wave (km/s) = -2.46903 3.25647 1.50141
# Velocity P-wave (km/s) = 4.06435 6.93527 5.68405
#
# Compressibility (1/GPa) = 0.02419029
#
# Stress axis : x y z
#
# Youngs Moduli (GPa) = 31.40563 88.92501 87.66931
#
# Poissons Ratio (x) = 0.68024 0.38517
# Poissons Ratio (y) = 0.24024 0.27251
# Poissons Ratio (z) = 0.13798 0.27642
#
# Static dielectric constant tensor:
#      x y z
#    x 1.547470 0.000000 0.000000 
#    y 0.000000 1.579200 0.000000 
#    z 0.000000 0.000000 1.596390 
# 
# From -- ./inp_files/4037.got.cif
#   From: 2010.05.17/outbox.cif.g08.bks.cpg/sg60_3_cif.got.tgz:4037.got - 2010.06.03 14:59:27.
