data_PCOD9453005
_publ_section_title
;
Structure prediction by ZEFSAII (Michael W. Deem and Ramdas Pophale) SiO2 
 PCOD9453005
Probable space group: P M M N
;
_chemical_formula_sum "Si O2"
_cell_formula_units_Z 64
_cell_length_a 7.736483
_cell_length_b 24.935702
_cell_length_c 17.371539
_cell_angle_alpha 90.000000
_cell_angle_beta 90.000000
_cell_angle_gamma 90.000000
_cell_volume 3351.224099
_symmetry_space_group_name_H-M "P M M N"
_symmetry_group_IT_number 59
_space_group.IT_coordinate_system_code '2'
_symmetry_cell_setting 'orthorhombic'
loop_
_space_group_symop_operation_xyz
x,y,z
1/2-x,1/2-y,z
1/2+x,-y,-z
-x,1/2+y,-z
-x,-y,-z
1/2+x,1/2+y,-z
1/2-x,y,z
x,1/2-y,z
loop_
_atom_site_type_symbol
_atom_site_label
_atom_site_fract_x
_atom_site_fract_y
_atom_site_fract_z
Si Si1 0.457566 0.024946 0.816387
Si Si2 0.545662 0.911923 0.860710
Si Si3 0.042556 0.688937 0.427494
Si Si4 0.948422 0.315142 0.405706
Si Si5 0.958065 0.626560 0.275185
Si Si6 0.460656 0.309984 0.875210
Si Si7 0.457282 0.689436 0.761752
Si Si8 0.461032 0.413590 0.967347
O O1 0.250000 0.028676 0.817524
O O2 0.518822 0.067664 0.752404
O O3 0.520822 0.046103 0.900166
O O4 0.502762 0.963025 0.808153
O O5 0.750000 0.909588 0.868665
O O6 0.491003 0.855656 0.824538
O O7 0.472961 0.922236 0.946573
O O8 0.250000 0.692539 0.435725
O O9 0.980046 0.750000 0.410674
O O10 0.973441 0.670596 0.511291
O O11 0.007313 0.648904 0.357976
O O12 0.750000 0.335271 0.405191
O O13 0.942565 0.250000 0.406515
O O14 0.027263 0.328326 0.322552
O O15 0.750000 0.625797 0.272837
O O16 0.015934 0.667596 0.208073
O O17 0.250000 0.308909 0.874533
O O18 0.522621 0.250000 0.889436
O O19 0.509586 0.354225 0.937994
O O20 0.250000 0.693277 0.753176
O O21 0.519974 0.750000 0.779828
O O22 0.250000 0.416556 0.967742
#
# Coordination Sequence:
#
# PCOD9453005 Si02
#       8
#     8   8   8   8   8   8   8   8
#     4   9  18  34  51  65  88 125 165 195 223 271
#     4  11  21  31  48  74  97 116 147 196 246 280
#     4   9  16  26  44  71  99 124 150 183 226 274
#     4   7  12  26  47  68  90 120 156 185 213 264
#     4   9  17  28  44  67  92 120 157 196 225 257
#     4   8  13  23  40  61  88 122 154 181 215 265
#     4   9  18  34  54  72  93 124 157 185 220 274
#     4   8  16  29  44  65  91 121 157 194 230 268
#
# _framework density 19.097498999999999
#
# number of rings (size 3 to 8) (size 9 to 14) (size 15 to 20)
#    0.000    3.250    0.000    4.125    0.000    2.000 
#    0.000    2.500    0.000    4.500    0.000    7.000 
#    0.000    0.000    0.000    0.000    0.000    0.000 
#
# Total GULP energy -356448.613876 kJ/mol
# GULP energy per Si atom -5569.509592 kJ/mol
# Density = 1.905403 g / cm^3
# Si number density = 19.097499 Si / 1000 Ang^3
#
#
#
# Elastic Constant Matrix: (Units=GPa)
#
#
# Indices 1 2 3 4 5 6 
#
# 1 29.0239 3.6039 5.5543 0.0000 0.0000 0.0000
# 2 3.6039 102.5843 28.4524 0.0000 0.0000 0.0000
# 3 5.5543 28.4524 69.1511 0.0000 0.0000 0.0000
# 4 0.0000 0.0000 0.0000 14.7759 0.0000 0.0000
# 5 0.0000 0.0000 0.0000 0.0000 14.5648 0.0000
# 6 0.0000 0.0000 0.0000 0.0000 0.0000 13.4990
#
#
#
# Elastic Compliance Matrix: (Units=1/GPa)
#
#
# Indices 1 2 3 4 5 6 
#
# 1 0.035016 -0.000508 -0.002603 0.000000 0.000000 0.000000
# 2 -0.000508 0.011011 -0.004490 0.000000 0.000000 0.000000
# 3 -0.002603 -0.004490 0.016518 0.000000 0.000000 0.000000
# 4 0.000000 0.000000 0.000000 0.067678 0.000000 0.000000
# 5 0.000000 0.000000 0.000000 0.000000 0.068658 0.000000
# 6 0.000000 0.000000 0.000000 0.000000 0.000000 0.074080
#
#
# Mechanical properties :
#
#
# Convention : Reuss Voigt Hill
#
# Bulk Modulus (GPa) = 21.12297 30.66449 25.89373
# Shear Modulus (GPa) = 16.45043 19.44454 17.94749
#
# Velocity S-wave (km/s) = 2.93813 3.19434 3.06891
# Velocity P-wave (km/s) = 4.75340 5.44947 5.11329
#
# Compressibility (1/GPa) = 0.04734184
#
# Stress axis : x y z
#
# Youngs Moduli (GPa) = 28.55866 90.81668 60.54180
#
# Poissons Ratio (x) = 0.04614 0.15762
# Poissons Ratio (y) = 0.01451 0.27182
# Poissons Ratio (z) = 0.07435 0.40775
#
# Static dielectric constant tensor:
#      x y z
#    x 1.711230 0.000000 0.000000 
#    y 0.000000 1.668780 0.000000 
#    z 0.000000 0.000000 1.704810 
# 
# From -- ./inp_files/26472.got.cif
#   From: 2010.05.17/outbox.cif.g08.bks.cpg/sg59_14_cif.got.tgz:26472.got - 2010.06.03 14:40:33.
