data_PCOD9453700
_publ_section_title
;
Structure prediction by ZEFSAII (Michael W. Deem and Ramdas Pophale) SiO2 
 PCOD9453700
Probable space group: P B C N
;
_chemical_formula_sum "Si O2"
_cell_formula_units_Z 36
_cell_length_a 19.373258
_cell_length_b 13.009219
_cell_length_c 5.447103
_cell_angle_alpha 90.000000
_cell_angle_beta 90.000000
_cell_angle_gamma 90.000000
_cell_volume 1372.838577
_symmetry_space_group_name_H-M "P B C N"
_symmetry_group_IT_number 60
_symmetry_cell_setting 'orthorhombic'
loop_
_space_group_symop_operation_xyz
x,y,z
1/2-x,1/2-y,1/2+z
1/2+x,1/2-y,-z
-x,y,1/2-z
-x,-y,-z
1/2+x,1/2+y,1/2-z
1/2-x,1/2+y,z
x,-y,1/2+z
loop_
_atom_site_type_symbol
_atom_site_label
_atom_site_fract_x
_atom_site_fract_y
_atom_site_fract_z
Si Si1 0.000000 0.069414 0.250000
Si Si2 0.407668 0.234503 0.819281
Si Si3 0.931385 0.385834 0.680604
Si Si4 0.282448 0.109812 0.317740
Si Si5 0.248038 0.833582 0.318006
O O1 0.935391 0.150027 0.226211
O O2 0.000000 0.000000 0.500000
O O3 0.433344 0.168055 0.584809
O O4 0.325702 0.212689 0.818701
O O5 0.430733 0.193601 0.087812
O O6 0.857133 0.443333 0.688615
O O7 0.000000 0.449096 0.750000
O O8 0.299239 0.233829 0.321113
O O9 0.242223 0.102390 0.571628
O O10 0.242084 0.102667 0.064515
#
# Coordination Sequence:
#
# PCOD9453700 Si02
#       5
#     4   8   8   8   8
#     4  12  22  30  38  50  66  86 122 158 186 204
#     4  10  18  28  38  47  63  90 114 144 178 204
#     4  10  15  24  38  52  70  88 112 131 167 207
#     4   8  14  21  34  52  66  82 103 136 156 193
#     4   8  14  24  35  48  64  81 108 134 166 196
#
# _framework density 26.223037999999999
#
# number of rings (size 3 to 8) (size 9 to 14) (size 15 to 20)
#    0.000    2.667    2.222    1.333    0.000    0.000 
#    0.000    0.000    0.000    0.000    0.000    0.000 
#    0.000    0.000    0.000    0.000    0.000    2.222 
#
# Total GULP energy -200903.946067 kJ/mol
# GULP energy per Si atom -5580.665169 kJ/mol
# Density = 2.616335 g / cm^3
# Si number density = 26.223038 Si / 1000 Ang^3
#
#
#
# Elastic Constant Matrix: (Units=GPa)
#
#
# Indices 1 2 3 4 5 6 
#
# 1 60.8741 5.1734 5.4116 0.0000 0.0000 0.0000
# 2 5.1734 143.5507 57.1978 0.0000 0.0000 0.0000
# 3 5.4116 57.1978 300.0699 0.0000 0.0000 0.0000
# 4 0.0000 0.0000 0.0000 8.2868 0.0000 0.0000
# 5 0.0000 0.0000 0.0000 0.0000 30.5161 0.0000
# 6 0.0000 0.0000 0.0000 0.0000 0.0000 -49.4126
#
#
#
# Elastic Compliance Matrix: (Units=1/GPa)
#
#
# Indices 1 2 3 4 5 6 
#
# 1 0.016489 -0.000515 -0.000199 0.000000 0.000000 0.000000
# 2 -0.000515 0.007555 -0.001431 0.000000 0.000000 0.000000
# 3 -0.000199 -0.001431 0.003609 0.000000 0.000000 0.000000
# 4 0.000000 0.000000 0.000000 0.120673 0.000000 0.000000
# 5 0.000000 0.000000 0.000000 0.000000 0.032770 0.000000
# 6 0.000000 0.000000 0.000000 0.000000 0.000000 -0.020238
#
#
# Mechanical properties :
#
#
# Convention : Reuss Voigt Hill
#
# Bulk Modulus (GPa) = 42.80310 71.11780 56.96045
# Shear Modulus (GPa) = 28.91262 26.99220 27.95241
#
# Velocity S-wave (km/s) = 3.32409 3.21180 3.26843
# Velocity P-wave (km/s) = 5.57592 6.39792 6.00102
#
# Compressibility (1/GPa) = 0.02336280
#
# Stress axis : x y z
#
# Youngs Moduli (GPa) = 60.64721 132.36572 277.09453
#
# Poissons Ratio (x) = 0.06815 0.05521
# Poissons Ratio (y) = 0.03122 0.39646
# Poissons Ratio (z) = 0.01208 0.18939
#
# Static dielectric constant tensor:
#      x y z
#    x 2.129140 0.000000 0.000000 
#    y 0.000000 2.104190 0.000000 
#    z 0.000000 0.000000 2.154050 
# 
# From -- ./inp_files/921.got.cif
#   From: 2010.05.17/outbox.cif.g08.bks.cpg/sg60_1_cif.got.tgz:921.got - 2010.06.03 14:59:27.
