data_PCOD9453788
_publ_section_title
;
Structure prediction by ZEFSAII (Michael W. Deem and Ramdas Pophale) SiO2 
 PCOD9453788
Probable space group: P B C N
;
_chemical_formula_sum "Si O2"
_cell_formula_units_Z 52
_cell_length_a 29.663401
_cell_length_b 7.793599
_cell_length_c 8.794678
_cell_angle_alpha 90.000000
_cell_angle_beta 90.000000
_cell_angle_gamma 90.000000
_cell_volume 2033.194576
_symmetry_space_group_name_H-M "P B C N"
_symmetry_group_IT_number 60
_symmetry_cell_setting 'orthorhombic'
loop_
_space_group_symop_operation_xyz
x,y,z
1/2-x,1/2-y,1/2+z
1/2+x,1/2-y,-z
-x,y,1/2-z
-x,-y,-z
1/2+x,1/2+y,1/2-z
1/2-x,1/2+y,z
x,-y,1/2+z
loop_
_atom_site_type_symbol
_atom_site_label
_atom_site_fract_x
_atom_site_fract_y
_atom_site_fract_z
Si Si1 0.500000 0.271740 0.750000
Si Si2 0.195255 0.594362 0.028542
Si Si3 0.924550 0.405627 0.459797
Si Si4 0.627952 0.711133 0.735238
Si Si5 0.200424 0.186740 0.012659
Si Si6 0.854901 0.233450 0.237203
Si Si7 0.928356 0.183961 0.013527
O O1 0.532012 0.161541 0.864541
O O2 0.529268 0.369640 0.619414
O O3 0.160028 0.677606 0.147382
O O4 0.196390 0.390809 0.031283
O O5 0.247473 0.646805 0.031925
O O6 0.177858 0.655364 0.865403
O O7 0.905231 0.313177 0.613469
O O8 0.886703 0.353948 0.337813
O O9 0.930810 0.607108 0.495938
O O10 0.669377 0.643717 0.629811
O O11 0.590048 0.625404 0.848835
O O12 0.173268 0.111518 0.154167
O O13 0.887513 0.137213 0.123469
#
# Coordination Sequence:
#
# PCOD9453788 Si02
#       7
#     4   8   8   8   8   8   8
#     4  10  20  26  38  64  94 126 166 206 240 284
#     4  11  20  32  49  71  96 130 172 210 243 287
#     4  10  17  28  42  61  90 127 166 202 239 294
#     4  10  19  31  48  64  90 132 170 199 243 302
#     4  11  20  32  49  71  96 130 172 210 243 287
#     4   9  18  31  45  62  90 128 167 199 242 299
#     4  10  17  28  42  61  90 127 166 202 239 294
#
# _framework density 25.575513999999998
#
# number of rings (size 3 to 8) (size 9 to 14) (size 15 to 20)
#    0.000    1.846    0.000    9.692    0.000    0.615 
#    0.000    0.000    0.000    0.000    0.000    0.000 
#    0.000    0.000    0.000  312.923    0.000  189.692 
#
# Total GULP energy -290074.844618 kJ/mol
# GULP energy per Si atom -5578.362397 kJ/mol
# Density = 2.551730 g / cm^3
# Si number density = 25.575514 Si / 1000 Ang^3
#
#
#
# Elastic Constant Matrix: (Units=GPa)
#
#
# Indices 1 2 3 4 5 6 
#
# 1 188.7278 23.3976 67.8697 0.0000 0.0000 0.0000
# 2 23.3976 36.5929 32.9589 0.0000 0.0000 0.0000
# 3 67.8697 32.9589 213.4276 0.0000 0.0000 0.0000
# 4 0.0000 0.0000 0.0000 33.5378 0.0000 0.0000
# 5 0.0000 0.0000 0.0000 0.0000 -188.7169 0.0000
# 6 0.0000 0.0000 0.0000 0.0000 0.0000 8.9097
#
#
#
# Elastic Compliance Matrix: (Units=1/GPa)
#
#
# Indices 1 2 3 4 5 6 
#
# 1 0.006179 -0.002533 -0.001574 0.000000 0.000000 0.000000
# 2 -0.002533 0.032782 -0.004257 0.000000 0.000000 0.000000
# 3 -0.001574 -0.004257 0.005843 0.000000 0.000000 0.000000
# 4 0.000000 0.000000 0.000000 0.029817 0.000000 0.000000
# 5 0.000000 0.000000 0.000000 0.000000 -0.005299 0.000000
# 6 0.000000 0.000000 0.000000 0.000000 0.000000 0.112237
#
#
# Mechanical properties :
#
#
# Convention : Reuss Voigt Hill
#
# Bulk Modulus (GPa) = 35.61753 76.35562 55.98657
# Shear Modulus (GPa) = 24.07967 -8.28574 7.89697
#
# Velocity S-wave (km/s) = 3.07174 -1.80187 1.75909
# Velocity P-wave (km/s) = 5.15145 5.05873 5.10530
#
# Compressibility (1/GPa) = 0.02807607
#
# Stress axis : x y z
#
# Youngs Moduli (GPa) = 161.84931 30.50495 171.13963
#
# Poissons Ratio (x) = 0.07728 0.26930
# Poissons Ratio (y) = 0.41001 0.72850
# Poissons Ratio (z) = 0.25468 0.12985
#
# Static dielectric constant tensor:
#      x y z
#    x 1.985530 0.000000 0.000000 
#    y 0.000000 2.189830 0.000000 
#    z 0.000000 0.000000 2.109380 
# 
# From -- ./inp_files/8446.got.cif
#   From: 2010.05.17/outbox.cif.g08.bks.cpg/sg60_5_cif.got.tgz:8446.got - 2010.06.03 14:59:27.
