data_PCOD9453363
_publ_section_title
;
Structure prediction by ZEFSAII (Michael W. Deem and Ramdas Pophale) SiO2 
 PCOD9453363
Probable space group: P M M N
;
_chemical_formula_sum "Si O2"
_cell_formula_units_Z 64
_cell_length_a 18.000000
_cell_length_b 9.000000
_cell_length_c 24.000000
_cell_angle_alpha 90.000000
_cell_angle_beta 90.000000
_cell_angle_gamma 90.000000
_cell_volume 3888.000000
_symmetry_space_group_name_H-M "P M M N"
_symmetry_group_IT_number 59
_space_group.IT_coordinate_system_code '2'
_symmetry_cell_setting 'orthorhombic'
loop_
_space_group_symop_operation_xyz
x,y,z
1/2-x,1/2-y,z
1/2+x,-y,-z
-x,1/2+y,-z
-x,-y,-z
1/2+x,1/2+y,-z
1/2-x,y,z
x,1/2-y,z
loop_
_atom_site_type_symbol
_atom_site_label
_atom_site_fract_x
_atom_site_fract_y
_atom_site_fract_z
Si Si1 0.901460 0.427221 0.567699
Si Si2 0.979904 0.571476 0.737749
Si Si3 0.832146 0.572890 0.672162
Si Si4 0.473043 0.070072 0.134435
Si Si5 0.336142 0.429288 0.541679
Si Si6 0.335419 0.929817 0.066537
Si Si7 0.432358 0.571776 0.966293
Si Si8 0.948376 0.571971 0.366228
O O1 0.897135 0.250000 0.562779
O O2 0.845219 0.487318 0.614614
O O3 0.881792 0.501489 0.509307
O O4 0.982390 0.466569 0.592861
O O5 0.987292 0.750000 0.736243
O O6 0.036729 0.502578 0.693221
O O7 0.898012 0.532562 0.714145
O O8 0.984696 0.522953 0.801768
O O9 0.750000 0.542379 0.694516
O O10 0.837795 0.750000 0.661192
O O11 0.464206 0.250000 0.133487
O O12 0.545721 0.031318 0.096966
O O13 0.398717 0.000327 0.106504
O O14 0.250000 0.473870 0.538583
O O15 0.340016 0.250000 0.537011
O O16 0.374622 0.470729 0.600126
O O17 0.250000 0.975448 0.077640
O O18 0.338994 0.750000 0.071965
O O19 0.359849 0.968817 0.002584
O O20 0.436868 0.750000 0.969047
O O21 0.500000 0.500000 0.000000
O O22 0.949451 0.750000 0.358979
#
# Coordination Sequence:
#
# PCOD9453363 Si02
#       8
#     8   8   8   8   8   8   8   8
#     4  10  19  30  46  68  91 113 141 179 222 268
#     4   9  18  31  47  66  87 115 152 188 220 257
#     4   9  17  29  43  59  84 118 149 176 212 262
#     4   9  17  29  46  67  89 117 153 189 222 259
#     4  10  20  33  49  68  89 114 145 181 223 272
#     4   9  17  28  43  66  95 123 149 180 221 267
#     4   8  14  26  43  62  86 115 146 178 213 254
#     4   9  19  34  49  66  89 118 150 183 221 264
#
# _framework density 16.460905
#
# number of rings (size 3 to 8) (size 9 to 14) (size 15 to 20)
#    0.000    2.875    0.000    1.125    0.000    4.250 
#    0.000    1.250    0.000    0.750    0.000    1.750 
#    0.000    0.000    0.000    0.000    0.000    0.000 
#
# Total GULP energy -356300.092119 kJ/mol
# GULP energy per Si atom -5567.188939 kJ/mol
# Density = 1.642344 g / cm^3
# Si number density = 16.460905 Si / 1000 Ang^3
#
#
#
# Elastic Constant Matrix: (Units=GPa)
#
#
# Indices 1 2 3 4 5 6 
#
# 1 40.0506 13.2205 39.9493 0.0000 0.0000 0.0000
# 2 13.2205 7.0697 24.7832 0.0000 0.0000 0.0000
# 3 39.9493 24.7832 143.2203 0.0000 0.0000 0.0000
# 4 0.0000 0.0000 0.0000 20.2069 0.0000 0.0000
# 5 0.0000 0.0000 0.0000 0.0000 12.7624 0.0000
# 6 0.0000 0.0000 0.0000 0.0000 0.0000 16.4614
#
#
#
# Elastic Compliance Matrix: (Units=1/GPa)
#
#
# Indices 1 2 3 4 5 6 
#
# 1 0.068483 -0.155314 0.007774 0.000000 0.000000 0.000000
# 2 -0.155314 0.711802 -0.079849 0.000000 0.000000 0.000000
# 3 0.007774 -0.079849 0.018631 0.000000 0.000000 0.000000
# 4 0.000000 0.000000 0.000000 0.049488 0.000000 0.000000
# 5 0.000000 0.000000 0.000000 0.000000 0.078355 0.000000
# 6 0.000000 0.000000 0.000000 0.000000 0.000000 0.060748
#
#
# Mechanical properties :
#
#
# Convention : Reuss Voigt Hill
#
# Bulk Modulus (GPa) = 2.90583 38.47185 20.68884
# Shear Modulus (GPa) = 3.21131 17.37867 10.29499
#
# Velocity S-wave (km/s) = 1.39825 3.25276 2.50355
# Velocity P-wave (km/s) = 2.09187 6.12615 4.57742
#
# Compressibility (1/GPa) = 0.34413577
#
# Stress axis : x y z
#
# Youngs Moduli (GPa) = 14.60223 1.40489 53.67332
#
# Poissons Ratio (x) = 0.21820 -0.41724
# Poissons Ratio (y) = 2.26793 4.28578
# Poissons Ratio (z) = -0.11351 0.11218
#
# Static dielectric constant tensor:
#      x y z
#    x 1.559280 0.000000 0.000000 
#    y 0.000000 1.553840 0.000000 
#    z 0.000000 0.000000 1.560260 
# 
# From -- ./inp_files/30692.got.cif
#   From: 2010.05.17/outbox.ucp.g08.bks.cvg/sg59_16_cif.got.tgz:30692.got - 2010.06.11 16:43:56.
