data_PCOD9453273
_publ_section_title
;
Structure prediction by ZEFSAII (Michael W. Deem and Ramdas Pophale) SiO2 
 PCOD9453273
Probable space group: P M M N
;
_chemical_formula_sum "Si O2"
_cell_formula_units_Z 48
_cell_length_a 7.488020
_cell_length_b 19.348777
_cell_length_c 16.914778
_cell_angle_alpha 90.000000
_cell_angle_beta 90.000000
_cell_angle_gamma 90.000000
_cell_volume 2450.681189
_symmetry_space_group_name_H-M "P M M N"
_symmetry_group_IT_number 59
_space_group.IT_coordinate_system_code '2'
_symmetry_cell_setting 'orthorhombic'
loop_
_space_group_symop_operation_xyz
x,y,z
1/2-x,1/2-y,z
1/2+x,-y,-z
-x,1/2+y,-z
-x,-y,-z
1/2+x,1/2+y,-z
1/2-x,y,z
x,1/2-y,z
loop_
_atom_site_type_symbol
_atom_site_label
_atom_site_fract_x
_atom_site_fract_y
_atom_site_fract_z
Si Si1 0.468328 0.827792 0.837677
Si Si2 0.037648 0.902421 0.679617
Si Si3 0.536339 0.672074 0.518582
Si Si4 0.468108 0.170997 0.658760
Si Si5 0.468426 0.457589 0.757034
Si Si6 0.463261 0.969007 0.914444
O O1 0.250000 0.826304 0.839021
O O2 0.528442 0.750000 0.856437
O O3 0.525556 0.850629 0.748987
O O4 0.526537 0.890842 0.894806
O O5 0.250000 0.904430 0.689391
O O6 0.003400 0.876883 0.591720
O O7 0.974312 0.979352 0.700204
O O8 0.750000 0.675913 0.513656
O O9 0.469445 0.750000 0.535087
O O10 0.475057 0.651526 0.430703
O O11 0.250000 0.170683 0.659620
O O12 0.523439 0.250000 0.673638
O O13 0.529451 0.115099 0.722231
O O14 0.250000 0.455502 0.757486
O O15 0.527306 0.480237 0.844455
O O16 0.250000 0.965628 0.906181
O O17 0.500000 0.000000 0.000000
#
# Coordination Sequence:
#
# PCOD9453273 Si02
#       6
#     8   8   8   8   8   8
#     4   8  14  26  44  63  83 112 147 172 196 246
#     4   9  16  26  43  65  86 110 141 177 212 245
#     4   9  17  27  39  59  87 116 145 176 209 245
#     4   8  14  26  43  60  82 116 151 177 204 243
#     4   8  15  28  44  62  83 109 144 178 206 246
#     4   9  17  30  48  67  87 110 136 172 215 255
#
# _framework density 19.586390999999999
#
# number of rings (size 3 to 8) (size 9 to 14) (size 15 to 20)
#    0.000    3.500    0.000    3.500    0.000    1.667 
#    0.000    4.167    0.000    3.500    0.000    0.000 
#    0.000    0.000    0.000    0.000    0.000    0.000 
#
# Total GULP energy -267438.496076 kJ/mol
# GULP energy per Si atom -5571.635335 kJ/mol
# Density = 1.954181 g / cm^3
# Si number density = 19.586391 Si / 1000 Ang^3
#
#
#
# Elastic Constant Matrix: (Units=GPa)
#
#
# Indices 1 2 3 4 5 6 
#
# 1 48.0213 4.8349 1.5025 0.0000 0.0000 0.0000
# 2 4.8349 173.0493 129.9110 0.0000 0.0000 0.0000
# 3 1.5025 129.9110 153.9874 0.0000 0.0000 0.0000
# 4 0.0000 0.0000 0.0000 25.7682 0.0000 0.0000
# 5 0.0000 0.0000 0.0000 0.0000 14.1323 0.0000
# 6 0.0000 0.0000 0.0000 0.0000 0.0000 4.6204
#
#
#
# Elastic Compliance Matrix: (Units=1/GPa)
#
#
# Indices 1 2 3 4 5 6 
#
# 1 0.020918 -0.001176 0.000788 0.000000 0.000000 0.000000
# 2 -0.001176 0.015826 -0.013340 0.000000 0.000000 0.000000
# 3 0.000788 -0.013340 0.017741 0.000000 0.000000 0.000000
# 4 0.000000 0.000000 0.000000 0.038808 0.000000 0.000000
# 5 0.000000 0.000000 0.000000 0.000000 0.070760 0.000000
# 6 0.000000 0.000000 0.000000 0.000000 0.000000 0.216429
#
#
# Mechanical properties :
#
#
# Convention : Reuss Voigt Hill
#
# Bulk Modulus (GPa) = 36.99811 71.95052 54.47431
# Shear Modulus (GPa) = 11.99189 24.82482 18.40836
#
# Velocity S-wave (km/s) = 2.47707 3.56399 3.06903
# Velocity P-wave (km/s) = 5.20690 7.33149 6.35856
#
# Compressibility (1/GPa) = 0.02702841
#
# Stress axis : x y z
#
# Youngs Moduli (GPa) = 47.80606 63.18524 56.36662
#
# Poissons Ratio (x) = 0.07431 -0.04442
# Poissons Ratio (y) = 0.05622 0.75196
# Poissons Ratio (z) = -0.03768 0.84292
#
# Static dielectric constant tensor:
#      x y z
#    x 1.750340 0.000000 0.000000 
#    y 0.000000 1.690790 0.000000 
#    z 0.000000 0.000000 1.672160 
# 
# From -- ./inp_files/17611.got.cif
#   From: 2010.05.17/outbox.cif.g08.bks.cpg/sg59_9_cif.got.tgz:17611.got - 2010.06.03 14:40:33.
