data_PCOD9453674
_publ_section_title
;
Structure prediction by ZEFSAII (Michael W. Deem and Ramdas Pophale) SiO2 
 PCOD9453674
Probable space group: P M M N
;
_chemical_formula_sum "Si O2"
_cell_formula_units_Z 64
_cell_length_a 24.000000
_cell_length_b 9.000000
_cell_length_c 15.000000
_cell_angle_alpha 90.000000
_cell_angle_beta 90.000000
_cell_angle_gamma 90.000000
_cell_volume 3240.000000
_symmetry_space_group_name_H-M "P M M N"
_symmetry_group_IT_number 59
_space_group.IT_coordinate_system_code '2'
_symmetry_cell_setting 'orthorhombic'
loop_
_space_group_symop_operation_xyz
x,y,z
1/2-x,1/2-y,z
1/2+x,-y,-z
-x,1/2+y,-z
-x,-y,-z
1/2+x,1/2+y,-z
1/2-x,y,z
x,1/2-y,z
loop_
_atom_site_type_symbol
_atom_site_label
_atom_site_fract_x
_atom_site_fract_y
_atom_site_fract_z
Si Si1 0.984308 0.928555 0.863548
Si Si2 0.863533 0.571789 0.929062
Si Si3 0.687105 0.573770 0.458159
Si Si4 0.393077 0.927949 0.899041
Si Si5 0.687307 0.071843 0.759979
Si Si6 0.872333 0.073013 0.308938
Si Si7 0.502398 0.426741 0.345489
Si Si8 0.893525 0.427326 0.599341
O O1 0.985101 0.750000 0.874451
O O2 0.925906 0.982401 0.901373
O O3 0.042443 0.983633 0.904719
O O4 0.987151 0.956536 0.758046
O O5 0.861678 0.750000 0.927587
O O6 0.823391 0.506271 0.854100
O O7 0.855908 0.509384 0.028054
O O8 0.750000 0.534009 0.483934
O O9 0.680346 0.750000 0.465843
O O10 0.674352 0.519637 0.358476
O O11 0.643338 0.490779 0.520147
O O12 0.392271 0.750000 0.914387
O O13 0.375499 0.952628 0.796824
O O14 0.750000 0.037537 0.727410
O O15 0.683412 0.250000 0.770837
O O16 0.639894 0.026167 0.689325
O O17 0.864774 0.250000 0.322544
O O18 0.932702 0.032208 0.351190
O O19 0.497998 0.250000 0.361009
O O20 0.456139 0.511175 0.401696
O O21 0.894761 0.250000 0.595944
#
# Coordination Sequence:
#
# PCOD9453674 Si02
#       8
#     8   8   8   8   8   8   8   8
#     4   8  15  29  50  78 114 151 184 223 270 326
#     4  11  20  31  52  82 113 148 189 233 281 329
#     4  11  25  43  63  86 112 146 189 239 293 345
#     4   9  18  34  55  80 113 151 189 228 276 333
#     4  10  22  39  56  77 110 151 193 238 284 336
#     4   9  20  39  63  87 115 153 193 237 287 338
#     4   9  17  34  58  86 122 156 186 227 282 343
#     4  11  22  37  61  90 117 148 188 234 285 345
#
# _framework density 19.753086
#
# number of rings (size 3 to 8) (size 9 to 14) (size 15 to 20)
#    0.000    2.250    1.250    3.375    0.000    3.750 
#    0.000    3.125    0.000    0.750    0.000    0.000 
#    0.000    0.000    0.000    0.000    0.000    0.000 
#
# Total GULP energy -357223.827926 kJ/mol
# GULP energy per Si atom -5581.622311 kJ/mol
# Density = 1.970813 g / cm^3
# Si number density = 19.753086 Si / 1000 Ang^3
#
#
#
# Elastic Constant Matrix: (Units=GPa)
#
#
# Indices 1 2 3 4 5 6 
#
# 1 35.3555 19.2084 30.4867 0.0000 0.0000 0.0000
# 2 19.2084 16.7557 23.3248 0.0000 0.0000 0.0000
# 3 30.4867 23.3248 54.9629 0.0000 0.0000 0.0000
# 4 0.0000 0.0000 0.0000 23.8671 0.0000 0.0000
# 5 0.0000 0.0000 0.0000 0.0000 20.2817 0.0000
# 6 0.0000 0.0000 0.0000 0.0000 0.0000 20.3777
#
#
#
# Elastic Compliance Matrix: (Units=1/GPa)
#
#
# Indices 1 2 3 4 5 6 
#
# 1 0.078672 -0.071943 -0.013107 0.000000 0.000000 0.000000
# 2 -0.071943 0.211621 -0.049901 0.000000 0.000000 0.000000
# 3 -0.013107 -0.049901 0.046641 0.000000 0.000000 0.000000
# 4 0.000000 0.000000 0.000000 0.041899 0.000000 0.000000
# 5 0.000000 0.000000 0.000000 0.000000 0.049306 0.000000
# 6 0.000000 0.000000 0.000000 0.000000 0.000000 0.049073
#
#
# Mechanical properties :
#
#
# Convention : Reuss Voigt Hill
#
# Bulk Modulus (GPa) = 14.91829 28.12375 21.52102
# Shear Modulus (GPa) = 6.49808 15.17557 10.83683
#
# Velocity S-wave (km/s) = 1.81571 2.77476 2.34479
# Velocity P-wave (km/s) = 3.45897 4.95321 4.27193
#
# Compressibility (1/GPa) = 0.06703181
#
# Stress axis : x y z
#
# Youngs Moduli (GPa) = 12.71094 4.72544 21.44029
#
# Poissons Ratio (x) = 0.33996 0.28102
# Poissons Ratio (y) = 0.91446 1.06990
# Poissons Ratio (z) = 0.16660 0.23581
#
# Static dielectric constant tensor:
#      x y z
#    x 1.700060 0.000000 0.000000 
#    y 0.000000 1.646960 0.000000 
#    z 0.000000 0.000000 1.727630 
# 
# From -- ./inp_files/24742.got.cif
#   From: 2010.05.17/outbox.ucp.g08.bks.cvg/sg59_13_cif.got.tgz:24742.got - 2010.06.11 16:43:56.
