data_PCOD9453667
_publ_section_title
;
Structure prediction by ZEFSAII (Michael W. Deem and Ramdas Pophale) SiO2 
 PCOD9453667
Probable space group: P M M N
;
_chemical_formula_sum "Si O2"
_cell_formula_units_Z 64
_cell_length_a 9.000000
_cell_length_b 30.000000
_cell_length_c 12.000000
_cell_angle_alpha 90.000000
_cell_angle_beta 90.000000
_cell_angle_gamma 90.000000
_cell_volume 3240.000000
_symmetry_space_group_name_H-M "P M M N"
_symmetry_group_IT_number 59
_space_group.IT_coordinate_system_code '2'
_symmetry_cell_setting 'orthorhombic'
loop_
_space_group_symop_operation_xyz
x,y,z
1/2-x,1/2-y,z
1/2+x,-y,-z
-x,1/2+y,-z
-x,-y,-z
1/2+x,1/2+y,-z
1/2-x,y,z
x,1/2-y,z
loop_
_atom_site_type_symbol
_atom_site_label
_atom_site_fract_x
_atom_site_fract_y
_atom_site_fract_z
Si Si1 0.421767 0.609189 0.132691
Si Si2 0.576966 0.982534 0.112677
Si Si3 0.082386 0.697138 0.769054
Si Si4 0.424810 0.196637 0.457462
Si Si5 0.072465 0.451077 0.491663
Si Si6 0.077784 0.568841 0.736729
Si Si7 0.923854 0.371181 0.617734
Si Si8 0.576614 0.865170 0.910985
O O1 0.250000 0.607307 0.096249
O O2 0.483944 0.559752 0.150644
O O3 0.431248 0.633818 0.249738
O O4 0.520578 0.629351 0.035591
O O5 0.750000 0.971303 0.090613
O O6 0.573261 0.020354 0.206172
O O7 0.500000 0.000000 0.000000
O O8 0.250000 0.680499 0.787668
O O9 0.088823 0.750000 0.763105
O O10 0.015036 0.681653 0.651819
O O11 0.970824 0.682531 0.864712
O O12 0.250000 0.187266 0.443101
O O13 0.442041 0.250000 0.471084
O O14 0.492376 0.169099 0.558302
O O15 0.250000 0.453778 0.503158
O O16 0.000000 0.500000 0.500000
O O17 0.024256 0.431450 0.371870
O O18 0.002736 0.416988 0.580480
O O19 0.250000 0.578431 0.708352
O O20 0.014607 0.601689 0.830529
O O21 0.750000 0.372763 0.585151
O O22 0.750000 0.873952 0.900899
#
# Coordination Sequence:
#
# PCOD9453667 Si02
#       8
#     8   8   8   8   8   8   8   8
#     4  11  24  41  60  84 118 159 204 251 297 355
#     4  11  22  36  58  84 115 155 199 248 297 351
#     4  10  21  39  64  91 121 155 191 237 294 355
#     4  10  21  39  65  96 127 158 198 249 305 366
#     4  12  25  41  61  87 122 161 204 252 305 363
#     4  11  23  39  60  86 118 155 198 245 294 349
#     4  11  24  42  64  89 121 162 207 255 308 366
#     4  12  24  38  60  88 119 153 193 242 294 350
#
# _framework density 19.753086
#
# number of rings (size 3 to 8) (size 9 to 14) (size 15 to 20)
#    0.000    1.000    1.250    6.000    0.000    7.000 
#    0.000    0.625    0.000    0.750    0.000    0.000 
#    0.000    0.000    0.000    0.000    0.000    0.000 
#
# Total GULP energy -357869.370962 kJ/mol
# GULP energy per Si atom -5591.708921 kJ/mol
# Density = 1.970813 g / cm^3
# Si number density = 19.753086 Si / 1000 Ang^3
#
#
#
# Elastic Constant Matrix: (Units=GPa)
#
#
# Indices 1 2 3 4 5 6 
#
# 1 116.6456 22.6341 24.8997 0.0000 0.0000 0.0000
# 2 22.6341 43.7712 18.8771 0.0000 0.0000 0.0000
# 3 24.8997 18.8771 72.6374 0.0000 0.0000 0.0000
# 4 0.0000 0.0000 0.0000 27.1430 0.0000 0.0000
# 5 0.0000 0.0000 0.0000 0.0000 29.8058 0.0000
# 6 0.0000 0.0000 0.0000 0.0000 0.0000 31.6093
#
#
#
# Elastic Compliance Matrix: (Units=1/GPa)
#
#
# Indices 1 2 3 4 5 6 
#
# 1 0.009863 -0.004102 -0.002315 0.000000 0.000000 0.000000
# 2 -0.004102 0.027436 -0.005724 0.000000 0.000000 0.000000
# 3 -0.002315 -0.005724 0.016048 0.000000 0.000000 0.000000
# 4 0.000000 0.000000 0.000000 0.036842 0.000000 0.000000
# 5 0.000000 0.000000 0.000000 0.000000 0.033551 0.000000
# 6 0.000000 0.000000 0.000000 0.000000 0.000000 0.031636
#
#
# Mechanical properties :
#
#
# Convention : Reuss Voigt Hill
#
# Bulk Modulus (GPa) = 34.40526 40.65289 37.52908
# Shear Modulus (GPa) = 26.40675 28.82117 27.61396
#
# Velocity S-wave (km/s) = 3.66025 3.82392 3.74298
# Velocity P-wave (km/s) = 5.94296 6.33417 6.14168
#
# Compressibility (1/GPa) = 0.02906532
#
# Stress axis : x y z
#
# Youngs Moduli (GPa) = 101.38829 36.44894 62.31247
#
# Poissons Ratio (x) = 0.14951 0.14426
# Poissons Ratio (y) = 0.41587 0.35667
# Poissons Ratio (z) = 0.23472 0.20863
#
# Static dielectric constant tensor:
#      x y z
#    x 1.675420 0.000000 0.000000 
#    y 0.000000 1.740800 0.000000 
#    z 0.000000 0.000000 1.673620 
# 
# From -- ./inp_files/14892.got.cif
#   From: 2010.05.17/outbox.ucp.g08.bks.cvg/sg59_8_cif.got.tgz:14892.got - 2010.06.11 16:43:56.
