data_PCOD9453400
_publ_section_title
;
Structure prediction by ZEFSAII (Michael W. Deem and Ramdas Pophale) SiO2 
 PCOD9453400
Probable space group: P M M N
;
_chemical_formula_sum "Si O2"
_cell_formula_units_Z 64
_cell_length_a 18.000000
_cell_length_b 9.000000
_cell_length_c 21.000000
_cell_angle_alpha 90.000000
_cell_angle_beta 90.000000
_cell_angle_gamma 90.000000
_cell_volume 3402.000000
_symmetry_space_group_name_H-M "P M M N"
_symmetry_group_IT_number 59
_space_group.IT_coordinate_system_code '2'
_symmetry_cell_setting 'orthorhombic'
loop_
_space_group_symop_operation_xyz
x,y,z
1/2-x,1/2-y,z
1/2+x,-y,-z
-x,1/2+y,-z
-x,-y,-z
1/2+x,1/2+y,-z
1/2-x,y,z
x,1/2-y,z
loop_
_atom_site_type_symbol
_atom_site_label
_atom_site_fract_x
_atom_site_fract_y
_atom_site_fract_z
Si Si1 0.078479 0.929418 0.983893
Si Si2 0.166191 0.569438 0.109162
Si Si3 0.339489 0.080744 0.341210
Si Si4 0.333335 0.930712 0.861427
Si Si5 0.081972 0.570555 0.735705
Si Si6 0.074435 0.572847 0.230847
Si Si7 0.159470 0.921549 0.468924
Si Si8 0.164131 0.931190 0.609345
O O1 0.071859 0.750000 0.983326
O O2 0.110046 0.979838 0.915968
O O3 0.136038 0.970126 0.039733
O O4 0.000000 0.000000 0.000000
O O5 0.250000 0.515898 0.120243
O O6 0.168091 0.750000 0.111881
O O7 0.109950 0.520314 0.164189
O O8 0.250000 0.078596 0.340490
O O9 0.364543 0.250000 0.330474
O O10 0.369879 0.974496 0.286733
O O11 0.364592 0.021835 0.410146
O O12 0.250000 0.982829 0.874307
O O13 0.332170 0.750000 0.864019
O O14 0.360572 0.971241 0.791365
O O15 0.076370 0.750000 0.734774
O O16 0.112847 0.520845 0.667421
O O17 0.003459 0.502514 0.753880
O O18 0.066099 0.750000 0.228649
O O19 0.250000 0.920837 0.469912
O O20 0.136256 0.750000 0.459679
O O21 0.137265 0.976103 0.539078
O O22 0.250000 0.977959 0.618760
O O23 0.165133 0.750000 0.608666
#
# Coordination Sequence:
#
# PCOD9453400 Si02
#       8
#     8   8   8   8   8   8   8   8
#     4  10  19  32  52  77 106 136 166 204 249 298
#     4   9  18  33  53  74  95 127 173 215 245 282
#     4  10  20  34  53  77 102 127 160 206 257 304
#     4   9  17  30  52  80 104 131 171 214 253 298
#     4  10  19  32  51  75 104 134 166 208 255 300
#     4  11  22  35  51  71  99 135 173 210 251 303
#     4   8  14  27  49  75 100 127 162 202 244 295
#     4   8  14  27  50  77 101 129 167 207 246 294
#
# _framework density 18.812463000000001
#
# number of rings (size 3 to 8) (size 9 to 14) (size 15 to 20)
#    0.000    2.625    0.000    3.375    0.000    4.250 
#    0.000    1.875    0.000    6.000    0.000    0.000 
#    0.000    0.000    0.000    0.000    0.000    0.000 
#
# Total GULP energy -356913.682524 kJ/mol
# GULP energy per Si atom -5576.776289 kJ/mol
# Density = 1.876965 g / cm^3
# Si number density = 18.812463 Si / 1000 Ang^3
#
#
#
# Elastic Constant Matrix: (Units=GPa)
#
#
# Indices 1 2 3 4 5 6 
#
# 1 27.8684 0.0536 -17.6302 0.0000 0.0000 0.0000
# 2 0.0536 8.4289 -0.5119 0.0000 0.0000 0.0000
# 3 -17.6302 -0.5119 55.3516 0.0000 0.0000 0.0000
# 4 0.0000 0.0000 0.0000 10.4909 0.0000 0.0000
# 5 0.0000 0.0000 0.0000 0.0000 -38.7886 0.0000
# 6 0.0000 0.0000 0.0000 0.0000 0.0000 18.5058
#
#
#
# Elastic Compliance Matrix: (Units=1/GPa)
#
#
# Indices 1 2 3 4 5 6 
#
# 1 0.044941 0.000584 0.014320 0.000000 0.000000 0.000000
# 2 0.000584 0.118713 0.001284 0.000000 0.000000 0.000000
# 3 0.014320 0.001284 0.022639 0.000000 0.000000 0.000000
# 4 0.000000 0.000000 0.000000 0.095320 0.000000 0.000000
# 5 0.000000 0.000000 0.000000 0.000000 -0.025781 0.000000
# 6 0.000000 0.000000 0.000000 0.000000 0.000000 0.054037
#
#
# Mechanical properties :
#
#
# Convention : Reuss Voigt Hill
#
# Bulk Modulus (GPa) = 4.57313 6.16353 5.36833
# Shear Modulus (GPa) = 14.27005 5.35747 9.81376
#
# Velocity S-wave (km/s) = 2.75715 1.68938 2.28647
# Velocity P-wave (km/s) = 3.54571 2.66247 3.13535
#
# Compressibility (1/GPa) = 0.21866857
#
# Stress axis : x y z
#
# Youngs Moduli (GPa) = 22.25154 8.42365 44.17119
#
# Poissons Ratio (x) = -0.00492 -0.63251
# Poissons Ratio (y) = -0.01300 -0.05671
# Poissons Ratio (z) = -0.31863 -0.01082
#
# Static dielectric constant tensor:
#      x y z
#    x 1.633900 0.000000 0.000000 
#    y 0.000000 1.633860 0.000000 
#    z 0.000000 0.000000 1.661620 
# 
# From -- ./inp_files/30702.got.cif
#   From: 2010.05.17/outbox.ucp.g08.bks.cvg/sg59_16_cif.got.tgz:30702.got - 2010.06.11 16:43:56.
