data_PCOD9453993
_publ_section_title
;
Structure prediction by ZEFSAII (Michael W. Deem and Ramdas Pophale) SiO2 
 PCOD9453993
Probable space group: P B C N
;
_chemical_formula_sum "Si O2"
_cell_formula_units_Z 44
_cell_length_a 20.300928
_cell_length_b 5.612746
_cell_length_c 17.549853
_cell_angle_alpha 90.000000
_cell_angle_beta 90.000000
_cell_angle_gamma 90.000000
_cell_volume 1999.699615
_symmetry_space_group_name_H-M "P B C N"
_symmetry_group_IT_number 60
_symmetry_cell_setting 'orthorhombic'
loop_
_space_group_symop_operation_xyz
x,y,z
1/2-x,1/2-y,1/2+z
1/2+x,1/2-y,-z
-x,y,1/2-z
-x,-y,-z
1/2+x,1/2+y,1/2-z
1/2-x,1/2+y,z
x,-y,1/2+z
loop_
_atom_site_type_symbol
_atom_site_label
_atom_site_fract_x
_atom_site_fract_y
_atom_site_fract_z
Si Si1 0.715414 0.559881 0.052687
Si Si2 0.763549 0.416519 0.722338
Si Si3 0.077389 0.750759 0.984456
Si Si4 0.907644 0.580465 0.150359
Si Si5 0.500000 0.741061 0.250000
Si Si6 0.986689 0.951302 0.382140
O O1 0.747931 0.307547 0.029203
O O2 0.718562 0.571660 0.145334
O O3 0.640457 0.579504 0.025546
O O4 0.752535 0.668578 0.763356
O O5 0.837128 0.406485 0.689028
O O6 0.096664 0.517313 0.936539
O O7 0.057111 0.759627 0.072779
O O8 0.012493 0.849738 0.941164
O O9 0.951686 0.400487 0.199828
O O10 0.947543 0.823494 0.147356
O O11 0.458067 0.580457 0.191269
#
# Coordination Sequence:
#
# PCOD9453993 Si02
#       6
#     8   8   8   8   4   8
#     4  10  18  32  53  87 119 152 186 243 307 359
#     4  10  19  32  57  89 116 150 195 254 299 359
#     4  10  20  33  58  90 115 148 201 250 310 365
#     4  11  20  36  59  85 120 156 204 251 309 370
#     4  10  24  38  54  84 114 168 208 248 306 358
#     4  10  21  37  56  83 120 154 198 253 306 360
#
# _framework density 22.003304
#
# number of rings (size 3 to 8) (size 9 to 14) (size 15 to 20)
#    0.000    1.818    3.636    3.273    2.545    0.000 
#    0.000    0.000    0.000    2.182    0.000    0.000 
#    0.000    0.000    0.000    0.000    0.000    0.000 
#
# Total GULP energy -245456.610322 kJ/mol
# GULP energy per Si atom -5578.559326 kJ/mol
# Density = 2.195322 g / cm^3
# Si number density = 22.003304 Si / 1000 Ang^3
#
#
#
# Elastic Constant Matrix: (Units=GPa)
#
#
# Indices 1 2 3 4 5 6 
#
# 1 55.8915 9.7669 9.4813 0.0000 0.0000 0.0000
# 2 9.7669 114.5142 2.4938 0.0000 0.0000 0.0000
# 3 9.4813 2.4938 44.4478 0.0000 0.0000 0.0000
# 4 0.0000 0.0000 0.0000 7.2132 0.0000 0.0000
# 5 0.0000 0.0000 0.0000 0.0000 3.1796 0.0000
# 6 0.0000 0.0000 0.0000 0.0000 0.0000 21.0883
#
#
#
# Elastic Compliance Matrix: (Units=1/GPa)
#
#
# Indices 1 2 3 4 5 6 
#
# 1 0.018824 -0.001520 -0.003930 0.000000 0.000000 0.000000
# 2 -0.001520 0.008866 -0.000173 0.000000 0.000000 0.000000
# 3 -0.003930 -0.000173 0.023346 0.000000 0.000000 0.000000
# 4 0.000000 0.000000 0.000000 0.138635 0.000000 0.000000
# 5 0.000000 0.000000 0.000000 0.000000 0.314505 0.000000
# 6 0.000000 0.000000 0.000000 0.000000 0.000000 0.047420
#
#
# Mechanical properties :
#
#
# Convention : Reuss Voigt Hill
#
# Bulk Modulus (GPa) = 25.13203 28.70417 26.91810
# Shear Modulus (GPa) = 8.67897 19.17033 13.92465
#
# Velocity S-wave (km/s) = 1.98820 2.95489 2.51837
# Velocity P-wave (km/s) = 4.08868 4.97148 4.55153
#
# Compressibility (1/GPa) = 0.03978986
#
# Stress axis : x y z
#
# Youngs Moduli (GPa) = 53.12342 112.79107 42.83319
#
# Poissons Ratio (x) = 0.17143 0.16834
# Poissons Ratio (y) = 0.08074 0.00742
# Poissons Ratio (z) = 0.20878 0.01954
#
# Static dielectric constant tensor:
#      x y z
#    x 1.815500 0.000000 0.000000 
#    y 0.000000 1.914910 0.000000 
#    z 0.000000 0.000000 1.820130 
# 
# From -- ./inp_files/21089.got.cif
#   From: 2010.05.17/outbox.cif.g08.bks.cpg/sg60_11_cif.got.tgz:21089.got - 2010.06.03 14:59:27.
