data_PCOD9453308
_publ_section_title
;
Structure prediction by ZEFSAII (Michael W. Deem and Ramdas Pophale) SiO2 
 PCOD9453308
Probable space group: P M M N
;
_chemical_formula_sum "Si O2"
_cell_formula_units_Z 56
_cell_length_a 13.597375
_cell_length_b 9.116311
_cell_length_c 21.827644
_cell_angle_alpha 90.000000
_cell_angle_beta 90.000000
_cell_angle_gamma 90.000000
_cell_volume 2705.708897
_symmetry_space_group_name_H-M "P M M N"
_symmetry_group_IT_number 59
_space_group.IT_coordinate_system_code '2'
_symmetry_cell_setting 'orthorhombic'
loop_
_space_group_symop_operation_xyz
x,y,z
1/2-x,1/2-y,z
1/2+x,-y,-z
-x,1/2+y,-z
-x,-y,-z
1/2+x,1/2+y,-z
1/2-x,y,z
x,1/2-y,z
loop_
_atom_site_type_symbol
_atom_site_label
_atom_site_fract_x
_atom_site_fract_y
_atom_site_fract_z
Si Si1 0.367962 0.918080 0.851019
Si Si2 0.130247 0.917072 0.096323
Si Si3 0.861070 0.926225 0.777850
Si Si4 0.357544 0.074124 0.464420
Si Si5 0.430147 0.573045 0.586056
Si Si6 0.442634 0.927999 0.719850
Si Si7 0.370256 0.417669 0.973272
O O1 0.250000 0.911043 0.854786
O O2 0.405409 0.750000 0.856905
O O3 0.393367 0.975943 0.783334
O O4 0.401542 0.014978 0.908248
O O5 0.250000 0.915751 0.094851
O O6 0.097008 0.750000 0.102918
O O7 0.106055 0.010924 0.156459
O O8 0.099843 0.986584 0.031805
O O9 0.750000 0.976679 0.764644
O O10 0.859384 0.750000 0.782249
O O11 0.942341 0.965642 0.727815
O O12 0.250000 0.033308 0.438957
O O13 0.359383 0.250000 0.471335
O O14 0.454271 0.036939 0.425209
O O15 0.372091 0.000764 0.530740
O O16 0.419207 0.750000 0.582285
O O17 0.402269 0.522722 0.654428
O O18 0.434448 0.750000 0.719208
O O19 0.250000 0.417927 0.972878
O O20 0.401602 0.250000 0.980815
#
# Coordination Sequence:
#
# PCOD9453308 Si02
#       7
#     8   8   8   8   8   8   8
#     4   9  17  30  47  66  91 123 157 195 241 290
#     4   9  16  27  45  68  93 122 158 200 246 294
#     4   9  17  30  48  69  94 124 158 198 244 292
#     4   9  18  33  53  78 108 138 167 204 250 294
#     4   9  18  33  53  77 104 135 172 209 244 290
#     4   9  18  32  50  73  99 127 162 201 238 282
#     4   9  16  27  45  68  92 119 156 202 248 292
#
# _framework density 20.69698
#
# number of rings (size 3 to 8) (size 9 to 14) (size 15 to 20)
#    0.000    3.000    0.000    0.857    0.000    4.857 
#    0.000    7.143    0.000    1.714    0.000    2.000 
#    0.000    0.000    0.000    0.000    0.000    0.000 
#
# Total GULP energy -312502.092291 kJ/mol
# GULP energy per Si atom -5580.394505 kJ/mol
# Density = 2.064987 g / cm^3
# Si number density = 20.696980 Si / 1000 Ang^3
#
#
#
# Elastic Constant Matrix: (Units=GPa)
#
#
# Indices 1 2 3 4 5 6 
#
# 1 41.5245 -2.8195 -17.3760 0.0000 0.0000 0.0000
# 2 -2.8195 27.6578 13.2444 0.0000 0.0000 0.0000
# 3 -17.3760 13.2444 83.2186 0.0000 0.0000 0.0000
# 4 0.0000 0.0000 0.0000 23.4103 0.0000 0.0000
# 5 0.0000 0.0000 0.0000 0.0000 13.9035 0.0000
# 6 0.0000 0.0000 0.0000 0.0000 0.0000 14.1858
#
#
#
# Elastic Compliance Matrix: (Units=1/GPa)
#
#
# Indices 1 2 3 4 5 6 
#
# 1 0.026388 0.000056 0.005501 0.000000 0.000000 0.000000
# 2 0.000056 0.039139 -0.006217 0.000000 0.000000 0.000000
# 3 0.005501 -0.006217 0.014155 0.000000 0.000000 0.000000
# 4 0.000000 0.000000 0.000000 0.042716 0.000000 0.000000
# 5 0.000000 0.000000 0.000000 0.000000 0.071924 0.000000
# 6 0.000000 0.000000 0.000000 0.000000 0.000000 0.070493
#
#
# Mechanical properties :
#
#
# Convention : Reuss Voigt Hill
#
# Bulk Modulus (GPa) = 12.76157 15.38874 14.07516
# Shear Modulus (GPa) = 17.10826 20.92340 19.01583
#
# Velocity S-wave (km/s) = 2.87820 3.18298 3.03442
# Velocity P-wave (km/s) = 4.15026 4.57819 4.36947
#
# Compressibility (1/GPa) = 0.07836025
#
# Stress axis : x y z
#
# Youngs Moduli (GPa) = 37.89626 25.54979 70.64812
#
# Poissons Ratio (x) = -0.00143 -0.38863
# Poissons Ratio (y) = -0.00211 0.43925
# Poissons Ratio (z) = -0.20846 0.15885
#
# Static dielectric constant tensor:
#      x y z
#    x 1.831350 0.000000 0.000000 
#    y 0.000000 1.701640 0.000000 
#    z 0.000000 0.000000 1.703010 
# 
# From -- ./inp_files/30342.got.cif
#   From: 2010.05.17/outbox.cif.g08.bks.cpg/sg59_16_cif.got.tgz:30342.got - 2010.06.03 14:40:33.
