data_PCOD9453628
_publ_section_title
;
Structure prediction by ZEFSAII (Michael W. Deem and Ramdas Pophale) SiO2 
 PCOD9453628
Probable space group: P M M N
;
_chemical_formula_sum "Si O2"
_cell_formula_units_Z 48
_cell_length_a 9.000000
_cell_length_b 30.000000
_cell_length_c 9.000000
_cell_angle_alpha 90.000000
_cell_angle_beta 90.000000
_cell_angle_gamma 90.000000
_cell_volume 2430.000000
_symmetry_space_group_name_H-M "P M M N"
_symmetry_group_IT_number 59
_space_group.IT_coordinate_system_code '2'
_symmetry_cell_setting 'orthorhombic'
loop_
_space_group_symop_operation_xyz
x,y,z
1/2-x,1/2-y,z
1/2+x,-y,-z
-x,1/2+y,-z
-x,-y,-z
1/2+x,1/2+y,-z
1/2-x,y,z
x,1/2-y,z
loop_
_atom_site_type_symbol
_atom_site_label
_atom_site_fract_x
_atom_site_fract_y
_atom_site_fract_z
Si Si1 0.922153 0.964947 0.893463
Si Si2 0.422325 0.802637 0.548290
Si Si3 0.426353 0.380729 0.595631
Si Si4 0.077982 0.124593 0.920156
Si Si5 0.073747 0.302084 0.136286
Si Si6 0.574397 0.041478 0.418365
O O1 0.750000 0.976756 0.861593
O O2 0.020715 0.961897 0.748803
O O3 0.922959 0.917025 0.971382
O O4 0.000000 0.000000 0.000000
O O5 0.250000 0.816228 0.533576
O O6 0.432351 0.750000 0.519912
O O7 0.529253 0.830557 0.442971
O O8 0.481617 0.810538 0.714876
O O9 0.250000 0.388603 0.581519
O O10 0.483568 0.389486 0.761877
O O11 0.510918 0.413183 0.485446
O O12 0.250000 0.136495 0.887270
O O13 0.014500 0.167042 0.004547
O O14 0.250000 0.312364 0.163197
O O15 0.063876 0.250000 0.099708
O O16 0.750000 0.039418 0.432178
O O17 0.500000 0.000000 0.500000
#
# Coordination Sequence:
#
# PCOD9453628 Si02
#       6
#     8   8   8   8   8   8
#     4  11  22  39  62  88 119 155 195 241 293 348
#     4  10  21  37  56  82 117 155 196 242 292 348
#     4  11  22  38  60  87 118 153 195 241 293 353
#     4   9  20  36  56  83 114 146 185 236 288 342
#     4   9  17  33  58  84 109 143 189 238 289 345
#     4  12  25  42  63  89 120 155 197 244 296 353
#
# _framework density 19.753086
#
# number of rings (size 3 to 8) (size 9 to 14) (size 15 to 20)
#    0.000    1.667    0.000    5.000    0.000    4.333 
#    0.000    6.667    0.000    2.000    0.000    0.000 
#    0.000    0.000    0.000    0.000    0.000    0.000 
#
# Total GULP energy -267940.250042 kJ/mol
# GULP energy per Si atom -5582.088543 kJ/mol
# Density = 1.970813 g / cm^3
# Si number density = 19.753086 Si / 1000 Ang^3
#
#
#
# Elastic Constant Matrix: (Units=GPa)
#
#
# Indices 1 2 3 4 5 6 
#
# 1 108.2066 30.3943 34.7555 0.0000 0.0000 0.0000
# 2 30.3943 28.5696 31.6232 0.0000 0.0000 0.0000
# 3 34.7555 31.6232 86.4533 0.0000 0.0000 0.0000
# 4 0.0000 0.0000 0.0000 31.4585 0.0000 0.0000
# 5 0.0000 0.0000 0.0000 0.0000 18.5242 0.0000
# 6 0.0000 0.0000 0.0000 0.0000 0.0000 30.6681
#
#
#
# Elastic Compliance Matrix: (Units=1/GPa)
#
#
# Indices 1 2 3 4 5 6 
#
# 1 0.013184 -0.013711 -0.000285 0.000000 0.000000 0.000000
# 2 -0.013711 0.073074 -0.021217 0.000000 0.000000 0.000000
# 3 -0.000285 -0.021217 0.019442 0.000000 0.000000 0.000000
# 4 0.000000 0.000000 0.000000 0.031788 0.000000 0.000000
# 5 0.000000 0.000000 0.000000 0.000000 0.053983 0.000000
# 6 0.000000 0.000000 0.000000 0.000000 0.000000 0.032607
#
#
# Mechanical properties :
#
#
# Convention : Reuss Voigt Hill
#
# Bulk Modulus (GPa) = 28.34935 46.30839 37.32887
# Shear Modulus (GPa) = 16.32581 24.56058 20.44320
#
# Velocity S-wave (km/s) = 2.87800 3.52998 3.22053
# Velocity P-wave (km/s) = 5.04251 6.33316 5.72432
#
# Compressibility (1/GPa) = 0.03527418
#
# Stress axis : x y z
#
# Youngs Moduli (GPa) = 75.84702 13.68483 51.43382
#
# Poissons Ratio (x) = 0.18763 0.01466
# Poissons Ratio (y) = 1.03993 1.09128
# Poissons Ratio (z) = 0.02163 0.29035
#
# Static dielectric constant tensor:
#      x y z
#    x 1.695660 0.000000 0.000000 
#    y 0.000000 1.698050 0.000000 
#    z 0.000000 0.000000 1.743010 
# 
# From -- ./inp_files/6333.got.cif
#   From: 2010.05.17/outbox.ucp.g08.bks.cvg/sg59_4_cif.got.tgz:6333.got - 2010.06.11 16:43:56.
