data_PCOD9453598
_publ_section_title
;
Structure prediction by ZEFSAII (Michael W. Deem and Ramdas Pophale) SiO2 
 PCOD9453598
Probable space group: P M M N
;
_chemical_formula_sum "Si O2"
_cell_formula_units_Z 64
_cell_length_a 30.000000
_cell_length_b 9.000000
_cell_length_c 12.000000
_cell_angle_alpha 90.000000
_cell_angle_beta 90.000000
_cell_angle_gamma 90.000000
_cell_volume 3240.000000
_symmetry_space_group_name_H-M "P M M N"
_symmetry_group_IT_number 59
_space_group.IT_coordinate_system_code '2'
_symmetry_cell_setting 'orthorhombic'
loop_
_space_group_symop_operation_xyz
x,y,z
1/2-x,1/2-y,z
1/2+x,-y,-z
-x,1/2+y,-z
-x,-y,-z
1/2+x,1/2+y,-z
1/2-x,y,z
x,1/2-y,z
loop_
_atom_site_type_symbol
_atom_site_label
_atom_site_fract_x
_atom_site_fract_y
_atom_site_fract_z
Si Si1 0.045015 0.573284 0.545171
Si Si2 0.614329 0.921632 0.025806
Si Si3 0.548155 0.071559 0.855980
Si Si4 0.300699 0.570303 0.428400
Si Si5 0.196321 0.082331 0.661884
Si Si6 0.548561 0.577832 0.222734
Si Si7 0.198503 0.572503 0.896033
Si Si8 0.891782 0.429744 0.648493
O O1 0.040781 0.750000 0.536884
O O2 0.052706 0.523080 0.670222
O O3 0.085911 0.524869 0.467407
O O4 0.000000 0.500000 0.500000
O O5 0.621042 0.750000 0.996534
O O6 0.592218 0.928772 0.147859
O O7 0.661075 0.006930 0.022923
O O8 0.576277 0.993954 0.950915
O O9 0.550973 0.250000 0.868924
O O10 0.496146 0.033258 0.844793
O O11 0.574138 0.024724 0.743973
O O12 0.250000 0.523149 0.401021
O O13 0.300419 0.750000 0.434941
O O14 0.313842 0.505651 0.549094
O O15 0.340330 0.522411 0.345693
O O16 0.250000 0.095143 0.660560
O O17 0.177553 0.250000 0.664242
O O18 0.186920 0.992294 0.774049
O O19 0.541191 0.750000 0.257259
O O20 0.250000 0.530328 0.921745
O O21 0.196118 0.750000 0.894237
O O22 0.891115 0.250000 0.652067
#
# Coordination Sequence:
#
# PCOD9453598 Si02
#       8
#     8   8   8   8   8   8   8   8
#     4  11  21  36  58  85 117 152 192 236 290 353
#     4  11  24  39  59  89 119 148 193 244 294 347
#     4  10  20  40  62  79 112 156 197 241 288 344
#     4   9  17  31  52  79 110 146 191 235 278 337
#     4   9  17  30  49  75 109 146 180 224 285 337
#     4  10  22  40  60  85 119 155 192 239 293 349
#     4  10  21  38  59  82 110 149 195 236 283 346
#     4   9  19  35  56  81 112 152 192 237 287 335
#
# _framework density 19.753086
#
# number of rings (size 3 to 8) (size 9 to 14) (size 15 to 20)
#    0.000    2.125    1.250    1.875    1.750    3.750 
#    0.000    1.875    0.000    2.250    0.000    0.000 
#    0.000    0.000    0.000    0.000    0.000    0.000 
#
# Total GULP energy -356962.136922 kJ/mol
# GULP energy per Si atom -5577.533389 kJ/mol
# Density = 1.970813 g / cm^3
# Si number density = 19.753086 Si / 1000 Ang^3
#
#
#
# Elastic Constant Matrix: (Units=GPa)
#
#
# Indices 1 2 3 4 5 6 
#
# 1 110.1742 41.0217 43.8756 0.0000 0.0000 0.0000
# 2 41.0217 43.4739 10.9614 0.0000 0.0000 0.0000
# 3 43.8756 10.9614 6.1496 0.0000 0.0000 0.0000
# 4 0.0000 0.0000 0.0000 21.1954 0.0000 0.0000
# 5 0.0000 0.0000 0.0000 0.0000 -18.8136 0.0000
# 6 0.0000 0.0000 0.0000 0.0000 0.0000 15.4333
#
#
#
# Elastic Compliance Matrix: (Units=1/GPa)
#
#
# Indices 1 2 3 4 5 6 
#
# 1 -0.003837 -0.005961 0.037999 0.000000 0.000000 0.000000
# 2 -0.005961 0.032519 -0.015436 0.000000 0.000000 0.000000
# 3 0.037999 -0.015436 -0.080986 0.000000 0.000000 0.000000
# 4 0.000000 0.000000 0.000000 0.047180 0.000000 0.000000
# 5 0.000000 0.000000 0.000000 0.000000 -0.053153 0.000000
# 6 0.000000 0.000000 0.000000 0.000000 0.000000 0.064795
#
#
# Mechanical properties :
#
#
# Convention : Reuss Voigt Hill
#
# Bulk Modulus (GPa) = -52.35756 39.05721 -6.65017
# Shear Modulus (GPa) = -151.26965 7.82562 -71.72201
#
# Velocity S-wave (km/s) = -8.76051 1.99257 -6.03225
# Velocity P-wave (km/s) = 11.35307 5.01093 7.20357
#
# Compressibility (1/GPa) = -0.01909944
#
# Stress axis : x y z
#
# Youngs Moduli (GPa) = -260.62793 30.75153 -12.34781
#
# Poissons Ratio (x) = 0.18330 0.46921
# Poissons Ratio (y) = -1.55348 -0.19060
# Poissons Ratio (z) = 9.90365 0.47469
#
# Static dielectric constant tensor:
#      x y z
#    x 1.703600 0.000000 0.000000 
#    y 0.000000 1.663990 0.000000 
#    z 0.000000 0.000000 1.726180 
# 
# From -- ./inp_files/19334.got.cif
#   From: 2010.05.17/outbox.ucp.g08.bks.cvg/sg59_10_cif.got.tgz:19334.got - 2010.06.11 16:43:56.
