data_PCOD9453933
_publ_section_title
;
Structure prediction by ZEFSAII (Michael W. Deem and Ramdas Pophale) SiO2 
 PCOD9453933
Probable space group: P B C N
;
_chemical_formula_sum "Si O2"
_cell_formula_units_Z 60
_cell_length_a 13.754388
_cell_length_b 32.992296
_cell_length_c 5.321948
_cell_angle_alpha 90.000000
_cell_angle_beta 90.000000
_cell_angle_gamma 90.000000
_cell_volume 2415.040610
_symmetry_space_group_name_H-M "P B C N"
_symmetry_group_IT_number 60
_symmetry_cell_setting 'orthorhombic'
loop_
_space_group_symop_operation_xyz
x,y,z
1/2-x,1/2-y,1/2+z
1/2+x,1/2-y,-z
-x,y,1/2-z
-x,-y,-z
1/2+x,1/2+y,1/2-z
1/2-x,1/2+y,z
x,-y,1/2+z
loop_
_atom_site_type_symbol
_atom_site_label
_atom_site_fract_x
_atom_site_fract_y
_atom_site_fract_z
Si Si1 0.139968 0.823223 0.869996
Si Si2 0.000000 0.171514 0.750000
Si Si3 0.132575 0.889353 0.530914
Si Si4 0.133736 0.332659 0.985043
Si Si5 0.634656 0.478541 0.093393
Si Si6 0.815637 0.248045 0.459193
Si Si7 0.627713 0.976154 0.084778
Si Si8 0.133360 0.382991 0.484818
O O1 0.108913 0.868588 0.796154
O O2 0.144025 0.795427 0.622021
O O3 0.060061 0.803572 0.047132
O O4 0.248617 0.827702 0.970974
O O5 0.917905 0.140270 0.661150
O O6 0.100252 0.934765 0.493038
O O7 0.249127 0.886733 0.500150
O O8 0.108530 0.284937 0.003042
O O9 0.109158 0.358167 0.232561
O O10 0.105925 0.357230 0.733239
O O11 0.606085 0.490095 0.375335
O O12 0.753464 0.476668 0.089730
O O13 0.751260 0.243367 0.710704
O O14 0.598829 0.994231 0.355676
O O15 0.597047 0.929557 0.032209
#
# Coordination Sequence:
#
# PCOD9453933 Si02
#       8
#     8   4   8   8   8   8   8   8
#     4  10  22  34  52  70  94 121 152 196 245 298
#     4  12  22  36  50  68  94 124 160 190 248 298
#     4  10  21  34  49  66  90 116 157 197 246 295
#     4  10  18  32  49  72  89 115 149 194 241 286
#     4   9  19  32  50  64  81 110 151 199 247 290
#     4  10  20  34  54  74  95 116 148 194 247 294
#     4   9  16  26  41  65  89 116 148 188 231 278
#     4  10  18  30  49  68  92 119 153 193 240 284
#
# _framework density 24.844301000000002
#
# number of rings (size 3 to 8) (size 9 to 14) (size 15 to 20)
#    0.000    2.133    1.333    3.600    3.733    3.200 
#    0.000    0.667    0.000    0.000    0.000    0.000 
#    0.000    0.000    0.000    0.000    0.000    0.000 
#
# Total GULP energy -335448.258008 kJ/mol
# GULP energy per Si atom -5590.804300 kJ/mol
# Density = 2.478775 g / cm^3
# Si number density = 24.844301 Si / 1000 Ang^3
#
#
#
# Elastic Constant Matrix: (Units=GPa)
#
#
# Indices 1 2 3 4 5 6 
#
# 1 79.3837 13.4260 9.8084 0.0000 0.0000 0.0000
# 2 13.4260 168.5608 76.6608 0.0000 0.0000 0.0000
# 3 9.8084 76.6608 186.0056 0.0000 0.0000 0.0000
# 4 0.0000 0.0000 0.0000 43.7537 0.0000 0.0000
# 5 0.0000 0.0000 0.0000 0.0000 -16.5552 0.0000
# 6 0.0000 0.0000 0.0000 0.0000 0.0000 5.1341
#
#
#
# Elastic Compliance Matrix: (Units=1/GPa)
#
#
# Indices 1 2 3 4 5 6 
#
# 1 0.012784 -0.000876 -0.000313 0.000000 0.000000 0.000000
# 2 -0.000876 0.007361 -0.002988 0.000000 0.000000 0.000000
# 3 -0.000313 -0.002988 0.006624 0.000000 0.000000 0.000000
# 4 0.000000 0.000000 0.000000 0.022855 0.000000 0.000000
# 5 0.000000 0.000000 0.000000 0.000000 -0.060404 0.000000
# 6 0.000000 0.000000 0.000000 0.000000 0.000000 0.194774
#
#
# Mechanical properties :
#
#
# Convention : Reuss Voigt Hill
#
# Bulk Modulus (GPa) = 54.30131 70.41560 62.35846
# Shear Modulus (GPa) = 25.19064 28.73686 26.96375
#
# Velocity S-wave (km/s) = 3.18770 3.40469 3.29798
# Velocity P-wave (km/s) = 5.95421 6.62270 6.29733
#
# Compressibility (1/GPa) = 0.01841576
#
# Stress axis : x y z
#
# Youngs Moduli (GPa) = 78.22366 135.84917 150.96553
#
# Poissons Ratio (x) = 0.11898 0.04727
# Poissons Ratio (y) = 0.06851 0.45103
# Poissons Ratio (z) = 0.02450 0.40587
#
# Static dielectric constant tensor:
#      x y z
#    x 2.058190 0.000000 0.000000 
#    y 0.000000 1.949820 0.000000 
#    z 0.000000 0.000000 2.041490 
# 
# From -- ./inp_files/2245.got.cif
#   From: 2010.05.17/outbox.cif.g08.bks.cpg/sg60_2_cif.got.tgz:2245.got - 2010.06.03 14:59:27.
