data_PCOD9453884
_publ_section_title
;
Structure prediction by ZEFSAII (Michael W. Deem and Ramdas Pophale) SiO2 
 PCOD9453884
Probable space group: P B C N
;
_chemical_formula_sum "Si O2"
_cell_formula_units_Z 40
_cell_length_a 14.802061
_cell_length_b 11.520302
_cell_length_c 9.357282
_cell_angle_alpha 90.000000
_cell_angle_beta 90.000000
_cell_angle_gamma 90.000000
_cell_volume 1595.643148
_symmetry_space_group_name_H-M "P B C N"
_symmetry_group_IT_number 60
_symmetry_cell_setting 'orthorhombic'
loop_
_space_group_symop_operation_xyz
x,y,z
1/2-x,1/2-y,1/2+z
1/2+x,1/2-y,-z
-x,y,1/2-z
-x,-y,-z
1/2+x,1/2+y,1/2-z
1/2-x,1/2+y,z
x,-y,1/2+z
loop_
_atom_site_type_symbol
_atom_site_label
_atom_site_fract_x
_atom_site_fract_y
_atom_site_fract_z
Si Si1 0.000000 0.547969 0.250000
Si Si2 0.415254 0.866183 0.030329
Si Si3 0.414446 0.259244 0.993329
Si Si4 0.780343 0.457788 0.971999
Si Si5 0.164527 0.050956 0.299449
Si Si6 0.500000 0.602243 0.750000
O O1 0.954456 0.462885 0.362488
O O2 0.065287 0.617050 0.359031
O O3 0.354037 0.669241 0.384033
O O4 0.483127 0.762018 0.066264
O O5 0.312691 0.906790 0.050209
O O6 0.438241 0.325799 0.139509
O O7 0.359958 0.139163 0.024510
O O8 0.738343 0.467747 0.127876
O O9 0.703093 0.427178 0.858318
O O10 0.071702 0.982426 0.322004
#
# Coordination Sequence:
#
# PCOD9453884 Si02
#       6
#     4   8   8   8   8   4
#     4  10  17  39  64 112 154 182 233 323 356 446
#     4  11  23  43  76 115 155 190 253 320 381 453
#     4  12  27  47  86 109 153 218 250 309 410 459
#     4  12  27  49  80 122 153 194 270 339 361 461
#     4  12  30  54  73 113 165 197 263 320 391 464
#     4  12  29  59  70 108 160 220 243 317 392 490
#
# _framework density 25.068261
#
# number of rings (size 3 to 8) (size 9 to 14) (size 15 to 20)
#    0.000    0.400    6.000    2.400    5.600    0.800 
#    0.000    0.000    0.000    0.000    0.000    0.000 
#    0.000    0.000    0.000    0.000    0.000    0.000 
#
# Total GULP energy -222900.703384 kJ/mol
# GULP energy per Si atom -5572.517585 kJ/mol
# Density = 2.501120 g / cm^3
# Si number density = 25.068261 Si / 1000 Ang^3
#
#
#
# Elastic Constant Matrix: (Units=GPa)
#
#
# Indices 1 2 3 4 5 6 
#
# 1 80.5723 20.4838 -3.0451 0.0000 0.0000 0.0000
# 2 20.4838 73.6043 12.3274 0.0000 0.0000 0.0000
# 3 -3.0451 12.3274 90.0059 0.0000 0.0000 0.0000
# 4 0.0000 0.0000 0.0000 -118.9273 0.0000 0.0000
# 5 0.0000 0.0000 0.0000 0.0000 32.4033 0.0000
# 6 0.0000 0.0000 0.0000 0.0000 0.0000 68.3134
#
#
#
# Elastic Compliance Matrix: (Units=1/GPa)
#
#
# Indices 1 2 3 4 5 6 
#
# 1 0.013442 -0.003907 0.000990 0.000000 0.000000 0.000000
# 2 -0.003907 0.015041 -0.002192 0.000000 0.000000 0.000000
# 3 0.000990 -0.002192 0.011444 0.000000 0.000000 0.000000
# 4 0.000000 0.000000 0.000000 -0.008408 0.000000 0.000000
# 5 0.000000 0.000000 0.000000 0.000000 0.030861 0.000000
# 6 0.000000 0.000000 0.000000 0.000000 0.000000 0.014638
#
#
# Mechanical properties :
#
#
# Convention : Reuss Voigt Hill
#
# Bulk Modulus (GPa) = 33.66031 33.74608 33.70320
# Shear Modulus (GPa) = 51.47316 10.65232 31.06274
#
# Velocity S-wave (km/s) = 4.53627 2.06363 3.52394
# Velocity P-wave (km/s) = 6.39481 4.37824 5.48008
#
# Compressibility (1/GPa) = 0.02970858
#
# Stress axis : x y z
#
# Youngs Moduli (GPa) = 74.39490 66.48715 87.38119
#
# Poissons Ratio (x) = 0.25974 -0.08649
# Poissons Ratio (y) = 0.29063 0.19155
# Poissons Ratio (z) = -0.07364 0.14575
#
# Static dielectric constant tensor:
#      x y z
#    x 2.222340 0.000000 0.000000 
#    y 0.000000 2.052540 0.000000 
#    z 0.000000 0.000000 1.941260 
# 
# From -- ./inp_files/11736.got.cif
#   From: 2010.05.17/outbox.cif.g08.bks.cpg/sg60_6_cif.got.tgz:11736.got - 2010.06.03 14:59:27.
