data_PCOD9453711
_publ_section_title
;
Structure prediction by ZEFSAII (Michael W. Deem and Ramdas Pophale) SiO2 
 PCOD9453711
Probable space group: P B C N
;
_chemical_formula_sum "Si O2"
_cell_formula_units_Z 32
_cell_length_a 7.281314
_cell_length_b 34.526634
_cell_length_c 5.306674
_cell_angle_alpha 90.000000
_cell_angle_beta 90.000000
_cell_angle_gamma 90.000000
_cell_volume 1334.093935
_symmetry_space_group_name_H-M "P B C N"
_symmetry_group_IT_number 60
_symmetry_cell_setting 'orthorhombic'
loop_
_space_group_symop_operation_xyz
x,y,z
1/2-x,1/2-y,1/2+z
1/2+x,1/2-y,-z
-x,y,1/2-z
-x,-y,-z
1/2+x,1/2+y,1/2-z
1/2-x,1/2+y,z
x,-y,1/2+z
loop_
_atom_site_type_symbol
_atom_site_label
_atom_site_fract_x
_atom_site_fract_y
_atom_site_fract_z
Si Si1 0.716892 0.602695 0.770416
Si Si2 0.711726 0.484764 0.464219
Si Si3 0.794136 0.771748 0.851669
Si Si4 0.775112 0.858750 0.770537
O O1 0.500000 0.611354 0.750000
O O2 0.727489 0.558506 0.860475
O O3 0.785662 0.611967 0.490906
O O4 0.792611 0.629433 0.993977
O O5 0.500000 0.500000 0.500000
O O6 0.791108 0.488793 0.742537
O O7 0.703358 0.745762 0.632016
O O8 0.720112 0.815478 0.848701
O O9 0.000000 0.774426 0.750000
O O10 0.000000 0.860475 0.750000
#
# Coordination Sequence:
#
# PCOD9453711 Si02
#       4
#     8   8   8   8
#     4  10  16  25  38  55  87 123 169 224 245 304
#     4  10  17  22  32  51  80 119 174 214 243 293
#     4  11  22  39  60  84 113 145 191 242 287 349
#     4   9  19  29  44  66  90 128 172 220 262 319
#
# _framework density 23.986317
#
# number of rings (size 3 to 8) (size 9 to 14) (size 15 to 20)
#    0.000    2.000    2.500    3.750    7.000    4.000 
#    0.000    0.000    0.000    0.000    0.000    0.000 
#    0.000    0.000    0.000    0.000    0.000  315.000 
#
# Total GULP energy -178735.060313 kJ/mol
# GULP energy per Si atom -5585.470635 kJ/mol
# Density = 2.393172 g / cm^3
# Si number density = 23.986317 Si / 1000 Ang^3
#
#
#
# Elastic Constant Matrix: (Units=GPa)
#
#
# Indices 1 2 3 4 5 6 
#
# 1 71.7895 -7.8766 -5.6775 0.0000 0.0000 0.0000
# 2 -7.8766 139.7604 69.3869 0.0000 0.0000 0.0000
# 3 -5.6775 69.3869 195.1396 0.0000 0.0000 0.0000
# 4 0.0000 0.0000 0.0000 50.1523 0.0000 0.0000
# 5 0.0000 0.0000 0.0000 0.0000 -0.7989 0.0000
# 6 0.0000 0.0000 0.0000 0.0000 0.0000 -18.2931
#
#
#
# Elastic Compliance Matrix: (Units=1/GPa)
#
#
# Indices 1 2 3 4 5 6 
#
# 1 0.014020 0.000714 0.000154 0.000000 0.000000 0.000000
# 2 0.000714 0.008725 -0.003082 0.000000 0.000000 0.000000
# 3 0.000154 -0.003082 0.006225 0.000000 0.000000 0.000000
# 4 0.000000 0.000000 0.000000 0.019939 0.000000 0.000000
# 5 0.000000 0.000000 0.000000 0.000000 -1.251739 0.000000
# 6 0.000000 0.000000 0.000000 0.000000 0.000000 -0.054665
#
#
# Mechanical properties :
#
#
# Convention : Reuss Voigt Hill
#
# Bulk Modulus (GPa) = 40.74603 57.59502 49.17052
# Shear Modulus (GPa) = -4.01643 29.60250 12.79303
#
# Velocity S-wave (km/s) = -1.29542 3.51685 2.31194
# Velocity P-wave (km/s) = 3.84534 6.36826 5.26029
#
# Compressibility (1/GPa) = 0.02454227
#
# Stress axis : x y z
#
# Youngs Moduli (GPa) = 71.32617 114.60907 160.64728
#
# Poissons Ratio (x) = -0.08179 -0.02477
# Poissons Ratio (y) = -0.05090 0.49507
# Poissons Ratio (z) = -0.01100 0.35320
#
# Static dielectric constant tensor:
#      x y z
#    x 1.773920 0.000000 0.000000 
#    y 0.000000 1.962520 0.000000 
#    z 0.000000 0.000000 1.598820 
# 
# From -- ./inp_files/355.got.cif
#   From: 2010.05.17/outbox.cif.g08.bks.cpg/sg60_1_cif.got.tgz:355.got - 2010.06.03 14:59:27.
