data_PCOD9453744
_publ_section_title
;
Structure prediction by ZEFSAII (Michael W. Deem and Ramdas Pophale) SiO2 
 PCOD9453744
Probable space group: P B C N
;
_chemical_formula_sum "Si O2"
_cell_formula_units_Z 48
_cell_length_a 11.053518
_cell_length_b 21.538926
_cell_length_c 8.496773
_cell_angle_alpha 90.000000
_cell_angle_beta 90.000000
_cell_angle_gamma 90.000000
_cell_volume 2022.919416
_symmetry_space_group_name_H-M "P B C N"
_symmetry_group_IT_number 60
_symmetry_cell_setting 'orthorhombic'
loop_
_space_group_symop_operation_xyz
x,y,z
1/2-x,1/2-y,1/2+z
1/2+x,1/2-y,-z
-x,y,1/2-z
-x,-y,-z
1/2+x,1/2+y,1/2-z
1/2-x,1/2+y,z
x,-y,1/2+z
loop_
_atom_site_type_symbol
_atom_site_label
_atom_site_fract_x
_atom_site_fract_y
_atom_site_fract_z
Si Si1 0.400569 0.248264 0.866700
Si Si2 0.185650 0.972827 0.690234
Si Si3 0.847418 0.085142 0.600736
Si Si4 0.197337 0.185954 0.668411
Si Si5 0.940296 0.604887 0.585209
Si Si6 0.822548 0.425610 0.520501
O O1 0.500000 0.276544 0.750000
O O2 0.280105 0.235220 0.762577
O O3 0.445699 0.179508 0.915994
O O4 0.376663 0.284245 0.027014
O O5 0.106872 0.930246 0.573525
O O6 0.259229 0.930265 0.811090
O O7 0.122962 0.025159 0.795904
O O8 0.271794 0.016936 0.582165
O O9 0.873638 0.146927 0.698241
O O10 0.700606 0.089496 0.579547
O O11 0.281760 0.135091 0.578408
O O12 0.000000 0.583708 0.750000
O O13 0.033108 0.576090 0.461660
#
# Coordination Sequence:
#
# PCOD9453744 Si02
#       6
#     8   8   8   8   8   8
#     4  10  20  39  60  79 114 158 201 252 294 342
#     4   9  18  28  48  77 113 148 188 230 289 363
#     4   9  18  30  45  75 108 147 187 236 289 354
#     4  10  20  35  57  78 112 155 201 241 301 341
#     4  10  16  31  50  70 118 147 187 238 282 351
#     4  10  18  32  50  82 113 155 190 231 297 355
#
# _framework density 23.728083000000002
#
# number of rings (size 3 to 8) (size 9 to 14) (size 15 to 20)
#    0.000    2.333    6.667    0.000    0.000    7.333 
#    0.000    0.833    0.000    0.000    0.000   18.667 
#    0.000    0.000    0.000    0.000    0.000    0.000 
#
# Total GULP energy -268046.617939 kJ/mol
# GULP energy per Si atom -5584.304540 kJ/mol
# Density = 2.367408 g / cm^3
# Si number density = 23.728083 Si / 1000 Ang^3
#
#
#
# Elastic Constant Matrix: (Units=GPa)
#
#
# Indices 1 2 3 4 5 6 
#
# 1 55.9145 4.3171 15.6133 0.0000 0.0000 0.0000
# 2 4.3171 42.7006 40.8432 0.0000 0.0000 0.0000
# 3 15.6133 40.8432 161.7070 0.0000 0.0000 0.0000
# 4 0.0000 0.0000 0.0000 64.2546 0.0000 0.0000
# 5 0.0000 0.0000 0.0000 0.0000 25.8617 0.0000
# 6 0.0000 0.0000 0.0000 0.0000 0.0000 -10.5442
#
#
#
# Elastic Compliance Matrix: (Units=1/GPa)
#
#
# Indices 1 2 3 4 5 6 
#
# 1 0.018381 -0.000212 -0.001721 0.000000 0.000000 0.000000
# 2 -0.000212 0.030881 -0.007779 0.000000 0.000000 0.000000
# 3 -0.001721 -0.007779 0.008315 0.000000 0.000000 0.000000
# 4 0.000000 0.000000 0.000000 0.015563 0.000000 0.000000
# 5 0.000000 0.000000 0.000000 0.000000 0.038667 0.000000
# 6 0.000000 0.000000 0.000000 0.000000 0.000000 -0.094839
#
#
# Mechanical properties :
#
#
# Convention : Reuss Voigt Hill
#
# Bulk Modulus (GPa) = 26.21056 42.42993 34.32024
# Shear Modulus (GPa) = 101.80739 29.21763 65.51251
#
# Velocity S-wave (km/s) = 6.55736 3.51287 5.26019
# Velocity P-wave (km/s) = 8.27056 5.86295 7.16856
#
# Compressibility (1/GPa) = 0.03815256
#
# Stress axis : x y z
#
# Youngs Moduli (GPa) = 54.40271 32.38205 120.26313
#
# Poissons Ratio (x) = 0.00687 0.20700
# Poissons Ratio (y) = 0.01153 0.93557
# Poissons Ratio (z) = 0.09364 0.25191
#
# Static dielectric constant tensor:
#      x y z
#    x 1.987990 0.000000 0.000000 
#    y 0.000000 1.904920 0.000000 
#    z 0.000000 0.000000 1.954320 
# 
# From -- ./inp_files/6020.got.cif
#   From: 2010.05.17/outbox.cif.g08.bks.cpg/sg60_4_cif.got.tgz:6020.got - 2010.06.03 14:59:27.
