data_PCOD9453055
_publ_section_title
;
Structure prediction by ZEFSAII (Michael W. Deem and Ramdas Pophale) SiO2 
 PCOD9453055
Probable space group: P M M N
;
_chemical_formula_sum "Si O2"
_cell_formula_units_Z 64
_cell_length_a 22.865795
_cell_length_b 15.154103
_cell_length_c 9.363051
_cell_angle_alpha 90.000000
_cell_angle_beta 90.000000
_cell_angle_gamma 90.000000
_cell_volume 3244.396538
_symmetry_space_group_name_H-M "P M M N"
_symmetry_group_IT_number 59
_space_group.IT_coordinate_system_code '2'
_symmetry_cell_setting 'orthorhombic'
loop_
_space_group_symop_operation_xyz
x,y,z
1/2-x,1/2-y,z
1/2+x,-y,-z
-x,1/2+y,-z
-x,-y,-z
1/2+x,1/2+y,-z
1/2-x,y,z
x,1/2-y,z
loop_
_atom_site_type_symbol
_atom_site_label
_atom_site_fract_x
_atom_site_fract_y
_atom_site_fract_z
Si Si1 0.481177 0.009850 0.164241
Si Si2 0.186530 0.350566 0.280387
Si Si3 0.980485 0.346382 0.619880
Si Si4 0.855121 0.525310 0.947023
Si Si5 0.819653 0.353414 0.112905
Si Si6 0.585630 0.088682 0.346139
Si Si7 0.681545 0.650843 0.182124
Si Si8 0.111239 0.392508 0.547179
O O1 0.414716 0.037263 0.139804
O O2 0.528725 0.070614 0.245241
O O3 0.477316 0.921734 0.260277
O O4 0.500000 0.000000 0.000000
O O5 0.250000 0.352650 0.353646
O O6 0.177079 0.250000 0.229180
O O7 0.188363 0.420198 0.152475
O O8 0.137872 0.376101 0.393656
O O9 0.971158 0.250000 0.683802
O O10 0.936977 0.359818 0.486040
O O11 0.046328 0.354025 0.559814
O O12 0.838932 0.425507 0.992639
O O13 0.855696 0.580280 0.093722
O O14 0.750000 0.367809 0.143536
O O15 0.826376 0.250000 0.071303
O O16 0.862398 0.371283 0.248986
O O17 0.606098 0.994898 0.409780
O O18 0.750000 0.626067 0.181184
O O19 0.676319 0.750000 0.123223
O O20 0.654946 0.650219 0.339183
#
# Coordination Sequence:
#
# PCOD9453055 Si02
#       8
#     8   8   8   8   8   8   8   8
#     4  11  22  41  63  93 127 166 206 260 320 391
#     4  11  23  37  57  91 131 165 200 244 304 380
#     4  11  23  40  63  92 127 165 210 264 319 376
#     4  12  22  41  63  87 126 166 209 260 324 378
#     4  11  24  42  66  93 121 164 225 280 324 379
#     4  11  22  43  65  91 127 166 213 266 329 380
#     4  11  22  37  61  93 128 166 208 251 303 377
#     4  11  21  38  62  90 126 165 207 248 307 380
#
# _framework density 19.726319
#
# number of rings (size 3 to 8) (size 9 to 14) (size 15 to 20)
#    0.000    0.875    2.500    7.125    0.000    3.000 
#    0.000    2.500    0.000    0.000    0.000    3.500 
#    0.000    0.000    0.000    0.000    0.000    0.000 
#
# Total GULP energy -357144.791528 kJ/mol
# GULP energy per Si atom -5580.387368 kJ/mol
# Density = 1.968142 g / cm^3
# Si number density = 19.726319 Si / 1000 Ang^3
#
#
#
# Elastic Constant Matrix: (Units=GPa)
#
#
# Indices 1 2 3 4 5 6 
#
# 1 109.6028 36.5539 39.0016 0.0000 0.0000 0.0000
# 2 36.5539 102.4660 34.5286 0.0000 0.0000 0.0000
# 3 39.0016 34.5286 108.2596 0.0000 0.0000 0.0000
# 4 0.0000 0.0000 0.0000 12.8351 0.0000 0.0000
# 5 0.0000 0.0000 0.0000 0.0000 31.1221 0.0000
# 6 0.0000 0.0000 0.0000 0.0000 0.0000 9.7980
#
#
#
# Elastic Compliance Matrix: (Units=1/GPa)
#
#
# Indices 1 2 3 4 5 6 
#
# 1 0.011212 -0.002956 -0.003096 0.000000 0.000000 0.000000
# 2 -0.002956 0.011714 -0.002671 0.000000 0.000000 0.000000
# 3 -0.003096 -0.002671 0.011204 0.000000 0.000000 0.000000
# 4 0.000000 0.000000 0.000000 0.077911 0.000000 0.000000
# 5 0.000000 0.000000 0.000000 0.000000 0.032131 0.000000
# 6 0.000000 0.000000 0.000000 0.000000 0.000000 0.102062
#
#
# Mechanical properties :
#
#
# Convention : Reuss Voigt Hill
#
# Bulk Modulus (GPa) = 59.94156 60.05518 59.99837
# Shear Modulus (GPa) = 18.57062 24.76734 21.66898
#
# Velocity S-wave (km/s) = 3.07158 3.54722 3.31793
# Velocity P-wave (km/s) = 6.55988 6.87657 6.72009
#
# Compressibility (1/GPa) = 0.01668291
#
# Stress axis : x y z
#
# Youngs Moduli (GPa) = 89.19348 85.36747 89.25059
#
# Poissons Ratio (x) = 0.25237 0.27634
# Poissons Ratio (y) = 0.26368 0.23840
# Poissons Ratio (z) = 0.27616 0.22802
#
# Static dielectric constant tensor:
#      x y z
#    x 2.046890 0.000000 0.000000 
#    y 0.000000 1.747150 0.000000 
#    z 0.000000 0.000000 1.739400 
# 
# From -- ./inp_files/12195.got.cif
#   From: 2010.05.17/outbox.cif.g08.bks.cpg/sg59_7_cif.got.tgz:12195.got - 2010.06.03 14:40:33.
