data_PCOD9453890
_publ_section_title
;
Structure prediction by ZEFSAII (Michael W. Deem and Ramdas Pophale) SiO2 
 PCOD9453890
Probable space group: P B C N
;
_chemical_formula_sum "Si O2"
_cell_formula_units_Z 32
_cell_length_a 7.166999
_cell_length_b 33.292761
_cell_length_c 5.347860
_cell_angle_alpha 90.000000
_cell_angle_beta 90.000000
_cell_angle_gamma 90.000000
_cell_volume 1276.048515
_symmetry_space_group_name_H-M "P B C N"
_symmetry_group_IT_number 60
_symmetry_cell_setting 'orthorhombic'
loop_
_space_group_symop_operation_xyz
x,y,z
1/2-x,1/2-y,1/2+z
1/2+x,1/2-y,-z
-x,y,1/2-z
-x,-y,-z
1/2+x,1/2+y,1/2-z
1/2-x,1/2+y,z
x,-y,1/2+z
loop_
_atom_site_type_symbol
_atom_site_label
_atom_site_fract_x
_atom_site_fract_y
_atom_site_fract_z
Si Si1 0.707138 0.227336 0.647520
Si Si2 0.217546 0.894807 0.002500
Si Si3 0.783332 0.985286 0.323216
Si Si4 0.795305 0.139931 0.501636
O O1 0.695892 0.256351 0.402910
O O2 0.500000 0.218384 0.750000
O O3 0.801915 0.187589 0.532656
O O4 0.223254 0.942288 0.041712
O O5 0.300108 0.875951 0.250293
O O6 0.295182 0.876449 0.749581
O O7 0.001531 0.879819 0.000572
O O8 0.000000 0.994744 0.250000
O O9 0.702678 0.014478 0.540000
#
# Coordination Sequence:
#
# PCOD9453890 Si02
#       4
#     8   8   8   8
#     4  12  28  46  70  96 128 165 218 275 341 396
#     4  10  19  33  56  84 122 166 207 256 325 367
#     4  10  18  26  44  78 127 164 200 255 313 374
#     4  10  21  35  55  82 117 155 208 250 312 385
#
# _framework density 25.077415999999999
#
# number of rings (size 3 to 8) (size 9 to 14) (size 15 to 20)
#    0.000    1.500    2.500    3.750   17.500    0.000 
#    0.000    0.000    0.000    0.000    0.000    0.000 
#    0.000   34.000    0.000    0.000    0.000    0.000 
#
# Total GULP energy -178696.072128 kJ/mol
# GULP energy per Si atom -5584.252254 kJ/mol
# Density = 2.502034 g / cm^3
# Si number density = 25.077416 Si / 1000 Ang^3
#
#
#
# Elastic Constant Matrix: (Units=GPa)
#
#
# Indices 1 2 3 4 5 6 
#
# 1 94.8290 7.1107 12.0804 0.0000 0.0000 0.0000
# 2 7.1107 147.8019 76.2103 0.0000 0.0000 0.0000
# 3 12.0804 76.2103 312.3228 0.0000 0.0000 0.0000
# 4 0.0000 0.0000 0.0000 57.0567 0.0000 0.0000
# 5 0.0000 0.0000 0.0000 0.0000 -10.9208 0.0000
# 6 0.0000 0.0000 0.0000 0.0000 0.0000 -7.1684
#
#
#
# Elastic Compliance Matrix: (Units=1/GPa)
#
#
# Indices 1 2 3 4 5 6 
#
# 1 0.010613 -0.000342 -0.000327 0.000000 0.000000 0.000000
# 2 -0.000342 0.007751 -0.001878 0.000000 0.000000 0.000000
# 3 -0.000327 -0.001878 0.003673 0.000000 0.000000 0.000000
# 4 0.000000 0.000000 0.000000 0.017526 0.000000 0.000000
# 5 0.000000 0.000000 0.000000 0.000000 -0.091568 0.000000
# 6 0.000000 0.000000 0.000000 0.000000 0.000000 -0.139502
#
#
# Mechanical properties :
#
#
# Convention : Reuss Voigt Hill
#
# Bulk Modulus (GPa) = 59.02511 82.86183 70.94347
# Shear Modulus (GPa) = -27.65996 38.43032 5.38518
#
# Velocity S-wave (km/s) = -3.32472 3.91892 1.46700
# Velocity P-wave (km/s) = 2.97488 7.32061 5.58754
#
# Compressibility (1/GPa) = 0.01694194
#
# Stress axis : x y z
#
# Youngs Moduli (GPa) = 94.22764 129.02205 272.27760
#
# Poissons Ratio (x) = 0.04412 0.08905
# Poissons Ratio (y) = 0.03222 0.51134
# Poissons Ratio (z) = 0.03082 0.24231
#
# Static dielectric constant tensor:
#      x y z
#    x 2.019650 0.000000 0.000000 
#    y 0.000000 2.018760 0.000000 
#    z 0.000000 0.000000 2.102260 
# 
# From -- ./inp_files/379.got.cif
#   From: 2010.05.17/outbox.cif.g08.bks.cpg/sg60_1_cif.got.tgz:379.got - 2010.06.03 14:59:27.
