data_PCOD9453388
_publ_section_title
;
Structure prediction by ZEFSAII (Michael W. Deem and Ramdas Pophale) SiO2 
 PCOD9453388
Probable space group: P M M N
;
_chemical_formula_sum "Si O2"
_cell_formula_units_Z 64
_cell_length_a 30.000000
_cell_length_b 9.000000
_cell_length_c 12.000000
_cell_angle_alpha 90.000000
_cell_angle_beta 90.000000
_cell_angle_gamma 90.000000
_cell_volume 3240.000000
_symmetry_space_group_name_H-M "P M M N"
_symmetry_group_IT_number 59
_space_group.IT_coordinate_system_code '2'
_symmetry_cell_setting 'orthorhombic'
loop_
_space_group_symop_operation_xyz
x,y,z
1/2-x,1/2-y,z
1/2+x,-y,-z
-x,1/2+y,-z
-x,-y,-z
1/2+x,1/2+y,-z
1/2-x,y,z
x,1/2-y,z
loop_
_atom_site_type_symbol
_atom_site_label
_atom_site_fract_x
_atom_site_fract_y
_atom_site_fract_z
Si Si1 0.565441 0.924566 0.728689
Si Si2 0.848768 0.079448 0.814574
Si Si3 0.981676 0.427580 0.114852
Si Si4 0.106795 0.074620 0.510427
Si Si5 0.100045 0.570217 0.734712
Si Si6 0.302165 0.574680 0.422709
Si Si7 0.200789 0.417378 0.000202
Si Si8 0.298637 0.926614 0.769662
O O1 0.576364 0.750000 0.752013
O O2 0.517730 0.952462 0.785617
O O3 0.574638 0.944201 0.597043
O O4 0.601535 0.034687 0.781598
O O5 0.846067 0.250000 0.852138
O O6 0.816403 0.063348 0.707303
O O7 0.834001 0.967960 0.909684
O O8 0.979052 0.250000 0.095753
O O9 0.933235 0.476380 0.164677
O O10 0.000000 0.500000 0.000000
O O11 0.111471 0.250000 0.531551
O O12 0.085281 0.992311 0.615631
O O13 0.156670 0.009144 0.483480
O O14 0.099761 0.750000 0.734589
O O15 0.151970 0.518681 0.737869
O O16 0.250000 0.528022 0.438802
O O17 0.304491 0.750000 0.453970
O O18 0.250000 0.419512 0.053058
O O19 0.192993 0.250000 0.957909
O O20 0.201924 0.532119 0.899469
O O21 0.250000 0.982534 0.724192
O O22 0.298546 0.750000 0.751173
#
# Coordination Sequence:
#
# PCOD9453388 Si02
#       8
#     8   8   8   8   8   8   8   8
#     4   9  20  39  58  82 118 155 190 238 295 347
#     4  10  19  31  52  80 111 150 196 243 288 344
#     4  10  23  42  63  89 120 153 193 243 297 354
#     4  10  21  37  58  85 116 153 198 241 292 352
#     4  10  22  40  61  86 117 152 195 245 295 349
#     4   9  18  33  53  79 113 153 196 241 290 343
#     4  10  20  32  48  74 109 149 191 236 290 349
#     4   9  19  36  56  79 110 149 191 236 287 345
#
# _framework density 19.753086
#
# number of rings (size 3 to 8) (size 9 to 14) (size 15 to 20)
#    0.000    2.375    0.000    1.500    1.750    5.000 
#    0.000    1.250    0.000    0.000    0.000    0.000 
#    0.000    0.000    0.000    0.000    0.000    0.000 
#
# Total GULP energy -356592.798597 kJ/mol
# GULP energy per Si atom -5571.762478 kJ/mol
# Density = 1.970813 g / cm^3
# Si number density = 19.753086 Si / 1000 Ang^3
#
#
#
# Elastic Constant Matrix: (Units=GPa)
#
#
# Indices 1 2 3 4 5 6 
#
# 1 103.2682 21.3638 45.6985 0.0000 0.0000 0.0000
# 2 21.3638 5.1940 15.0550 0.0000 0.0000 0.0000
# 3 45.6985 15.0550 61.5142 0.0000 0.0000 0.0000
# 4 0.0000 0.0000 0.0000 25.7812 0.0000 0.0000
# 5 0.0000 0.0000 0.0000 0.0000 7.8939 0.0000
# 6 0.0000 0.0000 0.0000 0.0000 0.0000 23.9205
#
#
#
# Elastic Compliance Matrix: (Units=1/GPa)
#
#
# Indices 1 2 3 4 5 6 
#
# 1 1.498567-10.106536 1.360204 0.000000 0.000000 0.000000
# 2 -10.106536 68.822350 -9.335545 0.000000 0.000000 0.000000
# 3 1.360204 -9.335545 1.290557 0.000000 0.000000 0.000000
# 4 0.000000 0.000000 0.000000 0.038788 0.000000 0.000000
# 5 0.000000 0.000000 0.000000 0.000000 0.126681 0.000000
# 6 0.000000 0.000000 0.000000 0.000000 0.000000 0.041805
#
#
# Mechanical properties :
#
#
# Convention : Reuss Voigt Hill
#
# Bulk Modulus (GPa) = 0.02821 37.13453 18.58137
# Shear Modulus (GPa) = 0.04174 17.37640 8.70907
#
# Velocity S-wave (km/s) = 0.14552 2.96916 2.10203
# Velocity P-wave (km/s) = 0.20627 5.53125 3.91390
#
# Compressibility (1/GPa) = 35.44771864
#
# Stress axis : x y z
#
# Youngs Moduli (GPa) = 0.66730 0.01453 0.77486
#
# Poissons Ratio (x) = 0.14685 -1.05397
# Poissons Ratio (y) = 6.74413 7.23373
# Poissons Ratio (z) = -0.90767 0.13565
#
# Static dielectric constant tensor:
#      x y z
#    x 1.740430 0.000000 0.000000 
#    y 0.000000 1.676840 0.000000 
#    z 0.000000 0.000000 1.709720 
# 
# From -- ./inp_files/19288.got.cif
#   From: 2010.05.17/outbox.ucp.g08.bks.cvg/sg59_10_cif.got.tgz:19288.got - 2010.06.11 16:43:56.
