data_PCOD9453836
_publ_section_title
;
Structure prediction by ZEFSAII (Michael W. Deem and Ramdas Pophale) SiO2 
 PCOD9453836
Probable space group: P B C N
;
_chemical_formula_sum "Si O2"
_cell_formula_units_Z 60
_cell_length_a 17.443187
_cell_length_b 10.877579
_cell_length_c 14.470194
_cell_angle_alpha 90.000000
_cell_angle_beta 90.000000
_cell_angle_gamma 90.000000
_cell_volume 2745.569467
_symmetry_space_group_name_H-M "P B C N"
_symmetry_group_IT_number 60
_symmetry_cell_setting 'orthorhombic'
loop_
_space_group_symop_operation_xyz
x,y,z
1/2-x,1/2-y,1/2+z
1/2+x,1/2-y,-z
-x,y,1/2-z
-x,-y,-z
1/2+x,1/2+y,1/2-z
1/2-x,1/2+y,z
x,-y,1/2+z
loop_
_atom_site_type_symbol
_atom_site_label
_atom_site_fract_x
_atom_site_fract_y
_atom_site_fract_z
Si Si1 0.135708 0.887444 0.147315
Si Si2 0.599426 0.492457 0.095937
Si Si3 0.048448 0.872323 0.570632
Si Si4 0.785194 0.470838 0.814213
Si Si5 0.242251 0.280073 0.535143
Si Si6 0.872620 0.305152 0.319918
Si Si7 0.000000 0.130965 0.750000
Si Si8 0.718576 0.678595 0.158889
O O1 0.211947 0.936671 0.201168
O O2 0.172610 0.808209 0.066243
O O3 0.065929 0.806435 0.189189
O O4 0.093706 0.014684 0.119691
O O5 0.539258 0.591427 0.054638
O O6 0.557385 0.451410 0.188833
O O7 0.679213 0.557787 0.113827
O O8 0.592016 0.376076 0.027744
O O9 0.052292 0.756572 0.638251
O O10 0.773982 0.411147 0.915731
O O11 0.861450 0.550775 0.808976
O O12 0.779961 0.368199 0.734604
O O13 0.313632 0.231574 0.596512
O O14 0.247239 0.264126 0.424873
O O15 0.844902 0.242399 0.224947
#
# Coordination Sequence:
#
# PCOD9453836 Si02
#       8
#     8   8   8   8   8   8   4   8
#     4  10  17  33  55  80 116 138 186 238 290 341
#     4  10  19  30  59  87 116 139 192 251 291 345
#     4  10  18  34  54  88 113 142 184 243 308 335
#     4  10  21  38  53  82 116 152 192 237 288 357
#     4  10  21  34  55  80 115 154 190 243 289 349
#     4  10  22  36  54  79 119 153 190 237 288 363
#     4  10  18  32  54  86 114 146 170 246 290 344
#     4  11  19  35  58  83 107 149 197 239 294 339
#
# _framework density 21.853390000000001
#
# number of rings (size 3 to 8) (size 9 to 14) (size 15 to 20)
#    0.000    1.867    5.333    0.800    0.000    3.200 
#    2.400    0.000    0.000    2.400    0.000    0.000 
#    0.000    1.333    0.000    0.000    0.000    0.000 
#
# Total GULP energy -334076.001862 kJ/mol
# GULP energy per Si atom -5567.933364 kJ/mol
# Density = 2.180365 g / cm^3
# Si number density = 21.853390 Si / 1000 Ang^3
#
#
#
# Elastic Constant Matrix: (Units=GPa)
#
#
# Indices 1 2 3 4 5 6 
#
# 1 44.3884 3.7500 10.4758 0.0000 0.0000 0.0000
# 2 3.7500 58.2688 19.8746 0.0000 0.0000 0.0000
# 3 10.4758 19.8746 128.7495 0.0000 0.0000 0.0000
# 4 0.0000 0.0000 0.0000 21.6961 0.0000 0.0000
# 5 0.0000 0.0000 0.0000 0.0000 32.0612 0.0000
# 6 0.0000 0.0000 0.0000 0.0000 0.0000 21.4303
#
#
#
# Elastic Compliance Matrix: (Units=1/GPa)
#
#
# Indices 1 2 3 4 5 6 
#
# 1 0.023013 -0.000889 -0.001735 0.000000 0.000000 0.000000
# 2 -0.000889 0.018150 -0.002729 0.000000 0.000000 0.000000
# 3 -0.001735 -0.002729 0.008330 0.000000 0.000000 0.000000
# 4 0.000000 0.000000 0.000000 0.046091 0.000000 0.000000
# 5 0.000000 0.000000 0.000000 0.000000 0.031190 0.000000
# 6 0.000000 0.000000 0.000000 0.000000 0.000000 0.046663
#
#
# Mechanical properties :
#
#
# Convention : Reuss Voigt Hill
#
# Bulk Modulus (GPa) = 25.78319 33.28973 29.53646
# Shear Modulus (GPa) = 25.37130 28.19127 26.78129
#
# Velocity S-wave (km/s) = 3.41101 3.59558 3.50451
# Velocity P-wave (km/s) = 5.22850 5.70122 5.46997
#
# Compressibility (1/GPa) = 0.03878495
#
# Stress axis : x y z
#
# Youngs Moduli (GPa) = 43.45364 55.09633 120.05476
#
# Poissons Ratio (x) = 0.04899 0.20832
# Poissons Ratio (y) = 0.03864 0.32768
# Poissons Ratio (z) = 0.07540 0.15038
#
# Static dielectric constant tensor:
#      x y z
#    x 1.855260 0.000000 0.000000 
#    y 0.000000 1.846540 0.000000 
#    z 0.000000 0.000000 1.960310 
# 
# From -- ./inp_files/17798.got.cif
#   From: 2010.05.17/outbox.cif.g08.bks.cpg/sg60_9_cif.got.tgz:17798.got - 2010.06.03 14:59:27.
