data_PCOD9453437
_publ_section_title
;
Structure prediction by ZEFSAII (Michael W. Deem and Ramdas Pophale) SiO2 
 PCOD9453437
Probable space group: P M M N
;
_chemical_formula_sum "Si O2"
_cell_formula_units_Z 64
_cell_length_a 9.000000
_cell_length_b 30.000000
_cell_length_c 12.000000
_cell_angle_alpha 90.000000
_cell_angle_beta 90.000000
_cell_angle_gamma 90.000000
_cell_volume 3240.000000
_symmetry_space_group_name_H-M "P M M N"
_symmetry_group_IT_number 59
_space_group.IT_coordinate_system_code '2'
_symmetry_cell_setting 'orthorhombic'
loop_
_space_group_symop_operation_xyz
x,y,z
1/2-x,1/2-y,z
1/2+x,-y,-z
-x,1/2+y,-z
-x,-y,-z
1/2+x,1/2+y,-z
1/2-x,y,z
x,1/2-y,z
loop_
_atom_site_type_symbol
_atom_site_label
_atom_site_fract_x
_atom_site_fract_y
_atom_site_fract_z
Si Si1 0.428633 0.301829 0.541712
Si Si2 0.430592 0.051952 0.224397
Si Si3 0.928425 0.606506 0.979764
Si Si4 0.929435 0.699857 0.924428
Si Si5 0.077267 0.387079 0.667617
Si Si6 0.082082 0.696230 0.688299
Si Si7 0.577236 0.954408 0.533999
Si Si8 0.926401 0.048062 0.838576
O O1 0.250000 0.304084 0.527913
O O2 0.467517 0.250000 0.563847
O O3 0.466868 0.336560 0.639383
O O4 0.502704 0.317403 0.426152
O O5 0.250000 0.051747 0.221635
O O6 0.475404 0.090994 0.142682
O O7 0.484176 0.060923 0.348036
O O8 0.478042 0.001935 0.190611
O O9 0.750000 0.605217 0.990220
O O10 0.975826 0.657637 0.999733
O O11 0.995818 0.567909 0.054067
O O12 0.750000 0.700248 0.921801
O O13 0.979120 0.750000 0.956114
O O14 0.987995 0.689604 0.800304
O O15 0.250000 0.387624 0.707757
O O16 0.070837 0.415080 0.553857
O O17 0.973598 0.415578 0.747297
O O18 0.250000 0.678737 0.697807
O O19 0.091361 0.750000 0.679143
O O20 0.750000 0.966007 0.548709
O O21 0.500000 0.000000 0.500000
O O22 0.750000 0.046705 0.851049
#
# Coordination Sequence:
#
# PCOD9453437 Si02
#       8
#     8   8   8   8   8   8   8   8
#     4   9  18  33  53  78 107 141 183 226 265 312
#     4   9  19  35  56  81 110 142 174 219 273 320
#     4  10  21  37  59  81 106 140 183 227 270 320
#     4   9  18  33  54  79 106 139 178 220 266 317
#     4  10  21  35  57  82 108 144 183 222 267 322
#     4   9  17  29  47  73 107 143 174 212 264 318
#     4  10  19  34  55  81 112 142 175 213 264 324
#     4  11  22  38  57  77 108 143 181 227 273 322
#
# _framework density 19.753086
#
# number of rings (size 3 to 8) (size 9 to 14) (size 15 to 20)
#    0.000    2.375    1.250    1.125    1.750    2.500 
#    0.000    1.875    0.000    3.750    0.000    0.000 
#    0.000    0.000    0.000    0.000    0.000    0.000 
#
# Total GULP energy -356549.606805 kJ/mol
# GULP energy per Si atom -5571.087606 kJ/mol
# Density = 1.970813 g / cm^3
# Si number density = 19.753086 Si / 1000 Ang^3
#
#
#
# Elastic Constant Matrix: (Units=GPa)
#
#
# Indices 1 2 3 4 5 6 
#
# 1 -3.7210 -10.2244 -8.3282 0.0000 0.0000 0.0000
# 2 -10.2244 -23.0080 -33.3208 0.0000 0.0000 0.0000
# 3 -8.3282 -33.3208 18.0847 0.0000 0.0000 0.0000
# 4 0.0000 0.0000 0.0000 36.3255 0.0000 0.0000
# 5 0.0000 0.0000 0.0000 0.0000 17.9212 0.0000
# 6 0.0000 0.0000 0.0000 0.0000 0.0000 19.6001
#
#
#
# Elastic Compliance Matrix: (Units=1/GPa)
#
#
# Indices 1 2 3 4 5 6 
#
# 1 5.268441 -1.596059 -0.514526 0.000000 0.000000 0.000000
# 2 -1.596059 0.471673 0.134044 0.000000 0.000000 0.000000
# 3 -0.514526 0.134044 0.065323 0.000000 0.000000 0.000000
# 4 0.000000 0.000000 0.000000 0.027529 0.000000 0.000000
# 5 0.000000 0.000000 0.000000 0.000000 0.055800 0.000000
# 6 0.000000 0.000000 0.000000 0.000000 0.000000 0.051020
#
#
# Mechanical properties :
#
#
# Convention : Reuss Voigt Hill
#
# Bulk Modulus (GPa) = 0.53985 -12.48789 -5.97402
# Shear Modulus (GPa) = 0.47572 17.65129 9.06351
#
# Velocity S-wave (km/s) = 0.49128 2.99255 2.14438
# Velocity P-wave (km/s) = 0.77182 2.36744 1.76075
#
# Compressibility (1/GPa) = 1.85235567
#
# Stress axis : x y z
#
# Youngs Moduli (GPa) = 0.18981 2.12011 15.30846
#
# Poissons Ratio (x) = 3.38382 7.87660
# Poissons Ratio (y) = 0.30295 -2.05201
# Poissons Ratio (z) = 0.09766 -0.28419
#
# Static dielectric constant tensor:
#      x y z
#    x 1.681560 0.000000 0.000000 
#    y 0.000000 1.702810 0.000000 
#    z 0.000000 0.000000 2.021150 
# 
# From -- ./inp_files/14958.got.cif
#   From: 2010.05.17/outbox.ucp.g08.bks.cvg/sg59_8_cif.got.tgz:14958.got - 2010.06.11 16:43:56.
