data_PCOD9453845
_publ_section_title
;
Structure prediction by ZEFSAII (Michael W. Deem and Ramdas Pophale) SiO2 
 PCOD9453845
Probable space group: P B C N
;
_chemical_formula_sum "Si O2"
_cell_formula_units_Z 56
_cell_length_a 19.921662
_cell_length_b 8.634851
_cell_length_c 17.124542
_cell_angle_alpha 90.000000
_cell_angle_beta 90.000000
_cell_angle_gamma 90.000000
_cell_volume 2945.773699
_symmetry_space_group_name_H-M "P B C N"
_symmetry_group_IT_number 60
_symmetry_cell_setting 'orthorhombic'
loop_
_space_group_symop_operation_xyz
x,y,z
1/2-x,1/2-y,1/2+z
1/2+x,1/2-y,-z
-x,y,1/2-z
-x,-y,-z
1/2+x,1/2+y,1/2-z
1/2-x,1/2+y,z
x,-y,1/2+z
loop_
_atom_site_type_symbol
_atom_site_label
_atom_site_fract_x
_atom_site_fract_y
_atom_site_fract_z
Si Si1 0.159744 0.431703 0.862338
Si Si2 0.659908 0.660161 0.038160
Si Si3 0.408131 0.209642 0.806308
Si Si4 0.556144 0.870065 0.513897
Si Si5 0.557571 0.310370 0.854327
Si Si6 0.278036 0.639266 0.913582
Si Si7 0.465689 0.614023 0.563440
O O1 0.110903 0.527821 0.806442
O O2 0.121332 0.440841 0.945598
O O3 0.228620 0.527389 0.865762
O O4 0.180182 0.253138 0.857674
O O5 0.633399 0.708766 0.124186
O O6 0.729446 0.755314 0.031984
O O7 0.675152 0.477110 0.038677
O O8 0.601070 0.686302 0.975738
O O9 0.484423 0.242607 0.831543
O O10 0.396670 0.275907 0.720284
O O11 0.574503 0.779102 0.434550
O O12 0.520541 0.748216 0.573259
O O13 0.500000 0.000000 0.500000
O O14 0.551494 0.494557 0.868247
O O15 0.500000 0.500000 0.500000
#
# Coordination Sequence:
#
# PCOD9453845 Si02
#       7
#     8   8   8   8   8   8   8
#     4  10  19  33  55  77 106 143 191 227 270 328
#     4  10  17  34  54  78 106 142 192 221 271 324
#     4  10  19  34  53  76 112 148 173 223 280 338
#     4  11  18  32  55  84 113 145 177 230 281 338
#     4  10  20  33  52  81 116 144 169 221 294 343
#     4   9  19  31  54  79 100 141 196 239 247 310
#     4  10  18  31  54  81 110 148 175 222 285 346
#
# _framework density 19.010287000000002
#
# number of rings (size 3 to 8) (size 9 to 14) (size 15 to 20)
#    0.000    2.000    4.286    2.571    0.000    0.000 
#    0.000    1.429    0.000   27.429    0.000    0.000 
#    0.000    0.000    0.000    0.000    0.000    0.000 
#
# Total GULP energy -311833.393036 kJ/mol
# GULP energy per Si atom -5568.453447 kJ/mol
# Density = 1.896702 g / cm^3
# Si number density = 19.010287 Si / 1000 Ang^3
#
#
#
# Elastic Constant Matrix: (Units=GPa)
#
#
# Indices 1 2 3 4 5 6 
#
# 1 56.5317 15.6203 12.5193 0.0000 0.0000 0.0000
# 2 15.6203 86.2666 12.8956 0.0000 0.0000 0.0000
# 3 12.5193 12.8956 65.3390 0.0000 0.0000 0.0000
# 4 0.0000 0.0000 0.0000 19.7292 0.0000 0.0000
# 5 0.0000 0.0000 0.0000 0.0000 8.9829 0.0000
# 6 0.0000 0.0000 0.0000 0.0000 0.0000 42.7824
#
#
#
# Elastic Compliance Matrix: (Units=1/GPa)
#
#
# Indices 1 2 3 4 5 6 
#
# 1 0.019206 -0.003017 -0.003085 0.000000 0.000000 0.000000
# 2 -0.003017 0.012418 -0.001873 0.000000 0.000000 0.000000
# 3 -0.003085 -0.001873 0.016265 0.000000 0.000000 0.000000
# 4 0.000000 0.000000 0.000000 0.050686 0.000000 0.000000
# 5 0.000000 0.000000 0.000000 0.000000 0.111322 0.000000
# 6 0.000000 0.000000 0.000000 0.000000 0.000000 0.023374
#
#
# Mechanical properties :
#
#
# Convention : Reuss Voigt Hill
#
# Bulk Modulus (GPa) = 31.30734 32.24530 31.77632
# Shear Modulus (GPa) = 19.24061 25.43906 22.33984
#
# Velocity S-wave (km/s) = 3.18483 3.66207 3.43176
# Velocity P-wave (km/s) = 5.47983 5.90592 5.69686
#
# Compressibility (1/GPa) = 0.03194140
#
# Stress axis : x y z
#
# Youngs Moduli (GPa) = 52.06761 80.52736 61.47998
#
# Poissons Ratio (x) = 0.24291 0.18964
# Poissons Ratio (y) = 0.15706 0.11515
# Poissons Ratio (z) = 0.16061 0.15082
#
# Static dielectric constant tensor:
#      x y z
#    x 1.701970 0.000000 0.000000 
#    y 0.000000 1.740700 0.000000 
#    z 0.000000 0.000000 1.672890 
# 
# From -- ./inp_files/21021.got.cif
#   From: 2010.05.17/outbox.cif.g08.bks.cpg/sg60_11_cif.got.tgz:21021.got - 2010.06.03 14:59:27.
