data_PCOD9453539
_publ_section_title
;
Structure prediction by ZEFSAII (Michael W. Deem and Ramdas Pophale) SiO2 
 PCOD9453539
Probable space group: P M M N
;
_chemical_formula_sum "Si O2"
_cell_formula_units_Z 56
_cell_length_a 21.000000
_cell_length_b 12.000000
_cell_length_c 12.000000
_cell_angle_alpha 90.000000
_cell_angle_beta 90.000000
_cell_angle_gamma 90.000000
_cell_volume 3024.000000
_symmetry_space_group_name_H-M "P M M N"
_symmetry_group_IT_number 59
_space_group.IT_coordinate_system_code '2'
_symmetry_cell_setting 'orthorhombic'
loop_
_space_group_symop_operation_xyz
x,y,z
1/2-x,1/2-y,z
1/2+x,-y,-z
-x,1/2+y,-z
-x,-y,-z
1/2+x,1/2+y,-z
1/2-x,y,z
x,1/2-y,z
loop_
_atom_site_type_symbol
_atom_site_label
_atom_site_fract_x
_atom_site_fract_y
_atom_site_fract_z
Si Si1 0.946313 0.624255 0.233046
Si Si2 0.574669 0.533270 0.000369
Si Si3 0.821019 0.119071 0.114126
Si Si4 0.922542 0.516172 0.746477
Si Si5 0.496958 0.375704 0.435859
Si Si6 0.129457 0.556157 0.646106
Si Si7 0.324408 0.882103 0.403853
O O1 0.956799 0.750000 0.264127
O O2 0.922169 0.617586 0.104884
O O3 0.895715 0.564872 0.314517
O O4 0.013060 0.558324 0.242010
O O5 0.622772 0.437663 0.043564
O O6 0.500000 0.500000 0.000000
O O7 0.591437 0.559582 0.871657
O O8 0.750000 0.075865 0.086564
O O9 0.822409 0.250000 0.092190
O O10 0.833082 0.100824 0.246400
O O11 0.868078 0.441873 0.688459
O O12 0.941838 0.608759 0.655616
O O13 0.500000 0.500000 0.500000
O O14 0.491126 0.250000 0.488416
O O15 0.564401 0.375665 0.372562
O O16 0.163745 0.565585 0.527086
O O17 0.250000 0.892547 0.376244
O O18 0.340199 0.750000 0.410492
#
# Coordination Sequence:
#
# PCOD9453539 Si02
#       7
#     8   8   8   8   8   8   8
#     4   9  19  35  59  85 110 147 192 245 305 357
#     4   9  20  36  55  83 118 153 195 246 302 364
#     4  10  20  35  58  86 118 156 200 255 317 375
#     4  10  21  37  54  84 118 152 190 242 297 361
#     4  11  22  36  59  89 121 158 200 248 305 368
#     4  10  20  35  55  85 119 151 193 250 302 364
#     4  11  22  35  54  81 116 158 198 240 299 365
#
# _framework density 18.518519000000001
#
# number of rings (size 3 to 8) (size 9 to 14) (size 15 to 20)
#    0.000    2.000    1.429    3.000    0.000    7.429 
#    0.000    1.429    0.000   12.000    0.000    4.000 
#    0.000    0.000    0.000    0.000    0.000    0.000 
#
# Total GULP energy -311815.565156 kJ/mol
# GULP energy per Si atom -5568.135092 kJ/mol
# Density = 1.847637 g / cm^3
# Si number density = 18.518519 Si / 1000 Ang^3
#
#
#
# Elastic Constant Matrix: (Units=GPa)
#
#
# Indices 1 2 3 4 5 6 
#
# 1 97.3135 19.5566 28.9562 0.0000 0.0000 0.0000
# 2 19.5566 92.6412 22.9259 0.0000 0.0000 0.0000
# 3 28.9562 22.9259 126.8059 0.0000 0.0000 0.0000
# 4 0.0000 0.0000 0.0000 6.4424 0.0000 0.0000
# 5 0.0000 0.0000 0.0000 0.0000 25.5315 0.0000
# 6 0.0000 0.0000 0.0000 0.0000 0.0000 18.6291
#
#
#
# Elastic Compliance Matrix: (Units=1/GPa)
#
#
# Indices 1 2 3 4 5 6 
#
# 1 0.011314 -0.001831 -0.002253 0.000000 0.000000 0.000000
# 2 -0.001831 0.011596 -0.001678 0.000000 0.000000 0.000000
# 3 -0.002253 -0.001678 0.008704 0.000000 0.000000 0.000000
# 4 0.000000 0.000000 0.000000 0.155222 0.000000 0.000000
# 5 0.000000 0.000000 0.000000 0.000000 0.039167 0.000000
# 6 0.000000 0.000000 0.000000 0.000000 0.000000 0.053679
#
#
# Mechanical properties :
#
#
# Convention : Reuss Voigt Hill
#
# Bulk Modulus (GPa) = 49.77506 51.07087 50.42297
# Shear Modulus (GPa) = 16.78392 26.47539 21.62966
#
# Velocity S-wave (km/s) = 3.01380 3.78520 3.42131
# Velocity P-wave (km/s) = 6.24880 6.83680 6.54940
#
# Compressibility (1/GPa) = 0.02009038
#
# Stress axis : x y z
#
# Youngs Moduli (GPa) = 88.38365 86.23497 114.89102
#
# Poissons Ratio (x) = 0.15790 0.25880
# Poissons Ratio (y) = 0.16183 0.19284
# Poissons Ratio (z) = 0.19909 0.14474
#
# Static dielectric constant tensor:
#      x y z
#    x 1.619270 0.000000 0.000000 
#    y 0.000000 1.665960 0.000000 
#    z 0.000000 0.000000 1.682840 
# 
# From -- ./inp_files/18323.got.cif
#   From: 2010.05.17/outbox.ucp.g08.bks.cvg/sg59_10_cif.got.tgz:18323.got - 2010.06.11 16:43:56.
