data_PCOD9453657
_publ_section_title
;
Structure prediction by ZEFSAII (Michael W. Deem and Ramdas Pophale) SiO2 
 PCOD9453657
Probable space group: P M M N
;
_chemical_formula_sum "Si O2"
_cell_formula_units_Z 56
_cell_length_a 21.000000
_cell_length_b 9.000000
_cell_length_c 15.000000
_cell_angle_alpha 90.000000
_cell_angle_beta 90.000000
_cell_angle_gamma 90.000000
_cell_volume 2835.000000
_symmetry_space_group_name_H-M "P M M N"
_symmetry_group_IT_number 59
_space_group.IT_coordinate_system_code '2'
_symmetry_cell_setting 'orthorhombic'
loop_
_space_group_symop_operation_xyz
x,y,z
1/2-x,1/2-y,z
1/2+x,-y,-z
-x,1/2+y,-z
-x,-y,-z
1/2+x,1/2+y,-z
1/2-x,y,z
x,1/2-y,z
loop_
_atom_site_type_symbol
_atom_site_label
_atom_site_fract_x
_atom_site_fract_y
_atom_site_fract_z
Si Si1 0.063719 0.425938 0.610938
Si Si2 0.498394 0.073246 0.901744
Si Si3 0.625823 0.575799 0.881811
Si Si4 0.890453 0.425273 0.220204
Si Si5 0.926445 0.926298 0.598047
Si Si6 0.323605 0.584039 0.953071
Si Si7 0.679278 0.075750 0.720196
O O1 0.056103 0.250000 0.626001
O O2 0.110204 0.494492 0.684986
O O3 0.083815 0.448117 0.508171
O O4 0.995615 0.506886 0.620917
O O5 0.490965 0.250000 0.907829
O O6 0.564862 0.024020 0.859315
O O7 0.445447 0.999572 0.839741
O O8 0.500000 0.000000 0.000000
O O9 0.613175 0.750000 0.872692
O O10 0.676921 0.517629 0.811578
O O11 0.644483 0.535657 0.982940
O O12 0.902174 0.250000 0.233240
O O13 0.831656 0.442036 0.152149
O O14 0.925891 0.750000 0.616572
O O15 0.873027 0.008877 0.654499
O O16 0.250000 0.587412 0.976251
O O17 0.351539 0.750000 0.971365
O O18 0.750000 0.062645 0.680930
O O19 0.667536 0.250000 0.738633
#
# Coordination Sequence:
#
# PCOD9453657 Si02
#       7
#     8   8   8   8   8   8   8
#     4  10  21  38  62  90 120 152 189 239 297 353
#     4  12  23  37  57  84 118 153 192 240 292 345
#     4  12  24  38  59  86 117 155 196 240 292 350
#     4  11  22  37  59  86 118 154 193 238 287 345
#     4  10  21  39  63  90 119 151 191 240 296 353
#     4  10  22  40  59  79 110 153 197 241 286 335
#     4  11  24  41  61  86 119 159 200 245 297 354
#
# _framework density 19.753086
#
# number of rings (size 3 to 8) (size 9 to 14) (size 15 to 20)
#    0.000    1.143    1.429    5.571    0.000    5.429 
#    0.000    0.714    0.000    2.571    0.000    0.000 
#    0.000    0.000    0.000    0.000    0.000    0.000 
#
# Total GULP energy -312853.518983 kJ/mol
# GULP energy per Si atom -5586.669982 kJ/mol
# Density = 1.970813 g / cm^3
# Si number density = 19.753086 Si / 1000 Ang^3
#
#
#
# Elastic Constant Matrix: (Units=GPa)
#
#
# Indices 1 2 3 4 5 6 
#
# 1 47.2329 10.6602 7.3346 0.0000 0.0000 0.0000
# 2 10.6602 98.0605 36.1392 0.0000 0.0000 0.0000
# 3 7.3346 36.1392 76.2904 0.0000 0.0000 0.0000
# 4 0.0000 0.0000 0.0000 39.8754 0.0000 0.0000
# 5 0.0000 0.0000 0.0000 0.0000 24.4795 0.0000
# 6 0.0000 0.0000 0.0000 0.0000 0.0000 9.4665
#
#
#
# Elastic Compliance Matrix: (Units=1/GPa)
#
#
# Indices 1 2 3 4 5 6 
#
# 1 0.021791 -0.001935 -0.001179 0.000000 0.000000 0.000000
# 2 -0.001935 0.012526 -0.005748 0.000000 0.000000 0.000000
# 3 -0.001179 -0.005748 0.015944 0.000000 0.000000 0.000000
# 4 0.000000 0.000000 0.000000 0.025078 0.000000 0.000000
# 5 0.000000 0.000000 0.000000 0.000000 0.040850 0.000000
# 6 0.000000 0.000000 0.000000 0.000000 0.000000 0.105636
#
#
# Mechanical properties :
#
#
# Convention : Reuss Voigt Hill
#
# Bulk Modulus (GPa) = 30.73179 36.65019 33.69099
# Shear Modulus (GPa) = 19.96850 25.92762 22.94806
#
# Velocity S-wave (km/s) = 3.18292 3.62689 3.41214
# Velocity P-wave (km/s) = 5.39442 6.01112 5.71110
#
# Compressibility (1/GPa) = 0.03253959
#
# Stress axis : x y z
#
# Youngs Moduli (GPa) = 45.88982 79.83146 62.71990
#
# Poissons Ratio (x) = 0.15444 0.07392
# Poissons Ratio (y) = 0.08878 0.36050
# Poissons Ratio (z) = 0.05409 0.45886
#
# Static dielectric constant tensor:
#      x y z
#    x 1.763350 0.000000 0.000000 
#    y 0.000000 1.671890 0.000000 
#    z 0.000000 0.000000 1.711840 
# 
# From -- ./inp_files/24262.got.cif
#   From: 2010.05.17/outbox.ucp.g08.bks.cvg/sg59_13_cif.got.tgz:24262.got - 2010.06.11 16:43:56.
