data_PCOD9453139
_publ_section_title
;
Structure prediction by ZEFSAII (Michael W. Deem and Ramdas Pophale) SiO2 
 PCOD9453139
Probable space group: P M M N
;
_chemical_formula_sum "Si O2"
_cell_formula_units_Z 64
_cell_length_a 18.128168
_cell_length_b 8.488097
_cell_length_c 22.031483
_cell_angle_alpha 90.000000
_cell_angle_beta 90.000000
_cell_angle_gamma 90.000000
_cell_volume 3390.064669
_symmetry_space_group_name_H-M "P M M N"
_symmetry_group_IT_number 59
_space_group.IT_coordinate_system_code '2'
_symmetry_cell_setting 'orthorhombic'
loop_
_space_group_symop_operation_xyz
x,y,z
1/2-x,1/2-y,z
1/2+x,-y,-z
-x,1/2+y,-z
-x,-y,-z
1/2+x,1/2+y,-z
1/2-x,y,z
x,1/2-y,z
loop_
_atom_site_type_symbol
_atom_site_label
_atom_site_fract_x
_atom_site_fract_y
_atom_site_fract_z
Si Si1 0.835587 0.937564 0.715162
Si Si2 0.335045 0.064711 0.496750
Si Si3 0.064106 0.566519 0.393201
Si Si4 0.669252 0.558047 0.127167
Si Si5 0.981026 0.559651 0.066350
Si Si6 0.943590 0.439406 0.810345
Si Si7 0.099809 0.061024 0.746966
Si Si8 0.901485 0.432785 0.384712
O O1 0.750000 0.986218 0.712977
O O2 0.839008 0.750000 0.705589
O O3 0.883528 0.019693 0.662822
O O4 0.874140 0.980621 0.778766
O O5 0.250000 0.020008 0.485701
O O6 0.342953 0.250000 0.482712
O O7 0.390259 0.969379 0.453904
O O8 0.356908 0.033072 0.566100
O O9 0.044568 0.750000 0.388776
O O10 0.988423 0.469549 0.392331
O O11 0.750000 0.503049 0.108292
O O12 0.668704 0.750000 0.125443
O O13 0.600575 0.505299 0.086671
O O14 0.651798 0.515800 0.196848
O O15 0.980989 0.750000 0.066258
O O16 0.036318 0.511691 0.120920
O O17 0.000000 0.500000 0.000000
O O18 0.934221 0.250000 0.809444
O O19 0.016434 0.474394 0.769717
O O20 0.104118 0.250000 0.738733
O O21 0.117295 0.978317 0.684147
O O22 0.887068 0.250000 0.396033
#
# Coordination Sequence:
#
# PCOD9453139 Si02
#       8
#     8   8   8   8   8   8   8   8
#     4  11  23  37  56  85 116 145 184 235 290 343
#     4  11  25  44  62  81 110 148 190 237 288 342
#     4  12  24  40  62  85 112 147 190 235 283 342
#     4   8  15  30  54  82 111 144 185 231 277 329
#     4   9  18  33  55  83 112 149 192 231 275 329
#     4   9  18  34  55  78 109 147 188 230 271 331
#     4   9  17  32  55  82 108 140 184 229 276 331
#     4  12  24  38  59  86 116 149 187 232 282 339
#
# _framework density 18.878696000000001
#
# number of rings (size 3 to 8) (size 9 to 14) (size 15 to 20)
#    0.000    1.875    1.250    5.250    0.000    4.500 
#    0.000    3.750    0.000    3.375    0.000    0.000 
#    0.000    0.000    0.000    0.000    0.000    0.000 
#
# Total GULP energy -357508.394395 kJ/mol
# GULP energy per Si atom -5586.068662 kJ/mol
# Density = 1.883573 g / cm^3
# Si number density = 18.878696 Si / 1000 Ang^3
#
#
#
# Elastic Constant Matrix: (Units=GPa)
#
#
# Indices 1 2 3 4 5 6 
#
# 1 40.7211 -5.1624 4.8750 0.0000 0.0000 0.0000
# 2 -5.1624 17.4592 -3.0933 0.0000 0.0000 0.0000
# 3 4.8750 -3.0933 94.0403 0.0000 0.0000 0.0000
# 4 0.0000 0.0000 0.0000 34.1913 0.0000 0.0000
# 5 0.0000 0.0000 0.0000 0.0000 13.7189 0.0000
# 6 0.0000 0.0000 0.0000 0.0000 0.0000 19.4533
#
#
#
# Elastic Compliance Matrix: (Units=1/GPa)
#
#
# Indices 1 2 3 4 5 6 
#
# 1 0.025623 0.007384 -0.001085 0.000000 0.000000 0.000000
# 2 0.007384 0.059740 0.001582 0.000000 0.000000 0.000000
# 3 -0.001085 0.001582 0.010742 0.000000 0.000000 0.000000
# 4 0.000000 0.000000 0.000000 0.029247 0.000000 0.000000
# 5 0.000000 0.000000 0.000000 0.000000 0.072892 0.000000
# 6 0.000000 0.000000 0.000000 0.000000 0.000000 0.051405
#
#
# Mechanical properties :
#
#
# Convention : Reuss Voigt Hill
#
# Bulk Modulus (GPa) = 8.93914 16.16213 12.55063
# Shear Modulus (GPa) = 18.43811 23.84611 21.14211
#
# Velocity S-wave (km/s) = 3.12855 3.55790 3.35011
# Velocity P-wave (km/s) = 4.21850 5.04557 4.65046
#
# Compressibility (1/GPa) = 0.11186762
#
# Stress axis : x y z
#
# Youngs Moduli (GPa) = 39.02692 16.73913 93.09201
#
# Poissons Ratio (x) = -0.12360 0.10104
# Poissons Ratio (y) = -0.28818 -0.14730
# Poissons Ratio (z) = 0.04236 -0.02649
#
# Static dielectric constant tensor:
#      x y z
#    x 1.648390 0.000000 0.000000 
#    y 0.000000 1.644310 0.000000 
#    z 0.000000 0.000000 1.642830 
# 
# From -- ./inp_files/30786.got.cif
#   From: 2010.05.17/outbox.cif.g08.bks.cpg/sg59_16_cif.got.tgz:30786.got - 2010.06.03 14:40:33.
