data_PCOD9453174
_publ_section_title
;
Structure prediction by ZEFSAII (Michael W. Deem and Ramdas Pophale) SiO2 
 PCOD9453174
Probable space group: P M M N
;
_chemical_formula_sum "Si O2"
_cell_formula_units_Z 48
_cell_length_a 14.461856
_cell_length_b 9.687594
_cell_length_c 17.820331
_cell_angle_alpha 90.000000
_cell_angle_beta 90.000000
_cell_angle_gamma 90.000000
_cell_volume 2496.638877
_symmetry_space_group_name_H-M "P M M N"
_symmetry_group_IT_number 59
_space_group.IT_coordinate_system_code '2'
_symmetry_cell_setting 'orthorhombic'
loop_
_space_group_symop_operation_xyz
x,y,z
1/2-x,1/2-y,z
1/2+x,-y,-z
-x,1/2+y,-z
-x,-y,-z
1/2+x,1/2+y,-z
1/2-x,y,z
x,1/2-y,z
loop_
_atom_site_type_symbol
_atom_site_label
_atom_site_fract_x
_atom_site_fract_y
_atom_site_fract_z
Si Si1 0.637606 0.092663 0.146315
Si Si2 0.362292 0.409763 0.158245
Si Si3 0.489330 0.085343 0.576318
Si Si4 0.861180 0.411566 0.317199
Si Si5 0.362847 0.409124 0.991979
Si Si6 0.142227 0.588435 0.299148
O O1 0.750000 0.091867 0.145173
O O2 0.608063 0.250000 0.133554
O O3 0.612387 0.052506 0.231181
O O4 0.605385 0.997360 0.078655
O O5 0.250000 0.412860 0.158825
O O6 0.389763 0.250000 0.166883
O O7 0.392212 0.499545 0.228724
O O8 0.390128 0.459207 0.075142
O O9 0.475435 0.250000 0.564293
O O10 0.580720 0.067239 0.627512
O O11 0.500000 0.000000 0.500000
O O12 0.408417 0.014768 0.625017
O O13 0.750000 0.418791 0.322719
O O14 0.887174 0.250000 0.330242
O O15 0.250000 0.410713 0.990772
O O16 0.391367 0.250000 0.984819
O O17 0.250000 0.554667 0.313528
O O18 0.137099 0.750000 0.279076
#
# Coordination Sequence:
#
# PCOD9453174 Si02
#       6
#     8   8   8   8   8   8
#     4   8  14  25  43  69 100 136 177 215 255 307
#     4   8  14  25  43  70 103 138 176 216 259 308
#     4  11  24  40  59  84 110 138 176 221 272 331
#     4   9  19  37  59  82 111 146 181 221 271 322
#     4   8  13  21  36  64 102 138 172 213 258 302
#     4   9  19  36  56  78 106 140 176 216 265 318
#
# _framework density 19.225847000000002
#
# number of rings (size 3 to 8) (size 9 to 14) (size 15 to 20)
#    0.000    3.167    0.000    2.500    0.000    3.667 
#    0.000    6.667    0.000    1.000    0.000    0.000 
#    0.000    0.000    0.000    0.000    0.000    0.000 
#
# Total GULP energy -267743.041562 kJ/mol
# GULP energy per Si atom -5577.980033 kJ/mol
# Density = 1.918209 g / cm^3
# Si number density = 19.225847 Si / 1000 Ang^3
#
#
#
# Elastic Constant Matrix: (Units=GPa)
#
#
# Indices 1 2 3 4 5 6 
#
# 1 73.0396 39.1270 36.4730 0.0000 0.0000 0.0000
# 2 39.1270 102.7709 120.2042 0.0000 0.0000 0.0000
# 3 36.4730 120.2042 191.3752 0.0000 0.0000 0.0000
# 4 0.0000 0.0000 0.0000 43.0804 0.0000 0.0000
# 5 0.0000 0.0000 0.0000 0.0000 43.2501 0.0000
# 6 0.0000 0.0000 0.0000 0.0000 0.0000 12.3544
#
#
#
# Elastic Compliance Matrix: (Units=1/GPa)
#
#
# Indices 1 2 3 4 5 6 
#
# 1 0.017717 -0.010537 0.003242 0.000000 0.000000 0.000000
# 2 -0.010537 0.042937 -0.024961 0.000000 0.000000 0.000000
# 3 0.003242 -0.024961 0.020286 0.000000 0.000000 0.000000
# 4 0.000000 0.000000 0.000000 0.023212 0.000000 0.000000
# 5 0.000000 0.000000 0.000000 0.000000 0.023121 0.000000
# 6 0.000000 0.000000 0.000000 0.000000 0.000000 0.080943
#
#
# Mechanical properties :
#
#
# Convention : Reuss Voigt Hill
#
# Bulk Modulus (GPa) = 60.87312 84.31045 72.59178
# Shear Modulus (GPa) = 17.97237 31.16239 24.56738
#
# Velocity S-wave (km/s) = 3.06077 4.03036 3.57855
# Velocity P-wave (km/s) = 6.64996 8.09977 7.41040
#
# Compressibility (1/GPa) = 0.01642761
#
# Stress axis : x y z
#
# Youngs Moduli (GPa) = 56.44307 23.28979 49.29561
#
# Poissons Ratio (x) = 0.24540 -0.15980
# Poissons Ratio (y) = 0.59473 1.23047
# Poissons Ratio (z) = -0.18297 0.58134
#
# Static dielectric constant tensor:
#      x y z
#    x 1.736740 0.000000 0.000000 
#    y 0.000000 1.641770 0.000000 
#    z 0.000000 0.000000 1.648150 
# 
# From -- ./inp_files/27368.got.cif
#   From: 2010.05.17/outbox.cif.g08.bks.cpg/sg59_14_cif.got.tgz:27368.got - 2010.06.03 14:40:33.
