data_PCOD9453721
_publ_section_title
;
Structure prediction by ZEFSAII (Michael W. Deem and Ramdas Pophale) SiO2 
 PCOD9453721
Probable space group: P B C N
;
_chemical_formula_sum "Si O2"
_cell_formula_units_Z 48
_cell_length_a 17.969424
_cell_length_b 26.944129
_cell_length_c 5.373143
_cell_angle_alpha 90.000000
_cell_angle_beta 90.000000
_cell_angle_gamma 90.000000
_cell_volume 2601.517216
_symmetry_space_group_name_H-M "P B C N"
_symmetry_group_IT_number 60
_symmetry_cell_setting 'orthorhombic'
loop_
_space_group_symop_operation_xyz
x,y,z
1/2-x,1/2-y,1/2+z
1/2+x,1/2-y,-z
-x,y,1/2-z
-x,-y,-z
1/2+x,1/2+y,1/2-z
1/2-x,1/2+y,z
x,-y,1/2+z
loop_
_atom_site_type_symbol
_atom_site_label
_atom_site_fract_x
_atom_site_fract_y
_atom_site_fract_z
Si Si1 0.285679 0.273495 0.492311
Si Si2 0.417711 0.974093 0.093469
Si Si3 0.301145 0.128751 0.027331
Si Si4 0.542432 0.756747 0.497812
Si Si5 0.249063 0.485048 0.566428
Si Si6 0.898771 0.364041 0.475928
O O1 0.248714 0.247801 0.735337
O O2 0.264437 0.331300 0.507460
O O3 0.373140 0.262536 0.497440
O O4 0.436014 0.918213 0.018309
O O5 0.438929 0.987832 0.374608
O O6 0.326960 0.981432 0.087249
O O7 0.273727 0.072199 0.044426
O O8 0.346822 0.139200 0.280207
O O9 0.352424 0.136122 0.782499
O O10 0.500000 0.739771 0.250000
O O11 0.548225 0.816808 0.485378
O O12 0.500000 0.742930 0.750000
O O13 0.289823 0.503930 0.322576
#
# Coordination Sequence:
#
# PCOD9453721 Si02
#       6
#     8   8   8   8   8   8
#     4  12  23  40  62  89 114 145 199 256 295 340
#     4  10  16  27  47  77 107 147 178 227 291 316
#     4  12  19  32  56  87 111 142 189 240 291 336
#     4  12  26  43  59  80 118 159 198 242 299 353
#     4  10  16  27  45  80 114 144 165 226 303 326
#     4  12  20  33  57  80 108 153 193 230 283 341
#
# _framework density 18.450772000000001
#
# number of rings (size 3 to 8) (size 9 to 14) (size 15 to 20)
#    0.000    0.667   10.000    2.000    0.000    0.000 
#    0.000    0.000    0.000    3.000    0.000    0.000 
#    0.000    4.000    0.000    0.000    0.000    0.000 
#
# Total GULP energy -268273.469541 kJ/mol
# GULP energy per Si atom -5589.030615 kJ/mol
# Density = 1.840878 g / cm^3
# Si number density = 18.450772 Si / 1000 Ang^3
#
#
#
# Elastic Constant Matrix: (Units=GPa)
#
#
# Indices 1 2 3 4 5 6 
#
# 1 87.4585 18.3030 52.5538 0.0000 0.0000 0.0000
# 2 18.3030 55.2238 18.6002 0.0000 0.0000 0.0000
# 3 52.5538 18.6002 179.5073 0.0000 0.0000 0.0000
# 4 0.0000 0.0000 0.0000 19.5037 0.0000 0.0000
# 5 0.0000 0.0000 0.0000 0.0000 23.4314 0.0000
# 6 0.0000 0.0000 0.0000 0.0000 0.0000 13.6558
#
#
#
# Elastic Compliance Matrix: (Units=1/GPa)
#
#
# Indices 1 2 3 4 5 6 
#
# 1 0.014499 -0.003498 -0.003882 0.000000 0.000000 0.000000
# 2 -0.003498 0.019607 -0.001008 0.000000 0.000000 0.000000
# 3 -0.003882 -0.001008 0.006812 0.000000 0.000000 0.000000
# 4 0.000000 0.000000 0.000000 0.051272 0.000000 0.000000
# 5 0.000000 0.000000 0.000000 0.000000 0.042678 0.000000
# 6 0.000000 0.000000 0.000000 0.000000 0.000000 0.073229
#
#
# Mechanical properties :
#
#
# Convention : Reuss Voigt Hill
#
# Bulk Modulus (GPa) = 41.42146 55.67817 48.54982
# Shear Modulus (GPa) = 21.46666 26.83370 24.15018
#
# Velocity S-wave (km/s) = 3.41465 3.81772 3.62179
# Velocity P-wave (km/s) = 6.16805 7.04808 6.62270
#
# Compressibility (1/GPa) = 0.02414207
#
# Stress axis : x y z
#
# Youngs Moduli (GPa) = 68.97071 51.00279 146.80323
#
# Poissons Ratio (x) = 0.17840 0.56994
# Poissons Ratio (y) = 0.24124 0.14792
# Poissons Ratio (z) = 0.26777 0.05139
#
# Static dielectric constant tensor:
#      x y z
#    x 1.663170 0.000000 0.000000 
#    y 0.000000 1.635350 0.000000 
#    z 0.000000 0.000000 1.714940 
# 
# From -- ./inp_files/1311.got.cif
#   From: 2010.05.17/outbox.cif.g08.bks.cpg/sg60_1_cif.got.tgz:1311.got - 2010.06.03 14:59:27.
