data_PCOD9453141
_publ_section_title
;
Structure prediction by ZEFSAII (Michael W. Deem and Ramdas Pophale) SiO2 
 PCOD9453141
Probable space group: P M M N
;
_chemical_formula_sum "Si O2"
_cell_formula_units_Z 40
_cell_length_a 14.649662
_cell_length_b 8.636288
_cell_length_c 17.651917
_cell_angle_alpha 90.000000
_cell_angle_beta 90.000000
_cell_angle_gamma 90.000000
_cell_volume 2233.297594
_symmetry_space_group_name_H-M "P M M N"
_symmetry_group_IT_number 59
_space_group.IT_coordinate_system_code '2'
_symmetry_cell_setting 'orthorhombic'
loop_
_space_group_symop_operation_xyz
x,y,z
1/2-x,1/2-y,z
1/2+x,-y,-z
-x,1/2+y,-z
-x,-y,-z
1/2+x,1/2+y,-z
1/2-x,y,z
x,1/2-y,z
loop_
_atom_site_type_symbol
_atom_site_label
_atom_site_fract_x
_atom_site_fract_y
_atom_site_fract_z
Si Si1 0.558176 0.436243 0.289684
Si Si2 0.019296 0.563121 0.882163
Si Si3 0.943408 0.434873 0.571362
Si Si4 0.750000 0.935633 0.525998
Si Si5 0.750000 0.564243 0.346432
Si Si6 0.854293 0.562977 0.988130
O O1 0.556416 0.250000 0.294251
O O2 0.530106 0.483940 0.204825
O O3 0.490625 0.504771 0.352450
O O4 0.659337 0.495499 0.309098
O O5 0.023703 0.750000 0.885151
O O6 0.923564 0.514868 0.920982
O O7 0.099750 0.497155 0.934734
O O8 0.946250 0.250000 0.569169
O O9 0.840718 0.495289 0.562753
O O10 0.000000 0.500000 0.500000
O O11 0.750000 0.750000 0.533091
O O12 0.750000 0.973290 0.436170
O O13 0.750000 0.750000 0.339294
O O14 0.750000 0.509816 0.978976
O O15 0.853769 0.750000 0.989889
#
# Coordination Sequence:
#
# PCOD9453141 Si02
#       6
#     8   8   8   4   4   8
#     4  11  23  39  59  86 119 155 192 240 294 348
#     4   9  20  37  56  83 116 149 188 232 283 343
#     4  12  24  40  62  87 118 155 196 244 291 346
#     4  11  23  41  63  87 113 154 201 242 294 351
#     4  11  23  37  59  87 115 150 195 244 292 347
#     4   9  18  35  59  84 111 147 189 232 282 340
#
# _framework density 17.910734000000001
#
# number of rings (size 3 to 8) (size 9 to 14) (size 15 to 20)
#    0.000    1.600    2.000    3.000    1.400    2.800 
#    1.800    0.000    0.000    0.000    0.000    0.000 
#    0.000    0.000    0.000    0.000    0.000    0.000 
#
# Total GULP energy -223488.220297 kJ/mol
# GULP energy per Si atom -5587.205507 kJ/mol
# Density = 1.786997 g / cm^3
# Si number density = 17.910734 Si / 1000 Ang^3
#
#
#
# Elastic Constant Matrix: (Units=GPa)
#
#
# Indices 1 2 3 4 5 6 
#
# 1 198.1701 50.3898 110.0753 0.0000 0.0000 0.0000
# 2 50.3898 61.7824 58.1318 0.0000 0.0000 0.0000
# 3 110.0753 58.1318 183.5177 0.0000 0.0000 0.0000
# 4 0.0000 0.0000 0.0000 28.9465 0.0000 0.0000
# 5 0.0000 0.0000 0.0000 0.0000 -4.0203 0.0000
# 6 0.0000 0.0000 0.0000 0.0000 0.0000 31.6403
#
#
#
# Elastic Compliance Matrix: (Units=1/GPa)
#
#
# Indices 1 2 3 4 5 6 
#
# 1 0.007899 -0.002827 -0.003843 0.000000 0.000000 0.000000
# 2 -0.002827 0.024070 -0.005929 0.000000 0.000000 0.000000
# 3 -0.003843 -0.005929 0.009632 0.000000 0.000000 0.000000
# 4 0.000000 0.000000 0.000000 0.034547 0.000000 0.000000
# 5 0.000000 0.000000 0.000000 0.000000 -0.248737 0.000000
# 6 0.000000 0.000000 0.000000 0.000000 0.000000 0.031605
#
#
# Mechanical properties :
#
#
# Convention : Reuss Voigt Hill
#
# Bulk Modulus (GPa) = 60.95946 97.85156 79.40551
# Shear Modulus (GPa) = -45.32359 26.30483 -9.50938
#
# Velocity S-wave (km/s) = -5.03589 3.83647 -2.30670
# Velocity P-wave (km/s) = 0.54354 8.62416 6.11030
#
# Compressibility (1/GPa) = 0.01640435
#
# Stress axis : x y z
#
# Youngs Moduli (GPa) = 126.59061 41.54508 103.82169
#
# Poissons Ratio (x) = 0.11746 0.39894
# Poissons Ratio (y) = 0.35791 0.61553
# Poissons Ratio (z) = 0.48644 0.24631
#
# Static dielectric constant tensor:
#      x y z
#    x 1.599300 0.000000 0.000000 
#    y 0.000000 1.604790 0.000000 
#    z 0.000000 0.000000 1.589080 
# 
# From -- ./inp_files/22994.got.cif
#   From: 2010.05.17/outbox.cif.g08.bks.cpg/sg59_12_cif.got.tgz:22994.got - 2010.06.03 14:40:33.
