data_PCOD9453098
_publ_section_title
;
Structure prediction by ZEFSAII (Michael W. Deem and Ramdas Pophale) SiO2 
 PCOD9453098
Probable space group: P M M N
;
_chemical_formula_sum "Si O2"
_cell_formula_units_Z 48
_cell_length_a 32.185598
_cell_length_b 8.716069
_cell_length_c 9.233448
_cell_angle_alpha 90.000000
_cell_angle_beta 90.000000
_cell_angle_gamma 90.000000
_cell_volume 2590.276646
_symmetry_space_group_name_H-M "P M M N"
_symmetry_group_IT_number 59
_space_group.IT_coordinate_system_code '2'
_symmetry_cell_setting 'orthorhombic'
loop_
_space_group_symop_operation_xyz
x,y,z
1/2-x,1/2-y,z
1/2+x,-y,-z
-x,1/2+y,-z
-x,-y,-z
1/2+x,1/2+y,-z
1/2-x,y,z
x,1/2-y,z
loop_
_atom_site_type_symbol
_atom_site_label
_atom_site_fract_x
_atom_site_fract_y
_atom_site_fract_z
Si Si1 0.750000 0.563611 0.838312
Si Si2 0.668640 0.933980 0.659828
Si Si3 0.090604 0.934773 0.171247
Si Si4 0.587018 0.434234 0.169626
Si Si5 0.250000 0.065337 0.827668
Si Si6 0.998876 0.566611 0.162666
Si Si7 0.329669 0.565656 0.662265
O O1 0.750000 0.750000 0.839516
O O2 0.791439 0.515157 0.753975
O O3 0.750000 0.513597 0.004902
O O4 0.669940 0.750000 0.646898
O O5 0.626864 0.984958 0.740843
O O6 0.670728 0.007552 0.501735
O O7 0.095380 0.750000 0.181134
O O8 0.044065 0.974682 0.226365
O O9 0.092703 0.976564 0.000188
O O10 0.583414 0.250000 0.173929
O O11 0.543795 0.503175 0.227599
O O12 0.627294 0.481143 0.260011
O O13 0.250000 0.250000 0.823129
O O14 0.209225 0.003534 0.747818
O O15 0.996917 0.750000 0.155499
O O16 0.000000 0.500000 0.000000
O O17 0.327199 0.750000 0.665790
#
# Coordination Sequence:
#
# PCOD9453098 Si02
#       7
#     4   8   8   8   4   8   8
#     4   9  21  39  58  82 110 137 174 225 272 312
#     4  11  22  37  57  81 110 147 185 223 270 327
#     4   9  18  34  54  80 111 142 179 228 278 326
#     4   9  19  35  56  81 110 144 187 234 278 327
#     4  11  22  39  62  86 110 139 180 227 270 324
#     4   9  17  30  52  80 111 144 182 229 280 328
#     4  11  23  39  57  81 114 149 181 222 277 329
#
# _framework density 18.530840000000001
#
# number of rings (size 3 to 8) (size 9 to 14) (size 15 to 20)
#    0.000    2.167    0.000    4.250    0.000    5.333 
#    0.000    4.583    0.000    0.000    0.000    0.000 
#    0.000    0.000    0.000    0.000    0.000    0.000 
#
# Total GULP energy -267920.014298 kJ/mol
# GULP energy per Si atom -5581.666965 kJ/mol
# Density = 1.848866 g / cm^3
# Si number density = 18.530840 Si / 1000 Ang^3
#
#
#
# Elastic Constant Matrix: (Units=GPa)
#
#
# Indices 1 2 3 4 5 6 
#
# 1 221.2989 55.9094 95.7507 0.0000 0.0000 0.0000
# 2 55.9094 41.0274 35.4366 0.0000 0.0000 0.0000
# 3 95.7507 35.4366 117.5366 0.0000 0.0000 0.0000
# 4 0.0000 0.0000 0.0000 26.8459 0.0000 0.0000
# 5 0.0000 0.0000 0.0000 0.0000 -16.9601 0.0000
# 6 0.0000 0.0000 0.0000 0.0000 0.0000 37.5847
#
#
#
# Elastic Compliance Matrix: (Units=1/GPa)
#
#
# Indices 1 2 3 4 5 6 
#
# 1 0.008389 -0.007476 -0.004580 0.000000 0.000000 0.000000
# 2 -0.007476 0.039619 -0.005854 0.000000 0.000000 0.000000
# 3 -0.004580 -0.005854 0.014004 0.000000 0.000000 0.000000
# 4 0.000000 0.000000 0.000000 0.037250 0.000000 0.000000
# 5 0.000000 0.000000 0.000000 0.000000 -0.058962 0.000000
# 6 0.000000 0.000000 0.000000 0.000000 0.000000 0.026607
#
#
# Mechanical properties :
#
#
# Convention : Reuss Voigt Hill
#
# Bulk Modulus (GPa) = 38.18159 83.78404 60.98281
# Shear Modulus (GPa) = 44.85961 22.34517 33.60239
#
# Velocity S-wave (km/s) = 4.92551 3.47628 4.26293
# Velocity P-wave (km/s) = 7.27988 7.83736 7.56375
#
# Compressibility (1/GPa) = 0.02619064
#
# Stress axis : x y z
#
# Youngs Moduli (GPa) = 119.19783 25.24062 71.40644
#
# Poissons Ratio (x) = 0.18871 0.32706
# Poissons Ratio (y) = 0.89117 0.41803
# Poissons Ratio (z) = 0.54596 0.14776
#
# Static dielectric constant tensor:
#      x y z
#    x 1.545110 0.000000 0.000000 
#    y 0.000000 1.627660 0.000000 
#    z 0.000000 0.000000 1.611480 
# 
# From -- ./inp_files/13006.got.cif
#   From: 2010.05.17/outbox.cif.g08.bks.cpg/sg59_7_cif.got.tgz:13006.got - 2010.06.03 14:40:33.
