data_PCOD9453113
_publ_section_title
;
Structure prediction by ZEFSAII (Michael W. Deem and Ramdas Pophale) SiO2 
 PCOD9453113
Probable space group: P M M N
;
_chemical_formula_sum "Si O2"
_cell_formula_units_Z 48
_cell_length_a 15.201600
_cell_length_b 8.600113
_cell_length_c 19.464240
_cell_angle_alpha 90.000000
_cell_angle_beta 90.000000
_cell_angle_gamma 90.000000
_cell_volume 2544.666716
_symmetry_space_group_name_H-M "P M M N"
_symmetry_group_IT_number 59
_space_group.IT_coordinate_system_code '2'
_symmetry_cell_setting 'orthorhombic'
loop_
_space_group_symop_operation_xyz
x,y,z
1/2-x,1/2-y,z
1/2+x,-y,-z
-x,1/2+y,-z
-x,-y,-z
1/2+x,1/2+y,-z
1/2-x,y,z
x,1/2-y,z
loop_
_atom_site_type_symbol
_atom_site_label
_atom_site_fract_x
_atom_site_fract_y
_atom_site_fract_z
Si Si1 0.750000 0.937719 0.233070
Si Si2 0.598757 0.067016 0.857564
Si Si3 0.144137 0.070732 0.994326
Si Si4 0.750000 0.939078 0.604177
Si Si5 0.913381 0.066945 0.147750
Si Si6 0.250000 0.436713 0.238398
Si Si7 0.900133 0.561922 0.498210
Si Si8 0.250000 0.438740 0.607613
O O1 0.750000 0.750000 0.228300
O O2 0.750000 0.984644 0.313024
O O3 0.834002 0.004952 0.193743
O O4 0.612656 0.250000 0.864495
O O5 0.500916 0.026429 0.834476
O O6 0.666446 0.997531 0.803240
O O7 0.613714 0.988526 0.931757
O O8 0.250000 0.065629 0.992739
O O9 0.116187 0.250000 0.984145
O O10 0.108467 0.968978 0.931844
O O11 0.750000 0.750000 0.603379
O O12 0.750000 0.990878 0.682755
O O13 0.661704 0.985710 0.562893
O O14 0.926333 0.250000 0.157244
O O15 0.250000 0.250000 0.237542
O O16 0.905093 0.750000 0.497714
O O17 0.838659 0.513043 0.433267
O O18 0.000000 0.500000 0.500000
O O19 0.250000 0.250000 0.605242
#
# Coordination Sequence:
#
# PCOD9453113 Si02
#       8
#     4   8   8   4   8   4   8   4
#     4  11  22  40  61  86 119 156 196 243 294 348
#     4  12  25  41  61  86 117 155 198 245 296 352
#     4  11  22  39  64  88 115 151 193 245 300 352
#     4   8  18  36  59  83 117 156 189 228 284 346
#     4  12  25  41  61  86 117 155 198 245 296 352
#     4  11  22  40  61  86 119 156 196 243 294 348
#     4   9  17  35  60  88 116 151 191 231 280 336
#     4   8  18  36  59  83 117 156 189 228 284 346
#
# _framework density 18.862981000000001
#
# number of rings (size 3 to 8) (size 9 to 14) (size 15 to 20)
#    0.000    1.500    1.667    5.500    0.000    2.000 
#    0.000    8.333    0.000    0.000    0.000    0.000 
#    0.000    0.000    0.000    0.000    0.000    0.000 
#
# Total GULP energy -268219.954519 kJ/mol
# GULP energy per Si atom -5587.915719 kJ/mol
# Density = 1.882005 g / cm^3
# Si number density = 18.862981 Si / 1000 Ang^3
#
#
#
# Elastic Constant Matrix: (Units=GPa)
#
#
# Indices 1 2 3 4 5 6 
#
# 1 133.9464 -8.0442 54.6832 0.0000 0.0000 0.0000
# 2 -8.0442 37.0311 -2.3879 0.0000 0.0000 0.0000
# 3 54.6832 -2.3879 134.4154 0.0000 0.0000 0.0000
# 4 0.0000 0.0000 0.0000 -0.3259 0.0000 0.0000
# 5 0.0000 0.0000 0.0000 0.0000 -46.6436 0.0000
# 6 0.0000 0.0000 0.0000 0.0000 0.0000 39.8304
#
#
#
# Elastic Compliance Matrix: (Units=1/GPa)
#
#
# Indices 1 2 3 4 5 6 
#
# 1 0.009062 0.001733 -0.003656 0.000000 0.000000 0.000000
# 2 0.001733 0.027367 -0.000219 0.000000 0.000000 0.000000
# 3 -0.003656 -0.000219 0.008923 0.000000 0.000000 0.000000
# 4 0.000000 0.000000 0.000000 -3.068533 0.000000 0.000000
# 5 0.000000 0.000000 0.000000 0.000000 -0.021439 0.000000
# 6 0.000000 0.000000 0.000000 0.000000 0.000000 0.025106
#
#
# Mechanical properties :
#
#
# Convention : Reuss Voigt Hill
#
# Bulk Modulus (GPa) = 24.34978 43.76611 34.05794
# Shear Modulus (GPa) = -1.66581 15.98164 7.15791
#
# Velocity S-wave (km/s) = -0.94076 2.91391 1.95011
# Velocity P-wave (km/s) = 3.42881 5.87994 4.81302
#
# Compressibility (1/GPa) = 0.04106814
#
# Stress axis : x y z
#
# Youngs Moduli (GPa) = 110.34763 36.54087 112.06922
#
# Poissons Ratio (x) = -0.06332 0.40972
# Poissons Ratio (y) = -0.19121 0.02452
# Poissons Ratio (z) = 0.40343 0.00799
#
# Static dielectric constant tensor:
#      x y z
#    x 1.662060 0.000000 0.000000 
#    y 0.000000 1.636320 0.000000 
#    z 0.000000 0.000000 1.639360 
# 
# From -- ./inp_files/27540.got.cif
#   From: 2010.05.17/outbox.cif.g08.bks.cpg/sg59_14_cif.got.tgz:27540.got - 2010.06.03 14:40:33.
