data_PCOD9453065
_publ_section_title
;
Structure prediction by ZEFSAII (Michael W. Deem and Ramdas Pophale) SiO2 
 PCOD9453065
Probable space group: P M M N
;
_chemical_formula_sum "Si O2"
_cell_formula_units_Z 58
_cell_length_a 32.583670
_cell_length_b 15.853336
_cell_length_c 4.713382
_cell_angle_alpha 90.000000
_cell_angle_beta 90.000000
_cell_angle_gamma 90.000000
_cell_volume 2434.743987
_symmetry_space_group_name_H-M "P M M N"
_symmetry_group_IT_number 59
_space_group.IT_coordinate_system_code '2'
_symmetry_cell_setting 'orthorhombic'
loop_
_space_group_symop_operation_xyz
x,y,z
1/2-x,1/2-y,z
1/2+x,-y,-z
-x,1/2+y,-z
-x,-y,-z
1/2+x,1/2+y,-z
1/2-x,y,z
x,1/2-y,z
loop_
_atom_site_type_symbol
_atom_site_label
_atom_site_fract_x
_atom_site_fract_y
_atom_site_fract_z
Si Si1 0.295925 0.528898 0.730180
Si Si2 0.892413 0.895052 0.072999
Si Si3 0.430107 0.847340 0.417195
Si Si4 0.056999 0.157227 0.442692
Si Si5 0.352224 0.939835 0.196831
Si Si6 0.193372 0.160213 0.741047
Si Si7 0.519797 0.087483 0.103389
Si Si8 0.250000 0.250000 0.347006
O O1 0.250000 0.556393 0.659370
O O2 0.318398 0.585658 0.964742
O O3 0.293206 0.431849 0.841974
O O4 0.326287 0.526722 0.463227
O O5 0.908797 0.846131 0.801127
O O6 0.855192 0.846472 0.226633
O O7 0.984059 0.867705 0.718550
O O8 0.877073 0.983822 0.950838
O O9 0.431183 0.750000 0.508694
O O10 0.463265 0.863664 0.169638
O O11 0.385537 0.872567 0.298274
O O12 0.442539 0.908543 0.674911
O O13 0.053190 0.250000 0.567834
O O14 0.071593 0.097982 0.696808
O O15 0.208118 0.250000 0.889476
O O16 0.213900 0.176837 0.435219
O O17 0.500000 0.000000 0.000000
#
# Coordination Sequence:
#
# PCOD9453065 Si02
#       8
#     8   8   8   8   8   8   8   2
#     4  11  21  41  65  97 135 179 227 291 354 419
#     4  11  23  39  61  90 134 175 228 284 345 401
#     4  12  26  50  76 104 139 182 233 288 352 422
#     4  12  24  41  63  94 131 180 228 280 339 414
#     4  11  25  41  68  98 132 174 231 286 347 419
#     4   9  17  33  56  83 121 170 220 270 322 386
#     4  12  27  46  73 105 141 179 228 288 351 419
#     4   8  16  32  56  78 124 158 238 262 328 374
#
# _framework density 23.821808000000001
#
# number of rings (size 3 to 8) (size 9 to 14) (size 15 to 20)
#    0.414    0.552    0.690    7.448    0.000    3.310 
#    0.000    3.448    0.000   13.241    0.000    0.966 
#    0.000    0.000    0.000    0.000    0.000    0.000 
#
# Total GULP energy -323789.171860 kJ/mol
# GULP energy per Si atom -5582.571929 kJ/mol
# Density = 2.376759 g / cm^3
# Si number density = 23.821808 Si / 1000 Ang^3
#
#
#
# Elastic Constant Matrix: (Units=GPa)
#
#
# Indices 1 2 3 4 5 6 
#
# 1 127.6028 50.4588 40.1077 0.0000 0.0000 0.0000
# 2 50.4588 97.7854 28.6654 0.0000 0.0000 0.0000
# 3 40.1077 28.6654 123.0639 0.0000 0.0000 0.0000
# 4 0.0000 0.0000 0.0000 23.1783 0.0000 0.0000
# 5 0.0000 0.0000 0.0000 0.0000 75.4677 0.0000
# 6 0.0000 0.0000 0.0000 0.0000 0.0000 27.6596
#
#
#
# Elastic Compliance Matrix: (Units=1/GPa)
#
#
# Indices 1 2 3 4 5 6 
#
# 1 0.010419 -0.004702 -0.002300 0.000000 0.000000 0.000000
# 2 -0.004702 0.013098 -0.001518 0.000000 0.000000 0.000000
# 3 -0.002300 -0.001518 0.009229 0.000000 0.000000 0.000000
# 4 0.000000 0.000000 0.000000 0.043144 0.000000 0.000000
# 5 0.000000 0.000000 0.000000 0.000000 0.013251 0.000000
# 6 0.000000 0.000000 0.000000 0.000000 0.000000 0.036154
#
#
# Mechanical properties :
#
#
# Convention : Reuss Voigt Hill
#
# Bulk Modulus (GPa) = 63.67627 65.21288 64.44457
# Shear Modulus (GPa) = 33.88181 40.54248 37.21215
#
# Velocity S-wave (km/s) = 3.77543 4.12989 3.95663
# Velocity P-wave (km/s) = 6.76709 7.08351 6.92710
#
# Compressibility (1/GPa) = 0.01570444
#
# Stress axis : x y z
#
# Youngs Moduli (GPa) = 95.97581 76.34765 108.35061
#
# Poissons Ratio (x) = 0.35900 0.24926
# Poissons Ratio (y) = 0.45129 0.16452
# Poissons Ratio (z) = 0.22079 0.11593
#
# Static dielectric constant tensor:
#      x y z
#    x 1.962280 0.000000 0.000000 
#    y 0.000000 1.888050 0.000000 
#    z 0.000000 0.000000 2.032690 
# 
# From -- ./inp_files/2969.got.cif
#   From: 2010.05.17/outbox.cif.g08.bks.cpg/sg59_2_cif.got.tgz:2969.got - 2010.06.03 14:40:33.
