data_PCOD9453971
_publ_section_title
;
Structure prediction by ZEFSAII (Michael W. Deem and Ramdas Pophale) SiO2 
 PCOD9453971
Probable space group: P B C N
;
_chemical_formula_sum "Si O2"
_cell_formula_units_Z 56
_cell_length_a 30.118657
_cell_length_b 16.788535
_cell_length_c 5.262518
_cell_angle_alpha 90.000000
_cell_angle_beta 90.000000
_cell_angle_gamma 90.000000
_cell_volume 2660.982371
_symmetry_space_group_name_H-M "P B C N"
_symmetry_group_IT_number 60
_symmetry_cell_setting 'orthorhombic'
loop_
_space_group_symop_operation_xyz
x,y,z
1/2-x,1/2-y,1/2+z
1/2+x,1/2-y,-z
-x,y,1/2-z
-x,-y,-z
1/2+x,1/2+y,1/2-z
1/2-x,1/2+y,z
x,-y,1/2+z
loop_
_atom_site_type_symbol
_atom_site_label
_atom_site_fract_x
_atom_site_fract_y
_atom_site_fract_z
Si Si1 0.096631 0.040893 0.391690
Si Si2 0.729684 0.475801 0.869787
Si Si3 0.172136 0.543650 0.625920
Si Si4 0.406438 0.723852 0.544796
Si Si5 0.500000 0.417793 0.750000
Si Si6 0.000000 0.815889 0.250000
Si Si7 0.139279 0.722466 0.556435
Si Si8 0.768325 0.791675 0.833701
O O1 0.103950 0.130547 0.491281
O O2 0.042763 0.036705 0.355637
O O3 0.111808 0.979818 0.608262
O O4 0.704251 0.500526 0.119133
O O5 0.774356 0.530528 0.868008
O O6 0.743378 0.384173 0.863166
O O7 0.155716 0.511852 0.896297
O O8 0.159234 0.633806 0.573678
O O9 0.456846 0.729498 0.645591
O O10 0.397363 0.766696 0.276485
O O11 0.376653 0.757877 0.773205
O O12 0.485415 0.365340 0.502917
O O13 0.179300 0.781380 0.629872
O O14 0.745406 0.742184 0.060155
#
# Coordination Sequence:
#
# PCOD9453971 Si02
#       8
#     8   8   8   8   4   4   8   8
#     4  11  20  34  55  81 119 163 206 259 308 363
#     4  10  20  36  57  85 116 155 200 239 289 361
#     4  10  19  36  60  89 118 148 195 253 300 359
#     4  11  24  41  59  92 125 166 216 261 317 373
#     4  10  18  31  56  90 112 151 212 262 306 363
#     4  10  20  39  62  84 126 169 210 268 324 383
#     4  12  24  40  64  94 127 161 207 263 309 371
#     4  12  23  40  64  92 125 163 198 250 315 374
#
# _framework density 21.044861000000001
#
# number of rings (size 3 to 8) (size 9 to 14) (size 15 to 20)
#    0.000    1.143    0.000   10.714    0.000    0.571 
#    0.000    4.286    0.000    0.000    0.000   10.000 
#    0.000    0.000    0.000    0.000    0.000    0.000 
#
# Total GULP energy -313109.747741 kJ/mol
# GULP energy per Si atom -5591.245495 kJ/mol
# Density = 2.099696 g / cm^3
# Si number density = 21.044861 Si / 1000 Ang^3
#
#
#
# Elastic Constant Matrix: (Units=GPa)
#
#
# Indices 1 2 3 4 5 6 
#
# 1 54.3684 28.4650 7.9251 0.0000 0.0000 0.0000
# 2 28.4650 103.2289 34.1929 0.0000 0.0000 0.0000
# 3 7.9251 34.1929 144.8126 0.0000 0.0000 0.0000
# 4 0.0000 0.0000 0.0000 45.8262 0.0000 0.0000
# 5 0.0000 0.0000 0.0000 0.0000 34.5621 0.0000
# 6 0.0000 0.0000 0.0000 0.0000 0.0000 24.8179
#
#
#
# Elastic Compliance Matrix: (Units=1/GPa)
#
#
# Indices 1 2 3 4 5 6 
#
# 1 0.021504 -0.006010 0.000242 0.000000 0.000000 0.000000
# 2 -0.006010 0.012189 -0.002549 0.000000 0.000000 0.000000
# 3 0.000242 -0.002549 0.007494 0.000000 0.000000 0.000000
# 4 0.000000 0.000000 0.000000 0.021822 0.000000 0.000000
# 5 0.000000 0.000000 0.000000 0.000000 0.028933 0.000000
# 6 0.000000 0.000000 0.000000 0.000000 0.000000 0.040293
#
#
# Mechanical properties :
#
#
# Convention : Reuss Voigt Hill
#
# Bulk Modulus (GPa) = 40.72739 49.28621 45.00680
# Shear Modulus (GPa) = 31.83621 36.49636 34.16629
#
# Velocity S-wave (km/s) = 3.89366 4.16891 4.03364
# Velocity P-wave (km/s) = 6.29355 6.82961 6.56705
#
# Compressibility (1/GPa) = 0.02455350
#
# Stress axis : x y z
#
# Youngs Moduli (GPa) = 46.50233 82.04277 133.43824
#
# Poissons Ratio (x) = 0.49307 -0.03232
# Poissons Ratio (y) = 0.27948 0.34014
# Poissons Ratio (z) = -0.01126 0.20913
#
# Static dielectric constant tensor:
#      x y z
#    x 1.787690 0.000000 0.000000 
#    y 0.000000 1.714070 0.000000 
#    z 0.000000 0.000000 1.853530 
# 
# From -- ./inp_files/2705.got.cif
#   From: 2010.05.17/outbox.cif.g08.bks.cpg/sg60_2_cif.got.tgz:2705.got - 2010.06.03 14:59:27.
