data_PCOD9453570
_publ_section_title
;
Structure prediction by ZEFSAII (Michael W. Deem and Ramdas Pophale) SiO2 
 PCOD9453570
Probable space group: P M M N
;
_chemical_formula_sum "Si O2"
_cell_formula_units_Z 48
_cell_length_a 15.000000
_cell_length_b 9.000000
_cell_length_c 18.000000
_cell_angle_alpha 90.000000
_cell_angle_beta 90.000000
_cell_angle_gamma 90.000000
_cell_volume 2430.000000
_symmetry_space_group_name_H-M "P M M N"
_symmetry_group_IT_number 59
_space_group.IT_coordinate_system_code '2'
_symmetry_cell_setting 'orthorhombic'
loop_
_space_group_symop_operation_xyz
x,y,z
1/2-x,1/2-y,z
1/2+x,-y,-z
-x,1/2+y,-z
-x,-y,-z
1/2+x,1/2+y,-z
1/2-x,y,z
x,1/2-y,z
loop_
_atom_site_type_symbol
_atom_site_label
_atom_site_fract_x
_atom_site_fract_y
_atom_site_fract_z
Si Si1 0.596200 0.427577 0.995309
Si Si2 0.412694 0.428533 0.699499
Si Si3 0.645284 0.417116 0.828406
Si Si4 0.148036 0.080645 0.856178
Si Si5 0.250000 0.069385 0.427265
Si Si6 0.750000 0.568576 0.402574
Si Si7 0.409383 0.073427 0.319657
O O1 0.594807 0.250000 0.999338
O O2 0.644801 0.489914 0.067946
O O3 0.500000 0.500000 0.000000
O O4 0.631560 0.466679 0.913348
O O5 0.409692 0.250000 0.704226
O O6 0.405058 0.481161 0.785415
O O7 0.333692 0.478693 0.646387
O O8 0.501456 0.486835 0.663134
O O9 0.750000 0.403802 0.817432
O O10 0.605111 0.250000 0.819676
O O11 0.613219 0.526232 0.764586
O O12 0.250000 0.087854 0.829835
O O13 0.118101 0.250000 0.872662
O O14 0.250000 0.250000 0.429589
O O15 0.250000 0.016753 0.512206
O O16 0.334462 0.025436 0.377943
O O17 0.750000 0.750000 0.404851
O O18 0.419749 0.250000 0.323741
#
# Coordination Sequence:
#
# PCOD9453570 Si02
#       7
#     8   8   8   8   4   4   8
#     4  11  23  37  53  79 113 151 194 240 287 339
#     4  10  20  37  62  89 114 151 199 239 279 342
#     4  10  21  38  58  79 108 149 198 243 280 332
#     4  10  20  36  57  82 112 147 191 240 287 340
#     4   9  20  38  59  86 119 152 188 235 291 349
#     4   9  18  38  65  86 113 154 194 233 285 347
#     4  11  22  37  58  87 121 155 189 235 294 348
#
# _framework density 19.753086
#
# number of rings (size 3 to 8) (size 9 to 14) (size 15 to 20)
#    0.000    1.833    1.667    2.500    0.000    7.667 
#    0.000    0.417    0.000    3.000    0.000    0.000 
#    0.000    0.000    0.000    0.000    0.000    0.000 
#
# Total GULP energy -267667.968858 kJ/mol
# GULP energy per Si atom -5576.416018 kJ/mol
# Density = 1.970813 g / cm^3
# Si number density = 19.753086 Si / 1000 Ang^3
#
#
#
# Elastic Constant Matrix: (Units=GPa)
#
#
# Indices 1 2 3 4 5 6 
#
# 1 102.1542 3.0492 43.2006 0.0000 0.0000 0.0000
# 2 3.0492 6.2135 27.2656 0.0000 0.0000 0.0000
# 3 43.2006 27.2656 139.1565 0.0000 0.0000 0.0000
# 4 0.0000 0.0000 0.0000 9.6038 0.0000 0.0000
# 5 0.0000 0.0000 0.0000 0.0000 178.4136 0.0000
# 6 0.0000 0.0000 0.0000 0.0000 0.0000 21.1862
#
#
#
# Elastic Compliance Matrix: (Units=1/GPa)
#
#
# Indices 1 2 3 4 5 6 
#
# 1 0.018155 0.112849 -0.027747 0.000000 0.000000 0.000000
# 2 0.112849 1.849311 -0.397379 0.000000 0.000000 0.000000
# 3 -0.027747 -0.397379 0.093661 0.000000 0.000000 0.000000
# 4 0.000000 0.000000 0.000000 0.104125 0.000000 0.000000
# 5 0.000000 0.000000 0.000000 0.000000 0.005605 0.000000
# 6 0.000000 0.000000 0.000000 0.000000 0.000000 0.047200
#
#
# Mechanical properties :
#
#
# Convention : Reuss Voigt Hill
#
# Bulk Modulus (GPa) = 0.74818 43.83946 22.29382
# Shear Modulus (GPa) = 1.56832 53.44132 27.50482
#
# Velocity S-wave (km/s) = 0.89201 5.20705 3.73558
# Velocity P-wave (km/s) = 1.20021 7.64154 5.46963
#
# Compressibility (1/GPa) = 1.33657367
#
# Stress axis : x y z
#
# Youngs Moduli (GPa) = 55.08167 0.54074 10.67685
#
# Poissons Ratio (x) = -0.06102 0.29625
# Poissons Ratio (y) = -6.21593 4.24275
# Poissons Ratio (z) = 1.52837 0.21488
#
# Static dielectric constant tensor:
#      x y z
#    x 1.735020 0.000000 0.000000 
#    y 0.000000 1.684650 0.000000 
#    z 0.000000 0.000000 1.908410 
# 
# From -- ./inp_files/27467.got.cif
#   From: 2010.05.17/outbox.ucp.g08.bks.cvg/sg59_14_cif.got.tgz:27467.got - 2010.06.11 16:43:56.
