data_PCOD9453475
_publ_section_title
;
Structure prediction by ZEFSAII (Michael W. Deem and Ramdas Pophale) SiO2 
 PCOD9453475
Probable space group: P M M N
;
_chemical_formula_sum "Si O2"
_cell_formula_units_Z 64
_cell_length_a 18.000000
_cell_length_b 15.000000
_cell_length_c 12.000000
_cell_angle_alpha 90.000000
_cell_angle_beta 90.000000
_cell_angle_gamma 90.000000
_cell_volume 3240.000000
_symmetry_space_group_name_H-M "P M M N"
_symmetry_group_IT_number 59
_space_group.IT_coordinate_system_code '2'
_symmetry_cell_setting 'orthorhombic'
loop_
_space_group_symop_operation_xyz
x,y,z
1/2-x,1/2-y,z
1/2+x,-y,-z
-x,1/2+y,-z
-x,-y,-z
1/2+x,1/2+y,-z
1/2-x,y,z
x,1/2-y,z
loop_
_atom_site_type_symbol
_atom_site_label
_atom_site_fract_x
_atom_site_fract_y
_atom_site_fract_z
Si Si1 0.665266 0.641730 0.371971
Si Si2 0.063099 0.858404 0.674319
Si Si3 0.166688 0.855539 0.869618
Si Si4 0.835572 0.487592 0.718021
Si Si5 0.659133 0.852111 0.128307
Si Si6 0.100245 0.356415 0.397895
Si Si7 0.337514 0.005474 0.044069
Si Si8 0.161597 0.855343 0.466446
O O1 0.750000 0.610419 0.394435
O O2 0.669469 0.750000 0.364885
O O3 0.639231 0.612299 0.250663
O O4 0.610884 0.621227 0.472459
O O5 0.062579 0.750000 0.675412
O O6 0.101975 0.885996 0.787775
O O7 0.117975 0.884504 0.575470
O O8 0.979495 0.885159 0.648553
O O9 0.250000 0.871599 0.821104
O O10 0.160892 0.750000 0.888887
O O11 0.161455 0.912718 0.980099
O O12 0.750000 0.459545 0.733832
O O13 0.839288 0.585120 0.664958
O O14 0.873521 0.494416 0.836807
O O15 0.867253 0.414731 0.634759
O O16 0.750000 0.852086 0.128916
O O17 0.635406 0.750000 0.113234
O O18 0.631066 0.916574 0.032550
O O19 0.109712 0.250000 0.384115
O O20 0.250000 0.029810 0.059610
O O21 0.250000 0.868801 0.481557
O O22 0.149683 0.750000 0.447600
#
# Coordination Sequence:
#
# PCOD9453475 Si02
#       8
#     8   8   8   8   8   8   8   8
#     4   8  14  26  45  69  96 127 163 197 233 280
#     4   9  18  33  53  77 102 128 163 204 251 308
#     4   9  17  31  53  77  98 122 158 210 263 301
#     4  10  21  34  49  74 104 136 175 204 234 296
#     4   8  14  26  45  68  94 124 159 202 244 278
#     4  10  20  33  50  74 106 138 164 199 246 296
#     4   9  18  31  47  71  99 127 165 205 240 286
#     4   9  18  34  55  76 100 129 161 206 258 300
#
# _framework density 19.753086
#
# number of rings (size 3 to 8) (size 9 to 14) (size 15 to 20)
#    0.000    3.000    0.000    1.500    0.000    4.750 
#    0.000    6.875    0.000    0.000    0.000    5.250 
#    0.000    0.000    0.000    0.000    0.000    0.000 
#
# Total GULP energy -356420.993891 kJ/mol
# GULP energy per Si atom -5569.078030 kJ/mol
# Density = 1.970813 g / cm^3
# Si number density = 19.753086 Si / 1000 Ang^3
#
#
#
# Elastic Constant Matrix: (Units=GPa)
#
#
# Indices 1 2 3 4 5 6 
#
# 1 8.6053 2.9324 -0.7152 0.0000 0.0000 0.0000
# 2 2.9324 22.3815 7.0279 0.0000 0.0000 0.0000
# 3 -0.7152 7.0279 65.8414 0.0000 0.0000 0.0000
# 4 0.0000 0.0000 0.0000 19.7351 0.0000 0.0000
# 5 0.0000 0.0000 0.0000 0.0000 -29.4517 0.0000
# 6 0.0000 0.0000 0.0000 0.0000 0.0000 7.5453
#
#
#
# Elastic Compliance Matrix: (Units=1/GPa)
#
#
# Indices 1 2 3 4 5 6 
#
# 1 0.122264 -0.017006 0.003143 0.000000 0.000000 0.000000
# 2 -0.017006 0.048595 -0.005372 0.000000 0.000000 0.000000
# 3 0.003143 -0.005372 0.015796 0.000000 0.000000 0.000000
# 4 0.000000 0.000000 0.000000 0.050671 0.000000 0.000000
# 5 0.000000 0.000000 0.000000 0.000000 -0.033954 0.000000
# 6 0.000000 0.000000 0.000000 0.000000 0.000000 0.132532
#
#
# Mechanical properties :
#
#
# Convention : Reuss Voigt Hill
#
# Bulk Modulus (GPa) = 6.74830 12.81314 9.78072
# Shear Modulus (GPa) = 11.79893 5.40462 8.60177
#
# Velocity S-wave (km/s) = 2.44667 1.65591 2.08904
# Velocity P-wave (km/s) = 3.37718 3.18697 3.28345
#
# Compressibility (1/GPa) = 0.14818539
#
# Stress axis : x y z
#
# Youngs Moduli (GPa) = 8.17903 20.57839 63.30902
#
# Poissons Ratio (x) = 0.34996 -0.19900
# Poissons Ratio (y) = 0.13909 0.34008
# Poissons Ratio (z) = -0.02571 0.11054
#
# Static dielectric constant tensor:
#      x y z
#    x 1.691170 0.000000 0.000000 
#    y 0.000000 1.677240 0.000000 
#    z 0.000000 0.000000 1.734230 
# 
# From -- ./inp_files/17849.got.cif
#   From: 2010.05.17/outbox.ucp.g08.bks.cvg/sg59_9_cif.got.tgz:17849.got - 2010.06.11 16:43:56.
