data_PCOD9453093
_publ_section_title
;
Structure prediction by ZEFSAII (Michael W. Deem and Ramdas Pophale) SiO2 
 PCOD9453093
Probable space group: P M M N
;
_chemical_formula_sum "Si O2"
_cell_formula_units_Z 48
_cell_length_a 9.018456
_cell_length_b 21.810172
_cell_length_c 12.224077
_cell_angle_alpha 90.000000
_cell_angle_beta 90.000000
_cell_angle_gamma 90.000000
_cell_volume 2404.403537
_symmetry_space_group_name_H-M "P M M N"
_symmetry_group_IT_number 59
_space_group.IT_coordinate_system_code '2'
_symmetry_cell_setting 'orthorhombic'
loop_
_space_group_symop_operation_xyz
x,y,z
1/2-x,1/2-y,z
1/2+x,-y,-z
-x,1/2+y,-z
-x,-y,-z
1/2+x,1/2+y,-z
1/2-x,y,z
x,1/2-y,z
loop_
_atom_site_type_symbol
_atom_site_label
_atom_site_fract_x
_atom_site_fract_y
_atom_site_fract_z
Si Si1 0.924423 0.567841 0.000151
Si Si2 0.072131 0.680980 0.131186
Si Si3 0.921271 0.659873 0.360507
Si Si4 0.920291 0.514523 0.385629
Si Si5 0.422078 0.415945 0.254504
Si Si6 0.078179 0.681037 0.589903
O O1 0.750000 0.561421 0.030554
O O2 0.933280 0.591048 0.874914
O O3 0.000000 0.500000 0.000000
O O4 0.999313 0.621653 0.072355
O O5 0.250000 0.674601 0.127490
O O6 0.035022 0.750000 0.086484
O O7 0.014483 0.680249 0.255911
O O8 0.750000 0.679518 0.351749
O O9 0.922647 0.586299 0.364274
O O10 0.992690 0.679492 0.474962
O O11 0.750000 0.493625 0.390975
O O12 0.000000 0.500000 0.500000
O O13 0.005861 0.479881 0.290090
O O14 0.250000 0.415479 0.286668
O O15 0.506165 0.365134 0.324697
O O16 0.250000 0.665156 0.570445
O O17 0.070773 0.750000 0.633957
#
# Coordination Sequence:
#
# PCOD9453093 Si02
#       6
#     8   8   8   8   8   8
#     4  11  25  45  70  98 130 169 218 274 332 393
#     4  11  25  44  67  96 131 174 224 276 332 395
#     4  11  23  39  63  94 128 167 211 261 319 382
#     4  11  22  36  59  91 126 163 204 253 311 378
#     4  11  24  41  62  91 124 161 205 254 312 376
#     4  11  24  40  60  88 123 164 207 253 309 374
#
# _framework density 19.963369
#
# number of rings (size 3 to 8) (size 9 to 14) (size 15 to 20)
#    0.000    1.000    1.667    4.500    0.000   12.667 
#    0.000    3.333    0.000    0.000    0.000    0.000 
#    0.000    0.000    0.000    0.000    0.000    0.000 
#
# Total GULP energy -268375.104986 kJ/mol
# GULP energy per Si atom -5591.148021 kJ/mol
# Density = 1.991793 g / cm^3
# Si number density = 19.963369 Si / 1000 Ang^3
#
#
#
# Elastic Constant Matrix: (Units=GPa)
#
#
# Indices 1 2 3 4 5 6 
#
# 1 134.9355 64.8061 43.0293 0.0000 0.0000 0.0000
# 2 64.8061 153.6458 39.5907 0.0000 0.0000 0.0000
# 3 43.0293 39.5907 64.5752 0.0000 0.0000 0.0000
# 4 0.0000 0.0000 0.0000 -5.8146 0.0000 0.0000
# 5 0.0000 0.0000 0.0000 0.0000 31.7273 0.0000
# 6 0.0000 0.0000 0.0000 0.0000 0.0000 31.3148
#
#
#
# Elastic Compliance Matrix: (Units=1/GPa)
#
#
# Indices 1 2 3 4 5 6 
#
# 1 0.010543 -0.003131 -0.005105 0.000000 0.000000 0.000000
# 2 -0.003131 0.008660 -0.003223 0.000000 0.000000 0.000000
# 3 -0.005105 -0.003223 0.020864 0.000000 0.000000 0.000000
# 4 0.000000 0.000000 0.000000 -0.171981 0.000000 0.000000
# 5 0.000000 0.000000 0.000000 0.000000 0.031519 0.000000
# 6 0.000000 0.000000 0.000000 0.000000 0.000000 0.031934
#
#
# Mechanical properties :
#
#
# Convention : Reuss Voigt Hill
#
# Bulk Modulus (GPa) = 58.31804 72.00098 65.15951
# Shear Modulus (GPa) = -125.53900 25.16086 -50.18907
#
# Velocity S-wave (km/s) = -7.93859 3.55399 -5.01948
# Velocity P-wave (km/s) = 7.39948 7.27915 0.93976
#
# Compressibility (1/GPa) = 0.01714735
#
# Stress axis : x y z
#
# Youngs Moduli (GPa) = 94.85056 115.47837 47.93056
#
# Poissons Ratio (x) = 0.36160 0.24470
# Poissons Ratio (y) = 0.29701 0.15446
# Poissons Ratio (z) = 0.48425 0.37214
#
# Static dielectric constant tensor:
#      x y z
#    x 1.673070 0.000000 0.000000 
#    y 0.000000 1.708580 0.000000 
#    z 0.000000 0.000000 1.689890 
# 
# From -- ./inp_files/14323.got.cif
#   From: 2010.05.17/outbox.cif.g08.bks.cpg/sg59_8_cif.got.tgz:14323.got - 2010.06.03 14:40:33.
