data_PCOD9453929
_publ_section_title
;
Structure prediction by ZEFSAII (Michael W. Deem and Ramdas Pophale) SiO2 
 PCOD9453929
Probable space group: P B C N
;
_chemical_formula_sum "Si O2"
_cell_formula_units_Z 56
_cell_length_a 11.851665
_cell_length_b 22.282490
_cell_length_c 13.037500
_cell_angle_alpha 90.000000
_cell_angle_beta 90.000000
_cell_angle_gamma 90.000000
_cell_volume 3443.003062
_symmetry_space_group_name_H-M "P B C N"
_symmetry_group_IT_number 60
_symmetry_cell_setting 'orthorhombic'
loop_
_space_group_symop_operation_xyz
x,y,z
1/2-x,1/2-y,1/2+z
1/2+x,1/2-y,-z
-x,y,1/2-z
-x,-y,-z
1/2+x,1/2+y,1/2-z
1/2-x,1/2+y,z
x,-y,1/2+z
loop_
_atom_site_type_symbol
_atom_site_label
_atom_site_fract_x
_atom_site_fract_y
_atom_site_fract_z
Si Si1 0.114909 0.821718 0.361107
Si Si2 0.075438 0.263587 0.566137
Si Si3 0.443380 0.228725 0.640957
Si Si4 0.270857 0.662114 0.643327
Si Si5 0.941306 0.075542 0.918908
Si Si6 0.217778 0.162462 0.082117
Si Si7 0.954224 0.064129 0.364091
O O1 0.186015 0.821621 0.257484
O O2 0.194102 0.828631 0.460518
O O3 0.033531 0.763220 0.372995
O O4 0.031403 0.879478 0.365516
O O5 0.164469 0.208997 0.569798
O O6 0.151954 0.319689 0.603348
O O7 0.030575 0.272318 0.451850
O O8 0.500000 0.229383 0.750000
O O9 0.360256 0.172311 0.632760
O O10 0.363719 0.287399 0.632344
O O11 0.318497 0.598272 0.612260
O O12 0.951186 0.007453 0.881989
O O13 0.966314 0.084048 0.040247
O O14 0.164365 0.098991 0.116870
O O15 0.000000 0.077267 0.250000
#
# Coordination Sequence:
#
# PCOD9453929 Si02
#       7
#     8   8   8   8   8   8   8
#     4   9  16  29  46  65  89 116 150 188 223 264
#     4   9  17  29  42  64  93 118 146 181 223 268
#     4  10  19  30  46  67  91 119 152 186 222 267
#     4  10  18  30  48  67  88 118 153 189 225 262
#     4   9  18  30  47  70  92 116 149 189 227 263
#     4   9  18  28  43  67  94 119 145 181 226 273
#     4  10  18  30  47  69  96 120 145 183 229 271
#
# _framework density 16.264870999999999
#
# number of rings (size 3 to 8) (size 9 to 14) (size 15 to 20)
#    0.000    2.571    0.000    4.714    0.000    0.000 
#    0.000    4.286    0.000    0.857    0.000    4.000 
#    0.000    0.000    0.000    0.000    0.000    0.000 
#
# Total GULP energy -311755.081840 kJ/mol
# GULP energy per Si atom -5567.055033 kJ/mol
# Density = 1.622785 g / cm^3
# Si number density = 16.264871 Si / 1000 Ang^3
#
#
#
# Elastic Constant Matrix: (Units=GPa)
#
#
# Indices 1 2 3 4 5 6 
#
# 1 56.3574 25.5973 45.7335 0.0000 0.0000 0.0000
# 2 25.5973 52.3286 21.1028 0.0000 0.0000 0.0000
# 3 45.7335 21.1028 104.4718 0.0000 0.0000 0.0000
# 4 0.0000 0.0000 0.0000 12.5364 0.0000 0.0000
# 5 0.0000 0.0000 0.0000 0.0000 8.1911 0.0000
# 6 0.0000 0.0000 0.0000 0.0000 0.0000 15.9676
#
#
#
# Elastic Compliance Matrix: (Units=1/GPa)
#
#
# Indices 1 2 3 4 5 6 
#
# 1 0.032500 -0.011061 -0.011993 0.000000 0.000000 0.000000
# 2 -0.011061 0.024570 -0.000121 0.000000 0.000000 0.000000
# 3 -0.011993 -0.000121 0.014846 0.000000 0.000000 0.000000
# 4 0.000000 0.000000 0.000000 0.079768 0.000000 0.000000
# 5 0.000000 0.000000 0.000000 0.000000 0.122084 0.000000
# 6 0.000000 0.000000 0.000000 0.000000 0.000000 0.062627
#
#
# Mechanical properties :
#
#
# Convention : Reuss Voigt Hill
#
# Bulk Modulus (GPa) = 39.11451 44.22500 41.66976
# Shear Modulus (GPa) = 12.77900 15.38728 14.08314
#
# Velocity S-wave (km/s) = 2.80604 3.07912 2.94575
# Velocity P-wave (km/s) = 5.88210 6.31592 6.10287
#
# Compressibility (1/GPa) = 0.02556596
#
# Stress axis : x y z
#
# Youngs Moduli (GPa) = 30.76920 40.70082 67.35674
#
# Poissons Ratio (x) = 0.45021 0.80780
# Poissons Ratio (y) = 0.34035 0.00813
# Poissons Ratio (z) = 0.36901 0.00491
#
# Static dielectric constant tensor:
#      x y z
#    x 1.563000 0.000000 0.000000 
#    y 0.000000 1.573470 0.000000 
#    z 0.000000 0.000000 1.565880 
# 
# From -- ./inp_files/11327.got.cif
#   From: 2010.05.17/outbox.cif.g08.bks.cpg/sg60_6_cif.got.tgz:11327.got - 2010.06.03 14:59:27.
