data_PCOD9453257
_publ_section_title
;
Structure prediction by ZEFSAII (Michael W. Deem and Ramdas Pophale) SiO2 
 PCOD9453257
Probable space group: P M M N
;
_chemical_formula_sum "Si O2"
_cell_formula_units_Z 48
_cell_length_a 7.429106
_cell_length_b 14.308878
_cell_length_c 21.575161
_cell_angle_alpha 90.000000
_cell_angle_beta 90.000000
_cell_angle_gamma 90.000000
_cell_volume 2293.486463
_symmetry_space_group_name_H-M "P M M N"
_symmetry_group_IT_number 59
_space_group.IT_coordinate_system_code '2'
_symmetry_cell_setting 'orthorhombic'
loop_
_space_group_symop_operation_xyz
x,y,z
1/2-x,1/2-y,z
1/2+x,-y,-z
-x,1/2+y,-z
-x,-y,-z
1/2+x,1/2+y,-z
1/2-x,y,z
x,1/2-y,z
loop_
_atom_site_type_symbol
_atom_site_label
_atom_site_fract_x
_atom_site_fract_y
_atom_site_fract_z
Si Si1 0.467597 0.150654 0.383759
Si Si2 0.964758 0.145557 0.031484
Si Si3 0.535967 0.893205 0.481981
Si Si4 0.537338 0.562283 0.349412
Si Si5 0.970377 0.641949 0.219020
Si Si6 0.466244 0.459356 0.904630
O O1 0.250000 0.148663 0.384697
O O2 0.522674 0.250000 0.353870
O O3 0.531929 0.154055 0.455397
O O4 0.520106 0.050355 0.355740
O O5 0.750000 0.149484 0.040901
O O6 0.036529 0.250000 0.041345
O O7 0.034962 0.061621 0.074891
O O8 0.994377 0.111072 0.961135
O O9 0.750000 0.873744 0.479102
O O10 0.464329 0.887167 0.411816
O O11 0.500000 0.000000 0.500000
O O12 0.750000 0.582132 0.349804
O O13 0.466735 0.600171 0.284514
O O14 0.750000 0.639581 0.218931
O O15 0.022750 0.750000 0.212611
O O16 0.031692 0.581423 0.160289
O O17 0.250000 0.466037 0.900543
#
# Coordination Sequence:
#
# PCOD9453257 Si02
#       6
#     8   8   8   8   8   8
#     4   9  17  29  45  64  87 117 150 183 224 271
#     4   9  17  29  46  69  95 120 148 184 222 256
#     4   8  14  25  41  60  82 108 140 179 219 257
#     4   9  17  29  45  66  90 115 147 186 223 261
#     4   9  17  29  46  68  92 117 146 181 221 265
#     4   9  17  30  48  69  93 121 151 181 216 261
#
# _framework density 20.928836
#
# number of rings (size 3 to 8) (size 9 to 14) (size 15 to 20)
#    0.000    3.167    0.000    0.500    0.000    2.000 
#    0.000    5.000    0.000    4.500    0.000    4.667 
#    0.000    0.000    0.000    0.000    0.000    0.000 
#
# Total GULP energy -267386.794781 kJ/mol
# GULP energy per Si atom -5570.558225 kJ/mol
# Density = 2.088120 g / cm^3
# Si number density = 20.928836 Si / 1000 Ang^3
#
#
#
# Elastic Constant Matrix: (Units=GPa)
#
#
# Indices 1 2 3 4 5 6 
#
# 1 68.5553 -0.7525 5.2873 0.0000 0.0000 0.0000
# 2 -0.7525 142.5080 77.8924 0.0000 0.0000 0.0000
# 3 5.2873 77.8924 161.0333 0.0000 0.0000 0.0000
# 4 0.0000 0.0000 0.0000 17.9646 0.0000 0.0000
# 5 0.0000 0.0000 0.0000 0.0000 4.6022 0.0000
# 6 0.0000 0.0000 0.0000 0.0000 0.0000 1.9351
#
#
#
# Elastic Compliance Matrix: (Units=1/GPa)
#
#
# Indices 1 2 3 4 5 6 
#
# 1 0.014646 0.000462 -0.000705 0.000000 0.000000 0.000000
# 2 0.000462 0.009554 -0.004636 0.000000 0.000000 0.000000
# 3 -0.000705 -0.004636 0.008476 0.000000 0.000000 0.000000
# 4 0.000000 0.000000 0.000000 0.055665 0.000000 0.000000
# 5 0.000000 0.000000 0.000000 0.000000 0.217285 0.000000
# 6 0.000000 0.000000 0.000000 0.000000 0.000000 0.516765
#
#
# Mechanical properties :
#
#
# Convention : Reuss Voigt Hill
#
# Bulk Modulus (GPa) = 43.63270 59.66123 51.64697
# Shear Modulus (GPa) = 5.95388 24.21168 15.08278
#
# Velocity S-wave (km/s) = 1.68849 3.40495 2.68744
# Velocity P-wave (km/s) = 4.96938 6.63527 5.86181
#
# Compressibility (1/GPa) = 0.02291859
#
# Stress axis : x y z
#
# Youngs Moduli (GPa) = 68.27717 104.67093 117.98490
#
# Poissons Ratio (x) = -0.04840 0.08313
# Poissons Ratio (y) = -0.03157 0.54702
# Poissons Ratio (z) = 0.04811 0.48529
#
# Static dielectric constant tensor:
#      x y z
#    x 1.811470 0.000000 0.000000 
#    y 0.000000 1.767750 0.000000 
#    z 0.000000 0.000000 1.738080 
# 
# From -- ./inp_files/26873.got.cif
#   From: 2010.05.17/outbox.cif.g08.bks.cpg/sg59_14_cif.got.tgz:26873.got - 2010.06.03 14:40:33.
