data_PCOD9453312
_publ_section_title
;
Structure prediction by ZEFSAII (Michael W. Deem and Ramdas Pophale) SiO2 
 PCOD9453312
Probable space group: P M M N
;
_chemical_formula_sum "Si O2"
_cell_formula_units_Z 48
_cell_length_a 10.289259
_cell_length_b 12.902188
_cell_length_c 18.379512
_cell_angle_alpha 90.000000
_cell_angle_beta 90.000000
_cell_angle_gamma 90.000000
_cell_volume 2439.952891
_symmetry_space_group_name_H-M "P M M N"
_symmetry_group_IT_number 59
_space_group.IT_coordinate_system_code '2'
_symmetry_cell_setting 'orthorhombic'
loop_
_space_group_symop_operation_xyz
x,y,z
1/2-x,1/2-y,z
1/2+x,-y,-z
-x,1/2+y,-z
-x,-y,-z
1/2+x,1/2+y,-z
1/2-x,y,z
x,1/2-y,z
loop_
_atom_site_type_symbol
_atom_site_label
_atom_site_fract_x
_atom_site_fract_y
_atom_site_fract_z
Si Si1 0.603255 0.631004 0.791769
Si Si2 0.894921 0.906237 0.085327
Si Si3 0.901852 0.868127 0.557319
Si Si4 0.599549 0.954014 0.399587
Si Si5 0.095834 0.452069 0.759396
Si Si6 0.966662 0.137540 0.061717
O O1 0.750000 0.598564 0.773453
O O2 0.585147 0.750000 0.767591
O O3 0.493708 0.554361 0.762023
O O4 0.583712 0.631062 0.879502
O O5 0.750000 0.866176 0.075302
O O6 0.938950 0.887510 0.168253
O O7 0.891501 0.031594 0.076638
O O8 0.985246 0.867059 0.020998
O O9 0.750000 0.889633 0.575107
O O10 0.930542 0.750000 0.578192
O O11 0.999390 0.951424 0.591031
O O12 0.915540 0.881362 0.469780
O O13 0.750000 0.991381 0.401144
O O14 0.579053 0.903736 0.320381
O O15 0.250000 0.476358 0.767557
O O16 0.903872 0.250000 0.075089
#
# Coordination Sequence:
#
# PCOD9453312 Si02
#       6
#     8   8   8   8   8   8
#     4   9  17  28  43  64  89 119 156 196 236 274
#     4   9  17  29  45  65  89 119 155 192 230 274
#     4   9  18  33  53  75  96 120 153 190 226 269
#     4   9  18  33  51  71  97 126 153 185 228 276
#     4   9  18  31  45  64  93 124 151 183 227 277
#     4   9  17  29  45  65  89 118 155 198 237 271
#
# _framework density 19.672512000000001
#
# number of rings (size 3 to 8) (size 9 to 14) (size 15 to 20)
#    0.000    3.000    0.000    0.500    0.000    3.333 
#    0.000    7.500    0.000    3.000    0.000    0.000 
#    0.000    6.667    0.000    0.000    0.000    0.000 
#
# Total GULP energy -267309.323875 kJ/mol
# GULP energy per Si atom -5568.944247 kJ/mol
# Density = 1.962774 g / cm^3
# Si number density = 19.672512 Si / 1000 Ang^3
#
#
#
# Elastic Constant Matrix: (Units=GPa)
#
#
# Indices 1 2 3 4 5 6 
#
# 1 45.2992 9.4884 8.0467 0.0000 0.0000 0.0000
# 2 9.4884 61.9017 -10.5084 0.0000 0.0000 0.0000
# 3 8.0467 -10.5084 124.7469 0.0000 0.0000 0.0000
# 4 0.0000 0.0000 0.0000 4.4102 0.0000 0.0000
# 5 0.0000 0.0000 0.0000 0.0000 15.2445 0.0000
# 6 0.0000 0.0000 0.0000 0.0000 0.0000 0.9427
#
#
#
# Elastic Compliance Matrix: (Units=1/GPa)
#
#
# Indices 1 2 3 4 5 6 
#
# 1 0.023209 -0.003867 -0.001823 0.000000 0.000000 0.000000
# 2 -0.003867 0.017033 0.001684 0.000000 0.000000 0.000000
# 3 -0.001823 0.001684 0.008276 0.000000 0.000000 0.000000
# 4 0.000000 0.000000 0.000000 0.226748 0.000000 0.000000
# 5 0.000000 0.000000 0.000000 0.000000 0.065597 0.000000
# 6 0.000000 0.000000 0.000000 0.000000 0.000000 1.060768
#
#
# Mechanical properties :
#
#
# Convention : Reuss Voigt Hill
#
# Bulk Modulus (GPa) = 24.68703 27.33348 26.01026
# Shear Modulus (GPa) = 3.51334 19.11422 11.31378
#
# Velocity S-wave (km/s) = 1.33783 3.12046 2.40074
# Velocity P-wave (km/s) = 3.86816 5.18724 4.57548
#
# Compressibility (1/GPa) = 0.04050710
#
# Stress axis : x y z
#
# Youngs Moduli (GPa) = 43.08635 58.70852 120.83583
#
# Poissons Ratio (x) = 0.22703 0.22026
# Poissons Ratio (y) = 0.16661 -0.20352
# Poissons Ratio (z) = 0.07854 -0.09888
#
# Static dielectric constant tensor:
#      x y z
#    x 1.660390 0.000000 0.000000 
#    y 0.000000 1.673850 0.000000 
#    z 0.000000 0.000000 1.751820 
# 
# From -- ./inp_files/26960.got.cif
#   From: 2010.05.17/outbox.cif.g08.bks.cpg/sg59_14_cif.got.tgz:26960.got - 2010.06.03 14:40:33.
