data_PCOD9453069
_publ_section_title
;
Structure prediction by ZEFSAII (Michael W. Deem and Ramdas Pophale) SiO2 
 PCOD9453069
Probable space group: P M M N
;
_chemical_formula_sum "Si O2"
_cell_formula_units_Z 64
_cell_length_a 9.374001
_cell_length_b 23.426413
_cell_length_c 15.859534
_cell_angle_alpha 90.000000
_cell_angle_beta 90.000000
_cell_angle_gamma 90.000000
_cell_volume 3482.741278
_symmetry_space_group_name_H-M "P M M N"
_symmetry_group_IT_number 59
_space_group.IT_coordinate_system_code '2'
_symmetry_cell_setting 'orthorhombic'
loop_
_space_group_symop_operation_xyz
x,y,z
1/2-x,1/2-y,z
1/2+x,-y,-z
-x,1/2+y,-z
-x,-y,-z
1/2+x,1/2+y,-z
1/2-x,y,z
x,1/2-y,z
loop_
_atom_site_type_symbol
_atom_site_label
_atom_site_fract_x
_atom_site_fract_y
_atom_site_fract_z
Si Si1 0.909407 0.818233 0.967051
Si Si2 0.078766 0.887606 0.640812
Si Si3 0.923830 0.376915 0.695322
Si Si4 0.576439 0.184196 0.524111
Si Si5 0.088647 0.858185 0.123037
Si Si6 0.577077 0.509047 0.724344
Si Si7 0.082744 0.181350 0.219642
Si Si8 0.412536 0.506426 0.086692
O O1 0.750000 0.840902 0.979948
O O2 0.901558 0.750000 0.961262
O O3 0.003598 0.833488 0.045727
O O4 0.958979 0.837783 0.874853
O O5 0.250000 0.894117 0.642982
O O6 0.037430 0.857720 0.552550
O O7 0.000304 0.946687 0.663009
O O8 0.021676 0.845370 0.712944
O O9 0.750000 0.375261 0.697589
O O10 0.971114 0.343292 0.612598
O O11 0.972810 0.349153 0.783472
O O12 0.960687 0.444078 0.698281
O O13 0.750000 0.185734 0.525437
O O14 0.528422 0.250000 0.513062
O O15 0.250000 0.836022 0.121227
O O16 0.093015 0.926301 0.108590
O O17 0.750000 0.514355 0.720346
O O18 0.536210 0.519557 0.823324
O O19 0.250000 0.165086 0.233016
O O20 0.076861 0.250000 0.224199
O O21 0.250000 0.486470 0.072164
O O22 0.500000 0.500000 0.000000
#
# Coordination Sequence:
#
# PCOD9453069 Si02
#       8
#     8   8   8   8   8   8   8   8
#     4   9  19  34  50  71 101 138 176 210 255 318
#     4  11  22  33  51  81 112 138 174 227 273 316
#     4   8  16  34  56  76 105 141 177 217 263 321
#     4   9  18  33  54  81 109 137 172 218 277 332
#     4   9  18  32  51  77 103 128 168 220 261 300
#     4   9  19  36  54  75 106 145 183 217 261 319
#     4   9  19  36  54  71  99 142 184 218 262 327
#     4   9  19  33  49  72 103 136 173 215 256 304
#
# _framework density 18.376328000000001
#
# number of rings (size 3 to 8) (size 9 to 14) (size 15 to 20)
#    0.000    2.875    0.000    3.000    1.750    3.500 
#    0.000    4.375    0.000    2.250    0.000    1.750 
#    0.000    0.000    0.000    0.000    0.000    0.000 
#
# Total GULP energy -356602.349828 kJ/mol
# GULP energy per Si atom -5571.911716 kJ/mol
# Density = 1.833450 g / cm^3
# Si number density = 18.376328 Si / 1000 Ang^3
#
#
#
# Elastic Constant Matrix: (Units=GPa)
#
#
# Indices 1 2 3 4 5 6 
#
# 1 23.3652 5.7835 33.8776 0.0000 0.0000 0.0000
# 2 5.7835 34.1580 20.3581 0.0000 0.0000 0.0000
# 3 33.8776 20.3581 137.8185 0.0000 0.0000 0.0000
# 4 0.0000 0.0000 0.0000 34.4626 0.0000 0.0000
# 5 0.0000 0.0000 0.0000 0.0000 14.5272 0.0000
# 6 0.0000 0.0000 0.0000 0.0000 0.0000 25.9024
#
#
#
# Elastic Compliance Matrix: (Units=1/GPa)
#
#
# Indices 1 2 3 4 5 6 
#
# 1 0.066586 -0.001666 -0.016122 0.000000 0.000000 0.000000
# 2 -0.001666 0.032144 -0.004339 0.000000 0.000000 0.000000
# 3 -0.016122 -0.004339 0.011860 0.000000 0.000000 0.000000
# 4 0.000000 0.000000 0.000000 0.029017 0.000000 0.000000
# 5 0.000000 0.000000 0.000000 0.000000 0.068836 0.000000
# 6 0.000000 0.000000 0.000000 0.000000 0.000000 0.038606
#
#
# Mechanical properties :
#
#
# Convention : Reuss Voigt Hill
#
# Bulk Modulus (GPa) = 15.07446 35.04225 25.05835
# Shear Modulus (GPa) = 15.95337 23.99995 19.97666
#
# Velocity S-wave (km/s) = 2.94963 3.61782 3.30068
# Velocity P-wave (km/s) = 4.45213 6.04666 5.30959
#
# Compressibility (1/GPa) = 0.06633737
#
# Stress axis : x y z
#
# Youngs Moduli (GPa) = 15.01816 31.11041 84.31885
#
# Poissons Ratio (x) = 0.05182 1.35936
# Poissons Ratio (y) = 0.02501 0.36584
# Poissons Ratio (z) = 0.24212 0.13498
#
# Static dielectric constant tensor:
#      x y z
#    x 1.626970 0.000000 0.000000 
#    y 0.000000 1.660970 0.000000 
#    z 0.000000 0.000000 1.647520 
# 
# From -- ./inp_files/21462.got.cif
#   From: 2010.05.17/outbox.cif.g08.bks.cpg/sg59_11_cif.got.tgz:21462.got - 2010.06.03 14:40:33.
