data_PCOD9453340
_publ_section_title
;
Structure prediction by ZEFSAII (Michael W. Deem and Ramdas Pophale) SiO2 
 PCOD9453340
Probable space group: P M M N
;
_chemical_formula_sum "Si O2"
_cell_formula_units_Z 64
_cell_length_a 18.000000
_cell_length_b 9.000000
_cell_length_c 21.000000
_cell_angle_alpha 90.000000
_cell_angle_beta 90.000000
_cell_angle_gamma 90.000000
_cell_volume 3402.000000
_symmetry_space_group_name_H-M "P M M N"
_symmetry_group_IT_number 59
_space_group.IT_coordinate_system_code '2'
_symmetry_cell_setting 'orthorhombic'
loop_
_space_group_symop_operation_xyz
x,y,z
1/2-x,1/2-y,z
1/2+x,-y,-z
-x,1/2+y,-z
-x,-y,-z
1/2+x,1/2+y,-z
1/2-x,y,z
x,1/2-y,z
loop_
_atom_site_type_symbol
_atom_site_label
_atom_site_fract_x
_atom_site_fract_y
_atom_site_fract_z
Si Si1 0.067248 0.069930 0.782108
Si Si2 0.906524 0.928998 0.361664
Si Si3 0.668995 0.930669 0.486134
Si Si4 0.558944 0.569939 0.596609
Si Si5 0.667011 0.930764 0.098341
Si Si6 0.669384 0.569785 0.708690
Si Si7 0.923663 0.929727 0.975832
Si Si8 0.584708 0.570679 0.829621
O O1 0.062003 0.250000 0.782521
O O2 0.096820 0.023829 0.712299
O O3 0.118293 0.022958 0.841397
O O4 0.987919 0.999933 0.797825
O O5 0.909411 0.750000 0.360947
O O6 0.843784 0.972653 0.412554
O O7 0.980794 0.993141 0.393036
O O8 0.750000 0.980913 0.508575
O O9 0.668715 0.750000 0.488944
O O10 0.603398 0.977618 0.533441
O O11 0.550915 0.750000 0.595836
O O12 0.607998 0.525590 0.657866
O O13 0.750000 0.984892 0.106304
O O14 0.667225 0.750000 0.099040
O O15 0.635379 0.974284 0.029603
O O16 0.750000 0.513924 0.689913
O O17 0.670620 0.750000 0.706262
O O18 0.650149 0.529557 0.781142
O O19 0.929328 0.750000 0.976405
O O20 0.907092 0.975595 0.903180
O O21 0.000000 0.000000 0.000000
O O22 0.577620 0.750000 0.829180
#
# Coordination Sequence:
#
# PCOD9453340 Si02
#       8
#     8   8   8   8   8   8   8   8
#     4  10  19  32  51  73  99 133 166 201 247 297
#     4  10  20  32  50  76 102 129 164 207 251 294
#     4   9  18  32  50  74 102 130 165 208 250 293
#     4  10  18  31  53  75  97 131 167 202 244 294
#     4   9  18  32  50  74 101 129 166 208 247 289
#     4   9  17  29  47  73 100 125 159 201 243 287
#     4  10  19  31  51  75  99 130 164 202 248 296
#     4  10  19  31  50  75  99 127 163 204 247 291
#
# _framework density 18.812463000000001
#
# number of rings (size 3 to 8) (size 9 to 14) (size 15 to 20)
#    0.000    2.375    2.500    0.750    0.000    2.500 
#    0.000    5.000    0.000    5.250    0.000    3.500 
#    0.000    0.000    0.000    0.000    0.000    0.000 
#
# Total GULP energy -356564.138723 kJ/mol
# GULP energy per Si atom -5571.314668 kJ/mol
# Density = 1.876965 g / cm^3
# Si number density = 18.812463 Si / 1000 Ang^3
#
#
#
# Elastic Constant Matrix: (Units=GPa)
#
#
# Indices 1 2 3 4 5 6 
#
# 1 55.0787 -3.0354 11.1608 0.0000 0.0000 0.0000
# 2 -3.0354 -10.1655 5.9301 0.0000 0.0000 0.0000
# 3 11.1608 5.9301 124.1931 0.0000 0.0000 0.0000
# 4 0.0000 0.0000 0.0000 17.7086 0.0000 0.0000
# 5 0.0000 0.0000 0.0000 0.0000 -61.6921 0.0000
# 6 0.0000 0.0000 0.0000 0.0000 0.0000 15.3191
#
#
#
# Elastic Compliance Matrix: (Units=1/GPa)
#
#
# Indices 1 2 3 4 5 6 
#
# 1 0.018085 -0.006176 -0.001330 0.000000 0.000000 0.000000
# 2 -0.006176 -0.093597 0.005024 0.000000 0.000000 0.000000
# 3 -0.001330 0.005024 0.007932 0.000000 0.000000 0.000000
# 4 0.000000 0.000000 0.000000 0.056470 0.000000 0.000000
# 5 0.000000 0.000000 0.000000 0.000000 -0.016210 0.000000
# 6 0.000000 0.000000 0.000000 0.000000 0.000000 0.065278
#
#
# Mechanical properties :
#
#
# Convention : Reuss Voigt Hill
#
# Bulk Modulus (GPa) = -13.78458 21.91302 4.06422
# Shear Modulus (GPa) = 266.78964 4.60384 135.69674
#
# Velocity S-wave (km/s) = 11.92155 1.56606 8.50223
# Velocity P-wave (km/s) = 13.49646 3.86568 9.92718
#
# Compressibility (1/GPa) = -0.07254485
#
# Stress axis : x y z
#
# Youngs Moduli (GPa) = 55.29438 -10.68413 126.07751
#
# Poissons Ratio (x) = -0.06599 0.16772
# Poissons Ratio (y) = 0.34151 -0.63344
# Poissons Ratio (z) = 0.07356 0.05368
#
# Static dielectric constant tensor:
#      x y z
#    x 1.666720 0.000000 0.000000 
#    y 0.000000 1.635870 0.000000 
#    z 0.000000 0.000000 1.726790 
# 
# From -- ./inp_files/29591.got.cif
#   From: 2010.05.17/outbox.ucp.g08.bks.cvg/sg59_15_cif.got.tgz:29591.got - 2010.06.11 16:43:56.
