data_PCOD9453587
_publ_section_title
;
Structure prediction by ZEFSAII (Michael W. Deem and Ramdas Pophale) SiO2 
 PCOD9453587
Probable space group: P M M N
;
_chemical_formula_sum "Si O2"
_cell_formula_units_Z 48
_cell_length_a 9.000000
_cell_length_b 18.000000
_cell_length_c 15.000000
_cell_angle_alpha 90.000000
_cell_angle_beta 90.000000
_cell_angle_gamma 90.000000
_cell_volume 2430.000000
_symmetry_space_group_name_H-M "P M M N"
_symmetry_group_IT_number 59
_space_group.IT_coordinate_system_code '2'
_symmetry_cell_setting 'orthorhombic'
loop_
_space_group_symop_operation_xyz
x,y,z
1/2-x,1/2-y,z
1/2+x,-y,-z
-x,1/2+y,-z
-x,-y,-z
1/2+x,1/2+y,-z
1/2-x,y,z
x,1/2-y,z
loop_
_atom_site_type_symbol
_atom_site_label
_atom_site_fract_x
_atom_site_fract_y
_atom_site_fract_z
Si Si1 0.919189 0.038650 0.421265
Si Si2 0.414952 0.399076 0.158072
Si Si3 0.076382 0.580632 0.006637
Si Si4 0.582744 0.043446 0.732190
Si Si5 0.921675 0.662010 0.167623
Si Si6 0.587121 0.836302 0.646269
O O1 0.750000 0.029933 0.434011
O O2 0.964989 0.123360 0.410615
O O3 0.000000 0.000000 0.500000
O O4 0.973709 0.997277 0.333752
O O5 0.250000 0.382226 0.120839
O O6 0.544315 0.383875 0.089659
O O7 0.414934 0.486334 0.184662
O O8 0.432266 0.354607 0.249625
O O9 0.250000 0.575537 0.025914
O O10 0.000000 0.500000 0.000000
O O11 0.990677 0.630590 0.077228
O O12 0.750000 0.047238 0.697304
O O13 0.519686 0.122592 0.757529
O O14 0.750000 0.638499 0.175437
O O15 0.929457 0.750000 0.171077
O O16 0.750000 0.868355 0.622770
O O17 0.588067 0.750000 0.632266
#
# Coordination Sequence:
#
# PCOD9453587 Si02
#       6
#     8   8   8   8   8   8
#     4  11  22  38  62  90 120 152 192 237 281 342
#     4   9  18  33  55  83 112 148 190 232 281 341
#     4  12  23  35  55  81 113 154 199 246 290 338
#     4  10  20  37  61  85 112 147 187 232 284 344
#     4  11  24  40  58  82 114 152 195 243 294 344
#     4   9  19  37  60  86 119 154 188 233 291 347
#
# _framework density 19.753086
#
# number of rings (size 3 to 8) (size 9 to 14) (size 15 to 20)
#    0.000    1.667    1.667    5.000    0.000    5.000 
#    0.000    2.500    0.000    5.000    0.000    0.000 
#    0.000    0.000    0.000    0.000    0.000    0.000 
#
# Total GULP energy -267524.620509 kJ/mol
# GULP energy per Si atom -5573.429594 kJ/mol
# Density = 1.970813 g / cm^3
# Si number density = 19.753086 Si / 1000 Ang^3
#
#
#
# Elastic Constant Matrix: (Units=GPa)
#
#
# Indices 1 2 3 4 5 6 
#
# 1 114.6820 57.8408 29.2000 0.0000 0.0000 0.0000
# 2 57.8408 65.1008 25.7676 0.0000 0.0000 0.0000
# 3 29.2000 25.7676 27.8220 0.0000 0.0000 0.0000
# 4 0.0000 0.0000 0.0000 0.0282 0.0000 0.0000
# 5 0.0000 0.0000 0.0000 0.0000 25.7810 0.0000
# 6 0.0000 0.0000 0.0000 0.0000 0.0000 24.5617
#
#
#
# Elastic Compliance Matrix: (Units=1/GPa)
#
#
# Indices 1 2 3 4 5 6 
#
# 1 0.016384 -0.012236 -0.005863 0.000000 0.000000 0.000000
# 2 -0.012236 0.033389 -0.018081 0.000000 0.000000 0.000000
# 3 -0.005863 -0.018081 0.058842 0.000000 0.000000 0.000000
# 4 0.000000 0.000000 0.000000 35.460862 0.000000 0.000000
# 5 0.000000 0.000000 0.000000 0.000000 0.038788 0.000000
# 6 0.000000 0.000000 0.000000 0.000000 0.000000 0.040714
#
#
# Mechanical properties :
#
#
# Convention : Reuss Voigt Hill
#
# Bulk Modulus (GPa) = 27.58274 48.13572 37.85923
# Shear Modulus (GPa) = 0.13993 16.39395 8.26694
#
# Velocity S-wave (km/s) = 0.26644 2.88400 2.04798
# Velocity P-wave (km/s) = 3.75350 5.95916 4.97997
#
# Compressibility (1/GPa) = 0.03625455
#
# Stress axis : x y z
#
# Youngs Moduli (GPa) = 61.03513 29.94967 16.99461
#
# Poissons Ratio (x) = 0.36647 0.09963
# Poissons Ratio (y) = 0.74685 0.30729
# Poissons Ratio (z) = 0.35783 0.54153
#
# Static dielectric constant tensor:
#      x y z
#    x 1.727800 0.000000 0.000000 
#    y 0.000000 1.686520 0.000000 
#    z 0.000000 0.000000 1.718960 
# 
# From -- ./inp_files/20397.got.cif
#   From: 2010.05.17/outbox.ucp.g08.bks.cvg/sg59_11_cif.got.tgz:20397.got - 2010.06.11 16:43:56.
