data_PCOD9453422
_publ_section_title
;
Structure prediction by ZEFSAII (Michael W. Deem and Ramdas Pophale) SiO2 
 PCOD9453422
Probable space group: P M M N
;
_chemical_formula_sum "Si O2"
_cell_formula_units_Z 64
_cell_length_a 9.000000
_cell_length_b 18.000000
_cell_length_c 21.000000
_cell_angle_alpha 90.000000
_cell_angle_beta 90.000000
_cell_angle_gamma 90.000000
_cell_volume 3402.000000
_symmetry_space_group_name_H-M "P M M N"
_symmetry_group_IT_number 59
_space_group.IT_coordinate_system_code '2'
_symmetry_cell_setting 'orthorhombic'
loop_
_space_group_symop_operation_xyz
x,y,z
1/2-x,1/2-y,z
1/2+x,-y,-z
-x,1/2+y,-z
-x,-y,-z
1/2+x,1/2+y,-z
1/2-x,y,z
x,1/2-y,z
loop_
_atom_site_type_symbol
_atom_site_label
_atom_site_fract_x
_atom_site_fract_y
_atom_site_fract_z
Si Si1 0.570843 0.164524 0.695660
Si Si2 0.574970 0.396653 0.277262
Si Si3 0.072208 0.448999 0.943918
Si Si4 0.920528 0.160904 0.027936
Si Si5 0.570611 0.087900 0.563056
Si Si6 0.583709 0.838104 0.844338
Si Si7 0.074616 0.446317 0.795123
Si Si8 0.929424 0.074840 0.421175
O O1 0.750000 0.159570 0.697628
O O2 0.526615 0.250000 0.702555
O O3 0.525358 0.136055 0.624720
O O4 0.507032 0.116266 0.753711
O O5 0.750000 0.376896 0.274770
O O6 0.485251 0.350052 0.225217
O O7 0.558995 0.479480 0.247909
O O8 0.526280 0.392765 0.351573
O O9 0.250000 0.457417 0.946004
O O10 0.025281 0.457643 0.869246
O O11 0.000000 0.500000 0.000000
O O12 0.020541 0.369043 0.970548
O O13 0.750000 0.135884 0.020862
O O14 0.921072 0.250000 0.028212
O O15 0.983015 0.134265 0.096776
O O16 0.750000 0.081951 0.564508
O O17 0.532524 0.112581 0.489928
O O18 0.499338 0.007024 0.573619
O O19 0.750000 0.870397 0.848065
O O20 0.594275 0.750000 0.853981
O O21 0.250000 0.428947 0.798413
O O22 0.750000 0.069162 0.418669
#
# Coordination Sequence:
#
# PCOD9453422 Si02
#       8
#     8   8   8   8   8   8   8   8
#     4  10  21  36  54  78 111 149 189 233 278 327
#     4  10  19  33  54  80 110 142 180 225 270 324
#     4  11  23  38  58  84 113 145 181 229 284 334
#     4  10  21  38  59  80 105 141 183 226 275 333
#     4   9  17  31  51  77 106 138 179 225 273 319
#     4  10  21  36  55  80 109 141 178 221 271 329
#     4  10  22  38  55  79 110 142 181 226 271 324
#     4   9  17  30  52  79 106 137 177 224 270 319
#
# _framework density 18.812463000000001
#
# number of rings (size 3 to 8) (size 9 to 14) (size 15 to 20)
#    0.000    2.125    1.250    1.875    0.000    5.250 
#    0.000    3.125    0.000    2.250    0.000    0.000 
#    0.000    0.000    0.000    0.000    0.000    0.000 
#
# Total GULP energy -356676.918103 kJ/mol
# GULP energy per Si atom -5573.076845 kJ/mol
# Density = 1.876965 g / cm^3
# Si number density = 18.812463 Si / 1000 Ang^3
#
#
#
# Elastic Constant Matrix: (Units=GPa)
#
#
# Indices 1 2 3 4 5 6 
#
# 1 35.7146 20.1634 32.1816 0.0000 0.0000 0.0000
# 2 20.1634 45.6785 25.1166 0.0000 0.0000 0.0000
# 3 32.1816 25.1166 165.0634 0.0000 0.0000 0.0000
# 4 0.0000 0.0000 0.0000 31.0823 0.0000 0.0000
# 5 0.0000 0.0000 0.0000 0.0000 32.8598 0.0000
# 6 0.0000 0.0000 0.0000 0.0000 0.0000 23.4964
#
#
#
# Elastic Compliance Matrix: (Units=1/GPa)
#
#
# Indices 1 2 3 4 5 6 
#
# 1 0.041890 -0.015279 -0.005842 0.000000 0.000000 0.000000
# 2 -0.015279 0.029464 -0.001505 0.000000 0.000000 0.000000
# 3 -0.005842 -0.001505 0.007426 0.000000 0.000000 0.000000
# 4 0.000000 0.000000 0.000000 0.032173 0.000000 0.000000
# 5 0.000000 0.000000 0.000000 0.000000 0.030432 0.000000
# 6 0.000000 0.000000 0.000000 0.000000 0.000000 0.042560
#
#
# Mechanical properties :
#
#
# Convention : Reuss Voigt Hill
#
# Bulk Modulus (GPa) = 29.82482 44.59774 37.21128
# Shear Modulus (GPa) = 20.80114 28.75402 24.77758
#
# Velocity S-wave (km/s) = 3.32883 3.91379 3.63310
# Velocity P-wave (km/s) = 5.53742 6.64692 6.11738
#
# Compressibility (1/GPa) = 0.03352912
#
# Stress axis : x y z
#
# Youngs Moduli (GPa) = 23.87213 33.94012 134.65776
#
# Poissons Ratio (x) = 0.51856 0.78670
# Poissons Ratio (y) = 0.36473 0.20259
# Poissons Ratio (z) = 0.13947 0.05106
#
# Static dielectric constant tensor:
#      x y z
#    x 1.651940 0.000000 0.000000 
#    y 0.000000 1.697540 0.000000 
#    z 0.000000 0.000000 1.657410 
# 
# From -- ./inp_files/29613.got.cif
#   From: 2010.05.17/outbox.ucp.g08.bks.cvg/sg59_15_cif.got.tgz:29613.got - 2010.06.11 16:43:56.
