data_PCOD9453444
_publ_section_title
;
Structure prediction by ZEFSAII (Michael W. Deem and Ramdas Pophale) SiO2 
 PCOD9453444
Probable space group: P M M N
;
_chemical_formula_sum "Si O2"
_cell_formula_units_Z 56
_cell_length_a 15.000000
_cell_length_b 9.000000
_cell_length_c 21.000000
_cell_angle_alpha 90.000000
_cell_angle_beta 90.000000
_cell_angle_gamma 90.000000
_cell_volume 2835.000000
_symmetry_space_group_name_H-M "P M M N"
_symmetry_group_IT_number 59
_space_group.IT_coordinate_system_code '2'
_symmetry_cell_setting 'orthorhombic'
loop_
_space_group_symop_operation_xyz
x,y,z
1/2-x,1/2-y,z
1/2+x,-y,-z
-x,1/2+y,-z
-x,-y,-z
1/2+x,1/2+y,-z
1/2-x,y,z
x,1/2-y,z
loop_
_atom_site_type_symbol
_atom_site_label
_atom_site_fract_x
_atom_site_fract_y
_atom_site_fract_z
Si Si1 0.912179 0.578509 0.661506
Si Si2 0.148329 0.074909 0.848701
Si Si3 0.056922 0.923873 0.555623
Si Si4 0.514280 0.928040 0.792024
Si Si5 0.750000 0.080968 0.447205
Si Si6 0.345812 0.422093 0.099156
Si Si7 0.592912 0.425147 0.019767
Si Si8 0.250000 0.915069 0.400669
O O1 0.884905 0.750000 0.667891
O O2 0.931680 0.518239 0.731111
O O3 0.836805 0.495712 0.623699
O O4 0.001174 0.571524 0.619961
O O5 0.250000 0.050177 0.829698
O O6 0.133270 0.250000 0.857013
O O7 0.129686 0.994789 0.915681
O O8 0.079253 0.007479 0.799193
O O9 0.068873 0.750000 0.537101
O O10 0.154840 0.990159 0.567783
O O11 0.000000 0.000000 0.500000
O O12 0.501822 0.750000 0.786659
O O13 0.573297 0.956132 0.854338
O O14 0.750000 0.250000 0.420202
O O15 0.750000 0.088633 0.523555
O O16 0.250000 0.431245 0.132989
O O17 0.355657 0.250000 0.077321
O O18 0.346537 0.530074 0.039572
O O19 0.582906 0.250000 0.027352
O O20 0.500000 0.500000 0.000000
O O21 0.250000 0.750000 0.375073
#
# Coordination Sequence:
#
# PCOD9453444 Si02
#       8
#     8   8   8   8   4   8   8   4
#     4  10  22  38  59  88 120 156 197 245 295 349
#     4  11  24  42  64  88 116 154 197 245 300 354
#     4  10  19  35  57  83 116 152 192 241 294 345
#     4  10  22  40  61  86 116 156 198 240 289 345
#     4   9  18  33  55  83 117 153 192 239 294 349
#     4  10  21  37  58  84 116 152 188 234 294 353
#     4  12  23  37  60  88 118 152 192 244 298 350
#     4  11  21  35  59  89 119 159 196 235 290 355
#
# _framework density 19.753086
#
# number of rings (size 3 to 8) (size 9 to 14) (size 15 to 20)
#    0.000    1.571    2.857    2.357    1.000    3.714 
#    1.286    0.357    0.000    0.000    0.000    0.000 
#    0.000    0.000    0.000    0.000    0.000    0.000 
#
# Total GULP energy -312436.472076 kJ/mol
# GULP energy per Si atom -5579.222716 kJ/mol
# Density = 1.970813 g / cm^3
# Si number density = 19.753086 Si / 1000 Ang^3
#
#
#
# Elastic Constant Matrix: (Units=GPa)
#
#
# Indices 1 2 3 4 5 6 
#
# 1 109.9550 40.1023 -4.4347 0.0000 0.0000 0.0000
# 2 40.1023 14.3019 -0.2050 0.0000 0.0000 0.0000
# 3 -4.4347 -0.2050 16.3789 0.0000 0.0000 0.0000
# 4 0.0000 0.0000 0.0000 17.5698 0.0000 0.0000
# 5 0.0000 0.0000 0.0000 0.0000 29.6003 0.0000
# 6 0.0000 0.0000 0.0000 0.0000 0.0000 26.5277
#
#
#
# Elastic Compliance Matrix: (Units=1/GPa)
#
#
# Indices 1 2 3 4 5 6 
#
# 1 -0.294009 0.823403 -0.069299 0.000000 0.000000 0.000000
# 2 0.823403 -2.236098 0.194954 0.000000 0.000000 0.000000
# 3 -0.069299 0.194954 0.044731 0.000000 0.000000 0.000000
# 4 0.000000 0.000000 0.000000 0.056916 0.000000 0.000000
# 5 0.000000 0.000000 0.000000 0.000000 0.033783 0.000000
# 6 0.000000 0.000000 0.000000 0.000000 0.000000 0.037696
#
#
# Mechanical properties :
#
#
# Convention : Reuss Voigt Hill
#
# Bulk Modulus (GPa) = -1.70283 23.50677 10.90197
# Shear Modulus (GPa) = -1.12338 21.75111 10.31386
#
# Velocity S-wave (km/s) = -0.75495 3.32196 2.28752
# Velocity P-wave (km/s) = 1.27431 5.16140 3.53668
#
# Compressibility (1/GPa) = -0.58725858
#
# Stress axis : x y z
#
# Youngs Moduli (GPa) = -3.40126 -0.44721 22.35572
#
# Poissons Ratio (x) = 0.36823 1.54922
# Poissons Ratio (y) = 2.80061 -4.35833
# Poissons Ratio (z) = -0.23570 0.08718
#
# Static dielectric constant tensor:
#      x y z
#    x 1.748660 0.000000 0.000000 
#    y 0.000000 1.681160 0.000000 
#    z 0.000000 0.000000 1.671520 
# 
# From -- ./inp_files/30423.got.cif
#   From: 2010.05.17/outbox.ucp.g08.bks.cvg/sg59_16_cif.got.tgz:30423.got - 2010.06.11 16:43:56.
