data_PCOD9453779
_publ_section_title
;
Structure prediction by ZEFSAII (Michael W. Deem and Ramdas Pophale) SiO2 
 PCOD9453779
Probable space group: P B C N
;
_chemical_formula_sum "Si O2"
_cell_formula_units_Z 40
_cell_length_a 8.718942
_cell_length_b 14.734765
_cell_length_c 12.988065
_cell_angle_alpha 90.000000
_cell_angle_beta 90.000000
_cell_angle_gamma 90.000000
_cell_volume 1668.596990
_symmetry_space_group_name_H-M "P B C N"
_symmetry_group_IT_number 60
_symmetry_cell_setting 'orthorhombic'
loop_
_space_group_symop_operation_xyz
x,y,z
1/2-x,1/2-y,1/2+z
1/2+x,1/2-y,-z
-x,y,1/2-z
-x,-y,-z
1/2+x,1/2+y,1/2-z
1/2-x,1/2+y,z
x,-y,1/2+z
loop_
_atom_site_type_symbol
_atom_site_label
_atom_site_fract_x
_atom_site_fract_y
_atom_site_fract_z
Si Si1 0.000000 0.551436 0.250000
Si Si2 0.345240 0.976938 0.935942
Si Si3 0.474466 0.727684 0.133790
Si Si4 0.000000 0.154964 0.750000
Si Si5 0.788630 0.822553 0.068739
Si Si6 0.719096 0.089705 0.861242
O O1 0.105893 0.587084 0.341419
O O2 0.118561 0.489147 0.187794
O O3 0.268092 0.073335 0.910419
O O4 0.500000 0.000000 0.000000
O O5 0.248014 0.923652 0.018864
O O6 0.500000 0.686192 0.250000
O O7 0.635009 0.762124 0.083580
O O8 0.375053 0.818421 0.156236
O O9 0.371367 0.680376 0.043642
O O10 0.090796 0.204819 0.841769
O O11 0.122351 0.093904 0.694330
#
# Coordination Sequence:
#
# PCOD9453779 Si02
#       6
#     4   8   8   4   8   8
#     4  10  16  40  65  91 130 174 222 280 340 408
#     4  10  20  40  70  99 127 176 229 286 341 411
#     4  12  23  46  70  99 141 183 233 294 344 418
#     4  12  22  42  67  99 138 192 226 282 354 426
#     4  12  25  43  70 104 136 183 241 284 355 416
#     4  11  20  40  70  94 131 183 228 279 349 417
#
# _framework density 23.972235000000001
#
# number of rings (size 3 to 8) (size 9 to 14) (size 15 to 20)
#    0.000    0.800    9.000    1.200    0.000    0.800 
#    1.800    7.000    0.000    0.000    0.000    0.000 
#    0.000    0.000    0.000    0.000    0.000    0.000 
#
# Total GULP energy -223147.217783 kJ/mol
# GULP energy per Si atom -5578.680445 kJ/mol
# Density = 2.391767 g / cm^3
# Si number density = 23.972235 Si / 1000 Ang^3
#
#
#
# Elastic Constant Matrix: (Units=GPa)
#
#
# Indices 1 2 3 4 5 6 
#
# 1 135.6205 22.0265 66.0815 0.0000 0.0000 0.0000
# 2 22.0265 45.1662 24.0615 0.0000 0.0000 0.0000
# 3 66.0815 24.0615 215.2304 0.0000 0.0000 0.0000
# 4 0.0000 0.0000 0.0000 23.4236 0.0000 0.0000
# 5 0.0000 0.0000 0.0000 0.0000 65.0061 0.0000
# 6 0.0000 0.0000 0.0000 0.0000 0.0000 -317.2735
#
#
#
# Elastic Compliance Matrix: (Units=1/GPa)
#
#
# Indices 1 2 3 4 5 6 
#
# 1 0.009067 -0.003125 -0.002435 0.000000 0.000000 0.000000
# 2 -0.003125 0.024620 -0.001793 0.000000 0.000000 0.000000
# 3 -0.002435 -0.001793 0.005594 0.000000 0.000000 0.000000
# 4 0.000000 0.000000 0.000000 0.042692 0.000000 0.000000
# 5 0.000000 0.000000 0.000000 0.000000 0.015383 0.000000
# 6 0.000000 0.000000 0.000000 0.000000 0.000000 -0.003152
#
#
# Mechanical properties :
#
#
# Convention : Reuss Voigt Hill
#
# Bulk Modulus (GPa) = 40.68978 68.92845 54.80911
# Shear Modulus (GPa) = 42.69815 -26.84559 7.92628
#
# Velocity S-wave (km/s) = 4.22495 -3.35006 1.82033
# Velocity P-wave (km/s) = 6.38833 3.72182 5.22794
#
# Compressibility (1/GPa) = 0.02457619
#
# Stress axis : x y z
#
# Youngs Moduli (GPa) = 110.28653 40.61812 178.76005
#
# Poissons Ratio (x) = 0.12693 0.43520
# Poissons Ratio (y) = 0.34464 0.32049
# Poissons Ratio (z) = 0.26850 0.07282
#
# Static dielectric constant tensor:
#      x y z
#    x 1.951040 0.000000 0.000000 
#    y 0.000000 1.951340 0.000000 
#    z 0.000000 0.000000 2.631420 
# 
# From -- ./inp_files/9978.got.cif
#   From: 2010.05.17/outbox.cif.g08.bks.cpg/sg60_5_cif.got.tgz:9978.got - 2010.06.03 14:59:27.
