data_PCOD9453221
_publ_section_title
;
Structure prediction by ZEFSAII (Michael W. Deem and Ramdas Pophale) SiO2 
 PCOD9453221
Probable space group: P M M N
;
_chemical_formula_sum "Si O2"
_cell_formula_units_Z 56
_cell_length_a 7.438277
_cell_length_b 14.612810
_cell_length_c 27.161751
_cell_angle_alpha 90.000000
_cell_angle_beta 90.000000
_cell_angle_gamma 90.000000
_cell_volume 2952.322854
_symmetry_space_group_name_H-M "P M M N"
_symmetry_group_IT_number 59
_space_group.IT_coordinate_system_code '2'
_symmetry_cell_setting 'orthorhombic'
loop_
_space_group_symop_operation_xyz
x,y,z
1/2-x,1/2-y,z
1/2+x,-y,-z
-x,1/2+y,-z
-x,-y,-z
1/2+x,1/2+y,-z
1/2-x,y,z
x,1/2-y,z
loop_
_atom_site_type_symbol
_atom_site_label
_atom_site_fract_x
_atom_site_fract_y
_atom_site_fract_z
Si Si1 0.537408 0.647507 0.421936
Si Si2 0.970544 0.470074 0.373258
Si Si3 0.464716 0.853931 0.019997
Si Si4 0.966276 0.354898 0.467715
Si Si5 0.034384 0.966386 0.924790
Si Si6 0.030908 0.645051 0.719814
Si Si7 0.969185 0.144720 0.168728
O O1 0.750000 0.654787 0.413448
O O2 0.460355 0.750000 0.419686
O O3 0.468017 0.573216 0.383605
O O4 0.516634 0.611445 0.477866
O O5 0.750000 0.469485 0.372961
O O6 0.028336 0.411786 0.420878
O O7 0.029593 0.422917 0.322877
O O8 0.250000 0.847158 0.014680
O O9 0.532618 0.750000 0.026491
O O10 0.496428 0.927714 0.063159
O O11 0.533795 0.904003 0.970355
O O12 0.750000 0.354090 0.465977
O O13 0.029936 0.250000 0.464198
O O14 0.250000 0.957597 0.924655
O O15 0.968993 0.924625 0.873394
O O16 0.250000 0.643947 0.719690
O O17 0.978074 0.750000 0.709000
O O18 0.973638 0.622669 0.775516
O O19 0.750000 0.143631 0.168855
O O20 0.021162 0.250000 0.157620
#
# Coordination Sequence:
#
# PCOD9453221 Si02
#       7
#     8   8   8   8   8   8   8
#     4   9  17  27  37  51  73 100 126 150 181 223
#     4   9  15  23  36  53  75 100 123 151 187 225
#     4   9  17  28  41  59  85 115 143 169 200 240
#     4   9  16  25  38  56  75  94 119 152 187 222
#     4   9  16  26  42  63  85 109 138 171 204 238
#     4   8  13  21  35  57  81 101 123 154 193 233
#     4   8  13  22  38  60  84 107 130 160 200 242
#
# _framework density 18.968114
#
# number of rings (size 3 to 8) (size 9 to 14) (size 15 to 20)
#    0.000    3.286    0.000    2.143    0.000    3.714 
#    0.000    0.000    0.000    2.143    0.000    6.000 
#    0.000    4.571    0.000    0.000    0.000    0.000 
#
# Total GULP energy -312214.839514 kJ/mol
# GULP energy per Si atom -5575.264991 kJ/mol
# Density = 1.892494 g / cm^3
# Si number density = 18.968114 Si / 1000 Ang^3
#
#
#
# Elastic Constant Matrix: (Units=GPa)
#
#
# Indices 1 2 3 4 5 6 
#
# 1 58.7647 4.7120 2.3633 0.0000 0.0000 0.0000
# 2 4.7120 151.6296 109.8300 0.0000 0.0000 0.0000
# 3 2.3633 109.8300 143.6382 0.0000 0.0000 0.0000
# 4 0.0000 0.0000 0.0000 33.4972 0.0000 0.0000
# 5 0.0000 0.0000 0.0000 0.0000 8.1462 0.0000
# 6 0.0000 0.0000 0.0000 0.0000 0.0000 6.1843
#
#
#
# Elastic Compliance Matrix: (Units=1/GPa)
#
#
# Indices 1 2 3 4 5 6 
#
# 1 0.017065 -0.000733 0.000280 0.000000 0.000000 0.000000
# 2 -0.000733 0.014813 -0.011315 0.000000 0.000000 0.000000
# 3 0.000280 -0.011315 0.015609 0.000000 0.000000 0.000000
# 4 0.000000 0.000000 0.000000 0.029853 0.000000 0.000000
# 5 0.000000 0.000000 0.000000 0.000000 0.122756 0.000000
# 6 0.000000 0.000000 0.000000 0.000000 0.000000 0.161700
#
#
# Mechanical properties :
#
#
# Convention : Reuss Voigt Hill
#
# Bulk Modulus (GPa) = 41.75202 65.31589 53.53395
# Shear Modulus (GPa) = 12.71244 25.37404 19.04324
#
# Velocity S-wave (km/s) = 2.59163 3.66145 3.17197
# Velocity P-wave (km/s) = 5.56910 7.23770 6.45752
#
# Compressibility (1/GPa) = 0.02395094
#
# Stress axis : x y z
#
# Youngs Moduli (GPa) = 58.60111 67.50669 64.06618
#
# Poissons Ratio (x) = 0.04947 -0.01791
# Poissons Ratio (y) = 0.04294 0.72489
# Poissons Ratio (z) = -0.01638 0.76382
#
# Static dielectric constant tensor:
#      x y z
#    x 1.736610 0.000000 0.000000 
#    y 0.000000 1.669420 0.000000 
#    z 0.000000 0.000000 1.639540 
# 
# From -- ./inp_files/33179.got.cif
#   From: 2010.05.17/outbox.cif.g08.bks.cpg/sg59_17_cif.got.tgz:33179.got - 2010.06.03 14:40:33.
