data_PCOD9453478
_publ_section_title
;
Structure prediction by ZEFSAII (Michael W. Deem and Ramdas Pophale) SiO2 
 PCOD9453478
Probable space group: P M M N
;
_chemical_formula_sum "Si O2"
_cell_formula_units_Z 64
_cell_length_a 15.000000
_cell_length_b 9.000000
_cell_length_c 24.000000
_cell_angle_alpha 90.000000
_cell_angle_beta 90.000000
_cell_angle_gamma 90.000000
_cell_volume 3240.000000
_symmetry_space_group_name_H-M "P M M N"
_symmetry_group_IT_number 59
_space_group.IT_coordinate_system_code '2'
_symmetry_cell_setting 'orthorhombic'
loop_
_space_group_symop_operation_xyz
x,y,z
1/2-x,1/2-y,z
1/2+x,-y,-z
-x,1/2+y,-z
-x,-y,-z
1/2+x,1/2+y,-z
1/2-x,y,z
x,1/2-y,z
loop_
_atom_site_type_symbol
_atom_site_label
_atom_site_fract_x
_atom_site_fract_y
_atom_site_fract_z
Si Si1 0.148104 0.072948 0.672443
Si Si2 0.856289 0.075541 0.531763
Si Si3 0.026342 0.923298 0.581595
Si Si4 0.851874 0.927992 0.782787
Si Si5 0.403685 0.072669 0.994308
Si Si6 0.647382 0.413454 0.895949
Si Si7 0.044724 0.571945 0.770497
Si Si8 0.648457 0.927716 0.132510
O O1 0.250000 0.031071 0.657421
O O2 0.145246 0.250000 0.678850
O O3 0.077026 0.019821 0.627140
O O4 0.117054 0.995199 0.728822
O O5 0.750000 0.031523 0.530062
O O6 0.857954 0.250000 0.548021
O O7 0.907730 0.066104 0.472264
O O8 0.925934 0.981819 0.569422
O O9 0.022070 0.750000 0.597711
O O10 0.750000 0.980482 0.768075
O O11 0.847605 0.750000 0.780740
O O12 0.943594 0.974217 0.751835
O O13 0.877606 0.980293 0.845158
O O14 0.405242 0.250000 0.001666
O O15 0.355127 0.994634 0.045329
O O16 0.365454 0.041931 0.933071
O O17 0.500000 0.000000 0.000000
O O18 0.750000 0.388802 0.883847
O O19 0.601486 0.250000 0.896830
O O20 0.047430 0.750000 0.770398
O O21 0.075995 0.511154 0.830429
O O22 0.750000 0.969219 0.147935
O O23 0.639148 0.750000 0.140575
#
# Coordination Sequence:
#
# PCOD9453478 Si02
#       8
#     8   8   8   8   8   8   8   8
#     4  11  24  41  61  84 113 152 195 238 287 344
#     4   9  18  34  57  87 126 168 205 243 290 343
#     4  10  20  35  58  89 123 159 202 250 294 337
#     4   9  19  37  59  81 107 140 177 219 273 338
#     4  11  22  35  52  74 102 136 174 217 268 327
#     4  10  20  33  51  76 103 131 167 211 259 318
#     4  11  23  38  59  85 109 138 181 234 286 333
#     4  10  22  39  56  75 104 143 181 218 269 334
#
# _framework density 19.753086
#
# number of rings (size 3 to 8) (size 9 to 14) (size 15 to 20)
#    0.000    1.875    0.000    3.750    0.000    9.250 
#    0.000    0.625    0.000    2.250    0.000    0.000 
#    0.000    0.000    0.000    0.000    0.000    0.000 
#
# Total GULP energy -356635.553447 kJ/mol
# GULP energy per Si atom -5572.430523 kJ/mol
# Density = 1.970813 g / cm^3
# Si number density = 19.753086 Si / 1000 Ang^3
#
#
#
# Elastic Constant Matrix: (Units=GPa)
#
#
# Indices 1 2 3 4 5 6 
#
# 1 154.8589 30.5794 6.4404 0.0000 0.0000 0.0000
# 2 30.5794 23.8432 -1.5128 0.0000 0.0000 0.0000
# 3 6.4404 -1.5128 4.7126 0.0000 0.0000 0.0000
# 4 0.0000 0.0000 0.0000 25.2158 0.0000 0.0000
# 5 0.0000 0.0000 0.0000 0.0000 24.7490 0.0000
# 6 0.0000 0.0000 0.0000 0.0000 0.0000 29.2028
#
#
#
# Elastic Compliance Matrix: (Units=1/GPa)
#
#
# Indices 1 2 3 4 5 6 
#
# 1 0.009957 -0.013918 -0.018076 0.000000 0.000000 0.000000
# 2 -0.013918 0.062265 0.039008 0.000000 0.000000 0.000000
# 3 -0.018076 0.039008 0.249421 0.000000 0.000000 0.000000
# 4 0.000000 0.000000 0.000000 0.039658 0.000000 0.000000
# 5 0.000000 0.000000 0.000000 0.000000 0.040406 0.000000
# 6 0.000000 0.000000 0.000000 0.000000 0.000000 0.034243
#
#
# Mechanical properties :
#
#
# Convention : Reuss Voigt Hill
#
# Bulk Modulus (GPa) = 2.97909 28.26986 15.62447
# Shear Modulus (GPa) = 9.36660 25.69405 17.53032
#
# Velocity S-wave (km/s) = 2.17994 3.61052 2.98228
# Velocity P-wave (km/s) = 2.80136 5.63239 4.44811
#
# Compressibility (1/GPa) = 0.33567298
#
# Stress axis : x y z
#
# Youngs Moduli (GPa) = 100.42697 16.06035 4.00929
#
# Poissons Ratio (x) = 0.22352 0.07247
# Poissons Ratio (y) = 1.39770 -0.15639
# Poissons Ratio (z) = 1.81530 -0.62648
#
# Static dielectric constant tensor:
#      x y z
#    x 1.722540 0.000000 0.000000 
#    y 0.000000 1.750330 0.000000 
#    z 0.000000 0.000000 1.767030 
# 
# From -- ./inp_files/32113.got.cif
#   From: 2010.05.17/outbox.ucp.g08.bks.cvg/sg59_17_cif.got.tgz:32113.got - 2010.06.11 16:43:56.
