data_PCOD9453310
_publ_section_title
;
Structure prediction by ZEFSAII (Michael W. Deem and Ramdas Pophale) SiO2 
 PCOD9453310
Probable space group: P M M N
;
_chemical_formula_sum "Si O2"
_cell_formula_units_Z 48
_cell_length_a 24.748376
_cell_length_b 7.589504
_cell_length_c 14.289276
_cell_angle_alpha 90.000000
_cell_angle_beta 90.000000
_cell_angle_gamma 90.000000
_cell_volume 2683.924684
_symmetry_space_group_name_H-M "P M M N"
_symmetry_group_IT_number 59
_space_group.IT_coordinate_system_code '2'
_symmetry_cell_setting 'orthorhombic'
loop_
_space_group_symop_operation_xyz
x,y,z
1/2-x,1/2-y,z
1/2+x,-y,-z
-x,1/2+y,-z
-x,-y,-z
1/2+x,1/2+y,-z
1/2-x,y,z
x,1/2-y,z
loop_
_atom_site_type_symbol
_atom_site_label
_atom_site_fract_x
_atom_site_fract_y
_atom_site_fract_z
Si Si1 0.689570 0.461216 0.359825
Si Si2 0.083797 0.538380 0.538039
Si Si3 0.976890 0.961491 0.644988
Si Si4 0.083821 0.037227 0.961830
Si Si5 0.810655 0.962134 0.142180
Si Si6 0.974720 0.539461 0.854351
O O1 0.750000 0.530613 0.379566
O O2 0.691631 0.250000 0.371732
O O3 0.640775 0.529465 0.423515
O O4 0.677627 0.495732 0.250624
O O5 0.084408 0.750000 0.548017
O O6 0.069366 0.499359 0.430767
O O7 0.033223 0.471506 0.600181
O O8 0.981858 0.750000 0.651437
O O9 0.967272 0.030004 0.749504
O O10 0.086454 0.250000 0.966445
O O11 0.141053 0.971809 0.923289
O O12 0.035629 0.992617 0.890119
O O13 0.064572 0.970864 0.063599
O O14 0.750000 0.027655 0.120877
O O15 0.809522 0.750000 0.134125
O O16 0.966682 0.750000 0.851066
#
# Coordination Sequence:
#
# PCOD9453310 Si02
#       6
#     8   8   8   8   8   8
#     4   9  17  29  45  64  85 110 139 170 206 247
#     4   9  17  28  42  61  83 107 136 169 205 244
#     4   9  17  28  42  60  83 110 137 167 204 244
#     4   9  17  28  43  63  85 110 139 170 206 247
#     4   9  17  28  42  62  87 112 137 167 204 245
#     4   9  17  29  44  62  85 111 138 170 207 246
#
# _framework density 17.884257000000002
#
# number of rings (size 3 to 8) (size 9 to 14) (size 15 to 20)
#    0.000    3.000    0.000    1.000    0.000    3.333 
#    0.000    3.333    0.000    1.000    0.000    2.333 
#    0.000    0.000    0.000    0.000    0.000    0.000 
#
# Total GULP energy -267554.915167 kJ/mol
# GULP energy per Si atom -5574.060733 kJ/mol
# Density = 1.784355 g / cm^3
# Si number density = 17.884257 Si / 1000 Ang^3
#
#
#
# Elastic Constant Matrix: (Units=GPa)
#
#
# Indices 1 2 3 4 5 6 
#
# 1 150.7655 2.2512 112.8153 0.0000 0.0000 0.0000
# 2 2.2512 37.3445 1.7715 0.0000 0.0000 0.0000
# 3 112.8153 1.7715 159.4650 0.0000 0.0000 0.0000
# 4 0.0000 0.0000 0.0000 10.2855 0.0000 0.0000
# 5 0.0000 0.0000 0.0000 0.0000 26.2307 0.0000
# 6 0.0000 0.0000 0.0000 0.0000 0.0000 11.8847
#
#
#
# Elastic Compliance Matrix: (Units=1/GPa)
#
#
# Indices 1 2 3 4 5 6 
#
# 1 0.014099 -0.000377 -0.009970 0.000000 0.000000 0.000000
# 2 -0.000377 0.026802 -0.000031 0.000000 0.000000 0.000000
# 3 -0.009970 -0.000031 0.013325 0.000000 0.000000 0.000000
# 4 0.000000 0.000000 0.000000 0.097224 0.000000 0.000000
# 5 0.000000 0.000000 0.000000 0.000000 0.038123 0.000000
# 6 0.000000 0.000000 0.000000 0.000000 0.000000 0.084142
#
#
# Mechanical properties :
#
#
# Convention : Reuss Voigt Hill
#
# Bulk Modulus (GPa) = 29.87823 64.58344 47.23083
# Shear Modulus (GPa) = 16.35974 25.06265 20.71120
#
# Velocity S-wave (km/s) = 3.02777 3.74756 3.40673
# Velocity P-wave (km/s) = 5.38200 7.41053 6.47618
#
# Compressibility (1/GPa) = 0.03346919
#
# Stress axis : x y z
#
# Youngs Moduli (GPa) = 70.92643 37.31078 75.04706
#
# Poissons Ratio (x) = 0.01406 0.74825
# Poissons Ratio (y) = 0.02674 0.00233
# Poissons Ratio (z) = 0.70716 0.00116
#
# Static dielectric constant tensor:
#      x y z
#    x 1.620330 0.000000 0.000000 
#    y 0.000000 1.656660 0.000000 
#    z 0.000000 0.000000 1.603750 
# 
# From -- ./inp_files/15921.got.cif
#   From: 2010.05.17/outbox.cif.g08.bks.cpg/sg59_8_cif.got.tgz:15921.got - 2010.06.03 14:40:33.
