data_PCOD9453527
_publ_section_title
;
Structure prediction by ZEFSAII (Michael W. Deem and Ramdas Pophale) SiO2 
 PCOD9453527
Probable space group: P M M N
;
_chemical_formula_sum "Si O2"
_cell_formula_units_Z 48
_cell_length_a 15.000000
_cell_length_b 9.000000
_cell_length_c 18.000000
_cell_angle_alpha 90.000000
_cell_angle_beta 90.000000
_cell_angle_gamma 90.000000
_cell_volume 2430.000000
_symmetry_space_group_name_H-M "P M M N"
_symmetry_group_IT_number 59
_space_group.IT_coordinate_system_code '2'
_symmetry_cell_setting 'orthorhombic'
loop_
_space_group_symop_operation_xyz
x,y,z
1/2-x,1/2-y,z
1/2+x,-y,-z
-x,1/2+y,-z
-x,-y,-z
1/2+x,1/2+y,-z
1/2-x,y,z
x,1/2-y,z
loop_
_atom_site_type_symbol
_atom_site_label
_atom_site_fract_x
_atom_site_fract_y
_atom_site_fract_z
Si Si1 0.350356 0.427146 0.871225
Si Si2 0.423574 0.920232 0.297869
Si Si3 0.750000 0.085459 0.601008
Si Si4 0.250000 0.425009 0.547176
Si Si5 0.851920 0.425313 0.966922
Si Si6 0.553078 0.929211 0.430857
Si Si7 0.028973 0.075641 0.156967
O O1 0.250000 0.459328 0.843654
O O2 0.363256 0.250000 0.869548
O O3 0.430311 0.509887 0.830674
O O4 0.355375 0.487244 0.955600
O O5 0.435649 0.750000 0.269827
O O6 0.335926 0.922823 0.347772
O O7 0.502893 0.958315 0.354094
O O8 0.417336 0.032561 0.230422
O O9 0.750000 0.250000 0.563978
O O10 0.750000 0.957891 0.540421
O O11 0.250000 0.250000 0.563575
O O12 0.345206 0.484396 0.573879
O O13 0.750000 0.440949 0.937777
O O14 0.868009 0.250000 0.979436
O O15 0.923651 0.492198 0.911122
O O16 0.552884 0.750000 0.441931
O O17 0.500000 0.000000 0.500000
O O18 0.026064 0.250000 0.142849
#
# Coordination Sequence:
#
# PCOD9453527 Si02
#       7
#     8   8   4   4   8   8   8
#     4  10  21  40  65  89 115 151 196 242 289 344
#     4  10  22  39  57  82 116 153 195 237 288 349
#     4  10  20  36  60  86 112 149 190 235 288 344
#     4  10  20  34  58  90 116 143 184 239 292 342
#     4  10  21  38  62  90 120 154 194 241 289 342
#     4  10  20  36  59  85 116 149 190 237 284 343
#     4  12  25  39  58  85 120 157 195 241 293 348
#
# _framework density 19.753086
#
# number of rings (size 3 to 8) (size 9 to 14) (size 15 to 20)
#    0.000    1.667    1.667    3.000    1.167    3.333 
#    1.500    0.000    0.000    0.000    0.000    0.000 
#    0.000    0.000    0.000    0.000    0.000    0.000 
#
# Total GULP energy -268025.508740 kJ/mol
# GULP energy per Si atom -5583.864765 kJ/mol
# Density = 1.970813 g / cm^3
# Si number density = 19.753086 Si / 1000 Ang^3
#
#
#
# Elastic Constant Matrix: (Units=GPa)
#
#
# Indices 1 2 3 4 5 6 
#
# 1 95.0627 8.9710 2.3306 0.0000 0.0000 0.0000
# 2 8.9710 37.4867 -6.1139 0.0000 0.0000 0.0000
# 3 2.3306 -6.1139 11.1020 0.0000 0.0000 0.0000
# 4 0.0000 0.0000 0.0000 25.2929 0.0000 0.0000
# 5 0.0000 0.0000 0.0000 0.0000 34.0070 0.0000
# 6 0.0000 0.0000 0.0000 0.0000 0.0000 27.2583
#
#
#
# Elastic Compliance Matrix: (Units=1/GPa)
#
#
# Indices 1 2 3 4 5 6 
#
# 1 0.010930 -0.003285 -0.004103 0.000000 0.000000 0.000000
# 2 -0.003285 0.030296 0.017373 0.000000 0.000000 0.000000
# 3 -0.004103 0.017373 0.100503 0.000000 0.000000 0.000000
# 4 0.000000 0.000000 0.000000 0.039537 0.000000 0.000000
# 5 0.000000 0.000000 0.000000 0.000000 0.029406 0.000000
# 6 0.000000 0.000000 0.000000 0.000000 0.000000 0.036686
#
#
# Mechanical properties :
#
#
# Convention : Reuss Voigt Hill
#
# Bulk Modulus (GPa) = 6.18436 17.11409 11.64922
# Shear Modulus (GPa) = 17.77548 26.54255 22.15901
#
# Velocity S-wave (km/s) = 3.00306 3.66965 3.35296
# Velocity P-wave (km/s) = 3.89386 5.16119 4.57165
#
# Compressibility (1/GPa) = 0.16169829
#
# Stress axis : x y z
#
# Youngs Moduli (GPa) = 91.49157 33.00793 9.94999
#
# Poissons Ratio (x) = 0.10843 0.04083
# Poissons Ratio (y) = 0.30054 -0.17287
# Poissons Ratio (z) = 0.37543 -0.57346
#
# Static dielectric constant tensor:
#      x y z
#    x 1.738680 0.000000 0.000000 
#    y 0.000000 1.678390 0.000000 
#    z 0.000000 0.000000 1.674400 
# 
# From -- ./inp_files/27460.got.cif
#   From: 2010.05.17/outbox.ucp.g08.bks.cvg/sg59_14_cif.got.tgz:27460.got - 2010.06.11 16:43:56.
