data_PCOD9453889
_publ_section_title
;
Structure prediction by ZEFSAII (Michael W. Deem and Ramdas Pophale) SiO2 
 PCOD9453889
Probable space group: P B C N
;
_chemical_formula_sum "Si O2"
_cell_formula_units_Z 52
_cell_length_a 20.717771
_cell_length_b 16.090432
_cell_length_c 5.748171
_cell_angle_alpha 90.000000
_cell_angle_beta 90.000000
_cell_angle_gamma 90.000000
_cell_volume 1916.198130
_symmetry_space_group_name_H-M "P B C N"
_symmetry_group_IT_number 60
_symmetry_cell_setting 'orthorhombic'
loop_
_space_group_symop_operation_xyz
x,y,z
1/2-x,1/2-y,1/2+z
1/2+x,1/2-y,-z
-x,y,1/2-z
-x,-y,-z
1/2+x,1/2+y,1/2-z
1/2-x,1/2+y,z
x,-y,1/2+z
loop_
_atom_site_type_symbol
_atom_site_label
_atom_site_fract_x
_atom_site_fract_y
_atom_site_fract_z
Si Si1 0.931465 0.792518 0.837074
Si Si2 0.422043 0.532733 0.297693
Si Si3 0.247964 0.136756 0.625526
Si Si4 0.609650 0.891175 0.368312
Si Si5 0.000000 0.777873 0.250000
Si Si6 0.749937 0.837790 0.877658
Si Si7 0.905419 0.369276 0.870856
O O1 0.910724 0.867887 0.683301
O O2 0.890282 0.710672 0.868902
O O3 0.000000 0.759576 0.750000
O O4 0.955039 0.830732 0.082522
O O5 0.500000 0.522881 0.250000
O O6 0.397071 0.498541 0.545581
O O7 0.315294 0.085528 0.634740
O O8 0.224731 0.122883 0.362175
O O9 0.257712 0.237846 0.624411
O O10 0.219310 0.126308 0.884590
O O11 0.581225 0.911725 0.621265
O O12 0.579063 0.911008 0.118467
O O13 0.053300 0.714756 0.144595
O O14 0.671810 0.852023 0.879582
#
# Coordination Sequence:
#
# PCOD9453889 Si02
#       7
#     8   8   8   8   4   8   8
#     4  10  18  25  36  43  59  71  90 110 144 165
#     4   9  19  28  36  44  53  68  89 111 133 167
#     4   8  13  21  32  42  56  66  87 102 128 150
#     4   9  16  24  32  46  55  70  84 109 131 166
#     4  10  18  24  32  46  60  76  90 116 138 168
#     4   8  13  21  31  42  53  73  84 106 121 155
#     4   9  16  23  31  42  59  71  92 103 133 157
#
# _framework density 27.137069
#
# number of rings (size 3 to 8) (size 9 to 14) (size 15 to 20)
#    0.000    3.077    1.538    0.000    5.385    0.000 
#    0.000    0.000    0.000    0.000    0.000    0.000 
#    0.000    0.000    0.000    0.000    0.000    0.000 
#
# Total GULP energy -289705.445861 kJ/mol
# GULP energy per Si atom -5571.258574 kJ/mol
# Density = 2.707530 g / cm^3
# Si number density = 27.137069 Si / 1000 Ang^3
#
#
#
# Elastic Constant Matrix: (Units=GPa)
#
#
# Indices 1 2 3 4 5 6 
#
# 1 83.2453 0.4344 16.6305 0.0000 0.0000 0.0000
# 2 0.4344 78.4187 11.7141 0.0000 0.0000 0.0000
# 3 16.6305 11.7141 297.9119 0.0000 0.0000 0.0000
# 4 0.0000 0.0000 0.0000 -285.4961 0.0000 0.0000
# 5 0.0000 0.0000 0.0000 0.0000 14.8782 0.0000
# 6 0.0000 0.0000 0.0000 0.0000 0.0000 -12.2482
#
#
#
# Elastic Compliance Matrix: (Units=1/GPa)
#
#
# Indices 1 2 3 4 5 6 
#
# 1 0.012148 0.000034 -0.000680 0.000000 0.000000 0.000000
# 2 0.000034 0.012828 -0.000506 0.000000 0.000000 0.000000
# 3 -0.000680 -0.000506 0.003415 0.000000 0.000000 0.000000
# 4 0.000000 0.000000 0.000000 -0.003503 0.000000 0.000000
# 5 0.000000 0.000000 0.000000 0.000000 0.067212 0.000000
# 6 0.000000 0.000000 0.000000 0.000000 0.000000 -0.081645
#
#
# Mechanical properties :
#
#
# Convention : Reuss Voigt Hill
#
# Bulk Modulus (GPa) = 38.33309 57.45932 47.89621
# Shear Modulus (GPa) = 233.05772 -27.85342 102.60215
#
# Velocity S-wave (km/s) = 9.27729 -3.20722 6.15556
# Velocity P-wave (km/s) = 11.35403 2.73947 8.25889
#
# Compressibility (1/GPa) = 0.02608712
#
# Stress axis : x y z
#
# Youngs Moduli (GPa) = 82.31635 77.95747 292.86548
#
# Poissons Ratio (x) = -0.00267 0.19900
# Poissons Ratio (y) = -0.00282 0.14828
# Poissons Ratio (z) = 0.05593 0.03947
#
# Static dielectric constant tensor:
#      x y z
#    x 2.016520 0.000000 0.000000 
#    y 0.000000 2.012220 0.000000 
#    z 0.000000 0.000000 2.458130 
# 
# From -- ./inp_files/2752.got.cif
#   From: 2010.05.17/outbox.cif.g08.bks.cpg/sg60_2_cif.got.tgz:2752.got - 2010.06.03 14:59:27.
