data_PCOD9453658
_publ_section_title
;
Structure prediction by ZEFSAII (Michael W. Deem and Ramdas Pophale) SiO2 
 PCOD9453658
Probable space group: P M M N
;
_chemical_formula_sum "Si O2"
_cell_formula_units_Z 56
_cell_length_a 9.000000
_cell_length_b 15.000000
_cell_length_c 21.000000
_cell_angle_alpha 90.000000
_cell_angle_beta 90.000000
_cell_angle_gamma 90.000000
_cell_volume 2835.000000
_symmetry_space_group_name_H-M "P M M N"
_symmetry_group_IT_number 59
_space_group.IT_coordinate_system_code '2'
_symmetry_cell_setting 'orthorhombic'
loop_
_space_group_symop_operation_xyz
x,y,z
1/2-x,1/2-y,z
1/2+x,-y,-z
-x,1/2+y,-z
-x,-y,-z
1/2+x,1/2+y,-z
1/2-x,y,z
x,1/2-y,z
loop_
_atom_site_type_symbol
_atom_site_label
_atom_site_fract_x
_atom_site_fract_y
_atom_site_fract_z
Si Si1 0.573498 0.475523 0.352973
Si Si2 0.575115 0.592928 0.018676
Si Si3 0.075686 0.513573 0.789373
Si Si4 0.421464 0.150233 0.121492
Si Si5 0.576305 0.855160 0.540272
Si Si6 0.426798 0.646243 0.403796
Si Si7 0.426392 0.850029 0.149801
O O1 0.750000 0.471292 0.364513
O O2 0.542803 0.447910 0.280348
O O3 0.488399 0.414612 0.403440
O O4 0.515271 0.576168 0.361402
O O5 0.750000 0.581176 0.031332
O O6 0.498875 0.632626 0.080844
O O7 0.500000 0.500000 0.000000
O O8 0.558334 0.649710 0.954442
O O9 0.250000 0.494926 0.792835
O O10 0.028015 0.581872 0.843932
O O11 0.987693 0.423253 0.802367
O O12 0.250000 0.122596 0.133059
O O13 0.442853 0.250000 0.145887
O O14 0.750000 0.876074 0.528787
O O15 0.565247 0.750000 0.555905
O O16 0.483057 0.869883 0.475944
O O17 0.250000 0.631586 0.399475
O O18 0.457182 0.750000 0.388611
O O19 0.250000 0.859323 0.143451
O O20 0.461505 0.750000 0.170843
#
# Coordination Sequence:
#
# PCOD9453658 Si02
#       7
#     8   8   8   8   8   8   8
#     4  11  24  40  59  85 119 158 199 242 293 350
#     4  11  21  36  62  92 121 153 192 240 297 353
#     4  11  25  42  60  84 116 158 201 245 295 348
#     4  10  22  40  62  87 117 154 194 240 295 352
#     4  10  21  38  62  91 121 155 195 240 290 344
#     4  10  21  38  62  91 121 154 193 240 293 346
#     4  11  24  41  62  88 118 155 198 245 298 354
#
# _framework density 19.753086
#
# number of rings (size 3 to 8) (size 9 to 14) (size 15 to 20)
#    0.000    1.429    1.429    3.429    0.000    7.714 
#    0.000    5.714    0.000    0.000    0.000    0.000 
#    0.000    0.000    0.000    0.000    0.000    0.000 
#
# Total GULP energy -312992.555632 kJ/mol
# GULP energy per Si atom -5589.152779 kJ/mol
# Density = 1.970813 g / cm^3
# Si number density = 19.753086 Si / 1000 Ang^3
#
#
#
# Elastic Constant Matrix: (Units=GPa)
#
#
# Indices 1 2 3 4 5 6 
#
# 1 31.9866 13.8061 -0.9688 0.0000 0.0000 0.0000
# 2 13.8061 39.3931 -0.1448 0.0000 0.0000 0.0000
# 3 -0.9688 -0.1448 26.7319 0.0000 0.0000 0.0000
# 4 0.0000 0.0000 0.0000 -24.0172 0.0000 0.0000
# 5 0.0000 0.0000 0.0000 0.0000 28.5984 0.0000
# 6 0.0000 0.0000 0.0000 0.0000 0.0000 20.3457
#
#
#
# Elastic Compliance Matrix: (Units=1/GPa)
#
#
# Indices 1 2 3 4 5 6 
#
# 1 0.036878 -0.012920 0.001267 0.000000 0.000000 0.000000
# 2 -0.012920 0.029912 -0.000306 0.000000 0.000000 0.000000
# 3 0.001267 -0.000306 0.037453 0.000000 0.000000 0.000000
# 4 0.000000 0.000000 0.000000 -0.041637 0.000000 0.000000
# 5 0.000000 0.000000 0.000000 0.000000 0.034967 0.000000
# 6 0.000000 0.000000 0.000000 0.000000 0.000000 0.049151
#
#
# Mechanical properties :
#
#
# Convention : Reuss Voigt Hill
#
# Bulk Modulus (GPa) = 12.44965 13.72183 13.08574
# Shear Modulus (GPa) = 25.32703 10.67997 18.00350
#
# Velocity S-wave (km/s) = 3.58464 2.32776 3.02226
# Velocity P-wave (km/s) = 4.84243 3.76648 4.33795
#
# Compressibility (1/GPa) = 0.08032357
#
# Stress axis : x y z
#
# Youngs Moduli (GPa) = 27.11640 33.43125 26.70032
#
# Poissons Ratio (x) = 0.43193 -0.03382
# Poissons Ratio (y) = 0.35034 0.00818
# Poissons Ratio (z) = -0.03434 0.01024
#
# Static dielectric constant tensor:
#      x y z
#    x 1.657820 0.000000 0.000000 
#    y 0.000000 1.694160 0.000000 
#    z 0.000000 0.000000 1.681390 
# 
# From -- ./inp_files/29005.got.cif
#   From: 2010.05.17/outbox.ucp.g08.bks.cvg/sg59_15_cif.got.tgz:29005.got - 2010.06.11 16:43:56.
