data_PCOD9453307
_publ_section_title
;
Structure prediction by ZEFSAII (Michael W. Deem and Ramdas Pophale) SiO2 
 PCOD9453307
Probable space group: P M M N
;
_chemical_formula_sum "Si O2"
_cell_formula_units_Z 40
_cell_length_a 14.063057
_cell_length_b 7.513197
_cell_length_c 19.211693
_cell_angle_alpha 90.000000
_cell_angle_beta 90.000000
_cell_angle_gamma 90.000000
_cell_volume 2029.879004
_symmetry_space_group_name_H-M "P M M N"
_symmetry_group_IT_number 59
_space_group.IT_coordinate_system_code '2'
_symmetry_cell_setting 'orthorhombic'
loop_
_space_group_symop_operation_xyz
x,y,z
1/2-x,1/2-y,z
1/2+x,-y,-z
-x,1/2+y,-z
-x,-y,-z
1/2+x,1/2+y,-z
1/2-x,y,z
x,1/2-y,z
loop_
_atom_site_type_symbol
_atom_site_label
_atom_site_fract_x
_atom_site_fract_y
_atom_site_fract_z
Si Si1 0.642990 0.035293 0.036643
Si Si2 0.451592 0.964722 0.394331
Si Si3 0.139673 0.532049 0.250268
Si Si4 0.354942 0.037893 0.539222
Si Si5 0.049456 0.538831 0.106699
O O1 0.750000 0.972707 0.050711
O O2 0.645427 0.250000 0.033540
O O3 0.562084 0.988137 0.092268
O O4 0.605156 0.968732 0.961425
O O5 0.456069 0.750000 0.391310
O O6 0.412005 0.028118 0.320695
O O7 0.556494 0.031915 0.415601
O O8 0.382705 0.009532 0.458628
O O9 0.250000 0.479694 0.249896
O O10 0.137637 0.750000 0.250776
O O11 0.087797 0.470106 0.179958
O O12 0.250000 0.965416 0.553958
O O13 0.351801 0.250000 0.550637
O O14 0.067122 0.750000 0.107459
#
# Coordination Sequence:
#
# PCOD9453307 Si02
#       5
#     8   8   8   8   8
#     4   9  17  30  47  65  88 119 149 178 217 262
#     4   9  17  29  46  67  88 113 147 181 213 257
#     4   9  16  27  45  68  91 113 140 178 221 260
#     4   9  17  29  44  63  89 118 145 177 217 256
#     4   9  17  29  46  68  90 113 146 184 218 256
#
# _framework density 19.705607000000001
#
# number of rings (size 3 to 8) (size 9 to 14) (size 15 to 20)
#    0.000    3.000    0.000    1.200    0.000    4.000 
#    0.000    2.000    0.000    6.600    0.000    0.000 
#    0.000    0.000    0.000    0.000    0.000    0.000 
#
# Total GULP energy -223122.284801 kJ/mol
# GULP energy per Si atom -5578.057120 kJ/mol
# Density = 1.966076 g / cm^3
# Si number density = 19.705607 Si / 1000 Ang^3
#
#
#
# Elastic Constant Matrix: (Units=GPa)
#
#
# Indices 1 2 3 4 5 6 
#
# 1 177.2182 -3.5314 99.7763 0.0000 0.0000 0.0000
# 2 -3.5314 50.7311 0.4335 0.0000 0.0000 0.0000
# 3 99.7763 0.4335 151.5760 0.0000 0.0000 0.0000
# 4 0.0000 0.0000 0.0000 7.3843 0.0000 0.0000
# 5 0.0000 0.0000 0.0000 0.0000 16.4462 0.0000
# 6 0.0000 0.0000 0.0000 0.0000 0.0000 15.3360
#
#
#
# Elastic Compliance Matrix: (Units=1/GPa)
#
#
# Indices 1 2 3 4 5 6 
#
# 1 0.008989 0.000676 -0.005919 0.000000 0.000000 0.000000
# 2 0.000676 0.019763 -0.000502 0.000000 0.000000 0.000000
# 3 -0.005919 -0.000502 0.010495 0.000000 0.000000 0.000000
# 4 0.000000 0.000000 0.000000 0.135422 0.000000 0.000000
# 5 0.000000 0.000000 0.000000 0.000000 0.060804 0.000000
# 6 0.000000 0.000000 0.000000 0.000000 0.000000 0.065206
#
#
# Mechanical properties :
#
#
# Convention : Reuss Voigt Hill
#
# Bulk Modulus (GPa) = 36.02534 63.65354 49.83944
# Shear Modulus (GPa) = 15.55598 26.68977 21.12288
#
# Velocity S-wave (km/s) = 2.81271 3.68424 3.27757
# Velocity P-wave (km/s) = 5.37307 7.10427 6.29843
#
# Compressibility (1/GPa) = 0.02775824
#
# Stress axis : x y z
#
# Youngs Moduli (GPa) = 111.25238 50.59930 95.28484
#
# Poissons Ratio (x) = -0.03422 0.56397
# Poissons Ratio (y) = -0.07524 0.04780
# Poissons Ratio (z) = 0.65847 0.02538
#
# Static dielectric constant tensor:
#      x y z
#    x 1.691490 0.000000 0.000000 
#    y 0.000000 1.763490 0.000000 
#    z 0.000000 0.000000 1.660260 
# 
# From -- ./inp_files/22166.got.cif
#   From: 2010.05.17/outbox.cif.g08.bks.cpg/sg59_12_cif.got.tgz:22166.got - 2010.06.03 14:40:33.
