data_PCOD9453543
_publ_section_title
;
Structure prediction by ZEFSAII (Michael W. Deem and Ramdas Pophale) SiO2 
 PCOD9453543
Probable space group: P M M N
;
_chemical_formula_sum "Si O2"
_cell_formula_units_Z 64
_cell_length_a 15.000000
_cell_length_b 9.000000
_cell_length_c 24.000000
_cell_angle_alpha 90.000000
_cell_angle_beta 90.000000
_cell_angle_gamma 90.000000
_cell_volume 3240.000000
_symmetry_space_group_name_H-M "P M M N"
_symmetry_group_IT_number 59
_space_group.IT_coordinate_system_code '2'
_symmetry_cell_setting 'orthorhombic'
loop_
_space_group_symop_operation_xyz
x,y,z
1/2-x,1/2-y,z
1/2+x,-y,-z
-x,1/2+y,-z
-x,-y,-z
1/2+x,1/2+y,-z
1/2-x,y,z
x,1/2-y,z
loop_
_atom_site_type_symbol
_atom_site_label
_atom_site_fract_x
_atom_site_fract_y
_atom_site_fract_z
Si Si1 0.348077 0.926391 0.755821
Si Si2 0.653480 0.576193 0.126627
Si Si3 0.348939 0.071495 0.591366
Si Si4 0.461922 0.927033 0.250149
Si Si5 0.505045 0.928281 0.940014
Si Si6 0.534779 0.069040 0.631717
Si Si7 0.147793 0.072200 0.150410
Si Si8 0.854584 0.076857 0.525755
O O1 0.250000 0.968326 0.731709
O O2 0.361312 0.750000 0.747539
O O3 0.340810 0.968355 0.820701
O O4 0.436156 0.019728 0.742491
O O5 0.750000 0.570509 0.097222
O O6 0.639971 0.750000 0.143117
O O7 0.572105 0.513768 0.092633
O O8 0.250000 0.013819 0.605197
O O9 0.346554 0.250000 0.595614
O O10 0.432928 0.015196 0.626019
O O11 0.367958 0.023022 0.528238
O O12 0.459939 0.750000 0.243096
O O13 0.420592 0.970772 0.309876
O O14 0.411946 0.001701 0.199032
O O15 0.490985 0.750000 0.940770
O O16 0.597673 0.956890 0.907749
O O17 0.500000 0.000000 0.000000
O O18 0.532252 0.250000 0.630742
O O19 0.588654 0.022232 0.577703
O O20 0.250000 0.019616 0.151518
O O21 0.147709 0.250000 0.158321
O O22 0.750000 0.073520 0.539926
O O23 0.877498 0.250000 0.513499
#
# Coordination Sequence:
#
# PCOD9453543 Si02
#       8
#     8   8   8   8   8   8   8   8
#     4  10  20  35  56  81 111 148 186 226 280 343
#     4  10  20  35  58  87 117 148 184 229 281 337
#     4   9  17  31  51  74 103 139 178 222 274 333
#     4  11  22  36  58  86 115 149 195 244 287 338
#     4  11  23  39  62  90 122 157 192 238 291 341
#     4   9  19  33  50  76 107 141 180 225 279 336
#     4  10  23  44  65  84 114 158 199 236 286 342
#     4   9  17  31  51  73 101 137 178 226 279 333
#
# _framework density 19.753086
#
# number of rings (size 3 to 8) (size 9 to 14) (size 15 to 20)
#    0.000    2.125    1.250    1.875    0.000    3.750 
#    0.000    6.250    0.000    3.000    0.000    0.000 
#    0.000    0.000    0.000    0.000    0.000    0.000 
#
# Total GULP energy -356610.555578 kJ/mol
# GULP energy per Si atom -5572.039931 kJ/mol
# Density = 1.970813 g / cm^3
# Si number density = 19.753086 Si / 1000 Ang^3
#
#
#
# Elastic Constant Matrix: (Units=GPa)
#
#
# Indices 1 2 3 4 5 6 
#
# 1 87.6517 16.4887 56.6405 0.0000 0.0000 0.0000
# 2 16.4887 17.7254 7.6496 0.0000 0.0000 0.0000
# 3 56.6405 7.6496 114.0684 0.0000 0.0000 0.0000
# 4 0.0000 0.0000 0.0000 6.7322 0.0000 0.0000
# 5 0.0000 0.0000 0.0000 0.0000 1882.1523 0.0000
# 6 0.0000 0.0000 0.0000 0.0000 0.0000 16.5961
#
#
#
# Elastic Compliance Matrix: (Units=1/GPa)
#
#
# Indices 1 2 3 4 5 6 
#
# 1 0.019932 -0.014695 -0.008912 0.000000 0.000000 0.000000
# 2 -0.014695 0.068932 0.002674 0.000000 0.000000 0.000000
# 3 -0.008912 0.002674 0.013012 0.000000 0.000000 0.000000
# 4 0.000000 0.000000 0.000000 0.148539 0.000000 0.000000
# 5 0.000000 0.000000 0.000000 0.000000 0.000531 0.000000
# 6 0.000000 0.000000 0.000000 0.000000 0.000000 0.060255
#
#
# Mechanical properties :
#
#
# Convention : Reuss Voigt Hill
#
# Bulk Modulus (GPa) = 16.66364 42.33370 29.49867
# Shear Modulus (GPa) = 13.40227 390.34058 201.87142
#
# Velocity S-wave (km/s) = 2.60761 14.07263 10.12024
# Velocity P-wave (km/s) = 4.18574 16.89763 12.30956
#
# Compressibility (1/GPa) = 0.06001091
#
# Stress axis : x y z
#
# Youngs Moduli (GPa) = 50.17067 14.50703 76.84965
#
# Poissons Ratio (x) = 0.21319 0.68486
# Poissons Ratio (y) = 0.73728 -0.20552
# Poissons Ratio (z) = 0.44711 -0.03880
#
# Static dielectric constant tensor:
#      x y z
#    x 1.415780 0.000000 0.000000 
#    y 0.000000 1.654160 0.000000 
#    z 0.000000 0.000000 1.683710 
# 
# From -- ./inp_files/32116.got.cif
#   From: 2010.05.17/outbox.ucp.g08.bks.cvg/sg59_17_cif.got.tgz:32116.got - 2010.06.11 16:43:56.
