data_PCOD9453311
_publ_section_title
;
Structure prediction by ZEFSAII (Michael W. Deem and Ramdas Pophale) SiO2 
 PCOD9453311
Probable space group: P M M N
;
_chemical_formula_sum "Si O2"
_cell_formula_units_Z 48
_cell_length_a 7.684230
_cell_length_b 14.277462
_cell_length_c 24.743377
_cell_angle_alpha 90.000000
_cell_angle_beta 90.000000
_cell_angle_gamma 90.000000
_cell_volume 2714.628102
_symmetry_space_group_name_H-M "P M M N"
_symmetry_group_IT_number 59
_space_group.IT_coordinate_system_code '2'
_symmetry_cell_setting 'orthorhombic'
loop_
_space_group_symop_operation_xyz
x,y,z
1/2-x,1/2-y,z
1/2+x,-y,-z
-x,1/2+y,-z
-x,-y,-z
1/2+x,1/2+y,-z
1/2-x,y,z
x,1/2-y,z
loop_
_atom_site_type_symbol
_atom_site_label
_atom_site_fract_x
_atom_site_fract_y
_atom_site_fract_z
Si Si1 0.040796 0.144475 0.476679
Si Si2 0.458797 0.643008 0.189198
Si Si3 0.540469 0.642607 0.310550
Si Si4 0.460182 0.355286 0.023095
Si Si5 0.458591 0.964351 0.085211
Si Si6 0.040950 0.462646 0.583885
O O1 0.250000 0.148905 0.480643
O O2 0.975762 0.250000 0.468686
O O3 0.975599 0.099313 0.533088
O O4 0.999506 0.069998 0.430020
O O5 0.250000 0.647483 0.183377
O O6 0.525714 0.750000 0.183789
O O7 0.495815 0.610663 0.250112
O O8 0.526530 0.576674 0.141544
O O9 0.750000 0.645526 0.313940
O O10 0.477045 0.750000 0.316875
O O11 0.475869 0.577842 0.359346
O O12 0.250000 0.353758 0.026545
O O13 0.524278 0.250000 0.032359
O O14 0.505821 0.391598 0.963225
O O15 0.525463 0.434975 0.064497
O O16 0.250000 0.973357 0.090122
O O17 0.250000 0.453865 0.584176
#
# Coordination Sequence:
#
# PCOD9453311 Si02
#       6
#     8   8   8   8   8   8
#     4   9  17  29  45  65  89 115 142 174 212 254
#     4   9  17  28  42  61  84 110 141 176 212 250
#     4   9  17  29  45  64  86 113 143 174 210 251
#     4   9  17  28  43  64  87 110 139 175 211 248
#     4   9  17  29  44  62  86 115 142 170 209 254
#     4   9  17  29  45  65  88 114 143 175 212 253
#
# _framework density 17.681979999999999
#
# number of rings (size 3 to 8) (size 9 to 14) (size 15 to 20)
#    0.000    3.000    0.000    1.000    0.000    4.667 
#    0.000    1.667    0.000    4.000    0.000    2.333 
#    0.000    0.000    0.000    0.000    0.000    0.000 
#
# Total GULP energy -267527.711441 kJ/mol
# GULP energy per Si atom -5573.493988 kJ/mol
# Density = 1.764174 g / cm^3
# Si number density = 17.681980 Si / 1000 Ang^3
#
#
#
# Elastic Constant Matrix: (Units=GPa)
#
#
# Indices 1 2 3 4 5 6 
#
# 1 27.2581 3.9659 2.3494 0.0000 0.0000 0.0000
# 2 3.9659 150.5953 102.7887 0.0000 0.0000 0.0000
# 3 2.3494 102.7887 163.0497 0.0000 0.0000 0.0000
# 4 0.0000 0.0000 0.0000 23.0347 0.0000 0.0000
# 5 0.0000 0.0000 0.0000 0.0000 18.7298 0.0000
# 6 0.0000 0.0000 0.0000 0.0000 0.0000 15.3580
#
#
#
# Elastic Compliance Matrix: (Units=1/GPa)
#
#
# Indices 1 2 3 4 5 6 
#
# 1 0.036829 -0.001067 0.000142 0.000000 0.000000 0.000000
# 2 -0.001067 0.011686 -0.007352 0.000000 0.000000 0.000000
# 3 0.000142 -0.007352 0.010766 0.000000 0.000000 0.000000
# 4 0.000000 0.000000 0.000000 0.043413 0.000000 0.000000
# 5 0.000000 0.000000 0.000000 0.000000 0.053391 0.000000
# 6 0.000000 0.000000 0.000000 0.000000 0.000000 0.065113
#
#
# Mechanical properties :
#
#
# Convention : Reuss Voigt Hill
#
# Bulk Modulus (GPa) = 23.40391 62.12346 42.76369
# Shear Modulus (GPa) = 19.84172 26.87776 23.35974
#
# Velocity S-wave (km/s) = 3.35348 3.90303 3.63864
# Velocity P-wave (km/s) = 5.31593 7.45128 6.47228
#
# Compressibility (1/GPa) = 0.04272790
#
# Stress axis : x y z
#
# Youngs Moduli (GPa) = 27.15231 85.56909 92.88663
#
# Poissons Ratio (x) = 0.09127 -0.01317
# Poissons Ratio (y) = 0.02896 0.68290
# Poissons Ratio (z) = -0.00385 0.62910
#
# Static dielectric constant tensor:
#      x y z
#    x 1.652410 0.000000 0.000000 
#    y 0.000000 1.610420 0.000000 
#    z 0.000000 0.000000 1.593110 
# 
# From -- ./inp_files/26913.got.cif
#   From: 2010.05.17/outbox.cif.g08.bks.cpg/sg59_14_cif.got.tgz:26913.got - 2010.06.03 14:40:33.
