data_PCOD9453449
_publ_section_title
;
Structure prediction by ZEFSAII (Michael W. Deem and Ramdas Pophale) SiO2 
 PCOD9453449
Probable space group: P M M N
;
_chemical_formula_sum "Si O2"
_cell_formula_units_Z 48
_cell_length_a 15.000000
_cell_length_b 9.000000
_cell_length_c 18.000000
_cell_angle_alpha 90.000000
_cell_angle_beta 90.000000
_cell_angle_gamma 90.000000
_cell_volume 2430.000000
_symmetry_space_group_name_H-M "P M M N"
_symmetry_group_IT_number 59
_space_group.IT_coordinate_system_code '2'
_symmetry_cell_setting 'orthorhombic'
loop_
_space_group_symop_operation_xyz
x,y,z
1/2-x,1/2-y,z
1/2+x,-y,-z
-x,1/2+y,-z
-x,-y,-z
1/2+x,1/2+y,-z
1/2-x,y,z
x,1/2-y,z
loop_
_atom_site_type_symbol
_atom_site_label
_atom_site_fract_x
_atom_site_fract_y
_atom_site_fract_z
Si Si1 0.855220 0.584377 0.166295
Si Si2 0.847513 0.070417 0.850703
Si Si3 0.399434 0.572923 0.678430
Si Si4 0.750000 0.070373 0.607082
Si Si5 0.075671 0.929432 0.299975
Si Si6 0.750000 0.069118 0.437721
Si Si7 0.595180 0.428728 0.013142
O O1 0.750000 0.601692 0.169016
O O2 0.897493 0.750000 0.162595
O O3 0.878937 0.501411 0.242120
O O4 0.873356 0.494200 0.091148
O O5 0.750000 0.025825 0.823681
O O6 0.851368 0.250000 0.851001
O O7 0.916195 0.022991 0.787088
O O8 0.855960 0.026052 0.936479
O O9 0.393367 0.750000 0.686160
O O10 0.496908 0.515370 0.660962
O O11 0.333780 0.524809 0.612762
O O12 0.750000 0.250000 0.602343
O O13 0.664240 0.031897 0.655339
O O14 0.750000 0.014060 0.522316
O O15 0.063527 0.750000 0.301769
O O16 0.750000 0.250000 0.440878
O O17 0.594784 0.250000 0.017070
O O18 0.500000 0.500000 0.000000
#
# Coordination Sequence:
#
# PCOD9453449 Si02
#       7
#     8   8   8   4   8   4   8
#     4  11  23  39  59  83 114 152 203 259 305 354
#     4   9  17  32  54  80 108 145 192 237 279 338
#     4  11  22  38  60  85 119 160 200 244 300 363
#     4   9  18  36  63  90 119 156 196 241 295 359
#     4  10  19  35  62  91 118 152 198 245 292 350
#     4   9  20  38  59  86 119 156 198 243 297 363
#     4  11  22  35  54  81 118 157 200 247 295 351
#
# _framework density 19.753086
#
# number of rings (size 3 to 8) (size 9 to 14) (size 15 to 20)
#    0.000    1.833    1.667    3.000    0.000    3.667 
#    0.000    1.250    0.000    5.000    0.000    0.000 
#    0.000    0.000    0.000    0.000    0.000    0.000 
#
# Total GULP energy -267535.344236 kJ/mol
# GULP energy per Si atom -5573.653005 kJ/mol
# Density = 1.970813 g / cm^3
# Si number density = 19.753086 Si / 1000 Ang^3
#
#
#
# Elastic Constant Matrix: (Units=GPa)
#
#
# Indices 1 2 3 4 5 6 
#
# 1 92.3310 23.5388 45.6427 0.0000 0.0000 0.0000
# 2 23.5388 49.1918 38.3973 0.0000 0.0000 0.0000
# 3 45.6427 38.3973 147.0159 0.0000 0.0000 0.0000
# 4 0.0000 0.0000 0.0000 8.3767 0.0000 0.0000
# 5 0.0000 0.0000 0.0000 0.0000 -43.2709 0.0000
# 6 0.0000 0.0000 0.0000 0.0000 0.0000 16.9669
#
#
#
# Elastic Compliance Matrix: (Units=1/GPa)
#
#
# Indices 1 2 3 4 5 6 
#
# 1 0.013384 -0.003971 -0.003118 0.000000 0.000000 0.000000
# 2 -0.003971 0.026712 -0.005744 0.000000 0.000000 0.000000
# 3 -0.003118 -0.005744 0.009270 0.000000 0.000000 0.000000
# 4 0.000000 0.000000 0.000000 0.119378 0.000000 0.000000
# 5 0.000000 0.000000 0.000000 0.000000 -0.023110 0.000000
# 6 0.000000 0.000000 0.000000 0.000000 0.000000 0.058938
#
#
# Mechanical properties :
#
#
# Convention : Reuss Voigt Hill
#
# Bulk Modulus (GPa) = 42.19199 55.96625 49.07912
# Shear Modulus (GPa) = 20.99616 8.47855 14.73735
#
# Velocity S-wave (km/s) = 3.26380 2.07403 2.73441
# Velocity P-wave (km/s) = 5.96735 5.84208 5.90504
#
# Compressibility (1/GPa) = 0.02370118
#
# Stress axis : x y z
#
# Youngs Moduli (GPa) = 74.71428 37.43638 107.87173
#
# Poissons Ratio (x) = 0.14864 0.33638
# Poissons Ratio (y) = 0.29665 0.61960
# Poissons Ratio (z) = 0.23298 0.21503
#
# Static dielectric constant tensor:
#      x y z
#    x 1.820170 0.000000 0.000000 
#    y 0.000000 1.678630 0.000000 
#    z 0.000000 0.000000 1.842200 
# 
# From -- ./inp_files/27479.got.cif
#   From: 2010.05.17/outbox.ucp.g08.bks.cvg/sg59_14_cif.got.tgz:27479.got - 2010.06.11 16:43:56.
