data_PCOD9453939
_publ_section_title
;
Structure prediction by ZEFSAII (Michael W. Deem and Ramdas Pophale) SiO2 
 PCOD9453939
Probable space group: P B C N
;
_chemical_formula_sum "Si O2"
_cell_formula_units_Z 48
_cell_length_a 8.719592
_cell_length_b 17.232488
_cell_length_c 14.952204
_cell_angle_alpha 90.000000
_cell_angle_beta 90.000000
_cell_angle_gamma 90.000000
_cell_volume 2246.722128
_symmetry_space_group_name_H-M "P B C N"
_symmetry_group_IT_number 60
_symmetry_cell_setting 'orthorhombic'
loop_
_space_group_symop_operation_xyz
x,y,z
1/2-x,1/2-y,1/2+z
1/2+x,1/2-y,-z
-x,y,1/2-z
-x,-y,-z
1/2+x,1/2+y,1/2-z
1/2-x,1/2+y,z
x,-y,1/2+z
loop_
_atom_site_type_symbol
_atom_site_label
_atom_site_fract_x
_atom_site_fract_y
_atom_site_fract_z
Si Si1 0.032117 0.020149 0.348592
Si Si2 0.943655 0.760591 0.384595
Si Si3 0.682393 0.418670 0.473556
Si Si4 0.999849 0.644509 0.535349
Si Si5 0.273741 0.367722 0.337652
Si Si6 0.865388 0.264724 0.304320
O O1 0.890822 0.981310 0.404784
O O2 0.000000 0.054723 0.250000
O O3 0.138892 0.947011 0.323836
O O4 0.118866 0.068647 0.425994
O O5 0.872443 0.833011 0.441323
O O6 0.803434 0.732433 0.322010
O O7 0.985997 0.686432 0.441703
O O8 0.097717 0.800778 0.348071
O O9 0.866488 0.419057 0.468076
O O10 0.060534 0.711493 0.602406
O O11 0.835328 0.623000 0.576233
O O12 0.171801 0.342070 0.253764
O O13 0.000000 0.222905 0.250000
#
# Coordination Sequence:
#
# PCOD9453939 Si02
#       6
#     8   8   8   8   8   8
#     4  10  19  35  57  77 106 148 191 236 285 342
#     4  10  18  33  52  75 111 145 180 228 288 342
#     4   9  20  35  53  80 109 144 191 235 285 350
#     4  10  19  32  52  80 111 140 180 234 288 338
#     4  10  18  30  54  79 102 143 191 233 275 331
#     4   9  18  31  49  78 104 136 188 230 267 329
#
# _framework density 21.364457000000002
#
# number of rings (size 3 to 8) (size 9 to 14) (size 15 to 20)
#    0.000    2.333    0.000    5.500    0.000    0.667 
#    0.000    4.167    0.000    4.000    0.000    0.000 
#    0.000    0.000    0.000    0.000    0.000    0.333 
#
# Total GULP energy -267498.788709 kJ/mol
# GULP energy per Si atom -5572.891431 kJ/mol
# Density = 2.131583 g / cm^3
# Si number density = 21.364457 Si / 1000 Ang^3
#
#
#
# Elastic Constant Matrix: (Units=GPa)
#
#
# Indices 1 2 3 4 5 6 
#
# 1 157.0066 25.0831 46.0059 0.0000 0.0000 0.0000
# 2 25.0831 34.4848 11.2345 0.0000 0.0000 0.0000
# 3 46.0059 11.2345 102.4354 0.0000 0.0000 0.0000
# 4 0.0000 0.0000 0.0000 5.3069 0.0000 0.0000
# 5 0.0000 0.0000 0.0000 0.0000 41.5685 0.0000
# 6 0.0000 0.0000 0.0000 0.0000 0.0000 -3.8967
#
#
#
# Elastic Compliance Matrix: (Units=1/GPa)
#
#
# Indices 1 2 3 4 5 6 
#
# 1 0.008047 -0.004849 -0.003082 0.000000 0.000000 0.000000
# 2 -0.004849 0.032995 -0.001441 0.000000 0.000000 0.000000
# 3 -0.003082 -0.001441 0.011305 0.000000 0.000000 0.000000
# 4 0.000000 0.000000 0.000000 0.188435 0.000000 0.000000
# 5 0.000000 0.000000 0.000000 0.000000 0.024057 0.000000
# 6 0.000000 0.000000 0.000000 0.000000 0.000000 -0.256625
#
#
# Mechanical properties :
#
#
# Convention : Reuss Voigt Hill
#
# Bulk Modulus (GPa) = 29.76012 50.95266 40.35639
# Shear Modulus (GPa) = 131.03656 22.70262 76.86959
#
# Velocity S-wave (km/s) = 7.84009 3.26334 6.00485
# Velocity P-wave (km/s) = 9.79367 6.17254 8.18585
#
# Compressibility (1/GPa) = 0.03360202
#
# Stress axis : x y z
#
# Youngs Moduli (GPa) = 124.27016 30.30790 88.45963
#
# Poissons Ratio (x) = 0.14696 0.27266
# Poissons Ratio (y) = 0.60258 0.12746
# Poissons Ratio (z) = 0.38303 0.04367
#
# Static dielectric constant tensor:
#      x y z
#    x 1.858960 0.000000 0.000000 
#    y 0.000000 1.725880 0.000000 
#    z 0.000000 0.000000 1.807950 
# 
# From -- ./inp_files/14962.got.cif
#   From: 2010.05.17/outbox.cif.g08.bks.cpg/sg60_8_cif.got.tgz:14962.got - 2010.06.03 14:59:27.
