data_PCOD9453809
_publ_section_title
;
Structure prediction by ZEFSAII (Michael W. Deem and Ramdas Pophale) SiO2 
 PCOD9453809
Probable space group: P B C N
;
_chemical_formula_sum "Si O2"
_cell_formula_units_Z 64
_cell_length_a 8.328618
_cell_length_b 19.399316
_cell_length_c 19.718680
_cell_angle_alpha 90.000000
_cell_angle_beta 90.000000
_cell_angle_gamma 90.000000
_cell_volume 3185.937119
_symmetry_space_group_name_H-M "P B C N"
_symmetry_group_IT_number 60
_symmetry_cell_setting 'orthorhombic'
loop_
_space_group_symop_operation_xyz
x,y,z
1/2-x,1/2-y,1/2+z
1/2+x,1/2-y,-z
-x,y,1/2-z
-x,-y,-z
1/2+x,1/2+y,1/2-z
1/2-x,1/2+y,z
x,-y,1/2+z
loop_
_atom_site_type_symbol
_atom_site_label
_atom_site_fract_x
_atom_site_fract_y
_atom_site_fract_z
Si Si1 0.753017 0.369373 0.450928
Si Si2 0.442403 0.511530 0.579014
Si Si3 0.249615 0.936503 0.899654
Si Si4 0.716699 0.890905 0.917268
Si Si5 0.102124 0.579923 0.929685
Si Si6 0.923918 0.230026 0.452662
Si Si7 0.729265 0.289430 0.094367
Si Si8 0.434715 0.828543 0.825191
O O1 0.605236 0.408799 0.416381
O O2 0.740918 0.389688 0.531384
O O3 0.790727 0.289527 0.439565
O O4 0.916339 0.403315 0.423037
O O5 0.500000 0.500000 0.500000
O O6 0.588813 0.477774 0.617773
O O7 0.287544 0.465998 0.597232
O O8 0.304891 0.888360 0.839048
O O9 0.368367 0.999695 0.917302
O O10 0.869057 0.839599 0.916652
O O11 0.580047 0.855403 0.872976
O O12 0.649640 0.898751 0.993545
O O13 0.216194 0.632637 0.887994
O O14 0.897507 0.214538 0.532196
O O15 0.099639 0.256136 0.431369
O O16 0.648589 0.242209 0.151126
O O17 0.500000 0.824269 0.750000
#
# Coordination Sequence:
#
# PCOD9453809 Si02
#       8
#     8   8   8   8   8   8   8   8
#     4  10  17  30  50  89 124 150 171 239 321 381
#     4  10  20  30  54  87 125 149 176 245 322 382
#     4  11  19  34  54  89 122 152 193 249 304 378
#     4  11  20  35  54  89 116 155 198 246 315 366
#     4  10  18  31  60  87 119 144 185 257 322 365
#     4  10  20  31  60  88 131 147 191 262 315 370
#     4  10  20  36  54  92 118 160 201 252 314 365
#     4  12  25  41  60  79 122 178 218 248 288 368
#
# _framework density 20.088282
#
# number of rings (size 3 to 8) (size 9 to 14) (size 15 to 20)
#    0.000    1.500    5.000    3.375    1.750    1.000 
#    0.000    2.500    0.000    6.000    0.000    0.000 
#    0.000    0.000    0.000    0.000    0.000    0.000 
#
# Total GULP energy -357054.318932 kJ/mol
# GULP energy per Si atom -5578.973733 kJ/mol
# Density = 2.004256 g / cm^3
# Si number density = 20.088282 Si / 1000 Ang^3
#
#
#
# Elastic Constant Matrix: (Units=GPa)
#
#
# Indices 1 2 3 4 5 6 
#
# 1 77.3556 11.0307 19.9299 0.0000 0.0000 0.0000
# 2 11.0307 107.6625 29.5022 0.0000 0.0000 0.0000
# 3 19.9299 29.5022 44.9071 0.0000 0.0000 0.0000
# 4 0.0000 0.0000 0.0000 10.5273 0.0000 0.0000
# 5 0.0000 0.0000 0.0000 0.0000 10.3262 0.0000
# 6 0.0000 0.0000 0.0000 0.0000 0.0000 44.8406
#
#
#
# Elastic Compliance Matrix: (Units=1/GPa)
#
#
# Indices 1 2 3 4 5 6 
#
# 1 0.014607 0.000341 -0.006707 0.000000 0.000000 0.000000
# 2 0.000341 0.011335 -0.007598 0.000000 0.000000 0.000000
# 3 -0.006707 -0.007598 0.030236 0.000000 0.000000 0.000000
# 4 0.000000 0.000000 0.000000 0.094991 0.000000 0.000000
# 5 0.000000 0.000000 0.000000 0.000000 0.096842 0.000000
# 6 0.000000 0.000000 0.000000 0.000000 0.000000 0.022301
#
#
# Mechanical properties :
#
#
# Convention : Reuss Voigt Hill
#
# Bulk Modulus (GPa) = 35.39706 38.98343 37.19024
# Shear Modulus (GPa) = 16.25188 24.43630 20.34409
#
# Velocity S-wave (km/s) = 2.84742 3.49154 3.18580
# Velocity P-wave (km/s) = 5.33567 5.97517 5.66445
#
# Compressibility (1/GPa) = 0.02825093
#
# Stress axis : x y z
#
# Youngs Moduli (GPa) = 68.46243 88.21864 33.07262
#
# Poissons Ratio (x) = -0.03010 0.22181
# Poissons Ratio (y) = -0.02336 0.25130
# Poissons Ratio (z) = 0.45915 0.67032
#
# Static dielectric constant tensor:
#      x y z
#    x 1.808180 0.000000 0.000000 
#    y 0.000000 1.761210 0.000000 
#    z 0.000000 0.000000 1.689210 
# 
# From -- ./inp_files/22426.got.cif
#   From: 2010.05.17/outbox.cif.g08.bks.cpg/sg60_12_cif.got.tgz:22426.got - 2010.06.03 14:59:27.
