data_PCOD9453263
_publ_section_title
;
Structure prediction by ZEFSAII (Michael W. Deem and Ramdas Pophale) SiO2 
 PCOD9453263
Probable space group: P M M N
;
_chemical_formula_sum "Si O2"
_cell_formula_units_Z 48
_cell_length_a 10.401125
_cell_length_b 7.723278
_cell_length_c 31.273598
_cell_angle_alpha 90.000000
_cell_angle_beta 90.000000
_cell_angle_gamma 90.000000
_cell_volume 2512.232517
_symmetry_space_group_name_H-M "P M M N"
_symmetry_group_IT_number 59
_space_group.IT_coordinate_system_code '2'
_symmetry_cell_setting 'orthorhombic'
loop_
_space_group_symop_operation_xyz
x,y,z
1/2-x,1/2-y,z
1/2+x,-y,-z
-x,1/2+y,-z
-x,-y,-z
1/2+x,1/2+y,-z
1/2-x,y,z
x,1/2-y,z
loop_
_atom_site_type_symbol
_atom_site_label
_atom_site_fract_x
_atom_site_fract_y
_atom_site_fract_z
Si Si1 0.105672 0.957654 0.798124
Si Si2 0.894704 0.042130 0.964762
Si Si3 0.897205 0.538467 0.631916
Si Si4 0.397257 0.538463 0.701393
Si Si5 0.894395 0.542237 0.535125
Si Si6 0.105166 0.542018 0.131492
O O1 0.250000 0.021279 0.808886
O O2 0.112722 0.750000 0.795718
O O3 0.072918 0.018057 0.749993
O O4 0.000138 0.998628 0.833365
O O5 0.750000 0.979671 0.975381
O O6 0.888679 0.250000 0.962745
O O7 0.927078 0.979899 0.916651
O O8 0.000000 0.000000 0.000000
O O9 0.750000 0.487857 0.641704
O O10 0.899931 0.750000 0.632299
O O11 0.926916 0.482136 0.583301
O O12 0.000024 0.477790 0.666638
O O13 0.250000 0.487955 0.691653
O O14 0.400063 0.750000 0.700999
O O15 0.750000 0.478885 0.524392
O O16 0.887760 0.750000 0.537366
O O17 0.000000 0.500000 0.500000
O O18 0.250000 0.479947 0.142042
O O19 0.110706 0.750000 0.129646
#
# Coordination Sequence:
#
# PCOD9453263 Si02
#       6
#     8   8   8   8   8   8
#     4   9  18  31  47  71 100 124 150 189 233 274
#     4   9  19  35  52  71  96 124 155 193 234 274
#     4   8  14  25  41  62  88 116 147 185 227 270
#     4   8  14  25  41  63  91 118 145 182 226 270
#     4   9  18  31  46  67  94 121 152 191 232 275
#     4   9  19  35  51  68  94 127 160 192 227 271
#
# _framework density 19.106511999999999
#
# number of rings (size 3 to 8) (size 9 to 14) (size 15 to 20)
#    0.000    3.333    0.000    3.000    0.000    4.000 
#    0.000    8.333    0.000    1.000    0.000    0.000 
#    0.000    0.000    0.000    0.000    0.000    0.000 
#
# Total GULP energy -267475.413768 kJ/mol
# GULP energy per Si atom -5572.404454 kJ/mol
# Density = 1.906302 g / cm^3
# Si number density = 19.106512 Si / 1000 Ang^3
#
#
#
# Elastic Constant Matrix: (Units=GPa)
#
#
# Indices 1 2 3 4 5 6 
#
# 1 184.8651 7.9221 169.8801 0.0000 0.0000 0.0000
# 2 7.9221 25.8679 9.2002 0.0000 0.0000 0.0000
# 3 169.8801 9.2002 191.1886 0.0000 0.0000 0.0000
# 4 0.0000 0.0000 0.0000 18.5612 0.0000 0.0000
# 5 0.0000 0.0000 0.0000 0.0000 46.5309 0.0000
# 6 0.0000 0.0000 0.0000 0.0000 0.0000 19.8511
#
#
#
# Elastic Compliance Matrix: (Units=1/GPa)
#
#
# Indices 1 2 3 4 5 6 
#
# 1 0.029485 0.000293 -0.026213 0.000000 0.000000 0.000000
# 2 0.000293 0.039334 -0.002153 0.000000 0.000000 0.000000
# 3 -0.026213 -0.002153 0.028625 0.000000 0.000000 0.000000
# 4 0.000000 0.000000 0.000000 0.053876 0.000000 0.000000
# 5 0.000000 0.000000 0.000000 0.000000 0.021491 0.000000
# 6 0.000000 0.000000 0.000000 0.000000 0.000000 0.050375
#
#
# Mechanical properties :
#
#
# Convention : Reuss Voigt Hill
#
# Bulk Modulus (GPa) = 24.21406 86.21405 55.21405
# Shear Modulus (GPa) = 17.05919 31.31658 24.18788
#
# Velocity S-wave (km/s) = 2.99130 4.05291 3.56188
# Velocity P-wave (km/s) = 4.96298 8.19282 6.77324
#
# Compressibility (1/GPa) = 0.04129833
#
# Stress axis : x y z
#
# Youngs Moduli (GPa) = 33.91604 25.42332 34.93433
#
# Poissons Ratio (x) = -0.00745 0.91572
# Poissons Ratio (y) = -0.00994 0.07522
# Poissons Ratio (z) = 0.88903 0.05474
#
# Static dielectric constant tensor:
#      x y z
#    x 1.657310 0.000000 0.000000 
#    y 0.000000 1.730620 0.000000 
#    z 0.000000 0.000000 1.653760 
# 
# From -- ./inp_files/32879.got.cif
#   From: 2010.05.17/outbox.cif.g08.bks.cpg/sg59_17_cif.got.tgz:32879.got - 2010.06.03 14:40:33.
