data_PCOD9453638
_publ_section_title
;
Structure prediction by ZEFSAII (Michael W. Deem and Ramdas Pophale) SiO2 
 PCOD9453638
Probable space group: P M M N
;
_chemical_formula_sum "Si O2"
_cell_formula_units_Z 64
_cell_length_a 15.000000
_cell_length_b 9.000000
_cell_length_c 24.000000
_cell_angle_alpha 90.000000
_cell_angle_beta 90.000000
_cell_angle_gamma 90.000000
_cell_volume 3240.000000
_symmetry_space_group_name_H-M "P M M N"
_symmetry_group_IT_number 59
_space_group.IT_coordinate_system_code '2'
_symmetry_cell_setting 'orthorhombic'
loop_
_space_group_symop_operation_xyz
x,y,z
1/2-x,1/2-y,z
1/2+x,-y,-z
-x,1/2+y,-z
-x,-y,-z
1/2+x,1/2+y,-z
1/2-x,y,z
x,1/2-y,z
loop_
_atom_site_type_symbol
_atom_site_label
_atom_site_fract_x
_atom_site_fract_y
_atom_site_fract_z
Si Si1 0.642716 0.581608 0.870133
Si Si2 0.531974 0.427850 0.304773
Si Si3 0.850561 0.569208 0.746409
Si Si4 0.591472 0.075250 0.982714
Si Si5 0.144583 0.072736 0.471701
Si Si6 0.354520 0.430055 0.793319
Si Si7 0.027246 0.074188 0.581700
Si Si8 0.352417 0.084986 0.912467
O O1 0.750000 0.591458 0.870310
O O2 0.607317 0.750000 0.877211
O O3 0.620855 0.522334 0.808774
O O4 0.616137 0.483292 0.922106
O O5 0.537588 0.250000 0.304028
O O6 0.428345 0.472152 0.295371
O O7 0.588862 0.495534 0.254811
O O8 0.561177 0.493449 0.363318
O O9 0.750000 0.517631 0.733894
O O10 0.846982 0.750000 0.748633
O O11 0.589281 0.250000 0.983033
O O12 0.500000 0.000000 0.000000
O O13 0.649927 0.015322 0.033483
O O14 0.250000 0.028685 0.468461
O O15 0.141509 0.250000 0.459463
O O16 0.099624 0.050175 0.532545
O O17 0.070795 0.990630 0.433692
O O18 0.250000 0.470902 0.786116
O O19 0.360748 0.250000 0.791406
O O20 0.392023 0.475531 0.854789
O O21 0.019326 0.250000 0.590132
O O22 0.250000 0.105481 0.896319
O O23 0.389687 0.250000 0.925590
#
# Coordination Sequence:
#
# PCOD9453638 Si02
#       8
#     8   8   8   8   8   8   8   8
#     4   9  18  36  59  78 101 135 175 223 282 345
#     4  11  22  35  57  88 120 155 197 243 283 327
#     4   8  17  35  57  80 108 146 189 230 280 341
#     4  12  25  36  50  76 107 137 175 224 280 344
#     4   9  19  38  63  87 115 155 199 243 289 337
#     4   9  20  39  60  81 110 150 192 235 291 352
#     4  10  21  37  57  87 123 158 197 237 286 344
#     4   9  19  38  60  79 103 138 178 223 283 350
#
# _framework density 19.753086
#
# number of rings (size 3 to 8) (size 9 to 14) (size 15 to 20)
#    0.000    2.375    0.000    3.750    1.750    4.500 
#    0.000    4.375    0.000    2.625    0.000    0.000 
#    0.000    0.000    0.000    0.000    0.000    0.000 
#
# Total GULP energy -356695.561702 kJ/mol
# GULP energy per Si atom -5573.368152 kJ/mol
# Density = 1.970813 g / cm^3
# Si number density = 19.753086 Si / 1000 Ang^3
#
#
#
# Elastic Constant Matrix: (Units=GPa)
#
#
# Indices 1 2 3 4 5 6 
#
# 1 57.5387 5.9237 -3.8286 0.0000 0.0000 0.0000
# 2 5.9237 45.9355 29.1050 0.0000 0.0000 0.0000
# 3 -3.8286 29.1050 42.1229 0.0000 0.0000 0.0000
# 4 0.0000 0.0000 0.0000 8.8257 0.0000 0.0000
# 5 0.0000 0.0000 0.0000 0.0000 71.1040 0.0000
# 6 0.0000 0.0000 0.0000 0.0000 0.0000 23.1849
#
#
#
# Elastic Compliance Matrix: (Units=1/GPa)
#
#
# Indices 1 2 3 4 5 6 
#
# 1 0.018400 -0.006105 0.005891 0.000000 0.000000 0.000000
# 2 -0.006105 0.040748 -0.028710 0.000000 0.000000 0.000000
# 3 0.005891 -0.028710 0.044113 0.000000 0.000000 0.000000
# 4 0.000000 0.000000 0.000000 0.113306 0.000000 0.000000
# 5 0.000000 0.000000 0.000000 0.000000 0.014064 0.000000
# 6 0.000000 0.000000 0.000000 0.000000 0.000000 0.043132
#
#
# Mechanical properties :
#
#
# Convention : Reuss Voigt Hill
#
# Bulk Modulus (GPa) = 22.02055 23.11081 22.56568
# Shear Modulus (GPa) = 14.41973 28.24937 21.33455
#
# Velocity S-wave (km/s) = 2.70478 3.78580 3.28999
# Velocity P-wave (km/s) = 4.57455 5.55292 5.08731
#
# Compressibility (1/GPa) = 0.04541213
#
# Stress axis : x y z
#
# Youngs Moduli (GPa) = 54.34738 24.54129 22.66928
#
# Poissons Ratio (x) = 0.14983 -0.13354
# Poissons Ratio (y) = 0.33181 0.65083
# Poissons Ratio (z) = -0.32016 0.70457
#
# Static dielectric constant tensor:
#      x y z
#    x 1.686740 0.000000 0.000000 
#    y 0.000000 1.673300 0.000000 
#    z 0.000000 0.000000 1.980140 
# 
# From -- ./inp_files/32211.got.cif
#   From: 2010.05.17/outbox.ucp.g08.bks.cvg/sg59_17_cif.got.tgz:32211.got - 2010.06.11 16:43:56.
