data_PCOD9453226
_publ_section_title
;
Structure prediction by ZEFSAII (Michael W. Deem and Ramdas Pophale) SiO2 
 PCOD9453226
Probable space group: P M M N
;
_chemical_formula_sum "Si O2"
_cell_formula_units_Z 64
_cell_length_a 9.347497
_cell_length_b 14.870121
_cell_length_c 22.029412
_cell_angle_alpha 90.000000
_cell_angle_beta 90.000000
_cell_angle_gamma 90.000000
_cell_volume 3062.053273
_symmetry_space_group_name_H-M "P M M N"
_symmetry_group_IT_number 59
_space_group.IT_coordinate_system_code '2'
_symmetry_cell_setting 'orthorhombic'
loop_
_space_group_symop_operation_xyz
x,y,z
1/2-x,1/2-y,z
1/2+x,-y,-z
-x,1/2+y,-z
-x,-y,-z
1/2+x,1/2+y,-z
1/2-x,y,z
x,1/2-y,z
loop_
_atom_site_type_symbol
_atom_site_label
_atom_site_fract_x
_atom_site_fract_y
_atom_site_fract_z
Si Si1 0.586505 0.357428 0.739702
Si Si2 0.583968 0.140281 0.503499
Si Si3 0.913638 0.860084 0.377900
Si Si4 0.415940 0.640278 0.630375
Si Si5 0.075655 0.902064 0.997677
Si Si6 0.086832 0.892517 0.128106
Si Si7 0.411086 0.143288 0.254401
Si Si8 0.915205 0.891491 0.879765
O O1 0.750000 0.392650 0.737880
O O2 0.595176 0.250000 0.733633
O O3 0.496158 0.390019 0.682511
O O4 0.519513 0.374441 0.806330
O O5 0.750000 0.113434 0.509951
O O6 0.582687 0.250000 0.504244
O O7 0.491554 0.110221 0.560563
O O8 0.530742 0.112881 0.436526
O O9 0.750000 0.889342 0.377116
O O10 0.914771 0.750000 0.378012
O O11 0.250000 0.615117 0.635214
O O12 0.420046 0.750000 0.631118
O O13 0.501913 0.606918 0.688628
O O14 0.250000 0.908473 0.995458
O O15 0.034378 0.858233 0.062627
O O16 0.011188 0.860583 0.936274
O O17 0.000000 0.000000 0.000000
O O18 0.250000 0.858771 0.133959
O O19 0.090433 0.000079 0.120717
O O20 0.250000 0.105730 0.252700
O O21 0.400569 0.250000 0.263836
O O22 0.472938 0.132080 0.186922
O O23 0.750000 0.859474 0.885341
#
# Coordination Sequence:
#
# PCOD9453226 Si02
#       8
#     8   8   8   8   8   8   8   8
#     4   9  16  27  43  60  80 108 138 167 203 248
#     4   8  13  22  36  54  77 107 141 171 201 242
#     4   9  16  24  35  55  83 110 135 167 206 244
#     4   8  14  24  38  57  82 110 139 173 210 246
#     4   9  16  28  46  66  86 108 138 175 212 249
#     4   8  15  28  45  63  81 104 136 171 205 243
#     4   9  17  28  42  61  86 115 143 171 208 253
#     4   9  17  30  46  63  85 112 142 175 208 248
#
# _framework density 20.901008999999998
#
# number of rings (size 3 to 8) (size 9 to 14) (size 15 to 20)
#    0.000    3.375    0.000    2.250    0.000    2.500 
#    0.000    6.250    0.000    0.750    0.000    0.875 
#    0.000    0.000    0.000    0.000    0.000    0.000 
#
# Total GULP energy -356513.102501 kJ/mol
# GULP energy per Si atom -5570.517227 kJ/mol
# Density = 2.085344 g / cm^3
# Si number density = 20.901009 Si / 1000 Ang^3
#
#
#
# Elastic Constant Matrix: (Units=GPa)
#
#
# Indices 1 2 3 4 5 6 
#
# 1 77.7587 3.3622 102.0982 0.0000 0.0000 0.0000
# 2 3.3622 56.7276 2.0711 0.0000 0.0000 0.0000
# 3 102.0982 2.0711 277.2912 0.0000 0.0000 0.0000
# 4 0.0000 0.0000 0.0000 22.7690 0.0000 0.0000
# 5 0.0000 0.0000 0.0000 0.0000 55.4854 0.0000
# 6 0.0000 0.0000 0.0000 0.0000 0.0000 -7.1994
#
#
#
# Elastic Compliance Matrix: (Units=1/GPa)
#
#
# Indices 1 2 3 4 5 6 
#
# 1 0.024971 -0.001145 -0.009186 0.000000 0.000000 0.000000
# 2 -0.001145 0.017685 0.000289 0.000000 0.000000 0.000000
# 3 -0.009186 0.000289 0.006986 0.000000 0.000000 0.000000
# 4 0.000000 0.000000 0.000000 0.043919 0.000000 0.000000
# 5 0.000000 0.000000 0.000000 0.000000 0.018023 0.000000
# 6 0.000000 0.000000 0.000000 0.000000 0.000000 -0.138900
#
#
# Mechanical properties :
#
#
# Convention : Reuss Voigt Hill
#
# Bulk Modulus (GPa) = 33.82885 69.64894 51.73889
# Shear Modulus (GPa) = 1908.72761 34.49405 971.61083
#
# Velocity S-wave (km/s) = 30.25236 4.06686 21.58408
# Velocity P-wave (km/s) = 35.16382 7.44635 25.41596
#
# Compressibility (1/GPa) = 0.02956057
#
# Stress axis : x y z
#
# Youngs Moduli (GPa) = 40.04713 56.54385 143.13780
#
# Poissons Ratio (x) = 0.06472 1.31480
# Poissons Ratio (y) = 0.04584 -0.04142
# Poissons Ratio (z) = 0.36786 -0.01636
#
# Static dielectric constant tensor:
#      x y z
#    x 1.722790 0.000000 0.000000 
#    y 0.000000 1.827650 0.000000 
#    z 0.000000 0.000000 1.793510 
# 
# From -- ./inp_files/29725.got.cif
#   From: 2010.05.17/outbox.cif.g08.bks.cpg/sg59_15_cif.got.tgz:29725.got - 2010.06.03 14:40:33.
