data_PCOD9453880
_publ_section_title
;
Structure prediction by ZEFSAII (Michael W. Deem and Ramdas Pophale) SiO2 
 PCOD9453880
Probable space group: P B C N
;
_chemical_formula_sum "Si O2"
_cell_formula_units_Z 60
_cell_length_a 11.163258
_cell_length_b 14.360770
_cell_length_c 15.128270
_cell_angle_alpha 90.000000
_cell_angle_beta 90.000000
_cell_angle_gamma 90.000000
_cell_volume 2425.258055
_symmetry_space_group_name_H-M "P B C N"
_symmetry_group_IT_number 60
_symmetry_cell_setting 'orthorhombic'
loop_
_space_group_symop_operation_xyz
x,y,z
1/2-x,1/2-y,1/2+z
1/2+x,1/2-y,-z
-x,y,1/2-z
-x,-y,-z
1/2+x,1/2+y,1/2-z
1/2-x,1/2+y,z
x,-y,1/2+z
loop_
_atom_site_type_symbol
_atom_site_label
_atom_site_fract_x
_atom_site_fract_y
_atom_site_fract_z
Si Si1 0.055068 0.296649 0.567477
Si Si2 0.464993 0.503446 0.350184
Si Si3 0.793925 0.458746 0.940742
Si Si4 0.752365 0.425895 0.727960
Si Si5 0.417873 0.659376 0.042154
Si Si6 0.500000 0.863856 0.750000
Si Si7 0.691378 0.367447 0.389751
Si Si8 0.634922 0.762191 0.275438
O O1 0.086899 0.401236 0.540369
O O2 0.049053 0.300125 0.672852
O O3 0.163762 0.224802 0.554151
O O4 0.949583 0.241044 0.524023
O O5 0.500000 0.537367 0.250000
O O6 0.323148 0.501476 0.329997
O O7 0.486793 0.581209 0.425131
O O8 0.562095 0.420345 0.370080
O O9 0.759145 0.446675 0.834605
O O10 0.690363 0.403679 0.991002
O O11 0.776703 0.567116 0.948571
O O12 0.694027 0.321635 0.717408
O O13 0.892829 0.421729 0.706658
O O14 0.388577 0.711167 0.132238
O O15 0.766035 0.339460 0.301597
O O16 0.500000 0.794823 0.250000
#
# Coordination Sequence:
#
# PCOD9453880 Si02
#       8
#     8   8   8   8   8   4   8   8
#     4  11  23  39  64  93 129 173 224 271 338 397
#     4  11  19  36  68  97 124 167 220 273 326 389
#     4   9  20  39  58  88 132 172 204 274 341 372
#     4  10  17  38  62  91 128 170 211 262 334 382
#     4  10  19  37  66  87 122 181 215 255 338 396
#     4  10  22  36  60  94 136 164 218 280 324 390
#     4  11  22  37  68  95 132 172 217 279 336 391
#     4  11  19  40  69  95 128 179 221 263 331 412
#
# _framework density 24.739633000000001
#
# number of rings (size 3 to 8) (size 9 to 14) (size 15 to 20)
#    0.000    1.600    9.333    0.000    0.933    3.200 
#    4.800    0.667    2.933    0.000    0.000    0.000 
#    0.000    0.000    0.000    0.000    0.000    0.000 
#
# Total GULP energy -334227.646137 kJ/mol
# GULP energy per Si atom -5570.460769 kJ/mol
# Density = 2.468332 g / cm^3
# Si number density = 24.739633 Si / 1000 Ang^3
#
#
#
# Elastic Constant Matrix: (Units=GPa)
#
#
# Indices 1 2 3 4 5 6 
#
# 1 112.6045 39.7684 4.3149 0.0000 0.0000 0.0000
# 2 39.7684 102.4687 19.7119 0.0000 0.0000 0.0000
# 3 4.3149 19.7119 40.1468 0.0000 0.0000 0.0000
# 4 0.0000 0.0000 0.0000 21.7963 0.0000 0.0000
# 5 0.0000 0.0000 0.0000 0.0000 20.9461 0.0000
# 6 0.0000 0.0000 0.0000 0.0000 0.0000 38.7107
#
#
#
# Elastic Compliance Matrix: (Units=1/GPa)
#
#
# Indices 1 2 3 4 5 6 
#
# 1 0.010324 -0.004189 0.000947 0.000000 0.000000 0.000000
# 2 -0.004189 0.012477 -0.005676 0.000000 0.000000 0.000000
# 3 0.000947 -0.005676 0.027594 0.000000 0.000000 0.000000
# 4 0.000000 0.000000 0.000000 0.045879 0.000000 0.000000
# 5 0.000000 0.000000 0.000000 0.000000 0.047741 0.000000
# 6 0.000000 0.000000 0.000000 0.000000 0.000000 0.025833
#
#
# Mechanical properties :
#
#
# Convention : Reuss Voigt Hill
#
# Bulk Modulus (GPa) = 30.71352 42.53450 36.62401
# Shear Modulus (GPa) = 25.18442 29.05227 27.11834
#
# Velocity S-wave (km/s) = 3.19404 3.43055 3.31441
# Velocity P-wave (km/s) = 5.10335 5.73775 5.42982
#
# Compressibility (1/GPa) = 0.03255895
#
# Stress axis : x y z
#
# Youngs Moduli (GPa) = 96.86423 80.14980 36.24030
#
# Poissons Ratio (x) = 0.33574 -0.03432
# Poissons Ratio (y) = 0.40575 0.20569
# Poissons Ratio (z) = -0.09174 0.45491
#
# Static dielectric constant tensor:
#      x y z
#    x 2.166920 0.000000 0.000000 
#    y 0.000000 2.089270 0.000000 
#    z 0.000000 0.000000 1.992340 
# 
# From -- ./inp_files/20158.got.cif
#   From: 2010.05.17/outbox.cif.g08.bks.cpg/sg60_11_cif.got.tgz:20158.got - 2010.06.03 14:59:27.
