data_PCOD9453229
_publ_section_title
;
Structure prediction by ZEFSAII (Michael W. Deem and Ramdas Pophale) SiO2 
 PCOD9453229
Probable space group: P M M N
;
_chemical_formula_sum "Si O2"
_cell_formula_units_Z 56
_cell_length_a 7.360143
_cell_length_b 14.648531
_cell_length_c 21.411604
_cell_angle_alpha 90.000000
_cell_angle_beta 90.000000
_cell_angle_gamma 90.000000
_cell_volume 2308.498143
_symmetry_space_group_name_H-M "P M M N"
_symmetry_group_IT_number 59
_space_group.IT_coordinate_system_code '2'
_symmetry_cell_setting 'orthorhombic'
loop_
_space_group_symop_operation_xyz
x,y,z
1/2-x,1/2-y,z
1/2+x,-y,-z
-x,1/2+y,-z
-x,-y,-z
1/2+x,1/2+y,-z
1/2-x,y,z
x,1/2-y,z
loop_
_atom_site_type_symbol
_atom_site_label
_atom_site_fract_x
_atom_site_fract_y
_atom_site_fract_z
Si Si1 0.968816 0.855230 0.031667
Si Si2 0.973614 0.961464 0.154374
Si Si3 0.528740 0.894113 0.552567
Si Si4 0.042998 0.395618 0.579883
Si Si5 0.031386 0.152468 0.309914
Si Si6 0.461006 0.851614 0.890187
Si Si7 0.461810 0.059697 0.712665
O O1 0.750000 0.859429 0.030257
O O2 0.023355 0.750000 0.039472
O O3 0.031487 0.911943 0.091098
O O4 0.031803 0.882873 0.962701
O O5 0.750000 0.961397 0.154604
O O6 0.037748 0.066298 0.150200
O O7 0.034390 0.916259 0.219017
O O8 0.750000 0.898260 0.549690
O O9 0.465258 0.857603 0.485212
O O10 0.483514 0.844192 0.616493
O O11 0.456184 0.996168 0.564100
O O12 0.250000 0.361862 0.584703
O O13 0.959181 0.395765 0.649360
O O14 0.250000 0.150175 0.304567
O O15 0.970003 0.250000 0.280858
O O16 0.968599 0.051585 0.289809
O O17 0.250000 0.844201 0.873335
O O18 0.541721 0.750000 0.885950
O O19 0.250000 0.084646 0.711606
#
# Coordination Sequence:
#
# PCOD9453229 Si02
#       7
#     8   8   8   8   8   8   8
#     4   9  17  30  48  67  86 110 141 177 217 257
#     4   9  17  29  45  65  89 116 144 174 211 257
#     4   8  13  22  37  54  72  97 127 161 203 242
#     4   8  13  22  37  56  74  93 125 167 201 232
#     4   9  17  28  40  56  82 113 142 174 213 256
#     4   9  17  29  45  65  88 113 142 176 213 252
#     4   9  17  28  42  60  82 110 143 175 206 246
#
# _framework density 24.258195000000001
#
# number of rings (size 3 to 8) (size 9 to 14) (size 15 to 20)
#    0.000    3.286    0.000    0.429    0.000    0.857 
#    0.000    2.857    0.000    2.571    0.000    6.000 
#    0.000    0.000    0.000   13.857    0.000   13.714 
#
# Total GULP energy -312164.529159 kJ/mol
# GULP energy per Si atom -5574.366592 kJ/mol
# Density = 2.420298 g / cm^3
# Si number density = 24.258195 Si / 1000 Ang^3
#
#
#
# Elastic Constant Matrix: (Units=GPa)
#
#
# Indices 1 2 3 4 5 6 
#
# 1 91.9643 -3.6086 -1.2943 0.0000 0.0000 0.0000
# 2 -3.6086 26.3398 12.6668 0.0000 0.0000 0.0000
# 3 -1.2943 12.6668 132.4172 0.0000 0.0000 0.0000
# 4 0.0000 0.0000 0.0000 -1.7624 0.0000 0.0000
# 5 0.0000 0.0000 0.0000 0.0000 2.7032 0.0000
# 6 0.0000 0.0000 0.0000 0.0000 0.0000 -2.2135
#
#
#
# Elastic Compliance Matrix: (Units=1/GPa)
#
#
# Indices 1 2 3 4 5 6 
#
# 1 0.010933 0.001516 -0.000038 0.000000 0.000000 0.000000
# 2 0.001516 0.040006 -0.003812 0.000000 0.000000 0.000000
# 3 -0.000038 -0.003812 0.007916 0.000000 0.000000 0.000000
# 4 0.000000 0.000000 0.000000 -0.567398 0.000000 0.000000
# 5 0.000000 0.000000 0.000000 0.000000 0.369925 0.000000
# 6 0.000000 0.000000 0.000000 0.000000 0.000000 -0.451769
#
#
# Mechanical properties :
#
#
# Convention : Reuss Voigt Hill
#
# Bulk Modulus (GPa) = 18.45461 29.58324 24.01892
# Shear Modulus (GPa) = -8.80815 15.94261 3.56723
#
# Velocity S-wave (km/s) = -1.90758 2.56638 1.21397
# Velocity P-wave (km/s) = 1.66501 4.58295 3.44787
#
# Compressibility (1/GPa) = 0.05418701
#
# Stress axis : x y z
#
# Youngs Moduli (GPa) = 91.46836 24.99603 126.32354
#
# Poissons Ratio (x) = -0.03790 0.00482
# Poissons Ratio (y) = -0.13868 0.48156
# Poissons Ratio (z) = 0.00349 0.09529
#
# Static dielectric constant tensor:
#      x y z
#    x 1.905900 0.000000 0.000000 
#    y 0.000000 1.939500 0.000000 
#    z 0.000000 0.000000 1.974170 
# 
# From -- ./inp_files/27133.got.cif
#   From: 2010.05.17/outbox.cif.g08.bks.cpg/sg59_14_cif.got.tgz:27133.got - 2010.06.03 14:40:33.
