data_PCOD9453511
_publ_section_title
;
Structure prediction by ZEFSAII (Michael W. Deem and Ramdas Pophale) SiO2 
 PCOD9453511
Probable space group: P M M N
;
_chemical_formula_sum "Si O2"
_cell_formula_units_Z 64
_cell_length_a 24.000000
_cell_length_b 9.000000
_cell_length_c 15.000000
_cell_angle_alpha 90.000000
_cell_angle_beta 90.000000
_cell_angle_gamma 90.000000
_cell_volume 3240.000000
_symmetry_space_group_name_H-M "P M M N"
_symmetry_group_IT_number 59
_space_group.IT_coordinate_system_code '2'
_symmetry_cell_setting 'orthorhombic'
loop_
_space_group_symop_operation_xyz
x,y,z
1/2-x,1/2-y,z
1/2+x,-y,-z
-x,1/2+y,-z
-x,-y,-z
1/2+x,1/2+y,-z
1/2-x,y,z
x,1/2-y,z
loop_
_atom_site_type_symbol
_atom_site_label
_atom_site_fract_x
_atom_site_fract_y
_atom_site_fract_z
Si Si1 0.870177 0.581451 0.620024
Si Si2 0.496327 0.571740 0.206413
Si Si3 0.397094 0.928376 0.872792
Si Si4 0.377830 0.421789 0.179890
Si Si5 0.313266 0.428108 0.007647
Si Si6 0.686289 0.069431 0.283272
Si Si7 0.016051 0.575294 0.406993
Si Si8 0.684691 0.416973 0.473941
O O1 0.890103 0.750000 0.604812
O O2 0.852736 0.568713 0.721644
O O3 0.919403 0.465489 0.604097
O O4 0.824234 0.533357 0.550894
O O5 0.498560 0.750000 0.202838
O O6 0.542881 0.499975 0.143600
O O7 0.434413 0.517512 0.179494
O O8 0.507852 0.524514 0.310250
O O9 0.401722 0.750000 0.875962
O O10 0.356832 0.974712 0.791417
O O11 0.362296 0.990160 0.955285
O O12 0.395248 0.250000 0.164741
O O13 0.330191 0.456863 0.109512
O O14 0.250000 0.477749 0.986618
O O15 0.315578 0.250000 0.991553
O O16 0.750000 0.016089 0.268033
O O17 0.688787 0.250000 0.283872
O O18 0.662218 0.026362 0.379636
O O19 0.006080 0.750000 0.414356
O O20 0.000000 0.500000 0.500000
O O21 0.750000 0.402146 0.456883
O O22 0.663511 0.250000 0.494034
#
# Coordination Sequence:
#
# PCOD9453511 Si02
#       8
#     8   8   8   8   8   8   8   8
#     4  10  20  34  54  81 111 144 187 237 284 336
#     4  10  22  39  58  85 119 154 194 241 292 343
#     4  11  22  36  59  88 117 151 193 241 289 350
#     4   9  20  40  62  83 113 152 194 238 289 352
#     4  10  22  41  64  89 116 149 190 240 298 352
#     4   8  16  32  52  75 106 145 187 230 279 339
#     4  10  21  36  55  80 113 151 192 236 281 333
#     4   9  18  33  52  76 108 148 191 231 280 342
#
# _framework density 19.753086
#
# number of rings (size 3 to 8) (size 9 to 14) (size 15 to 20)
#    0.000    2.375    0.000    2.625    1.750    4.500 
#    0.000    1.875    0.000    1.500    0.000    0.000 
#    0.000    0.000    0.000    0.000    0.000    0.000 
#
# Total GULP energy -356557.611391 kJ/mol
# GULP energy per Si atom -5571.212678 kJ/mol
# Density = 1.970813 g / cm^3
# Si number density = 19.753086 Si / 1000 Ang^3
#
#
#
# Elastic Constant Matrix: (Units=GPa)
#
#
# Indices 1 2 3 4 5 6 
#
# 1 -18.2643 -17.6662 -9.6746 0.0000 0.0000 0.0000
# 2 -17.6662 8.7488 8.6480 0.0000 0.0000 0.0000
# 3 -9.6746 8.6480 43.0738 0.0000 0.0000 0.0000
# 4 0.0000 0.0000 0.0000 21.4709 0.0000 0.0000
# 5 0.0000 0.0000 0.0000 0.0000 28.7433 0.0000
# 6 0.0000 0.0000 0.0000 0.0000 0.0000 20.8400
#
#
#
# Elastic Compliance Matrix: (Units=1/GPa)
#
#
# Indices 1 2 3 4 5 6 
#
# 1 -0.017955 -0.040260 0.004050 0.000000 0.000000 0.000000
# 2 -0.040260 0.052329 -0.019549 0.000000 0.000000 0.000000
# 3 0.004050 -0.019549 0.028051 0.000000 0.000000 0.000000
# 4 0.000000 0.000000 0.000000 0.046575 0.000000 0.000000
# 5 0.000000 0.000000 0.000000 0.000000 0.034791 0.000000
# 6 0.000000 0.000000 0.000000 0.000000 0.000000 0.047985
#
#
# Mechanical properties :
#
#
# Convention : Reuss Voigt Hill
#
# Bulk Modulus (GPa) = -20.36929 -0.42527 -10.39728
# Shear Modulus (GPa) = 17.42605 17.69425 17.56015
#
# Velocity S-wave (km/s) = 2.97340 2.99619 2.98482
# Velocity P-wave (km/s) = 1.20573 3.42838 2.56978
#
# Compressibility (1/GPa) = -0.04909351
#
# Stress axis : x y z
#
# Youngs Moduli (GPa) = -55.69383 19.10998 35.64997
#
# Poissons Ratio (x) = 0.76937 -0.14439
# Poissons Ratio (y) = -2.24224 0.69691
# Poissons Ratio (z) = 0.22557 0.37358
#
# Static dielectric constant tensor:
#      x y z
#    x 1.675720 0.000000 0.000000 
#    y 0.000000 1.671160 0.000000 
#    z 0.000000 0.000000 1.789670 
# 
# From -- ./inp_files/24724.got.cif
#   From: 2010.05.17/outbox.ucp.g08.bks.cvg/sg59_13_cif.got.tgz:24724.got - 2010.06.11 16:43:56.
