data_PCOD9453197
_publ_section_title
;
Structure prediction by ZEFSAII (Michael W. Deem and Ramdas Pophale) SiO2 
 PCOD9453197
Probable space group: P M M N
;
_chemical_formula_sum "Si O2"
_cell_formula_units_Z 48
_cell_length_a 10.399492
_cell_length_b 8.631009
_cell_length_c 29.687862
_cell_angle_alpha 90.000000
_cell_angle_beta 90.000000
_cell_angle_gamma 90.000000
_cell_volume 2664.726355
_symmetry_space_group_name_H-M "P M M N"
_symmetry_group_IT_number 59
_space_group.IT_coordinate_system_code '2'
_symmetry_cell_setting 'orthorhombic'
loop_
_space_group_symop_operation_xyz
x,y,z
1/2-x,1/2-y,z
1/2+x,-y,-z
-x,1/2+y,-z
-x,-y,-z
1/2+x,1/2+y,-z
1/2-x,y,z
x,1/2-y,z
loop_
_atom_site_type_symbol
_atom_site_label
_atom_site_fract_x
_atom_site_fract_y
_atom_site_fract_z
Si Si1 0.896961 0.063083 0.138236
Si Si2 0.103333 0.563138 0.965216
Si Si3 0.502628 0.433520 0.401263
Si Si4 0.897277 0.436937 0.791766
Si Si5 0.750000 0.933067 0.450311
Si Si6 0.750000 0.065496 0.550110
Si Si7 0.597382 0.435159 0.688686
O O1 0.750000 0.015051 0.149116
O O2 0.900167 0.250000 0.139436
O O3 0.923784 0.015376 0.086487
O O4 0.001046 0.999148 0.172694
O O5 0.250000 0.514545 0.976135
O O6 0.100573 0.750000 0.966295
O O7 0.000000 0.500000 0.000000
O O8 0.516395 0.250000 0.407037
O O9 0.624675 0.519116 0.422270
O O10 0.375875 0.493055 0.427012
O O11 0.482149 0.476438 0.349026
O O12 0.750000 0.487846 0.801075
O O13 0.897464 0.250000 0.792946
O O14 0.930280 0.481398 0.740231
O O15 0.750000 0.750000 0.459463
O O16 0.750000 0.023766 0.497513
O O17 0.750000 0.250000 0.556944
O O18 0.750000 0.461935 0.681129
O O19 0.576381 0.250000 0.684168
#
# Coordination Sequence:
#
# PCOD9453197 Si02
#       7
#     8   8   8   8   4   4   8
#     4   9  19  36  54  75 108 148 185 225 276 334
#     4   9  19  35  53  75 106 143 184 229 278 331
#     4  12  24  40  62  91 120 150 192 240 285 338
#     4   9  19  35  56  83 111 141 182 231 276 327
#     4  12  26  44  62  86 120 156 192 236 287 340
#     4  12  24  42  66  90 118 156 194 232 283 342
#     4   9  18  36  60  83 111 149 190 229 278 337
#
# _framework density 18.013104999999999
#
# number of rings (size 3 to 8) (size 9 to 14) (size 15 to 20)
#    0.000    2.000    0.833    5.500    0.000    3.000 
#    1.500    6.667    0.000    0.000    0.000    0.000 
#    0.000    0.000    0.000    0.000    0.000    0.000 
#
# Total GULP energy -268052.059485 kJ/mol
# GULP energy per Si atom -5584.417906 kJ/mol
# Density = 1.797211 g / cm^3
# Si number density = 18.013105 Si / 1000 Ang^3
#
#
#
# Elastic Constant Matrix: (Units=GPa)
#
#
# Indices 1 2 3 4 5 6 
#
# 1 109.6081 4.8629 75.4242 0.0000 0.0000 0.0000
# 2 4.8629 24.0291 6.0287 0.0000 0.0000 0.0000
# 3 75.4242 6.0287 119.6624 0.0000 0.0000 0.0000
# 4 0.0000 0.0000 0.0000 37.2461 0.0000 0.0000
# 5 0.0000 0.0000 0.0000 0.0000 27.3040 0.0000
# 6 0.0000 0.0000 0.0000 0.0000 0.0000 32.2414
#
#
#
# Elastic Compliance Matrix: (Units=1/GPa)
#
#
# Indices 1 2 3 4 5 6 
#
# 1 0.016124 -0.000722 -0.010127 0.000000 0.000000 0.000000
# 2 -0.000722 0.042181 -0.001670 0.000000 0.000000 0.000000
# 3 -0.010127 -0.001670 0.014824 0.000000 0.000000 0.000000
# 4 0.000000 0.000000 0.000000 0.026848 0.000000 0.000000
# 5 0.000000 0.000000 0.000000 0.000000 0.036625 0.000000
# 6 0.000000 0.000000 0.000000 0.000000 0.000000 0.031016
#
#
# Mechanical properties :
#
#
# Convention : Reuss Voigt Hill
#
# Bulk Modulus (GPa) = 20.79369 47.32568 34.05969
# Shear Modulus (GPa) = 23.95940 30.49054 27.22497
#
# Velocity S-wave (km/s) = 3.65102 4.11869 3.89189
# Velocity P-wave (km/s) = 5.41683 6.99629 6.25660
#
# Compressibility (1/GPa) = 0.04809151
#
# Stress axis : x y z
#
# Youngs Moduli (GPa) = 62.02004 23.70713 67.45890
#
# Poissons Ratio (x) = 0.01713 0.68313
# Poissons Ratio (y) = 0.04480 0.11265
# Poissons Ratio (z) = 0.62805 0.03959
#
# Static dielectric constant tensor:
#      x y z
#    x 1.592560 0.000000 0.000000 
#    y 0.000000 1.609000 0.000000 
#    z 0.000000 0.000000 1.607430 
# 
# From -- ./inp_files/33098.got.cif
#   From: 2010.05.17/outbox.cif.g08.bks.cpg/sg59_17_cif.got.tgz:33098.got - 2010.06.03 14:40:33.
