data_PCOD9453743
_publ_section_title
;
Structure prediction by ZEFSAII (Michael W. Deem and Ramdas Pophale) SiO2 
 PCOD9453743
Probable space group: P B C N
;
_chemical_formula_sum "Si O2"
_cell_formula_units_Z 64
_cell_length_a 19.184254
_cell_length_b 30.927112
_cell_length_c 5.572782
_cell_angle_alpha 90.000000
_cell_angle_beta 90.000000
_cell_angle_gamma 90.000000
_cell_volume 3306.407195
_symmetry_space_group_name_H-M "P B C N"
_symmetry_group_IT_number 60
_symmetry_cell_setting 'orthorhombic'
loop_
_space_group_symop_operation_xyz
x,y,z
1/2-x,1/2-y,1/2+z
1/2+x,1/2-y,-z
-x,y,1/2-z
-x,-y,-z
1/2+x,1/2+y,1/2-z
1/2-x,1/2+y,z
x,-y,1/2+z
loop_
_atom_site_type_symbol
_atom_site_label
_atom_site_fract_x
_atom_site_fract_y
_atom_site_fract_z
Si Si1 0.305112 0.390564 0.108750
Si Si2 0.206067 0.314443 0.953596
Si Si3 0.257322 0.510684 0.613388
Si Si4 0.937991 0.202846 0.583064
Si Si5 0.888067 0.882512 0.888343
Si Si6 0.827358 0.749598 0.406821
Si Si7 0.415063 0.522468 0.106961
Si Si8 0.570032 0.785751 0.305391
O O1 0.244822 0.357358 0.032296
O O2 0.278744 0.439480 0.117170
O O3 0.356627 0.387107 0.879006
O O4 0.338224 0.381336 0.372071
O O5 0.193902 0.298545 0.681601
O O6 0.257112 0.275293 0.035326
O O7 0.129301 0.312731 0.062677
O O8 0.220581 0.499389 0.862534
O O9 0.329834 0.482757 0.610519
O O10 0.923024 0.164360 0.400411
O O11 0.868410 0.219204 0.720575
O O12 0.961688 0.247898 0.470624
O O13 0.000000 0.186530 0.750000
O O14 0.931160 0.926900 0.924537
O O15 0.883664 0.740383 0.612036
O O16 0.436070 0.495793 0.868624
O O17 0.500000 0.812054 0.250000
#
# Coordination Sequence:
#
# PCOD9453743 Si02
#       8
#     8   8   8   8   8   8   8   8
#     4  12  22  34  54  88 118 146 188 247 295 348
#     4  11  24  33  57  87 113 148 193 247 295 342
#     4  10  16  31  51  77 110 150 185 220 293 361
#     4  11  24  38  56  79 107 152 206 250 294 349
#     4  12  22  33  56  82 113 148 193 250 296 338
#     4  11  21  39  55  79 111 148 191 242 295 348
#     4  10  16  31  49  76 104 150 189 225 294 360
#     4  11  23  42  61  77 114 160 198 239 294 365
#
# _framework density 19.356356999999999
#
# number of rings (size 3 to 8) (size 9 to 14) (size 15 to 20)
#    0.000    1.000    8.750    0.750    3.500    0.000 
#    0.000    0.000    0.000    0.750    0.000    0.000 
#    0.000    1.000    0.000    0.000    0.000    0.000 
#
# Total GULP energy -356748.167796 kJ/mol
# GULP energy per Si atom -5574.190122 kJ/mol
# Density = 1.931230 g / cm^3
# Si number density = 19.356357 Si / 1000 Ang^3
#
#
#
# Elastic Constant Matrix: (Units=GPa)
#
#
# Indices 1 2 3 4 5 6 
#
# 1 61.8975 -3.7186 9.5464 0.0000 0.0000 0.0000
# 2 -3.7186 61.8081 3.0331 0.0000 0.0000 0.0000
# 3 9.5464 3.0331 83.6084 0.0000 0.0000 0.0000
# 4 0.0000 0.0000 0.0000 -7.9388 0.0000 0.0000
# 5 0.0000 0.0000 0.0000 0.0000 18.6959 0.0000
# 6 0.0000 0.0000 0.0000 0.0000 0.0000 -2.0222
#
#
#
# Elastic Compliance Matrix: (Units=1/GPa)
#
#
# Indices 1 2 3 4 5 6 
#
# 1 0.016518 0.001088 -0.001926 0.000000 0.000000 0.000000
# 2 0.001088 0.016280 -0.000715 0.000000 0.000000 0.000000
# 3 -0.001926 -0.000715 0.012206 0.000000 0.000000 0.000000
# 4 0.000000 0.000000 0.000000 -0.125964 0.000000 0.000000
# 5 0.000000 0.000000 0.000000 0.000000 0.053488 0.000000
# 6 0.000000 0.000000 0.000000 0.000000 0.000000 -0.494500
#
#
# Mechanical properties :
#
#
# Convention : Reuss Voigt Hill
#
# Bulk Modulus (GPa) = 23.86641 25.00398 24.43519
# Shear Modulus (GPa) = -9.90292 14.97719 2.53714
#
# Velocity S-wave (km/s) = -2.26433 2.78467 1.14612
# Velocity P-wave (km/s) = 2.34957 4.82545 3.79509
#
# Compressibility (1/GPa) = 0.04189989
#
# Stress axis : x y z
#
# Youngs Moduli (GPa) = 60.53971 61.42636 81.92487
#
# Poissons Ratio (x) = -0.06685 0.15775
# Poissons Ratio (y) = -0.06588 0.05856
# Poissons Ratio (z) = 0.11657 0.04391
#
# Static dielectric constant tensor:
#      x y z
#    x 1.722170 0.000000 0.000000 
#    y 0.000000 1.651020 0.000000 
#    z 0.000000 0.000000 1.844630 
# 
# From -- ./inp_files/1900.got.cif
#   From: 2010.05.17/outbox.cif.g08.bks.cpg/sg60_1_cif.got.tgz:1900.got - 2010.06.03 14:59:27.
