data_PCOD9453438
_publ_section_title
;
Structure prediction by ZEFSAII (Michael W. Deem and Ramdas Pophale) SiO2 
 PCOD9453438
Probable space group: P M M N
;
_chemical_formula_sum "Si O2"
_cell_formula_units_Z 48
_cell_length_a 15.000000
_cell_length_b 15.000000
_cell_length_c 12.000000
_cell_angle_alpha 90.000000
_cell_angle_beta 90.000000
_cell_angle_gamma 90.000000
_cell_volume 2700.000000
_symmetry_space_group_name_H-M "P M M N"
_symmetry_group_IT_number 59
_space_group.IT_coordinate_system_code '2'
_symmetry_cell_setting 'orthorhombic'
loop_
_space_group_symop_operation_xyz
x,y,z
1/2-x,1/2-y,z
1/2+x,-y,-z
-x,1/2+y,-z
-x,-y,-z
1/2+x,1/2+y,-z
1/2-x,y,z
x,1/2-y,z
loop_
_atom_site_type_symbol
_atom_site_label
_atom_site_fract_x
_atom_site_fract_y
_atom_site_fract_z
Si Si1 0.985488 0.922592 0.246109
Si Si2 0.647015 0.544659 0.819024
Si Si3 0.384381 0.350985 0.411020
Si Si4 0.068221 0.845934 0.464765
Si Si5 0.153412 0.497083 0.587706
Si Si6 0.147573 0.144298 0.945241
O O1 0.922313 0.988181 0.318991
O O2 0.922804 0.882290 0.150217
O O3 0.024027 0.858509 0.343253
O O4 0.070975 0.970378 0.193051
O O5 0.750000 0.512372 0.817932
O O6 0.634552 0.605704 0.708652
O O7 0.633041 0.596400 0.935689
O O8 0.352602 0.250000 0.411720
O O9 0.488847 0.349574 0.444172
O O10 0.345740 0.408308 0.512629
O O11 0.112805 0.750000 0.470805
O O12 0.130696 0.926881 0.498081
O O13 0.250000 0.512108 0.638822
O O14 0.250000 0.123883 0.909534
O O15 0.141696 0.250000 0.963076
#
# Coordination Sequence:
#
# PCOD9453438 Si02
#       6
#     8   8   8   8   8   8
#     4  11  20  38  56  83 111 149 187 234 277 338
#     4  11  21  35  57  82 113 148 185 232 281 333
#     4  10  19  34  55  81 112 144 183 233 287 335
#     4  10  20  35  55  78 111 151 189 228 274 328
#     4  11  21  35  55  81 115 150 186 231 281 332
#     4  10  22  38  57  84 112 142 185 234 288 343
#
# _framework density 17.777778000000001
#
# number of rings (size 3 to 8) (size 9 to 14) (size 15 to 20)
#    0.000    1.500    3.333    3.500    0.000    3.000 
#    0.000    0.000    0.000    1.500    0.000    0.000 
#    0.000    0.000    0.000    0.000    0.000    0.000 
#
# Total GULP energy -267581.977435 kJ/mol
# GULP energy per Si atom -5574.624530 kJ/mol
# Density = 1.773731 g / cm^3
# Si number density = 17.777778 Si / 1000 Ang^3
#
#
#
# Elastic Constant Matrix: (Units=GPa)
#
#
# Indices 1 2 3 4 5 6 
#
# 1 69.1743 44.2547 23.9565 0.0000 0.0000 0.0000
# 2 44.2547 60.3081 13.7671 0.0000 0.0000 0.0000
# 3 23.9565 13.7671 83.6001 0.0000 0.0000 0.0000
# 4 0.0000 0.0000 0.0000 12.6782 0.0000 0.0000
# 5 0.0000 0.0000 0.0000 0.0000 21.2404 0.0000
# 6 0.0000 0.0000 0.0000 0.0000 0.0000 11.7318
#
#
#
# Elastic Compliance Matrix: (Units=1/GPa)
#
#
# Indices 1 2 3 4 5 6 
#
# 1 0.029143 -0.020240 -0.005018 0.000000 0.000000 0.000000
# 2 -0.020240 0.031286 0.000648 0.000000 0.000000 0.000000
# 3 -0.005018 0.000648 0.013293 0.000000 0.000000 0.000000
# 4 0.000000 0.000000 0.000000 0.078876 0.000000 0.000000
# 5 0.000000 0.000000 0.000000 0.000000 0.047080 0.000000
# 6 0.000000 0.000000 0.000000 0.000000 0.000000 0.085238
#
#
# Mechanical properties :
#
#
# Convention : Reuss Voigt Hill
#
# Bulk Modulus (GPa) = 40.81384 41.89323 41.35354
# Shear Modulus (GPa) = 14.60698 17.87035 16.23866
#
# Velocity S-wave (km/s) = 2.86954 3.17394 3.02557
# Velocity P-wave (km/s) = 5.82981 6.08670 5.95964
#
# Compressibility (1/GPa) = 0.02450149
#
# Stress axis : x y z
#
# Youngs Moduli (GPa) = 34.31414 31.96353 75.22745
#
# Poissons Ratio (x) = 0.64693 0.37750
# Poissons Ratio (y) = 0.69450 -0.04873
# Poissons Ratio (z) = 0.17219 -0.02071
#
# Static dielectric constant tensor:
#      x y z
#    x 1.641840 0.000000 0.000000 
#    y 0.000000 1.625240 0.000000 
#    z 0.000000 0.000000 1.564400 
# 
# From -- ./inp_files/16816.got.cif
#   From: 2010.05.17/outbox.ucp.g08.bks.cvg/sg59_9_cif.got.tgz:16816.got - 2010.06.11 16:43:56.
