data_PCOD9453034
_publ_section_title
;
Structure prediction by ZEFSAII (Michael W. Deem and Ramdas Pophale) SiO2 
 PCOD9453034
Probable space group: P M M N
;
_chemical_formula_sum "Si O2"
_cell_formula_units_Z 40
_cell_length_a 8.005634
_cell_length_b 14.780063
_cell_length_c 17.856246
_cell_angle_alpha 90.000000
_cell_angle_beta 90.000000
_cell_angle_gamma 90.000000
_cell_volume 2112.818432
_symmetry_space_group_name_H-M "P M M N"
_symmetry_group_IT_number 59
_space_group.IT_coordinate_system_code '2'
_symmetry_cell_setting 'orthorhombic'
loop_
_space_group_symop_operation_xyz
x,y,z
1/2-x,1/2-y,z
1/2+x,-y,-z
-x,1/2+y,-z
-x,-y,-z
1/2+x,1/2+y,-z
1/2-x,y,z
x,1/2-y,z
loop_
_atom_site_type_symbol
_atom_site_label
_atom_site_fract_x
_atom_site_fract_y
_atom_site_fract_z
Si Si1 0.545895 0.250000 0.152825
Si Si2 0.951308 0.146734 0.510426
Si Si3 0.045186 0.943619 0.784583
Si Si4 0.951713 0.490660 0.381915
Si Si5 0.448457 0.056209 0.926790
Si Si6 0.448491 0.750000 0.019353
O O1 0.750000 0.250000 0.151356
O O2 0.494325 0.158373 0.194271
O O3 0.486657 0.250000 0.066515
O O4 0.750000 0.150220 0.506153
O O5 0.013270 0.250000 0.512088
O O6 0.010873 0.088483 0.438593
O O7 0.997445 0.086257 0.582206
O O8 0.250000 0.944662 0.784124
O O9 0.989244 0.973816 0.702418
O O10 0.986375 0.009236 0.851247
O O11 0.750000 0.487352 0.381407
O O12 0.250000 0.051884 0.922621
O O13 0.499415 0.159352 0.938635
O O14 0.500000 0.000000 0.000000
O O15 0.250000 0.750000 0.013387
#
# Coordination Sequence:
#
# PCOD9453034 Si02
#       6
#     4   8   8   8   8   4
#     4   9  16  29  53  81 104 127 166 220 265 305
#     4   9  18  33  53  77 105 135 167 209 261 312
#     4   9  18  32  53  80 106 133 173 222 264 306
#     4   9  18  33  54  79 102 132 174 214 255 310
#     4  11  21  36  56  80 110 144 180 225 272 322
#     4  11  21  37  57  79 104 143 188 226 273 323
#
# _framework density 18.932058000000001
#
# number of rings (size 3 to 8) (size 9 to 14) (size 15 to 20)
#    0.000    2.400    2.000    0.900    1.400    0.400 
#    1.800    2.000    0.000    0.000    0.000    0.000 
#    0.000    0.000    0.000    0.000    0.000    0.000 
#
# Total GULP energy -223205.551103 kJ/mol
# GULP energy per Si atom -5580.138778 kJ/mol
# Density = 1.888897 g / cm^3
# Si number density = 18.932058 Si / 1000 Ang^3
#
#
#
# Elastic Constant Matrix: (Units=GPa)
#
#
# Indices 1 2 3 4 5 6 
#
# 1 16.2094 9.7292 10.0820 0.0000 0.0000 0.0000
# 2 9.7292 204.6470 113.9153 0.0000 0.0000 0.0000
# 3 10.0820 113.9153 189.4612 0.0000 0.0000 0.0000
# 4 0.0000 0.0000 0.0000 16.8313 0.0000 0.0000
# 5 0.0000 0.0000 0.0000 0.0000 20.9006 0.0000
# 6 0.0000 0.0000 0.0000 0.0000 0.0000 26.8093
#
#
#
# Elastic Compliance Matrix: (Units=1/GPa)
#
#
# Indices 1 2 3 4 5 6 
#
# 1 0.064209 -0.001729 -0.002377 0.000000 0.000000 0.000000
# 2 -0.001729 0.007391 -0.004352 0.000000 0.000000 0.000000
# 3 -0.002377 -0.004352 0.008021 0.000000 0.000000 0.000000
# 4 0.000000 0.000000 0.000000 0.059413 0.000000 0.000000
# 5 0.000000 0.000000 0.000000 0.000000 0.047845 0.000000
# 6 0.000000 0.000000 0.000000 0.000000 0.000000 0.037300
#
#
# Mechanical properties :
#
#
# Convention : Reuss Voigt Hill
#
# Bulk Modulus (GPa) = 15.94778 75.30787 45.62783
# Shear Modulus (GPa) = 19.08405 31.34766 25.21585
#
# Velocity S-wave (km/s) = 3.17839 4.07356 3.65350
# Velocity P-wave (km/s) = 4.68098 7.87334 6.47692
#
# Compressibility (1/GPa) = 0.06270464
#
# Stress axis : x y z
#
# Youngs Moduli (GPa) = 15.57414 135.29619 124.66820
#
# Poissons Ratio (x) = 0.23399 0.29633
# Poissons Ratio (y) = 0.02693 0.54256
# Poissons Ratio (z) = 0.03702 0.58881
#
# Static dielectric constant tensor:
#      x y z
#    x 1.685140 0.000000 0.000000 
#    y 0.000000 1.632750 0.000000 
#    z 0.000000 0.000000 1.648280 
# 
# From -- ./inp_files/19932.got.cif
#   From: 2010.05.17/outbox.cif.g08.bks.cpg/sg59_10_cif.got.tgz:19932.got - 2010.06.03 14:40:33.
