data_PCOD9453291
_publ_section_title
;
Structure prediction by ZEFSAII (Michael W. Deem and Ramdas Pophale) SiO2 
 PCOD9453291
Probable space group: P M M N
;
_chemical_formula_sum "Si O2"
_cell_formula_units_Z 40
_cell_length_a 13.787378
_cell_length_b 7.367313
_cell_length_c 15.668833
_cell_angle_alpha 90.000000
_cell_angle_beta 90.000000
_cell_angle_gamma 90.000000
_cell_volume 1591.576271
_symmetry_space_group_name_H-M "P M M N"
_symmetry_group_IT_number 59
_space_group.IT_coordinate_system_code '2'
_symmetry_cell_setting 'orthorhombic'
loop_
_space_group_symop_operation_xyz
x,y,z
1/2-x,1/2-y,z
1/2+x,-y,-z
-x,1/2+y,-z
-x,-y,-z
1/2+x,1/2+y,-z
1/2-x,y,z
x,1/2-y,z
loop_
_atom_site_type_symbol
_atom_site_label
_atom_site_fract_x
_atom_site_fract_y
_atom_site_fract_z
Si Si1 0.068202 0.969820 0.617559
Si Si2 0.113202 0.964295 0.985630
Si Si3 0.572404 0.027871 0.196547
Si Si4 0.852420 0.956902 0.825766
Si Si5 0.855904 0.961072 0.567152
O O1 0.066527 0.750000 0.614796
O O2 0.108648 0.023355 0.709913
O O3 0.956118 0.034363 0.606845
O O4 0.126855 0.029748 0.534800
O O5 0.134669 0.750000 0.988713
O O6 0.129277 0.030037 0.888730
O O7 0.154313 0.047236 0.071414
O O8 0.000000 0.000000 0.000000
O O9 0.570681 0.250000 0.191550
O O10 0.459212 0.966053 0.192479
O O11 0.750000 0.038467 0.794956
O O12 0.855298 0.750000 0.793892
O O13 0.750000 0.039864 0.587368
O O14 0.853023 0.750000 0.591502
#
# Coordination Sequence:
#
# PCOD9453291 Si02
#       5
#     8   8   8   8   8
#     4   9  17  31  51  72  93 121 158 194 231 278
#     4   9  16  28  45  63  86 116 148 181 219 263
#     4   8  15  28  46  67  88 113 149 190 227 265
#     4   9  17  29  45  66  92 120 151 188 229 272
#     4   9  18  32  49  70  96 123 151 188 236 285
#
# _framework density 25.132317
#
# number of rings (size 3 to 8) (size 9 to 14) (size 15 to 20)
#    0.000    3.200    0.000    1.800    0.000    1.600 
#    0.000   10.000    0.000    6.000    0.000    8.400 
#    0.000    0.000    0.000    0.000    0.000    0.000 
#
# Total GULP energy -223074.882753 kJ/mol
# GULP energy per Si atom -5576.872069 kJ/mol
# Density = 2.507511 g / cm^3
# Si number density = 25.132317 Si / 1000 Ang^3
#
#
#
# Elastic Constant Matrix: (Units=GPa)
#
#
# Indices 1 2 3 4 5 6 
#
# 1 83.4952 -1.0569 -2.9973 0.0000 0.0000 0.0000
# 2 -1.0569 99.3038 3.0719 0.0000 0.0000 0.0000
# 3 -2.9973 3.0719 199.8744 0.0000 0.0000 0.0000
# 4 0.0000 0.0000 0.0000 6.2024 0.0000 0.0000
# 5 0.0000 0.0000 0.0000 0.0000 -15.4515 0.0000
# 6 0.0000 0.0000 0.0000 0.0000 0.0000 -6.8538
#
#
#
# Elastic Compliance Matrix: (Units=1/GPa)
#
#
# Indices 1 2 3 4 5 6 
#
# 1 0.011985 0.000122 0.000178 0.000000 0.000000 0.000000
# 2 0.000122 0.010076 -0.000153 0.000000 0.000000 0.000000
# 3 0.000178 -0.000153 0.005008 0.000000 0.000000 0.000000
# 4 0.000000 0.000000 0.000000 0.161227 0.000000 0.000000
# 5 0.000000 0.000000 0.000000 0.000000 -0.064718 0.000000
# 6 0.000000 0.000000 0.000000 0.000000 0.000000 -0.145904
#
#
# Mechanical properties :
#
#
# Convention : Reuss Voigt Hill
#
# Bulk Modulus (GPa) = 36.54611 42.30098 39.42354
# Shear Modulus (GPa) = -370.39105 22.35646 -174.01730
#
# Velocity S-wave (km/s) = -12.15304 2.98577 -8.33011
# Velocity P-wave (km/s) = 13.50390 5.36230 8.76359
#
# Compressibility (1/GPa) = 0.02736270
#
# Stress axis : x y z
#
# Youngs Moduli (GPa) = 83.43993 99.24435 199.67408
#
# Poissons Ratio (x) = -0.01211 -0.03551
# Poissons Ratio (y) = -0.01018 0.03056
# Poissons Ratio (z) = -0.01484 0.01519
#
# Static dielectric constant tensor:
#      x y z
#    x 1.977780 0.000000 0.000000 
#    y 0.000000 1.981680 0.000000 
#    z 0.000000 0.000000 1.985600 
# 
# From -- ./inp_files/27250.got.cif
#   From: 2010.05.17/outbox.cif.g08.bks.cpg/sg59_14_cif.got.tgz:27250.got - 2010.06.03 14:40:33.
