data_PCOD9453407
_publ_section_title
;
Structure prediction by ZEFSAII (Michael W. Deem and Ramdas Pophale) SiO2 
 PCOD9453407
Probable space group: P M M N
;
_chemical_formula_sum "Si O2"
_cell_formula_units_Z 56
_cell_length_a 9.000000
_cell_length_b 21.000000
_cell_length_c 15.000000
_cell_angle_alpha 90.000000
_cell_angle_beta 90.000000
_cell_angle_gamma 90.000000
_cell_volume 2835.000000
_symmetry_space_group_name_H-M "P M M N"
_symmetry_group_IT_number 59
_space_group.IT_coordinate_system_code '2'
_symmetry_cell_setting 'orthorhombic'
loop_
_space_group_symop_operation_xyz
x,y,z
1/2-x,1/2-y,z
1/2+x,-y,-z
-x,1/2+y,-z
-x,-y,-z
1/2+x,1/2+y,-z
1/2-x,y,z
x,1/2-y,z
loop_
_atom_site_type_symbol
_atom_site_label
_atom_site_fract_x
_atom_site_fract_y
_atom_site_fract_z
Si Si1 0.912683 0.512640 0.628144
Si Si2 0.922402 0.320504 0.978383
Si Si3 0.414456 0.503634 0.798359
Si Si4 0.421673 0.442373 0.051620
Si Si5 0.584248 0.400351 0.481149
Si Si6 0.915995 0.642483 0.187052
Si Si7 0.083983 0.824395 0.354724
O O1 0.750000 0.512646 0.670154
O O2 0.910966 0.458428 0.552675
O O3 0.043388 0.498214 0.696018
O O4 0.955721 0.579963 0.585292
O O5 0.750000 0.335656 0.988826
O O6 0.951609 0.250000 0.013140
O O7 0.965667 0.322744 0.874311
O O8 0.019342 0.374402 0.022743
O O9 0.250000 0.529484 0.812807
O O10 0.534914 0.546168 0.846455
O O11 0.419136 0.432058 0.835730
O O12 0.250000 0.447604 0.035419
O O13 0.500000 0.500000 0.000000
O O14 0.750000 0.395996 0.440923
O O15 0.555171 0.340006 0.542681
O O16 0.750000 0.666941 0.171626
O O17 0.962812 0.647967 0.288997
O O18 0.250000 0.850621 0.334013
O O19 0.086955 0.750000 0.339844
#
# Coordination Sequence:
#
# PCOD9453407 Si02
#       7
#     8   8   8   8   8   8   8
#     4  10  19  32  53  78 104 138 177 223 276 325
#     4  11  24  41  61  84 115 155 195 236 285 344
#     4  11  22  36  56  83 115 149 185 232 285 336
#     4  12  24  39  61  87 116 151 192 240 290 342
#     4   9  18  32  50  74 105 139 177 221 268 322
#     4  11  22  34  53  81 115 152 188 228 278 336
#     4  10  20  34  52  75 108 149 187 223 270 331
#
# _framework density 19.753086
#
# number of rings (size 3 to 8) (size 9 to 14) (size 15 to 20)
#    0.000    1.429    2.857    3.429    0.000    5.429 
#    0.000    0.000    0.000    0.857    0.000    2.000 
#    0.000    0.000    0.000    0.000    0.000    0.000 
#
# Total GULP energy -312075.575474 kJ/mol
# GULP energy per Si atom -5572.778133 kJ/mol
# Density = 1.970813 g / cm^3
# Si number density = 19.753086 Si / 1000 Ang^3
#
#
#
# Elastic Constant Matrix: (Units=GPa)
#
#
# Indices 1 2 3 4 5 6 
#
# 1 96.2151 77.0032 21.9283 0.0000 0.0000 0.0000
# 2 77.0032 15.4133 26.4923 0.0000 0.0000 0.0000
# 3 21.9283 26.4923 6.9352 0.0000 0.0000 0.0000
# 4 0.0000 0.0000 0.0000 20.3062 0.0000 0.0000
# 5 0.0000 0.0000 0.0000 0.0000 7.9972 0.0000
# 6 0.0000 0.0000 0.0000 0.0000 0.0000 16.2837
#
#
#
# Elastic Compliance Matrix: (Units=1/GPa)
#
#
# Indices 1 2 3 4 5 6 
#
# 1 0.036479 -0.002876 -0.104357 0.000000 0.000000 0.000000
# 2 -0.002876 -0.011430 0.052755 0.000000 0.000000 0.000000
# 3 -0.104357 0.052755 0.272633 0.000000 0.000000 0.000000
# 4 0.000000 0.000000 0.000000 0.049246 0.000000 0.000000
# 5 0.000000 0.000000 0.000000 0.000000 0.125044 0.000000
# 6 0.000000 0.000000 0.000000 0.000000 0.000000 0.061411
#
#
# Mechanical properties :
#
#
# Convention : Reuss Voigt Hill
#
# Bulk Modulus (GPa) = 5.29866 41.04568 23.17217
# Shear Modulus (GPa) = 7.08973 8.46005 7.77489
#
# Velocity S-wave (km/s) = 1.89657 2.07176 1.98610
# Velocity P-wave (km/s) = 2.73573 5.15242 4.12502
#
# Compressibility (1/GPa) = 0.18872686
#
# Stress axis : x y z
#
# Youngs Moduli (GPa) = 27.41335 -87.48809 3.66794
#
# Poissons Ratio (x) = -0.25158 0.38277
# Poissons Ratio (y) = 0.07883 -0.19350
# Poissons Ratio (z) = 2.86076 4.61544
#
# Static dielectric constant tensor:
#      x y z
#    x 1.700710 0.000000 0.000000 
#    y 0.000000 1.710410 0.000000 
#    z 0.000000 0.000000 1.789960 
# 
# From -- ./inp_files/20942.got.cif
#   From: 2010.05.17/outbox.ucp.g08.bks.cvg/sg59_11_cif.got.tgz:20942.got - 2010.06.11 16:43:56.
