data_PCOD9453353
_publ_section_title
;
Structure prediction by ZEFSAII (Michael W. Deem and Ramdas Pophale) SiO2 
 PCOD9453353
Probable space group: P M M N
;
_chemical_formula_sum "Si O2"
_cell_formula_units_Z 64
_cell_length_a 30.000000
_cell_length_b 9.000000
_cell_length_c 12.000000
_cell_angle_alpha 90.000000
_cell_angle_beta 90.000000
_cell_angle_gamma 90.000000
_cell_volume 3240.000000
_symmetry_space_group_name_H-M "P M M N"
_symmetry_group_IT_number 59
_space_group.IT_coordinate_system_code '2'
_symmetry_cell_setting 'orthorhombic'
loop_
_space_group_symop_operation_xyz
x,y,z
1/2-x,1/2-y,z
1/2+x,-y,-z
-x,1/2+y,-z
-x,-y,-z
1/2+x,1/2+y,-z
1/2-x,y,z
x,1/2-y,z
loop_
_atom_site_type_symbol
_atom_site_label
_atom_site_fract_x
_atom_site_fract_y
_atom_site_fract_z
Si Si1 0.380396 0.580483 0.140394
Si Si2 0.524119 0.426249 0.340280
Si Si3 0.375225 0.415264 0.913276
Si Si4 0.518599 0.580124 0.108440
Si Si5 0.343717 0.078199 0.484269
Si Si6 0.623911 0.074036 0.313906
Si Si7 0.430205 0.071694 0.334333
Si Si8 0.298173 0.914856 0.305835
O O1 0.393143 0.750000 0.116874
O O2 0.418067 0.503231 0.216391
O O3 0.336783 0.576457 0.216556
O O4 0.367807 0.498306 0.028071
O O5 0.526336 0.250000 0.361066
O O6 0.513897 0.468207 0.211741
O O7 0.574474 0.485104 0.352755
O O8 0.476759 0.481260 0.389657
O O9 0.356069 0.250000 0.912952
O O10 0.428664 0.404790 0.907131
O O11 0.362623 0.504569 0.803276
O O12 0.501568 0.750000 0.126725
O O13 0.500000 0.500000 0.000000
O O14 0.344759 0.250000 0.515334
O O15 0.388935 0.041650 0.415585
O O16 0.342632 0.976077 0.591389
O O17 0.305192 0.038273 0.398579
O O18 0.620495 0.250000 0.303107
O O19 0.432461 0.250000 0.318343
O O20 0.250000 0.927336 0.252454
O O21 0.301862 0.750000 0.358529
#
# Coordination Sequence:
#
# PCOD9453353 Si02
#       8
#     8   8   8   8   8   8   8   8
#     4  10  19  31  51  79 105 130 164 205 251 305
#     4   9  18  31  45  63  91 130 175 218 256 295
#     4  10  20  33  48  68  98 135 170 206 252 301
#     4  10  19  28  40  60  88 125 168 212 254 294
#     4  10  20  34  53  77 105 135 168 209 256 306
#     4  10  20  34  51  71  98 136 182 223 255 294
#     4   9  18  32  48  69 100 136 172 213 262 308
#     4   9  19  37  60  84 108 132 159 196 245 301
#
# _framework density 19.753086
#
# number of rings (size 3 to 8) (size 9 to 14) (size 15 to 20)
#    0.000    2.375    0.000    2.625    0.000    7.250 
#    0.000    0.000    0.000    0.750    0.000    1.750 
#    0.000    0.000    0.000    0.000    0.000    0.000 
#
# Total GULP energy -356392.609272 kJ/mol
# GULP energy per Si atom -5568.634520 kJ/mol
# Density = 1.970813 g / cm^3
# Si number density = 19.753086 Si / 1000 Ang^3
#
#
#
# Elastic Constant Matrix: (Units=GPa)
#
#
# Indices 1 2 3 4 5 6 
#
# 1 42.4210 1.5649 11.5654 0.0000 0.0000 0.0000
# 2 1.5649 48.4082 43.0872 0.0000 0.0000 0.0000
# 3 11.5654 43.0872 44.3686 0.0000 0.0000 0.0000
# 4 0.0000 0.0000 0.0000 25.3149 0.0000 0.0000
# 5 0.0000 0.0000 0.0000 0.0000 2.9096 0.0000
# 6 0.0000 0.0000 0.0000 0.0000 0.0000 13.6324
#
#
#
# Elastic Compliance Matrix: (Units=1/GPa)
#
#
# Indices 1 2 3 4 5 6 
#
# 1 0.039724 0.058487 -0.067153 0.000000 0.000000 0.000000
# 2 0.058487 0.238427 -0.246787 0.000000 0.000000 0.000000
# 3 -0.067153 -0.246787 0.279703 0.000000 0.000000 0.000000
# 4 0.000000 0.000000 0.000000 0.039502 0.000000 0.000000
# 5 0.000000 0.000000 0.000000 0.000000 0.343687 0.000000
# 6 0.000000 0.000000 0.000000 0.000000 0.000000 0.073355
#
#
# Mechanical properties :
#
#
# Convention : Reuss Voigt Hill
#
# Bulk Modulus (GPa) = 21.29989 27.51477 24.40733
# Shear Modulus (GPa) = 3.24475 13.63674 8.44075
#
# Velocity S-wave (km/s) = 1.28305 2.63032 2.06940
# Velocity P-wave (km/s) = 3.60575 4.81502 4.25358
#
# Compressibility (1/GPa) = 0.04694861
#
# Stress axis : x y z
#
# Youngs Moduli (GPa) = 25.17377 4.19415 3.57523
#
# Poissons Ratio (x) = -0.24530 0.24009
# Poissons Ratio (y) = -1.47235 0.88232
# Poissons Ratio (z) = 1.69049 1.03506
#
# Static dielectric constant tensor:
#      x y z
#    x 2.052370 0.000000 0.000000 
#    y 0.000000 1.694820 0.000000 
#    z 0.000000 0.000000 1.725470 
# 
# From -- ./inp_files/19239.got.cif
#   From: 2010.05.17/outbox.ucp.g08.bks.cvg/sg59_10_cif.got.tgz:19239.got - 2010.06.11 16:43:56.
