data_PCOD9453767
_publ_section_title
;
Structure prediction by ZEFSAII (Michael W. Deem and Ramdas Pophale) SiO2 
 PCOD9453767
Probable space group: P B C N
;
_chemical_formula_sum "Si O2"
_cell_formula_units_Z 52
_cell_length_a 11.696738
_cell_length_b 20.578174
_cell_length_c 10.301061
_cell_angle_alpha 90.000000
_cell_angle_beta 90.000000
_cell_angle_gamma 90.000000
_cell_volume 2479.439731
_symmetry_space_group_name_H-M "P B C N"
_symmetry_group_IT_number 60
_symmetry_cell_setting 'orthorhombic'
loop_
_space_group_symop_operation_xyz
x,y,z
1/2-x,1/2-y,1/2+z
1/2+x,1/2-y,-z
-x,y,1/2-z
-x,-y,-z
1/2+x,1/2+y,1/2-z
1/2-x,1/2+y,z
x,-y,1/2+z
loop_
_atom_site_type_symbol
_atom_site_label
_atom_site_fract_x
_atom_site_fract_y
_atom_site_fract_z
Si Si1 0.361386 0.330441 0.888247
Si Si2 0.790309 0.686325 0.598610
Si Si3 0.500000 0.800708 0.750000
Si Si4 0.275003 0.139589 0.629892
Si Si5 0.918742 0.491427 0.376111
Si Si6 0.222612 0.380576 0.665711
Si Si7 0.471176 0.231335 0.542485
O O1 0.428860 0.179852 0.915131
O O2 0.321805 0.376271 0.772567
O O3 0.513202 0.299035 0.603357
O O4 0.325980 0.360600 0.025975
O O5 0.740711 0.649474 0.721395
O O6 0.744439 0.659070 0.463748
O O7 0.785363 0.763656 0.621534
O O8 0.611294 0.844940 0.772987
O O9 0.519002 0.763589 0.613731
O O10 0.352292 0.076293 0.615646
O O11 0.355988 0.201466 0.596673
O O12 0.824320 0.548466 0.369065
O O13 0.000000 0.493774 0.250000
O O14 0.000000 0.500000 0.500000
#
# Coordination Sequence:
#
# PCOD9453767 Si02
#       7
#     8   8   4   8   8   8   8
#     4  10  22  33  55  76 109 155 188 234 285 334
#     4   9  21  33  49  76 106 145 188 234 275 334
#     4  10  16  34  50  76 106 154 174 222 274 334
#     4  12  20  37  52  79 117 147 185 236 277 336
#     4  12  23  33  53  80 112 157 191 214 271 358
#     4  11  19  37  50  77 114 154 188 221 278 342
#     4   9  20  31  53  75 109 147 186 229 284 334
#
# _framework density 20.972480000000001
#
# number of rings (size 3 to 8) (size 9 to 14) (size 15 to 20)
#    0.923    0.615    2.308    6.000    0.000    0.000 
#    0.000    0.000    0.000    0.000    0.000    0.000 
#    0.000   30.769    0.308    0.000    0.000    0.000 
#
# Total GULP energy -290351.527410 kJ/mol
# GULP energy per Si atom -5583.683219 kJ/mol
# Density = 2.092475 g / cm^3
# Si number density = 20.972480 Si / 1000 Ang^3
#
#
#
# Elastic Constant Matrix: (Units=GPa)
#
#
# Indices 1 2 3 4 5 6 
#
# 1 46.2275 23.6132 14.8221 0.0000 0.0000 0.0000
# 2 23.6132 99.1444 33.6297 0.0000 0.0000 0.0000
# 3 14.8221 33.6297 147.0050 0.0000 0.0000 0.0000
# 4 0.0000 0.0000 0.0000 19.9339 0.0000 0.0000
# 5 0.0000 0.0000 0.0000 0.0000 20.7964 0.0000
# 6 0.0000 0.0000 0.0000 0.0000 0.0000 33.5392
#
#
#
# Elastic Compliance Matrix: (Units=1/GPa)
#
#
# Indices 1 2 3 4 5 6 
#
# 1 0.024838 -0.005492 -0.001248 0.000000 0.000000 0.000000
# 2 -0.005492 0.012149 -0.002226 0.000000 0.000000 0.000000
# 3 -0.001248 -0.002226 0.007437 0.000000 0.000000 0.000000
# 4 0.000000 0.000000 0.000000 0.050166 0.000000 0.000000
# 5 0.000000 0.000000 0.000000 0.000000 0.048085 0.000000
# 6 0.000000 0.000000 0.000000 0.000000 0.000000 0.029816
#
#
# Mechanical properties :
#
#
# Convention : Reuss Voigt Hill
#
# Bulk Modulus (GPa) = 37.74583 48.50077 43.12330
# Shear Modulus (GPa) = 25.09362 29.54138 27.31750
#
# Velocity S-wave (km/s) = 3.46280 3.75717 3.61299
# Velocity P-wave (km/s) = 5.83308 6.48058 6.16534
#
# Compressibility (1/GPa) = 0.02649299
#
# Stress axis : x y z
#
# Youngs Moduli (GPa) = 40.26127 82.30920 134.45483
#
# Poissons Ratio (x) = 0.45207 0.16778
# Poissons Ratio (y) = 0.22113 0.29924
# Poissons Ratio (z) = 0.05024 0.18318
#
# Static dielectric constant tensor:
#      x y z
#    x 1.792660 0.000000 0.000000 
#    y 0.000000 1.738610 0.000000 
#    z 0.000000 0.000000 1.796140 
# 
# From -- ./inp_files/6100.got.cif
#   From: 2010.05.17/outbox.cif.g08.bks.cpg/sg60_4_cif.got.tgz:6100.got - 2010.06.03 14:59:27.
