data_PCOD9453689
_publ_section_title
;
Structure prediction by ZEFSAII (Michael W. Deem and Ramdas Pophale) SiO2 
 PCOD9453689
Probable space group: P M M N
;
_chemical_formula_sum "Si O2"
_cell_formula_units_Z 40
_cell_length_a 27.000000
_cell_length_b 9.000000
_cell_length_c 9.000000
_cell_angle_alpha 90.000000
_cell_angle_beta 90.000000
_cell_angle_gamma 90.000000
_cell_volume 2187.000000
_symmetry_space_group_name_H-M "P M M N"
_symmetry_group_IT_number 59
_space_group.IT_coordinate_system_code '2'
_symmetry_cell_setting 'orthorhombic'
loop_
_space_group_symop_operation_xyz
x,y,z
1/2-x,1/2-y,z
1/2+x,-y,-z
-x,1/2+y,-z
-x,-y,-z
1/2+x,1/2+y,-z
1/2-x,y,z
x,1/2-y,z
loop_
_atom_site_type_symbol
_atom_site_label
_atom_site_fract_x
_atom_site_fract_y
_atom_site_fract_z
Si Si1 0.356219 0.070087 0.417745
Si Si2 0.250000 0.423491 0.428831
Si Si3 0.641105 0.568970 0.931124
Si Si4 0.250000 0.423041 0.066837
Si Si5 0.544905 0.569862 0.408924
Si Si6 0.953675 0.428607 0.085482
O O1 0.352890 0.250000 0.423071
O O2 0.302987 0.010767 0.473261
O O3 0.363092 0.034489 0.244348
O O4 0.403576 0.027933 0.511795
O O5 0.250000 0.250000 0.474999
O O6 0.250000 0.425334 0.247789
O O7 0.637533 0.750000 0.948034
O O8 0.696332 0.518627 0.980931
O O9 0.597159 0.487060 0.013625
O O10 0.250000 0.250000 0.023698
O O11 0.500000 0.500000 0.500000
O O12 0.541354 0.750000 0.402027
O O13 0.544164 0.495788 0.249126
O O14 0.956596 0.250000 0.084028
O O15 0.000000 0.500000 0.000000
#
# Coordination Sequence:
#
# PCOD9453689 Si02
#       6
#     8   4   8   4   8   8
#     4   8  15  28  52  81 108 135 170 214 260 308
#     4   7  10  22  45  77 108 134 166 209 254 301
#     4   9  16  32  57  85 112 141 178 222 268 321
#     4   7  12  24  50  83 112 140 174 215 262 315
#     4  11  22  37  56  81 110 142 178 221 271 328
#     4  12  25  40  56  77 105 142 184 231 283 335
#
# _framework density 18.289895000000001
#
# number of rings (size 3 to 8) (size 9 to 14) (size 15 to 20)
#    0.000    2.600    0.000    6.000    0.000    1.600 
#    0.000    2.500    0.000    3.600    0.000    4.900 
#    0.000    0.000    0.000    0.000    0.000    0.000 
#
# Total GULP energy -222873.181822 kJ/mol
# GULP energy per Si atom -5571.829546 kJ/mol
# Density = 1.824827 g / cm^3
# Si number density = 18.289895 Si / 1000 Ang^3
#
#
#
# Elastic Constant Matrix: (Units=GPa)
#
#
# Indices 1 2 3 4 5 6 
#
# 1 236.9299 66.3167 105.9989 0.0000 0.0000 0.0000
# 2 66.3167 78.0310 39.2085 0.0000 0.0000 0.0000
# 3 105.9989 39.2085 93.9844 0.0000 0.0000 0.0000
# 4 0.0000 0.0000 0.0000 22.9425 0.0000 0.0000
# 5 0.0000 0.0000 0.0000 0.0000 27.1910 0.0000
# 6 0.0000 0.0000 0.0000 0.0000 0.0000 27.8111
#
#
#
# Elastic Compliance Matrix: (Units=1/GPa)
#
#
# Indices 1 2 3 4 5 6 
#
# 1 0.009135 -0.003273 -0.008938 0.000000 0.000000 0.000000
# 2 -0.003273 0.017387 -0.003562 0.000000 0.000000 0.000000
# 3 -0.008938 -0.003562 0.022206 0.000000 0.000000 0.000000
# 4 0.000000 0.000000 0.000000 0.043587 0.000000 0.000000
# 5 0.000000 0.000000 0.000000 0.000000 0.036777 0.000000
# 6 0.000000 0.000000 0.000000 0.000000 0.000000 0.035957
#
#
# Mechanical properties :
#
#
# Convention : Reuss Voigt Hill
#
# Bulk Modulus (GPa) = 58.19706 92.44372 75.32039
# Shear Modulus (GPa) = 24.71294 28.75034 26.73164
#
# Velocity S-wave (km/s) = 3.67983 3.96905 3.82717
# Velocity P-wave (km/s) = 7.06705 8.46509 7.79747
#
# Compressibility (1/GPa) = 0.01718300
#
# Stress axis : x y z
#
# Youngs Moduli (GPa) = 109.46436 57.51463 45.03189
#
# Poissons Ratio (x) = 0.18824 0.40249
# Poissons Ratio (y) = 0.35827 0.16041
# Poissons Ratio (z) = 0.97837 0.20487
#
# Static dielectric constant tensor:
#      x y z
#    x 1.694960 0.000000 0.000000 
#    y 0.000000 1.610680 0.000000 
#    z 0.000000 0.000000 2.339900 
# 
# From -- ./inp_files/5954.got.cif
#   From: 2010.05.17/outbox.ucp.g08.bks.cvg/sg59_3_cif.got.tgz:5954.got - 2010.06.11 16:43:56.
