data_PCOD9453358
_publ_section_title
;
Structure prediction by ZEFSAII (Michael W. Deem and Ramdas Pophale) SiO2 
 PCOD9453358
Probable space group: P M M N
;
_chemical_formula_sum "Si O2"
_cell_formula_units_Z 64
_cell_length_a 18.000000
_cell_length_b 15.000000
_cell_length_c 12.000000
_cell_angle_alpha 90.000000
_cell_angle_beta 90.000000
_cell_angle_gamma 90.000000
_cell_volume 3240.000000
_symmetry_space_group_name_H-M "P M M N"
_symmetry_group_IT_number 59
_space_group.IT_coordinate_system_code '2'
_symmetry_cell_setting 'orthorhombic'
loop_
_space_group_symop_operation_xyz
x,y,z
1/2-x,1/2-y,z
1/2+x,-y,-z
-x,1/2+y,-z
-x,-y,-z
1/2+x,1/2+y,-z
1/2-x,y,z
x,1/2-y,z
loop_
_atom_site_type_symbol
_atom_site_label
_atom_site_fract_x
_atom_site_fract_y
_atom_site_fract_z
Si Si1 0.553422 0.143929 0.788573
Si Si2 0.831408 0.855718 0.991771
Si Si3 0.553701 0.851632 0.817605
Si Si4 0.667572 0.529425 0.442646
Si Si5 0.893091 0.555796 0.197928
Si Si6 0.438562 0.576629 0.973565
Si Si7 0.955554 0.644483 0.567057
Si Si8 0.115515 0.853584 0.450083
O O1 0.535268 0.250000 0.788897
O O2 0.477799 0.086071 0.776542
O O3 0.605670 0.128601 0.681933
O O4 0.586105 0.116761 0.909215
O O5 0.750000 0.894929 0.985552
O O6 0.828368 0.750000 0.973611
O O7 0.862597 0.868490 0.115505
O O8 0.881943 0.894766 0.892709
O O9 0.575041 0.750000 0.796647
O O10 0.483475 0.853261 0.898979
O O11 0.537504 0.888247 0.695298
O O12 0.750000 0.564644 0.462841
O O13 0.648277 0.537689 0.312234
O O14 0.606827 0.586911 0.507817
O O15 0.662652 0.428376 0.487737
O O16 0.885740 0.471332 0.114698
O O17 0.500000 0.500000 0.000000
O O18 0.937100 0.750000 0.562612
O O19 0.033492 0.635955 0.503896
O O20 0.138570 0.750000 0.465361
#
# Coordination Sequence:
#
# PCOD9453358 Si02
#       8
#     8   8   8   8   8   8   8   8
#     4  10  19  34  60  89 114 144 190 249 302 345
#     4  10  20  33  50  73 109 155 192 226 277 351
#     4  10  19  33  52  77 112 149 188 231 281 342
#     4  12  26  40  60  87 123 165 201 248 302 361
#     4  11  21  35  55  83 115 151 189 234 293 358
#     4  10  19  29  53  86 110 141 178 237 293 337
#     4  10  22  38  61  90 121 159 202 249 300 356
#     4  10  22  41  65  88 113 156 208 257 299 344
#
# _framework density 19.753086
#
# number of rings (size 3 to 8) (size 9 to 14) (size 15 to 20)
#    0.000    1.625    3.750    2.250    3.500    1.500 
#    0.000    1.875    0.000    0.750    0.000    0.000 
#    0.000    0.000    0.000    0.000    0.000    0.000 
#
# Total GULP energy -356688.774368 kJ/mol
# GULP energy per Si atom -5573.262100 kJ/mol
# Density = 1.970813 g / cm^3
# Si number density = 19.753086 Si / 1000 Ang^3
#
#
#
# Elastic Constant Matrix: (Units=GPa)
#
#
# Indices 1 2 3 4 5 6 
#
# 1 26.3069 15.3114 10.7811 0.0000 0.0000 0.0000
# 2 15.3114 40.9588 18.9288 0.0000 0.0000 0.0000
# 3 10.7811 18.9288 149.0668 0.0000 0.0000 0.0000
# 4 0.0000 0.0000 0.0000 32.2723 0.0000 0.0000
# 5 0.0000 0.0000 0.0000 0.0000 -1.8071 0.0000
# 6 0.0000 0.0000 0.0000 0.0000 0.0000 -5.4786
#
#
#
# Elastic Compliance Matrix: (Units=1/GPa)
#
#
# Indices 1 2 3 4 5 6 
#
# 1 0.048815 -0.017653 -0.001289 0.000000 0.000000 0.000000
# 2 -0.017653 0.032320 -0.002827 0.000000 0.000000 0.000000
# 3 -0.001289 -0.002827 0.007161 0.000000 0.000000 0.000000
# 4 0.000000 0.000000 0.000000 0.030986 0.000000 0.000000
# 5 0.000000 0.000000 0.000000 0.000000 -0.553383 0.000000
# 6 0.000000 0.000000 0.000000 0.000000 0.000000 -0.182530
#
#
# Mechanical properties :
#
#
# Convention : Reuss Voigt Hill
#
# Bulk Modulus (GPa) = 22.34216 34.04167 28.19192
# Shear Modulus (GPa) = -8.95780 16.41810 3.73015
#
# Velocity S-wave (km/s) = -2.13184 2.88612 1.37568
# Velocity P-wave (km/s) = 2.29687 5.32703 4.10201
#
# Compressibility (1/GPa) = 0.04475842
#
# Stress axis : x y z
#
# Youngs Moduli (GPa) = 20.48535 30.94021 139.65212
#
# Poissons Ratio (x) = 0.54618 0.18001
# Poissons Ratio (y) = 0.36162 0.39485
# Poissons Ratio (z) = 0.02640 0.08748
#
# Static dielectric constant tensor:
#      x y z
#    x 1.719360 0.000000 0.000000 
#    y 0.000000 1.765240 0.000000 
#    z 0.000000 0.000000 1.715450 
# 
# From -- ./inp_files/17253.got.cif
#   From: 2010.05.17/outbox.ucp.g08.bks.cvg/sg59_9_cif.got.tgz:17253.got - 2010.06.11 16:43:56.
