data_PCOD9453491
_publ_section_title
;
Structure prediction by ZEFSAII (Michael W. Deem and Ramdas Pophale) SiO2 
 PCOD9453491
Probable space group: P M M N
;
_chemical_formula_sum "Si O2"
_cell_formula_units_Z 48
_cell_length_a 15.000000
_cell_length_b 9.000000
_cell_length_c 18.000000
_cell_angle_alpha 90.000000
_cell_angle_beta 90.000000
_cell_angle_gamma 90.000000
_cell_volume 2430.000000
_symmetry_space_group_name_H-M "P M M N"
_symmetry_group_IT_number 59
_space_group.IT_coordinate_system_code '2'
_symmetry_cell_setting 'orthorhombic'
loop_
_space_group_symop_operation_xyz
x,y,z
1/2-x,1/2-y,z
1/2+x,-y,-z
-x,1/2+y,-z
-x,-y,-z
1/2+x,1/2+y,-z
1/2-x,y,z
x,1/2-y,z
loop_
_atom_site_type_symbol
_atom_site_label
_atom_site_fract_x
_atom_site_fract_y
_atom_site_fract_z
Si Si1 0.750000 0.070703 0.277750
Si Si2 0.417660 0.070750 0.459914
Si Si3 0.595823 0.427330 0.839151
Si Si4 0.901747 0.071253 0.999744
Si Si5 0.250000 0.428215 0.560612
Si Si6 0.400245 0.570688 0.838168
Si Si7 0.648797 0.580391 0.693134
O O1 0.750000 0.250000 0.282851
O O2 0.664209 0.026622 0.228641
O O3 0.750000 0.002750 0.359115
O O4 0.422324 0.250000 0.456853
O O5 0.334082 0.030216 0.510654
O O6 0.408708 0.019327 0.374755
O O7 0.500000 0.000000 0.500000
O O8 0.592511 0.250000 0.836331
O O9 0.636728 0.472029 0.919432
O O10 0.496067 0.493662 0.833917
O O11 0.645368 0.489069 0.767994
O O12 0.909244 0.250000 0.998703
O O13 0.860781 0.033544 0.079794
O O14 0.000000 0.000000 0.000000
O O15 0.250000 0.250000 0.570466
O O16 0.411097 0.750000 0.835165
O O17 0.750000 0.585929 0.664477
O O18 0.620949 0.750000 0.709986
#
# Coordination Sequence:
#
# PCOD9453491 Si02
#       7
#     4   8   8   8   4   8   8
#     4  10  22  36  54  81 110 144 188 229 268 322
#     4  10  22  41  64  87 111 147 187 227 279 340
#     4  10  20  33  54  85 113 142 183 230 279 326
#     4   8  15  30  51  75 104 142 182 224 271 320
#     4  10  22  42  62  83 116 148 180 229 288 340
#     4   9  18  35  55  77 108 149 191 228 269 325
#     4  10  21  40  61  80 110 149 185 222 271 333
#
# _framework density 19.753086
#
# number of rings (size 3 to 8) (size 9 to 14) (size 15 to 20)
#    0.000    2.500    0.833    0.500    2.333    3.000 
#    1.500    0.000    0.000    0.000    0.000    0.000 
#    0.000    0.000    0.000    0.000    0.000    0.000 
#
# Total GULP energy -267503.957765 kJ/mol
# GULP energy per Si atom -5572.999120 kJ/mol
# Density = 1.970813 g / cm^3
# Si number density = 19.753086 Si / 1000 Ang^3
#
#
#
# Elastic Constant Matrix: (Units=GPa)
#
#
# Indices 1 2 3 4 5 6 
#
# 1 73.5331 15.5750 37.4159 0.0000 0.0000 0.0000
# 2 15.5750 8.6947 32.7516 0.0000 0.0000 0.0000
# 3 37.4159 32.7516 156.6677 0.0000 0.0000 0.0000
# 4 0.0000 0.0000 0.0000 33.7227 0.0000 0.0000
# 5 0.0000 0.0000 0.0000 0.0000 13.3661 0.0000
# 6 0.0000 0.0000 0.0000 0.0000 0.0000 17.3391
#
#
#
# Elastic Compliance Matrix: (Units=1/GPa)
#
#
# Indices 1 2 3 4 5 6 
#
# 1 0.031184 -0.130836 0.019904 0.000000 0.000000 0.000000
# 2 -0.130836 1.090096 -0.196639 0.000000 0.000000 0.000000
# 3 0.019904 -0.196639 0.042737 0.000000 0.000000 0.000000
# 4 0.000000 0.000000 0.000000 0.029654 0.000000 0.000000
# 5 0.000000 0.000000 0.000000 0.000000 0.074816 0.000000
# 6 0.000000 0.000000 0.000000 0.000000 0.000000 0.057673
#
#
# Mechanical properties :
#
#
# Convention : Reuss Voigt Hill
#
# Bulk Modulus (GPa) = 1.82191 45.59782 23.70987
# Shear Modulus (GPa) = 2.35376 23.09580 12.72478
#
# Velocity S-wave (km/s) = 1.09278 3.42310 2.54085
# Velocity P-wave (km/s) = 1.58637 6.22555 4.54280
#
# Compressibility (1/GPa) = 0.54887459
#
# Stress axis : x y z
#
# Youngs Moduli (GPa) = 32.06797 0.91735 23.39888
#
# Poissons Ratio (x) = 0.12002 -0.46573
# Poissons Ratio (y) = 4.19565 4.60114
# Poissons Ratio (z) = -0.63828 0.18039
#
# Static dielectric constant tensor:
#      x y z
#    x 1.694300 0.000000 0.000000 
#    y 0.000000 1.663200 0.000000 
#    z 0.000000 0.000000 1.717980 
# 
# From -- ./inp_files/23750.got.cif
#   From: 2010.05.17/outbox.ucp.g08.bks.cvg/sg59_12_cif.got.tgz:23750.got - 2010.06.11 16:43:56.
