data_PCOD9453082
_publ_section_title
;
Structure prediction by ZEFSAII (Michael W. Deem and Ramdas Pophale) SiO2 
 PCOD9453082
Probable space group: P M M N
;
_chemical_formula_sum "Si O2"
_cell_formula_units_Z 64
_cell_length_a 18.716327
_cell_length_b 9.241447
_cell_length_c 21.168762
_cell_angle_alpha 90.000000
_cell_angle_beta 90.000000
_cell_angle_gamma 90.000000
_cell_volume 3661.474903
_symmetry_space_group_name_H-M "P M M N"
_symmetry_group_IT_number 59
_space_group.IT_coordinate_system_code '2'
_symmetry_cell_setting 'orthorhombic'
loop_
_space_group_symop_operation_xyz
x,y,z
1/2-x,1/2-y,z
1/2+x,-y,-z
-x,1/2+y,-z
-x,-y,-z
1/2+x,1/2+y,-z
1/2-x,y,z
x,1/2-y,z
loop_
_atom_site_type_symbol
_atom_site_label
_atom_site_fract_x
_atom_site_fract_y
_atom_site_fract_z
Si Si1 0.665022 0.420736 0.428287
Si Si2 0.832139 0.573979 0.804307
Si Si3 0.337109 0.916092 0.931535
Si Si4 0.335081 0.920461 0.424606
Si Si5 0.833456 0.922742 0.195642
Si Si6 0.424028 0.076043 0.317635
Si Si7 0.837114 0.582867 0.943661
Si Si8 0.576709 0.576720 0.320845
O O1 0.750000 0.443360 0.419715
O O2 0.650736 0.250000 0.416858
O O3 0.648261 0.450539 0.501838
O O4 0.620840 0.517899 0.380500
O O5 0.750000 0.526039 0.794295
O O6 0.830520 0.750000 0.806700
O O7 0.881964 0.532697 0.746297
O O8 0.857785 0.527150 0.874013
O O9 0.250000 0.920378 0.932461
O O10 0.359525 0.750000 0.929392
O O11 0.358761 0.998782 0.867968
O O12 0.361302 0.991867 0.996162
O O13 0.250000 0.941525 0.416109
O O14 0.350175 0.750000 0.413088
O O15 0.378741 0.019103 0.376993
O O16 0.750000 0.961149 0.206541
O O17 0.836494 0.750000 0.185759
O O18 0.879367 0.958785 0.257109
O O19 0.429992 0.250000 0.319111
O O20 0.500836 0.001679 0.318913
O O21 0.750000 0.582246 0.943068
O O22 0.859279 0.750000 0.950791
O O23 0.568632 0.750000 0.324420
#
# Coordination Sequence:
#
# PCOD9453082 Si02
#       8
#     8   8   8   8   8   8   8   8
#     4   9  19  37  60  83 106 133 167 209 257 308
#     4   8  15  29  50  75 100 129 169 213 254 300
#     4   9  16  25  41  70 103 128 155 199 252 301
#     4   9  19  37  59  82 108 136 167 207 256 308
#     4   9  18  33  52  72  95 128 169 209 252 305
#     4  11  22  35  53  77 106 140 177 216 256 302
#     4   8  13  24  44  68  95 127 161 200 248 300
#     4  11  23  37  53  75 105 139 175 215 257 305
#
# _framework density 17.479295
#
# number of rings (size 3 to 8) (size 9 to 14) (size 15 to 20)
#    0.000    2.750    0.000    3.375    0.000    5.000 
#    0.000    3.750    0.000    3.750    0.000    0.000 
#    0.000    0.000    0.000    0.000    0.000    0.000 
#
# Total GULP energy -356871.867706 kJ/mol
# GULP energy per Si atom -5576.122933 kJ/mol
# Density = 1.743951 g / cm^3
# Si number density = 17.479295 Si / 1000 Ang^3
#
#
#
# Elastic Constant Matrix: (Units=GPa)
#
#
# Indices 1 2 3 4 5 6 
#
# 1 58.3152 49.0520 75.0235 0.0000 0.0000 0.0000
# 2 49.0520 67.9118 83.9201 0.0000 0.0000 0.0000
# 3 75.0235 83.9201 164.8426 0.0000 0.0000 0.0000
# 4 0.0000 0.0000 0.0000 19.8731 0.0000 0.0000
# 5 0.0000 0.0000 0.0000 0.0000 -6.7832 0.0000
# 6 0.0000 0.0000 0.0000 0.0000 0.0000 12.8035
#
#
#
# Elastic Compliance Matrix: (Units=1/GPa)
#
#
# Indices 1 2 3 4 5 6 
#
# 1 0.051309 -0.022118 -0.012092 0.000000 0.000000 0.000000
# 2 -0.022118 0.049235 -0.014999 0.000000 0.000000 0.000000
# 3 -0.012092 -0.014999 0.019205 0.000000 0.000000 0.000000
# 4 0.000000 0.000000 0.000000 0.050319 0.000000 0.000000
# 5 0.000000 0.000000 0.000000 0.000000 -0.147424 0.000000
# 6 0.000000 0.000000 0.000000 0.000000 0.000000 0.078104
#
#
# Mechanical properties :
#
#
# Convention : Reuss Voigt Hill
#
# Bulk Modulus (GPa) = 46.87716 78.56232 62.71974
# Shear Modulus (GPa) = 24.23932 10.71693 17.47813
#
# Velocity S-wave (km/s) = 3.72794 2.47882 3.16560
# Velocity P-wave (km/s) = 6.73847 7.29631 7.02293
#
# Compressibility (1/GPa) = 0.02133235
#
# Stress axis : x y z
#
# Youngs Moduli (GPa) = 19.48972 20.31089 52.06878
#
# Poissons Ratio (x) = 0.44923 0.62961
# Poissons Ratio (y) = 0.43107 0.78096
# Poissons Ratio (z) = 0.23567 0.30464
#
# Static dielectric constant tensor:
#      x y z
#    x 1.573960 0.000000 0.000000 
#    y 0.000000 1.581340 0.000000 
#    z 0.000000 0.000000 1.590600 
# 
# From -- ./inp_files/30899.got.cif
#   From: 2010.05.17/outbox.cif.g08.bks.cpg/sg59_16_cif.got.tgz:30899.got - 2010.06.03 14:40:33.
