data_PCOD9453107
_publ_section_title
;
Structure prediction by ZEFSAII (Michael W. Deem and Ramdas Pophale) SiO2 
 PCOD9453107
Probable space group: P M M N
;
_chemical_formula_sum "Si O2"
_cell_formula_units_Z 40
_cell_length_a 8.557107
_cell_length_b 26.099938
_cell_length_c 9.325663
_cell_angle_alpha 90.000000
_cell_angle_beta 90.000000
_cell_angle_gamma 90.000000
_cell_volume 2082.793222
_symmetry_space_group_name_H-M "P M M N"
_symmetry_group_IT_number 59
_space_group.IT_coordinate_system_code '2'
_symmetry_cell_setting 'orthorhombic'
loop_
_space_group_symop_operation_xyz
x,y,z
1/2-x,1/2-y,z
1/2+x,-y,-z
-x,1/2+y,-z
-x,-y,-z
1/2+x,1/2+y,-z
1/2-x,y,z
x,1/2-y,z
loop_
_atom_site_type_symbol
_atom_site_label
_atom_site_fract_x
_atom_site_fract_y
_atom_site_fract_z
Si Si1 0.437212 0.093049 0.832574
Si Si2 0.559999 0.692400 0.341669
Si Si3 0.565527 0.096996 0.151186
Si Si4 0.562319 0.690384 0.673585
Si Si5 0.935913 0.995938 0.660812
O O1 0.250000 0.088897 0.815957
O O2 0.489779 0.147024 0.762798
O O3 0.515972 0.046537 0.748083
O O4 0.480943 0.091194 0.998930
O O5 0.750000 0.693585 0.338768
O O6 0.506198 0.750000 0.304069
O O7 0.516994 0.681443 0.507112
O O8 0.750000 0.092581 0.129476
O O9 0.522029 0.151103 0.222697
O O10 0.508385 0.052742 0.258344
O O11 0.750000 0.682782 0.684381
O O12 0.530484 0.750000 0.706177
O O13 0.750000 0.990451 0.657353
O O14 0.000000 0.000000 0.500000
#
# Coordination Sequence:
#
# PCOD9453107 Si02
#       5
#     8   8   8   8   8
#     4  11  22  38  61  89 121 157 198 245 297 352
#     4   8  16  33  59  88 115 147 191 240 288 344
#     4  12  25  40  58  85 122 160 199 246 300 353
#     4   9  18  36  62  89 117 153 199 249 300 355
#     4  12  25  43  65  89 117 151 195 244 298 358
#
# _framework density 19.204979999999999
#
# number of rings (size 3 to 8) (size 9 to 14) (size 15 to 20)
#    0.000    1.600    0.000    7.200    0.000    2.800 
#    0.000    3.000    0.000    4.200    0.000    0.000 
#    0.000    0.000    0.000    0.000    0.000    0.000 
#
# Total GULP energy -223631.551673 kJ/mol
# GULP energy per Si atom -5590.788792 kJ/mol
# Density = 1.916127 g / cm^3
# Si number density = 19.204980 Si / 1000 Ang^3
#
#
#
# Elastic Constant Matrix: (Units=GPa)
#
#
# Indices 1 2 3 4 5 6 
#
# 1 19.6016 -9.3829 -32.1808 0.0000 0.0000 0.0000
# 2 -9.3829 63.6608 26.4990 0.0000 0.0000 0.0000
# 3 -32.1808 26.4990 68.9396 0.0000 0.0000 0.0000
# 4 0.0000 0.0000 0.0000-2841.6754 0.0000 0.0000
# 5 0.0000 0.0000 0.0000 0.0000 28.8486 0.0000
# 6 0.0000 0.0000 0.0000 0.0000 0.0000 31.9529
#
#
#
# Elastic Compliance Matrix: (Units=1/GPa)
#
#
# Indices 1 2 3 4 5 6 
#
# 1 0.226610 -0.012657 0.110646 0.000000 0.000000 0.000000
# 2 -0.012657 0.019407 -0.013368 0.000000 0.000000 0.000000
# 3 0.110646 -0.013368 0.071293 0.000000 0.000000 0.000000
# 4 0.000000 0.000000 0.000000 -0.000352 0.000000 0.000000
# 5 0.000000 0.000000 0.000000 0.000000 0.034664 0.000000
# 6 0.000000 0.000000 0.000000 0.000000 0.000000 0.031296
#
#
# Mechanical properties :
#
#
# Convention : Reuss Voigt Hill
#
# Bulk Modulus (GPa) = 2.05527 13.56362 7.80945
# Shear Modulus (GPa) = 13.30280 -545.02367 -265.86043
#
# Velocity S-wave (km/s) = 2.63473 -16.86443 -11.77852
# Velocity P-wave (km/s) = 3.21375 19.29078 13.45002
#
# Compressibility (1/GPa) = 0.48655334
#
# Stress axis : x y z
#
# Youngs Moduli (GPa) = 4.41286 51.52718 14.02660
#
# Poissons Ratio (x) = 0.65218 -1.55199
# Poissons Ratio (y) = 0.05585 0.18751
# Poissons Ratio (z) = -0.48827 0.68881
#
# Static dielectric constant tensor:
#      x y z
#    x 1.657860 0.000000 0.000000 
#    y 0.000000 1.655130 0.000000 
#    z 0.000000 0.000000 1.606260 
# 
# From -- ./inp_files/5636.got.cif
#   From: 2010.05.17/outbox.cif.g08.bks.cpg/sg59_3_cif.got.tgz:5636.got - 2010.06.03 14:40:33.
