data_PCOD9453924
_publ_section_title
;
Structure prediction by ZEFSAII (Michael W. Deem and Ramdas Pophale) SiO2 
 PCOD9453924
Probable space group: P B C N
;
_chemical_formula_sum "Si O2"
_cell_formula_units_Z 56
_cell_length_a 9.136049
_cell_length_b 18.169095
_cell_length_c 17.765972
_cell_angle_alpha 90.000000
_cell_angle_beta 90.000000
_cell_angle_gamma 90.000000
_cell_volume 2949.040176
_symmetry_space_group_name_H-M "P B C N"
_symmetry_group_IT_number 60
_symmetry_cell_setting 'orthorhombic'
loop_
_space_group_symop_operation_xyz
x,y,z
1/2-x,1/2-y,1/2+z
1/2+x,1/2-y,-z
-x,y,1/2-z
-x,-y,-z
1/2+x,1/2+y,1/2-z
1/2-x,1/2+y,z
x,-y,1/2+z
loop_
_atom_site_type_symbol
_atom_site_label
_atom_site_fract_x
_atom_site_fract_y
_atom_site_fract_z
Si Si1 0.782150 0.790446 0.452303
Si Si2 0.954243 0.105218 0.555379
Si Si3 0.947102 0.331751 0.333056
Si Si4 0.174070 0.014094 0.076158
Si Si5 0.343914 0.154046 0.954402
Si Si6 0.454431 0.988311 0.666018
Si Si7 0.385086 0.083373 0.470438
O O1 0.703604 0.805372 0.371985
O O2 0.789047 0.707240 0.479739
O O3 0.693210 0.837754 0.515685
O O4 0.944825 0.823460 0.449019
O O5 0.794375 0.119593 0.587536
O O6 0.049683 0.044401 0.598795
O O7 0.912915 0.074801 0.471881
O O8 0.000000 0.310906 0.250000
O O9 0.064950 0.302007 0.392761
O O10 0.950770 0.421742 0.336935
O O11 0.290730 0.035951 0.139636
O O12 0.275413 0.969278 0.016235
O O13 0.457803 0.096187 0.989547
O O14 0.500000 0.967813 0.750000
O O15 0.571133 0.951021 0.609164
#
# Coordination Sequence:
#
# PCOD9453924 Si02
#       7
#     8   8   8   8   8   8   8
#     4  10  21  35  56  85 109 150 199 232 277 351
#     4  10  18  29  54  83 111 128 188 248 282 313
#     4  10  21  38  59  82 115 151 192 239 294 352
#     4  10  18  32  54  82 107 143 179 243 293 331
#     4  11  19  34  60  80 106 154 202 230 276 345
#     4  11  19  33  58  83 111 149 189 233 295 357
#     4  10  19  35  55  80 109 144 199 227 276 353
#
# _framework density 18.989229999999999
#
# number of rings (size 3 to 8) (size 9 to 14) (size 15 to 20)
#    0.000    1.714    5.714    3.000    0.000    0.000 
#    0.000    2.143    3.143    6.000    0.000    0.000 
#    0.000    0.000    0.000    0.000    0.000    0.000 
#
# Total GULP energy -311767.570014 kJ/mol
# GULP energy per Si atom -5567.278036 kJ/mol
# Density = 1.894601 g / cm^3
# Si number density = 18.989230 Si / 1000 Ang^3
#
#
#
# Elastic Constant Matrix: (Units=GPa)
#
#
# Indices 1 2 3 4 5 6 
#
# 1 121.4892 10.5354 28.4074 0.0000 0.0000 0.0000
# 2 10.5354 23.9898 11.0357 0.0000 0.0000 0.0000
# 3 28.4074 11.0357 117.3421 0.0000 0.0000 0.0000
# 4 0.0000 0.0000 0.0000 18.7520 0.0000 0.0000
# 5 0.0000 0.0000 0.0000 0.0000 22.9874 0.0000
# 6 0.0000 0.0000 0.0000 0.0000 0.0000 24.2833
#
#
#
# Elastic Compliance Matrix: (Units=1/GPa)
#
#
# Indices 1 2 3 4 5 6 
#
# 1 0.008935 -0.003061 -0.001875 0.000000 0.000000 0.000000
# 2 -0.003061 0.044618 -0.003455 0.000000 0.000000 0.000000
# 3 -0.001875 -0.003455 0.009301 0.000000 0.000000 0.000000
# 4 0.000000 0.000000 0.000000 0.053328 0.000000 0.000000
# 5 0.000000 0.000000 0.000000 0.000000 0.043502 0.000000
# 6 0.000000 0.000000 0.000000 0.000000 0.000000 0.041181
#
#
# Mechanical properties :
#
#
# Convention : Reuss Voigt Hill
#
# Bulk Modulus (GPa) = 21.70561 40.30869 31.00715
# Shear Modulus (GPa) = 21.45877 27.39404 24.42640
#
# Velocity S-wave (km/s) = 3.36527 3.80229 3.59043
# Velocity P-wave (km/s) = 5.15319 6.36787 5.79246
#
# Compressibility (1/GPa) = 0.04607104
#
# Stress axis : x y z
#
# Youngs Moduli (GPa) = 111.91772 22.41237 107.51531
#
# Poissons Ratio (x) = 0.06861 0.20161
# Poissons Ratio (y) = 0.34262 0.37148
# Poissons Ratio (z) = 0.20987 0.07744
#
# Static dielectric constant tensor:
#      x y z
#    x 1.719920 0.000000 0.000000 
#    y 0.000000 1.717150 0.000000 
#    z 0.000000 0.000000 1.666620 
# 
# From -- ./inp_files/19621.got.cif
#   From: 2010.05.17/outbox.cif.g08.bks.cpg/sg60_10_cif.got.tgz:19621.got - 2010.06.03 14:59:27.
