data_PCOD9453881
_publ_section_title
;
Structure prediction by ZEFSAII (Michael W. Deem and Ramdas Pophale) SiO2 
 PCOD9453881
Probable space group: P B C N
;
_chemical_formula_sum "Si O2"
_cell_formula_units_Z 52
_cell_length_a 13.922890
_cell_length_b 11.078427
_cell_length_c 17.808205
_cell_angle_alpha 90.000000
_cell_angle_beta 90.000000
_cell_angle_gamma 90.000000
_cell_volume 2746.803795
_symmetry_space_group_name_H-M "P B C N"
_symmetry_group_IT_number 60
_symmetry_cell_setting 'orthorhombic'
loop_
_space_group_symop_operation_xyz
x,y,z
1/2-x,1/2-y,1/2+z
1/2+x,1/2-y,-z
-x,y,1/2-z
-x,-y,-z
1/2+x,1/2+y,1/2-z
1/2-x,1/2+y,z
x,-y,1/2+z
loop_
_atom_site_type_symbol
_atom_site_label
_atom_site_fract_x
_atom_site_fract_y
_atom_site_fract_z
Si Si1 0.152227 0.854260 0.261720
Si Si2 0.105428 0.649825 0.378089
Si Si3 0.850425 0.609164 0.674420
Si Si4 0.500000 0.716253 0.250000
Si Si5 0.077738 0.813488 0.094554
Si Si6 0.037593 0.967988 0.868453
Si Si7 0.196599 0.196332 0.448369
O O1 0.142958 0.729755 0.307920
O O2 0.256028 0.912087 0.275788
O O3 0.124099 0.828220 0.176741
O O4 0.081661 0.944903 0.304828
O O5 0.097311 0.512936 0.350196
O O6 0.192363 0.658728 0.438339
O O7 0.006428 0.712204 0.404384
O O8 0.818410 0.681625 0.599738
O O9 0.914953 0.698903 0.722848
O O10 0.521723 0.632414 0.322321
O O11 0.157237 0.788335 0.032034
O O12 0.025509 0.942741 0.081153
O O13 0.125780 0.902823 0.910205
#
# Coordination Sequence:
#
# PCOD9453881 Si02
#       7
#     8   8   8   4   8   8   8
#     4  10  20  38  66  89 116 160 218 254 297 374
#     4  10  21  40  64  85 126 172 199 252 320 375
#     4  10  22  39  61  84 128 167 202 252 322 375
#     4  10  20  34  60  92 118 154 208 254 308 370
#     4  11  22  37  65  95 118 157 218 261 301 369
#     4  10  17  38  63  87 115 157 203 256 303 369
#     4  10  22  39  59  89 125 163 201 248 323 373
#
# _framework density 18.931093000000001
#
# number of rings (size 3 to 8) (size 9 to 14) (size 15 to 20)
#    0.000    1.846    3.077    1.846    2.154    0.615 
#    5.538    1.538    0.000    0.000    0.000    0.000 
#    0.000    0.000    0.000    0.000    0.000    0.000 
#
# Total GULP energy -290052.894009 kJ/mol
# GULP energy per Si atom -5577.940269 kJ/mol
# Density = 1.888801 g / cm^3
# Si number density = 18.931093 Si / 1000 Ang^3
#
#
#
# Elastic Constant Matrix: (Units=GPa)
#
#
# Indices 1 2 3 4 5 6 
#
# 1 65.8558 22.2816 51.4919 0.0000 0.0000 0.0000
# 2 22.2816 97.7068 19.7268 0.0000 0.0000 0.0000
# 3 51.4919 19.7268 106.2861 0.0000 0.0000 0.0000
# 4 0.0000 0.0000 0.0000 12.2798 0.0000 0.0000
# 5 0.0000 0.0000 0.0000 0.0000 26.4822 0.0000
# 6 0.0000 0.0000 0.0000 0.0000 0.0000 13.5709
#
#
#
# Elastic Compliance Matrix: (Units=1/GPa)
#
#
# Indices 1 2 3 4 5 6 
#
# 1 0.025518 -0.003453 -0.011722 0.000000 0.000000 0.000000
# 2 -0.003453 0.011100 -0.000388 0.000000 0.000000 0.000000
# 3 -0.011722 -0.000388 0.015159 0.000000 0.000000 0.000000
# 4 0.000000 0.000000 0.000000 0.081434 0.000000 0.000000
# 5 0.000000 0.000000 0.000000 0.000000 0.037761 0.000000
# 6 0.000000 0.000000 0.000000 0.000000 0.000000 0.073687
#
#
# Mechanical properties :
#
#
# Convention : Reuss Voigt Hill
#
# Bulk Modulus (GPa) = 48.41756 50.76104 49.58930
# Shear Modulus (GPa) = 17.68854 22.22313 19.95583
#
# Velocity S-wave (km/s) = 3.06005 3.42993 3.25026
# Velocity P-wave (km/s) = 6.17385 6.52363 6.35115
#
# Compressibility (1/GPa) = 0.02065366
#
# Stress axis : x y z
#
# Youngs Moduli (GPa) = 39.18802 90.08758 65.96615
#
# Poissons Ratio (x) = 0.31104 0.77324
# Poissons Ratio (y) = 0.13530 0.02556
# Poissons Ratio (z) = 0.45935 0.03491
#
# Static dielectric constant tensor:
#      x y z
#    x 1.700360 0.000000 0.000000 
#    y 0.000000 1.681380 0.000000 
#    z 0.000000 0.000000 1.650820 
# 
# From -- ./inp_files/20601.got.cif
#   From: 2010.05.17/outbox.cif.g08.bks.cpg/sg60_11_cif.got.tgz:20601.got - 2010.06.03 14:59:27.
