data_PCOD9453283
_publ_section_title
;
Structure prediction by ZEFSAII (Michael W. Deem and Ramdas Pophale) SiO2 
 PCOD9453283
Probable space group: P M M N
;
_chemical_formula_sum "Si O2"
_cell_formula_units_Z 56
_cell_length_a 9.480186
_cell_length_b 14.934968
_cell_length_c 18.990603
_cell_angle_alpha 90.000000
_cell_angle_beta 90.000000
_cell_angle_gamma 90.000000
_cell_volume 2688.808730
_symmetry_space_group_name_H-M "P M M N"
_symmetry_group_IT_number 59
_space_group.IT_coordinate_system_code '2'
_symmetry_cell_setting 'orthorhombic'
loop_
_space_group_symop_operation_xyz
x,y,z
1/2-x,1/2-y,z
1/2+x,-y,-z
-x,1/2+y,-z
-x,-y,-z
1/2+x,1/2+y,-z
1/2-x,y,z
x,1/2-y,z
loop_
_atom_site_type_symbol
_atom_site_label
_atom_site_fract_x
_atom_site_fract_y
_atom_site_fract_z
Si Si1 0.420628 0.095414 0.492550
Si Si2 0.089976 0.142814 0.064629
Si Si3 0.410453 0.857266 0.066437
Si Si4 0.410315 0.389519 0.647765
Si Si5 0.088330 0.392607 0.221942
Si Si6 0.413622 0.890992 0.643582
Si Si7 0.090287 0.606902 0.220972
O O1 0.250000 0.085321 0.484226
O O2 0.445927 0.140651 0.568449
O O3 0.492681 0.137008 0.423659
O O4 0.500000 0.000000 0.500000
O O5 0.250000 0.107528 0.062209
O O6 0.097276 0.250000 0.056960
O O7 0.034093 0.125810 0.143221
O O8 0.998237 0.108156 0.999818
O O9 0.250000 0.892371 0.065507
O O10 0.403011 0.750000 0.059689
O O11 0.473100 0.875515 0.143774
O O12 0.250000 0.363827 0.662652
O O13 0.414370 0.499199 0.645565
O O14 0.507973 0.358757 0.711245
O O15 0.250000 0.358184 0.227464
O O16 0.096455 0.499804 0.228713
O O17 0.988349 0.360124 0.284546
O O18 0.250000 0.864162 0.637772
O O19 0.250000 0.642201 0.220008
#
# Coordination Sequence:
#
# PCOD9453283 Si02
#       7
#     8   8   8   8   8   8   8
#     4   9  15  23  36  56  84 117 149 179 214 255
#     4   9  18  32  48  65  85 111 143 176 212 256
#     4   9  18  32  47  63  85 112 142 176 213 254
#     4   8  15  25  37  57  85 114 142 174 211 249
#     4   9  17  29  44  63  88 114 141 176 215 255
#     4   9  16  25  38  59  86 115 146 177 213 257
#     4   9  17  28  43  63  86 113 143 174 212 255
#
# _framework density 20.827068000000001
#
# number of rings (size 3 to 8) (size 9 to 14) (size 15 to 20)
#    0.000    3.143    0.000    1.714    0.000    5.714 
#    0.000    0.000    0.000    0.000    0.000    1.000 
#    0.000    1.143    0.000    0.000    0.000    0.000 
#
# Total GULP energy -312192.540498 kJ/mol
# GULP energy per Si atom -5574.866795 kJ/mol
# Density = 2.077966 g / cm^3
# Si number density = 20.827068 Si / 1000 Ang^3
#
#
#
# Elastic Constant Matrix: (Units=GPa)
#
#
# Indices 1 2 3 4 5 6 
#
# 1 104.1430 5.0336 122.6318 0.0000 0.0000 0.0000
# 2 5.0336 59.1747 1.5908 0.0000 0.0000 0.0000
# 3 122.6318 1.5908 249.3997 0.0000 0.0000 0.0000
# 4 0.0000 0.0000 0.0000 38.3191 0.0000 0.0000
# 5 0.0000 0.0000 0.0000 0.0000 39.7970 0.0000
# 6 0.0000 0.0000 0.0000 0.0000 0.0000 -13.3587
#
#
#
# Elastic Compliance Matrix: (Units=1/GPa)
#
#
# Indices 1 2 3 4 5 6 
#
# 1 0.022968 -0.001650 -0.011283 0.000000 0.000000 0.000000
# 2 -0.001650 0.017021 0.000703 0.000000 0.000000 0.000000
# 3 -0.011283 0.000703 0.009553 0.000000 0.000000 0.000000
# 4 0.000000 0.000000 0.000000 0.026097 0.000000 0.000000
# 5 0.000000 0.000000 0.000000 0.000000 0.025128 0.000000
# 6 0.000000 0.000000 0.000000 0.000000 0.000000 -0.074858
#
#
# Mechanical properties :
#
#
# Convention : Reuss Voigt Hill
#
# Bulk Modulus (GPa) = 39.87115 74.58106 57.22611
# Shear Modulus (GPa) = 85.13574 31.84890 58.49232
#
# Velocity S-wave (km/s) = 6.40048 3.91475 5.30525
# Velocity P-wave (km/s) = 8.59110 7.50474 8.06623
#
# Compressibility (1/GPa) = 0.02508079
#
# Stress axis : x y z
#
# Youngs Moduli (GPa) = 43.53849 58.75226 104.67765
#
# Poissons Ratio (x) = 0.09697 1.18109
# Poissons Ratio (y) = 0.07186 -0.07359
# Poissons Ratio (z) = 0.49125 -0.04130
#
# Static dielectric constant tensor:
#      x y z
#    x 1.729210 0.000000 0.000000 
#    y 0.000000 1.791640 0.000000 
#    z 0.000000 0.000000 1.753560 
# 
# From -- ./inp_files/26038.got.cif
#   From: 2010.05.17/outbox.cif.g08.bks.cpg/sg59_14_cif.got.tgz:26038.got - 2010.06.03 14:40:33.
