data_PCOD9453203
_publ_section_title
;
Structure prediction by ZEFSAII (Michael W. Deem and Ramdas Pophale) SiO2 
 PCOD9453203
Probable space group: P M M N
;
_chemical_formula_sum "Si O2"
_cell_formula_units_Z 64
_cell_length_a 7.290997
_cell_length_b 13.893737
_cell_length_c 24.381332
_cell_angle_alpha 90.000000
_cell_angle_beta 90.000000
_cell_angle_gamma 90.000000
_cell_volume 2469.809299
_symmetry_space_group_name_H-M "P M M N"
_symmetry_group_IT_number 59
_space_group.IT_coordinate_system_code '2'
_symmetry_cell_setting 'orthorhombic'
loop_
_space_group_symop_operation_xyz
x,y,z
1/2-x,1/2-y,z
1/2+x,-y,-z
-x,1/2+y,-z
-x,-y,-z
1/2+x,1/2+y,-z
1/2-x,y,z
x,1/2-y,z
loop_
_atom_site_type_symbol
_atom_site_label
_atom_site_fract_x
_atom_site_fract_y
_atom_site_fract_z
Si Si1 0.971121 0.865847 0.474159
Si Si2 0.966163 0.613007 0.008349
Si Si3 0.036543 0.857651 0.714572
Si Si4 0.474300 0.448513 0.757812
Si Si5 0.042071 0.852175 0.887170
Si Si6 0.525786 0.928825 0.124707
Si Si7 0.971360 0.863475 0.356538
Si Si8 0.529945 0.863460 0.591990
O O1 0.750000 0.874719 0.474190
O O2 0.007301 0.750000 0.474604
O O3 0.039260 0.903589 0.415301
O O4 0.037992 0.903423 0.533326
O O5 0.750000 0.634862 0.006336
O O6 0.033107 0.629147 0.070597
O O7 0.000000 0.500000 0.000000
O O8 0.049355 0.654644 0.953354
O O9 0.250000 0.848108 0.727233
O O10 0.956046 0.750000 0.716161
O O11 0.964603 0.939969 0.754428
O O12 0.028277 0.898294 0.651943
O O13 0.250000 0.447656 0.757060
O O14 0.527030 0.397339 0.814332
O O15 0.538585 0.402648 0.701163
O O16 0.250000 0.855666 0.865383
O O17 0.960962 0.750000 0.867256
O O18 0.964080 0.958913 0.878162
O O19 0.750000 0.929894 0.121253
O O20 0.750000 0.875283 0.356866
O O21 0.008430 0.750000 0.357380
O O22 0.750000 0.867332 0.591367
O O23 0.476747 0.750000 0.592556
#
# Coordination Sequence:
#
# PCOD9453203 Si02
#       8
#     8   8   8   8   8   8   8   8
#     4   7  10  18  34  55  75  98 133 174 215 258
#     4   9  16  28  46  66  89 116 145 178 218 261
#     4   9  17  27  39  58  85 114 141 171 209 254
#     4   9  16  26  40  59  85 116 147 177 213 257
#     4   9  17  29  46  68  92 118 149 183 217 256
#     4   8  15  27  42  60  83 113 146 176 207 250
#     4   8  13  22  37  57  81 107 136 176 223 263
#     4   8  13  23  40  58  77 105 139 175 215 257
#
# _framework density 25.912932999999999
#
# number of rings (size 3 to 8) (size 9 to 14) (size 15 to 20)
#    0.000    3.625    0.000    2.625    0.000    0.750 
#    0.000    3.750    0.000    6.000    0.000    3.500 
#    0.000    0.500    0.000    0.250    0.000    0.000 
#
# Total GULP energy -357029.302680 kJ/mol
# GULP energy per Si atom -5578.582854 kJ/mol
# Density = 2.585395 g / cm^3
# Si number density = 25.912933 Si / 1000 Ang^3
#
#
#
# Elastic Constant Matrix: (Units=GPa)
#
#
# Indices 1 2 3 4 5 6 
#
# 1 112.9558 -3.0550 0.8382 0.0000 0.0000 0.0000
# 2 -3.0550 43.0079 14.6822 0.0000 0.0000 0.0000
# 3 0.8382 14.6822 203.9142 0.0000 0.0000 0.0000
# 4 0.0000 0.0000 0.0000 -3.9401 0.0000 0.0000
# 5 0.0000 0.0000 0.0000 0.0000 5.0761 0.0000
# 6 0.0000 0.0000 0.0000 0.0000 0.0000 -10.6030
#
#
#
# Elastic Compliance Matrix: (Units=1/GPa)
#
#
# Indices 1 2 3 4 5 6 
#
# 1 0.008871 0.000659 -0.000084 0.000000 0.000000 0.000000
# 2 0.000659 0.023886 -0.001723 0.000000 0.000000 0.000000
# 3 -0.000084 -0.001723 0.005028 0.000000 0.000000 0.000000
# 4 0.000000 0.000000 0.000000 -0.253799 0.000000 0.000000
# 5 0.000000 0.000000 0.000000 0.000000 0.197002 0.000000
# 6 0.000000 0.000000 0.000000 0.000000 0.000000 -0.094313
#
#
# Mechanical properties :
#
#
# Convention : Reuss Voigt Hill
#
# Bulk Modulus (GPa) = 28.17620 42.75652 35.46636
# Shear Modulus (GPa) = -50.40459 21.26742 -14.56858
#
# Velocity S-wave (km/s) = -4.41517 2.86794 -2.37368
# Velocity P-wave (km/s) = 3.88518 5.24430 2.49079
#
# Compressibility (1/GPa) = 0.03549094
#
# Stress axis : x y z
#
# Youngs Moduli (GPa) = 112.72102 41.86482 198.87057
#
# Poissons Ratio (x) = -0.02758 0.01669
# Poissons Ratio (y) = -0.07426 0.34257
# Poissons Ratio (z) = 0.00946 0.07212
#
# Static dielectric constant tensor:
#      x y z
#    x 1.996930 0.000000 0.000000 
#    y 0.000000 2.058230 0.000000 
#    z 0.000000 0.000000 2.058580 
# 
# From -- ./inp_files/31608.got.cif
#   From: 2010.05.17/outbox.cif.g08.bks.cpg/sg59_16_cif.got.tgz:31608.got - 2010.06.03 14:40:33.
