data_PCOD9453481
_publ_section_title
;
Structure prediction by ZEFSAII (Michael W. Deem and Ramdas Pophale) SiO2 
 PCOD9453481
Probable space group: P M M N
;
_chemical_formula_sum "Si O2"
_cell_formula_units_Z 56
_cell_length_a 15.000000
_cell_length_b 21.000000
_cell_length_c 9.000000
_cell_angle_alpha 90.000000
_cell_angle_beta 90.000000
_cell_angle_gamma 90.000000
_cell_volume 2835.000000
_symmetry_space_group_name_H-M "P M M N"
_symmetry_group_IT_number 59
_space_group.IT_coordinate_system_code '2'
_symmetry_cell_setting 'orthorhombic'
loop_
_space_group_symop_operation_xyz
x,y,z
1/2-x,1/2-y,z
1/2+x,-y,-z
-x,1/2+y,-z
-x,-y,-z
1/2+x,1/2+y,-z
1/2-x,y,z
x,1/2-y,z
loop_
_atom_site_type_symbol
_atom_site_label
_atom_site_fract_x
_atom_site_fract_y
_atom_site_fract_z
Si Si1 0.352037 0.825784 0.368201
Si Si2 0.976961 0.177093 0.373802
Si Si3 0.353570 0.369445 0.528447
Si Si4 0.352028 0.588692 0.119279
Si Si5 0.649295 0.967629 0.707199
Si Si6 0.644671 0.826295 0.139613
Si Si7 0.988537 0.895454 0.914067
O O1 0.250000 0.844469 0.399257
O O2 0.357806 0.750000 0.376014
O O3 0.418476 0.851940 0.493058
O O4 0.372142 0.844751 0.198691
O O5 0.952842 0.250000 0.357403
O O6 0.079156 0.171098 0.428383
O O7 0.965832 0.145461 0.215234
O O8 0.250000 0.350747 0.509806
O O9 0.364899 0.440057 0.457746
O O10 0.374002 0.359336 0.701102
O O11 0.250000 0.586423 0.059872
O O12 0.354024 0.541964 0.261754
O O13 0.430933 0.573424 0.006383
O O14 0.750000 0.946521 0.749486
O O15 0.577284 0.940210 0.820579
O O16 0.750000 0.837823 0.102917
O O17 0.633664 0.750000 0.155050
O O18 0.576349 0.854556 0.020296
#
# Coordination Sequence:
#
# PCOD9453481 Si02
#       7
#     8   8   8   8   8   8   8
#     4   9  19  37  58  77  99 132 176 224 269 311
#     4  10  20  33  51  76 105 137 170 208 258 313
#     4   9  18  33  53  76 103 136 175 217 257 301
#     4  10  21  37  57  78 102 136 178 222 266 315
#     4   9  19  37  56  76 105 140 178 218 262 312
#     4  10  20  34  54  81 111 143 178 215 258 310
#     4  11  21  34  52  79 111 143 173 212 262 316
#
# _framework density 19.753086
#
# number of rings (size 3 to 8) (size 9 to 14) (size 15 to 20)
#    0.000    2.286    0.000    2.571    0.000    4.286 
#    0.000    7.857    0.000    3.429    0.000    0.000 
#    0.000    0.000    0.000    0.000    0.000    0.000 
#
# Total GULP energy -311852.417719 kJ/mol
# GULP energy per Si atom -5568.793174 kJ/mol
# Density = 1.970813 g / cm^3
# Si number density = 19.753086 Si / 1000 Ang^3
#
#
#
# Elastic Constant Matrix: (Units=GPa)
#
#
# Indices 1 2 3 4 5 6 
#
# 1 42.9749 12.9264 17.8293 0.0000 0.0000 0.0000
# 2 12.9264 17.9697 5.7020 0.0000 0.0000 0.0000
# 3 17.8293 5.7020 50.1641 0.0000 0.0000 0.0000
# 4 0.0000 0.0000 0.0000 17.0802 0.0000 0.0000
# 5 0.0000 0.0000 0.0000 0.0000 29.0288 0.0000
# 6 0.0000 0.0000 0.0000 0.0000 0.0000 14.8832
#
#
#
# Elastic Compliance Matrix: (Units=1/GPa)
#
#
# Indices 1 2 3 4 5 6 
#
# 1 0.033581 -0.021131 -0.009533 0.000000 0.000000 0.000000
# 2 -0.021131 0.071029 -0.000563 0.000000 0.000000 0.000000
# 3 -0.009533 -0.000563 0.023387 0.000000 0.000000 0.000000
# 4 0.000000 0.000000 0.000000 0.058547 0.000000 0.000000
# 5 0.000000 0.000000 0.000000 0.000000 0.034449 0.000000
# 6 0.000000 0.000000 0.000000 0.000000 0.000000 0.067190
#
#
# Mechanical properties :
#
#
# Convention : Reuss Voigt Hill
#
# Bulk Modulus (GPa) = 15.25763 20.44713 17.85238
# Shear Modulus (GPa) = 13.42339 17.17515 15.29927
#
# Velocity S-wave (km/s) = 2.60966 2.95191 2.78605
# Velocity P-wave (km/s) = 4.10139 4.68959 4.40532
#
# Compressibility (1/GPa) = 0.06554099
#
# Stress axis : x y z
#
# Youngs Moduli (GPa) = 29.77915 14.07882 42.75896
#
# Poissons Ratio (x) = 0.29750 0.40763
# Poissons Ratio (y) = 0.62927 0.02408
# Poissons Ratio (z) = 0.28389 0.00793
#
# Static dielectric constant tensor:
#      x y z
#    x 1.727710 0.000000 0.000000 
#    y 0.000000 1.779600 0.000000 
#    z 0.000000 0.000000 1.677530 
# 
# From -- ./inp_files/9332.got.cif
#   From: 2010.05.17/outbox.ucp.g08.bks.cvg/sg59_5_cif.got.tgz:9332.got - 2010.06.11 16:43:56.
