data_PCOD9453997
_publ_section_title
;
Structure prediction by ZEFSAII (Michael W. Deem and Ramdas Pophale) SiO2 
 PCOD9453997
Probable space group: P B C N
;
_chemical_formula_sum "Si O2"
_cell_formula_units_Z 48
_cell_length_a 27.984911
_cell_length_b 9.008726
_cell_length_c 9.068320
_cell_angle_alpha 90.000000
_cell_angle_beta 90.000000
_cell_angle_gamma 90.000000
_cell_volume 2286.199604
_symmetry_space_group_name_H-M "P B C N"
_symmetry_group_IT_number 60
_symmetry_cell_setting 'orthorhombic'
loop_
_space_group_symop_operation_xyz
x,y,z
1/2-x,1/2-y,1/2+z
1/2+x,1/2-y,-z
-x,y,1/2-z
-x,-y,-z
1/2+x,1/2+y,1/2-z
1/2-x,1/2+y,z
x,-y,1/2+z
loop_
_atom_site_type_symbol
_atom_site_label
_atom_site_fract_x
_atom_site_fract_y
_atom_site_fract_z
Si Si1 0.319200 0.743540 0.596819
Si Si2 0.319412 0.233213 0.406284
Si Si3 0.595354 0.660825 0.424251
Si Si4 0.905015 0.835922 0.574458
Si Si5 0.751410 0.984258 0.998074
Si Si6 0.499791 0.666225 0.928172
O O1 0.346520 0.753811 0.751371
O O2 0.356785 0.752102 0.464409
O O3 0.280402 0.873852 0.598606
O O4 0.288974 0.592974 0.579550
O O5 0.356735 0.249622 0.538254
O O6 0.283144 0.372191 0.406747
O O7 0.286734 0.089412 0.422762
O O8 0.587800 0.647368 0.249192
O O9 0.602182 0.497799 0.498020
O O10 0.549147 0.730631 0.505038
O O11 0.951612 0.767100 0.495420
O O12 0.500000 0.660951 0.750000
O O13 0.500000 0.500000 0.000000
#
# Coordination Sequence:
#
# PCOD9453997 Si02
#       6
#     8   8   8   8   8   8
#     4  11  22  39  60  86 118 156 199 243 291 347
#     4  11  22  39  60  86 118 156 199 243 291 347
#     4  11  21  34  55  84 117 152 192 240 292 347
#     4  11  21  34  55  84 117 152 192 240 292 347
#     4  10  24  38  60  86 118 154 200 244 292 342
#     4  10  18  32  54  81 114 149 188 237 290 346
#
# _framework density 20.995542
#
# number of rings (size 3 to 8) (size 9 to 14) (size 15 to 20)
#    0.000    1.333    1.667    7.500    0.000    6.667 
#    0.000    0.000    0.000    1.000    0.000    0.000 
#    0.000    0.000    0.000    0.000    0.000    0.000 
#
# Total GULP energy -267823.385017 kJ/mol
# GULP energy per Si atom -5579.653855 kJ/mol
# Density = 2.094775 g / cm^3
# Si number density = 20.995542 Si / 1000 Ang^3
#
#
#
# Elastic Constant Matrix: (Units=GPa)
#
#
# Indices 1 2 3 4 5 6 
#
# 1 103.9997 1.1796 16.3188 0.0000 0.0000 0.0000
# 2 1.1796 45.2078 -7.3898 0.0000 0.0000 0.0000
# 3 16.3188 -7.3898 153.2745 0.0000 0.0000 0.0000
# 4 0.0000 0.0000 0.0000 -11.2636 0.0000 0.0000
# 5 0.0000 0.0000 0.0000 0.0000 24.8650 0.0000
# 6 0.0000 0.0000 0.0000 0.0000 0.0000 12.2070
#
#
#
# Elastic Compliance Matrix: (Units=1/GPa)
#
#
# Indices 1 2 3 4 5 6 
#
# 1 0.009787 -0.000429 -0.001063 0.000000 0.000000 0.000000
# 2 -0.000429 0.022315 0.001122 0.000000 0.000000 0.000000
# 3 -0.001063 0.001122 0.006691 0.000000 0.000000 0.000000
# 4 0.000000 0.000000 0.000000 -0.088781 0.000000 0.000000
# 5 0.000000 0.000000 0.000000 0.000000 0.040217 0.000000
# 6 0.000000 0.000000 0.000000 0.000000 0.000000 0.081920
#
#
# Mechanical properties :
#
#
# Convention : Reuss Voigt Hill
#
# Bulk Modulus (GPa) = 26.27938 35.85543 31.06741
# Shear Modulus (GPa) = 58.42933 24.65325 41.54129
#
# Velocity S-wave (km/s) = 5.28108 3.43040 4.45295
# Velocity P-wave (km/s) = 7.05197 5.72755 6.42398
#
# Compressibility (1/GPa) = 0.03805265
#
# Stress axis : x y z
#
# Youngs Moduli (GPa) = 102.17604 44.81369 149.44424
#
# Poissons Ratio (x) = 0.01923 0.15881
# Poissons Ratio (y) = 0.04384 -0.16761
# Poissons Ratio (z) = 0.10858 -0.05026
#
# Static dielectric constant tensor:
#      x y z
#    x 1.805690 0.000000 0.000000 
#    y 0.000000 1.740290 0.000000 
#    z 0.000000 0.000000 1.802870 
# 
# From -- ./inp_files/8390.got.cif
#   From: 2010.05.17/outbox.cif.g08.bks.cpg/sg60_5_cif.got.tgz:8390.got - 2010.06.03 14:59:27.
