data_PCOD9453094
_publ_section_title
;
Structure prediction by ZEFSAII (Michael W. Deem and Ramdas Pophale) SiO2 
 PCOD9453094
Probable space group: P M M N
;
_chemical_formula_sum "Si O2"
_cell_formula_units_Z 48
_cell_length_a 8.451979
_cell_length_b 19.011290
_cell_length_c 16.895749
_cell_angle_alpha 90.000000
_cell_angle_beta 90.000000
_cell_angle_gamma 90.000000
_cell_volume 2714.860039
_symmetry_space_group_name_H-M "P M M N"
_symmetry_group_IT_number 59
_space_group.IT_coordinate_system_code '2'
_symmetry_cell_setting 'orthorhombic'
loop_
_space_group_symop_operation_xyz
x,y,z
1/2-x,1/2-y,z
1/2+x,-y,-z
-x,1/2+y,-z
-x,-y,-z
1/2+x,1/2+y,-z
1/2-x,y,z
x,1/2-y,z
loop_
_atom_site_type_symbol
_atom_site_label
_atom_site_fract_x
_atom_site_fract_y
_atom_site_fract_z
Si Si1 0.440710 0.830124 0.157785
Si Si2 0.562319 0.030178 0.417583
Si Si3 0.558617 0.829257 0.660393
Si Si4 0.558511 0.041599 0.739159
Si Si5 0.940573 0.832485 0.985853
Si Si6 0.442254 0.399729 0.176326
O O1 0.250000 0.828753 0.160205
O O2 0.498802 0.750000 0.168597
O O3 0.495179 0.884649 0.224361
O O4 0.490764 0.854735 0.070308
O O5 0.750000 0.032726 0.419425
O O6 0.499577 0.108287 0.396180
O O7 0.500000 0.000000 0.500000
O O8 0.506842 0.979877 0.345943
O O9 0.750000 0.830407 0.658991
O O10 0.506217 0.750000 0.640862
O O11 0.509362 0.850106 0.750144
O O12 0.750000 0.041618 0.733923
O O13 0.512890 0.978508 0.798904
O O14 0.750000 0.837966 0.989690
O O15 0.979912 0.750000 0.974830
O O16 0.998823 0.874678 0.909183
O O17 0.250000 0.396842 0.173956
#
# Coordination Sequence:
#
# PCOD9453094 Si02
#       6
#     8   8   8   8   8   8
#     4   9  18  32  48  67  95 131 168 208 255 300
#     4  11  22  37  57  79 104 132 164 205 253 305
#     4   9  17  32  55  80 107 138 169 202 245 299
#     4   9  18  34  53  71  94 127 166 207 254 307
#     4   9  16  26  42  65  94 129 168 206 242 286
#     4   8  14  26  46  71  97 129 167 202 240 291
#
# _framework density 17.680468999999999
#
# number of rings (size 3 to 8) (size 9 to 14) (size 15 to 20)
#    0.000    2.833    0.000    3.000    0.000    3.667 
#    0.000    4.167    0.000    7.000    0.000    0.000 
#    0.000    0.000    0.000    0.000    0.000    0.000 
#
# Total GULP energy -267564.206783 kJ/mol
# GULP energy per Si atom -5574.254308 kJ/mol
# Density = 1.764023 g / cm^3
# Si number density = 17.680469 Si / 1000 Ang^3
#
#
#
# Elastic Constant Matrix: (Units=GPa)
#
#
# Indices 1 2 3 4 5 6 
#
# 1 20.5265 28.9159 25.3244 0.0000 0.0000 0.0000
# 2 28.9159 127.2427 102.9399 0.0000 0.0000 0.0000
# 3 25.3244 102.9399 137.0585 0.0000 0.0000 0.0000
# 4 0.0000 0.0000 0.0000 22.5016 0.0000 0.0000
# 5 0.0000 0.0000 0.0000 0.0000 25.6802 0.0000
# 6 0.0000 0.0000 0.0000 0.0000 0.0000 16.3125
#
#
#
# Elastic Compliance Matrix: (Units=1/GPa)
#
#
# Indices 1 2 3 4 5 6 
#
# 1 0.072015 -0.014273 -0.002586 0.000000 0.000000 0.000000
# 2 -0.014273 0.022858 -0.014530 0.000000 0.000000 0.000000
# 3 -0.002586 -0.014530 0.018687 0.000000 0.000000 0.000000
# 4 0.000000 0.000000 0.000000 0.044441 0.000000 0.000000
# 5 0.000000 0.000000 0.000000 0.000000 0.038941 0.000000
# 6 0.000000 0.000000 0.000000 0.000000 0.000000 0.061303
#
#
# Mechanical properties :
#
#
# Convention : Reuss Voigt Hill
#
# Bulk Modulus (GPa) = 19.69260 66.57644 43.13452
# Shear Modulus (GPa) = 14.79508 21.40871 18.10189
#
# Velocity S-wave (km/s) = 2.89589 3.48353 3.20321
# Velocity P-wave (km/s) = 4.72693 7.34282 6.17499
#
# Compressibility (1/GPa) = 0.05078048
#
# Stress axis : x y z
#
# Youngs Moduli (GPa) = 13.88602 43.74897 53.51251
#
# Poissons Ratio (x) = 0.62444 0.13839
# Poissons Ratio (y) = 0.19820 0.77755
# Poissons Ratio (z) = 0.03591 0.63569
#
# Static dielectric constant tensor:
#      x y z
#    x 1.607390 0.000000 0.000000 
#    y 0.000000 1.615070 0.000000 
#    z 0.000000 0.000000 1.579170 
# 
# From -- ./inp_files/24089.got.cif
#   From: 2010.05.17/outbox.cif.g08.bks.cpg/sg59_13_cif.got.tgz:24089.got - 2010.06.03 14:40:33.
