data_PCOD9453607
_publ_section_title
;
Structure prediction by ZEFSAII (Michael W. Deem and Ramdas Pophale) SiO2 
 PCOD9453607
Probable space group: P M M N
;
_chemical_formula_sum "Si O2"
_cell_formula_units_Z 64
_cell_length_a 15.000000
_cell_length_b 24.000000
_cell_length_c 9.000000
_cell_angle_alpha 90.000000
_cell_angle_beta 90.000000
_cell_angle_gamma 90.000000
_cell_volume 3240.000000
_symmetry_space_group_name_H-M "P M M N"
_symmetry_group_IT_number 59
_space_group.IT_coordinate_system_code '2'
_symmetry_cell_setting 'orthorhombic'
loop_
_space_group_symop_operation_xyz
x,y,z
1/2-x,1/2-y,z
1/2+x,-y,-z
-x,1/2+y,-z
-x,-y,-z
1/2+x,1/2+y,-z
1/2-x,y,z
x,1/2-y,z
loop_
_atom_site_type_symbol
_atom_site_label
_atom_site_fract_x
_atom_site_fract_y
_atom_site_fract_z
Si Si1 0.646637 0.541504 0.237821
Si Si2 0.427962 0.395185 0.274297
Si Si3 0.644846 0.684893 0.966315
Si Si4 0.926892 0.046475 0.451344
Si Si5 0.355487 0.495339 0.092751
Si Si6 0.652519 0.689176 0.514360
Si Si7 0.645277 0.106342 0.743794
Si Si8 0.459076 0.346588 0.740890
O O1 0.750000 0.560444 0.235018
O O2 0.637484 0.488994 0.345750
O O3 0.579708 0.590733 0.283014
O O4 0.618767 0.522187 0.072856
O O5 0.520233 0.405921 0.359305
O O6 0.401239 0.455200 0.211267
O O7 0.358941 0.365253 0.385300
O O8 0.418027 0.352717 0.137745
O O9 0.750000 0.666762 0.960718
O O10 0.643216 0.750000 0.928788
O O11 0.571075 0.686883 0.402563
O O12 0.600559 0.676941 0.126262
O O13 0.876145 0.074270 0.589153
O O14 0.000000 0.000000 0.500000
O O15 0.250000 0.485708 0.106547
O O16 0.370772 0.559624 0.129588
O O17 0.750000 0.686042 0.439814
O O18 0.650527 0.750000 0.591606
O O19 0.750000 0.123355 0.747734
O O20 0.565184 0.150618 0.762229
#
# Coordination Sequence:
#
# PCOD9453607 Si02
#       8
#     8   8   8   8   8   8   8   8
#     4  11  22  36  58  89 124 160 196 239 294 364
#     4  12  21  36  60  85 123 163 199 234 288 359
#     4  11  24  41  62  93 129 160 195 245 308 372
#     4  12  22  38  55  87 123 165 204 242 293 354
#     4  10  21  35  56  86 121 157 193 231 285 354
#     4  11  23  38  58  86 118 151 193 243 294 355
#     4  11  24  42  60  86 121 159 204 254 299 349
#     4  12  22  38  62  88 118 159 199 244 300 360
#
# _framework density 19.753086
#
# number of rings (size 3 to 8) (size 9 to 14) (size 15 to 20)
#    0.000    0.750    5.000    3.375    1.750    3.000 
#    0.000    0.000    0.000    1.500    0.000    0.000 
#    0.000    0.000    0.000    0.000    0.000    0.000 
#
# Total GULP energy -357277.576444 kJ/mol
# GULP energy per Si atom -5582.462132 kJ/mol
# Density = 1.970813 g / cm^3
# Si number density = 19.753086 Si / 1000 Ang^3
#
#
#
# Elastic Constant Matrix: (Units=GPa)
#
#
# Indices 1 2 3 4 5 6 
#
# 1 83.9864 20.9378 8.5063 0.0000 0.0000 0.0000
# 2 20.9378 39.7931 11.0577 0.0000 0.0000 0.0000
# 3 8.5063 11.0577 60.5306 0.0000 0.0000 0.0000
# 4 0.0000 0.0000 0.0000 -209.4522 0.0000 0.0000
# 5 0.0000 0.0000 0.0000 0.0000 29.5826 0.0000
# 6 0.0000 0.0000 0.0000 0.0000 0.0000 -239.8082
#
#
#
# Elastic Compliance Matrix: (Units=1/GPa)
#
#
# Indices 1 2 3 4 5 6 
#
# 1 0.013728 -0.007045 -0.000642 0.000000 0.000000 0.000000
# 2 -0.007045 0.030089 -0.004507 0.000000 0.000000 0.000000
# 3 -0.000642 -0.004507 0.017434 0.000000 0.000000 0.000000
# 4 0.000000 0.000000 0.000000 -0.004774 0.000000 0.000000
# 5 0.000000 0.000000 0.000000 0.000000 0.033804 0.000000
# 6 0.000000 0.000000 0.000000 0.000000 0.000000 -0.004170
#
#
# Mechanical properties :
#
#
# Convention : Reuss Voigt Hill
#
# Bulk Modulus (GPa) = 27.12690 29.47932 28.30311
# Shear Modulus (GPa) = 40.72138 -74.34833 -16.81347
#
# Velocity S-wave (km/s) = 4.54532 -6.14171 -2.92067
# Velocity P-wave (km/s) = 6.42724 5.94456 1.72795
#
# Compressibility (1/GPa) = 0.03686378
#
# Stress axis : x y z
#
# Youngs Moduli (GPa) = 72.84389 33.23471 57.35887
#
# Poissons Ratio (x) = 0.23413 0.03684
# Poissons Ratio (y) = 0.51317 0.25850
# Poissons Ratio (z) = 0.04678 0.14978
#
# Static dielectric constant tensor:
#      x y z
#    x 1.679440 0.000000 0.000000 
#    y 0.000000 1.709020 0.000000 
#    z 0.000000 0.000000 1.781080 
# 
# From -- ./inp_files/9570.got.cif
#   From: 2010.05.17/outbox.ucp.g08.bks.cvg/sg59_5_cif.got.tgz:9570.got - 2010.06.11 16:43:56.
