data_PCOD9453862
_publ_section_title
;
Structure prediction by ZEFSAII (Michael W. Deem and Ramdas Pophale) SiO2 
 PCOD9453862
Probable space group: P B C N
;
_chemical_formula_sum "Si O2"
_cell_formula_units_Z 64
_cell_length_a 7.297961
_cell_length_b 21.002162
_cell_length_c 17.209294
_cell_angle_alpha 90.000000
_cell_angle_beta 90.000000
_cell_angle_gamma 90.000000
_cell_volume 2637.719417
_symmetry_space_group_name_H-M "P B C N"
_symmetry_group_IT_number 60
_symmetry_cell_setting 'orthorhombic'
loop_
_space_group_symop_operation_xyz
x,y,z
1/2-x,1/2-y,1/2+z
1/2+x,1/2-y,-z
-x,y,1/2-z
-x,-y,-z
1/2+x,1/2+y,1/2-z
1/2-x,1/2+y,z
x,-y,1/2+z
loop_
_atom_site_type_symbol
_atom_site_label
_atom_site_fract_x
_atom_site_fract_y
_atom_site_fract_z
Si Si1 0.815278 0.653644 0.959401
Si Si2 0.601959 0.856706 0.818247
Si Si3 0.233228 0.902321 0.198339
Si Si4 0.370179 0.546618 0.161747
Si Si5 0.288968 0.062057 0.392398
Si Si6 0.313168 0.456141 0.488007
Si Si7 0.659116 0.350587 0.141321
Si Si8 0.987313 0.255842 0.937619
O O1 0.850067 0.617491 0.878355
O O2 0.635976 0.696361 0.955727
O O3 0.782202 0.608896 0.033512
O O4 0.963423 0.705182 0.985717
O O5 0.500000 0.819433 0.750000
O O6 0.787942 0.891980 0.796195
O O7 0.448486 0.910444 0.839118
O O8 0.622413 0.806403 0.886125
O O9 0.280697 0.874275 0.283943
O O10 0.040299 0.870685 0.174176
O O11 0.193475 0.978691 0.196836
O O12 0.589051 0.551526 0.147799
O O13 0.271926 0.554691 0.077391
O O14 0.326891 0.996178 0.436056
O O15 0.500000 0.500000 0.500000
O O16 0.326648 0.393106 0.436764
O O17 0.650980 0.276862 0.113574
#
# Coordination Sequence:
#
# PCOD9453862 Si02
#       8
#     8   8   8   8   8   8   8   8
#     4  10  21  40  64  88 123 159 224 265 312 392
#     4  11  28  40  57  97 134 168 209 259 326 395
#     4  10  19  35  63  98 115 165 210 267 323 378
#     4  11  21  40  71  90 126 171 211 258 333 377
#     4  10  21  42  63  93 124 165 214 267 310 390
#     4  10  17  35  63  94 116 158 213 256 313 380
#     4  10  20  33  62  95 122 162 219 260 316 379
#     4  10  23  41  61  89 120 170 212 265 316 388
#
# _framework density 24.263385
#
# number of rings (size 3 to 8) (size 9 to 14) (size 15 to 20)
#    0.000    1.750    3.750    2.250    8.750    1.000 
#    0.000    0.000    0.000    0.000    0.000    0.000 
#    0.000    0.000    0.000    0.000    0.000    0.000 
#
# Total GULP energy -356820.846211 kJ/mol
# GULP energy per Si atom -5575.325722 kJ/mol
# Density = 2.420816 g / cm^3
# Si number density = 24.263385 Si / 1000 Ang^3
#
#
#
# Elastic Constant Matrix: (Units=GPa)
#
#
# Indices 1 2 3 4 5 6 
#
# 1 53.8407 26.4973 33.2348 0.0000 0.0000 0.0000
# 2 26.4973 91.6544 17.8395 0.0000 0.0000 0.0000
# 3 33.2348 17.8395 107.6068 0.0000 0.0000 0.0000
# 4 0.0000 0.0000 0.0000 -39.7822 0.0000 0.0000
# 5 0.0000 0.0000 0.0000 0.0000 29.8297 0.0000
# 6 0.0000 0.0000 0.0000 0.0000 0.0000 102.1965
#
#
#
# Elastic Compliance Matrix: (Units=1/GPa)
#
#
# Indices 1 2 3 4 5 6 
#
# 1 0.025900 -0.006128 -0.006983 0.000000 0.000000 0.000000
# 2 -0.006128 0.012724 -0.000217 0.000000 0.000000 0.000000
# 3 -0.006983 -0.000217 0.011486 0.000000 0.000000 0.000000
# 4 0.000000 0.000000 0.000000 -0.025137 0.000000 0.000000
# 5 0.000000 0.000000 0.000000 0.000000 0.033524 0.000000
# 6 0.000000 0.000000 0.000000 0.000000 0.000000 0.009785
#
#
# Mechanical properties :
#
#
# Convention : Reuss Voigt Hill
#
# Bulk Modulus (GPa) = 42.63785 45.36057 43.99921
# Shear Modulus (GPa) = 48.65842 30.15082 39.40462
#
# Velocity S-wave (km/s) = 4.48306 3.52894 4.03431
# Velocity P-wave (km/s) = 6.66394 5.94477 6.31460
#
# Compressibility (1/GPa) = 0.02345334
#
# Stress axis : x y z
#
# Youngs Moduli (GPa) = 38.60988 78.58870 87.06360
#
# Poissons Ratio (x) = 0.48163 0.60800
# Poissons Ratio (y) = 0.23662 0.01887
# Poissons Ratio (z) = 0.26963 0.01703
#
# Static dielectric constant tensor:
#      x y z
#    x -5.342580 0.000000 0.000000 
#    y 0.000000 1.909510 0.000000 
#    z 0.000000 0.000000 2.148660 
# 
# From -- ./inp_files/19670.got.cif
#   From: 2010.05.17/outbox.cif.g08.bks.cpg/sg60_10_cif.got.tgz:19670.got - 2010.06.03 14:59:27.
