data_PCOD9453187
_publ_section_title
;
Structure prediction by ZEFSAII (Michael W. Deem and Ramdas Pophale) SiO2 
 PCOD9453187
Probable space group: P M M N
;
_chemical_formula_sum "Si O2"
_cell_formula_units_Z 24
_cell_length_a 10.216454
_cell_length_b 8.555819
_cell_length_c 13.788220
_cell_angle_alpha 90.000000
_cell_angle_beta 90.000000
_cell_angle_gamma 90.000000
_cell_volume 1205.230120
_symmetry_space_group_name_H-M "P M M N"
_symmetry_group_IT_number 59
_space_group.IT_coordinate_system_code '2'
_symmetry_cell_setting 'orthorhombic'
loop_
_space_group_symop_operation_xyz
x,y,z
1/2-x,1/2-y,z
1/2+x,-y,-z
-x,1/2+y,-z
-x,-y,-z
1/2+x,1/2+y,-z
1/2-x,y,z
x,1/2-y,z
loop_
_atom_site_type_symbol
_atom_site_label
_atom_site_fract_x
_atom_site_fract_y
_atom_site_fract_z
Si Si1 0.028251 0.435728 0.709265
Si Si2 0.250000 0.934767 0.569119
Si Si3 0.250000 0.064584 0.353794
Si Si4 0.900317 0.063247 0.079757
O O1 0.039724 0.250000 0.697266
O O2 0.880326 0.490100 0.691147
O O3 0.123651 0.518883 0.632336
O O4 0.071784 0.484930 0.816729
O O5 0.250000 0.750000 0.549677
O O6 0.250000 0.025987 0.468090
O O7 0.250000 0.250000 0.338234
O O8 0.750000 0.030644 0.051282
O O9 0.914987 0.250000 0.089866
O O10 0.000000 0.000000 0.000000
#
# Coordination Sequence:
#
# PCOD9453187 Si02
#       4
#     8   4   4   8
#     4  12  25  44  69  99 135 176 222 274 332 394
#     4  12  24  44  69  98 135 176 224 274 330 394
#     4  12  26  44  67  98 135 178 224 274 330 392
#     4  11  25  45  70  99 134 175 221 271 330 395
#
# _framework density 19.913211
#
# number of rings (size 3 to 8) (size 9 to 14) (size 15 to 20)
#    0.000    0.333    1.667    8.000    2.333    2.000 
#    0.000    0.000    0.000    0.000    0.000    0.000 
#    0.000    0.000    0.000    0.000    0.000    0.000 
#
# Total GULP energy -134466.943652 kJ/mol
# GULP energy per Si atom -5602.789319 kJ/mol
# Density = 1.986789 g / cm^3
# Si number density = 19.913211 Si / 1000 Ang^3
#
#
#
# Elastic Constant Matrix: (Units=GPa)
#
#
# Indices 1 2 3 4 5 6 
#
# 1 132.6360 15.4786 10.5143 0.0000 0.0000 0.0000
# 2 15.4786 71.8539 -4.2168 0.0000 0.0000 0.0000
# 3 10.5143 -4.2168 53.0274 0.0000 0.0000 0.0000
# 4 0.0000 0.0000 0.0000 41.6112 0.0000 0.0000
# 5 0.0000 0.0000 0.0000 0.0000 44.3009 0.0000
# 6 0.0000 0.0000 0.0000 0.0000 0.0000 41.1149
#
#
#
# Elastic Compliance Matrix: (Units=1/GPa)
#
#
# Indices 1 2 3 4 5 6 
#
# 1 0.007885 -0.001799 -0.001706 0.000000 0.000000 0.000000
# 2 -0.001799 0.014393 0.001501 0.000000 0.000000 0.000000
# 3 -0.001706 0.001501 0.019316 0.000000 0.000000 0.000000
# 4 0.000000 0.000000 0.000000 0.024032 0.000000 0.000000
# 5 0.000000 0.000000 0.000000 0.000000 0.022573 0.000000
# 6 0.000000 0.000000 0.000000 0.000000 0.000000 0.024322
#
#
# Mechanical properties :
#
#
# Convention : Reuss Voigt Hill
#
# Bulk Modulus (GPa) = 26.60603 33.45216 30.02910
# Shear Modulus (GPa) = 38.74278 41.12149 39.93213
#
# Velocity S-wave (km/s) = 4.41566 4.54920 4.48293
# Velocity P-wave (km/s) = 6.27594 6.66551 6.47366
#
# Compressibility (1/GPa) = 0.03758546
#
# Stress axis : x y z
#
# Youngs Moduli (GPa) = 126.82952 69.47980 51.77083
#
# Poissons Ratio (x) = 0.12497 0.08834
# Poissons Ratio (y) = 0.22812 -0.07772
# Poissons Ratio (z) = 0.21642 -0.10430
#
# Static dielectric constant tensor:
#      x y z
#    x 1.674970 0.000000 0.000000 
#    y 0.000000 1.665140 0.000000 
#    z 0.000000 0.000000 1.652260 
# 
# From -- ./inp_files/13452.got.cif
#   From: 2010.05.17/outbox.cif.g08.bks.cpg/sg59_7_cif.got.tgz:13452.got - 2010.06.03 14:40:33.
