data_PCOD9453031
_publ_section_title
;
Structure prediction by ZEFSAII (Michael W. Deem and Ramdas Pophale) SiO2 
 PCOD9453031
Probable space group: P M M N
;
_chemical_formula_sum "Si O2"
_cell_formula_units_Z 34
_cell_length_a 9.548738
_cell_length_b 18.815270
_cell_length_c 9.417634
_cell_angle_alpha 90.000000
_cell_angle_beta 90.000000
_cell_angle_gamma 90.000000
_cell_volume 1691.991747
_symmetry_space_group_name_H-M "P M M N"
_symmetry_group_IT_number 59
_space_group.IT_coordinate_system_code '2'
_symmetry_cell_setting 'orthorhombic'
loop_
_space_group_symop_operation_xyz
x,y,z
1/2-x,1/2-y,z
1/2+x,-y,-z
-x,1/2+y,-z
-x,-y,-z
1/2+x,1/2+y,-z
1/2-x,y,z
x,1/2-y,z
loop_
_atom_site_type_symbol
_atom_site_label
_atom_site_fract_x
_atom_site_fract_y
_atom_site_fract_z
Si Si1 0.908261 0.250000 0.282012
Si Si2 0.750000 0.250000 0.747049
Si Si3 0.750000 0.835393 0.339976
Si Si4 0.250000 0.037487 0.243393
Si Si5 0.524693 0.885938 0.563869
Si Si6 0.250000 0.365940 0.967107
Si Si7 0.750000 0.097268 0.602214
Si Si8 0.995757 0.750000 0.028773
O O1 0.750000 0.250000 0.333138
O O2 0.914858 0.250000 0.113574
O O3 0.983083 0.180938 0.340980
O O4 0.750000 0.178903 0.652404
O O5 0.606372 0.250000 0.841521
O O6 0.750000 0.750000 0.305581
O O7 0.617679 0.855208 0.435553
O O8 0.750000 0.883779 0.199611
O O9 0.116922 0.064620 0.334559
O O10 0.250000 0.073744 0.088113
O O11 0.250000 0.952665 0.258680
O O12 0.385623 0.917819 0.494362
O O13 0.389517 0.317039 0.979114
#
# Coordination Sequence:
#
# PCOD9453031 Si02
#       8
#     4   2   4   4   8   4   4   4
#     4  12  20  36  66 103 126 161 215 271 325 373
#     4  12  26  44  64  96 130 170 218 274 328 386
#     4  11  21  35  63  97 130 162 217 263 314 379
#     4  11  25  43  66  93 134 177 216 264 327 395
#     4  11  23  39  66  98 128 170 216 271 320 382
#     4  11  22  39  64  92 129 168 214 259 318 376
#     4  12  25  44  66  93 131 174 219 269 332 384
#     4  11  22  37  64  93 129 161 207 271 318 380
#
# _framework density 20.094660000000001
#
# number of rings (size 3 to 8) (size 9 to 14) (size 15 to 20)
#    0.000    0.706    6.471    2.824    0.000    0.000 
#    0.000    4.706    5.176    0.000    0.000    0.000 
#    0.000    0.000    0.000    0.000    0.000    0.000 
#
# Total GULP energy -189977.675136 kJ/mol
# GULP energy per Si atom -5587.578680 kJ/mol
# Density = 2.004892 g / cm^3
# Si number density = 20.094660 Si / 1000 Ang^3
#
#
#
# Elastic Constant Matrix: (Units=GPa)
#
#
# Indices 1 2 3 4 5 6 
#
# 1 124.3613 10.7416 26.9383 0.0000 0.0000 0.0000
# 2 10.7416 56.6614 7.5776 0.0000 0.0000 0.0000
# 3 26.9383 7.5776 111.1924 0.0000 0.0000 0.0000
# 4 0.0000 0.0000 0.0000 12.2459 0.0000 0.0000
# 5 0.0000 0.0000 0.0000 0.0000 21.6634 0.0000
# 6 0.0000 0.0000 0.0000 0.0000 0.0000 7.5027
#
#
#
# Elastic Compliance Matrix: (Units=1/GPa)
#
#
# Indices 1 2 3 4 5 6 
#
# 1 0.008589 -0.001362 -0.001988 0.000000 0.000000 0.000000
# 2 -0.001362 0.018027 -0.000898 0.000000 0.000000 0.000000
# 3 -0.001988 -0.000898 0.009536 0.000000 0.000000 0.000000
# 4 0.000000 0.000000 0.000000 0.081660 0.000000 0.000000
# 5 0.000000 0.000000 0.000000 0.000000 0.046161 0.000000
# 6 0.000000 0.000000 0.000000 0.000000 0.000000 0.133286
#
#
# Mechanical properties :
#
#
# Convention : Reuss Voigt Hill
#
# Bulk Modulus (GPa) = 36.15999 42.52556 39.34278
# Shear Modulus (GPa) = 15.87425 24.74623 20.31024
#
# Velocity S-wave (km/s) = 2.81370 3.51306 3.18264
# Velocity P-wave (km/s) = 5.34694 6.13710 5.75559
#
# Compressibility (1/GPa) = 0.02765487
#
# Stress axis : x y z
#
# Youngs Moduli (GPa) = 116.42237 55.47192 104.86248
#
# Poissons Ratio (x) = 0.07558 0.20848
# Poissons Ratio (y) = 0.15862 0.09421
# Poissons Ratio (z) = 0.23146 0.04984
#
# Static dielectric constant tensor:
#      x y z
#    x 1.736350 0.000000 0.000000 
#    y 0.000000 1.581910 0.000000 
#    z 0.000000 0.000000 1.695330 
# 
# From -- ./inp_files/5521.got.cif
#   From: 2010.05.17/outbox.cif.g08.bks.cpg/sg59_3_cif.got.tgz:5521.got - 2010.06.03 14:40:33.
