data_PCOD9453808
_publ_section_title
;
Structure prediction by ZEFSAII (Michael W. Deem and Ramdas Pophale) SiO2 
 PCOD9453808
Probable space group: P B C N
;
_chemical_formula_sum "Si O2"
_cell_formula_units_Z 48
_cell_length_a 5.225551
_cell_length_b 18.578539
_cell_length_c 26.096611
_cell_angle_alpha 90.000000
_cell_angle_beta 90.000000
_cell_angle_gamma 90.000000
_cell_volume 2533.539975
_symmetry_space_group_name_H-M "P B C N"
_symmetry_group_IT_number 60
_symmetry_cell_setting 'orthorhombic'
loop_
_space_group_symop_operation_xyz
x,y,z
1/2-x,1/2-y,1/2+z
1/2+x,1/2-y,-z
-x,y,1/2-z
-x,-y,-z
1/2+x,1/2+y,1/2-z
1/2-x,1/2+y,z
x,-y,1/2+z
loop_
_atom_site_type_symbol
_atom_site_label
_atom_site_fract_x
_atom_site_fract_y
_atom_site_fract_z
Si Si1 0.684719 0.960420 0.443361
Si Si2 0.997056 0.575671 0.138214
Si Si3 0.000000 0.179008 0.250000
Si Si4 0.685646 0.578531 0.525518
Si Si5 0.500000 0.078537 0.250000
Si Si6 0.503651 0.676611 0.362895
Si Si7 0.491939 0.280287 0.526464
O O1 0.465710 0.901658 0.453399
O O2 0.967262 0.930725 0.431494
O O3 0.562077 0.016014 0.403670
O O4 0.751136 0.004924 0.495218
O O5 0.731269 0.619252 0.131620
O O6 0.995582 0.540565 0.195046
O O7 0.228925 0.633095 0.135598
O O8 0.749786 0.128821 0.250680
O O9 0.988682 0.213987 0.193331
O O10 0.578654 0.636579 0.485918
O O11 0.493311 0.726975 0.412448
O O12 0.760253 0.262039 0.500156
#
# Coordination Sequence:
#
# PCOD9453808 Si02
#       7
#     8   8   4   8   4   8   8
#     4  10  19  31  53  72 100 131 162 203 245 294
#     4  10  17  30  50  75 103 133 156 208 258 306
#     4   8  16  30  48  70  97 128 159 214 254 304
#     4  10  21  33  47  75  97 132 172 198 240 303
#     4   8  16  26  44  74 103 124 159 192 260 320
#     4  10  19  32  50  74 103 130 169 205 261 310
#     4  12  24  36  51  73 106 143 171 213 258 308
#
# _framework density 18.945823000000001
#
# number of rings (size 3 to 8) (size 9 to 14) (size 15 to 20)
#    0.000    2.000    1.667    3.000    4.667    0.000 
#    0.000    0.000    0.000    0.000    0.000    7.000 
#    0.000    0.000    0.000    0.000    0.000    0.000 
#
# Total GULP energy -267223.295912 kJ/mol
# GULP energy per Si atom -5567.151998 kJ/mol
# Density = 1.890270 g / cm^3
# Si number density = 18.945823 Si / 1000 Ang^3
#
#
#
# Elastic Constant Matrix: (Units=GPa)
#
#
# Indices 1 2 3 4 5 6 
#
# 1 121.5170 8.9393 22.8269 0.0000 0.0000 0.0000
# 2 8.9393 16.8396 13.5836 0.0000 0.0000 0.0000
# 3 22.8269 13.5836 159.7900 0.0000 0.0000 0.0000
# 4 0.0000 0.0000 0.0000 18.5174 0.0000 0.0000
# 5 0.0000 0.0000 0.0000 0.0000 24.6326 0.0000
# 6 0.0000 0.0000 0.0000 0.0000 0.0000 25.2837
#
#
#
# Elastic Compliance Matrix: (Units=1/GPa)
#
#
# Indices 1 2 3 4 5 6 
#
# 1 0.008686 -0.003876 -0.000911 0.000000 0.000000 0.000000
# 2 -0.003876 0.065485 -0.005013 0.000000 0.000000 0.000000
# 3 -0.000911 -0.005013 0.006815 0.000000 0.000000 0.000000
# 4 0.000000 0.000000 0.000000 0.054003 0.000000 0.000000
# 5 0.000000 0.000000 0.000000 0.000000 0.040597 0.000000
# 6 0.000000 0.000000 0.000000 0.000000 0.000000 0.039551
#
#
# Mechanical properties :
#
#
# Convention : Reuss Voigt Hill
#
# Bulk Modulus (GPa) = 16.29061 43.20513 29.74787
# Shear Modulus (GPa) = 19.59261 30.53987 25.06624
#
# Velocity S-wave (km/s) = 3.21929 4.01928 3.64132
# Velocity P-wave (km/s) = 4.73663 6.66285 5.78053
#
# Compressibility (1/GPa) = 0.06138507
#
# Stress axis : x y z
#
# Youngs Moduli (GPa) = 115.13314 15.27064 146.74452
#
# Poissons Ratio (x) = 0.05918 0.13373
# Poissons Ratio (y) = 0.44621 0.73566
# Poissons Ratio (z) = 0.10492 0.07655
#
# Static dielectric constant tensor:
#      x y z
#    x 1.741550 0.000000 0.000000 
#    y 0.000000 1.658350 0.000000 
#    z 0.000000 0.000000 1.717440 
# 
# From -- ./inp_files/23638.got.cif
#   From: 2010.05.17/outbox.cif.g08.bks.cpg/sg60_12_cif.got.tgz:23638.got - 2010.06.03 14:59:27.
