data_PCOD9453051
_publ_section_title
;
Structure prediction by ZEFSAII (Michael W. Deem and Ramdas Pophale) SiO2 
 PCOD9453051
Probable space group: P M M N
;
_chemical_formula_sum "Si O2"
_cell_formula_units_Z 40
_cell_length_a 8.651516
_cell_length_b 11.480905
_cell_length_c 20.495332
_cell_angle_alpha 90.000000
_cell_angle_beta 90.000000
_cell_angle_gamma 90.000000
_cell_volume 2035.744623
_symmetry_space_group_name_H-M "P M M N"
_symmetry_group_IT_number 59
_space_group.IT_coordinate_system_code '2'
_symmetry_cell_setting 'orthorhombic'
loop_
_space_group_symop_operation_xyz
x,y,z
1/2-x,1/2-y,z
1/2+x,-y,-z
-x,1/2+y,-z
-x,-y,-z
1/2+x,1/2+y,-z
1/2-x,y,z
x,1/2-y,z
loop_
_atom_site_type_symbol
_atom_site_label
_atom_site_fract_x
_atom_site_fract_y
_atom_site_fract_z
Si Si1 0.573912 0.111264 0.799368
Si Si2 0.923651 0.750000 0.743825
Si Si3 0.931591 0.472157 0.315935
Si Si4 0.068914 0.508412 0.927507
Si Si5 0.923715 0.750000 0.896260
Si Si6 0.064910 0.107696 0.454726
O O1 0.750000 0.065089 0.795616
O O2 0.576203 0.250000 0.802747
O O3 0.490416 0.074048 0.732048
O O4 0.501763 0.064797 0.867064
O O5 0.750000 0.750000 0.712453
O O6 0.900543 0.750000 0.819768
O O7 0.025368 0.859957 0.726031
O O8 0.750000 0.485246 0.328554
O O9 0.016824 0.440662 0.383489
O O10 0.250000 0.484610 0.929702
O O11 0.025241 0.639532 0.911639
O O12 0.000000 0.500000 0.000000
O O13 0.750000 0.750000 0.926940
O O14 0.250000 0.109289 0.462271
O O15 0.016944 0.250000 0.462082
O O16 0.000000 0.000000 0.500000
#
# Coordination Sequence:
#
# PCOD9453051 Si02
#       6
#     8   4   8   8   4   8
#     4  11  25  45  67  93 130 173 220 273 334 396
#     4  11  21  37  65  95 128 161 206 265 320 376
#     4  12  24  40  68 100 131 169 218 268 325 390
#     4  12  26  43  65  92 128 169 216 270 331 395
#     4  11  23  41  67  95 126 163 214 269 324 386
#     4  11  25  45  71 102 141 185 229 281 340 402
#
# _framework density 19.64883
#
# number of rings (size 3 to 8) (size 9 to 14) (size 15 to 20)
#    0.000    0.600    3.000    5.400    1.400    4.400 
#    0.000    0.000    0.000    0.000    0.000    0.000 
#    0.000    0.000    0.000    0.000    0.000    0.000 
#
# Total GULP energy -222862.012878 kJ/mol
# GULP energy per Si atom -5571.550322 kJ/mol
# Density = 1.960411 g / cm^3
# Si number density = 19.648830 Si / 1000 Ang^3
#
#
#
# Elastic Constant Matrix: (Units=GPa)
#
#
# Indices 1 2 3 4 5 6 
#
# 1 115.0828 28.6649 36.8666 0.0000 0.0000 0.0000
# 2 28.6649 114.2526 62.4333 0.0000 0.0000 0.0000
# 3 36.8666 62.4333 131.1903 0.0000 0.0000 0.0000
# 4 0.0000 0.0000 0.0000 49.3843 0.0000 0.0000
# 5 0.0000 0.0000 0.0000 0.0000 37.8971 0.0000
# 6 0.0000 0.0000 0.0000 0.0000 0.0000 35.2121
#
#
#
# Elastic Compliance Matrix: (Units=1/GPa)
#
#
# Indices 1 2 3 4 5 6 
#
# 1 0.009684 -0.001274 -0.002115 0.000000 0.000000 0.000000
# 2 -0.001274 0.011996 -0.005351 0.000000 0.000000 0.000000
# 3 -0.002115 -0.005351 0.010763 0.000000 0.000000 0.000000
# 4 0.000000 0.000000 0.000000 0.020249 0.000000 0.000000
# 5 0.000000 0.000000 0.000000 0.000000 0.026387 0.000000
# 6 0.000000 0.000000 0.000000 0.000000 0.000000 0.028399
#
#
# Mechanical properties :
#
#
# Convention : Reuss Voigt Hill
#
# Bulk Modulus (GPa) = 66.82788 68.49504 67.66146
# Shear Modulus (GPa) = 38.47697 40.00278 39.23987
#
# Velocity S-wave (km/s) = 4.42999 4.51697 4.47369
# Velocity P-wave (km/s) = 7.76218 7.88285 7.82275
#
# Compressibility (1/GPa) = 0.01496381
#
# Stress axis : x y z
#
# Youngs Moduli (GPa) = 103.25994 83.35988 92.90696
#
# Poissons Ratio (x) = 0.10619 0.19652
# Poissons Ratio (y) = 0.13154 0.49714
# Poissons Ratio (z) = 0.21842 0.44606
#
# Static dielectric constant tensor:
#      x y z
#    x 1.921300 0.000000 0.000000 
#    y 0.000000 1.733520 0.000000 
#    z 0.000000 0.000000 2.434920 
# 
# From -- ./inp_files/28789.got.cif
#   From: 2010.05.17/outbox.cif.g08.bks.cpg/sg59_15_cif.got.tgz:28789.got - 2010.06.03 14:40:33.
