data_PCOD9453620
_publ_section_title
;
Structure prediction by ZEFSAII (Michael W. Deem and Ramdas Pophale) SiO2 
 PCOD9453620
Probable space group: P M M N
;
_chemical_formula_sum "Si O2"
_cell_formula_units_Z 56
_cell_length_a 9.000000
_cell_length_b 21.000000
_cell_length_c 15.000000
_cell_angle_alpha 90.000000
_cell_angle_beta 90.000000
_cell_angle_gamma 90.000000
_cell_volume 2835.000000
_symmetry_space_group_name_H-M "P M M N"
_symmetry_group_IT_number 59
_space_group.IT_coordinate_system_code '2'
_symmetry_cell_setting 'orthorhombic'
loop_
_space_group_symop_operation_xyz
x,y,z
1/2-x,1/2-y,z
1/2+x,-y,-z
-x,1/2+y,-z
-x,-y,-z
1/2+x,1/2+y,-z
1/2-x,y,z
x,1/2-y,z
loop_
_atom_site_type_symbol
_atom_site_label
_atom_site_fract_x
_atom_site_fract_y
_atom_site_fract_z
Si Si1 0.419546 0.105399 0.331171
Si Si2 0.923454 0.009333 0.093072
Si Si3 0.429428 0.750000 0.187004
Si Si4 0.573986 0.523290 0.279149
Si Si5 0.924064 0.750000 0.995823
Si Si6 0.915707 0.178236 0.473632
Si Si7 0.576159 0.145724 0.674094
Si Si8 0.423137 0.136373 0.140278
O O1 0.250000 0.084324 0.332054
O O2 0.464532 0.138120 0.421847
O O3 0.437596 0.151793 0.245176
O O4 0.518026 0.043737 0.314343
O O5 0.750000 0.998329 0.082844
O O6 0.961852 0.080588 0.122110
O O7 0.980346 0.968194 0.176557
O O8 0.000000 0.000000 0.000000
O O9 0.250000 0.750000 0.188768
O O10 0.479597 0.689026 0.244659
O O11 0.484878 0.750000 0.086500
O O12 0.750000 0.523718 0.277657
O O13 0.510495 0.580661 0.334454
O O14 0.750000 0.750000 0.020141
O O15 0.951152 0.809560 0.931332
O O16 0.750000 0.151771 0.456316
O O17 0.920180 0.250000 0.439563
O O18 0.935937 0.179739 0.579349
O O19 0.750000 0.132649 0.689868
O O20 0.250000 0.115030 0.128259
#
# Coordination Sequence:
#
# PCOD9453620 Si02
#       8
#     8   8   4   8   4   8   8   8
#     4  10  21  38  62  89 118 152 193 239 289 345
#     4  10  21  36  56  81 112 148 191 237 284 337
#     4  10  22  40  59  84 116 152 197 242 283 344
#     4  10  22  39  59  85 117 151 192 241 291 342
#     4  10  22  38  57  82 116 154 189 232 287 338
#     4  10  21  39  62  87 117 155 192 234 290 346
#     4  10  21  40  63  85 116 154 194 238 290 345
#     4   9  20  38  57  81 116 152 188 230 282 339
#
# _framework density 19.753086
#
# number of rings (size 3 to 8) (size 9 to 14) (size 15 to 20)
#    0.000    2.143    0.714    1.286    3.000    4.857 
#    0.000    0.000    0.000    0.000    0.000    0.000 
#    0.000    0.000    0.000    0.000    0.000    0.000 
#
# Total GULP energy -311981.352184 kJ/mol
# GULP energy per Si atom -5571.095575 kJ/mol
# Density = 1.970813 g / cm^3
# Si number density = 19.753086 Si / 1000 Ang^3
#
#
#
# Elastic Constant Matrix: (Units=GPa)
#
#
# Indices 1 2 3 4 5 6 
#
# 1 12.7240 22.4191 37.3182 0.0000 0.0000 0.0000
# 2 22.4191 38.9430 29.0636 0.0000 0.0000 0.0000
# 3 37.3182 29.0636 31.7479 0.0000 0.0000 0.0000
# 4 0.0000 0.0000 0.0000 15.2169 0.0000 0.0000
# 5 0.0000 0.0000 0.0000 0.0000 29.0680 0.0000
# 6 0.0000 0.0000 0.0000 0.0000 0.0000 12.7317
#
#
#
# Elastic Compliance Matrix: (Units=1/GPa)
#
#
# Indices 1 2 3 4 5 6 
#
# 1 -0.023629 -0.022493 0.048366 0.000000 0.000000 0.000000
# 2 -0.022493 0.059647 -0.028164 0.000000 0.000000 0.000000
# 3 0.048366 -0.028164 0.000429 0.000000 0.000000 0.000000
# 4 0.000000 0.000000 0.000000 0.065716 0.000000 0.000000
# 5 0.000000 0.000000 0.000000 0.000000 0.034402 0.000000
# 6 0.000000 0.000000 0.000000 0.000000 0.000000 0.078544
#
#
# Mechanical properties :
#
#
# Convention : Reuss Voigt Hill
#
# Bulk Modulus (GPa) = 31.38290 29.00185 30.19238
# Shear Modulus (GPa) = 21.70962 11.04424 16.37693
#
# Velocity S-wave (km/s) = 3.31879 2.36713 2.88250
# Velocity P-wave (km/s) = 5.53244 4.71011 5.13775
#
# Compressibility (1/GPa) = 0.03186449
#
# Stress axis : x y z
#
# Youngs Moduli (GPa) = -42.32113 16.76538 2333.52953
#
# Poissons Ratio (x) = 0.37711 -112.86376
# Poissons Ratio (y) = -0.95194 65.72086
# Poissons Ratio (z) = 2.04691 0.47218
#
# Static dielectric constant tensor:
#      x y z
#    x 1.678100 0.000000 0.000000 
#    y 0.000000 1.661460 0.000000 
#    z 0.000000 0.000000 1.715820 
# 
# From -- ./inp_files/21239.got.cif
#   From: 2010.05.17/outbox.ucp.g08.bks.cvg/sg59_11_cif.got.tgz:21239.got - 2010.06.11 16:43:56.
