data_PCOD9453200
_publ_section_title
;
Structure prediction by ZEFSAII (Michael W. Deem and Ramdas Pophale) SiO2 
 PCOD9453200
Probable space group: P M M N
;
_chemical_formula_sum "Si O2"
_cell_formula_units_Z 64
_cell_length_a 14.239722
_cell_length_b 14.028066
_cell_length_c 16.535350
_cell_angle_alpha 90.000000
_cell_angle_beta 90.000000
_cell_angle_gamma 90.000000
_cell_volume 3303.031407
_symmetry_space_group_name_H-M "P M M N"
_symmetry_group_IT_number 59
_space_group.IT_coordinate_system_code '2'
_symmetry_cell_setting 'orthorhombic'
loop_
_space_group_symop_operation_xyz
x,y,z
1/2-x,1/2-y,z
1/2+x,-y,-z
-x,1/2+y,-z
-x,-y,-z
1/2+x,1/2+y,-z
1/2-x,y,z
x,1/2-y,z
loop_
_atom_site_type_symbol
_atom_site_label
_atom_site_fract_x
_atom_site_fract_y
_atom_site_fract_z
Si Si1 0.864818 0.138456 0.494372
Si Si2 0.862818 0.135507 0.318373
Si Si3 0.141073 0.635059 0.178356
Si Si4 0.144703 0.366454 0.068198
Si Si5 0.364499 0.535367 0.344249
Si Si6 0.034486 0.633782 0.018697
Si Si7 0.359599 0.634039 0.855986
Si Si8 0.135502 0.143138 0.250523
O O1 0.750000 0.136900 0.493940
O O2 0.891024 0.250000 0.503734
O O3 0.895794 0.100735 0.406175
O O4 0.897840 0.078213 0.571298
O O5 0.750000 0.119564 0.315170
O O6 0.874906 0.250000 0.321144
O O7 0.899297 0.100593 0.231208
O O8 0.250000 0.605660 0.166687
O O9 0.139263 0.750000 0.179750
O O10 0.109571 0.597604 0.265602
O O11 0.080577 0.601326 0.101949
O O12 0.250000 0.401148 0.054703
O O13 0.147253 0.250000 0.069059
O O14 0.112647 0.390345 0.159535
O O15 0.071780 0.395511 0.999926
O O16 0.250000 0.536861 0.347533
O O17 0.393753 0.428871 0.320170
O O18 0.037032 0.750000 0.021264
O O19 0.090243 0.605287 0.938061
O O20 0.250000 0.608411 0.861189
O O21 0.364430 0.750000 0.853457
O O22 0.250000 0.146710 0.250731
O O23 0.099569 0.250000 0.262397
#
# Coordination Sequence:
#
# PCOD9453200 Si02
#       8
#     8   8   8   8   8   8   8   8
#     4   8  12  18  29  47  72 101 130 155 180 217
#     4   7  10  16  26  42  67  98 128 154 175 202
#     4   9  16  24  33  50  80 112 135 153 176 220
#     4   8  14  25  39  52  66  87 119 163 211 245
#     4   9  15  22  34  51  71  99 131 158 189 231
#     4   9  15  22  34  51  71  99 131 158 189 231
#     4   8  12  18  29  47  72 101 130 155 180 217
#     4   8  14  25  39  52  66  87 119 163 211 245
#
# _framework density 19.376139999999999
#
# number of rings (size 3 to 8) (size 9 to 14) (size 15 to 20)
#    0.000    3.750    0.000    3.000    0.000    3.000 
#    0.000    0.625    0.000    0.000    0.000    0.875 
#    0.000    0.000    0.000    2.250    0.000   57.000 
#
# Total GULP energy -356727.832440 kJ/mol
# GULP energy per Si atom -5573.872382 kJ/mol
# Density = 1.933204 g / cm^3
# Si number density = 19.376140 Si / 1000 Ang^3
#
#
#
# Elastic Constant Matrix: (Units=GPa)
#
#
# Indices 1 2 3 4 5 6 
#
# 1 49.7502 10.1918 43.1369 0.0000 0.0000 0.0000
# 2 10.1918 55.7582 33.1898 0.0000 0.0000 0.0000
# 3 43.1369 33.1898 142.5040 0.0000 0.0000 0.0000
# 4 0.0000 0.0000 0.0000 3.2540 0.0000 0.0000
# 5 0.0000 0.0000 0.0000 0.0000 10.1303 0.0000
# 6 0.0000 0.0000 0.0000 0.0000 0.0000 1.4649
#
#
#
# Elastic Compliance Matrix: (Units=1/GPa)
#
#
# Indices 1 2 3 4 5 6 
#
# 1 0.027254 -0.000082 -0.008231 0.000000 0.000000 0.000000
# 2 -0.000082 0.020821 -0.004824 0.000000 0.000000 0.000000
# 3 -0.008231 -0.004824 0.010633 0.000000 0.000000 0.000000
# 4 0.000000 0.000000 0.000000 0.307313 0.000000 0.000000
# 5 0.000000 0.000000 0.000000 0.000000 0.098713 0.000000
# 6 0.000000 0.000000 0.000000 0.000000 0.000000 0.682655
#
#
# Mechanical properties :
#
#
# Convention : Reuss Voigt Hill
#
# Bulk Modulus (GPa) = 30.83305 46.78327 38.80816
# Shear Modulus (GPa) = 4.22128 13.73611 8.97869
#
# Velocity S-wave (km/s) = 1.47761 2.66544 2.15498
# Velocity P-wave (km/s) = 4.34264 5.80258 5.12487
#
# Compressibility (1/GPa) = 0.03243273
#
# Stress axis : x y z
#
# Youngs Moduli (GPa) = 36.69189 48.02762 94.05119
#
# Poissons Ratio (x) = 0.00395 0.77412
# Poissons Ratio (y) = 0.00302 0.45375
# Poissons Ratio (z) = 0.30200 0.23171
#
# Static dielectric constant tensor:
#      x y z
#    x 1.714000 0.000000 0.000000 
#    y 0.000000 1.700650 0.000000 
#    z 0.000000 0.000000 1.687070 
# 
# From -- ./inp_files/27713.got.cif
#   From: 2010.05.17/outbox.cif.g08.bks.cpg/sg59_14_cif.got.tgz:27713.got - 2010.06.03 14:40:33.
