data_PCOD9453043
_publ_section_title
;
Structure prediction by ZEFSAII (Michael W. Deem and Ramdas Pophale) SiO2 
 PCOD9453043
Probable space group: P M M N
;
_chemical_formula_sum "Si O2"
_cell_formula_units_Z 40
_cell_length_a 10.078830
_cell_length_b 8.682632
_cell_length_c 24.682519
_cell_angle_alpha 90.000000
_cell_angle_beta 90.000000
_cell_angle_gamma 90.000000
_cell_volume 2159.986290
_symmetry_space_group_name_H-M "P M M N"
_symmetry_group_IT_number 59
_space_group.IT_coordinate_system_code '2'
_symmetry_cell_setting 'orthorhombic'
loop_
_space_group_symop_operation_xyz
x,y,z
1/2-x,1/2-y,z
1/2+x,-y,-z
-x,1/2+y,-z
-x,-y,-z
1/2+x,1/2+y,-z
1/2-x,y,z
x,1/2-y,z
loop_
_atom_site_type_symbol
_atom_site_label
_atom_site_fract_x
_atom_site_fract_y
_atom_site_fract_z
Si Si1 0.906405 0.065052 0.547832
Si Si2 0.250000 0.065817 0.061918
Si Si3 0.097673 0.564929 0.764918
Si Si4 0.507594 0.434232 0.871200
Si Si5 0.750000 0.562865 0.062296
Si Si6 0.595949 0.436002 0.361000
O O1 0.750000 0.015576 0.545286
O O2 0.906312 0.250000 0.544568
O O3 0.000000 0.000000 0.500000
O O4 0.984045 0.010988 0.601699
O O5 0.250000 0.250000 0.060445
O O6 0.373989 0.005489 0.095246
O O7 0.250000 0.008705 0.999717
O O8 0.250000 0.517701 0.776804
O O9 0.090563 0.750000 0.769125
O O10 0.072537 0.525319 0.702183
O O11 0.004020 0.490536 0.809548
O O12 0.515679 0.250000 0.871818
O O13 0.377129 0.485659 0.903775
O O14 0.750000 0.750000 0.060828
O O15 0.750000 0.479825 0.374696
O O16 0.589659 0.250000 0.366607
#
# Coordination Sequence:
#
# PCOD9453043 Si02
#       6
#     8   4   8   8   4   8
#     4  11  24  40  59  87 121 156 196 239 284 336
#     4  11  23  39  55  79 113 151 190 235 288 349
#     4   9  18  35  59  86 114 149 193 236 282 342
#     4  11  21  37  58  84 114 147 187 238 294 346
#     4   9  20  37  59  83 111 143 188 239 288 347
#     4   9  19  37  61  88 117 149 191 239 283 335
#
# _framework density 18.518636999999998
#
# number of rings (size 3 to 8) (size 9 to 14) (size 15 to 20)
#    0.000    2.000    1.000    3.900    0.000    5.200 
#    1.800    5.000    0.000    0.000    0.000    0.000 
#    0.000    0.000    0.000    0.000    0.000    0.000 
#
# Total GULP energy -223226.569647 kJ/mol
# GULP energy per Si atom -5580.664241 kJ/mol
# Density = 1.847649 g / cm^3
# Si number density = 18.518637 Si / 1000 Ang^3
#
#
#
# Elastic Constant Matrix: (Units=GPa)
#
#
# Indices 1 2 3 4 5 6 
#
# 1 155.0306 37.3371 79.0175 0.0000 0.0000 0.0000
# 2 37.3371 35.9242 37.0199 0.0000 0.0000 0.0000
# 3 79.0175 37.0199 128.9151 0.0000 0.0000 0.0000
# 4 0.0000 0.0000 0.0000 27.4943 0.0000 0.0000
# 5 0.0000 0.0000 0.0000 0.0000 24.3133 0.0000
# 6 0.0000 0.0000 0.0000 0.0000 0.0000 36.8998
#
#
#
# Elastic Compliance Matrix: (Units=1/GPa)
#
#
# Indices 1 2 3 4 5 6 
#
# 1 0.010192 -0.005902 -0.004552 0.000000 0.000000 0.000000
# 2 -0.005902 0.042953 -0.008717 0.000000 0.000000 0.000000
# 3 -0.004552 -0.008717 0.013051 0.000000 0.000000 0.000000
# 4 0.000000 0.000000 0.000000 0.036371 0.000000 0.000000
# 5 0.000000 0.000000 0.000000 0.000000 0.041130 0.000000
# 6 0.000000 0.000000 0.000000 0.000000 0.000000 0.027100
#
#
# Mechanical properties :
#
#
# Convention : Reuss Voigt Hill
#
# Bulk Modulus (GPa) = 35.90234 69.62432 52.76333
# Shear Modulus (GPa) = 22.89125 28.84119 25.86622
#
# Velocity S-wave (km/s) = 3.51966 3.95069 3.74139
# Velocity P-wave (km/s) = 5.99555 7.64782 6.87153
#
# Compressibility (1/GPa) = 0.02785334
#
# Stress axis : x y z
#
# Youngs Moduli (GPa) = 98.11665 23.28114 76.62446
#
# Poissons Ratio (x) = 0.13740 0.34882
# Poissons Ratio (y) = 0.57905 0.66796
# Poissons Ratio (z) = 0.44666 0.20295
#
# Static dielectric constant tensor:
#      x y z
#    x 1.590660 0.000000 0.000000 
#    y 0.000000 1.623600 0.000000 
#    z 0.000000 0.000000 1.634670 
# 
# From -- ./inp_files/31165.got.cif
#   From: 2010.05.17/outbox.cif.g08.bks.cpg/sg59_16_cif.got.tgz:31165.got - 2010.06.03 14:40:33.
