data_PCOD9453646
_publ_section_title
;
Structure prediction by ZEFSAII (Michael W. Deem and Ramdas Pophale) SiO2 
 PCOD9453646
Probable space group: P M M N
;
_chemical_formula_sum "Si O2"
_cell_formula_units_Z 40
_cell_length_a 9.000000
_cell_length_b 27.000000
_cell_length_c 9.000000
_cell_angle_alpha 90.000000
_cell_angle_beta 90.000000
_cell_angle_gamma 90.000000
_cell_volume 2187.000000
_symmetry_space_group_name_H-M "P M M N"
_symmetry_group_IT_number 59
_space_group.IT_coordinate_system_code '2'
_symmetry_cell_setting 'orthorhombic'
loop_
_space_group_symop_operation_xyz
x,y,z
1/2-x,1/2-y,z
1/2+x,-y,-z
-x,1/2+y,-z
-x,-y,-z
1/2+x,1/2+y,-z
1/2-x,y,z
x,1/2-y,z
loop_
_atom_site_type_symbol
_atom_site_label
_atom_site_fract_x
_atom_site_fract_y
_atom_site_fract_z
Si Si1 0.425788 0.651612 0.797367
Si Si2 0.074403 0.447323 0.180564
Si Si3 0.072780 0.553123 0.143711
Si Si4 0.570355 0.250000 0.366783
Si Si5 0.423390 0.250000 0.684378
Si Si6 0.923781 0.161815 0.847701
O O1 0.250000 0.647590 0.772812
O O2 0.498159 0.600137 0.747965
O O3 0.482579 0.700247 0.714763
O O4 0.446481 0.658751 0.974528
O O5 0.250000 0.440786 0.186775
O O6 0.037695 0.503142 0.233249
O O7 0.019910 0.447441 0.008820
O O8 0.250000 0.551341 0.105057
O O9 0.048668 0.606634 0.215161
O O10 0.750000 0.250000 0.359206
O O11 0.516511 0.250000 0.533861
O O12 0.250000 0.250000 0.652340
O O13 0.471176 0.297901 0.777332
O O14 0.750000 0.174789 0.822702
#
# Coordination Sequence:
#
# PCOD9453646 Si02
#       6
#     8   8   8   4   4   8
#     4   9  18  33  54  77  98 126 167 206 239 287
#     4   9  15  24  43  73 105 130 153 193 247 289
#     4   8  15  27  44  69 100 132 164 195 231 284
#     4  10  21  38  56  70  92 132 173 204 242 296
#     4  12  25  36  48  72 102 128 161 208 256 294
#     4   9  17  33  55  75  98 130 166 200 235 286
#
# _framework density 18.289895000000001
#
# number of rings (size 3 to 8) (size 9 to 14) (size 15 to 20)
#    0.000    2.800    0.000    3.300    0.000    6.400 
#    0.000    1.000    0.000    1.200    0.000    0.000 
#    0.000    0.000    0.000    0.000    0.000    0.000 
#
# Total GULP energy -222727.128173 kJ/mol
# GULP energy per Si atom -5568.178204 kJ/mol
# Density = 1.824827 g / cm^3
# Si number density = 18.289895 Si / 1000 Ang^3
#
#
#
# Elastic Constant Matrix: (Units=GPa)
#
#
# Indices 1 2 3 4 5 6 
#
# 1 10.0484 35.7518 7.0599 0.0000 0.0000 0.0000
# 2 35.7518 132.6152 13.0997 0.0000 0.0000 0.0000
# 3 7.0599 13.0997 -2.3133 0.0000 0.0000 0.0000
# 4 0.0000 0.0000 0.0000 -17.6828 0.0000 0.0000
# 5 0.0000 0.0000 0.0000 0.0000 10.9567 0.0000
# 6 0.0000 0.0000 0.0000 0.0000 0.0000 31.0058
#
#
#
# Elastic Compliance Matrix: (Units=1/GPa)
#
#
# Indices 1 2 3 4 5 6 
#
# 1 0.258987 -0.094843 0.253319 0.000000 0.000000 0.000000
# 2 -0.094843 0.039568 -0.065385 0.000000 0.000000 0.000000
# 3 0.253319 -0.065385 -0.029438 0.000000 0.000000 0.000000
# 4 0.000000 0.000000 0.000000 -0.056552 0.000000 0.000000
# 5 0.000000 0.000000 0.000000 0.000000 0.091268 0.000000
# 6 0.000000 0.000000 0.000000 0.000000 0.000000 0.032252
#
#
# Mechanical properties :
#
#
# Convention : Reuss Voigt Hill
#
# Bulk Modulus (GPa) = 2.19635 28.01925 15.10780
# Shear Modulus (GPa) = 16.57444 10.48519 13.52981
#
# Velocity S-wave (km/s) = 3.01359 2.39692 2.72277
# Velocity P-wave (km/s) = 3.64862 4.79719 4.26178
#
# Compressibility (1/GPa) = 0.45530013
#
# Stress axis : x y z
#
# Youngs Moduli (GPa) = 3.86120 25.27283 -33.96995
#
# Poissons Ratio (x) = 2.39696 8.60525
# Poissons Ratio (y) = 0.36621 -2.22111
# Poissons Ratio (z) = -0.97812 1.65246
#
# Static dielectric constant tensor:
#      x y z
#    x 1.614610 0.000000 0.000000 
#    y 0.000000 1.704880 0.000000 
#    z 0.000000 0.000000 1.583290 
# 
# From -- ./inp_files/5956.got.cif
#   From: 2010.05.17/outbox.ucp.g08.bks.cvg/sg59_3_cif.got.tgz:5956.got - 2010.06.11 16:43:56.
