data_PCOD9453750
_publ_section_title
;
Structure prediction by ZEFSAII (Michael W. Deem and Ramdas Pophale) SiO2 
 PCOD9453750
Probable space group: P B C N
;
_chemical_formula_sum "Si O2"
_cell_formula_units_Z 56
_cell_length_a 18.913218
_cell_length_b 9.002667
_cell_length_c 18.231984
_cell_angle_alpha 90.000000
_cell_angle_beta 90.000000
_cell_angle_gamma 90.000000
_cell_volume 3104.349041
_symmetry_space_group_name_H-M "P B C N"
_symmetry_group_IT_number 60
_symmetry_cell_setting 'orthorhombic'
loop_
_space_group_symop_operation_xyz
x,y,z
1/2-x,1/2-y,1/2+z
1/2+x,1/2-y,-z
-x,y,1/2-z
-x,-y,-z
1/2+x,1/2+y,1/2-z
1/2-x,1/2+y,z
x,-y,1/2+z
loop_
_atom_site_type_symbol
_atom_site_label
_atom_site_fract_x
_atom_site_fract_y
_atom_site_fract_z
Si Si1 0.280241 0.343841 0.566217
Si Si2 0.823581 0.620233 0.557571
Si Si3 0.164126 0.866083 0.132687
Si Si4 0.091673 0.141786 0.953725
Si Si5 0.562158 0.696902 0.001865
Si Si6 0.345789 0.644868 0.796530
Si Si7 0.254621 0.619821 0.352114
O O1 0.218401 0.417926 0.516628
O O2 0.316493 0.462541 0.619079
O O3 0.237161 0.221204 0.612544
O O4 0.341686 0.311036 0.505065
O O5 0.904242 0.664441 0.544978
O O6 0.789315 0.775723 0.585934
O O7 0.802975 0.491825 0.613418
O O8 0.130480 0.848700 0.212954
O O9 0.107073 0.815369 0.072842
O O10 0.106684 0.176897 0.868356
O O11 0.078459 0.963002 0.960069
O O12 0.020100 0.211276 0.984986
O O13 0.283381 0.766064 0.799110
O O14 0.311994 0.484444 0.814130
#
# Coordination Sequence:
#
# PCOD9453750 Si02
#       7
#     8   8   8   8   8   8   8
#     4  10  18  33  54  76 101 134 167 222 249 304
#     4  10  16  32  53  77 100 131 176 223 250 295
#     4  10  21  33  51  77 111 130 168 210 275 299
#     4  10  18  32  55  76 104 133 181 208 258 302
#     4   9  19  33  51  79 102 137 170 223 250 309
#     4  11  20  32  51  80 104 138 167 213 262 319
#     4  10  18  29  53  79  99 132 176 217 249 304
#
# _framework density 18.039209
#
# number of rings (size 3 to 8) (size 9 to 14) (size 15 to 20)
#    0.000    2.000    4.286    2.571    0.000    0.571 
#    0.000    0.714    0.000    0.000    0.000    0.000 
#    0.000    0.000    0.000    0.000    0.000    0.000 
#
# Total GULP energy -311777.294280 kJ/mol
# GULP energy per Si atom -5567.451684 kJ/mol
# Density = 1.799815 g / cm^3
# Si number density = 18.039209 Si / 1000 Ang^3
#
#
#
# Elastic Constant Matrix: (Units=GPa)
#
#
# Indices 1 2 3 4 5 6 
#
# 1 71.3412 2.2797 4.1580 0.0000 0.0000 0.0000
# 2 2.2797 36.2263 6.6093 0.0000 0.0000 0.0000
# 3 4.1580 6.6093 71.8180 0.0000 0.0000 0.0000
# 4 0.0000 0.0000 0.0000 10.7981 0.0000 0.0000
# 5 0.0000 0.0000 0.0000 0.0000 7.8520 0.0000
# 6 0.0000 0.0000 0.0000 0.0000 0.0000 19.8958
#
#
#
# Elastic Compliance Matrix: (Units=1/GPa)
#
#
# Indices 1 2 3 4 5 6 
#
# 1 0.014085 -0.000750 -0.000746 0.000000 0.000000 0.000000
# 2 -0.000750 0.028116 -0.002544 0.000000 0.000000 0.000000
# 3 -0.000746 -0.002544 0.014201 0.000000 0.000000 0.000000
# 4 0.000000 0.000000 0.000000 0.092609 0.000000 0.000000
# 5 0.000000 0.000000 0.000000 0.000000 0.127357 0.000000
# 6 0.000000 0.000000 0.000000 0.000000 0.000000 0.050262
#
#
# Mechanical properties :
#
#
# Convention : Reuss Voigt Hill
#
# Bulk Modulus (GPa) = 20.69515 22.83105 21.76310
# Shear Modulus (GPa) = 14.25243 18.79840 16.52542
#
# Velocity S-wave (km/s) = 2.81389 3.23164 3.02997
# Velocity P-wave (km/s) = 4.69622 5.15834 4.93270
#
# Compressibility (1/GPa) = 0.04832051
#
# Stress axis : x y z
#
# Youngs Moduli (GPa) = 70.99943 35.56740 70.41545
#
# Poissons Ratio (x) = 0.02668 0.05256
# Poissons Ratio (y) = 0.05326 0.17914
# Poissons Ratio (z) = 0.05299 0.09048
#
# Static dielectric constant tensor:
#      x y z
#    x 1.626560 0.000000 0.000000 
#    y 0.000000 1.639150 0.000000 
#    z 0.000000 0.000000 1.666390 
# 
# From -- ./inp_files/21022.got.cif
#   From: 2010.05.17/outbox.cif.g08.bks.cpg/sg60_11_cif.got.tgz:21022.got - 2010.06.03 14:59:27.
