data_PCOD9453926
_publ_section_title
;
Structure prediction by ZEFSAII (Michael W. Deem and Ramdas Pophale) SiO2 
 PCOD9453926
Probable space group: P B C N
;
_chemical_formula_sum "Si O2"
_cell_formula_units_Z 64
_cell_length_a 16.300601
_cell_length_b 20.731883
_cell_length_c 8.578656
_cell_angle_alpha 90.000000
_cell_angle_beta 90.000000
_cell_angle_gamma 90.000000
_cell_volume 2899.089476
_symmetry_space_group_name_H-M "P B C N"
_symmetry_group_IT_number 60
_symmetry_cell_setting 'orthorhombic'
loop_
_space_group_symop_operation_xyz
x,y,z
1/2-x,1/2-y,1/2+z
1/2+x,1/2-y,-z
-x,y,1/2-z
-x,-y,-z
1/2+x,1/2+y,1/2-z
1/2-x,1/2+y,z
x,-y,1/2+z
loop_
_atom_site_type_symbol
_atom_site_label
_atom_site_fract_x
_atom_site_fract_y
_atom_site_fract_z
Si Si1 0.758157 0.084304 0.762084
Si Si2 0.167388 0.504643 0.474490
Si Si3 0.959938 0.936112 0.921373
Si Si4 0.128730 0.406393 0.719798
Si Si5 0.411174 0.632143 0.587218
Si Si6 0.868342 0.730117 0.326727
Si Si7 0.178518 0.133315 0.251287
Si Si8 0.783518 0.728701 0.665398
O O1 0.714313 0.051909 0.909136
O O2 0.855373 0.091075 0.793517
O O3 0.721824 0.156436 0.735027
O O4 0.733729 0.035403 0.625869
O O5 0.119231 0.450710 0.569750
O O6 0.110742 0.548433 0.365539
O O7 0.997857 0.885981 0.041994
O O8 0.000000 0.933862 0.750000
O O9 0.869295 0.910612 0.875482
O O10 0.000000 0.000000 0.000000
O O11 0.088513 0.337285 0.700917
O O12 0.226634 0.388308 0.738838
O O13 0.415617 0.705029 0.641960
O O14 0.358867 0.623427 0.425055
O O15 0.815872 0.723892 0.489209
O O16 0.809189 0.745512 0.180889
O O17 0.170843 0.212268 0.242050
#
# Coordination Sequence:
#
# PCOD9453926 Si02
#       8
#     8   8   8   8   8   8   8   8
#     4  10  18  30  44  67  93 125 150 186 230 277
#     4  10  20  26  44  67  98 117 150 180 232 286
#     4  10  22  34  48  66  92 123 159 192 222 257
#     4  10  18  30  44  67  93 125 150 186 230 277
#     4   9  18  32  48  64  89 122 162 194 221 263
#     4   9  17  30  46  64  87 118 155 191 228 268
#     4   9  18  32  48  64  89 122 162 194 221 263
#     4   9  17  30  46  64  87 118 155 191 228 268
#
# _framework density 22.075897000000001
#
# number of rings (size 3 to 8) (size 9 to 14) (size 15 to 20)
#    0.000    2.500    2.500    0.000    5.250    0.000 
#    0.000    0.000    0.000    0.000    0.000    0.000 
#    0.000    6.000    0.000    0.000    0.000    0.500 
#
# Total GULP energy -356559.927060 kJ/mol
# GULP energy per Si atom -5571.248860 kJ/mol
# Density = 2.202565 g / cm^3
# Si number density = 22.075897 Si / 1000 Ang^3
#
#
#
# Elastic Constant Matrix: (Units=GPa)
#
#
# Indices 1 2 3 4 5 6 
#
# 1 41.6813 3.6586 15.9604 0.0000 0.0000 0.0000
# 2 3.6586 114.0247 30.9976 0.0000 0.0000 0.0000
# 3 15.9604 30.9976 80.6145 0.0000 0.0000 0.0000
# 4 0.0000 0.0000 0.0000 22.4084 0.0000 0.0000
# 5 0.0000 0.0000 0.0000 0.0000 12.6761 0.0000
# 6 0.0000 0.0000 0.0000 0.0000 0.0000 5.0327
#
#
#
# Elastic Compliance Matrix: (Units=1/GPa)
#
#
# Indices 1 2 3 4 5 6 
#
# 1 0.026000 0.000631 -0.005390 0.000000 0.000000 0.000000
# 2 0.000631 0.009809 -0.003897 0.000000 0.000000 0.000000
# 3 -0.005390 -0.003897 0.014970 0.000000 0.000000 0.000000
# 4 0.000000 0.000000 0.000000 0.044626 0.000000 0.000000
# 5 0.000000 0.000000 0.000000 0.000000 0.078889 0.000000
# 6 0.000000 0.000000 0.000000 0.000000 0.000000 0.198701
#
#
# Mechanical properties :
#
#
# Convention : Reuss Voigt Hill
#
# Bulk Modulus (GPa) = 29.87953 37.50598 33.69275
# Shear Modulus (GPa) = 12.45445 20.40370 16.42907
#
# Velocity S-wave (km/s) = 2.37779 3.04345 2.73098
# Velocity P-wave (km/s) = 4.59378 5.42001 5.02391
#
# Compressibility (1/GPa) = 0.03346773
#
# Stress axis : x y z
#
# Youngs Moduli (GPa) = 38.46127 101.94620 66.79913
#
# Poissons Ratio (x) = -0.06434 0.36007
# Poissons Ratio (y) = -0.02427 0.26030
# Poissons Ratio (z) = 0.20732 0.39725
#
# Static dielectric constant tensor:
#      x y z
#    x 1.858350 0.000000 0.000000 
#    y 0.000000 1.923560 0.000000 
#    z 0.000000 0.000000 1.835640 
# 
# From -- ./inp_files/7042.got.cif
#   From: 2010.05.17/outbox.cif.g08.bks.cpg/sg60_4_cif.got.tgz:7042.got - 2010.06.03 14:59:27.
