data_PCOD9453057
_publ_section_title
;
Structure prediction by ZEFSAII (Michael W. Deem and Ramdas Pophale) SiO2 
 PCOD9453057
Probable space group: P M M N
;
_chemical_formula_sum "Si O2"
_cell_formula_units_Z 40
_cell_length_a 10.356036
_cell_length_b 8.672526
_cell_length_c 24.270179
_cell_angle_alpha 90.000000
_cell_angle_beta 90.000000
_cell_angle_gamma 90.000000
_cell_volume 2179.777379
_symmetry_space_group_name_H-M "P M M N"
_symmetry_group_IT_number 59
_space_group.IT_coordinate_system_code '2'
_symmetry_cell_setting 'orthorhombic'
loop_
_space_group_symop_operation_xyz
x,y,z
1/2-x,1/2-y,z
1/2+x,-y,-z
-x,1/2+y,-z
-x,-y,-z
1/2+x,1/2+y,-z
1/2-x,y,z
x,1/2-y,z
loop_
_atom_site_type_symbol
_atom_site_label
_atom_site_fract_x
_atom_site_fract_y
_atom_site_fract_z
Si Si1 0.750000 0.937328 0.579713
Si Si2 0.898770 0.936128 0.830387
Si Si3 0.973665 0.064427 0.375233
Si Si4 0.103071 0.064146 0.042531
Si Si5 0.250000 0.435582 0.547946
Si Si6 0.602272 0.934537 0.256161
O O1 0.750000 0.750000 0.579994
O O2 0.618883 0.986289 0.609711
O O3 0.750000 0.985132 0.515811
O O4 0.750000 0.978821 0.817106
O O5 0.906494 0.750000 0.827038
O O6 0.923761 0.981025 0.894014
O O7 0.001153 0.008054 0.789108
O O8 0.967875 0.250000 0.376272
O O9 0.874703 0.998640 0.420163
O O10 0.932824 0.005857 0.315272
O O11 0.250000 0.014945 0.029219
O O12 0.100396 0.250000 0.040819
O O13 0.000000 0.000000 0.000000
O O14 0.250000 0.250000 0.550222
O O15 0.750000 0.978321 0.242007
O O16 0.596437 0.750000 0.260404
#
# Coordination Sequence:
#
# PCOD9453057 Si02
#       6
#     4   8   8   8   4   8
#     4   9  22  39  59  87 115 145 188 235 282 337
#     4   9  20  39  61  84 113 151 194 238 282 336
#     4  11  22  39  61  85 112 150 193 231 280 345
#     4   9  19  36  57  84 118 154 192 235 283 333
#     4  11  21  39  61  85 119 149 180 235 288 333
#     4  11  24  40  57  82 116 149 186 238 293 339
#
# _framework density 18.350496
#
# number of rings (size 3 to 8) (size 9 to 14) (size 15 to 20)
#    0.000    2.000    1.000    3.300    1.400    3.600 
#    0.000   10.500    0.000    0.000    0.000    0.000 
#    0.000    0.000    0.000    0.000    0.000    0.000 
#
# Total GULP energy -223410.312022 kJ/mol
# GULP energy per Si atom -5585.257801 kJ/mol
# Density = 1.830873 g / cm^3
# Si number density = 18.350496 Si / 1000 Ang^3
#
#
#
# Elastic Constant Matrix: (Units=GPa)
#
#
# Indices 1 2 3 4 5 6 
#
# 1 170.6540 46.7195 94.3942 0.0000 0.0000 0.0000
# 2 46.7195 41.8659 39.2894 0.0000 0.0000 0.0000
# 3 94.3942 39.2894 114.9003 0.0000 0.0000 0.0000
# 4 0.0000 0.0000 0.0000 31.2422 0.0000 0.0000
# 5 0.0000 0.0000 0.0000 0.0000 39.0554 0.0000
# 6 0.0000 0.0000 0.0000 0.0000 0.0000 27.7142
#
#
#
# Elastic Compliance Matrix: (Units=1/GPa)
#
#
# Indices 1 2 3 4 5 6 
#
# 1 0.011659 -0.005922 -0.007553 0.000000 0.000000 0.000000
# 2 -0.005922 0.038181 -0.008190 0.000000 0.000000 0.000000
# 3 -0.007553 -0.008190 0.017709 0.000000 0.000000 0.000000
# 4 0.000000 0.000000 0.000000 0.032008 0.000000 0.000000
# 5 0.000000 0.000000 0.000000 0.000000 0.025605 0.000000
# 6 0.000000 0.000000 0.000000 0.000000 0.000000 0.036083
#
#
# Mechanical properties :
#
#
# Convention : Reuss Voigt Hill
#
# Bulk Modulus (GPa) = 41.29271 76.46959 58.88115
# Shear Modulus (GPa) = 23.51297 29.40350 26.45823
#
# Velocity S-wave (km/s) = 3.58344 4.00725 3.80126
# Velocity P-wave (km/s) = 6.29861 7.94814 7.17096
#
# Compressibility (1/GPa) = 0.02421735
#
# Stress axis : x y z
#
# Youngs Moduli (GPa) = 85.77018 26.19096 56.46849
#
# Poissons Ratio (x) = 0.15511 0.42652
# Poissons Ratio (y) = 0.50797 0.46250
# Poissons Ratio (z) = 0.64784 0.21451
#
# Static dielectric constant tensor:
#      x y z
#    x 1.620880 0.000000 0.000000 
#    y 0.000000 1.623600 0.000000 
#    z 0.000000 0.000000 1.597360 
# 
# From -- ./inp_files/32437.got.cif
#   From: 2010.05.17/outbox.cif.g08.bks.cpg/sg59_17_cif.got.tgz:32437.got - 2010.06.03 14:40:33.
