data_PCOD9453531
_publ_section_title
;
Structure prediction by ZEFSAII (Michael W. Deem and Ramdas Pophale) SiO2 
 PCOD9453531
Probable space group: P M M N
;
_chemical_formula_sum "Si O2"
_cell_formula_units_Z 64
_cell_length_a 18.000000
_cell_length_b 9.000000
_cell_length_c 21.000000
_cell_angle_alpha 90.000000
_cell_angle_beta 90.000000
_cell_angle_gamma 90.000000
_cell_volume 3402.000000
_symmetry_space_group_name_H-M "P M M N"
_symmetry_group_IT_number 59
_space_group.IT_coordinate_system_code '2'
_symmetry_cell_setting 'orthorhombic'
loop_
_space_group_symop_operation_xyz
x,y,z
1/2-x,1/2-y,z
1/2+x,-y,-z
-x,1/2+y,-z
-x,-y,-z
1/2+x,1/2+y,-z
1/2-x,y,z
x,1/2-y,z
loop_
_atom_site_type_symbol
_atom_site_label
_atom_site_fract_x
_atom_site_fract_y
_atom_site_fract_z
Si Si1 0.663098 0.928287 0.436122
Si Si2 0.597464 0.427440 0.694285
Si Si3 0.077806 0.071460 0.685307
Si Si4 0.660993 0.084419 0.929033
Si Si5 0.426636 0.074908 0.822006
Si Si6 0.839036 0.079903 0.563256
Si Si7 0.414506 0.077708 0.179321
Si Si8 0.838951 0.082532 0.074125
O O1 0.750000 0.966512 0.429314
O O2 0.658156 0.750000 0.438319
O O3 0.618758 0.989832 0.375931
O O4 0.633707 0.991619 0.502301
O O5 0.608057 0.250000 0.699737
O O6 0.509873 0.457714 0.685822
O O7 0.637156 0.482573 0.631038
O O8 0.622352 0.502377 0.759182
O O9 0.086763 0.250000 0.681904
O O10 0.107121 0.023939 0.754249
O O11 0.750000 0.085442 0.929342
O O12 0.636056 0.250000 0.907800
O O13 0.631860 0.960245 0.882712
O O14 0.636017 0.062310 0.001485
O O15 0.440480 0.250000 0.817789
O O16 0.505029 0.995102 0.830043
O O17 0.373918 0.035133 0.879385
O O18 0.750000 0.081327 0.561153
O O19 0.866027 0.250000 0.559721
O O20 0.422665 0.250000 0.190644
O O21 0.750000 0.074576 0.075062
O O22 0.860562 0.250000 0.094180
#
# Coordination Sequence:
#
# PCOD9453531 Si02
#       8
#     8   8   8   8   8   8   8   8
#     4   9  17  30  48  69  95 126 159 199 246 293
#     4   9  18  34  52  69  95 131 167 203 246 300
#     4   8  16  31  49  69  94 126 165 205 244 291
#     4   9  19  37  58  77 102 138 174 208 253 310
#     4  10  20  35  55  77 104 139 177 214 253 306
#     4   9  18  32  49  70  96 126 161 200 243 295
#     4  11  22  35  53  78 107 135 168 215 262 304
#     4   9  19  36  56  79 107 136 169 213 261 305
#
# _framework density 18.812463000000001
#
# number of rings (size 3 to 8) (size 9 to 14) (size 15 to 20)
#    0.000    2.750    0.000    3.000    0.000    3.500 
#    0.000    6.875    0.000    1.500    0.000    0.000 
#    0.000    0.000    0.000    0.000    0.000    0.000 
#
# Total GULP energy -356489.101564 kJ/mol
# GULP energy per Si atom -5570.142212 kJ/mol
# Density = 1.876965 g / cm^3
# Si number density = 18.812463 Si / 1000 Ang^3
#
#
#
# Elastic Constant Matrix: (Units=GPa)
#
#
# Indices 1 2 3 4 5 6 
#
# 1 -1.9175 24.5378 32.1666 0.0000 0.0000 0.0000
# 2 24.5378 29.4936 35.0742 0.0000 0.0000 0.0000
# 3 32.1666 35.0742 78.3671 0.0000 0.0000 0.0000
# 4 0.0000 0.0000 0.0000 27.4851 0.0000 0.0000
# 5 0.0000 0.0000 0.0000 0.0000 28.5569 0.0000
# 6 0.0000 0.0000 0.0000 0.0000 0.0000 16.4951
#
#
#
# Elastic Compliance Matrix: (Units=1/GPa)
#
#
# Indices 1 2 3 4 5 6 
#
# 1 -0.044296 0.032562 0.003608 0.000000 0.000000 0.000000
# 2 0.032562 0.048550 -0.035095 0.000000 0.000000 0.000000
# 3 0.003608 -0.035095 0.026987 0.000000 0.000000 0.000000
# 4 0.000000 0.000000 0.000000 0.036383 0.000000 0.000000
# 5 0.000000 0.000000 0.000000 0.000000 0.035018 0.000000
# 6 0.000000 0.000000 0.000000 0.000000 0.000000 0.060624
#
#
# Mechanical properties :
#
#
# Convention : Reuss Voigt Hill
#
# Bulk Modulus (GPa) = 29.94744 32.16671 31.05707
# Shear Modulus (GPa) = 29.02842 15.45175 22.24008
#
# Velocity S-wave (km/s) = 3.93242 2.86904 3.44204
# Velocity P-wave (km/s) = 6.04748 5.30197 5.68696
#
# Compressibility (1/GPa) = 0.03339184
#
# Stress axis : x y z
#
# Youngs Moduli (GPa) = -22.57549 20.59734 37.05552
#
# Poissons Ratio (x) = -0.67069 -0.13370
# Poissons Ratio (y) = 0.73511 1.30045
# Poissons Ratio (z) = 0.08145 0.72286
#
# Static dielectric constant tensor:
#      x y z
#    x 1.646180 0.000000 0.000000 
#    y 0.000000 1.656350 0.000000 
#    z 0.000000 0.000000 1.677170 
# 
# From -- ./inp_files/30693.got.cif
#   From: 2010.05.17/outbox.ucp.g08.bks.cvg/sg59_16_cif.got.tgz:30693.got - 2010.06.11 16:43:56.
