data_PCOD9453735
_publ_section_title
;
Structure prediction by ZEFSAII (Michael W. Deem and Ramdas Pophale) SiO2 
 PCOD9453735
Probable space group: P B C N
;
_chemical_formula_sum "Si O2"
_cell_formula_units_Z 32
_cell_length_a 19.079006
_cell_length_b 12.682733
_cell_length_c 5.245851
_cell_angle_alpha 90.000000
_cell_angle_beta 90.000000
_cell_angle_gamma 90.000000
_cell_volume 1269.359230
_symmetry_space_group_name_H-M "P B C N"
_symmetry_group_IT_number 60
_symmetry_cell_setting 'orthorhombic'
loop_
_space_group_symop_operation_xyz
x,y,z
1/2-x,1/2-y,1/2+z
1/2+x,1/2-y,-z
-x,y,1/2-z
-x,-y,-z
1/2+x,1/2+y,1/2-z
1/2-x,1/2+y,z
x,-y,1/2+z
loop_
_atom_site_type_symbol
_atom_site_label
_atom_site_fract_x
_atom_site_fract_y
_atom_site_fract_z
Si Si1 0.675101 0.949254 0.929249
Si Si2 0.470832 0.876280 0.496326
Si Si3 0.083156 0.929156 0.254183
Si Si4 0.282767 0.302892 0.372132
O O1 0.611977 0.875756 0.018789
O O2 0.749289 0.910344 0.020264
O O3 0.663875 0.044877 0.127569
O O4 0.500000 0.821971 0.250000
O O5 0.500000 0.000000 0.500000
O O6 0.500000 0.829524 0.750000
O O7 0.137153 0.832084 0.306098
O O8 0.000000 0.903508 0.250000
O O9 0.096357 0.013637 0.482540
O O10 0.258708 0.228864 0.611320
#
# Coordination Sequence:
#
# PCOD9453735 Si02
#       4
#     8   8   8   8
#     4  12  21  36  63  85 114 165 215 257 297 370
#     4  10  16  30  50  81 116 140 187 250 270 336
#     4  10  21  43  76 101 122 171 240 297 325 381
#     4  12  26  43  60  95 140 169 204 270 350 414
#
# _framework density 25.209567
#
# number of rings (size 3 to 8) (size 9 to 14) (size 15 to 20)
#    0.000    1.000    5.000    4.500    0.000    0.000 
#    0.000    3.750    0.000    0.000    0.000    0.000 
#    0.000    0.000    0.000    0.000    0.000    0.000 
#
# Total GULP energy -178461.345990 kJ/mol
# GULP energy per Si atom -5576.917062 kJ/mol
# Density = 2.515219 g / cm^3
# Si number density = 25.209567 Si / 1000 Ang^3
#
#
#
# Elastic Constant Matrix: (Units=GPa)
#
#
# Indices 1 2 3 4 5 6 
#
# 1 175.6491 21.4327 30.6017 0.0000 0.0000 0.0000
# 2 21.4327 36.9658 29.1570 0.0000 0.0000 0.0000
# 3 30.6017 29.1570 196.9219 0.0000 0.0000 0.0000
# 4 0.0000 0.0000 0.0000 14.4593 0.0000 0.0000
# 5 0.0000 0.0000 0.0000 0.0000 31.2366 0.0000
# 6 0.0000 0.0000 0.0000 0.0000 0.0000 25.7012
#
#
#
# Elastic Compliance Matrix: (Units=1/GPa)
#
#
# Indices 1 2 3 4 5 6 
#
# 1 0.006167 -0.003193 -0.000486 0.000000 0.000000 0.000000
# 2 -0.003193 0.032282 -0.004284 0.000000 0.000000 0.000000
# 3 -0.000486 -0.004284 0.005788 0.000000 0.000000 0.000000
# 4 0.000000 0.000000 0.000000 0.069160 0.000000 0.000000
# 5 0.000000 0.000000 0.000000 0.000000 0.032014 0.000000
# 6 0.000000 0.000000 0.000000 0.000000 0.000000 0.038909
#
#
# Mechanical properties :
#
#
# Convention : Reuss Voigt Hill
#
# Bulk Modulus (GPa) = 35.31943 63.54663 49.43303
# Shear Modulus (GPa) = 23.84574 36.16911 30.00742
#
# Velocity S-wave (km/s) = 3.07889 3.79190 3.45384
# Velocity P-wave (km/s) = 5.16528 6.66584 5.96295
#
# Compressibility (1/GPa) = 0.02831303
#
# Stress axis : x y z
#
# Youngs Moduli (GPa) = 162.14384 30.97711 172.77479
#
# Poissons Ratio (x) = 0.09890 0.08391
# Poissons Ratio (y) = 0.51768 0.74010
# Poissons Ratio (z) = 0.07875 0.13269
#
# Static dielectric constant tensor:
#      x y z
#    x 2.043030 0.000000 0.000000 
#    y 0.000000 2.129930 0.000000 
#    z 0.000000 0.000000 2.135050 
# 
# From -- ./inp_files/1555.got.cif
#   From: 2010.05.17/outbox.cif.g08.bks.cpg/sg60_1_cif.got.tgz:1555.got - 2010.06.03 14:59:27.
