data_PCOD9453376
_publ_section_title
;
Structure prediction by ZEFSAII (Michael W. Deem and Ramdas Pophale) SiO2 
 PCOD9453376
Probable space group: P M M N
;
_chemical_formula_sum "Si O2"
_cell_formula_units_Z 64
_cell_length_a 9.000000
_cell_length_b 30.000000
_cell_length_c 15.000000
_cell_angle_alpha 90.000000
_cell_angle_beta 90.000000
_cell_angle_gamma 90.000000
_cell_volume 4050.000000
_symmetry_space_group_name_H-M "P M M N"
_symmetry_group_IT_number 59
_space_group.IT_coordinate_system_code '2'
_symmetry_cell_setting 'orthorhombic'
loop_
_space_group_symop_operation_xyz
x,y,z
1/2-x,1/2-y,z
1/2+x,-y,-z
-x,1/2+y,-z
-x,-y,-z
1/2+x,1/2+y,-z
1/2-x,y,z
x,1/2-y,z
loop_
_atom_site_type_symbol
_atom_site_label
_atom_site_fract_x
_atom_site_fract_y
_atom_site_fract_z
Si Si1 0.576151 0.933739 0.036490
Si Si2 0.070130 0.604392 0.552344
Si Si3 0.070480 0.442778 0.620228
Si Si4 0.577928 0.469382 0.130841
Si Si5 0.571872 0.616719 0.207063
Si Si6 0.569739 0.200989 0.497381
Si Si7 0.072256 0.033949 0.321531
Si Si8 0.572939 0.300775 0.704296
O O1 0.750000 0.925364 0.015717
O O2 0.518895 0.899423 0.110565
O O3 0.570493 0.981375 0.087319
O O4 0.482784 0.937227 0.946512
O O5 0.250000 0.600329 0.552531
O O6 0.027743 0.656617 0.554686
O O7 0.004590 0.583489 0.461159
O O8 0.996577 0.577363 0.632289
O O9 0.250000 0.444545 0.609783
O O10 0.034850 0.417702 0.713263
O O11 0.001678 0.491797 0.628482
O O12 0.750000 0.460633 0.153606
O O13 0.478959 0.467901 0.218958
O O14 0.750000 0.617745 0.202997
O O15 0.508381 0.663797 0.235567
O O16 0.750000 0.202297 0.497505
O O17 0.517680 0.250000 0.467178
O O18 0.525159 0.194805 0.600871
O O19 0.250000 0.032539 0.329701
O O20 0.750000 0.308540 0.706576
O O21 0.544757 0.250000 0.731419
#
# Coordination Sequence:
#
# PCOD9453376 Si02
#       8
#     8   8   8   8   8   8   8   8
#     4   9  18  33  50  72  99 128 160 200 245 289
#     4  11  21  34  52  73  98 133 170 207 249 297
#     4  11  21  35  49  69 101 135 172 209 241 287
#     4  10  19  34  52  73  98 126 162 205 244 289
#     4  10  19  31  49  72 102 133 164 203 245 293
#     4   8  15  29  49  72  96 124 161 204 247 291
#     4  12  24  36  50  69  98 136 173 210 248 292
#     4   9  17  30  48  71  99 129 165 206 244 291
#
# _framework density 15.802469
#
# number of rings (size 3 to 8) (size 9 to 14) (size 15 to 20)
#    0.000    2.000    2.500    3.375    0.000    1.750 
#    0.000    0.000    0.000    1.500    0.000    0.875 
#    0.000    5.000    0.000    0.000    0.000    0.000 
#
# Total GULP energy -356950.540501 kJ/mol
# GULP energy per Si atom -5577.352195 kJ/mol
# Density = 1.576650 g / cm^3
# Si number density = 15.802469 Si / 1000 Ang^3
#
#
#
# Elastic Constant Matrix: (Units=GPa)
#
#
# Indices 1 2 3 4 5 6 
#
# 1 49.2910 13.7770 18.6161 0.0000 0.0000 0.0000
# 2 13.7770 56.1865 22.6619 0.0000 0.0000 0.0000
# 3 18.6161 22.6619 37.4967 0.0000 0.0000 0.0000
# 4 0.0000 0.0000 0.0000 20.7729 0.0000 0.0000
# 5 0.0000 0.0000 0.0000 0.0000 25.6706 0.0000
# 6 0.0000 0.0000 0.0000 0.0000 0.0000 20.9658
#
#
#
# Elastic Compliance Matrix: (Units=1/GPa)
#
#
# Indices 1 2 3 4 5 6 
#
# 1 0.025064 -0.001490 -0.011543 0.000000 0.000000 0.000000
# 2 -0.001490 0.023623 -0.013537 0.000000 0.000000 0.000000
# 3 -0.011543 -0.013537 0.040581 0.000000 0.000000 0.000000
# 4 0.000000 0.000000 0.000000 0.048140 0.000000 0.000000
# 5 0.000000 0.000000 0.000000 0.000000 0.038955 0.000000
# 6 0.000000 0.000000 0.000000 0.000000 0.000000 0.047697
#
#
# Mechanical properties :
#
#
# Convention : Reuss Voigt Hill
#
# Bulk Modulus (GPa) = 27.67969 28.12047 27.90008
# Shear Modulus (GPa) = 17.28649 19.34312 18.31481
#
# Velocity S-wave (km/s) = 3.31102 3.50245 3.40808
# Velocity P-wave (km/s) = 5.67197 5.84720 5.76025
#
# Compressibility (1/GPa) = 0.03612758
#
# Stress axis : x y z
#
# Youngs Moduli (GPa) = 39.89843 42.33106 24.64185
#
# Poissons Ratio (x) = 0.06307 0.28444
# Poissons Ratio (y) = 0.05945 0.33359
# Poissons Ratio (z) = 0.46054 0.57305
#
# Static dielectric constant tensor:
#      x y z
#    x 1.524770 0.000000 0.000000 
#    y 0.000000 1.540090 0.000000 
#    z 0.000000 0.000000 1.517590 
# 
# From -- ./inp_files/21842.got.cif
#   From: 2010.05.17/outbox.ucp.g08.bks.cvg/sg59_11_cif.got.tgz:21842.got - 2010.06.11 16:43:56.
