data_PCOD9453897
_publ_section_title
;
Structure prediction by ZEFSAII (Michael W. Deem and Ramdas Pophale) SiO2 
 PCOD9453897
Probable space group: P B C N
;
_chemical_formula_sum "Si O2"
_cell_formula_units_Z 60
_cell_length_a 5.701457
_cell_length_b 31.089797
_cell_length_c 13.956600
_cell_angle_alpha 90.000000
_cell_angle_beta 90.000000
_cell_angle_gamma 90.000000
_cell_volume 2473.907010
_symmetry_space_group_name_H-M "P B C N"
_symmetry_group_IT_number 60
_symmetry_cell_setting 'orthorhombic'
loop_
_space_group_symop_operation_xyz
x,y,z
1/2-x,1/2-y,1/2+z
1/2+x,1/2-y,-z
-x,y,1/2-z
-x,-y,-z
1/2+x,1/2+y,1/2-z
1/2-x,1/2+y,z
x,-y,1/2+z
loop_
_atom_site_type_symbol
_atom_site_label
_atom_site_fract_x
_atom_site_fract_y
_atom_site_fract_z
Si Si1 0.453461 0.884591 0.437211
Si Si2 0.649048 0.790349 0.101768
Si Si3 0.769211 0.168544 0.075481
Si Si4 0.000000 0.359361 0.750000
Si Si5 0.019624 0.012143 0.387681
Si Si6 0.482517 0.979818 0.108492
Si Si7 0.866928 0.896078 0.884633
Si Si8 0.652181 0.741097 0.917689
O O1 0.370678 0.841648 0.380502
O O2 0.662045 0.867116 0.504177
O O3 0.532566 0.928059 0.386910
O O4 0.252268 0.898966 0.511334
O O5 0.645767 0.783963 0.984071
O O6 0.402237 0.767748 0.134553
O O7 0.902865 0.770782 0.131507
O O8 0.603247 0.171100 0.167398
O O9 0.832566 0.207328 0.006624
O O10 0.001603 0.148804 0.119067
O O11 0.177554 0.391331 0.697592
O O12 0.761550 0.998311 0.351590
O O13 0.261249 0.991826 0.351584
O O14 0.031912 0.063190 0.373679
O O15 0.000000 0.000000 0.500000
O O16 0.500000 0.000000 0.000000
#
# Coordination Sequence:
#
# PCOD9453897 Si02
#       8
#     8   8   8   4   8   8   8   8
#     4  10  18  27  47  66  98 125 161 188 244 286
#     4   9  17  28  43  71  89 127 152 190 228 295
#     4  10  19  32  46  65  92 135 160 203 236 285
#     4  10  24  32  44  70  90 130 174 202 234 284
#     4  10  19  29  46  66  91 121 162 194 239 283
#     4  10  18  28  41  69  90 123 158 192 232 291
#     4  11  19  32  47  63  95 131 163 200 236 285
#     4   9  17  29  46  63  95 119 163 184 236 280
#
# _framework density 24.253136000000001
#
# number of rings (size 3 to 8) (size 9 to 14) (size 15 to 20)
#    0.000    2.133    4.000    2.000    1.867    0.000 
#    0.000    0.000    0.000    0.000    0.000    0.000 
#    0.000    2.133    0.000    0.000    0.000    0.000 
#
# Total GULP energy -334700.751997 kJ/mol
# GULP energy per Si atom -5578.345867 kJ/mol
# Density = 2.419794 g / cm^3
# Si number density = 24.253136 Si / 1000 Ang^3
#
#
#
# Elastic Constant Matrix: (Units=GPa)
#
#
# Indices 1 2 3 4 5 6 
#
# 1 166.9161 11.0429 8.0183 0.0000 0.0000 0.0000
# 2 11.0429 113.5373 -7.1286 0.0000 0.0000 0.0000
# 3 8.0183 -7.1286 55.2833 0.0000 0.0000 0.0000
# 4 0.0000 0.0000 0.0000 -3.6748 0.0000 0.0000
# 5 0.0000 0.0000 0.0000 0.0000 -0.0153 0.0000
# 6 0.0000 0.0000 0.0000 0.0000 0.0000 89.7601
#
#
#
# Elastic Compliance Matrix: (Units=1/GPa)
#
#
# Indices 1 2 3 4 5 6 
#
# 1 0.006081 -0.000652 -0.000966 0.000000 0.000000 0.000000
# 2 -0.000652 0.008949 0.001249 0.000000 0.000000 0.000000
# 3 -0.000966 0.001249 0.018390 0.000000 0.000000 0.000000
# 4 0.000000 0.000000 0.000000 -0.272127 0.000000 0.000000
# 5 0.000000 0.000000 0.000000 0.000000-65.195412 0.000000
# 6 0.000000 0.000000 0.000000 0.000000 0.000000 0.011141
#
#
# Mechanical properties :
#
#
# Convention : Reuss Voigt Hill
#
# Bulk Modulus (GPa) = 30.59898 39.95579 35.27738
# Shear Modulus (GPa) = -0.07644 38.80094 19.36225
#
# Velocity S-wave (km/s) = -0.17772 4.00413 2.82856
# Velocity P-wave (km/s) = 3.54990 6.15529 5.02441
#
# Compressibility (1/GPa) = 0.03268083
#
# Stress axis : x y z
#
# Youngs Moduli (GPa) = 164.45802 111.73818 54.37812
#
# Poissons Ratio (x) = 0.07286 0.05253
# Poissons Ratio (y) = 0.10724 -0.06790
# Poissons Ratio (z) = 0.15887 -0.13951
#
# Static dielectric constant tensor:
#      x y z
#    x 2.055230 0.000000 0.000000 
#    y 0.000000 1.957060 0.000000 
#    z 0.000000 0.000000 1.900700 
# 
# From -- ./inp_files/18845.got.cif
#   From: 2010.05.17/outbox.cif.g08.bks.cpg/sg60_10_cif.got.tgz:18845.got - 2010.06.03 14:59:27.
