data_PCOD9453391
_publ_section_title
;
Structure prediction by ZEFSAII (Michael W. Deem and Ramdas Pophale) SiO2 
 PCOD9453391
Probable space group: P M M N
;
_chemical_formula_sum "Si O2"
_cell_formula_units_Z 64
_cell_length_a 9.000000
_cell_length_b 30.000000
_cell_length_c 15.000000
_cell_angle_alpha 90.000000
_cell_angle_beta 90.000000
_cell_angle_gamma 90.000000
_cell_volume 4050.000000
_symmetry_space_group_name_H-M "P M M N"
_symmetry_group_IT_number 59
_space_group.IT_coordinate_system_code '2'
_symmetry_cell_setting 'orthorhombic'
loop_
_space_group_symop_operation_xyz
x,y,z
1/2-x,1/2-y,z
1/2+x,-y,-z
-x,1/2+y,-z
-x,-y,-z
1/2+x,1/2+y,-z
1/2-x,y,z
x,1/2-y,z
loop_
_atom_site_type_symbol
_atom_site_label
_atom_site_fract_x
_atom_site_fract_y
_atom_site_fract_z
Si Si1 0.928726 0.568506 0.849541
Si Si2 0.072362 0.469951 0.640688
Si Si3 0.070103 0.303070 0.638563
Si Si4 0.930879 0.886252 0.031691
Si Si5 0.574311 0.527340 0.146967
Si Si6 0.069439 0.432106 0.360168
Si Si7 0.430831 0.887209 0.468436
Si Si8 0.430523 0.301419 0.848389
O O1 0.750000 0.566169 0.852369
O O2 0.967372 0.578258 0.744919
O O3 0.992217 0.519309 0.871714
O O4 0.975095 0.603054 0.928477
O O5 0.250000 0.471276 0.619634
O O6 0.057281 0.462980 0.747430
O O7 0.996588 0.518099 0.621082
O O8 0.993389 0.429054 0.589979
O O9 0.250000 0.308110 0.630458
O O10 0.036776 0.250000 0.619348
O O11 0.030889 0.310676 0.743920
O O12 0.992031 0.340817 0.576388
O O13 0.750000 0.884659 0.032612
O O14 0.975388 0.929909 0.089549
O O15 0.980060 0.840654 0.082963
O O16 0.750000 0.520875 0.129706
O O17 0.250000 0.432463 0.369247
O O18 0.996769 0.398317 0.432368
O O19 0.250000 0.886979 0.469781
O O20 0.250000 0.301340 0.850992
O O21 0.477671 0.250000 0.869308
#
# Coordination Sequence:
#
# PCOD9453391 Si02
#       8
#     8   8   8   8   8   8   8   8
#     4   9  18  30  45  65  93 126 158 196 234 268
#     4  10  19  32  49  71  99 129 161 197 239 287
#     4   9  18  34  55  77 100 126 155 189 234 287
#     4   9  15  25  43  68  95 123 155 189 228 273
#     4   9  17  28  45  67  94 126 156 189 230 281
#     4  10  20  34  48  65  94 131 168 205 244 282
#     4  12  23  33  49  72  96 126 163 200 241 288
#     4   8  14  26  47  74 100 123 148 181 225 279
#
# _framework density 15.802469
#
# number of rings (size 3 to 8) (size 9 to 14) (size 15 to 20)
#    0.000    2.500    0.000    4.125    0.000    3.250 
#    0.000    0.000    0.000    1.500    0.000    3.500 
#    0.000    0.000    0.000    0.000    0.000    0.000 
#
# Total GULP energy -356650.667652 kJ/mol
# GULP energy per Si atom -5572.666682 kJ/mol
# Density = 1.576650 g / cm^3
# Si number density = 15.802469 Si / 1000 Ang^3
#
#
#
# Elastic Constant Matrix: (Units=GPa)
#
#
# Indices 1 2 3 4 5 6 
#
# 1 61.1131 34.9938 33.6214 0.0000 0.0000 0.0000
# 2 34.9938 131.8704 83.7982 0.0000 0.0000 0.0000
# 3 33.6214 83.7982 119.2286 0.0000 0.0000 0.0000
# 4 0.0000 0.0000 0.0000 37.9179 0.0000 0.0000
# 5 0.0000 0.0000 0.0000 0.0000 18.9457 0.0000
# 6 0.0000 0.0000 0.0000 0.0000 0.0000 26.9395
#
#
#
# Elastic Compliance Matrix: (Units=1/GPa)
#
#
# Indices 1 2 3 4 5 6 
#
# 1 0.020055 -0.003123 -0.003460 0.000000 0.000000 0.000000
# 2 -0.003123 0.014190 -0.009092 0.000000 0.000000 0.000000
# 3 -0.003460 -0.009092 0.015754 0.000000 0.000000 0.000000
# 4 0.000000 0.000000 0.000000 0.026373 0.000000 0.000000
# 5 0.000000 0.000000 0.000000 0.000000 0.052782 0.000000
# 6 0.000000 0.000000 0.000000 0.000000 0.000000 0.037120
#
#
# Mechanical properties :
#
#
# Convention : Reuss Voigt Hill
#
# Bulk Modulus (GPa) = 53.62863 68.55989 61.09426
# Shear Modulus (GPa) = 24.52891 27.41388 25.97139
#
# Velocity S-wave (km/s) = 3.94410 4.16959 4.05841
# Velocity P-wave (km/s) = 7.39944 8.16458 7.79141
#
# Compressibility (1/GPa) = 0.01864676
#
# Stress axis : x y z
#
# Youngs Moduli (GPa) = 49.86266 70.47307 63.47765
#
# Poissons Ratio (x) = 0.22008 0.21966
# Poissons Ratio (y) = 0.15572 0.57717
# Poissons Ratio (z) = 0.17255 0.64077
#
# Static dielectric constant tensor:
#      x y z
#    x 1.530480 0.000000 0.000000 
#    y 0.000000 1.519910 0.000000 
#    z 0.000000 0.000000 1.560000 
# 
# From -- ./inp_files/21817.got.cif
#   From: 2010.05.17/outbox.ucp.g08.bks.cvg/sg59_11_cif.got.tgz:21817.got - 2010.06.11 16:43:56.
