data_PCOD9453773
_publ_section_title
;
Structure prediction by ZEFSAII (Michael W. Deem and Ramdas Pophale) SiO2 
 PCOD9453773
Probable space group: P B C N
;
_chemical_formula_sum "Si O2"
_cell_formula_units_Z 36
_cell_length_a 12.735093
_cell_length_b 21.403111
_cell_length_c 5.284447
_cell_angle_alpha 90.000000
_cell_angle_beta 90.000000
_cell_angle_gamma 90.000000
_cell_volume 1440.384937
_symmetry_space_group_name_H-M "P B C N"
_symmetry_group_IT_number 60
_symmetry_cell_setting 'orthorhombic'
loop_
_space_group_symop_operation_xyz
x,y,z
1/2-x,1/2-y,1/2+z
1/2+x,1/2-y,-z
-x,y,1/2-z
-x,-y,-z
1/2+x,1/2+y,1/2-z
1/2-x,1/2+y,z
x,-y,1/2+z
loop_
_atom_site_type_symbol
_atom_site_label
_atom_site_fract_x
_atom_site_fract_y
_atom_site_fract_z
Si Si1 0.500000 0.748521 0.750000
Si Si2 0.785071 0.459550 0.651816
Si Si3 0.912392 0.359227 0.416181
Si Si4 0.772336 0.785218 0.203266
Si Si5 0.046979 0.928729 0.990391
O O1 0.532024 0.797174 0.527261
O O2 0.606652 0.709884 0.787004
O O3 0.796574 0.490187 0.925774
O O4 0.868422 0.404262 0.629281
O O5 0.668950 0.433920 0.578986
O O6 0.808879 0.340425 0.256873
O O7 0.000000 0.392356 0.250000
O O8 0.734276 0.732765 0.407931
O O9 0.000000 0.904035 0.250000
O O10 0.000000 0.893540 0.750000
O O11 0.000000 0.000000 0.000000
#
# Coordination Sequence:
#
# PCOD9453773 Si02
#       5
#     4   8   8   8   8
#     4  10  22  46  72  98 136 166 222 296 344 410
#     4  12  25  40  64  96 137 185 231 270 325 397
#     4  11  25  44  68  99 136 183 223 280 340 415
#     4  10  21  41  72  96 124 169 217 278 351 394
#     4  10  16  35  61  80 115 168 215 277 319 348
#
# _framework density 24.993316
#
# number of rings (size 3 to 8) (size 9 to 14) (size 15 to 20)
#    0.000    1.333    6.667    0.000    3.111    0.889 
#    2.000    0.000    9.778    0.000    0.000    0.000 
#    0.000    0.000    0.000    0.000    0.000    0.000 
#
# Total GULP energy -201128.285211 kJ/mol
# GULP energy per Si atom -5586.896811 kJ/mol
# Density = 2.493643 g / cm^3
# Si number density = 24.993316 Si / 1000 Ang^3
#
#
#
# Elastic Constant Matrix: (Units=GPa)
#
#
# Indices 1 2 3 4 5 6 
#
# 1 168.1156 32.0796 -2.3462 0.0000 0.0000 0.0000
# 2 32.0796 38.5327 -2.3925 0.0000 0.0000 0.0000
# 3 -2.3462 -2.3925 100.5707 0.0000 0.0000 0.0000
# 4 0.0000 0.0000 0.0000 8.3934 0.0000 0.0000
# 5 0.0000 0.0000 0.0000 0.0000 37.4606 0.0000
# 6 0.0000 0.0000 0.0000 0.0000 0.0000 -12.9824
#
#
#
# Elastic Compliance Matrix: (Units=1/GPa)
#
#
# Indices 1 2 3 4 5 6 
#
# 1 0.007072 -0.005886 0.000025 0.000000 0.000000 0.000000
# 2 -0.005886 0.030889 0.000598 0.000000 0.000000 0.000000
# 3 0.000025 0.000598 0.009958 0.000000 0.000000 0.000000
# 4 0.000000 0.000000 0.000000 0.119141 0.000000 0.000000
# 5 0.000000 0.000000 0.000000 0.000000 0.026695 0.000000
# 6 0.000000 0.000000 0.000000 0.000000 0.000000 -0.077028
#
#
# Mechanical properties :
#
#
# Convention : Reuss Voigt Hill
#
# Bulk Modulus (GPa) = 26.74351 40.21119 33.47735
# Shear Modulus (GPa) = 35.78625 25.23286 30.50956
#
# Velocity S-wave (km/s) = 3.78806 3.18084 3.49765
# Velocity P-wave (km/s) = 5.46407 5.44188 5.45299
#
# Compressibility (1/GPa) = 0.03739225
#
# Stress axis : x y z
#
# Youngs Moduli (GPa) = 141.40702 32.37367 100.42130
#
# Poissons Ratio (x) = 0.19055 -0.00251
# Poissons Ratio (y) = 0.83231 -0.06000
# Poissons Ratio (z) = -0.00353 -0.01934
#
# Static dielectric constant tensor:
#      x y z
#    x 1.980620 0.000000 0.000000 
#    y 0.000000 2.072640 0.000000 
#    z 0.000000 0.000000 2.042710 
# 
# From -- ./inp_files/736.got.cif
#   From: 2010.05.17/outbox.cif.g08.bks.cpg/sg60_1_cif.got.tgz:736.got - 2010.06.03 14:59:27.
