data_PCOD9453910
_publ_section_title
;
Structure prediction by ZEFSAII (Michael W. Deem and Ramdas Pophale) SiO2 
 PCOD9453910
Probable space group: P B C N
;
_chemical_formula_sum "Si O2"
_cell_formula_units_Z 52
_cell_length_a 5.554487
_cell_length_b 27.380706
_cell_length_c 18.026834
_cell_angle_alpha 90.000000
_cell_angle_beta 90.000000
_cell_angle_gamma 90.000000
_cell_volume 2741.625029
_symmetry_space_group_name_H-M "P B C N"
_symmetry_group_IT_number 60
_symmetry_cell_setting 'orthorhombic'
loop_
_space_group_symop_operation_xyz
x,y,z
1/2-x,1/2-y,1/2+z
1/2+x,1/2-y,-z
-x,y,1/2-z
-x,-y,-z
1/2+x,1/2+y,1/2-z
1/2-x,1/2+y,z
x,-y,1/2+z
loop_
_atom_site_type_symbol
_atom_site_label
_atom_site_fract_x
_atom_site_fract_y
_atom_site_fract_z
Si Si1 0.154679 0.398863 0.131647
Si Si2 0.788825 0.767051 0.538949
Si Si3 0.500000 0.622847 0.750000
Si Si4 0.012436 0.130996 0.499275
Si Si5 0.030207 0.504670 0.910251
Si Si6 0.030238 0.967867 0.576017
Si Si7 0.290658 0.820737 0.374023
O O1 0.305722 0.408618 0.205333
O O2 0.321481 0.396706 0.059443
O O3 0.952602 0.439042 0.115081
O O4 0.048218 0.344640 0.140121
O O5 0.527691 0.755970 0.501846
O O6 0.785353 0.737063 0.615762
O O7 0.840919 0.824710 0.538278
O O8 0.376914 0.657336 0.810813
O O9 0.804216 0.156468 0.547996
O O10 0.928954 0.088511 0.444982
O O11 0.768657 0.486693 0.882885
O O12 0.269590 0.476152 0.887131
O O13 0.000000 0.500000 0.000000
O O14 0.000000 0.000000 0.500000
#
# Coordination Sequence:
#
# PCOD9453910 Si02
#       7
#     8   8   4   8   8   8   8
#     4  11  19  34  52  73 112 142 181 223 267 342
#     4  10  20  33  52  79 107 143 175 224 287 329
#     4  10  24  34  52  76 104 152 188 220 278 326
#     4  10  19  30  52  77 112 141 172 222 276 337
#     4  10  19  29  50  75 104 142 169 214 265 318
#     4  10  18  29  45  77 107 138 170 202 270 319
#     4  10  20  35  51  75 111 142 185 226 273 338
#
# _framework density 18.966851999999999
#
# number of rings (size 3 to 8) (size 9 to 14) (size 15 to 20)
#    0.000    1.846    4.615    2.308    2.154    0.000 
#    0.000    0.000    0.000    0.000    0.000    2.154 
#    0.000    0.000    0.000    0.000    0.000    0.000 
#
# Total GULP energy -289718.391605 kJ/mol
# GULP energy per Si atom -5571.507531 kJ/mol
# Density = 1.892368 g / cm^3
# Si number density = 18.966852 Si / 1000 Ang^3
#
#
#
# Elastic Constant Matrix: (Units=GPa)
#
#
# Indices 1 2 3 4 5 6 
#
# 1 96.9719 4.1183 7.3518 0.0000 0.0000 0.0000
# 2 4.1183 94.4142 25.3525 0.0000 0.0000 0.0000
# 3 7.3518 25.3525 35.0235 0.0000 0.0000 0.0000
# 4 0.0000 0.0000 0.0000 10.0224 0.0000 0.0000
# 5 0.0000 0.0000 0.0000 0.0000 16.6117 0.0000
# 6 0.0000 0.0000 0.0000 0.0000 0.0000 28.0543
#
#
#
# Elastic Compliance Matrix: (Units=1/GPa)
#
#
# Indices 1 2 3 4 5 6 
#
# 1 0.010481 0.000166 -0.002320 0.000000 0.000000 0.000000
# 2 0.000166 0.013150 -0.009554 0.000000 0.000000 0.000000
# 3 -0.002320 -0.009554 0.035955 0.000000 0.000000 0.000000
# 4 0.000000 0.000000 0.000000 0.099777 0.000000 0.000000
# 5 0.000000 0.000000 0.000000 0.000000 0.060198 0.000000
# 6 0.000000 0.000000 0.000000 0.000000 0.000000 0.035645
#
#
# Mechanical properties :
#
#
# Convention : Reuss Voigt Hill
#
# Bulk Modulus (GPa) = 27.64726 33.33943 30.49334
# Shear Modulus (GPa) = 17.20115 23.57683 20.38899
#
# Velocity S-wave (km/s) = 3.01476 3.52952 3.28225
# Velocity P-wave (km/s) = 5.16978 5.85029 5.52053
#
# Compressibility (1/GPa) = 0.03616996
#
# Stress axis : x y z
#
# Youngs Moduli (GPa) = 95.40959 76.04709 27.81272
#
# Poissons Ratio (x) = -0.01261 0.06453
# Poissons Ratio (y) = -0.01582 0.26571
# Poissons Ratio (z) = 0.22136 0.72652
#
# Static dielectric constant tensor:
#      x y z
#    x 1.697690 0.000000 0.000000 
#    y 0.000000 1.907650 0.000000 
#    z 0.000000 0.000000 1.655560 
# 
# From -- ./inp_files/18762.got.cif
#   From: 2010.05.17/outbox.cif.g08.bks.cpg/sg60_10_cif.got.tgz:18762.got - 2010.06.03 14:59:27.
