data_PCOD9453858
_publ_section_title
;
Structure prediction by ZEFSAII (Michael W. Deem and Ramdas Pophale) SiO2 
 PCOD9453858
Probable space group: P B C N
;
_chemical_formula_sum "Si O2"
_cell_formula_units_Z 48
_cell_length_a 16.567615
_cell_length_b 9.804218
_cell_length_c 13.849867
_cell_angle_alpha 90.000000
_cell_angle_beta 90.000000
_cell_angle_gamma 90.000000
_cell_volume 2249.668649
_symmetry_space_group_name_H-M "P B C N"
_symmetry_group_IT_number 60
_symmetry_cell_setting 'orthorhombic'
loop_
_space_group_symop_operation_xyz
x,y,z
1/2-x,1/2-y,1/2+z
1/2+x,1/2-y,-z
-x,y,1/2-z
-x,-y,-z
1/2+x,1/2+y,1/2-z
1/2-x,1/2+y,z
x,-y,1/2+z
loop_
_atom_site_type_symbol
_atom_site_label
_atom_site_fract_x
_atom_site_fract_y
_atom_site_fract_z
Si Si1 0.771972 0.528661 0.604319
Si Si2 0.427494 0.110093 0.311813
Si Si3 0.959912 0.934205 0.847052
Si Si4 0.691112 0.287010 0.485154
Si Si5 0.997807 0.808404 0.036284
Si Si6 0.670416 0.357942 0.280278
O O1 0.855609 0.485435 0.654188
O O2 0.728231 0.397693 0.558171
O O3 0.786164 0.637956 0.520760
O O4 0.719923 0.601530 0.686824
O O5 0.500000 0.046208 0.250000
O O6 0.465568 0.180062 0.406205
O O7 0.389568 0.234136 0.248209
O O8 0.952471 0.831428 0.935525
O O9 0.000000 0.878726 0.750000
O O10 0.879087 0.009531 0.814508
O O11 0.012979 0.058297 0.894601
O O12 0.593510 0.300016 0.483890
O O13 0.718997 0.312443 0.375232
#
# Coordination Sequence:
#
# PCOD9453858 Si02
#       6
#     8   8   8   8   8   8
#     4  12  28  46  72 106 145 189 244 303 358 445
#     4  12  23  48  72 100 147 195 239 294 372 430
#     4  10  17  34  67  99 136 175 244 289 346 423
#     4  11  26  44  71 104 145 187 242 298 369 430
#     4  10  21  37  66 103 135 186 232 299 355 428
#     4  11  23  44  71 100 143 191 239 290 369 425
#
# _framework density 21.336475
#
# number of rings (size 3 to 8) (size 9 to 14) (size 15 to 20)
#    0.000    1.000    6.667    1.000    7.000    0.667 
#    0.000    2.500    0.000    0.000    0.000    0.000 
#    0.000    0.000    0.000    0.000    0.000    0.000 
#
# Total GULP energy -268455.330653 kJ/mol
# GULP energy per Si atom -5592.819389 kJ/mol
# Density = 2.128791 g / cm^3
# Si number density = 21.336475 Si / 1000 Ang^3
#
#
#
# Elastic Constant Matrix: (Units=GPa)
#
#
# Indices 1 2 3 4 5 6 
#
# 1 66.5494 15.9195 23.7050 0.0000 0.0000 0.0000
# 2 15.9195 40.4480 6.5162 0.0000 0.0000 0.0000
# 3 23.7050 6.5162 111.2319 0.0000 0.0000 0.0000
# 4 0.0000 0.0000 0.0000 2.5108 0.0000 0.0000
# 5 0.0000 0.0000 0.0000 0.0000 35.4471 0.0000
# 6 0.0000 0.0000 0.0000 0.0000 0.0000 21.7080
#
#
#
# Elastic Compliance Matrix: (Units=1/GPa)
#
#
# Indices 1 2 3 4 5 6 
#
# 1 0.017785 -0.006450 -0.003412 0.000000 0.000000 0.000000
# 2 -0.006450 0.027298 -0.000225 0.000000 0.000000 0.000000
# 3 -0.003412 -0.000225 0.009731 0.000000 0.000000 0.000000
# 4 0.000000 0.000000 0.000000 0.398273 0.000000 0.000000
# 5 0.000000 0.000000 0.000000 0.000000 0.028211 0.000000
# 6 0.000000 0.000000 0.000000 0.000000 0.000000 0.046066
#
#
# Mechanical properties :
#
#
# Convention : Reuss Voigt Hill
#
# Bulk Modulus (GPa) = 28.86881 34.50119 31.68500
# Shear Modulus (GPa) = 8.94321 23.40574 16.17448
#
# Velocity S-wave (km/s) = 2.04954 3.31567 2.75629
# Velocity P-wave (km/s) = 4.37727 5.55548 5.00119
#
# Compressibility (1/GPa) = 0.03463946
#
# Stress axis : x y z
#
# Youngs Moduli (GPa) = 56.22773 36.63290 102.76862
#
# Poissons Ratio (x) = 0.23628 0.35068
# Poissons Ratio (y) = 0.36267 0.02308
# Poissons Ratio (z) = 0.19187 0.00823
#
# Static dielectric constant tensor:
#      x y z
#    x 1.792480 0.000000 0.000000 
#    y 0.000000 1.746890 0.000000 
#    z 0.000000 0.000000 1.781040 
# 
# From -- ./inp_files/12429.got.cif
#   From: 2010.05.17/outbox.cif.g08.bks.cpg/sg60_7_cif.got.tgz:12429.got - 2010.06.03 14:59:27.
