data_PCOD9453785
_publ_section_title
;
Structure prediction by ZEFSAII (Michael W. Deem and Ramdas Pophale) SiO2 
 PCOD9453785
Probable space group: P B C N
;
_chemical_formula_sum "Si O2"
_cell_formula_units_Z 60
_cell_length_a 27.489136
_cell_length_b 26.299745
_cell_length_c 5.551891
_cell_angle_alpha 90.000000
_cell_angle_beta 90.000000
_cell_angle_gamma 90.000000
_cell_volume 4013.779944
_symmetry_space_group_name_H-M "P B C N"
_symmetry_group_IT_number 60
_symmetry_cell_setting 'orthorhombic'
loop_
_space_group_symop_operation_xyz
x,y,z
1/2-x,1/2-y,1/2+z
1/2+x,1/2-y,-z
-x,y,1/2-z
-x,-y,-z
1/2+x,1/2+y,1/2-z
1/2-x,1/2+y,z
x,-y,1/2+z
loop_
_atom_site_type_symbol
_atom_site_label
_atom_site_fract_x
_atom_site_fract_y
_atom_site_fract_z
Si Si1 0.288277 0.198420 0.839136
Si Si2 0.827442 0.201381 0.651418
Si Si3 0.447493 0.768183 0.373257
Si Si4 0.578718 0.865323 0.424339
Si Si5 0.644377 0.299359 0.649692
Si Si6 0.000000 0.328388 0.750000
Si Si7 0.666705 0.179458 0.162368
Si Si8 0.441205 0.028054 0.760499
O O1 0.230781 0.206355 0.856790
O O2 0.316906 0.252195 0.841654
O O3 0.301167 0.173804 0.581048
O O4 0.307064 0.170943 0.082151
O O5 0.847085 0.175820 0.408693
O O6 0.847446 0.259999 0.662675
O O7 0.843062 0.174383 0.898124
O O8 0.500000 0.758162 0.250000
O O9 0.421168 0.814789 0.237354
O O10 0.410065 0.722435 0.367693
O O11 0.460592 0.791137 0.632257
O O12 0.526400 0.863105 0.555314
O O13 0.620844 0.856830 0.619096
O O14 0.581621 0.916238 0.272931
O O15 0.500000 0.032146 0.750000
O O16 0.427877 0.996398 0.518203
#
# Coordination Sequence:
#
# PCOD9453785 Si02
#       8
#     8   8   8   8   8   4   8   8
#     4  10  17  27  41  59  79  99 117 143 175 222
#     4  10  17  27  41  57  78 100 120 142 175 222
#     4  10  20  29  40  58  75 100 124 159 193 233
#     4  11  21  32  45  61  74  98 123 161 199 247
#     4  10  17  27  38  54  74  97 123 146 175 217
#     4  10  20  28  44  56  74  94 122 148 200 234
#     4  10  18  27  42  58  78  93 118 144 180 223
#     4  10  23  37  49  60  74  95 126 163 207 254
#
# _framework density 14.948503000000001
#
# number of rings (size 3 to 8) (size 9 to 14) (size 15 to 20)
#    0.000    1.867    2.667    6.800    6.533    0.000 
#    0.000    0.000    0.000    0.000    0.000    0.000 
#    0.000    0.000    0.000    0.000    0.000    0.000 
#
# Total GULP energy -334386.574509 kJ/mol
# GULP energy per Si atom -5573.109575 kJ/mol
# Density = 1.491448 g / cm^3
# Si number density = 14.948503 Si / 1000 Ang^3
#
#
#
# Elastic Constant Matrix: (Units=GPa)
#
#
# Indices 1 2 3 4 5 6 
#
# 1 50.1424 6.9063 12.2549 0.0000 0.0000 0.0000
# 2 6.9063 6.8914 1.3422 0.0000 0.0000 0.0000
# 3 12.2549 1.3422 111.8473 0.0000 0.0000 0.0000
# 4 0.0000 0.0000 0.0000 8.4875 0.0000 0.0000
# 5 0.0000 0.0000 0.0000 0.0000 22.7762 0.0000
# 6 0.0000 0.0000 0.0000 0.0000 0.0000 5.4233
#
#
#
# Elastic Compliance Matrix: (Units=1/GPa)
#
#
# Indices 1 2 3 4 5 6 
#
# 1 0.023722 -0.023322 -0.002319 0.000000 0.000000 0.000000
# 2 -0.023322 0.168377 0.000535 0.000000 0.000000 0.000000
# 3 -0.002319 0.000535 0.009188 0.000000 0.000000 0.000000
# 4 0.000000 0.000000 0.000000 0.117821 0.000000 0.000000
# 5 0.000000 0.000000 0.000000 0.000000 0.043906 0.000000
# 6 0.000000 0.000000 0.000000 0.000000 0.000000 0.184388
#
#
# Mechanical properties :
#
#
# Convention : Reuss Voigt Hill
#
# Bulk Modulus (GPa) = 6.61922 23.32086 14.97004
# Shear Modulus (GPa) = 7.71636 17.22925 12.47280
#
# Velocity S-wave (km/s) = 2.27446 3.39864 2.89171
# Velocity P-wave (km/s) = 3.36678 5.57097 4.60276
#
# Compressibility (1/GPa) = 0.15107514
#
# Stress axis : x y z
#
# Youngs Moduli (GPa) = 42.15446 5.93904 108.83202
#
# Poissons Ratio (x) = 0.13851 0.25242
# Poissons Ratio (y) = 0.98313 -0.05821
# Poissons Ratio (z) = 0.09777 -0.00318
#
# Static dielectric constant tensor:
#      x y z
#    x 1.523480 0.000000 0.000000 
#    y 0.000000 1.456400 0.000000 
#    z 0.000000 0.000000 1.620180 
# 
# From -- ./inp_files/2255.got.cif
#   From: 2010.05.17/outbox.cif.g08.bks.cpg/sg60_2_cif.got.tgz:2255.got - 2010.06.03 14:59:27.
