data_PCOD9453780
_publ_section_title
;
Structure prediction by ZEFSAII (Michael W. Deem and Ramdas Pophale) SiO2 
 PCOD9453780
Probable space group: P B C N
;
_chemical_formula_sum "Si O2"
_cell_formula_units_Z 48
_cell_length_a 24.160364
_cell_length_b 5.507603
_cell_length_c 13.194974
_cell_angle_alpha 90.000000
_cell_angle_beta 90.000000
_cell_angle_gamma 90.000000
_cell_volume 1755.798363
_symmetry_space_group_name_H-M "P B C N"
_symmetry_group_IT_number 60
_symmetry_cell_setting 'orthorhombic'
loop_
_space_group_symop_operation_xyz
x,y,z
1/2-x,1/2-y,1/2+z
1/2+x,1/2-y,-z
-x,y,1/2-z
-x,-y,-z
1/2+x,1/2+y,1/2-z
1/2-x,1/2+y,z
x,-y,1/2+z
loop_
_atom_site_type_symbol
_atom_site_label
_atom_site_fract_x
_atom_site_fract_y
_atom_site_fract_z
Si Si1 0.728008 0.589282 0.979912
Si Si2 0.105150 0.822028 0.738871
Si Si3 0.604409 0.604285 0.497792
Si Si4 0.061857 0.396370 0.503465
Si Si5 0.768924 0.644219 0.747157
Si Si6 0.063764 0.676579 0.239901
O O1 0.766635 0.366569 0.015422
O O2 0.666823 0.491900 0.000026
O O3 0.741754 0.611863 0.859448
O O4 0.167440 0.722335 0.745363
O O5 0.068943 0.598616 0.780772
O O6 0.089398 0.858554 0.621118
O O7 0.099813 0.096830 0.779822
O O8 0.597786 0.878024 0.537733
O O9 0.567799 0.378267 0.536808
O O10 0.078751 0.358591 0.621524
O O11 0.000000 0.500000 0.500000
O O12 0.761702 0.377457 0.701005
O O13 0.000000 0.753536 0.250000
#
# Coordination Sequence:
#
# PCOD9453780 Si02
#       6
#     8   8   8   8   8   8
#     4  10  17  24  41  66 103 129 150 184 254 316
#     4  10  18  29  46  69  98 136 155 198 252 303
#     4  10  18  29  46  69  98 136 155 199 251 304
#     4  10  21  34  50  69  98 132 172 210 247 290
#     4  10  17  24  41  66 103 129 150 184 254 316
#     4  10  21  34  50  69  98 132 172 210 246 290
#
# _framework density 27.337990000000001
#
# number of rings (size 3 to 8) (size 9 to 14) (size 15 to 20)
#    0.000    2.000    3.333    3.000    9.333    0.000 
#    0.000    0.000    0.000    0.000    0.000    0.000 
#    0.000   26.667    0.000    0.000    0.000    0.000 
#
# Total GULP energy -268633.305100 kJ/mol
# GULP energy per Si atom -5596.527190 kJ/mol
# Density = 2.727577 g / cm^3
# Si number density = 27.337990 Si / 1000 Ang^3
#
#
#
# Elastic Constant Matrix: (Units=GPa)
#
#
# Indices 1 2 3 4 5 6 
#
# 1 73.7241 -17.7077 -33.0974 0.0000 0.0000 0.0000
# 2 -17.7077 166.7988 41.9296 0.0000 0.0000 0.0000
# 3 -33.0974 41.9296 86.5197 0.0000 0.0000 0.0000
# 4 0.0000 0.0000 0.0000 68.7738 0.0000 0.0000
# 5 0.0000 0.0000 0.0000 0.0000 6.4021 0.0000
# 6 0.0000 0.0000 0.0000 0.0000 0.0000 63.0773
#
#
#
# Elastic Compliance Matrix: (Units=1/GPa)
#
#
# Indices 1 2 3 4 5 6 
#
# 1 0.016382 0.000187 0.006176 0.000000 0.000000 0.000000
# 2 0.000187 0.006829 -0.003238 0.000000 0.000000 0.000000
# 3 0.006176 -0.003238 0.015490 0.000000 0.000000 0.000000
# 4 0.000000 0.000000 0.000000 0.014540 0.000000 0.000000
# 5 0.000000 0.000000 0.000000 0.000000 0.156200 0.000000
# 6 0.000000 0.000000 0.000000 0.000000 0.000000 0.015854
#
#
# Mechanical properties :
#
#
# Convention : Reuss Voigt Hill
#
# Bulk Modulus (GPa) = 22.24697 34.36573 28.30635
# Shear Modulus (GPa) = 21.36491 50.04518 35.70505
#
# Velocity S-wave (km/s) = 2.79858 4.28320 3.61787
# Velocity P-wave (km/s) = 4.31256 6.08762 5.27528
#
# Compressibility (1/GPa) = 0.04494994
#
# Stress axis : x y z
#
# Youngs Moduli (GPa) = 61.04397 146.43306 64.55766
#
# Poissons Ratio (x) = -0.02731 -0.39872
# Poissons Ratio (y) = -0.01139 0.20905
# Poissons Ratio (z) = -0.37702 0.47418
#
# Static dielectric constant tensor:
#      x y z
#    x 2.031670 0.000000 0.000000 
#    y 0.000000 2.142120 0.000000 
#    z 0.000000 0.000000 0.142560 
# 
# From -- ./inp_files/23167.got.cif
#   From: 2010.05.17/outbox.cif.g08.bks.cpg/sg60_12_cif.got.tgz:23167.got - 2010.06.03 14:59:27.
