data_PCOD9453232
_publ_section_title
;
Structure prediction by ZEFSAII (Michael W. Deem and Ramdas Pophale) SiO2 
 PCOD9453232
Probable space group: P M M N
;
_chemical_formula_sum "Si O2"
_cell_formula_units_Z 56
_cell_length_a 14.225172
_cell_length_b 7.641736
_cell_length_c 30.580173
_cell_angle_alpha 90.000000
_cell_angle_beta 90.000000
_cell_angle_gamma 90.000000
_cell_volume 3324.217981
_symmetry_space_group_name_H-M "P M M N"
_symmetry_group_IT_number 59
_space_group.IT_coordinate_system_code '2'
_symmetry_cell_setting 'orthorhombic'
loop_
_space_group_symop_operation_xyz
x,y,z
1/2-x,1/2-y,z
1/2+x,-y,-z
-x,1/2+y,-z
-x,-y,-z
1/2+x,1/2+y,-z
1/2-x,y,z
x,1/2-y,z
loop_
_atom_site_type_symbol
_atom_site_label
_atom_site_fract_x
_atom_site_fract_y
_atom_site_fract_z
Si Si1 0.645020 0.460411 0.479335
Si Si2 0.855723 0.460296 0.019853
Si Si3 0.959924 0.460082 0.932310
Si Si4 0.459961 0.039444 0.431909
Si Si5 0.641539 0.539849 0.750774
Si Si6 0.640033 0.963824 0.655189
Si Si7 0.642272 0.040968 0.846005
O O1 0.750000 0.527770 0.471229
O O2 0.647387 0.250000 0.474905
O O3 0.611658 0.499422 0.528665
O O4 0.562016 0.526789 0.447637
O O5 0.750000 0.525585 0.026964
O O6 0.851226 0.250000 0.016617
O O7 0.931802 0.501098 0.057055
O O8 0.899288 0.526081 0.973851
O O9 0.950606 0.250000 0.932093
O O10 0.918891 0.526639 0.886521
O O11 0.466265 0.250000 0.428810
O O12 0.420501 0.973567 0.385836
O O13 0.750000 0.477212 0.752213
O O14 0.642999 0.750000 0.749494
O O15 0.604556 0.480831 0.703426
O O16 0.600356 0.490986 0.797748
O O17 0.750000 0.013935 0.650636
O O18 0.638898 0.750000 0.654384
O O19 0.750000 0.971626 0.847732
O O20 0.648678 0.250000 0.850823
#
# Coordination Sequence:
#
# PCOD9453232 Si02
#       7
#     8   8   8   8   8   8   8
#     4   9  17  27  37  54  81 104 123 157 199 228
#     4   9  17  29  43  59  81 107 133 163 197 229
#     4   9  17  28  42  60  81 106 135 162 191 230
#     4   9  16  26  41  57  73 101 137 160 182 227
#     4   8  14  24  37  54  76  99 124 158 197 231
#     4   8  13  22  37  56  75  95 124 161 193 223
#     4   9  16  26  40  58  81 107 132 158 190 230
#
# _framework density 16.846067000000001
#
# number of rings (size 3 to 8) (size 9 to 14) (size 15 to 20)
#    0.000    3.286    0.000    1.714    0.000    3.429 
#    0.000    0.714    0.000    5.143    0.000    1.000 
#    0.000    3.429    0.000    0.000    0.000    0.000 
#
# Total GULP energy -311789.244798 kJ/mol
# GULP energy per Si atom -5567.665086 kJ/mol
# Density = 1.680772 g / cm^3
# Si number density = 16.846067 Si / 1000 Ang^3
#
#
#
# Elastic Constant Matrix: (Units=GPa)
#
#
# Indices 1 2 3 4 5 6 
#
# 1 112.2050 4.0812 79.9411 0.0000 0.0000 0.0000
# 2 4.0812 30.8526 4.9012 0.0000 0.0000 0.0000
# 3 79.9411 4.9012 169.3930 0.0000 0.0000 0.0000
# 4 0.0000 0.0000 0.0000 16.8967 0.0000 0.0000
# 5 0.0000 0.0000 0.0000 0.0000 24.7361 0.0000
# 6 0.0000 0.0000 0.0000 0.0000 0.0000 11.2532
#
#
#
# Elastic Compliance Matrix: (Units=1/GPa)
#
#
# Indices 1 2 3 4 5 6 
#
# 1 0.013445 -0.000774 -0.006323 0.000000 0.000000 0.000000
# 2 -0.000774 0.032606 -0.000578 0.000000 0.000000 0.000000
# 3 -0.006323 -0.000578 0.008904 0.000000 0.000000 0.000000
# 4 0.000000 0.000000 0.000000 0.059183 0.000000 0.000000
# 5 0.000000 0.000000 0.000000 0.000000 0.040427 0.000000
# 6 0.000000 0.000000 0.000000 0.000000 0.000000 0.088864
#
#
# Mechanical properties :
#
#
# Convention : Reuss Voigt Hill
#
# Bulk Modulus (GPa) = 25.24890 54.47749 39.86320
# Shear Modulus (GPa) = 18.38364 25.47899 21.93132
#
# Velocity S-wave (km/s) = 3.30702 3.89325 3.61205
# Velocity P-wave (km/s) = 5.44081 7.25386 6.41174
#
# Compressibility (1/GPa) = 0.03960568
#
# Stress axis : x y z
#
# Youngs Moduli (GPa) = 74.37688 30.66881 112.30908
#
# Poissons Ratio (x) = 0.02374 0.71009
# Poissons Ratio (y) = 0.05758 0.06493
# Poissons Ratio (z) = 0.47026 0.01773
#
# Static dielectric constant tensor:
#      x y z
#    x 1.562320 0.000000 0.000000 
#    y 0.000000 1.630550 0.000000 
#    z 0.000000 0.000000 1.592940 
# 
# From -- ./inp_files/31915.got.cif
#   From: 2010.05.17/outbox.cif.g08.bks.cpg/sg59_16_cif.got.tgz:31915.got - 2010.06.03 14:40:33.
