data_PCOD9453110
_publ_section_title
;
Structure prediction by ZEFSAII (Michael W. Deem and Ramdas Pophale) SiO2 
 PCOD9453110
Probable space group: P M M N
;
_chemical_formula_sum "Si O2"
_cell_formula_units_Z 24
_cell_length_a 10.847852
_cell_length_b 21.923246
_cell_length_c 4.945444
_cell_angle_alpha 90.000000
_cell_angle_beta 90.000000
_cell_angle_gamma 90.000000
_cell_volume 1176.126125
_symmetry_space_group_name_H-M "P M M N"
_symmetry_group_IT_number 59
_space_group.IT_coordinate_system_code '2'
_symmetry_cell_setting 'orthorhombic'
loop_
_space_group_symop_operation_xyz
x,y,z
1/2-x,1/2-y,z
1/2+x,-y,-z
-x,1/2+y,-z
-x,-y,-z
1/2+x,1/2+y,-z
1/2-x,y,z
x,1/2-y,z
loop_
_atom_site_type_symbol
_atom_site_label
_atom_site_fract_x
_atom_site_fract_y
_atom_site_fract_z
Si Si1 0.392557 0.178884 0.548544
Si Si2 0.969951 0.604593 0.970828
Si Si3 0.615894 0.008413 0.299071
O O1 0.250000 0.173414 0.641809
O O2 0.416741 0.250000 0.496313
O O3 0.478612 0.151356 0.781669
O O4 0.409101 0.139451 0.279132
O O5 0.892678 0.547832 0.090875
O O6 0.091765 0.571221 0.860161
O O7 0.750000 0.007799 0.432621
O O8 0.500000 0.000000 0.500000
#
# Coordination Sequence:
#
# PCOD9453110 Si02
#       3
#     8   8   8
#     4  11  22  38  63  94 128 167 213 267 322 378
#     4  11  23  40  61  96 129 164 209 266 323 382
#     4  11  24  41  67  98 132 174 213 266 326 388
#
# _framework density 20.405975999999999
#
# number of rings (size 3 to 8) (size 9 to 14) (size 15 to 20)
#    0.000    1.000    3.333    4.000    0.000    9.333 
#    0.000    0.000    0.000    6.000    0.000    0.000 
#    0.000    0.000    0.000    0.000    0.000    0.000 
#
# Total GULP energy -134064.338081 kJ/mol
# GULP energy per Si atom -5586.014087 kJ/mol
# Density = 2.035953 g / cm^3
# Si number density = 20.405976 Si / 1000 Ang^3
#
#
#
# Elastic Constant Matrix: (Units=GPa)
#
#
# Indices 1 2 3 4 5 6 
#
# 1 115.7343 39.8673 42.5829 0.0000 0.0000 0.0000
# 2 39.8673 143.7663 48.2162 0.0000 0.0000 0.0000
# 3 42.5829 48.2162 118.8710 0.0000 0.0000 0.0000
# 4 0.0000 0.0000 0.0000 32.5710 0.0000 0.0000
# 5 0.0000 0.0000 0.0000 0.0000 20.7530 0.0000
# 6 0.0000 0.0000 0.0000 0.0000 0.0000 3.6353
#
#
#
# Elastic Compliance Matrix: (Units=1/GPa)
#
#
# Indices 1 2 3 4 5 6 
#
# 1 0.010377 -0.001888 -0.002952 0.000000 0.000000 0.000000
# 2 -0.001888 0.008394 -0.002729 0.000000 0.000000 0.000000
# 3 -0.002952 -0.002729 0.010577 0.000000 0.000000 0.000000
# 4 0.000000 0.000000 0.000000 0.030702 0.000000 0.000000
# 5 0.000000 0.000000 0.000000 0.000000 0.048186 0.000000
# 6 0.000000 0.000000 0.000000 0.000000 0.000000 0.275081
#
#
# Mechanical properties :
#
#
# Convention : Reuss Voigt Hill
#
# Bulk Modulus (GPa) = 70.36366 71.07826 70.72096
# Shear Modulus (GPa) = 12.40111 27.90554 20.15332
#
# Velocity S-wave (km/s) = 2.46787 3.70201 3.14605
# Velocity P-wave (km/s) = 6.53278 7.29252 6.92308
#
# Compressibility (1/GPa) = 0.01421188
#
# Stress axis : x y z
#
# Youngs Moduli (GPa) = 96.36975 119.12806 94.54821
#
# Poissons Ratio (x) = 0.22487 0.27906
# Poissons Ratio (y) = 0.18191 0.25799
# Poissons Ratio (z) = 0.28444 0.32506
#
# Static dielectric constant tensor:
#      x y z
#    x 1.751010 0.000000 0.000000 
#    y 0.000000 1.730260 0.000000 
#    z 0.000000 0.000000 1.762250 
# 
# From -- ./inp_files/417.got.cif
#   From: 2010.05.17/outbox.cif.g08.bks.cpg/sg59_1_cif.got.tgz:417.got - 2010.06.03 14:40:33.
