data_PCOD9453940
_publ_section_title
;
Structure prediction by ZEFSAII (Michael W. Deem and Ramdas Pophale) SiO2 
 PCOD9453940
Probable space group: P B C N
;
_chemical_formula_sum "Si O2"
_cell_formula_units_Z 36
_cell_length_a 7.832413
_cell_length_b 18.456540
_cell_length_c 11.063757
_cell_angle_alpha 90.000000
_cell_angle_beta 90.000000
_cell_angle_gamma 90.000000
_cell_volume 1599.368346
_symmetry_space_group_name_H-M "P B C N"
_symmetry_group_IT_number 60
_symmetry_cell_setting 'orthorhombic'
loop_
_space_group_symop_operation_xyz
x,y,z
1/2-x,1/2-y,1/2+z
1/2+x,1/2-y,-z
-x,y,1/2-z
-x,-y,-z
1/2+x,1/2+y,1/2-z
1/2-x,1/2+y,z
x,-y,1/2+z
loop_
_atom_site_type_symbol
_atom_site_label
_atom_site_fract_x
_atom_site_fract_y
_atom_site_fract_z
Si Si1 0.821406 0.519901 0.431011
Si Si2 0.680708 0.126938 0.816429
Si Si3 0.835236 0.143812 0.568482
Si Si4 0.000000 0.373683 0.750000
Si Si5 0.013046 0.718008 0.482126
O O1 0.754015 0.443532 0.385602
O O2 0.692872 0.563714 0.516984
O O3 0.000000 0.500000 0.500000
O O4 0.868497 0.572499 0.318370
O O5 0.500000 0.106020 0.750000
O O6 0.809124 0.146310 0.711036
O O7 0.629296 0.189935 0.907805
O O8 0.987293 0.195613 0.528929
O O9 0.671152 0.186425 0.514454
O O10 0.931725 0.321573 0.642809
#
# Coordination Sequence:
#
# PCOD9453940 Si02
#       5
#     8   8   8   4   8
#     4  11  16  32  54  84 105 140 186 235 269 311
#     4  10  18  33  53  82 117 138 181 238 278 313
#     4  10  22  35  58  84 114 145 183 231 280 329
#     4  10  18  30  54  80 110 138 182 224 272 324
#     4  10  22  35  53  86 112 148 182 225 282 333
#
# _framework density 22.508886
#
# number of rings (size 3 to 8) (size 9 to 14) (size 15 to 20)
#    0.000    1.778    7.778    0.000    6.222    0.000 
#    0.000    0.000    0.000    1.333    5.778    0.000 
#    0.000    0.000    0.000    0.000    0.000    0.000 
#
# Total GULP energy -201122.188554 kJ/mol
# GULP energy per Si atom -5586.727460 kJ/mol
# Density = 2.245765 g / cm^3
# Si number density = 22.508886 Si / 1000 Ang^3
#
#
#
# Elastic Constant Matrix: (Units=GPa)
#
#
# Indices 1 2 3 4 5 6 
#
# 1 46.3367 2.8493 0.3504 0.0000 0.0000 0.0000
# 2 2.8493 112.7335 24.8303 0.0000 0.0000 0.0000
# 3 0.3504 24.8303 109.2745 0.0000 0.0000 0.0000
# 4 0.0000 0.0000 0.0000 26.3873 0.0000 0.0000
# 5 0.0000 0.0000 0.0000 0.0000 8.4863 0.0000
# 6 0.0000 0.0000 0.0000 0.0000 0.0000 33.8981
#
#
#
# Elastic Compliance Matrix: (Units=1/GPa)
#
#
# Indices 1 2 3 4 5 6 
#
# 1 0.021615 -0.000559 0.000058 0.000000 0.000000 0.000000
# 2 -0.000559 0.009352 -0.002123 0.000000 0.000000 0.000000
# 3 0.000058 -0.002123 0.009634 0.000000 0.000000 0.000000
# 4 0.000000 0.000000 0.000000 0.037897 0.000000 0.000000
# 5 0.000000 0.000000 0.000000 0.000000 0.117837 0.000000
# 6 0.000000 0.000000 0.000000 0.000000 0.000000 0.029500
#
#
# Mechanical properties :
#
#
# Convention : Reuss Voigt Hill
#
# Bulk Modulus (GPa) = 28.28719 36.04496 32.16607
# Shear Modulus (GPa) = 20.58730 29.77532 25.18131
#
# Velocity S-wave (km/s) = 3.02757 3.64101 3.34837
# Velocity P-wave (km/s) = 4.98156 5.80727 5.41019
#
# Compressibility (1/GPa) = 0.03535169
#
# Stress axis : x y z
#
# Youngs Moduli (GPa) = 46.26393 106.92577 103.80376
#
# Poissons Ratio (x) = 0.05977 -0.00599
# Poissons Ratio (y) = 0.02586 0.22041
# Poissons Ratio (z) = -0.00267 0.22704
#
# Static dielectric constant tensor:
#      x y z
#    x 1.944650 0.000000 0.000000 
#    y 0.000000 1.844960 0.000000 
#    z 0.000000 0.000000 1.852400 
# 
# From -- ./inp_files/10682.got.cif
#   From: 2010.05.17/outbox.cif.g08.bks.cpg/sg60_6_cif.got.tgz:10682.got - 2010.06.03 14:59:27.
