data_PCOD9453217
_publ_section_title
;
Structure prediction by ZEFSAII (Michael W. Deem and Ramdas Pophale) SiO2 
 PCOD9453217
Probable space group: P M M N
;
_chemical_formula_sum "Si O2"
_cell_formula_units_Z 48
_cell_length_a 32.875682
_cell_length_b 7.389210
_cell_length_c 9.943673
_cell_angle_alpha 90.000000
_cell_angle_beta 90.000000
_cell_angle_gamma 90.000000
_cell_volume 2415.569928
_symmetry_space_group_name_H-M "P M M N"
_symmetry_group_IT_number 59
_space_group.IT_coordinate_system_code '2'
_symmetry_cell_setting 'orthorhombic'
loop_
_space_group_symop_operation_xyz
x,y,z
1/2-x,1/2-y,z
1/2+x,-y,-z
-x,1/2+y,-z
-x,-y,-z
1/2+x,1/2+y,-z
1/2-x,y,z
x,1/2-y,z
loop_
_atom_site_type_symbol
_atom_site_label
_atom_site_fract_x
_atom_site_fract_y
_atom_site_fract_z
Si Si1 0.366930 0.966248 0.143510
Si Si2 0.457578 0.954761 0.818659
Si Si3 0.956793 0.534465 0.867458
Si Si4 0.130529 0.527645 0.834472
Si Si5 0.795662 0.470362 0.353158
Si Si6 0.704245 0.470749 0.662862
O O1 0.362560 0.750000 0.137337
O O2 0.331184 0.034994 0.238820
O O3 0.412642 0.002851 0.195113
O O4 0.364349 0.031676 0.989323
O O5 0.542046 0.250000 0.234208
O O6 0.502479 0.033677 0.792990
O O7 0.413783 0.034903 0.781512
O O8 0.455591 0.952027 0.982536
O O9 0.961745 0.750000 0.884930
O O10 0.129284 0.750000 0.834878
O O11 0.168243 0.470168 0.743776
O O12 0.750000 0.526592 0.312566
O O13 0.795868 0.250000 0.351116
O O14 0.802263 0.525070 0.507963
O O15 0.750000 0.525068 0.703275
O O16 0.703676 0.250000 0.663955
#
# Coordination Sequence:
#
# PCOD9453217 Si02
#       6
#     8   8   8   8   8   8
#     4   9  16  25  38  58  82 103 125 157 195 230
#     4   8  14  24  37  55  79 105 131 159 192 229
#     4   9  15  23  37  56  78 104 132 160 190 227
#     4   8  13  21  34  53  76  99 123 153 189 225
#     4   8  13  21  34  54  78 100 123 154 192 231
#     4   8  14  24  37  54  77 103 128 155 190 231
#
# _framework density 19.871089000000001
#
# number of rings (size 3 to 8) (size 9 to 14) (size 15 to 20)
#    0.000    3.667    0.000    2.500    0.000    1.333 
#    0.000    3.333    0.000    1.500    0.000    4.667 
#    0.000    5.333    0.000    0.000    0.000    1.500 
#
# Total GULP energy -267240.177528 kJ/mol
# GULP energy per Si atom -5567.503698 kJ/mol
# Density = 1.982586 g / cm^3
# Si number density = 19.871089 Si / 1000 Ang^3
#
#
#
# Elastic Constant Matrix: (Units=GPa)
#
#
# Indices 1 2 3 4 5 6 
#
# 1 256.8361 0.4211 94.3615 0.0000 0.0000 0.0000
# 2 0.4211 72.0282 1.9122 0.0000 0.0000 0.0000
# 3 94.3615 1.9122 52.1152 0.0000 0.0000 0.0000
# 4 0.0000 0.0000 0.0000 -4.6424 0.0000 0.0000
# 5 0.0000 0.0000 0.0000 0.0000 -9.6755 0.0000
# 6 0.0000 0.0000 0.0000 0.0000 0.0000 9.9593
#
#
#
# Elastic Compliance Matrix: (Units=1/GPa)
#
#
# Indices 1 2 3 4 5 6 
#
# 1 0.011648 0.000492 -0.021108 0.000000 0.000000 0.000000
# 2 0.000492 0.013918 -0.001402 0.000000 0.000000 0.000000
# 3 -0.021108 -0.001402 0.057458 0.000000 0.000000 0.000000
# 4 0.000000 0.000000 0.000000 -0.215404 0.000000 0.000000
# 5 0.000000 0.000000 0.000000 0.000000 -0.103354 0.000000
# 6 0.000000 0.000000 0.000000 0.000000 0.000000 0.100408
#
#
# Mechanical properties :
#
#
# Convention : Reuss Voigt Hill
#
# Bulk Modulus (GPa) = 25.64848 63.81880 44.73364
# Shear Modulus (GPa) = -63.86241 18.08058 -22.89091
#
# Velocity S-wave (km/s) = -5.67522 3.01972 -3.39775
# Velocity P-wave (km/s) = 5.47802 6.65916 2.67728
#
# Compressibility (1/GPa) = 0.03898866
#
# Stress axis : x y z
#
# Youngs Moduli (GPa) = 85.85341 71.85046 17.40390
#
# Poissons Ratio (x) = -0.03537 0.36736
# Poissons Ratio (y) = -0.04226 0.02440
# Poissons Ratio (z) = 1.81218 0.10074
#
# Static dielectric constant tensor:
#      x y z
#    x 1.754160 0.000000 0.000000 
#    y 0.000000 1.802040 0.000000 
#    z 0.000000 0.000000 1.641430 
# 
# From -- ./inp_files/12960.got.cif
#   From: 2010.05.17/outbox.cif.g08.bks.cpg/sg59_7_cif.got.tgz:12960.got - 2010.06.03 14:40:33.
