data_PCOD9453295
_publ_section_title
;
Structure prediction by ZEFSAII (Michael W. Deem and Ramdas Pophale) SiO2 
 PCOD9453295
Probable space group: P M M N
;
_chemical_formula_sum "Si O2"
_cell_formula_units_Z 48
_cell_length_a 29.278596
_cell_length_b 7.325831
_cell_length_c 10.605764
_cell_angle_alpha 90.000000
_cell_angle_beta 90.000000
_cell_angle_gamma 90.000000
_cell_volume 2274.830810
_symmetry_space_group_name_H-M "P M M N"
_symmetry_group_IT_number 59
_space_group.IT_coordinate_system_code '2'
_symmetry_cell_setting 'orthorhombic'
loop_
_space_group_symop_operation_xyz
x,y,z
1/2-x,1/2-y,z
1/2+x,-y,-z
-x,1/2+y,-z
-x,-y,-z
1/2+x,1/2+y,-z
1/2-x,y,z
x,1/2-y,z
loop_
_atom_site_type_symbol
_atom_site_label
_atom_site_fract_x
_atom_site_fract_y
_atom_site_fract_z
Si Si1 0.557010 0.534808 0.630634
Si Si2 0.152128 0.472694 0.267456
Si Si3 0.862065 0.527427 0.232717
Si Si4 0.698115 0.972161 0.471327
Si Si5 0.545280 0.969215 0.343672
Si Si6 0.697287 0.527011 0.994021
O O1 0.565262 0.750000 0.616310
O O2 0.599864 0.466395 0.710614
O O3 0.506898 0.512781 0.689196
O O4 0.554547 0.461862 0.486858
O O5 0.152813 0.250000 0.263387
O O6 0.179586 0.528246 0.392466
O O7 0.175993 0.532403 0.138998
O O8 0.861920 0.750000 0.230015
O O9 0.834647 0.471205 0.357939
O O10 0.914472 0.468735 0.251451
O O11 0.834859 0.467879 0.109216
O O12 0.750000 0.030666 0.450784
O O13 0.697774 0.750000 0.471026
O O14 0.547870 0.750000 0.348666
O O15 0.750000 0.470272 0.008527
O O16 0.697596 0.750000 0.994840
#
# Coordination Sequence:
#
# PCOD9453295 Si02
#       6
#     8   8   8   8   8   8
#     4   9  16  27  43  62  85 112 142 175 212 251
#     4   9  15  24  36  54  80 109 138 169 207 248
#     4   9  15  24  36  54  80 109 138 169 207 248
#     4   9  14  20  33  52  75 103 135 169 204 247
#     4   9  16  27  43  62  85 112 142 175 212 251
#     4   9  16  24  35  54  83 115 139 163 206 259
#
# _framework density 21.100467999999999
#
# number of rings (size 3 to 8) (size 9 to 14) (size 15 to 20)
#    0.000    3.000    1.667    1.000    0.000    4.000 
#    0.000    0.833    0.000    0.000    0.000    0.000 
#    0.000    8.000    0.000    0.000    0.000    0.000 
#
# Total GULP energy -267935.416036 kJ/mol
# GULP energy per Si atom -5581.987834 kJ/mol
# Density = 2.105244 g / cm^3
# Si number density = 21.100468 Si / 1000 Ang^3
#
#
#
# Elastic Constant Matrix: (Units=GPa)
#
#
# Indices 1 2 3 4 5 6 
#
# 1 66.6696 -11.2295 -29.8134 0.0000 0.0000 0.0000
# 2 -11.2295 79.0849 -6.3290 0.0000 0.0000 0.0000
# 3 -29.8134 -6.3290 39.2914 0.0000 0.0000 0.0000
# 4 0.0000 0.0000 0.0000 11.2893 0.0000 0.0000
# 5 0.0000 0.0000 0.0000 0.0000 34.0663 0.0000
# 6 0.0000 0.0000 0.0000 0.0000 0.0000 9.4001
#
#
#
# Elastic Compliance Matrix: (Units=1/GPa)
#
#
# Indices 1 2 3 4 5 6 
#
# 1 0.024537 0.005039 0.019429 0.000000 0.000000 0.000000
# 2 0.005039 0.013845 0.006054 0.000000 0.000000 0.000000
# 3 0.019429 0.006054 0.041169 0.000000 0.000000 0.000000
# 4 0.000000 0.000000 0.000000 0.088579 0.000000 0.000000
# 5 0.000000 0.000000 0.000000 0.000000 0.029354 0.000000
# 6 0.000000 0.000000 0.000000 0.000000 0.000000 0.106381
#
#
# Mechanical properties :
#
#
# Convention : Reuss Voigt Hill
#
# Bulk Modulus (GPa) = 7.11271 10.03356 8.57313
# Shear Modulus (GPa) = 17.26009 26.44569 21.85289
#
# Velocity S-wave (km/s) = 2.86316 3.54407 3.22166
# Velocity P-wave (km/s) = 3.78266 4.63818 4.23209
#
# Compressibility (1/GPa) = 0.14059344
#
# Stress axis : x y z
#
# Youngs Moduli (GPa) = 40.75554 72.23041 24.29037
#
# Poissons Ratio (x) = -0.36396 -0.47195
# Poissons Ratio (y) = -0.20536 -0.14704
# Poissons Ratio (z) = -0.79186 -0.43725
#
# Static dielectric constant tensor:
#      x y z
#    x 1.748720 0.000000 0.000000 
#    y 0.000000 1.869830 0.000000 
#    z 0.000000 0.000000 1.705610 
# 
# From -- ./inp_files/7697.got.cif
#   From: 2010.05.17/outbox.cif.g08.bks.cpg/sg59_4_cif.got.tgz:7697.got - 2010.06.03 14:40:33.
