data_PCOD9453745
_publ_section_title
;
Structure prediction by ZEFSAII (Michael W. Deem and Ramdas Pophale) SiO2 
 PCOD9453745
Probable space group: P B C N
;
_chemical_formula_sum "Si O2"
_cell_formula_units_Z 48
_cell_length_a 8.898280
_cell_length_b 30.601918
_cell_length_c 9.430060
_cell_angle_alpha 90.000000
_cell_angle_beta 90.000000
_cell_angle_gamma 90.000000
_cell_volume 2567.847159
_symmetry_space_group_name_H-M "P B C N"
_symmetry_group_IT_number 60
_symmetry_cell_setting 'orthorhombic'
loop_
_space_group_symop_operation_xyz
x,y,z
1/2-x,1/2-y,1/2+z
1/2+x,1/2-y,-z
-x,y,1/2-z
-x,-y,-z
1/2+x,1/2+y,1/2-z
1/2-x,1/2+y,z
x,-y,1/2+z
loop_
_atom_site_type_symbol
_atom_site_label
_atom_site_fract_x
_atom_site_fract_y
_atom_site_fract_z
Si Si1 0.498038 0.778371 0.582087
Si Si2 0.389657 0.597320 0.965860
Si Si3 0.285753 0.576885 0.647434
Si Si4 0.885208 0.014796 0.379382
Si Si5 0.855238 0.334678 0.349635
Si Si6 0.808887 0.194348 0.575546
O O1 0.500000 0.788734 0.750000
O O2 0.615059 0.807798 0.491691
O O3 0.336827 0.786863 0.507583
O O4 0.557606 0.728995 0.565306
O O5 0.323795 0.583683 0.813080
O O6 0.568235 0.590945 0.944290
O O7 0.349976 0.647446 0.990469
O O8 0.329375 0.562823 0.080431
O O9 0.266185 0.524820 0.630413
O O10 0.165379 0.614130 0.615479
O O11 0.000000 0.016571 0.250000
O O12 0.000000 0.000000 0.500000
O O13 0.727536 0.315867 0.242651
O O14 0.000000 0.330437 0.250000
#
# Coordination Sequence:
#
# PCOD9453745 Si02
#       6
#     8   8   8   8   8   8
#     4  11  23  39  58  85 117 144 191 243 282 329
#     4   9  18  31  53  82 110 142 188 227 279 340
#     4   9  16  31  58  78 105 145 186 222 282 339
#     4  10  16  31  50  84 112 140 182 237 279 332
#     4   9  20  38  58  80 107 152 195 227 277 352
#     4  10  22  38  60  82 112 155 189 228 282 351
#
# _framework density 18.692702000000001
#
# number of rings (size 3 to 8) (size 9 to 14) (size 15 to 20)
#    0.000    2.333    3.333    1.000    7.000    0.000 
#    6.000    2.500    0.000   10.000    0.000    0.000 
#    0.000    0.000    0.000    0.000    0.000    0.000 
#
# Total GULP energy -267255.495848 kJ/mol
# GULP energy per Si atom -5567.822830 kJ/mol
# Density = 1.865016 g / cm^3
# Si number density = 18.692702 Si / 1000 Ang^3
#
#
#
# Elastic Constant Matrix: (Units=GPa)
#
#
# Indices 1 2 3 4 5 6 
#
# 1 22.0870 39.0416 19.3633 0.0000 0.0000 0.0000
# 2 39.0416 186.5731 61.4641 0.0000 0.0000 0.0000
# 3 19.3633 61.4641 89.9150 0.0000 0.0000 0.0000
# 4 0.0000 0.0000 0.0000 29.4872 0.0000 0.0000
# 5 0.0000 0.0000 0.0000 0.0000 16.1462 0.0000
# 6 0.0000 0.0000 0.0000 0.0000 0.0000 30.9376
#
#
#
# Elastic Compliance Matrix: (Units=1/GPa)
#
#
# Indices 1 2 3 4 5 6 
#
# 1 0.075128 -0.013411 -0.007011 0.000000 0.000000 0.000000
# 2 -0.013411 0.009312 -0.003477 0.000000 0.000000 0.000000
# 3 -0.007011 -0.003477 0.015008 0.000000 0.000000 0.000000
# 4 0.000000 0.000000 0.000000 0.033913 0.000000 0.000000
# 5 0.000000 0.000000 0.000000 0.000000 0.061934 0.000000
# 6 0.000000 0.000000 0.000000 0.000000 0.000000 0.032323
#
#
# Mechanical properties :
#
#
# Convention : Reuss Voigt Hill
#
# Bulk Modulus (GPa) = 19.36149 59.81258 39.58704
# Shear Modulus (GPa) = 17.08617 27.22795 22.15706
#
# Velocity S-wave (km/s) = 3.02661 3.82069 3.44660
# Velocity P-wave (km/s) = 4.75333 7.17850 6.08790
#
# Compressibility (1/GPa) = 0.05164892
#
# Stress axis : x y z
#
# Youngs Moduli (GPa) = 13.31057 107.39126 66.62916
#
# Poissons Ratio (x) = 1.44026 0.46716
# Poissons Ratio (y) = 0.17851 0.23168
# Poissons Ratio (z) = 0.09332 0.37342
#
# Static dielectric constant tensor:
#      x y z
#    x 1.678460 0.000000 0.000000 
#    y 0.000000 1.714010 0.000000 
#    z 0.000000 0.000000 1.641280 
# 
# From -- ./inp_files/4168.got.cif
#   From: 2010.05.17/outbox.cif.g08.bks.cpg/sg60_3_cif.got.tgz:4168.got - 2010.06.03 14:59:27.
