data_PCOD9453969
_publ_section_title
;
Structure prediction by ZEFSAII (Michael W. Deem and Ramdas Pophale) SiO2 
 PCOD9453969
Probable space group: P B C N
;
_chemical_formula_sum "Si O2"
_cell_formula_units_Z 60
_cell_length_a 10.927011
_cell_length_b 21.627156
_cell_length_c 14.093268
_cell_angle_alpha 90.000000
_cell_angle_beta 90.000000
_cell_angle_gamma 90.000000
_cell_volume 3330.523511
_symmetry_space_group_name_H-M "P B C N"
_symmetry_group_IT_number 60
_symmetry_cell_setting 'orthorhombic'
loop_
_space_group_symop_operation_xyz
x,y,z
1/2-x,1/2-y,1/2+z
1/2+x,1/2-y,-z
-x,y,1/2-z
-x,-y,-z
1/2+x,1/2+y,1/2-z
1/2-x,1/2+y,z
x,-y,1/2+z
loop_
_atom_site_type_symbol
_atom_site_label
_atom_site_fract_x
_atom_site_fract_y
_atom_site_fract_z
Si Si1 0.296454 0.850336 0.586224
Si Si2 0.000000 0.392216 0.250000
Si Si3 0.389926 0.287234 0.118595
Si Si4 0.142194 0.146840 0.266137
Si Si5 0.508627 0.929627 0.033022
Si Si6 0.154060 0.209886 0.936306
Si Si7 0.279392 0.849204 0.963442
Si Si8 0.806820 0.708833 0.730815
O O1 0.371933 0.785983 0.596824
O O2 0.241585 0.873991 0.686363
O O3 0.379762 0.896960 0.525328
O O4 0.173746 0.826712 0.532758
O O5 0.022640 0.425650 0.351371
O O6 0.109764 0.344514 0.228988
O O7 0.528466 0.307458 0.112030
O O8 0.322707 0.293575 0.217742
O O9 0.316007 0.328823 0.043999
O O10 0.202853 0.132471 0.368955
O O11 0.141866 0.222213 0.258435
O O12 0.000000 0.126546 0.250000
O O13 0.382387 0.896063 0.000115
O O14 0.500000 0.000000 0.000000
O O15 0.152838 0.283804 0.944603
O O16 0.277722 0.196503 0.878302
#
# Coordination Sequence:
#
# PCOD9453969 Si02
#       8
#     8   4   8   8   8   8   8   8
#     4  10  21  34  55  88 122 161 204 249 306 366
#     4  12  22  42  62  88 126 152 210 252 298 374
#     4  10  18  31  55  87 128 151 191 257 317 366
#     4  10  20  33  57  91 128 166 195 253 317 377
#     4  12  26  44  64  88 122 172 212 254 299 357
#     4  10  18  31  55  87 128 151 191 257 317 366
#     4  10  21  34  55  88 122 161 204 249 306 366
#     4  10  19  30  56  89 125 160 194 243 319 383
#
# _framework density 18.015187000000001
#
# number of rings (size 3 to 8) (size 9 to 14) (size 15 to 20)
#    0.000    1.600    4.667    1.200    0.000    1.600 
#    0.000    0.000    0.000    3.200    0.000    0.000 
#    0.000    0.000    0.000    0.000    0.000    0.000 
#
# Total GULP energy -334062.572992 kJ/mol
# GULP energy per Si atom -5567.709550 kJ/mol
# Density = 1.797418 g / cm^3
# Si number density = 18.015187 Si / 1000 Ang^3
#
#
#
# Elastic Constant Matrix: (Units=GPa)
#
#
# Indices 1 2 3 4 5 6 
#
# 1 95.2356 20.2835 28.6657 0.0000 0.0000 0.0000
# 2 20.2835 63.1489 21.8416 0.0000 0.0000 0.0000
# 3 28.6657 21.8416 100.1911 0.0000 0.0000 0.0000
# 4 0.0000 0.0000 0.0000 12.6579 0.0000 0.0000
# 5 0.0000 0.0000 0.0000 0.0000 16.3130 0.0000
# 6 0.0000 0.0000 0.0000 0.0000 0.0000 25.2679
#
#
#
# Elastic Compliance Matrix: (Units=1/GPa)
#
#
# Indices 1 2 3 4 5 6 
#
# 1 0.011953 -0.002873 -0.002794 0.000000 0.000000 0.000000
# 2 -0.002873 0.017818 -0.003062 0.000000 0.000000 0.000000
# 3 -0.002794 -0.003062 0.011448 0.000000 0.000000 0.000000
# 4 0.000000 0.000000 0.000000 0.079002 0.000000 0.000000
# 5 0.000000 0.000000 0.000000 0.000000 0.061301 0.000000
# 6 0.000000 0.000000 0.000000 0.000000 0.000000 0.039576
#
#
# Mechanical properties :
#
#
# Convention : Reuss Voigt Hill
#
# Bulk Modulus (GPa) = 42.08637 44.46189 43.27413
# Shear Modulus (GPa) = 20.28603 23.36675 21.82639
#
# Velocity S-wave (km/s) = 3.35931 3.60538 3.48452
# Velocity P-wave (km/s) = 6.20153 6.48579 6.34525
#
# Compressibility (1/GPa) = 0.02376066
#
# Stress axis : x y z
#
# Youngs Moduli (GPa) = 83.66068 56.12438 87.35347
#
# Poissons Ratio (x) = 0.16125 0.24403
# Poissons Ratio (y) = 0.24037 0.26749
# Poissons Ratio (z) = 0.23371 0.17186
#
# Static dielectric constant tensor:
#      x y z
#    x 1.640410 0.000000 0.000000 
#    y 0.000000 1.575690 0.000000 
#    z 0.000000 0.000000 1.647120 
# 
# From -- ./inp_files/16428.got.cif
#   From: 2010.05.17/outbox.cif.g08.bks.cpg/sg60_9_cif.got.tgz:16428.got - 2010.06.03 14:59:27.
