data_PCOD9453286
_publ_section_title
;
Structure prediction by ZEFSAII (Michael W. Deem and Ramdas Pophale) SiO2 
 PCOD9453286
Probable space group: P M M N
;
_chemical_formula_sum "Si O2"
_cell_formula_units_Z 56
_cell_length_a 23.896664
_cell_length_b 7.422944
_cell_length_c 15.434013
_cell_angle_alpha 90.000000
_cell_angle_beta 90.000000
_cell_angle_gamma 90.000000
_cell_volume 2737.740768
_symmetry_space_group_name_H-M "P M M N"
_symmetry_group_IT_number 59
_space_group.IT_coordinate_system_code '2'
_symmetry_cell_setting 'orthorhombic'
loop_
_space_group_symop_operation_xyz
x,y,z
1/2-x,1/2-y,z
1/2+x,-y,-z
-x,1/2+y,-z
-x,-y,-z
1/2+x,1/2+y,-z
1/2-x,y,z
x,1/2-y,z
loop_
_atom_site_type_symbol
_atom_site_label
_atom_site_fract_x
_atom_site_fract_y
_atom_site_fract_z
Si Si1 0.398437 0.545123 0.289216
Si Si2 0.186201 0.969764 0.160519
Si Si3 0.685351 0.970454 0.161089
Si Si4 0.422962 0.465360 0.751779
Si Si5 0.476939 0.034904 0.126923
Si Si6 0.004941 0.966391 0.398788
Si Si7 0.389538 0.455436 0.997905
O O1 0.385706 0.750000 0.314927
O O2 0.342070 0.467135 0.249915
O O3 0.440466 0.544952 0.206289
O O4 0.435765 0.460599 0.363822
O O5 0.250000 0.021531 0.152589
O O6 0.182325 0.750000 0.157385
O O7 0.150176 0.044472 0.082011
O O8 0.750000 0.030709 0.165863
O O9 0.687581 0.750000 0.158683
O O10 0.641167 0.024823 0.235875
O O11 0.651306 0.032797 0.075604
O O12 0.421317 0.250000 0.745184
O O13 0.459873 0.504239 0.839001
O O14 0.456553 0.533648 0.667251
O O15 0.468892 0.250000 0.126086
O O16 0.447202 0.964117 0.038478
O O17 0.005918 0.750000 0.386930
O O18 0.000000 0.000000 0.500000
O O19 0.402337 0.250000 0.971129
#
# Coordination Sequence:
#
# PCOD9453286 Si02
#       7
#     8   8   8   8   8   8   8
#     4   8  15  28  43  62  89 116 142 173 210 255
#     4   9  16  26  42  63  88 120 153 181 211 249
#     4   9  17  30  48  66  86 119 160 192 215 248
#     4   9  18  32  48  67  90 116 148 183 221 267
#     4   9  16  26  42  66  93 118 145 180 222 260
#     4   9  17  29  47  68  86 105 133 174 223 272
#     4   9  17  28  43  65  91 119 154 190 218 248
#
# _framework density 20.454823000000001
#
# number of rings (size 3 to 8) (size 9 to 14) (size 15 to 20)
#    0.000    3.143    0.000    1.714    0.000    4.286 
#    0.000    0.714    0.000    2.143    0.000    0.000 
#    0.000    0.000    0.000    0.000    0.000    0.571 
#
# Total GULP energy -311869.122091 kJ/mol
# GULP energy per Si atom -5569.091466 kJ/mol
# Density = 2.040827 g / cm^3
# Si number density = 20.454823 Si / 1000 Ang^3
#
#
#
# Elastic Constant Matrix: (Units=GPa)
#
#
# Indices 1 2 3 4 5 6 
#
# 1 163.2938 -1.4879 53.0944 0.0000 0.0000 0.0000
# 2 -1.4879 76.8171 1.8642 0.0000 0.0000 0.0000
# 3 53.0944 1.8642 104.3337 0.0000 0.0000 0.0000
# 4 0.0000 0.0000 0.0000 15.7801 0.0000 0.0000
# 5 0.0000 0.0000 0.0000 0.0000 23.5559 0.0000
# 6 0.0000 0.0000 0.0000 0.0000 0.0000 7.1451
#
#
#
# Elastic Compliance Matrix: (Units=1/GPa)
#
#
# Indices 1 2 3 4 5 6 
#
# 1 0.007342 0.000233 -0.003741 0.000000 0.000000 0.000000
# 2 0.000233 0.013031 -0.000351 0.000000 0.000000 0.000000
# 3 -0.003741 -0.000351 0.011494 0.000000 0.000000 0.000000
# 4 0.000000 0.000000 0.000000 0.063371 0.000000 0.000000
# 5 0.000000 0.000000 0.000000 0.000000 0.042452 0.000000
# 6 0.000000 0.000000 0.000000 0.000000 0.000000 0.139956
#
#
# Mechanical properties :
#
#
# Convention : Reuss Voigt Hill
#
# Bulk Modulus (GPa) = 41.40832 50.15399 45.78116
# Shear Modulus (GPa) = 17.04074 28.69448 22.86761
#
# Velocity S-wave (km/s) = 2.88946 3.74949 3.34721
# Velocity P-wave (km/s) = 5.60533 6.58161 6.11299
#
# Compressibility (1/GPa) = 0.02414974
#
# Stress axis : x y z
#
# Youngs Moduli (GPa) = 136.19725 76.74025 86.99846
#
# Poissons Ratio (x) = -0.01788 0.32542
# Poissons Ratio (y) = -0.03173 0.03057
# Poissons Ratio (z) = 0.50946 0.02697
#
# Static dielectric constant tensor:
#      x y z
#    x 1.767910 0.000000 0.000000 
#    y 0.000000 1.757080 0.000000 
#    z 0.000000 0.000000 1.732250 
# 
# From -- ./inp_files/28057.got.cif
#   From: 2010.05.17/outbox.cif.g08.bks.cpg/sg59_15_cif.got.tgz:28057.got - 2010.06.03 14:40:33.
