data_PCOD9453235
_publ_section_title
;
Structure prediction by ZEFSAII (Michael W. Deem and Ramdas Pophale) SiO2 
 PCOD9453235
Probable space group: P M M N
;
_chemical_formula_sum "Si O2"
_cell_formula_units_Z 56
_cell_length_a 18.843047
_cell_length_b 7.415767
_cell_length_c 21.364769
_cell_angle_alpha 90.000000
_cell_angle_beta 90.000000
_cell_angle_gamma 90.000000
_cell_volume 2985.419800
_symmetry_space_group_name_H-M "P M M N"
_symmetry_group_IT_number 59
_space_group.IT_coordinate_system_code '2'
_symmetry_cell_setting 'orthorhombic'
loop_
_space_group_symop_operation_xyz
x,y,z
1/2-x,1/2-y,z
1/2+x,-y,-z
-x,1/2+y,-z
-x,-y,-z
1/2+x,1/2+y,-z
1/2-x,y,z
x,1/2-y,z
loop_
_atom_site_type_symbol
_atom_site_label
_atom_site_fract_x
_atom_site_fract_y
_atom_site_fract_z
Si Si1 0.571859 0.538422 0.644180
Si Si2 0.670501 0.528883 0.753505
Si Si3 0.023754 0.036682 0.928506
Si Si4 0.451024 0.965305 0.560765
Si Si5 0.373155 0.042884 0.111378
Si Si6 0.829787 0.970750 0.026648
Si Si7 0.169290 0.531308 0.475979
O O1 0.559975 0.750000 0.656319
O O2 0.611092 0.463924 0.705028
O O3 0.496947 0.462298 0.618881
O O4 0.626724 0.524245 0.586180
O O5 0.750000 0.478264 0.733500
O O6 0.668039 0.750000 0.753712
O O7 0.656129 0.465596 0.824234
O O8 0.023703 0.250000 0.917331
O O9 0.105269 0.971347 0.928494
O O10 0.959068 0.959763 0.888313
O O11 0.000000 0.000000 0.000000
O O12 0.445521 0.750000 0.569287
O O13 0.374599 0.030853 0.537274
O O14 0.500000 0.000000 0.500000
O O15 0.348928 0.250000 0.110165
O O16 0.346973 0.967042 0.044661
O O17 0.750000 0.023914 0.043858
O O18 0.832485 0.750000 0.025896
O O19 0.250000 0.469114 0.474662
O O20 0.169046 0.750000 0.476366
#
# Coordination Sequence:
#
# PCOD9453235 Si02
#       7
#     8   8   8   8   8   8   8
#     4   9  16  26  40  57  77 101 131 166 196 225
#     4   9  16  25  39  59  79 102 135 167 190 219
#     4   9  16  26  41  59  79 102 128 159 192 227
#     4   8  14  24  37  53  73  97 125 157 194 233
#     4   9  16  26  40  56  77 105 131 156 187 225
#     4   8  13  22  38  58  75  93 121 154 184 216
#     4   9  16  25  37  54  77 103 128 157 197 242
#
# _framework density 18.757829999999998
#
# number of rings (size 3 to 8) (size 9 to 14) (size 15 to 20)
#    0.000    3.286    0.000    2.143    0.000    2.571 
#    0.000    0.714    0.000   15.429    0.000    1.000 
#    0.000    3.429    0.000    0.571    0.000    0.000 
#
# Total GULP energy -311745.593785 kJ/mol
# GULP energy per Si atom -5566.885603 kJ/mol
# Density = 1.871514 g / cm^3
# Si number density = 18.757830 Si / 1000 Ang^3
#
#
#
# Elastic Constant Matrix: (Units=GPa)
#
#
# Indices 1 2 3 4 5 6 
#
# 1 60.7664 -13.0983 -7.7206 0.0000 0.0000 0.0000
# 2 -13.0983 61.6417 -3.9573 0.0000 0.0000 0.0000
# 3 -7.7206 -3.9573 27.2614 0.0000 0.0000 0.0000
# 4 0.0000 0.0000 0.0000 3.3435 0.0000 0.0000
# 5 0.0000 0.0000 0.0000 0.0000 29.5202 0.0000
# 6 0.0000 0.0000 0.0000 0.0000 0.0000 8.6985
#
#
#
# Elastic Compliance Matrix: (Units=1/GPa)
#
#
# Indices 1 2 3 4 5 6 
#
# 1 0.018093 0.004213 0.005736 0.000000 0.000000 0.000000
# 2 0.004213 0.017356 0.003713 0.000000 0.000000 0.000000
# 3 0.005736 0.003713 0.038845 0.000000 0.000000 0.000000
# 4 0.000000 0.000000 0.000000 0.299089 0.000000 0.000000
# 5 0.000000 0.000000 0.000000 0.000000 0.033875 0.000000
# 6 0.000000 0.000000 0.000000 0.000000 0.000000 0.114963
#
#
# Mechanical properties :
#
#
# Convention : Reuss Voigt Hill
#
# Bulk Modulus (GPa) = 9.84084 11.12410 10.48247
# Shear Modulus (GPa) = 9.45587 19.94214 14.69901
#
# Velocity S-wave (km/s) = 2.24766 3.26412 2.80236
# Velocity P-wave (km/s) = 3.46318 4.48878 4.00891
#
# Compressibility (1/GPa) = 0.10161738
#
# Stress axis : x y z
#
# Youngs Moduli (GPa) = 55.26904 57.61583 25.74317
#
# Poissons Ratio (x) = -0.24273 -0.14766
# Poissons Ratio (y) = -0.23284 -0.09557
# Poissons Ratio (z) = -0.31701 -0.21391
#
# Static dielectric constant tensor:
#      x y z
#    x 1.702350 0.000000 0.000000 
#    y 0.000000 1.747420 0.000000 
#    z 0.000000 0.000000 1.630460 
# 
# From -- ./inp_files/29299.got.cif
#   From: 2010.05.17/outbox.cif.g08.bks.cpg/sg59_15_cif.got.tgz:29299.got - 2010.06.03 14:40:33.
