data_PCOD9453573
_publ_section_title
;
Structure prediction by ZEFSAII (Michael W. Deem and Ramdas Pophale) SiO2 
 PCOD9453573
Probable space group: P M M N
;
_chemical_formula_sum "Si O2"
_cell_formula_units_Z 56
_cell_length_a 9.000000
_cell_length_b 15.000000
_cell_length_c 21.000000
_cell_angle_alpha 90.000000
_cell_angle_beta 90.000000
_cell_angle_gamma 90.000000
_cell_volume 2835.000000
_symmetry_space_group_name_H-M "P M M N"
_symmetry_group_IT_number 59
_space_group.IT_coordinate_system_code '2'
_symmetry_cell_setting 'orthorhombic'
loop_
_space_group_symop_operation_xyz
x,y,z
1/2-x,1/2-y,z
1/2+x,-y,-z
-x,1/2+y,-z
-x,-y,-z
1/2+x,1/2+y,-z
1/2-x,y,z
x,1/2-y,z
loop_
_atom_site_type_symbol
_atom_site_label
_atom_site_fract_x
_atom_site_fract_y
_atom_site_fract_z
Si Si1 0.081487 0.145856 0.026906
Si Si2 0.577999 0.896488 0.109788
Si Si3 0.579897 0.402538 0.155402
Si Si4 0.419816 0.644295 0.705457
Si Si5 0.072545 0.750000 0.196192
Si Si6 0.073353 0.110301 0.562520
Si Si7 0.571742 0.250000 0.655795
Si Si8 0.927532 0.582083 0.577477
O O1 0.250000 0.112670 0.036160
O O2 0.084567 0.250000 0.009846
O O3 0.999823 0.138194 0.094084
O O4 0.017922 0.100354 0.962927
O O5 0.750000 0.865160 0.104947
O O6 0.487803 0.833340 0.156346
O O7 0.580032 0.993374 0.140012
O O8 0.750000 0.369051 0.157558
O O9 0.517634 0.387798 0.226306
O O10 0.250000 0.608317 0.697675
O O11 0.410247 0.750000 0.710362
O O12 0.516126 0.622798 0.643434
O O13 0.250000 0.750000 0.196216
O O14 0.022920 0.750000 0.270202
O O15 0.250000 0.116988 0.571999
O O16 0.042428 0.135731 0.488404
O O17 0.990526 0.167304 0.615604
O O18 0.016233 0.009940 0.570013
O O19 0.750000 0.250000 0.654804
O O20 0.750000 0.566769 0.579406
#
# Coordination Sequence:
#
# PCOD9453573 Si02
#       8
#     8   8   8   8   4   8   4   8
#     4  10  20  36  58  85 120 157 196 243 296 353
#     4  10  21  40  62  85 118 158 198 242 297 356
#     4  10  22  38  60  88 117 154 202 248 293 351
#     4  10  22  39  58  86 122 159 202 250 299 356
#     4  11  25  41  59  89 122 153 196 245 297 354
#     4  10  22  41  64  91 121 160 204 243 300 367
#     4  11  25  41  61  93 130 159 198 251 301 350
#     4  10  22  40  63  90 122 155 201 256 301 357
#
# _framework density 19.753086
#
# number of rings (size 3 to 8) (size 9 to 14) (size 15 to 20)
#    0.000    1.857    0.714    2.143    3.000    5.714 
#    0.000    0.000    0.000    0.000    0.000    0.000 
#    0.000    0.000    0.000    0.000    0.000    0.000 
#
# Total GULP energy -312391.147996 kJ/mol
# GULP energy per Si atom -5578.413357 kJ/mol
# Density = 1.970813 g / cm^3
# Si number density = 19.753086 Si / 1000 Ang^3
#
#
#
# Elastic Constant Matrix: (Units=GPa)
#
#
# Indices 1 2 3 4 5 6 
#
# 1 52.6395 12.3640 53.3123 0.0000 0.0000 0.0000
# 2 12.3640 60.1068 36.5293 0.0000 0.0000 0.0000
# 3 53.3123 36.5293 195.3452 0.0000 0.0000 0.0000
# 4 0.0000 0.0000 0.0000 30.5954 0.0000 0.0000
# 5 0.0000 0.0000 0.0000 0.0000 32.0848 0.0000
# 6 0.0000 0.0000 0.0000 0.0000 0.0000 22.9043
#
#
#
# Elastic Compliance Matrix: (Units=1/GPa)
#
#
# Indices 1 2 3 4 5 6 
#
# 1 0.026328 -0.001183 -0.006964 0.000000 0.000000 0.000000
# 2 -0.001183 0.018823 -0.003197 0.000000 0.000000 0.000000
# 3 -0.006964 -0.003197 0.007618 0.000000 0.000000 0.000000
# 4 0.000000 0.000000 0.000000 0.032685 0.000000 0.000000
# 5 0.000000 0.000000 0.000000 0.000000 0.031167 0.000000
# 6 0.000000 0.000000 0.000000 0.000000 0.000000 0.043660
#
#
# Mechanical properties :
#
#
# Convention : Reuss Voigt Hill
#
# Bulk Modulus (GPa) = 33.24438 56.94474 45.09456
# Shear Modulus (GPa) = 25.90719 30.84262 28.37491
#
# Velocity S-wave (km/s) = 3.62546 3.95575 3.79420
# Velocity P-wave (km/s) = 5.86445 7.05371 6.48640
#
# Compressibility (1/GPa) = 0.03008027
#
# Stress axis : x y z
#
# Youngs Moduli (GPa) = 37.98223 53.12529 131.27599
#
# Poissons Ratio (x) = 0.06287 0.91420
# Poissons Ratio (y) = 0.04495 0.41969
# Poissons Ratio (z) = 0.26451 0.16984
#
# Static dielectric constant tensor:
#      x y z
#    x 1.693380 0.000000 0.000000 
#    y 0.000000 1.731050 0.000000 
#    z 0.000000 0.000000 1.690970 
# 
# From -- ./inp_files/29207.got.cif
#   From: 2010.05.17/outbox.ucp.g08.bks.cvg/sg59_15_cif.got.tgz:29207.got - 2010.06.11 16:43:56.
