data_PCOD9453737
_publ_section_title
;
Structure prediction by ZEFSAII (Michael W. Deem and Ramdas Pophale) SiO2 
 PCOD9453737
Probable space group: P B C N
;
_chemical_formula_sum "Si O2"
_cell_formula_units_Z 24
_cell_length_a 7.863053
_cell_length_b 27.651050
_cell_length_c 5.255904
_cell_angle_alpha 90.000000
_cell_angle_beta 90.000000
_cell_angle_gamma 90.000000
_cell_volume 1142.747434
_symmetry_space_group_name_H-M "P B C N"
_symmetry_group_IT_number 60
_symmetry_cell_setting 'orthorhombic'
loop_
_space_group_symop_operation_xyz
x,y,z
1/2-x,1/2-y,1/2+z
1/2+x,1/2-y,-z
-x,y,1/2-z
-x,-y,-z
1/2+x,1/2+y,1/2-z
1/2-x,1/2+y,z
x,-y,1/2+z
loop_
_atom_site_type_symbol
_atom_site_label
_atom_site_fract_x
_atom_site_fract_y
_atom_site_fract_z
Si Si1 0.804969 0.520843 0.521425
Si Si2 0.887993 0.369389 0.005052
Si Si3 0.688805 0.275446 0.859793
O O1 0.723674 0.492948 0.755100
O O2 0.812748 0.577852 0.565224
O O3 0.000000 0.500000 0.500000
O O4 0.000000 0.354597 0.250000
O O5 0.752852 0.328066 0.944453
O O6 0.000000 0.375414 0.750000
O O7 0.797839 0.256613 0.616827
O O8 0.500000 0.275946 0.750000
#
# Coordination Sequence:
#
# PCOD9453737 Si02
#       3
#     8   8   8
#     4  10  16  30  51  88 123 149 201 253 284 357
#     4  12  21  35  63  93 120 163 206 256 312 364
#     4  12  26  45  64  89 126 164 215 267 318 376
#
# _framework density 21.002013999999999
#
# number of rings (size 3 to 8) (size 9 to 14) (size 15 to 20)
#    0.000    0.667    6.667    6.000    0.000    0.000 
#    0.000    0.000    0.000    2.000    0.000    0.000 
#    0.000    0.000    0.000    0.000    0.000    0.000 
#
# Total GULP energy -134140.939158 kJ/mol
# GULP energy per Si atom -5589.205798 kJ/mol
# Density = 2.095421 g / cm^3
# Si number density = 21.002014 Si / 1000 Ang^3
#
#
#
# Elastic Constant Matrix: (Units=GPa)
#
#
# Indices 1 2 3 4 5 6 
#
# 1 64.9920 44.7182 31.1147 0.0000 0.0000 0.0000
# 2 44.7182 154.5061 26.4397 0.0000 0.0000 0.0000
# 3 31.1147 26.4397 163.0541 0.0000 0.0000 0.0000
# 4 0.0000 0.0000 0.0000 43.9793 0.0000 0.0000
# 5 0.0000 0.0000 0.0000 0.0000 23.0150 0.0000
# 6 0.0000 0.0000 0.0000 0.0000 0.0000 12.0550
#
#
#
# Elastic Compliance Matrix: (Units=1/GPa)
#
#
# Indices 1 2 3 4 5 6 
#
# 1 0.020586 -0.005437 -0.003047 0.000000 0.000000 0.000000
# 2 -0.005437 0.008093 -0.000275 0.000000 0.000000 0.000000
# 3 -0.003047 -0.000275 0.006759 0.000000 0.000000 0.000000
# 4 0.000000 0.000000 0.000000 0.022738 0.000000 0.000000
# 5 0.000000 0.000000 0.000000 0.000000 0.043450 0.000000
# 6 0.000000 0.000000 0.000000 0.000000 0.000000 0.082953
#
#
# Mechanical properties :
#
#
# Convention : Reuss Voigt Hill
#
# Bulk Modulus (GPa) = 55.80027 65.23305 60.51666
# Shear Modulus (GPa) = 24.03054 34.49517 29.26286
#
# Velocity S-wave (km/s) = 3.38627 4.05714 3.73679
# Velocity P-wave (km/s) = 6.47424 7.28526 6.89169
#
# Compressibility (1/GPa) = 0.01792106
#
# Stress axis : x y z
#
# Youngs Moduli (GPa) = 48.57694 123.56661 147.95347
#
# Poissons Ratio (x) = 0.67180 0.45077
# Poissons Ratio (y) = 0.26410 0.04066
# Poissons Ratio (z) = 0.14800 0.03396
#
# Static dielectric constant tensor:
#      x y z
#    x 1.855830 0.000000 0.000000 
#    y 0.000000 1.738470 0.000000 
#    z 0.000000 0.000000 1.872510 
# 
# From -- ./inp_files/227.got.cif
#   From: 2010.05.17/outbox.cif.g08.bks.cpg/sg60_1_cif.got.tgz:227.got - 2010.06.03 14:59:27.
