data_PCOD9453797
_publ_section_title
;
Structure prediction by ZEFSAII (Michael W. Deem and Ramdas Pophale) SiO2 
 PCOD9453797
Probable space group: P B C N
;
_chemical_formula_sum "Si O2"
_cell_formula_units_Z 64
_cell_length_a 25.586069
_cell_length_b 5.047096
_cell_length_c 30.282809
_cell_angle_alpha 90.000000
_cell_angle_beta 90.000000
_cell_angle_gamma 90.000000
_cell_volume 3910.581033
_symmetry_space_group_name_H-M "P B C N"
_symmetry_group_IT_number 60
_symmetry_cell_setting 'orthorhombic'
loop_
_space_group_symop_operation_xyz
x,y,z
1/2-x,1/2-y,1/2+z
1/2+x,1/2-y,-z
-x,y,1/2-z
-x,-y,-z
1/2+x,1/2+y,1/2-z
1/2-x,1/2+y,z
x,-y,1/2+z
loop_
_atom_site_type_symbol
_atom_site_label
_atom_site_fract_x
_atom_site_fract_y
_atom_site_fract_z
Si Si1 0.445451 0.571360 0.278654
Si Si2 0.110283 0.553784 0.243324
Si Si3 0.285372 0.087647 0.091459
Si Si4 0.394687 0.936545 0.059048
Si Si5 0.715859 0.877374 0.804702
Si Si6 0.559066 0.864710 0.346564
Si Si7 0.462130 0.430333 0.040026
Si Si8 0.500706 0.363875 0.362148
O O1 0.500000 0.604123 0.250000
O O2 0.412561 0.338130 0.255893
O O3 0.458057 0.478322 0.328542
O O4 0.411435 0.837741 0.277618
O O5 0.171005 0.564050 0.230746
O O6 0.084336 0.453373 0.198205
O O7 0.261520 0.378345 0.084555
O O8 0.333612 0.008979 0.059929
O O9 0.300684 0.079344 0.143848
O O10 0.408414 0.944119 0.110897
O O11 0.431178 0.154838 0.035894
O O12 0.416800 0.652594 0.044331
O O13 0.736023 0.579058 0.799263
O O14 0.508265 0.053318 0.352333
O O15 0.549644 0.550925 0.347533
O O16 0.497060 0.413485 0.085201
O O17 0.500000 0.500000 0.000000
#
# Coordination Sequence:
#
# PCOD9453797 Si02
#       8
#     8   8   8   8   8   8   8   8
#     4  12  21  29  46  71 101 130 161 199 237 287
#     4  12  20  31  47  66  99 131 174 189 242 284
#     4  10  19  30  47  71  99 130 163 199 243 288
#     4  10  19  32  50  71 100 129 169 196 240 290
#     4  10  21  34  47  66  96 135 177 208 231 277
#     4  10  17  29  44  66  93 134 158 190 227 287
#     4  10  21  35  53  71  97 133 172 198 246 301
#     4  10  20  31  45  67  99 126 159 203 233 282
#
# _framework density 16.365853000000001
#
# number of rings (size 3 to 8) (size 9 to 14) (size 15 to 20)
#    0.000    1.500    3.750    3.000    0.000    0.000 
#    0.000    0.000    0.000    0.000    0.000    0.000 
#    0.000   20.000    0.000    0.000    0.000    0.000 
#
# Total GULP energy -356493.428849 kJ/mol
# GULP energy per Si atom -5570.209826 kJ/mol
# Density = 1.632860 g / cm^3
# Si number density = 16.365853 Si / 1000 Ang^3
#
#
#
# Elastic Constant Matrix: (Units=GPa)
#
#
# Indices 1 2 3 4 5 6 
#
# 1 39.7451 -15.3369 3.5558 0.0000 0.0000 0.0000
# 2 -15.3369 46.2899 -20.0379 0.0000 0.0000 0.0000
# 3 3.5558 -20.0379 28.8075 0.0000 0.0000 0.0000
# 4 0.0000 0.0000 0.0000 17.2301 0.0000 0.0000
# 5 0.0000 0.0000 0.0000 0.0000 19.5636 0.0000
# 6 0.0000 0.0000 0.0000 0.0000 0.0000 10.0401
#
#
#
# Elastic Compliance Matrix: (Units=1/GPa)
#
#
# Indices 1 2 3 4 5 6 
#
# 1 0.029247 0.011629 0.004479 0.000000 0.000000 0.000000
# 2 0.011629 0.035534 0.023281 0.000000 0.000000 0.000000
# 3 0.004479 0.023281 0.050354 0.000000 0.000000 0.000000
# 4 0.000000 0.000000 0.000000 0.058038 0.000000 0.000000
# 5 0.000000 0.000000 0.000000 0.000000 0.051115 0.000000
# 6 0.000000 0.000000 0.000000 0.000000 0.000000 0.099601
#
#
# Mechanical properties :
#
#
# Convention : Reuss Voigt Hill
#
# Bulk Modulus (GPa) = 5.15692 5.68937 5.42315
# Shear Modulus (GPa) = 16.14211 19.14419 17.64315
#
# Velocity S-wave (km/s) = 3.14399 3.42389 3.28692
# Velocity P-wave (km/s) = 4.04196 4.37203 4.21023
#
# Compressibility (1/GPa) = 0.19391401
#
# Stress axis : x y z
#
# Youngs Moduli (GPa) = 34.19141 28.14208 19.85924
#
# Poissons Ratio (x) = -0.32727 -0.08895
# Poissons Ratio (y) = -0.39761 -0.46235
# Poissons Ratio (z) = -0.15314 -0.65518
#
# Static dielectric constant tensor:
#      x y z
#    x 1.573870 0.000000 0.000000 
#    y 0.000000 1.575310 0.000000 
#    z 0.000000 0.000000 1.544370 
# 
# From -- ./inp_files/25506.got.cif
#   From: 2010.05.17/outbox.cif.g08.bks.cpg/sg60_13_cif.got.tgz:25506.got - 2010.06.03 14:59:27.
