data_PCOD9453117
_publ_section_title
;
Structure prediction by ZEFSAII (Michael W. Deem and Ramdas Pophale) SiO2 
 PCOD9453117
Probable space group: P M M N
;
_chemical_formula_sum "Si O2"
_cell_formula_units_Z 40
_cell_length_a 8.694050
_cell_length_b 10.324410
_cell_length_c 24.264408
_cell_angle_alpha 90.000000
_cell_angle_beta 90.000000
_cell_angle_gamma 90.000000
_cell_volume 2177.995992
_symmetry_space_group_name_H-M "P M M N"
_symmetry_group_IT_number 59
_space_group.IT_coordinate_system_code '2'
_symmetry_cell_setting 'orthorhombic'
loop_
_space_group_symop_operation_xyz
x,y,z
1/2-x,1/2-y,z
1/2+x,-y,-z
-x,1/2+y,-z
-x,-y,-z
1/2+x,1/2+y,-z
1/2-x,y,z
x,1/2-y,z
loop_
_atom_site_type_symbol
_atom_site_label
_atom_site_fract_x
_atom_site_fract_y
_atom_site_fract_z
Si Si1 0.433885 0.601455 0.242910
Si Si2 0.436774 0.250000 0.954644
Si Si3 0.564629 0.102516 0.457222
Si Si4 0.934908 0.750000 0.918164
Si Si5 0.935606 0.399535 0.330102
Si Si6 0.065168 0.481985 0.874903
O O1 0.250000 0.593308 0.237672
O O2 0.474822 0.750000 0.257188
O O3 0.490748 0.501124 0.288748
O O4 0.508910 0.565822 0.184470
O O5 0.250000 0.250000 0.954889
O O6 0.485501 0.122781 0.920903
O O7 0.487515 0.250000 0.017862
O O8 0.750000 0.099626 0.459054
O O9 0.515653 0.250000 0.470268
O O10 0.519943 0.075139 0.393759
O O11 0.500000 0.000000 0.500000
O O12 0.750000 0.750000 0.916904
O O13 0.997091 0.621479 0.889146
O O14 0.750000 0.408248 0.326528
O O15 0.977366 0.250000 0.317077
O O16 0.250000 0.488089 0.875185
#
# Coordination Sequence:
#
# PCOD9453117 Si02
#       6
#     8   4   8   4   8   8
#     4  11  24  40  58  84 116 150 189 239 297 347
#     4   9  20  39  63  87 115 149 192 237 282 339
#     4   9  19  36  57  84 118 154 193 237 284 336
#     4  11  23  39  59  89 121 149 186 237 288 341
#     4   9  20  39  61  84 113 152 196 239 284 339
#     4  11  22  40  62  86 114 152 195 235 283 345
#
# _framework density 18.365507000000001
#
# number of rings (size 3 to 8) (size 9 to 14) (size 15 to 20)
#    0.000    2.000    1.000    3.300    1.400    3.600 
#    0.000    9.000    0.000    0.000    0.000    0.000 
#    0.000    0.000    0.000    0.000    0.000    0.000 
#
# Total GULP energy -223426.776122 kJ/mol
# GULP energy per Si atom -5585.669403 kJ/mol
# Density = 1.832371 g / cm^3
# Si number density = 18.365507 Si / 1000 Ang^3
#
#
#
# Elastic Constant Matrix: (Units=GPa)
#
#
# Indices 1 2 3 4 5 6 
#
# 1 45.3901 49.7556 39.5333 0.0000 0.0000 0.0000
# 2 49.7556 158.2574 84.7333 0.0000 0.0000 0.0000
# 3 39.5333 84.7333 108.4556 0.0000 0.0000 0.0000
# 4 0.0000 0.0000 0.0000 44.0978 0.0000 0.0000
# 5 0.0000 0.0000 0.0000 0.0000 28.2026 0.0000
# 6 0.0000 0.0000 0.0000 0.0000 0.0000 22.6287
#
#
#
# Elastic Compliance Matrix: (Units=1/GPa)
#
#
# Indices 1 2 3 4 5 6 
#
# 1 0.036884 -0.007560 -0.007538 0.000000 0.000000 0.000000
# 2 -0.007560 0.012412 -0.006942 0.000000 0.000000 0.000000
# 3 -0.007538 -0.006942 0.017391 0.000000 0.000000 0.000000
# 4 0.000000 0.000000 0.000000 0.022677 0.000000 0.000000
# 5 0.000000 0.000000 0.000000 0.000000 0.035458 0.000000
# 6 0.000000 0.000000 0.000000 0.000000 0.000000 0.044192
#
#
# Mechanical properties :
#
#
# Convention : Reuss Voigt Hill
#
# Bulk Modulus (GPa) = 44.23229 73.34971 58.79100
# Shear Modulus (GPa) = 22.66240 28.19123 25.42681
#
# Velocity S-wave (km/s) = 3.51660 3.92217 3.72491
# Velocity P-wave (km/s) = 6.37380 7.78054 7.11203
#
# Compressibility (1/GPa) = 0.02260792
#
# Stress axis : x y z
#
# Youngs Moduli (GPa) = 27.11203 80.56465 57.49978
#
# Poissons Ratio (x) = 0.60909 0.43343
# Poissons Ratio (y) = 0.20497 0.39914
# Poissons Ratio (z) = 0.20437 0.55925
#
# Static dielectric constant tensor:
#      x y z
#    x 1.621870 0.000000 0.000000 
#    y 0.000000 1.611510 0.000000 
#    z 0.000000 0.000000 1.604430 
# 
# From -- ./inp_files/32426.got.cif
#   From: 2010.05.17/outbox.cif.g08.bks.cpg/sg59_17_cif.got.tgz:32426.got - 2010.06.03 14:40:33.
