data_PCOD9453729
_publ_section_title
;
Structure prediction by ZEFSAII (Michael W. Deem and Ramdas Pophale) SiO2 
 PCOD9453729
Probable space group: P B C N
;
_chemical_formula_sum "Si O2"
_cell_formula_units_Z 60
_cell_length_a 28.219459
_cell_length_b 8.284501
_cell_length_c 11.773091
_cell_angle_alpha 90.000000
_cell_angle_beta 90.000000
_cell_angle_gamma 90.000000
_cell_volume 2752.361911
_symmetry_space_group_name_H-M "P B C N"
_symmetry_group_IT_number 60
_symmetry_cell_setting 'orthorhombic'
loop_
_space_group_symop_operation_xyz
x,y,z
1/2-x,1/2-y,1/2+z
1/2+x,1/2-y,-z
-x,y,1/2-z
-x,-y,-z
1/2+x,1/2+y,1/2-z
1/2-x,1/2+y,z
x,-y,1/2+z
loop_
_atom_site_type_symbol
_atom_site_label
_atom_site_fract_x
_atom_site_fract_y
_atom_site_fract_z
Si Si1 0.736581 0.504087 0.689878
Si Si2 0.465580 0.247533 0.027351
Si Si3 0.187028 0.721468 0.927701
Si Si4 0.912504 0.693319 0.681589
Si Si5 0.316015 0.215455 0.193786
Si Si6 0.500000 0.644765 0.750000
Si Si7 0.564240 0.118766 0.927648
Si Si8 0.090038 0.664178 0.340949
O O1 0.769054 0.611265 0.607997
O O2 0.703589 0.397760 0.609431
O O3 0.773721 0.402100 0.765175
O O4 0.703667 0.609830 0.771292
O O5 0.475389 0.382772 0.123245
O O6 0.441637 0.079421 0.079628
O O7 0.435258 0.301438 0.917296
O O8 0.514489 0.184788 0.973518
O O9 0.142301 0.680157 0.849251
O O10 0.175343 0.703422 0.059749
O O11 0.923018 0.714692 0.813158
O O12 0.933232 0.513558 0.666440
O O13 0.363744 0.180833 0.264116
O O14 0.451709 0.719391 0.802838
O O15 0.601778 0.167748 0.025128
#
# Coordination Sequence:
#
# PCOD9453729 Si02
#       8
#     8   8   8   8   8   4   8   8
#     4  10  24  43  61  91 117 156 201 251 312 366
#     4   9  17  26  45  71 118 157 190 236 296 340
#     4  11  23  40  63  89 116 155 199 249 307 366
#     4  11  19  30  50  83 117 151 198 239 299 353
#     4  11  22  43  64  89 123 157 200 255 307 367
#     4  10  16  30  46  80 118 156 198 238 298 354
#     4   9  18  28  42  76 118 158 188 238 286 349
#     4  10  20  30  52  85 117 160 191 244 294 358
#
# _framework density 21.79946
#
# number of rings (size 3 to 8) (size 9 to 14) (size 15 to 20)
#    0.000    1.867    2.667    2.800    1.867    0.000 
#   12.000    0.000    0.000    0.000    3.467    2.800 
#    0.000    0.000    0.000    0.000    0.000    0.000 
#
# Total GULP energy -334097.512592 kJ/mol
# GULP energy per Si atom -5568.291877 kJ/mol
# Density = 2.174984 g / cm^3
# Si number density = 21.799460 Si / 1000 Ang^3
#
#
#
# Elastic Constant Matrix: (Units=GPa)
#
#
# Indices 1 2 3 4 5 6 
#
# 1 67.4350 5.6459 46.0998 0.0000 0.0000 0.0000
# 2 5.6459 27.6218 12.3603 0.0000 0.0000 0.0000
# 3 46.0998 12.3603 176.4716 0.0000 0.0000 0.0000
# 4 0.0000 0.0000 0.0000 4.8816 0.0000 0.0000
# 5 0.0000 0.0000 0.0000 0.0000 36.7178 0.0000
# 6 0.0000 0.0000 0.0000 0.0000 0.0000 6.7328
#
#
#
# Elastic Compliance Matrix: (Units=1/GPa)
#
#
# Indices 1 2 3 4 5 6 
#
# 1 0.018124 -0.001637 -0.004620 0.000000 0.000000 0.000000
# 2 -0.001637 0.037523 -0.002200 0.000000 0.000000 0.000000
# 3 -0.004620 -0.002200 0.007028 0.000000 0.000000 0.000000
# 4 0.000000 0.000000 0.000000 0.204849 0.000000 0.000000
# 5 0.000000 0.000000 0.000000 0.000000 0.027235 0.000000
# 6 0.000000 0.000000 0.000000 0.000000 0.000000 0.148527
#
#
# Mechanical properties :
#
#
# Convention : Reuss Voigt Hill
#
# Bulk Modulus (GPa) = 21.85348 44.41561 33.13454
# Shear Modulus (GPa) = 10.51626 23.49460 17.00543
#
# Velocity S-wave (km/s) = 2.19876 3.28649 2.79603
# Velocity P-wave (km/s) = 4.06111 5.90087 5.06522
#
# Compressibility (1/GPa) = 0.04575931
#
# Stress axis : x y z
#
# Youngs Moduli (GPa) = 55.17398 26.65060 142.29527
#
# Poissons Ratio (x) = 0.04363 0.65740
# Poissons Ratio (y) = 0.09034 0.31311
# Poissons Ratio (z) = 0.25490 0.05864
#
# Static dielectric constant tensor:
#      x y z
#    x 1.781480 0.000000 0.000000 
#    y 0.000000 1.856920 0.000000 
#    z 0.000000 0.000000 1.894440 
# 
# From -- ./inp_files/13305.got.cif
#   From: 2010.05.17/outbox.cif.g08.bks.cpg/sg60_7_cif.got.tgz:13305.got - 2010.06.03 14:59:27.
