data_PCOD9453123
_publ_section_title
;
Structure prediction by ZEFSAII (Michael W. Deem and Ramdas Pophale) SiO2 
 PCOD9453123
Probable space group: P M M N
;
_chemical_formula_sum "Si O2"
_cell_formula_units_Z 34
_cell_length_a 23.217633
_cell_length_b 7.925768
_cell_length_c 8.238217
_cell_angle_alpha 90.000000
_cell_angle_beta 90.000000
_cell_angle_gamma 90.000000
_cell_volume 1515.976695
_symmetry_space_group_name_H-M "P M M N"
_symmetry_group_IT_number 59
_space_group.IT_coordinate_system_code '2'
_symmetry_cell_setting 'orthorhombic'
loop_
_space_group_symop_operation_xyz
x,y,z
1/2-x,1/2-y,z
1/2+x,-y,-z
-x,1/2+y,-z
-x,-y,-z
1/2+x,1/2+y,-z
1/2-x,y,z
x,1/2-y,z
loop_
_atom_site_type_symbol
_atom_site_label
_atom_site_fract_x
_atom_site_fract_y
_atom_site_fract_z
Si Si1 0.562174 0.450411 0.420276
Si Si2 0.561196 0.939825 0.056312
Si Si3 0.175638 0.939030 0.049610
Si Si4 0.185925 0.453694 0.420734
Si Si5 0.750000 0.750000 0.064362
O O1 0.500000 0.500000 0.500000
O O2 0.560039 0.250000 0.394253
O O3 0.565485 0.544344 0.248983
O O4 0.624142 0.488289 0.507169
O O5 0.570821 0.750000 0.000836
O O6 0.500000 0.000000 0.000000
O O7 0.608094 0.054566 0.973326
O O8 0.193370 0.750000 0.003910
O O9 0.188668 0.977442 0.237374
O O10 0.201246 0.097042 0.949353
O O11 0.250000 0.498064 0.496479
O O12 0.184493 0.250000 0.416952
#
# Coordination Sequence:
#
# PCOD9453123 Si02
#       5
#     8   8   8   8   2
#     4  12  26  45  68  98 132 178 228 278 341 406
#     4  12  25  46  69  99 134 175 227 285 343 404
#     4  12  23  42  70 101 137 181 229 277 335 404
#     4  11  22  43  68 100 137 179 223 276 337 401
#     4  12  22  44  64 104 140 180 230 272 336 398
#
# _framework density 22.427785
#
# number of rings (size 3 to 8) (size 9 to 14) (size 15 to 20)
#    0.000    0.235    3.529    6.706    0.000    1.412 
#    2.118    0.000    0.000    0.000    0.000    0.000 
#    0.000    0.000    0.000    0.000    0.000    0.000 
#
# Total GULP energy -189348.989495 kJ/mol
# GULP energy per Si atom -5569.087926 kJ/mol
# Density = 2.237674 g / cm^3
# Si number density = 22.427785 Si / 1000 Ang^3
#
#
#
# Elastic Constant Matrix: (Units=GPa)
#
#
# Indices 1 2 3 4 5 6 
#
# 1 235.6815 33.7607 27.7549 0.0000 0.0000 0.0000
# 2 33.7607 175.0178 -21.2655 0.0000 0.0000 0.0000
# 3 27.7549 -21.2655 32.3975 0.0000 0.0000 0.0000
# 4 0.0000 0.0000 0.0000 23.7966 0.0000 0.0000
# 5 0.0000 0.0000 0.0000 0.0000 45.3560 0.0000
# 6 0.0000 0.0000 0.0000 0.0000 0.0000 45.8889
#
#
#
# Elastic Compliance Matrix: (Units=1/GPa)
#
#
# Indices 1 2 3 4 5 6 
#
# 1 0.005125 -0.001654 -0.005476 0.000000 0.000000 0.000000
# 2 -0.001654 0.006743 0.005843 0.000000 0.000000 0.000000
# 3 -0.005476 0.005843 0.039393 0.000000 0.000000 0.000000
# 4 0.000000 0.000000 0.000000 0.042023 0.000000 0.000000
# 5 0.000000 0.000000 0.000000 0.000000 0.022048 0.000000
# 6 0.000000 0.000000 0.000000 0.000000 0.000000 0.021792
#
#
# Mechanical properties :
#
#
# Convention : Reuss Voigt Hill
#
# Bulk Modulus (GPa) = 20.53977 58.17746 39.35861
# Shear Modulus (GPa) = 32.06647 49.86474 40.96560
#
# Velocity S-wave (km/s) = 3.78533 4.72035 4.27846
# Velocity P-wave (km/s) = 5.31817 7.46359 6.48028
#
# Compressibility (1/GPa) = 0.04868605
#
# Stress axis : x y z
#
# Youngs Moduli (GPa) = 195.12870 148.30922 25.38520
#
# Poissons Ratio (x) = 0.24529 0.13901
# Poissons Ratio (y) = 0.32273 -0.14832
# Poissons Ratio (z) = 1.06854 -0.86654
#
# Static dielectric constant tensor:
#      x y z
#    x 1.878180 0.000000 0.000000 
#    y 0.000000 1.796770 0.000000 
#    z 0.000000 0.000000 1.607380 
# 
# From -- ./inp_files/10953.got.cif
#   From: 2010.05.17/outbox.cif.g08.bks.cpg/sg59_6_cif.got.tgz:10953.got - 2010.06.03 14:40:33.
