data_PCOD9453184
_publ_section_title
;
Structure prediction by ZEFSAII (Michael W. Deem and Ramdas Pophale) SiO2 
 PCOD9453184
Probable space group: P M M N
;
_chemical_formula_sum "Si O2"
_cell_formula_units_Z 26
_cell_length_a 7.325983
_cell_length_b 13.749247
_cell_length_c 9.774650
_cell_angle_alpha 90.000000
_cell_angle_beta 90.000000
_cell_angle_gamma 90.000000
_cell_volume 984.568725
_symmetry_space_group_name_H-M "P M M N"
_symmetry_group_IT_number 59
_space_group.IT_coordinate_system_code '2'
_symmetry_cell_setting 'orthorhombic'
loop_
_space_group_symop_operation_xyz
x,y,z
1/2-x,1/2-y,z
1/2+x,-y,-z
-x,1/2+y,-z
-x,-y,-z
1/2+x,1/2+y,-z
1/2-x,y,z
x,1/2-y,z
loop_
_atom_site_type_symbol
_atom_site_label
_atom_site_fract_x
_atom_site_fract_y
_atom_site_fract_z
Si Si1 0.466265 0.420167 0.684961
Si Si2 0.030444 0.142069 0.385711
Si Si3 0.034477 0.387100 0.981616
Si Si4 0.750000 0.250000 0.114239
O O1 0.250000 0.405093 0.683211
O O2 0.534614 0.376766 0.542168
O O3 0.494132 0.537183 0.683706
O O4 0.528228 0.369728 0.824567
O O5 0.250000 0.149931 0.382451
O O6 0.955138 0.250000 0.344470
O O7 0.250000 0.365480 0.997240
O O8 0.909337 0.332469 0.087218
O O9 0.000000 0.500000 0.000000
#
# Coordination Sequence:
#
# PCOD9453184 Si02
#       4
#     8   8   8   2
#     4   9  20  37  58  85 125 163 203 270 321 376
#     4   9  18  34  56  85 120 164 210 256 322 387
#     4  11  24  46  69  99 138 172 223 281 331 403
#     4  12  26  44  76 100 122 188 222 268 352 386
#
# _framework density 26.407503999999999
#
# number of rings (size 3 to 8) (size 9 to 14) (size 15 to 20)
#    0.000    2.154    1.538    0.462    4.308    0.615 
#    2.769    0.000    0.000    0.000    0.000    0.000 
#    0.000    0.000    0.000    0.000    0.000    0.000 
#
# Total GULP energy -144984.137184 kJ/mol
# GULP energy per Si atom -5576.312969 kJ/mol
# Density = 2.634740 g / cm^3
# Si number density = 26.407504 Si / 1000 Ang^3
#
#
#
# Elastic Constant Matrix: (Units=GPa)
#
#
# Indices 1 2 3 4 5 6 
#
# 1 116.4719 -25.2145 -23.0347 0.0000 0.0000 0.0000
# 2 -25.2145 161.7819 29.9243 0.0000 0.0000 0.0000
# 3 -23.0347 29.9243 103.3991 0.0000 0.0000 0.0000
# 4 0.0000 0.0000 0.0000 36.5076 0.0000 0.0000
# 5 0.0000 0.0000 0.0000 0.0000 -45.0486 0.0000
# 6 0.0000 0.0000 0.0000 0.0000 0.0000 -217.7675
#
#
#
# Elastic Compliance Matrix: (Units=1/GPa)
#
#
# Indices 1 2 3 4 5 6 
#
# 1 0.009166 0.001110 0.001721 0.000000 0.000000 0.000000
# 2 0.001110 0.006665 -0.001682 0.000000 0.000000 0.000000
# 3 0.001721 -0.001682 0.010541 0.000000 0.000000 0.000000
# 4 0.000000 0.000000 0.000000 0.027392 0.000000 0.000000
# 5 0.000000 0.000000 0.000000 0.000000 -0.022198 0.000000
# 6 0.000000 0.000000 0.000000 0.000000 0.000000 -0.004592
#
#
# Mechanical properties :
#
#
# Convention : Reuss Voigt Hill
#
# Bulk Modulus (GPa) = 34.87737 38.33368 36.60552
# Shear Modulus (GPa) = 146.05978 -18.59649 63.73164
#
# Velocity S-wave (km/s) = 7.44513 -2.65658 4.91796
# Velocity P-wave (km/s) = 9.33503 2.26668 6.79266
#
# Compressibility (1/GPa) = 0.02867189
#
# Stress axis : x y z
#
# Youngs Moduli (GPa) = 109.09356 150.03171 94.86535
#
# Poissons Ratio (x) = -0.16659 -0.16324
# Poissons Ratio (y) = -0.12113 0.15953
# Poissons Ratio (z) = -0.18772 0.25229
#
# Static dielectric constant tensor:
#      x y z
#    x 2.025840 0.000000 0.000000 
#    y 0.000000 1.989570 0.000000 
#    z 0.000000 0.000000 2.244710 
# 
# From -- ./inp_files/13439.got.cif
#   From: 2010.05.17/outbox.cif.g08.bks.cpg/sg59_7_cif.got.tgz:13439.got - 2010.06.03 14:40:33.
