data_PCOD9453480
_publ_section_title
;
Structure prediction by ZEFSAII (Michael W. Deem and Ramdas Pophale) SiO2 
 PCOD9453480
Probable space group: P M M N
;
_chemical_formula_sum "Si O2"
_cell_formula_units_Z 64
_cell_length_a 9.000000
_cell_length_b 24.000000
_cell_length_c 15.000000
_cell_angle_alpha 90.000000
_cell_angle_beta 90.000000
_cell_angle_gamma 90.000000
_cell_volume 3240.000000
_symmetry_space_group_name_H-M "P M M N"
_symmetry_group_IT_number 59
_space_group.IT_coordinate_system_code '2'
_symmetry_cell_setting 'orthorhombic'
loop_
_space_group_symop_operation_xyz
x,y,z
1/2-x,1/2-y,z
1/2+x,-y,-z
-x,1/2+y,-z
-x,-y,-z
1/2+x,1/2+y,-z
1/2-x,y,z
x,1/2-y,z
loop_
_atom_site_type_symbol
_atom_site_label
_atom_site_fract_x
_atom_site_fract_y
_atom_site_fract_z
Si Si1 0.419416 0.072318 0.719902
Si Si2 0.074982 0.189278 0.674439
Si Si3 0.929190 0.316864 0.156452
Si Si4 0.420860 0.684399 0.515302
Si Si5 0.927458 0.621739 0.673673
Si Si6 0.075615 0.495861 0.404933
Si Si7 0.923124 0.907322 0.969179
Si Si8 0.582007 0.473834 0.877093
O O1 0.250000 0.064778 0.690289
O O2 0.445745 0.137260 0.738868
O O3 0.457492 0.035820 0.804185
O O4 0.530595 0.051783 0.644957
O O5 0.250000 0.189265 0.649166
O O6 0.039492 0.250000 0.712382
O O7 0.980292 0.180533 0.585300
O O8 0.750000 0.322516 0.150337
O O9 0.963020 0.250000 0.155333
O O10 0.987322 0.346259 0.247367
O O11 0.010206 0.352979 0.079102
O O12 0.250000 0.664759 0.522599
O O13 0.423284 0.750000 0.538972
O O14 0.527882 0.652016 0.581904
O O15 0.750000 0.624221 0.690359
O O16 0.971085 0.557299 0.655470
O O17 0.250000 0.490411 0.417064
O O18 0.000000 0.500000 0.500000
O O19 0.750000 0.898257 0.997912
O O20 0.917931 0.961474 0.904491
O O21 0.032680 0.931640 0.044791
O O22 0.750000 0.460734 0.846137
#
# Coordination Sequence:
#
# PCOD9453480 Si02
#       8
#     8   8   8   8   8   8   8   8
#     4  11  22  36  57  84 111 143 185 228 275 333
#     4   9  19  36  55  75 103 139 178 221 267 317
#     4  11  24  40  59  86 120 156 194 239 293 351
#     4  10  20  33  51  76 104 137 181 230 276 321
#     4  11  23  37  54  78 109 148 193 235 280 339
#     4  11  24  39  55  80 115 153 193 240 293 345
#     4  10  21  39  63  89 115 147 188 230 279 340
#     4  10  21  38  62  90 118 148 184 231 284 337
#
# _framework density 19.753086
#
# number of rings (size 3 to 8) (size 9 to 14) (size 15 to 20)
#    0.000    1.625    0.000    4.500    0.000   13.750 
#    0.000    0.625    0.000    2.250    0.000    0.000 
#    0.000    0.000    0.000    0.000    0.000    0.000 
#
# Total GULP energy -357094.463293 kJ/mol
# GULP energy per Si atom -5579.600989 kJ/mol
# Density = 1.970813 g / cm^3
# Si number density = 19.753086 Si / 1000 Ang^3
#
#
#
# Elastic Constant Matrix: (Units=GPa)
#
#
# Indices 1 2 3 4 5 6 
#
# 1 56.8125 44.4014 4.6270 0.0000 0.0000 0.0000
# 2 44.4014 102.6788 15.7097 0.0000 0.0000 0.0000
# 3 4.6270 15.7097 19.2087 0.0000 0.0000 0.0000
# 4 0.0000 0.0000 0.0000 24.3079 0.0000 0.0000
# 5 0.0000 0.0000 0.0000 0.0000 19.9072 0.0000
# 6 0.0000 0.0000 0.0000 0.0000 0.0000 26.3881
#
#
#
# Elastic Compliance Matrix: (Units=1/GPa)
#
#
# Indices 1 2 3 4 5 6 
#
# 1 0.026786 -0.012111 0.003453 0.000000 0.000000 0.000000
# 2 -0.012111 0.016608 -0.010666 0.000000 0.000000 0.000000
# 3 0.003453 -0.010666 0.059951 0.000000 0.000000 0.000000
# 4 0.000000 0.000000 0.000000 0.041139 0.000000 0.000000
# 5 0.000000 0.000000 0.000000 0.000000 0.050233 0.000000
# 6 0.000000 0.000000 0.000000 0.000000 0.000000 0.037896
#
#
# Mechanical properties :
#
#
# Convention : Reuss Voigt Hill
#
# Bulk Modulus (GPa) = 15.45662 34.24182 24.84922
# Shear Modulus (GPa) = 17.07493 21.71809 19.39651
#
# Velocity S-wave (km/s) = 2.94329 3.31944 3.13700
# Velocity P-wave (km/s) = 4.40369 5.66252 5.07231
#
# Compressibility (1/GPa) = 0.06469721
#
# Stress axis : x y z
#
# Youngs Moduli (GPa) = 37.33271 60.21090 16.68034
#
# Poissons Ratio (x) = 0.72924 -0.05760
# Poissons Ratio (y) = 0.45215 0.17791
# Poissons Ratio (z) = -0.12891 0.64219
#
# Static dielectric constant tensor:
#      x y z
#    x 1.661870 0.000000 0.000000 
#    y 0.000000 1.714320 0.000000 
#    z 0.000000 0.000000 1.754580 
# 
# From -- ./inp_files/21628.got.cif
#   From: 2010.05.17/outbox.ucp.g08.bks.cvg/sg59_11_cif.got.tgz:21628.got - 2010.06.11 16:43:56.
