data_PCOD9453440
_publ_section_title
;
Structure prediction by ZEFSAII (Michael W. Deem and Ramdas Pophale) SiO2 
 PCOD9453440
Probable space group: P M M N
;
_chemical_formula_sum "Si O2"
_cell_formula_units_Z 64
_cell_length_a 9.000000
_cell_length_b 18.000000
_cell_length_c 21.000000
_cell_angle_alpha 90.000000
_cell_angle_beta 90.000000
_cell_angle_gamma 90.000000
_cell_volume 3402.000000
_symmetry_space_group_name_H-M "P M M N"
_symmetry_group_IT_number 59
_space_group.IT_coordinate_system_code '2'
_symmetry_cell_setting 'orthorhombic'
loop_
_space_group_symop_operation_xyz
x,y,z
1/2-x,1/2-y,z
1/2+x,-y,-z
-x,1/2+y,-z
-x,-y,-z
1/2+x,1/2+y,-z
1/2-x,y,z
x,1/2-y,z
loop_
_atom_site_type_symbol
_atom_site_label
_atom_site_fract_x
_atom_site_fract_y
_atom_site_fract_z
Si Si1 0.416758 0.661641 0.159810
Si Si2 0.075075 0.067871 0.583567
Si Si3 0.071035 0.837114 0.900737
Si Si4 0.428578 0.576538 0.775492
Si Si5 0.917832 0.663722 0.663216
Si Si6 0.422804 0.605380 0.544023
Si Si7 0.071046 0.414602 0.729476
Si Si8 0.579823 0.840647 0.032835
O O1 0.250000 0.631369 0.162601
O O2 0.407817 0.750000 0.151173
O O3 0.501327 0.646610 0.225301
O O4 0.502339 0.632355 0.097527
O O5 0.250000 0.086381 0.578022
O O6 0.025057 0.085047 0.655452
O O7 0.984674 0.107056 0.527462
O O8 0.062234 0.979544 0.569900
O O9 0.250000 0.841075 0.904723
O O10 0.032287 0.750000 0.889961
O O11 0.019155 0.886330 0.841135
O O12 0.003343 0.861645 0.968000
O O13 0.250000 0.578919 0.776223
O O14 0.484334 0.621954 0.714898
O O15 0.473287 0.492007 0.762919
O O16 0.750000 0.634084 0.664430
O O17 0.915796 0.750000 0.679796
O O18 0.984240 0.653666 0.593160
O O19 0.250000 0.625191 0.545780
O O20 0.250000 0.409787 0.729927
O O21 0.750000 0.865054 0.031447
O O22 0.578551 0.750000 0.034069
#
# Coordination Sequence:
#
# PCOD9453440 Si02
#       8
#     8   8   8   8   8   8   8   8
#     4  10  21  37  57  81 107 135 174 223 273 328
#     4   9  18  34  55  80 108 137 173 219 268 318
#     4   9  17  30  51  78 108 143 180 220 265 312
#     4  10  20  36  55  79 110 146 186 224 267 323
#     4  11  23  36  52  78 113 150 187 229 274 318
#     4  10  19  34  56  80 104 137 182 224 265 317
#     4  10  20  36  57  82 111 141 177 220 269 326
#     4   9  17  31  53  78 104 137 178 222 268 320
#
# _framework density 18.812463000000001
#
# number of rings (size 3 to 8) (size 9 to 14) (size 15 to 20)
#    0.000    2.250    1.250    1.875    0.000    5.750 
#    0.000    2.500    0.000    0.750    0.000    0.000 
#    0.000    0.000    0.000    0.000    0.000    0.000 
#
# Total GULP energy -356976.261774 kJ/mol
# GULP energy per Si atom -5577.754090 kJ/mol
# Density = 1.876965 g / cm^3
# Si number density = 18.812463 Si / 1000 Ang^3
#
#
#
# Elastic Constant Matrix: (Units=GPa)
#
#
# Indices 1 2 3 4 5 6 
#
# 1 -1.3101 9.0882 25.5808 0.0000 0.0000 0.0000
# 2 9.0882 8.3209 7.8690 0.0000 0.0000 0.0000
# 3 25.5808 7.8690 135.8805 0.0000 0.0000 0.0000
# 4 0.0000 0.0000 0.0000 26.7878 0.0000 0.0000
# 5 0.0000 0.0000 0.0000 0.0000 33.4964 0.0000
# 6 0.0000 0.0000 0.0000 0.0000 0.0000 -0.7323
#
#
#
# Elastic Compliance Matrix: (Units=1/GPa)
#
#
# Indices 1 2 3 4 5 6 
#
# 1 -0.074169 0.071732 0.009809 0.000000 0.000000 0.000000
# 2 0.071732 0.057767 -0.016850 0.000000 0.000000 0.000000
# 3 0.009809 -0.016850 0.006489 0.000000 0.000000 0.000000
# 4 0.000000 0.000000 0.000000 0.037330 0.000000 0.000000
# 5 0.000000 0.000000 0.000000 0.000000 0.029854 0.000000
# 6 0.000000 0.000000 0.000000 0.000000 0.000000 -1.365620
#
#
# Mechanical properties :
#
#
# Convention : Reuss Voigt Hill
#
# Bulk Modulus (GPa) = 8.37030 25.32969 16.85000
# Shear Modulus (GPa) = -3.57677 18.60061 7.51192
#
# Velocity S-wave (km/s) = -1.38036 3.14783 2.00043
# Velocity P-wave (km/s) = 1.38508 5.16772 3.78311
#
# Compressibility (1/GPa) = 0.11947007
#
# Stress axis : x y z
#
# Youngs Moduli (GPa) = -13.48273 17.31078 154.11671
#
# Poissons Ratio (x) = -1.24174 -1.51171
# Poissons Ratio (y) = 0.96715 2.59682
# Poissons Ratio (z) = 0.13225 0.29168
#
# Static dielectric constant tensor:
#      x y z
#    x 1.647110 0.000000 0.000000 
#    y 0.000000 1.664350 0.000000 
#    z 0.000000 0.000000 1.626850 
# 
# From -- ./inp_files/29620.got.cif
#   From: 2010.05.17/outbox.ucp.g08.bks.cvg/sg59_15_cif.got.tgz:29620.got - 2010.06.11 16:43:56.
