data_PCOD9453389
_publ_section_title
;
Structure prediction by ZEFSAII (Michael W. Deem and Ramdas Pophale) SiO2 
 PCOD9453389
Probable space group: P M M N
;
_chemical_formula_sum "Si O2"
_cell_formula_units_Z 64
_cell_length_a 30.000000
_cell_length_b 9.000000
_cell_length_c 15.000000
_cell_angle_alpha 90.000000
_cell_angle_beta 90.000000
_cell_angle_gamma 90.000000
_cell_volume 4050.000000
_symmetry_space_group_name_H-M "P M M N"
_symmetry_group_IT_number 59
_space_group.IT_coordinate_system_code '2'
_symmetry_cell_setting 'orthorhombic'
loop_
_space_group_symop_operation_xyz
x,y,z
1/2-x,1/2-y,z
1/2+x,-y,-z
-x,1/2+y,-z
-x,-y,-z
1/2+x,1/2+y,-z
1/2-x,y,z
x,1/2-y,z
loop_
_atom_site_type_symbol
_atom_site_label
_atom_site_fract_x
_atom_site_fract_y
_atom_site_fract_z
Si Si1 0.485738 0.572845 0.301625
Si Si2 0.117842 0.572083 0.608323
Si Si3 0.928687 0.427531 0.215644
Si Si4 0.852385 0.579979 0.670915
Si Si5 0.412669 0.069749 0.169586
Si Si6 0.939444 0.578897 0.541222
Si Si7 0.550115 0.070016 0.009161
Si Si8 0.800561 0.071238 0.516770
O O1 0.480635 0.750000 0.301611
O O2 0.532646 0.521505 0.262450
O O3 0.451436 0.497762 0.231845
O O4 0.475706 0.510446 0.400805
O O5 0.113457 0.750000 0.595788
O O6 0.112306 0.544884 0.714778
O O7 0.079271 0.494610 0.548935
O O8 0.164228 0.525144 0.560574
O O9 0.938397 0.250000 0.221536
O O10 0.929822 0.461008 0.108997
O O11 0.836466 0.750000 0.675358
O O12 0.868362 0.535291 0.770705
O O13 0.896930 0.579104 0.609160
O O14 0.818214 0.483671 0.613063
O O15 0.416508 0.250000 0.165051
O O16 0.420289 0.999360 0.071564
O O17 0.952900 0.750000 0.526572
O O18 0.547249 0.250000 0.999316
O O19 0.500000 0.000000 0.000000
O O20 0.750000 0.019490 0.500714
O O21 0.800596 0.250000 0.517377
#
# Coordination Sequence:
#
# PCOD9453389 Si02
#       8
#     8   8   8   8   8   8   8   8
#     4  11  20  29  45  66  88 122 164 200 240 285
#     4   9  18  33  49  66  92 125 158 191 232 284
#     4  10  21  34  46  62  90 125 163 205 240 274
#     4   8  16  29  46  69  95 124 153 186 230 281
#     4  10  19  32  48  67  95 125 160 205 246 284
#     4   9  17  30  46  64  91 123 157 197 235 274
#     4  11  21  32  48  68  91 125 169 213 252 284
#     4   9  17  30  51  78 102 121 146 185 232 285
#
# _framework density 15.802469
#
# number of rings (size 3 to 8) (size 9 to 14) (size 15 to 20)
#    0.000    2.375    1.250    3.000    0.000    5.250 
#    0.000    0.000    0.000    0.000    0.000    0.875 
#    0.000    3.000    0.000    0.000    0.000    0.000 
#
# Total GULP energy -356499.604419 kJ/mol
# GULP energy per Si atom -5570.306319 kJ/mol
# Density = 1.576650 g / cm^3
# Si number density = 15.802469 Si / 1000 Ang^3
#
#
#
# Elastic Constant Matrix: (Units=GPa)
#
#
# Indices 1 2 3 4 5 6 
#
# 1 72.0507 27.1188 45.6439 0.0000 0.0000 0.0000
# 2 27.1188 57.3213 38.9190 0.0000 0.0000 0.0000
# 3 45.6439 38.9190 151.7104 0.0000 0.0000 0.0000
# 4 0.0000 0.0000 0.0000 25.4920 0.0000 0.0000
# 5 0.0000 0.0000 0.0000 0.0000 18.8042 0.0000
# 6 0.0000 0.0000 0.0000 0.0000 0.0000 15.9072
#
#
#
# Elastic Compliance Matrix: (Units=1/GPa)
#
#
# Indices 1 2 3 4 5 6 
#
# 1 0.018761 -0.006107 -0.004078 0.000000 0.000000 0.000000
# 2 -0.006107 0.023113 -0.004092 0.000000 0.000000 0.000000
# 3 -0.004078 -0.004092 0.008868 0.000000 0.000000 0.000000
# 4 0.000000 0.000000 0.000000 0.039228 0.000000 0.000000
# 5 0.000000 0.000000 0.000000 0.000000 0.053180 0.000000
# 6 0.000000 0.000000 0.000000 0.000000 0.000000 0.062864
#
#
# Mechanical properties :
#
#
# Convention : Reuss Voigt Hill
#
# Bulk Modulus (GPa) = 45.06852 56.04954 50.55903
# Shear Modulus (GPa) = 20.66422 23.33407 21.99914
#
# Velocity S-wave (km/s) = 3.62008 3.84684 3.73518
# Velocity P-wave (km/s) = 6.78639 7.43483 7.11800
#
# Compressibility (1/GPa) = 0.02218844
#
# Stress axis : x y z
#
# Youngs Moduli (GPa) = 53.30193 43.26547 112.76429
#
# Poissons Ratio (x) = 0.26423 0.45983
# Poissons Ratio (y) = 0.32553 0.46142
# Poissons Ratio (z) = 0.21735 0.17704
#
# Static dielectric constant tensor:
#      x y z
#    x 1.548380 0.000000 0.000000 
#    y 0.000000 1.537070 0.000000 
#    z 0.000000 0.000000 1.543470 
# 
# From -- ./inp_files/25066.got.cif
#   From: 2010.05.17/outbox.ucp.g08.bks.cvg/sg59_13_cif.got.tgz:25066.got - 2010.06.11 16:43:56.
