data_PCOD9453557
_publ_section_title
;
Structure prediction by ZEFSAII (Michael W. Deem and Ramdas Pophale) SiO2 
 PCOD9453557
Probable space group: P M M N
;
_chemical_formula_sum "Si O2"
_cell_formula_units_Z 64
_cell_length_a 30.000000
_cell_length_b 9.000000
_cell_length_c 12.000000
_cell_angle_alpha 90.000000
_cell_angle_beta 90.000000
_cell_angle_gamma 90.000000
_cell_volume 3240.000000
_symmetry_space_group_name_H-M "P M M N"
_symmetry_group_IT_number 59
_space_group.IT_coordinate_system_code '2'
_symmetry_cell_setting 'orthorhombic'
loop_
_space_group_symop_operation_xyz
x,y,z
1/2-x,1/2-y,z
1/2+x,-y,-z
-x,1/2+y,-z
-x,-y,-z
1/2+x,1/2+y,-z
1/2-x,y,z
x,1/2-y,z
loop_
_atom_site_type_symbol
_atom_site_label
_atom_site_fract_x
_atom_site_fract_y
_atom_site_fract_z
Si Si1 0.453943 0.426391 0.973489
Si Si2 0.296563 0.072286 0.520554
Si Si3 0.419971 0.919320 0.752495
Si Si4 0.297684 0.572723 0.994186
Si Si5 0.875623 0.930728 0.624980
Si Si6 0.813663 0.080854 0.254445
Si Si7 0.545335 0.926362 0.467965
Si Si8 0.374873 0.072482 0.129527
O O1 0.457168 0.250000 0.962690
O O2 0.434550 0.495415 0.861927
O O3 0.500000 0.500000 0.000000
O O4 0.421579 0.463643 0.074967
O O5 0.250000 0.025121 0.468462
O O6 0.298960 0.250000 0.517643
O O7 0.337605 0.008574 0.454306
O O8 0.298683 0.021789 0.646527
O O9 0.436829 0.750000 0.754108
O O10 0.366847 0.917039 0.749207
O O11 0.436680 0.004279 0.644856
O O12 0.250000 0.538319 0.046114
O O13 0.304538 0.750000 0.996133
O O14 0.297652 0.529467 0.865260
O O15 0.336733 0.491280 0.054051
O O16 0.871939 0.750000 0.628907
O O17 0.921821 0.963268 0.568475
O O18 0.871188 0.989625 0.747676
O O19 0.798825 0.250000 0.273733
O O20 0.542444 0.750000 0.456417
O O21 0.500000 0.000000 0.500000
O O22 0.371011 0.250000 0.132661
#
# Coordination Sequence:
#
# PCOD9453557 Si02
#       8
#     8   8   8   8   8   8   8   8
#     4  11  24  40  62  91 122 157 200 250 303 358
#     4  10  20  35  58  86 115 150 193 239 291 354
#     4  11  22  39  64  90 120 158 201 245 297 356
#     4  10  21  38  59  85 118 155 194 241 299 354
#     4   9  20  39  59  82 116 155 191 239 294 345
#     4  10  20  36  59  85 118 155 192 240 295 351
#     4  11  23  40  63  90 122 157 198 246 299 355
#     4  10  22  40  61  85 115 155 200 244 291 349
#
# _framework density 19.753086
#
# number of rings (size 3 to 8) (size 9 to 14) (size 15 to 20)
#    0.000    1.750    2.500    1.500    1.750    3.000 
#    0.000    3.125    0.000    0.000    0.000    0.000 
#    0.000    0.000    0.000    0.000    0.000    0.000 
#
# Total GULP energy -356836.745280 kJ/mol
# GULP energy per Si atom -5575.574145 kJ/mol
# Density = 1.970813 g / cm^3
# Si number density = 19.753086 Si / 1000 Ang^3
#
#
#
# Elastic Constant Matrix: (Units=GPa)
#
#
# Indices 1 2 3 4 5 6 
#
# 1 154.6439 60.2050 62.2689 0.0000 0.0000 0.0000
# 2 60.2050 -1.6800 1.6202 0.0000 0.0000 0.0000
# 3 62.2689 1.6202 43.6753 0.0000 0.0000 0.0000
# 4 0.0000 0.0000 0.0000 28.4708 0.0000 0.0000
# 5 0.0000 0.0000 0.0000 0.0000 62.4132 0.0000
# 6 0.0000 0.0000 0.0000 0.0000 0.0000 83.7416
#
#
#
# Elastic Compliance Matrix: (Units=1/GPa)
#
#
# Indices 1 2 3 4 5 6 
#
# 1 0.000502 0.016702 -0.001335 0.000000 0.000000 0.000000
# 2 0.016702 -0.019001 -0.023107 0.000000 0.000000 0.000000
# 3 -0.001335 -0.023107 0.025657 0.000000 0.000000 0.000000
# 4 0.000000 0.000000 0.000000 0.035124 0.000000 0.000000
# 5 0.000000 0.000000 0.000000 0.000000 0.016022 0.000000
# 6 0.000000 0.000000 0.000000 0.000000 0.000000 0.011941
#
#
# Mechanical properties :
#
#
# Convention : Reuss Voigt Hill
#
# Bulk Modulus (GPa) = -120.14885 49.42527 -35.36179
# Shear Modulus (GPa) = 60.27539 39.76145 50.01842
#
# Velocity S-wave (km/s) = 5.52998 4.49143 5.03754
# Velocity P-wave (km/s) = 4.49257 7.20924 3.98685
#
# Compressibility (1/GPa) = -0.00832301
#
# Stress axis : x y z
#
# Youngs Moduli (GPa) = 1992.06518 -52.62899 38.97548
#
# Poissons Ratio (x) = 0.87898 0.05204
# Poissons Ratio (y) = -33.27053 0.90060
# Poissons Ratio (z) = 2.65996 -1.21609
#
# Static dielectric constant tensor:
#      x y z
#    x 1.650910 0.000000 0.000000 
#    y 0.000000 1.703850 0.000000 
#    z 0.000000 0.000000 1.650490 
# 
# From -- ./inp_files/14884.got.cif
#   From: 2010.05.17/outbox.ucp.g08.bks.cvg/sg59_8_cif.got.tgz:14884.got - 2010.06.11 16:43:56.
