data_PCOD9453774
_publ_section_title
;
Structure prediction by ZEFSAII (Michael W. Deem and Ramdas Pophale) SiO2 
 PCOD9453774
Probable space group: P B C N
;
_chemical_formula_sum "Si O2"
_cell_formula_units_Z 52
_cell_length_a 14.528369
_cell_length_b 8.495344
_cell_length_c 17.544308
_cell_angle_alpha 90.000000
_cell_angle_beta 90.000000
_cell_angle_gamma 90.000000
_cell_volume 2165.379765
_symmetry_space_group_name_H-M "P B C N"
_symmetry_group_IT_number 60
_symmetry_cell_setting 'orthorhombic'
loop_
_space_group_symop_operation_xyz
x,y,z
1/2-x,1/2-y,1/2+z
1/2+x,1/2-y,-z
-x,y,1/2-z
-x,-y,-z
1/2+x,1/2+y,1/2-z
1/2-x,1/2+y,z
x,-y,1/2+z
loop_
_atom_site_type_symbol
_atom_site_label
_atom_site_fract_x
_atom_site_fract_y
_atom_site_fract_z
Si Si1 0.656349 0.247329 0.528653
Si Si2 0.646195 0.015263 0.652542
Si Si3 0.970692 0.827555 0.905262
Si Si4 0.961508 0.540655 0.409369
Si Si5 0.000000 0.278704 0.250000
Si Si6 0.676728 0.848101 0.800148
Si Si7 0.186954 0.948775 0.101656
O O1 0.698093 0.129500 0.592395
O O2 0.577374 0.346518 0.572707
O O3 0.594359 0.145976 0.468550
O O4 0.720025 0.350373 0.472932
O O5 0.580806 0.129071 0.704656
O O6 0.569875 0.927107 0.600443
O O7 0.695023 0.900803 0.713301
O O8 0.947226 0.645001 0.925242
O O9 0.955681 0.827602 0.814614
O O10 0.902648 0.962849 0.930854
O O11 0.920100 0.579243 0.326809
O O12 0.671841 0.668642 0.826822
O O13 0.746083 0.926000 0.860712
#
# Coordination Sequence:
#
# PCOD9453774 Si02
#       7
#     8   8   8   8   4   8   8
#     4   9  20  36  63  94 119 153 207 262 308 364
#     4  10  16  35  63  86 117 153 203 248 300 365
#     4  10  17  35  59  88 122 150 202 244 308 352
#     4   9  17  35  64  92 117 151 199 249 309 362
#     4   8  16  30  60  88 110 152 184 256 294 350
#     4  11  21  37  56  82 122 162 201 242 311 374
#     4  11  24  37  57  86 122 166 201 253 310 375
#
# _framework density 24.014263
#
# number of rings (size 3 to 8) (size 9 to 14) (size 15 to 20)
#    0.000    2.462    3.077    3.231    0.000    0.000 
#    5.538    3.077    3.385    0.000    0.000    0.000 
#    0.000    0.000    0.000    0.000    0.000    0.000 
#
# Total GULP energy -289619.130673 kJ/mol
# GULP energy per Si atom -5569.598667 kJ/mol
# Density = 2.395961 g / cm^3
# Si number density = 24.014263 Si / 1000 Ang^3
#
#
#
# Elastic Constant Matrix: (Units=GPa)
#
#
# Indices 1 2 3 4 5 6 
#
# 1 35.5441 16.3975 10.3817 0.0000 0.0000 0.0000
# 2 16.3975 71.1546 19.7423 0.0000 0.0000 0.0000
# 3 10.3817 19.7423 115.3529 0.0000 0.0000 0.0000
# 4 0.0000 0.0000 0.0000 -37.4652 0.0000 0.0000
# 5 0.0000 0.0000 0.0000 0.0000 26.7258 0.0000
# 6 0.0000 0.0000 0.0000 0.0000 0.0000 18.4705
#
#
#
# Elastic Compliance Matrix: (Units=1/GPa)
#
#
# Indices 1 2 3 4 5 6 
#
# 1 0.031791 -0.006858 -0.001687 0.000000 0.000000 0.000000
# 2 -0.006858 0.016234 -0.002161 0.000000 0.000000 0.000000
# 3 -0.001687 -0.002161 0.009191 0.000000 0.000000 0.000000
# 4 0.000000 0.000000 0.000000 -0.026691 0.000000 0.000000
# 5 0.000000 0.000000 0.000000 0.000000 0.037417 0.000000
# 6 0.000000 0.000000 0.000000 0.000000 0.000000 0.054141
#
#
# Mechanical properties :
#
#
# Convention : Reuss Voigt Hill
#
# Bulk Modulus (GPa) = 27.93114 35.01052 31.47083
# Shear Modulus (GPa) = 32.16907 13.24822 22.70865
#
# Velocity S-wave (km/s) = 3.66400 2.35134 3.07845
# Velocity P-wave (km/s) = 5.43656 4.68854 5.07635
#
# Compressibility (1/GPa) = 0.03580233
#
# Stress axis : x y z
#
# Youngs Moduli (GPa) = 31.45575 61.59929 108.80451
#
# Poissons Ratio (x) = 0.42244 0.18360
# Poissons Ratio (y) = 0.21572 0.23515
# Poissons Ratio (z) = 0.05308 0.13313
#
# Static dielectric constant tensor:
#      x y z
#    x 2.029710 0.000000 0.000000 
#    y 0.000000 1.969710 0.000000 
#    z 0.000000 0.000000 2.018580 
# 
# From -- ./inp_files/20864.got.cif
#   From: 2010.05.17/outbox.cif.g08.bks.cpg/sg60_11_cif.got.tgz:20864.got - 2010.06.03 14:59:27.
