data_PCOD9453432
_publ_section_title
;
Structure prediction by ZEFSAII (Michael W. Deem and Ramdas Pophale) SiO2 
 PCOD9453432
Probable space group: P M M N
;
_chemical_formula_sum "Si O2"
_cell_formula_units_Z 48
_cell_length_a 9.000000
_cell_length_b 30.000000
_cell_length_c 9.000000
_cell_angle_alpha 90.000000
_cell_angle_beta 90.000000
_cell_angle_gamma 90.000000
_cell_volume 2430.000000
_symmetry_space_group_name_H-M "P M M N"
_symmetry_group_IT_number 59
_space_group.IT_coordinate_system_code '2'
_symmetry_cell_setting 'orthorhombic'
loop_
_space_group_symop_operation_xyz
x,y,z
1/2-x,1/2-y,z
1/2+x,-y,-z
-x,1/2+y,-z
-x,-y,-z
1/2+x,1/2+y,-z
1/2-x,y,z
x,1/2-y,z
loop_
_atom_site_type_symbol
_atom_site_label
_atom_site_fract_x
_atom_site_fract_y
_atom_site_fract_z
Si Si1 0.070989 0.799932 0.061902
Si Si2 0.072558 0.444485 0.148854
Si Si3 0.423769 0.342222 0.208442
Si Si4 0.426454 0.463130 0.799276
Si Si5 0.917049 0.301859 0.470867
Si Si6 0.079690 0.875595 0.271873
O O1 0.250000 0.800568 0.078638
O O2 0.022047 0.750000 0.107576
O O3 0.020143 0.810484 0.897030
O O4 0.010362 0.843738 0.145580
O O5 0.250000 0.448348 0.170387
O O6 0.027962 0.394521 0.200442
O O7 0.995556 0.487625 0.223735
O O8 0.041974 0.449600 0.971967
O O9 0.250000 0.341076 0.167740
O O10 0.454172 0.319795 0.365896
O O11 0.250000 0.465490 0.779413
O O12 0.493392 0.421783 0.706387
O O13 0.750000 0.303212 0.401705
O O14 0.938705 0.250000 0.517620
O O15 0.913383 0.339208 0.598043
O O16 0.250000 0.888060 0.232832
#
# Coordination Sequence:
#
# PCOD9453432 Si02
#       6
#     8   8   8   8   8   8
#     4  10  20  34  55  82 109 141 185 232 276 328
#     4   9  19  35  54  80 114 147 181 225 278 334
#     4  11  22  37  56  82 114 147 184 229 281 332
#     4  10  19  33  56  85 114 143 181 229 281 333
#     4  10  22  40  59  80 111 152 194 232 273 328
#     4  10  20  36  58  82 111 147 186 230 280 329
#
# _framework density 19.753086
#
# number of rings (size 3 to 8) (size 9 to 14) (size 15 to 20)
#    0.000    2.000    1.667    2.000    0.000    7.333 
#    0.000    0.833    0.000    3.000    0.000    0.000 
#    0.000    0.000    0.000    0.000    0.000    0.000 
#
# Total GULP energy -267369.075983 kJ/mol
# GULP energy per Si atom -5570.189083 kJ/mol
# Density = 1.970813 g / cm^3
# Si number density = 19.753086 Si / 1000 Ang^3
#
#
#
# Elastic Constant Matrix: (Units=GPa)
#
#
# Indices 1 2 3 4 5 6 
#
# 1 23.9479 31.8346 2.5344 0.0000 0.0000 0.0000
# 2 31.8346 138.2779 -2.5614 0.0000 0.0000 0.0000
# 3 2.5344 -2.5614 17.6921 0.0000 0.0000 0.0000
# 4 0.0000 0.0000 0.0000 46.4249 0.0000 0.0000
# 5 0.0000 0.0000 0.0000 0.0000 6.0110 0.0000
# 6 0.0000 0.0000 0.0000 0.0000 0.0000 22.5849
#
#
#
# Elastic Compliance Matrix: (Units=1/GPa)
#
#
# Indices 1 2 3 4 5 6 
#
# 1 0.062244 -0.014534 -0.011021 0.000000 0.000000 0.000000
# 2 -0.014534 0.010645 0.003623 0.000000 0.000000 0.000000
# 3 -0.011021 0.003623 0.058626 0.000000 0.000000 0.000000
# 4 0.000000 0.000000 0.000000 0.021540 0.000000 0.000000
# 5 0.000000 0.000000 0.000000 0.000000 0.166362 0.000000
# 6 0.000000 0.000000 0.000000 0.000000 0.000000 0.044277
#
#
# Mechanical properties :
#
#
# Convention : Reuss Voigt Hill
#
# Bulk Modulus (GPa) = 11.40883 27.05924 19.23403
# Shear Modulus (GPa) = 11.44752 24.87817 18.16285
#
# Velocity S-wave (km/s) = 2.40996 3.55273 3.03561
# Velocity P-wave (km/s) = 3.67860 5.52790 4.69520
#
# Compressibility (1/GPa) = 0.08765142
#
# Stress axis : x y z
#
# Youngs Moduli (GPa) = 16.06577 93.94080 17.05732
#
# Poissons Ratio (x) = 1.36535 0.18799
# Poissons Ratio (y) = 0.23350 -0.06180
# Poissons Ratio (z) = 0.17706 -0.34037
#
# Static dielectric constant tensor:
#      x y z
#    x 1.678380 0.000000 0.000000 
#    y 0.000000 1.659470 0.000000 
#    z 0.000000 0.000000 1.857770 
# 
# From -- ./inp_files/6248.got.cif
#   From: 2010.05.17/outbox.ucp.g08.bks.cvg/sg59_4_cif.got.tgz:6248.got - 2010.06.11 16:43:56.
