data_PCOD9453278
_publ_section_title
;
Structure prediction by ZEFSAII (Michael W. Deem and Ramdas Pophale) SiO2 
 PCOD9453278
Probable space group: P M M N
;
_chemical_formula_sum "Si O2"
_cell_formula_units_Z 56
_cell_length_a 9.591725
_cell_length_b 14.905423
_cell_length_c 18.864861
_cell_angle_alpha 90.000000
_cell_angle_beta 90.000000
_cell_angle_gamma 90.000000
_cell_volume 2697.085000
_symmetry_space_group_name_H-M "P M M N"
_symmetry_group_IT_number 59
_space_group.IT_coordinate_system_code '2'
_symmetry_cell_setting 'orthorhombic'
loop_
_space_group_symop_operation_xyz
x,y,z
1/2-x,1/2-y,z
1/2+x,-y,-z
-x,1/2+y,-z
-x,-y,-z
1/2+x,1/2+y,-z
1/2-x,y,z
x,1/2-y,z
loop_
_atom_site_type_symbol
_atom_site_label
_atom_site_fract_x
_atom_site_fract_y
_atom_site_fract_z
Si Si1 0.089914 0.888111 0.936109
Si Si2 0.591107 0.614924 0.804508
Si Si3 0.910318 0.607296 0.072569
Si Si4 0.406356 0.356778 0.354949
Si Si5 0.911122 0.139816 0.485969
Si Si6 0.091358 0.902824 0.204165
Si Si7 0.081253 0.645211 0.359950
O O1 0.250000 0.859085 0.940755
O O2 0.011139 0.854228 0.866072
O O3 0.092210 0.997675 0.931463
O O4 0.000891 0.863330 0.005166
O O5 0.750000 0.650131 0.810107
O O6 0.538927 0.631716 0.724755
O O7 0.601928 0.507974 0.812263
O O8 0.750000 0.637031 0.069611
O O9 0.988177 0.635032 0.144900
O O10 0.250000 0.396757 0.356545
O O11 0.394927 0.250000 0.365773
O O12 0.499704 0.391150 0.419011
O O13 0.750000 0.112673 0.478391
O O14 0.911540 0.250000 0.487111
O O15 0.967716 0.111094 0.563271
O O16 0.250000 0.865223 0.200565
O O17 0.038669 0.896088 0.285065
O O18 0.250000 0.638576 0.363064
O O19 0.045155 0.750000 0.355417
#
# Coordination Sequence:
#
# PCOD9453278 Si02
#       7
#     8   8   8   8   8   8   8
#     4   9  16  26  42  63  85 111 143 175 207 245
#     4   9  17  28  42  62  87 112 138 171 212 252
#     4   9  16  26  41  62  88 114 140 172 208 246
#     4   9  17  29  44  61  83 112 143 173 208 251
#     4   8  14  26  44  63  81 105 141 179 209 242
#     4   9  16  27  44  64  86 111 139 172 209 249
#     4   8  14  26  45  66  85 108 140 175 209 246
#
# _framework density 20.763157
#
# number of rings (size 3 to 8) (size 9 to 14) (size 15 to 20)
#    0.000    3.286    0.000    1.714    0.000    4.000 
#    0.000    1.429    0.000    2.143    0.000    0.000 
#    0.000    0.000    0.000    0.000    0.000    0.000 
#
# Total GULP energy -312215.779700 kJ/mol
# GULP energy per Si atom -5575.281780 kJ/mol
# Density = 2.071590 g / cm^3
# Si number density = 20.763157 Si / 1000 Ang^3
#
#
#
# Elastic Constant Matrix: (Units=GPa)
#
#
# Indices 1 2 3 4 5 6 
#
# 1 115.4227 7.2483 121.6918 0.0000 0.0000 0.0000
# 2 7.2483 48.3798 1.9107 0.0000 0.0000 0.0000
# 3 121.6918 1.9107 228.6577 0.0000 0.0000 0.0000
# 4 0.0000 0.0000 0.0000 22.1942 0.0000 0.0000
# 5 0.0000 0.0000 0.0000 0.0000 35.2270 0.0000
# 6 0.0000 0.0000 0.0000 0.0000 0.0000 -11.2693
#
#
#
# Elastic Compliance Matrix: (Units=1/GPa)
#
#
# Indices 1 2 3 4 5 6 
#
# 1 0.020058 -0.002584 -0.010653 0.000000 0.000000 0.000000
# 2 -0.002584 0.021010 0.001200 0.000000 0.000000 0.000000
# 3 -0.010653 0.001200 0.010033 0.000000 0.000000 0.000000
# 4 0.000000 0.000000 0.000000 0.045057 0.000000 0.000000
# 5 0.000000 0.000000 0.000000 0.000000 0.028387 0.000000
# 6 0.000000 0.000000 0.000000 0.000000 0.000000 -0.088736
#
#
# Mechanical properties :
#
#
# Convention : Reuss Voigt Hill
#
# Bulk Modulus (GPa) = 37.00282 72.68464 54.84373
# Shear Modulus (GPa) = 72.57706 26.67101 49.62403
#
# Velocity S-wave (km/s) = 5.91867 3.58793 4.89407
# Velocity P-wave (km/s) = 8.03539 7.22820 7.64246
#
# Compressibility (1/GPa) = 0.02702497
#
# Stress axis : x y z
#
# Youngs Moduli (GPa) = 49.85537 47.59736 99.67097
#
# Poissons Ratio (x) = 0.12301 1.06182
# Poissons Ratio (y) = 0.12884 -0.11959
# Poissons Ratio (z) = 0.53112 -0.05711
#
# Static dielectric constant tensor:
#      x y z
#    x 1.706070 0.000000 0.000000 
#    y 0.000000 1.804930 0.000000 
#    z 0.000000 0.000000 1.739530 
# 
# From -- ./inp_files/26027.got.cif
#   From: 2010.05.17/outbox.cif.g08.bks.cpg/sg59_14_cif.got.tgz:26027.got - 2010.06.03 14:40:33.
