data_PCOD9453205
_publ_section_title
;
Structure prediction by ZEFSAII (Michael W. Deem and Ramdas Pophale) SiO2 
 PCOD9453205
Probable space group: P M M N
;
_chemical_formula_sum "Si O2"
_cell_formula_units_Z 56
_cell_length_a 7.463791
_cell_length_b 19.071871
_cell_length_c 19.953980
_cell_angle_alpha 90.000000
_cell_angle_beta 90.000000
_cell_angle_gamma 90.000000
_cell_volume 2840.418306
_symmetry_space_group_name_H-M "P M M N"
_symmetry_group_IT_number 59
_space_group.IT_coordinate_system_code '2'
_symmetry_cell_setting 'orthorhombic'
loop_
_space_group_symop_operation_xyz
x,y,z
1/2-x,1/2-y,z
1/2+x,-y,-z
-x,1/2+y,-z
-x,-y,-z
1/2+x,1/2+y,-z
1/2-x,y,z
x,1/2-y,z
loop_
_atom_site_type_symbol
_atom_site_label
_atom_site_fract_x
_atom_site_fract_y
_atom_site_fract_z
Si Si1 0.036065 0.171106 0.704218
Si Si2 0.458174 0.164529 0.559503
Si Si3 0.968481 0.828605 0.860098
Si Si4 0.030618 0.331626 0.413781
Si Si5 0.464606 0.958494 0.206988
Si Si6 0.968284 0.902009 0.722403
Si Si7 0.535761 0.970333 0.926788
O O1 0.250000 0.176419 0.695554
O O2 0.964140 0.144373 0.631898
O O3 0.006123 0.116945 0.763449
O O4 0.027531 0.979833 0.743139
O O5 0.250000 0.142473 0.558859
O O6 0.461635 0.250000 0.559533
O O7 0.533563 0.143381 0.487149
O O8 0.750000 0.827532 0.861651
O O9 0.029903 0.750000 0.875742
O O10 0.018813 0.851671 0.784496
O O11 0.028436 0.891528 0.909118
O O12 0.250000 0.333072 0.415332
O O13 0.980869 0.250000 0.405164
O O14 0.970400 0.375336 0.349634
O O15 0.250000 0.963531 0.205097
O O16 0.468699 0.750000 0.282923
O O17 0.530519 0.978670 0.132805
O O18 0.750000 0.901616 0.720738
O O19 0.750000 0.967091 0.920498
O O20 0.500000 0.000000 0.000000
#
# Coordination Sequence:
#
# PCOD9453205 Si02
#       7
#     8   8   8   8   8   8   8
#     4   9  17  30  47  64  82 109 149 191 221 248
#     4   7  11  20  34  54  80 108 140 180 220 250
#     4   8  13  23  41  64  87 111 141 175 207 242
#     4   8  11  16  31  56  84 113 143 175 212 250
#     4   9  18  31  45  64  90 115 138 169 215 266
#     4   8  13  21  35  58  88 116 139 167 207 256
#     4   9  18  32  49  68  91 118 143 170 210 257
#
# _framework density 19.715403999999999
#
# number of rings (size 3 to 8) (size 9 to 14) (size 15 to 20)
#    0.000    3.714    0.000    3.857    0.000    2.571 
#    0.000    1.429    0.000    3.000    0.000    0.000 
#    0.000    2.857    0.000    0.286    0.000    0.000 
#
# Total GULP energy -311845.678530 kJ/mol
# GULP energy per Si atom -5568.672831 kJ/mol
# Density = 1.967053 g / cm^3
# Si number density = 19.715404 Si / 1000 Ang^3
#
#
#
# Elastic Constant Matrix: (Units=GPa)
#
#
# Indices 1 2 3 4 5 6 
#
# 1 55.4045 4.3901 5.5616 0.0000 0.0000 0.0000
# 2 4.3901 124.5445 106.9769 0.0000 0.0000 0.0000
# 3 5.5616 106.9769 170.9243 0.0000 0.0000 0.0000
# 4 0.0000 0.0000 0.0000 26.8383 0.0000 0.0000
# 5 0.0000 0.0000 0.0000 0.0000 -5.8618 0.0000
# 6 0.0000 0.0000 0.0000 0.0000 0.0000 1.1821
#
#
#
# Elastic Compliance Matrix: (Units=1/GPa)
#
#
# Indices 1 2 3 4 5 6 
#
# 1 0.018113 -0.000286 -0.000410 0.000000 0.000000 0.000000
# 2 -0.000286 0.017368 -0.010861 0.000000 0.000000 0.000000
# 3 -0.000410 -0.010861 0.012662 0.000000 0.000000 0.000000
# 4 0.000000 0.000000 0.000000 0.037260 0.000000 0.000000
# 5 0.000000 0.000000 0.000000 0.000000 -0.170596 0.000000
# 6 0.000000 0.000000 0.000000 0.000000 0.000000 0.845970
#
#
# Mechanical properties :
#
#
# Convention : Reuss Voigt Hill
#
# Bulk Modulus (GPa) = 39.95526 64.97005 52.46266
# Shear Modulus (GPa) = 6.31126 20.02803 13.16964
#
# Velocity S-wave (km/s) = 1.79113 3.19071 2.58735
# Velocity P-wave (km/s) = 4.95858 6.82639 5.96604
#
# Compressibility (1/GPa) = 0.02502799
#
# Stress axis : x y z
#
# Youngs Moduli (GPa) = 55.20916 57.57565 78.97905
#
# Poissons Ratio (x) = 0.01647 0.03241
# Poissons Ratio (y) = 0.01579 0.85780
# Poissons Ratio (z) = 0.02266 0.62534
#
# Static dielectric constant tensor:
#      x y z
#    x 1.798170 0.000000 0.000000 
#    y 0.000000 1.680180 0.000000 
#    z 0.000000 0.000000 1.711970 
# 
# From -- ./inp_files/29063.got.cif
#   From: 2010.05.17/outbox.cif.g08.bks.cpg/sg59_15_cif.got.tgz:29063.got - 2010.06.03 14:40:33.
