data_PCOD9453645
_publ_section_title
;
Structure prediction by ZEFSAII (Michael W. Deem and Ramdas Pophale) SiO2 
 PCOD9453645
Probable space group: P M M N
;
_chemical_formula_sum "Si O2"
_cell_formula_units_Z 56
_cell_length_a 9.000000
_cell_length_b 15.000000
_cell_length_c 21.000000
_cell_angle_alpha 90.000000
_cell_angle_beta 90.000000
_cell_angle_gamma 90.000000
_cell_volume 2835.000000
_symmetry_space_group_name_H-M "P M M N"
_symmetry_group_IT_number 59
_space_group.IT_coordinate_system_code '2'
_symmetry_cell_setting 'orthorhombic'
loop_
_space_group_symop_operation_xyz
x,y,z
1/2-x,1/2-y,z
1/2+x,-y,-z
-x,1/2+y,-z
-x,-y,-z
1/2+x,1/2+y,-z
1/2-x,y,z
x,1/2-y,z
loop_
_atom_site_type_symbol
_atom_site_label
_atom_site_fract_x
_atom_site_fract_y
_atom_site_fract_z
Si Si1 0.428859 0.028441 0.780982
Si Si2 0.928281 0.352922 0.393452
Si Si3 0.569064 0.348049 0.158905
Si Si4 0.573068 0.406260 0.017503
Si Si5 0.930444 0.350494 0.540187
Si Si6 0.578777 0.847292 0.103330
Si Si7 0.572700 0.475061 0.654046
O O1 0.250000 0.032565 0.773767
O O2 0.468343 0.081310 0.844844
O O3 0.507235 0.064787 0.718643
O O4 0.475790 0.926977 0.794652
O O5 0.750000 0.364875 0.388024
O O6 0.960143 0.250000 0.377786
O O7 0.973287 0.368366 0.467305
O O8 0.011510 0.425260 0.352235
O O9 0.750000 0.347614 0.159021
O O10 0.517115 0.250000 0.177027
O O11 0.524280 0.370824 0.086417
O O12 0.750000 0.414079 0.019314
O O13 0.500000 0.500000 0.000000
O O14 0.520440 0.346906 0.959019
O O15 0.750000 0.351207 0.540413
O O16 0.977746 0.250000 0.556599
O O17 0.981702 0.420602 0.592272
O O18 0.750000 0.867286 0.084699
O O19 0.576764 0.750000 0.133844
O O20 0.750000 0.473702 0.655188
#
# Coordination Sequence:
#
# PCOD9453645 Si02
#       7
#     8   8   8   8   8   8   8
#     4  10  21  38  54  73 106 149 189 222 261 322
#     4   9  18  35  59  82 105 141 184 219 262 328
#     4   9  18  34  56  78 100 133 179 224 266 317
#     4  11  20  34  58  85 112 139 176 226 281 333
#     4   8  16  33  56  81 109 141 178 220 268 324
#     4  10  21  38  58  81 110 144 183 229 279 325
#     4  11  22  34  53  82 113 143 178 227 278 316
#
# _framework density 19.753086
#
# number of rings (size 3 to 8) (size 9 to 14) (size 15 to 20)
#    0.000    2.286    1.429    2.571    0.000    2.857 
#    0.000    2.143    0.000    4.714    0.000    0.000 
#    0.000    0.000    0.000    0.000    0.000    0.000 
#
# Total GULP energy -312311.986139 kJ/mol
# GULP energy per Si atom -5576.999752 kJ/mol
# Density = 1.970813 g / cm^3
# Si number density = 19.753086 Si / 1000 Ang^3
#
#
#
# Elastic Constant Matrix: (Units=GPa)
#
#
# Indices 1 2 3 4 5 6 
#
# 1 14.1553 10.7660 17.6366 0.0000 0.0000 0.0000
# 2 10.7660 79.0809 28.9860 0.0000 0.0000 0.0000
# 3 17.6366 28.9860 58.9367 0.0000 0.0000 0.0000
# 4 0.0000 0.0000 0.0000 -16.8735 0.0000 0.0000
# 5 0.0000 0.0000 0.0000 0.0000 28.3542 0.0000
# 6 0.0000 0.0000 0.0000 0.0000 0.0000 13.1925
#
#
#
# Elastic Compliance Matrix: (Units=1/GPa)
#
#
# Indices 1 2 3 4 5 6 
#
# 1 0.113506 -0.003663 -0.032165 0.000000 0.000000 0.000000
# 2 -0.003663 0.015544 -0.006549 0.000000 0.000000 0.000000
# 3 -0.032165 -0.006549 0.029813 0.000000 0.000000 0.000000
# 4 0.000000 0.000000 0.000000 -0.059264 0.000000 0.000000
# 5 0.000000 0.000000 0.000000 0.000000 0.035268 0.000000
# 6 0.000000 0.000000 0.000000 0.000000 0.000000 0.075800
#
#
# Mechanical properties :
#
#
# Convention : Reuss Voigt Hill
#
# Bulk Modulus (GPa) = 13.49335 29.66111 21.57723
# Shear Modulus (GPa) = 15.61892 11.25359 13.43626
#
# Velocity S-wave (km/s) = 2.81500 2.38946 2.61091
# Velocity P-wave (km/s) = 4.17271 4.76038 4.47620
#
# Compressibility (1/GPa) = 0.07411058
#
# Stress axis : x y z
#
# Youngs Moduli (GPa) = 8.81010 64.33210 33.54204
#
# Poissons Ratio (x) = 0.23565 1.07887
# Poissons Ratio (y) = 0.03227 0.21966
# Poissons Ratio (z) = 0.28337 0.42130
#
# Static dielectric constant tensor:
#      x y z
#    x 1.665240 0.000000 0.000000 
#    y 0.000000 1.770140 0.000000 
#    z 0.000000 0.000000 1.700280 
# 
# From -- ./inp_files/28998.got.cif
#   From: 2010.05.17/outbox.ucp.g08.bks.cvg/sg59_15_cif.got.tgz:28998.got - 2010.06.11 16:43:56.
