data_PCOD9453625
_publ_section_title
;
Structure prediction by ZEFSAII (Michael W. Deem and Ramdas Pophale) SiO2 
 PCOD9453625
Probable space group: P M M N
;
_chemical_formula_sum "Si O2"
_cell_formula_units_Z 48
_cell_length_a 15.000000
_cell_length_b 15.000000
_cell_length_c 12.000000
_cell_angle_alpha 90.000000
_cell_angle_beta 90.000000
_cell_angle_gamma 90.000000
_cell_volume 2700.000000
_symmetry_space_group_name_H-M "P M M N"
_symmetry_group_IT_number 59
_space_group.IT_coordinate_system_code '2'
_symmetry_cell_setting 'orthorhombic'
loop_
_space_group_symop_operation_xyz
x,y,z
1/2-x,1/2-y,z
1/2+x,-y,-z
-x,1/2+y,-z
-x,-y,-z
1/2+x,1/2+y,-z
1/2-x,y,z
x,1/2-y,z
loop_
_atom_site_type_symbol
_atom_site_label
_atom_site_fract_x
_atom_site_fract_y
_atom_site_fract_z
Si Si1 0.550364 0.353810 0.289501
Si Si2 0.750000 0.977113 0.172610
Si Si3 0.927221 0.856348 0.498321
Si Si4 0.454936 0.483004 0.879555
Si Si5 0.250000 0.849591 0.732426
Si Si6 0.750000 0.968364 0.446793
Si Si7 0.750000 0.356710 0.602147
Si Si8 0.056728 0.854799 0.288119
O O1 0.535443 0.250000 0.257880
O O2 0.482864 0.375862 0.389377
O O3 0.541666 0.424533 0.190547
O O4 0.654255 0.360187 0.327737
O O5 0.651062 0.950637 0.125530
O O6 0.750000 0.967129 0.309519
O O7 0.750000 0.083940 0.163914
O O8 0.905727 0.750000 0.498514
O O9 0.838750 0.914931 0.484089
O O10 0.993824 0.873039 0.395258
O O11 0.516780 0.413882 0.811163
O O12 0.500000 0.500000 0.000000
O O13 0.250000 0.750000 0.775244
O O14 0.750000 0.064236 0.509773
O O15 0.750000 0.250000 0.564051
O O16 0.840635 0.369363 0.674344
O O17 0.048116 0.750000 0.260893
#
# Coordination Sequence:
#
# PCOD9453625 Si02
#       8
#     8   4   8   8   4   4   4   8
#     4   9  19  35  58  87 118 150 190 239 295 351
#     4  10  22  37  56  85 109 148 201 245 288 343
#     4  10  21  36  58  87 118 153 193 241 298 356
#     4  11  23  40  61  84 117 157 205 249 291 350
#     4   8  16  31  52  80 115 147 177 226 280 339
#     4  12  21  35  60  83 123 155 197 244 295 352
#     4  10  24  37  56  92 127 160 192 233 302 376
#     4  10  22  40  59  86 121 158 196 241 299 358
#
# _framework density 17.777778000000001
#
# number of rings (size 3 to 8) (size 9 to 14) (size 15 to 20)
#    0.000    2.000    1.667    1.250    4.667    3.000 
#    0.000    1.250    0.000    3.000    0.000    0.000 
#    0.000    0.000    0.000    0.000    0.000    0.000 
#
# Total GULP energy -267589.959694 kJ/mol
# GULP energy per Si atom -5574.790827 kJ/mol
# Density = 1.773731 g / cm^3
# Si number density = 17.777778 Si / 1000 Ang^3
#
#
#
# Elastic Constant Matrix: (Units=GPa)
#
#
# Indices 1 2 3 4 5 6 
#
# 1 174.7078 71.4514 71.2367 0.0000 0.0000 0.0000
# 2 71.4514 90.8787 62.6979 0.0000 0.0000 0.0000
# 3 71.2367 62.6979 122.6384 0.0000 0.0000 0.0000
# 4 0.0000 0.0000 0.0000 25.0900 0.0000 0.0000
# 5 0.0000 0.0000 0.0000 0.0000 28.5956 0.0000
# 6 0.0000 0.0000 0.0000 0.0000 0.0000 35.1919
#
#
#
# Elastic Compliance Matrix: (Units=1/GPa)
#
#
# Indices 1 2 3 4 5 6 
#
# 1 0.008892 -0.005295 -0.002458 0.000000 0.000000 0.000000
# 2 -0.005295 0.020153 -0.007227 0.000000 0.000000 0.000000
# 3 -0.002458 -0.007227 0.013277 0.000000 0.000000 0.000000
# 4 0.000000 0.000000 0.000000 0.039857 0.000000 0.000000
# 5 0.000000 0.000000 0.000000 0.000000 0.034970 0.000000
# 6 0.000000 0.000000 0.000000 0.000000 0.000000 0.028416
#
#
# Mechanical properties :
#
#
# Convention : Reuss Voigt Hill
#
# Bulk Modulus (GPa) = 80.90086 88.77744 84.83915
# Shear Modulus (GPa) = 27.83275 29.96475 28.89875
#
# Velocity S-wave (km/s) = 3.96105 4.10996 4.03619
# Velocity P-wave (km/s) = 8.15631 8.51869 8.33947
#
# Compressibility (1/GPa) = 0.01236081
#
# Stress axis : x y z
#
# Youngs Moduli (GPa) = 112.46587 49.62019 75.32084
#
# Poissons Ratio (x) = 0.26275 0.18512
# Poissons Ratio (y) = 0.59553 0.54436
# Poissons Ratio (z) = 0.27641 0.35862
#
# Static dielectric constant tensor:
#      x y z
#    x 1.618510 0.000000 0.000000 
#    y 0.000000 1.656850 0.000000 
#    z 0.000000 0.000000 1.595080 
# 
# From -- ./inp_files/16904.got.cif
#   From: 2010.05.17/outbox.ucp.g08.bks.cvg/sg59_9_cif.got.tgz:16904.got - 2010.06.11 16:43:56.
