data_PCOD9453951
_publ_section_title
;
Structure prediction by ZEFSAII (Michael W. Deem and Ramdas Pophale) SiO2 
 PCOD9453951
Probable space group: P B C N
;
_chemical_formula_sum "Si O2"
_cell_formula_units_Z 64
_cell_length_a 13.236800
_cell_length_b 24.058119
_cell_length_c 6.711384
_cell_angle_alpha 90.000000
_cell_angle_beta 90.000000
_cell_angle_gamma 90.000000
_cell_volume 2137.257078
_symmetry_space_group_name_H-M "P B C N"
_symmetry_group_IT_number 60
_symmetry_cell_setting 'orthorhombic'
loop_
_space_group_symop_operation_xyz
x,y,z
1/2-x,1/2-y,1/2+z
1/2+x,1/2-y,-z
-x,y,1/2-z
-x,-y,-z
1/2+x,1/2+y,1/2-z
1/2-x,1/2+y,z
x,-y,1/2+z
loop_
_atom_site_type_symbol
_atom_site_label
_atom_site_fract_x
_atom_site_fract_y
_atom_site_fract_z
Si Si1 0.141421 0.602266 0.507273
Si Si2 0.873956 0.281635 0.443558
Si Si3 0.090630 0.159948 0.119993
Si Si4 0.890796 0.993913 0.286756
Si Si5 0.727971 0.012151 0.523937
Si Si6 0.129677 0.131147 0.654748
Si Si7 0.359447 0.251067 0.099372
Si Si8 0.317785 0.868873 0.581848
O O1 0.086378 0.656593 0.598151
O O2 0.141914 0.535614 0.514293
O O3 0.256115 0.617165 0.582014
O O4 0.120943 0.614151 0.275062
O O5 0.913321 0.225975 0.346377
O O6 0.888748 0.268260 0.678949
O O7 0.755212 0.272751 0.402791
O O8 0.205119 0.140964 0.176842
O O9 0.000000 0.134216 0.250000
O O10 0.106395 0.145512 0.885614
O O11 0.910573 0.930776 0.364490
O O12 0.000000 0.019986 0.250000
O O13 0.762418 0.008892 0.266763
O O14 0.860507 0.981988 0.028777
O O15 0.686886 0.075262 0.548746
O O16 0.090428 0.188737 0.554911
O O17 0.352730 0.190697 0.992721
#
# Coordination Sequence:
#
# PCOD9453951 Si02
#       8
#     8   8   8   8   8   8   8   8
#     4   9  18  32  50  64  91 125 165 206 241 284
#     4   8  15  29  46  68  89 119 154 196 247 284
#     4  10  19  29  47  71  99 125 155 194 236 296
#     4  11  22  33  45  64  97 139 169 199 230 282
#     4  11  20  33  46  67  95 128 172 204 238 278
#     4   9  18  33  47  66  88 126 161 198 239 281
#     4   8  15  28  49  66  87 113 155 200 248 283
#     4  10  18  31  47  70  93 124 158 202 247 282
#
# _framework density 29.944922999999999
#
# number of rings (size 3 to 8) (size 9 to 14) (size 15 to 20)
#    0.000    2.500    2.500    0.375    0.000    2.500 
#    0.000    0.000    0.000    0.000    0.000    0.000 
#    0.000   10.000    0.000    0.000    0.000    0.000 
#
# Total GULP energy -356455.186894 kJ/mol
# GULP energy per Si atom -5569.612295 kJ/mol
# Density = 2.987677 g / cm^3
# Si number density = 29.944923 Si / 1000 Ang^3
#
#
#
# Elastic Constant Matrix: (Units=GPa)
#
#
# Indices 1 2 3 4 5 6 
#
# 1 66.0123 7.8131 18.9980 0.0000 0.0000 0.0000
# 2 7.8131 338.2710 39.2759 0.0000 0.0000 0.0000
# 3 18.9980 39.2759 164.1116 0.0000 0.0000 0.0000
# 4 0.0000 0.0000 0.0000 46.4214 0.0000 0.0000
# 5 0.0000 0.0000 0.0000 0.0000 7.9593 0.0000
# 6 0.0000 0.0000 0.0000 0.0000 0.0000 -9.0107
#
#
#
# Elastic Compliance Matrix: (Units=1/GPa)
#
#
# Indices 1 2 3 4 5 6 
#
# 1 0.015679 -0.000156 -0.001778 0.000000 0.000000 0.000000
# 2 -0.000156 0.003042 -0.000710 0.000000 0.000000 0.000000
# 3 -0.001778 -0.000710 0.006469 0.000000 0.000000 0.000000
# 4 0.000000 0.000000 0.000000 0.021542 0.000000 0.000000
# 5 0.000000 0.000000 0.000000 0.000000 0.125640 0.000000
# 6 0.000000 0.000000 0.000000 0.000000 0.000000 -0.110980
#
#
# Mechanical properties :
#
#
# Convention : Reuss Voigt Hill
#
# Bulk Modulus (GPa) = 50.24346 77.84097 64.04222
# Shear Modulus (GPa) = 68.20025 42.56120 55.38073
#
# Velocity S-wave (km/s) = 4.77752 3.77412 4.30515
# Velocity P-wave (km/s) = 6.87371 6.71142 6.79305
#
# Compressibility (1/GPa) = 0.01990309
#
# Stress axis : x y z
#
# Youngs Moduli (GPa) = 63.78059 328.70411 154.57995
#
# Poissons Ratio (x) = 0.05119 0.27480
# Poissons Ratio (y) = 0.00993 0.10976
# Poissons Ratio (z) = 0.11339 0.23340
#
# Static dielectric constant tensor:
#      x y z
#    x 2.386260 0.000000 0.000000 
#    y 0.000000 2.206650 0.000000 
#    z 0.000000 0.000000 2.655220 
# 
# From -- ./inp_files/7652.got.cif
#   From: 2010.05.17/outbox.cif.g08.bks.cpg/sg60_4_cif.got.tgz:7652.got - 2010.06.03 14:59:27.
