data_PCOD9453360
_publ_section_title
;
Structure prediction by ZEFSAII (Michael W. Deem and Ramdas Pophale) SiO2 
 PCOD9453360
Probable space group: P M M N
;
_chemical_formula_sum "Si O2"
_cell_formula_units_Z 64
_cell_length_a 9.000000
_cell_length_b 18.000000
_cell_length_c 24.000000
_cell_angle_alpha 90.000000
_cell_angle_beta 90.000000
_cell_angle_gamma 90.000000
_cell_volume 3888.000000
_symmetry_space_group_name_H-M "P M M N"
_symmetry_group_IT_number 59
_space_group.IT_coordinate_system_code '2'
_symmetry_cell_setting 'orthorhombic'
loop_
_space_group_symop_operation_xyz
x,y,z
1/2-x,1/2-y,z
1/2+x,-y,-z
-x,1/2+y,-z
-x,-y,-z
1/2+x,1/2+y,-z
1/2-x,y,z
x,1/2-y,z
loop_
_atom_site_type_symbol
_atom_site_label
_atom_site_fract_x
_atom_site_fract_y
_atom_site_fract_z
Si Si1 0.929815 0.023949 0.366521
Si Si2 0.928796 0.550522 0.131101
Si Si3 0.429422 0.835326 0.557863
Si Si4 0.071209 0.070000 0.532125
Si Si5 0.425948 0.334258 0.178421
Si Si6 0.069449 0.529162 0.760016
Si Si7 0.070264 0.163151 0.958819
Si Si8 0.571966 0.104179 0.070724
O O1 0.750000 0.027613 0.365352
O O2 0.976919 0.101007 0.397348
O O3 0.981339 0.017053 0.303139
O O4 0.966719 0.952134 0.404330
O O5 0.750000 0.555213 0.134738
O O6 0.980662 0.530911 0.193468
O O7 0.979274 0.623179 0.098269
O O8 0.961955 0.479204 0.092159
O O9 0.250000 0.840053 0.553212
O O10 0.467256 0.750000 0.572586
O O11 0.501749 0.859374 0.498945
O O12 0.250000 0.070769 0.526392
O O13 0.000000 0.000000 0.500000
O O14 0.250000 0.350081 0.175571
O O15 0.446318 0.250000 0.197759
O O16 0.507857 0.392762 0.217757
O O17 0.496946 0.343869 0.117284
O O18 0.250000 0.531375 0.760824
O O19 0.250000 0.156140 0.963538
O O20 0.033367 0.250000 0.959686
O O21 0.995581 0.122523 0.011030
O O22 0.750000 0.113398 0.070717
#
# Coordination Sequence:
#
# PCOD9453360 Si02
#       8
#     8   8   8   8   8   8   8   8
#     4   8  15  28  47  69  90 117 154 193 228 262
#     4   8  16  30  46  65  87 112 144 180 218 261
#     4   9  17  29  45  68  98 126 151 184 229 277
#     4   9  16  28  46  67  92 122 155 188 224 266
#     4  10  20  32  44  62  92 123 147 178 222 268
#     4   9  17  31  50  67  85 115 155 191 219 255
#     4  10  19  30  45  65  89 114 138 172 223 276
#     4  10  19  31  48  67  86 111 146 185 220 262
#
# _framework density 16.460905
#
# number of rings (size 3 to 8) (size 9 to 14) (size 15 to 20)
#    0.000    2.875    0.000    3.375    0.000    3.500 
#    0.000    6.875    0.000    0.750    0.000    3.500 
#    0.000    0.000    0.000    0.000    0.000    0.000 
#
# Total GULP energy -356288.054767 kJ/mol
# GULP energy per Si atom -5567.000856 kJ/mol
# Density = 1.642344 g / cm^3
# Si number density = 16.460905 Si / 1000 Ang^3
#
#
#
# Elastic Constant Matrix: (Units=GPa)
#
#
# Indices 1 2 3 4 5 6 
#
# 1 20.1957 10.9630 15.9433 0.0000 0.0000 0.0000
# 2 10.9630 37.3598 44.7522 0.0000 0.0000 0.0000
# 3 15.9433 44.7522 142.7395 0.0000 0.0000 0.0000
# 4 0.0000 0.0000 0.0000 8.8598 0.0000 0.0000
# 5 0.0000 0.0000 0.0000 0.0000 18.2667 0.0000
# 6 0.0000 0.0000 0.0000 0.0000 0.0000 17.5281
#
#
#
# Elastic Compliance Matrix: (Units=1/GPa)
#
#
# Indices 1 2 3 4 5 6 
#
# 1 0.059206 -0.015137 -0.001867 0.000000 0.000000 0.000000
# 2 -0.015137 0.046735 -0.012962 0.000000 0.000000 0.000000
# 3 -0.001867 -0.012962 0.011278 0.000000 0.000000 0.000000
# 4 0.000000 0.000000 0.000000 0.112869 0.000000 0.000000
# 5 0.000000 0.000000 0.000000 0.000000 0.054744 0.000000
# 6 0.000000 0.000000 0.000000 0.000000 0.000000 0.057051
#
#
# Mechanical properties :
#
#
# Convention : Reuss Voigt Hill
#
# Bulk Modulus (GPa) = 17.45578 38.17911 27.81744
# Shear Modulus (GPa) = 11.87895 17.50670 14.69283
#
# Velocity S-wave (km/s) = 2.68926 3.26472 2.99086
# Velocity P-wave (km/s) = 4.50225 6.12008 5.37241
#
# Compressibility (1/GPa) = 0.05728762
#
# Stress axis : x y z
#
# Youngs Moduli (GPa) = 16.89005 21.39717 88.66682
#
# Poissons Ratio (x) = 0.32389 0.16557
# Poissons Ratio (y) = 0.25566 1.14929
# Poissons Ratio (z) = 0.03154 0.27735
#
# Static dielectric constant tensor:
#      x y z
#    x 1.550310 0.000000 0.000000 
#    y 0.000000 1.561150 0.000000 
#    z 0.000000 0.000000 1.576560 
# 
# From -- ./inp_files/31744.got.cif
#   From: 2010.05.17/outbox.ucp.g08.bks.cvg/sg59_16_cif.got.tgz:31744.got - 2010.06.11 16:43:56.
