data_PCOD9453558
_publ_section_title
;
Structure prediction by ZEFSAII (Michael W. Deem and Ramdas Pophale) SiO2 
 PCOD9453558
Probable space group: P M M N
;
_chemical_formula_sum "Si O2"
_cell_formula_units_Z 48
_cell_length_a 18.000000
_cell_length_b 9.000000
_cell_length_c 15.000000
_cell_angle_alpha 90.000000
_cell_angle_beta 90.000000
_cell_angle_gamma 90.000000
_cell_volume 2430.000000
_symmetry_space_group_name_H-M "P M M N"
_symmetry_group_IT_number 59
_space_group.IT_coordinate_system_code '2'
_symmetry_cell_setting 'orthorhombic'
loop_
_space_group_symop_operation_xyz
x,y,z
1/2-x,1/2-y,z
1/2+x,-y,-z
-x,1/2+y,-z
-x,-y,-z
1/2+x,1/2+y,-z
1/2-x,y,z
x,1/2-y,z
loop_
_atom_site_type_symbol
_atom_site_label
_atom_site_fract_x
_atom_site_fract_y
_atom_site_fract_z
Si Si1 0.484212 0.080983 0.864593
Si Si2 0.250000 0.077397 0.080295
Si Si3 0.010025 0.427454 0.661402
Si Si4 0.250000 0.926903 0.272462
Si Si5 0.670738 0.570739 0.395880
Si Si6 0.616787 0.081734 0.007779
Si Si7 0.132283 0.426326 0.400955
O O1 0.454160 0.250000 0.865540
O O2 0.509425 0.049393 0.764799
O O3 0.553435 0.076797 0.931573
O O4 0.423015 0.969400 0.901949
O O5 0.250000 0.250000 0.102370
O O6 0.250000 0.985083 0.171832
O O7 0.179192 0.031315 0.022616
O O8 0.005316 0.250000 0.641718
O O9 0.094443 0.479766 0.648010
O O10 0.951826 0.517183 0.603032
O O11 0.250000 0.750000 0.273042
O O12 0.320667 0.989318 0.326185
O O13 0.750000 0.512721 0.362151
O O14 0.671472 0.750000 0.385157
O O15 0.664390 0.541821 0.501320
O O16 0.645229 0.250000 0.013004
O O17 0.136920 0.250000 0.385924
#
# Coordination Sequence:
#
# PCOD9453558 Si02
#       7
#     8   4   8   4   8   8   8
#     4   9  19  36  56  82 112 148 193 238 284 339
#     4  12  24  38  58  87 118 149 188 231 286 347
#     4  10  20  35  58  86 115 152 200 245 287 344
#     4  12  24  38  58  85 118 151 190 239 292 347
#     4   9  18  35  57  81 115 155 194 240 295 347
#     4  10  20  36  58  81 116 155 188 233 287 340
#     4  11  21  36  58  84 117 152 192 240 294 349
#
# _framework density 19.753086
#
# number of rings (size 3 to 8) (size 9 to 14) (size 15 to 20)
#    0.000    1.833    0.833    4.000    0.000    2.667 
#    1.500    0.833    0.000    0.000    0.000    0.000 
#    0.000    0.000    0.000    0.000    0.000    0.000 
#
# Total GULP energy -267968.004223 kJ/mol
# GULP energy per Si atom -5582.666755 kJ/mol
# Density = 1.970813 g / cm^3
# Si number density = 19.753086 Si / 1000 Ang^3
#
#
#
# Elastic Constant Matrix: (Units=GPa)
#
#
# Indices 1 2 3 4 5 6 
#
# 1 70.3219 10.3221 5.1342 0.0000 0.0000 0.0000
# 2 10.3221 61.4594 20.7746 0.0000 0.0000 0.0000
# 3 5.1342 20.7746 9.6306 0.0000 0.0000 0.0000
# 4 0.0000 0.0000 0.0000 15.1793 0.0000 0.0000
# 5 0.0000 0.0000 0.0000 0.0000 9.0101 0.0000
# 6 0.0000 0.0000 0.0000 0.0000 0.0000 9.5263
#
#
#
# Elastic Compliance Matrix: (Units=1/GPa)
#
#
# Indices 1 2 3 4 5 6 
#
# 1 0.014804 0.000670 -0.009337 0.000000 0.000000 0.000000
# 2 0.000670 0.060106 -0.130014 0.000000 0.000000 0.000000
# 3 -0.009337 -0.130014 0.389272 0.000000 0.000000 0.000000
# 4 0.000000 0.000000 0.000000 0.065879 0.000000 0.000000
# 5 0.000000 0.000000 0.000000 0.000000 0.110986 0.000000
# 6 0.000000 0.000000 0.000000 0.000000 0.000000 0.104973
#
#
# Mechanical properties :
#
#
# Convention : Reuss Voigt Hill
#
# Bulk Modulus (GPa) = 5.35278 23.76376 14.55827
# Shear Modulus (GPa) = 4.60551 13.75520 9.18036
#
# Velocity S-wave (km/s) = 1.52859 2.64172 2.15816
# Velocity P-wave (km/s) = 2.41479 4.62184 3.68732
#
# Compressibility (1/GPa) = 0.18681878
#
# Stress axis : x y z
#
# Youngs Moduli (GPa) = 67.55065 16.63728 2.56890
#
# Poissons Ratio (x) = -0.01114 0.02399
# Poissons Ratio (y) = -0.04525 0.33399
# Poissons Ratio (z) = 0.63072 2.16308
#
# Static dielectric constant tensor:
#      x y z
#    x 1.736690 0.000000 0.000000 
#    y 0.000000 1.667560 0.000000 
#    z 0.000000 0.000000 1.672950 
# 
# From -- ./inp_files/20537.got.cif
#   From: 2010.05.17/outbox.ucp.g08.bks.cvg/sg59_11_cif.got.tgz:20537.got - 2010.06.11 16:43:56.
