data_PCOD9453151
_publ_section_title
;
Structure prediction by ZEFSAII (Michael W. Deem and Ramdas Pophale) SiO2 
 PCOD9453151
Probable space group: P M M N
;
_chemical_formula_sum "Si O2"
_cell_formula_units_Z 40
_cell_length_a 22.525600
_cell_length_b 8.807330
_cell_length_c 10.048258
_cell_angle_alpha 90.000000
_cell_angle_beta 90.000000
_cell_angle_gamma 90.000000
_cell_volume 1993.477850
_symmetry_space_group_name_H-M "P M M N"
_symmetry_group_IT_number 59
_space_group.IT_coordinate_system_code '2'
_symmetry_cell_setting 'orthorhombic'
loop_
_space_group_symop_operation_xyz
x,y,z
1/2-x,1/2-y,z
1/2+x,-y,-z
-x,1/2+y,-z
-x,-y,-z
1/2+x,1/2+y,-z
1/2-x,y,z
x,1/2-y,z
loop_
_atom_site_type_symbol
_atom_site_label
_atom_site_fract_x
_atom_site_fract_y
_atom_site_fract_z
Si Si1 0.817892 0.931684 0.507241
Si Si2 0.989951 0.070583 0.853605
Si Si3 0.600287 0.429276 0.280260
Si Si4 0.182172 0.073089 0.936905
Si Si5 0.851409 0.429591 0.790298
O O1 0.750000 0.967408 0.465454
O O2 0.822965 0.750000 0.517206
O O3 0.865302 0.993357 0.401881
O O4 0.830086 0.006919 0.649706
O O5 0.001839 0.250000 0.861760
O O6 0.922196 0.049149 0.808247
O O7 0.035458 0.995444 0.750407
O O8 0.000000 0.000000 0.000000
O O9 0.597380 0.250000 0.300221
O O10 0.638866 0.470150 0.149777
O O11 0.250000 0.058302 0.890209
O O12 0.164813 0.250000 0.923809
O O13 0.178117 0.020506 0.088906
O O14 0.838437 0.250000 0.801148
#
# Coordination Sequence:
#
# PCOD9453151 Si02
#       5
#     8   8   8   8   8
#     4  11  25  45  67  93 129 172 215 263 323 387
#     4  11  23  41  66  96 131 169 213 266 322 381
#     4  12  25  41  65  95 127 169 215 266 324 379
#     4  11  23  39  62  92 126 167 214 264 320 382
#     4  11  24  41  65  96 128 167 213 263 321 381
#
# _framework density 20.065435000000001
#
# number of rings (size 3 to 8) (size 9 to 14) (size 15 to 20)
#    0.000    0.800    2.000    5.400    0.000   11.200 
#    0.000    0.000    0.000    0.000    0.000    0.000 
#    0.000    0.000    0.000    0.000    0.000    0.000 
#
# Total GULP energy -223928.724776 kJ/mol
# GULP energy per Si atom -5598.218119 kJ/mol
# Density = 2.001977 g / cm^3
# Si number density = 20.065435 Si / 1000 Ang^3
#
#
#
# Elastic Constant Matrix: (Units=GPa)
#
#
# Indices 1 2 3 4 5 6 
#
# 1 64.4019 36.7059 -10.5199 0.0000 0.0000 0.0000
# 2 36.7059 94.6834 -5.1804 0.0000 0.0000 0.0000
# 3 -10.5199 -5.1804 56.7774 0.0000 0.0000 0.0000
# 4 0.0000 0.0000 0.0000 40.0013 0.0000 0.0000
# 5 0.0000 0.0000 0.0000 0.0000 41.0064 0.0000
# 6 0.0000 0.0000 0.0000 0.0000 0.0000 22.6227
#
#
#
# Elastic Compliance Matrix: (Units=1/GPa)
#
#
# Indices 1 2 3 4 5 6 
#
# 1 0.020454 -0.007761 0.003082 0.000000 0.000000 0.000000
# 2 -0.007761 0.013559 -0.000201 0.000000 0.000000 0.000000
# 3 0.003082 -0.000201 0.018165 0.000000 0.000000 0.000000
# 4 0.000000 0.000000 0.000000 0.024999 0.000000 0.000000
# 5 0.000000 0.000000 0.000000 0.000000 0.024386 0.000000
# 6 0.000000 0.000000 0.000000 0.000000 0.000000 0.044203
#
#
# Mechanical properties :
#
#
# Convention : Reuss Voigt Hill
#
# Bulk Modulus (GPa) = 23.57446 28.65264 26.11355
# Shear Modulus (GPa) = 29.46946 33.71655 31.59301
#
# Velocity S-wave (km/s) = 3.83648 4.10363 3.97230
# Velocity P-wave (km/s) = 5.60349 6.06330 5.83792
#
# Compressibility (1/GPa) = 0.04241879
#
# Stress axis : x y z
#
# Youngs Moduli (GPa) = 48.88975 73.75077 55.04995
#
# Poissons Ratio (x) = 0.57237 -0.16965
# Poissons Ratio (y) = 0.37943 0.01106
# Poissons Ratio (z) = -0.15067 0.01481
#
# Static dielectric constant tensor:
#      x y z
#    x 1.702630 0.000000 0.000000 
#    y 0.000000 1.665350 0.000000 
#    z 0.000000 0.000000 1.676230 
# 
# From -- ./inp_files/5645.got.cif
#   From: 2010.05.17/outbox.cif.g08.bks.cpg/sg59_3_cif.got.tgz:5645.got - 2010.06.03 14:40:33.
