data_PCOD9453349
_publ_section_title
;
Structure prediction by ZEFSAII (Michael W. Deem and Ramdas Pophale) SiO2 
 PCOD9453349
Probable space group: P M M N
;
_chemical_formula_sum "Si O2"
_cell_formula_units_Z 56
_cell_length_a 21.000000
_cell_length_b 9.000000
_cell_length_c 15.000000
_cell_angle_alpha 90.000000
_cell_angle_beta 90.000000
_cell_angle_gamma 90.000000
_cell_volume 2835.000000
_symmetry_space_group_name_H-M "P M M N"
_symmetry_group_IT_number 59
_space_group.IT_coordinate_system_code '2'
_symmetry_cell_setting 'orthorhombic'
loop_
_space_group_symop_operation_xyz
x,y,z
1/2-x,1/2-y,z
1/2+x,-y,-z
-x,1/2+y,-z
-x,-y,-z
1/2+x,1/2+y,-z
1/2-x,y,z
x,1/2-y,z
loop_
_atom_site_type_symbol
_atom_site_label
_atom_site_fract_x
_atom_site_fract_y
_atom_site_fract_z
Si Si1 0.750000 0.076852 0.422889
Si Si2 0.822398 0.072519 0.743643
Si Si3 0.044235 0.428497 0.730578
Si Si4 0.880026 0.574206 0.443180
Si Si5 0.675078 0.571738 0.926686
Si Si6 0.372115 0.430454 0.884321
Si Si7 0.569776 0.071703 0.608463
Si Si8 0.250000 0.574540 0.791255
O O1 0.750000 0.250000 0.445158
O O2 0.750000 0.059438 0.315564
O O3 0.687309 0.000386 0.459273
O O4 0.750000 0.022024 0.731446
O O5 0.823178 0.250000 0.756318
O O6 0.863892 0.040965 0.657611
O O7 0.847046 0.999215 0.834445
O O8 0.036591 0.250000 0.737344
O O9 0.099196 0.458416 0.658098
O O10 0.066512 0.480741 0.827424
O O11 0.981940 0.483574 0.680002
O O12 0.877357 0.750000 0.453099
O O13 0.929067 0.507564 0.513913
O O14 0.750000 0.530286 0.940924
O O15 0.673071 0.750000 0.919824
O O16 0.634473 0.525509 0.012722
O O17 0.368678 0.250000 0.880715
O O18 0.311280 0.496226 0.833587
O O19 0.561831 0.250000 0.596019
O O20 0.250000 0.750000 0.812105
#
# Coordination Sequence:
#
# PCOD9453349 Si02
#       8
#     4   8   8   8   8   8   8   4
#     4  11  23  37  53  80 115 146 175 219 274 324
#     4   9  19  35  54  75 103 140 179 224 272 321
#     4   9  19  35  56  79 107 147 185 220 262 324
#     4  11  22  36  57  83 109 142 184 227 272 316
#     4   9  17  30  52  79 104 136 176 221 271 320
#     4  10  18  33  55  78 109 145 181 216 265 326
#     4  10  21  38  57  77 106 146 189 225 271 325
#     4  11  21  31  49  80 113 142 175 219 270 316
#
# _framework density 19.753086
#
# number of rings (size 3 to 8) (size 9 to 14) (size 15 to 20)
#    0.000    2.143    2.143    1.286    1.000    1.714 
#    0.000    2.143    0.000    0.000    0.000    0.000 
#    0.000    0.000    0.000    0.000    0.000    0.000 
#
# Total GULP energy -312307.595798 kJ/mol
# GULP energy per Si atom -5576.921354 kJ/mol
# Density = 1.970813 g / cm^3
# Si number density = 19.753086 Si / 1000 Ang^3
#
#
#
# Elastic Constant Matrix: (Units=GPa)
#
#
# Indices 1 2 3 4 5 6 
#
# 1 33.2717 30.7099 -21.9999 0.0000 0.0000 0.0000
# 2 30.7099 4.5519 50.8837 0.0000 0.0000 0.0000
# 3 -21.9999 50.8837 9.2395 0.0000 0.0000 0.0000
# 4 0.0000 0.0000 0.0000 22.7409 0.0000 0.0000
# 5 0.0000 0.0000 0.0000 0.0000 18.4358 0.0000
# 6 0.0000 0.0000 0.0000 0.0000 0.0000 6.8118
#
#
#
# Elastic Compliance Matrix: (Units=1/GPa)
#
#
# Indices 1 2 3 4 5 6 
#
# 1 0.015492 0.008534 -0.010113 0.000000 0.000000 0.000000
# 2 0.008534 0.001074 0.014406 0.000000 0.000000 0.000000
# 3 -0.010113 0.014406 0.004815 0.000000 0.000000 0.000000
# 4 0.000000 0.000000 0.000000 0.043974 0.000000 0.000000
# 5 0.000000 0.000000 0.000000 0.000000 0.054242 0.000000
# 6 0.000000 0.000000 0.000000 0.000000 0.000000 0.146803
#
#
# Mechanical properties :
#
#
# Convention : Reuss Voigt Hill
#
# Bulk Modulus (GPa) = 21.26099 18.47226 19.86662
# Shear Modulus (GPa) = 19.49899 8.76234 14.13067
#
# Velocity S-wave (km/s) = 3.14528 2.10845 2.67753
# Velocity P-wave (km/s) = 4.89665 3.91143 4.43150
#
# Compressibility (1/GPa) = 0.04703450
#
# Stress axis : x y z
#
# Youngs Moduli (GPa) = 64.55143 931.11608 207.69208
#
# Poissons Ratio (x) = -7.94634 2.10040
# Poissons Ratio (y) = -0.55090 -2.99200
# Poissons Ratio (z) = 0.65281 -13.41361
#
# Static dielectric constant tensor:
#      x y z
#    x 1.742200 0.000000 0.000000 
#    y 0.000000 1.653390 0.000000 
#    z 0.000000 0.000000 1.683400 
# 
# From -- ./inp_files/24369.got.cif
#   From: 2010.05.17/outbox.ucp.g08.bks.cvg/sg59_13_cif.got.tgz:24369.got - 2010.06.11 16:43:56.
