data_PCOD9453899
_publ_section_title
;
Structure prediction by ZEFSAII (Michael W. Deem and Ramdas Pophale) SiO2 
 PCOD9453899
Probable space group: P B C N
;
_chemical_formula_sum "Si O2"
_cell_formula_units_Z 64
_cell_length_a 31.518328
_cell_length_b 13.273269
_cell_length_c 9.582227
_cell_angle_alpha 90.000000
_cell_angle_beta 90.000000
_cell_angle_gamma 90.000000
_cell_volume 4008.736605
_symmetry_space_group_name_H-M "P B C N"
_symmetry_group_IT_number 60
_symmetry_cell_setting 'orthorhombic'
loop_
_space_group_symop_operation_xyz
x,y,z
1/2-x,1/2-y,1/2+z
1/2+x,1/2-y,-z
-x,y,1/2-z
-x,-y,-z
1/2+x,1/2+y,1/2-z
1/2-x,1/2+y,z
x,-y,1/2+z
loop_
_atom_site_type_symbol
_atom_site_label
_atom_site_fract_x
_atom_site_fract_y
_atom_site_fract_z
Si Si1 0.235662 0.904268 0.629937
Si Si2 0.959573 0.610393 0.672130
Si Si3 0.687847 0.192571 0.540544
Si Si4 0.734494 0.404611 0.541251
Si Si5 0.541943 0.124669 0.175667
Si Si6 0.598525 0.881304 0.938298
Si Si7 0.310583 0.807640 0.130077
Si Si8 0.098558 0.617951 0.567755
O O1 0.279214 0.871675 0.552557
O O2 0.242080 0.926275 0.794573
O O3 0.205017 0.807523 0.620991
O O4 0.218222 0.998913 0.543595
O O5 0.969941 0.492516 0.644982
O O6 0.941806 0.654054 0.529880
O O7 0.000000 0.655395 0.750000
O O8 0.920583 0.615470 0.778082
O O9 0.703419 0.308321 0.532008
O O10 0.641019 0.175998 0.479576
O O11 0.689920 0.163362 0.705034
O O12 0.777455 0.371904 0.461080
O O13 0.500000 0.168598 0.250000
O O14 0.581631 0.126491 0.281649
O O15 0.561975 0.162787 0.031933
O O16 0.605877 0.000210 0.971070
O O17 0.357282 0.824685 0.069691
#
# Coordination Sequence:
#
# PCOD9453899 Si02
#       8
#     8   8   8   8   8   8   8   8
#     4  10  21  35  52  70  96 128 158 199 242 283
#     4   9  16  28  44  61  89 129 159 187 232 278
#     4  10  20  34  50  72  97 125 164 200 234 281
#     4  10  21  35  52  70  96 128 158 199 242 283
#     4   9  18  28  40  65  97 129 161 187 230 284
#     4  10  18  28  45  67  96 128 158 197 229 275
#     4  10  20  34  50  72  97 125 164 200 234 281
#     4  10  18  28  45  67  96 128 158 197 229 275
#
# _framework density 15.96513
#
# number of rings (size 3 to 8) (size 9 to 14) (size 15 to 20)
#    0.000    2.250    1.250    2.250    1.750    4.000 
#    0.000    0.000    0.000    0.000    0.000    0.000 
#    0.000    6.000    0.000    0.000    0.000    0.000 
#
# Total GULP energy -356524.947553 kJ/mol
# GULP energy per Si atom -5570.702306 kJ/mol
# Density = 1.592879 g / cm^3
# Si number density = 15.965130 Si / 1000 Ang^3
#
#
#
# Elastic Constant Matrix: (Units=GPa)
#
#
# Indices 1 2 3 4 5 6 
#
# 1 66.4552 12.3411 14.1063 0.0000 0.0000 0.0000
# 2 12.3411 38.4603 25.0794 0.0000 0.0000 0.0000
# 3 14.1063 25.0794 95.3830 0.0000 0.0000 0.0000
# 4 0.0000 0.0000 0.0000 20.5012 0.0000 0.0000
# 5 0.0000 0.0000 0.0000 0.0000 26.5653 0.0000
# 6 0.0000 0.0000 0.0000 0.0000 0.0000 14.1230
#
#
#
# Elastic Compliance Matrix: (Units=1/GPa)
#
#
# Indices 1 2 3 4 5 6 
#
# 1 0.016121 -0.004367 -0.001236 0.000000 0.000000 0.000000
# 2 -0.004367 0.032564 -0.007916 0.000000 0.000000 0.000000
# 3 -0.001236 -0.007916 0.012748 0.000000 0.000000 0.000000
# 4 0.000000 0.000000 0.000000 0.048778 0.000000 0.000000
# 5 0.000000 0.000000 0.000000 0.000000 0.037643 0.000000
# 6 0.000000 0.000000 0.000000 0.000000 0.000000 0.070807
#
#
# Mechanical properties :
#
#
# Convention : Reuss Voigt Hill
#
# Bulk Modulus (GPa) = 29.07399 33.70580 31.38990
# Shear Modulus (GPa) = 19.44279 22.15600 20.79940
#
# Velocity S-wave (km/s) = 3.49353 3.72933 3.61335
# Velocity P-wave (km/s) = 5.87566 6.30094 6.09201
#
# Compressibility (1/GPa) = 0.03439500
#
# Stress axis : x y z
#
# Youngs Moduli (GPa) = 62.03073 30.70850 78.44165
#
# Poissons Ratio (x) = 0.13410 0.09695
# Poissons Ratio (y) = 0.27089 0.62098
# Poissons Ratio (z) = 0.07667 0.24310
#
# Static dielectric constant tensor:
#      x y z
#    x 1.543420 0.000000 0.000000 
#    y 0.000000 1.518370 0.000000 
#    z 0.000000 0.000000 1.570100 
# 
# From -- ./inp_files/8547.got.cif
#   From: 2010.05.17/outbox.cif.g08.bks.cpg/sg60_5_cif.got.tgz:8547.got - 2010.06.03 14:59:27.
