data_PCOD9453486
_publ_section_title
;
Structure prediction by ZEFSAII (Michael W. Deem and Ramdas Pophale) SiO2 
 PCOD9453486
Probable space group: P M M N
;
_chemical_formula_sum "Si O2"
_cell_formula_units_Z 56
_cell_length_a 21.000000
_cell_length_b 9.000000
_cell_length_c 15.000000
_cell_angle_alpha 90.000000
_cell_angle_beta 90.000000
_cell_angle_gamma 90.000000
_cell_volume 2835.000000
_symmetry_space_group_name_H-M "P M M N"
_symmetry_group_IT_number 59
_space_group.IT_coordinate_system_code '2'
_symmetry_cell_setting 'orthorhombic'
loop_
_space_group_symop_operation_xyz
x,y,z
1/2-x,1/2-y,z
1/2+x,-y,-z
-x,1/2+y,-z
-x,-y,-z
1/2+x,1/2+y,-z
1/2-x,y,z
x,1/2-y,z
loop_
_atom_site_type_symbol
_atom_site_label
_atom_site_fract_x
_atom_site_fract_y
_atom_site_fract_z
Si Si1 0.322383 0.916219 0.588815
Si Si2 0.158280 0.919646 0.382912
Si Si3 0.094911 0.423682 0.724780
Si Si4 0.433586 0.574216 0.894572
Si Si5 0.070560 0.925900 0.096994
Si Si6 0.320050 0.076528 0.206198
Si Si7 0.509257 0.079427 0.594008
O O1 0.250000 0.904658 0.616908
O O2 0.352527 0.750000 0.597803
O O3 0.324098 0.953317 0.484464
O O4 0.354961 0.038328 0.648763
O O5 0.178850 0.750000 0.363184
O O6 0.082330 0.922224 0.380880
O O7 0.181771 0.032729 0.309741
O O8 0.089353 0.250000 0.743848
O O9 0.108255 0.508260 0.815722
O O10 0.030643 0.481707 0.676809
O O11 0.437652 0.750000 0.886451
O O12 0.503664 0.504397 0.884289
O O13 0.411652 0.538195 0.994567
O O14 0.061289 0.750000 0.105529
O O15 0.125629 0.980648 0.160881
O O16 0.250000 0.045225 0.167863
O O17 0.333966 0.250000 0.195503
O O18 0.488157 0.250000 0.581731
O O19 0.500000 0.000000 0.500000
#
# Coordination Sequence:
#
# PCOD9453486 Si02
#       7
#     8   8   8   8   8   8   8
#     4  10  21  37  56  77 106 150 199 240 279 331
#     4  10  20  36  58  82 111 151 195 236 284 341
#     4  11  22  35  55  85 117 150 188 232 284 340
#     4  10  21  38  63  91 117 148 185 232 289 345
#     4  10  21  39  63  90 117 147 187 233 287 348
#     4  11  24  39  57  85 119 156 197 239 287 344
#     4  10  20  33  52  80 111 143 182 228 278 331
#
# _framework density 19.753086
#
# number of rings (size 3 to 8) (size 9 to 14) (size 15 to 20)
#    0.000    1.714    1.429    3.000    0.000    6.571 
#    0.000    0.714    0.000    0.857    0.000    0.000 
#    0.000    0.000    0.000    0.000    0.000    0.000 
#
# Total GULP energy -312425.705117 kJ/mol
# GULP energy per Si atom -5579.030449 kJ/mol
# Density = 1.970813 g / cm^3
# Si number density = 19.753086 Si / 1000 Ang^3
#
#
#
# Elastic Constant Matrix: (Units=GPa)
#
#
# Indices 1 2 3 4 5 6 
#
# 1 50.8702 9.3846 10.3726 0.0000 0.0000 0.0000
# 2 9.3846 14.4910 31.0931 0.0000 0.0000 0.0000
# 3 10.3726 31.0931 69.1812 0.0000 0.0000 0.0000
# 4 0.0000 0.0000 0.0000 25.6575 0.0000 0.0000
# 5 0.0000 0.0000 0.0000 0.0000 268.5172 0.0000
# 6 0.0000 0.0000 0.0000 0.0000 0.0000 -203.4516
#
#
#
# Elastic Compliance Matrix: (Units=1/GPa)
#
#
# Indices 1 2 3 4 5 6 
#
# 1 0.163355 -1.494036 0.646994 0.000000 0.000000 0.000000
# 2 -1.494036 15.600943 -6.787752 0.000000 0.000000 0.000000
# 3 0.646994 -6.787752 2.968167 0.000000 0.000000 0.000000
# 4 0.000000 0.000000 0.000000 0.038975 0.000000 0.000000
# 5 0.000000 0.000000 0.000000 0.000000 0.003724 0.000000
# 6 0.000000 0.000000 0.000000 0.000000 0.000000 -0.004915
#
#
# Mechanical properties :
#
#
# Convention : Reuss Voigt Hill
#
# Bulk Modulus (GPa) = 0.28878 26.24923 13.26900
# Shear Modulus (GPa) = 0.14207 23.72408 11.93307
#
# Velocity S-wave (km/s) = 0.26847 3.46935 2.46054
# Velocity P-wave (km/s) = 0.49256 5.41904 3.84764
#
# Compressibility (1/GPa) = 3.46287675
#
# Stress axis : x y z
#
# Youngs Moduli (GPa) = 6.12163 0.06410 0.33691
#
# Poissons Ratio (x) = 0.09577 -0.21798
# Poissons Ratio (y) = 9.14593 2.28685
# Poissons Ratio (z) = -3.96066 0.43509
#
# Static dielectric constant tensor:
#      x y z
#    x 1.709270 0.000000 0.000000 
#    y 0.000000 1.694390 0.000000 
#    z 0.000000 0.000000 1.707970 
# 
# From -- ./inp_files/24196.got.cif
#   From: 2010.05.17/outbox.ucp.g08.bks.cvg/sg59_13_cif.got.tgz:24196.got - 2010.06.11 16:43:56.
