data_PCOD9453070
_publ_section_title
;
Structure prediction by ZEFSAII (Michael W. Deem and Ramdas Pophale) SiO2 
 PCOD9453070
Probable space group: P M M N
;
_chemical_formula_sum "Si O2"
_cell_formula_units_Z 32
_cell_length_a 7.736624
_cell_length_b 21.858849
_cell_length_c 9.537247
_cell_angle_alpha 90.000000
_cell_angle_beta 90.000000
_cell_angle_gamma 90.000000
_cell_volume 1612.879088
_symmetry_space_group_name_H-M "P M M N"
_symmetry_group_IT_number 59
_space_group.IT_coordinate_system_code '2'
_symmetry_cell_setting 'orthorhombic'
loop_
_space_group_symop_operation_xyz
x,y,z
1/2-x,1/2-y,z
1/2+x,-y,-z
-x,1/2+y,-z
-x,-y,-z
1/2+x,1/2+y,-z
1/2-x,y,z
x,1/2-y,z
loop_
_atom_site_type_symbol
_atom_site_label
_atom_site_fract_x
_atom_site_fract_y
_atom_site_fract_z
Si Si1 0.037183 0.383968 0.660719
Si Si2 0.543287 0.881783 0.660434
Si Si3 0.955059 0.999509 0.162825
Si Si4 0.050136 0.250000 0.665828
Si Si5 0.550329 0.750000 0.675705
O O1 0.250000 0.382573 0.662342
O O2 0.982819 0.393991 0.498904
O O3 0.976142 0.439335 0.757404
O O4 0.976674 0.316118 0.706606
O O5 0.750000 0.873713 0.649531
O O6 0.510890 0.938636 0.760046
O O7 0.472838 0.816044 0.713422
O O8 0.750000 0.996549 0.175380
O O9 0.000000 0.000000 0.000000
O O10 0.250000 0.250000 0.712613
O O11 0.051532 0.250000 0.495131
O O12 0.750000 0.750000 0.725617
#
# Coordination Sequence:
#
# PCOD9453070 Si02
#       5
#     8   8   8   4   4
#     4   8  15  28  50  75  96 118 153 198 244 288
#     4   9  16  31  54  77  96 119 153 197 243 291
#     4  11  22  34  46  67  99 134 166 200 239 283
#     4   7  10  22  45  73  96 114 144 195 244 283
#     4   7  12  24  48  77  98 114 144 191 242 289
#
# _framework density 19.840297
#
# number of rings (size 3 to 8) (size 9 to 14) (size 15 to 20)
#    0.000    3.250    0.000    4.500    0.000    0.000 
#    0.000    3.125    0.000    4.500    0.000    6.125 
#    0.000    0.000    0.000    0.000    0.000    0.000 
#
# Total GULP energy -178242.022329 kJ/mol
# GULP energy per Si atom -5570.063198 kJ/mol
# Density = 1.979514 g / cm^3
# Si number density = 19.840297 Si / 1000 Ang^3
#
#
#
# Elastic Constant Matrix: (Units=GPa)
#
#
# Indices 1 2 3 4 5 6 
#
# 1 26.9164 5.1421 0.0525 0.0000 0.0000 0.0000
# 2 5.1421 255.1046 108.4322 0.0000 0.0000 0.0000
# 3 0.0525 108.4322 97.1607 0.0000 0.0000 0.0000
# 4 0.0000 0.0000 0.0000 -6.0282 0.0000 0.0000
# 5 0.0000 0.0000 0.0000 0.0000 12.9200 0.0000
# 6 0.0000 0.0000 0.0000 0.0000 0.0000 19.6268
#
#
#
# Elastic Compliance Matrix: (Units=1/GPa)
#
#
# Indices 1 2 3 4 5 6 
#
# 1 0.037420 -0.001419 0.001563 0.000000 0.000000 0.000000
# 2 -0.001419 0.007511 -0.008382 0.000000 0.000000 0.000000
# 3 0.001563 -0.008382 0.019646 0.000000 0.000000 0.000000
# 4 0.000000 0.000000 0.000000 -0.165887 0.000000 0.000000
# 5 0.000000 0.000000 0.000000 0.000000 0.077399 0.000000
# 6 0.000000 0.000000 0.000000 0.000000 0.000000 0.050951
#
#
# Mechanical properties :
#
#
# Convention : Reuss Voigt Hill
#
# Bulk Modulus (GPa) = 20.78923 67.38170 44.08547
# Shear Modulus (GPa) = 83.96483 23.00738 53.48610
#
# Velocity S-wave (km/s) = 6.51247 3.40903 5.19777
# Velocity P-wave (km/s) = 8.18845 7.03783 7.63485
#
# Compressibility (1/GPa) = 0.04810183
#
# Stress axis : x y z
#
# Youngs Moduli (GPa) = 26.72367 133.13325 50.90189
#
# Poissons Ratio (x) = 0.18886 -0.07956
# Poissons Ratio (y) = 0.03791 0.42665
# Poissons Ratio (z) = -0.04177 1.11591
#
# Static dielectric constant tensor:
#      x y z
#    x 1.770040 0.000000 0.000000 
#    y 0.000000 1.756420 0.000000 
#    z 0.000000 0.000000 1.625650 
# 
# From -- ./inp_files/7061.got.cif
#   From: 2010.05.17/outbox.cif.g08.bks.cpg/sg59_4_cif.got.tgz:7061.got - 2010.06.03 14:40:33.
