data_PCOD9453148
_publ_section_title
;
Structure prediction by ZEFSAII (Michael W. Deem and Ramdas Pophale) SiO2 
 PCOD9453148
Probable space group: P M M N
;
_chemical_formula_sum "Si O2"
_cell_formula_units_Z 40
_cell_length_a 22.554523
_cell_length_b 8.929289
_cell_length_c 9.762637
_cell_angle_alpha 90.000000
_cell_angle_beta 90.000000
_cell_angle_gamma 90.000000
_cell_volume 1966.154617
_symmetry_space_group_name_H-M "P M M N"
_symmetry_group_IT_number 59
_space_group.IT_coordinate_system_code '2'
_symmetry_cell_setting 'orthorhombic'
loop_
_space_group_symop_operation_xyz
x,y,z
1/2-x,1/2-y,z
1/2+x,-y,-z
-x,1/2+y,-z
-x,-y,-z
1/2+x,1/2+y,-z
1/2-x,y,z
x,1/2-y,z
loop_
_atom_site_type_symbol
_atom_site_label
_atom_site_fract_x
_atom_site_fract_y
_atom_site_fract_z
Si Si1 0.250000 0.071213 0.673089
Si Si2 0.130630 0.423185 0.297036
Si Si3 0.133014 0.573618 0.794696
Si Si4 0.056436 0.076581 0.568778
Si Si5 0.940945 0.073116 0.937977
Si Si6 0.250000 0.571900 0.369145
O O1 0.250000 0.250000 0.659825
O O2 0.308230 0.015556 0.753276
O O3 0.250000 0.999457 0.521403
O O4 0.140208 0.250000 0.259327
O O5 0.107350 0.427003 0.452916
O O6 0.191324 0.514818 0.292610
O O7 0.080889 0.494508 0.200038
O O8 0.142409 0.750000 0.768811
O O9 0.080196 0.513294 0.698537
O O10 0.111287 0.554088 0.949876
O O11 0.044377 0.250000 0.603289
O O12 0.000000 0.000000 0.500000
O O13 0.950462 0.250000 0.916927
O O14 0.000000 0.000000 0.000000
O O15 0.250000 0.750000 0.380455
#
# Coordination Sequence:
#
# PCOD9453148 Si02
#       6
#     4   8   8   8   8   4
#     4  12  24  41  66  97 130 166 212 266 324 385
#     4  11  24  42  65  94 129 170 216 266 321 382
#     4  11  24  42  65  93 127 169 215 265 321 383
#     4  11  23  38  61  92 126 164 214 268 320 384
#     4  11  25  44  66  95 132 173 219 267 324 387
#     4  12  24  41  68  97 130 170 212 266 324 381
#
# _framework density 20.344280000000001
#
# number of rings (size 3 to 8) (size 9 to 14) (size 15 to 20)
#    0.000    0.800    2.000    5.400    0.000   11.200 
#    0.000    1.000    0.000    0.000    0.000    0.000 
#    0.000    0.000    0.000    0.000    0.000    0.000 
#
# Total GULP energy -223934.007592 kJ/mol
# GULP energy per Si atom -5598.350190 kJ/mol
# Density = 2.029798 g / cm^3
# Si number density = 20.344280 Si / 1000 Ang^3
#
#
#
# Elastic Constant Matrix: (Units=GPa)
#
#
# Indices 1 2 3 4 5 6 
#
# 1 83.9367 29.3751 -10.7385 0.0000 0.0000 0.0000
# 2 29.3751 150.2964 27.9532 0.0000 0.0000 0.0000
# 3 -10.7385 27.9532 58.0630 0.0000 0.0000 0.0000
# 4 0.0000 0.0000 0.0000 31.0917 0.0000 0.0000
# 5 0.0000 0.0000 0.0000 0.0000 33.0288 0.0000
# 6 0.0000 0.0000 0.0000 0.0000 0.0000 40.7002
#
#
#
# Elastic Compliance Matrix: (Units=1/GPa)
#
#
# Indices 1 2 3 4 5 6 
#
# 1 0.013656 -0.003447 0.004185 0.000000 0.000000 0.000000
# 2 -0.003447 0.008178 -0.004575 0.000000 0.000000 0.000000
# 3 0.004185 -0.004575 0.020199 0.000000 0.000000 0.000000
# 4 0.000000 0.000000 0.000000 0.032163 0.000000 0.000000
# 5 0.000000 0.000000 0.000000 0.000000 0.030277 0.000000
# 6 0.000000 0.000000 0.000000 0.000000 0.000000 0.024570
#
#
# Mechanical properties :
#
#
# Convention : Reuss Voigt Hill
#
# Bulk Modulus (GPa) = 29.10438 42.83064 35.96751
# Shear Modulus (GPa) = 33.74520 37.34456 35.54488
#
# Velocity S-wave (km/s) = 4.07714 4.28907 4.18445
# Velocity P-wave (km/s) = 6.04161 6.75476 6.40812
#
# Compressibility (1/GPa) = 0.03435909
#
# Stress axis : x y z
#
# Youngs Moduli (GPa) = 73.22978 122.27704 49.50703
#
# Poissons Ratio (x) = 0.42153 -0.20720
# Poissons Ratio (y) = 0.25245 0.22648
# Poissons Ratio (z) = -0.30648 0.55939
#
# Static dielectric constant tensor:
#      x y z
#    x 1.718270 0.000000 0.000000 
#    y 0.000000 1.680110 0.000000 
#    z 0.000000 0.000000 1.698100 
# 
# From -- ./inp_files/12430.got.cif
#   From: 2010.05.17/outbox.cif.g08.bks.cpg/sg59_7_cif.got.tgz:12430.got - 2010.06.03 14:40:33.
