data_PCOD9453214
_publ_section_title
;
Structure prediction by ZEFSAII (Michael W. Deem and Ramdas Pophale) SiO2 
 PCOD9453214
Probable space group: P M M N
;
_chemical_formula_sum "Si O2"
_cell_formula_units_Z 64
_cell_length_a 7.296953
_cell_length_b 24.135684
_cell_length_c 14.141729
_cell_angle_alpha 90.000000
_cell_angle_beta 90.000000
_cell_angle_gamma 90.000000
_cell_volume 2490.598204
_symmetry_space_group_name_H-M "P M M N"
_symmetry_group_IT_number 59
_space_group.IT_coordinate_system_code '2'
_symmetry_cell_setting 'orthorhombic'
loop_
_space_group_symop_operation_xyz
x,y,z
1/2-x,1/2-y,z
1/2+x,-y,-z
-x,1/2+y,-z
-x,-y,-z
1/2+x,1/2+y,-z
1/2-x,y,z
x,1/2-y,z
loop_
_atom_site_type_symbol
_atom_site_label
_atom_site_fract_x
_atom_site_fract_y
_atom_site_fract_z
Si Si1 0.031850 0.958062 0.626272
Si Si2 0.959299 0.173776 0.126046
Si Si3 0.972633 0.549963 0.905610
Si Si4 0.526913 0.309745 0.538542
Si Si5 0.467107 0.926454 0.417561
Si Si6 0.525648 0.339738 0.323412
Si Si7 0.474130 0.688278 0.088570
Si Si8 0.042101 0.566341 0.126949
O O1 0.250000 0.952938 0.624566
O O2 0.995834 0.021847 0.650749
O O3 0.960623 0.946496 0.519447
O O4 0.962612 0.903941 0.678989
O O5 0.750000 0.192595 0.121568
O O6 0.038150 0.190109 0.227884
O O7 0.036381 0.186715 0.022037
O O8 0.960314 0.107555 0.134507
O O9 0.750000 0.549145 0.907553
O O10 0.038447 0.494792 0.851007
O O11 0.043933 0.555940 0.013189
O O12 0.750000 0.309039 0.541017
O O13 0.463756 0.250000 0.572881
O O14 0.465330 0.364030 0.596318
O O15 0.476381 0.317327 0.427513
O O16 0.250000 0.921604 0.426172
O O17 0.750000 0.337370 0.321221
O O18 0.250000 0.685273 0.088955
O O19 0.522664 0.750000 0.126140
O O20 0.533624 0.629378 0.136131
O O21 0.250000 0.568345 0.164466
#
# Coordination Sequence:
#
# PCOD9453214 Si02
#       8
#     8   8   8   8   8   8   8   8
#     4   8  13  22  35  49  66  89 115 144 177 209
#     4   9  16  25  36  51  72  96 121 148 174 202
#     4   9  15  23  36  52  69  90 116 146 180 213
#     4   8  13  21  34  53  75  96 119 148 178 207
#     4   8  13  21  34  52  70  87 111 144 180 213
#     4   8  14  23  34  49  70  96 124 149 171 200
#     4   8  13  21  34  52  71  90 114 143 171 199
#     4   8  14  24  37  52  69  89 114 145 179 212
#
# _framework density 25.696636000000002
#
# number of rings (size 3 to 8) (size 9 to 14) (size 15 to 20)
#    0.000    3.750    0.000    2.625    0.000    1.000 
#    0.000    3.125    0.000    7.125    0.000    0.000 
#    0.000    1.000    0.000   10.250    0.000    2.000 
#
# Total GULP energy -356342.481732 kJ/mol
# GULP energy per Si atom -5567.851277 kJ/mol
# Density = 2.563815 g / cm^3
# Si number density = 25.696636 Si / 1000 Ang^3
#
#
#
# Elastic Constant Matrix: (Units=GPa)
#
#
# Indices 1 2 3 4 5 6 
#
# 1 123.4175 8.9436 -4.5100 0.0000 0.0000 0.0000
# 2 8.9436 277.6957 -3.4965 0.0000 0.0000 0.0000
# 3 -4.5100 -3.4965 29.3676 0.0000 0.0000 0.0000
# 4 0.0000 0.0000 0.0000 -15.8003 0.0000 0.0000
# 5 0.0000 0.0000 0.0000 0.0000 5.3355 0.0000
# 6 0.0000 0.0000 0.0000 0.0000 0.0000 -22.0715
#
#
#
# Elastic Compliance Matrix: (Units=1/GPa)
#
#
# Indices 1 2 3 4 5 6 
#
# 1 0.008165 -0.000248 0.001224 0.000000 0.000000 0.000000
# 2 -0.000248 0.003614 0.000392 0.000000 0.000000 0.000000
# 3 0.001224 0.000392 0.034286 0.000000 0.000000 0.000000
# 4 0.000000 0.000000 0.000000 -0.063290 0.000000 0.000000
# 5 0.000000 0.000000 0.000000 0.000000 0.187425 0.000000
# 6 0.000000 0.000000 0.000000 0.000000 0.000000 -0.045307
#
#
# Mechanical properties :
#
#
# Convention : Reuss Voigt Hill
#
# Bulk Modulus (GPa) = 20.49035 48.03944 34.26489
# Shear Modulus (GPa) = 36.12126 22.12898 29.12512
#
# Velocity S-wave (km/s) = 3.75331 2.93774 3.37029
# Velocity P-wave (km/s) = 5.17439 5.49932 5.33933
#
# Compressibility (1/GPa) = 0.04880346
#
# Stress axis : x y z
#
# Youngs Moduli (GPa) = 122.47001 276.70353 29.16652
#
# Poissons Ratio (x) = 0.06850 -0.03571
# Poissons Ratio (y) = 0.03032 -0.01144
# Poissons Ratio (z) = -0.14996 -0.10854
#
# Static dielectric constant tensor:
#      x y z
#    x 2.017280 0.000000 0.000000 
#    y 0.000000 2.109980 0.000000 
#    z 0.000000 0.000000 2.027660 
# 
# From -- ./inp_files/29832.got.cif
#   From: 2010.05.17/outbox.cif.g08.bks.cpg/sg59_15_cif.got.tgz:29832.got - 2010.06.03 14:40:33.
