data_PCOD9453920
_publ_section_title
;
Structure prediction by ZEFSAII (Michael W. Deem and Ramdas Pophale) SiO2 
 PCOD9453920
Probable space group: P B C N
;
_chemical_formula_sum "Si O2"
_cell_formula_units_Z 28
_cell_length_a 15.541534
_cell_length_b 13.630832
_cell_length_c 5.089137
_cell_angle_alpha 90.000000
_cell_angle_beta 90.000000
_cell_angle_gamma 90.000000
_cell_volume 1078.103337
_symmetry_space_group_name_H-M "P B C N"
_symmetry_group_IT_number 60
_symmetry_cell_setting 'orthorhombic'
loop_
_space_group_symop_operation_xyz
x,y,z
1/2-x,1/2-y,1/2+z
1/2+x,1/2-y,-z
-x,y,1/2-z
-x,-y,-z
1/2+x,1/2+y,1/2-z
1/2-x,1/2+y,z
x,-y,1/2+z
loop_
_atom_site_type_symbol
_atom_site_label
_atom_site_fract_x
_atom_site_fract_y
_atom_site_fract_z
Si Si1 0.096332 0.630624 0.714793
Si Si2 0.500000 0.430875 0.250000
Si Si3 0.203093 0.628584 0.199197
Si Si4 0.147219 0.179140 0.489180
O O1 0.130569 0.620506 0.422037
O O2 0.000000 0.591835 0.750000
O O3 0.165124 0.587046 0.926887
O O4 0.095855 0.745599 0.801762
O O5 0.500000 0.500000 0.500000
O O6 0.416105 0.365763 0.201550
O O7 0.295356 0.603325 0.322315
O O8 0.210427 0.745932 0.140197
#
# Coordination Sequence:
#
# PCOD9453920 Si02
#       4
#     8   4   8   8
#     4  10  18  29  51  84 109 139 176 250 325 349
#     4  12  30  38  56  82 132 186 196 228 280 394
#     4  10  19  31  58  79 101 158 185 273 303 321
#     4  10  21  38  55  80 116 154 222 233 308 350
#
# _framework density 25.971537999999999
#
# number of rings (size 3 to 8) (size 9 to 14) (size 15 to 20)
#    1.714    0.000    2.857    2.571    6.000    0.000 
#    0.000    0.000    0.000    0.000    0.000    0.000 
#    0.000   22.857    0.000    0.286    0.000    0.000 
#
# Total GULP energy -156536.379840 kJ/mol
# GULP energy per Si atom -5590.584994 kJ/mol
# Density = 2.591243 g / cm^3
# Si number density = 25.971538 Si / 1000 Ang^3
#
#
#
# Elastic Constant Matrix: (Units=GPa)
#
#
# Indices 1 2 3 4 5 6 
#
# 1 110.2548 4.9544 9.7857 0.0000 0.0000 0.0000
# 2 4.9544 62.7789 3.9626 0.0000 0.0000 0.0000
# 3 9.7857 3.9626 134.1869 0.0000 0.0000 0.0000
# 4 0.0000 0.0000 0.0000 -15.1363 0.0000 0.0000
# 5 0.0000 0.0000 0.0000 0.0000 57.0164 0.0000
# 6 0.0000 0.0000 0.0000 0.0000 0.0000 -4.3632
#
#
#
# Elastic Compliance Matrix: (Units=1/GPa)
#
#
# Indices 1 2 3 4 5 6 
#
# 1 0.009158 -0.000682 -0.000648 0.000000 0.000000 0.000000
# 2 -0.000682 0.016009 -0.000423 0.000000 0.000000 0.000000
# 3 -0.000648 -0.000423 0.007512 0.000000 0.000000 0.000000
# 4 0.000000 0.000000 0.000000 -0.066066 0.000000 0.000000
# 5 0.000000 0.000000 0.000000 0.000000 0.017539 0.000000
# 6 0.000000 0.000000 0.000000 0.000000 0.000000 -0.229190
#
#
# Mechanical properties :
#
#
# Convention : Reuss Voigt Hill
#
# Bulk Modulus (GPa) = 34.27680 38.29177 36.28429
# Shear Modulus (GPa) = -21.56953 26.73792 2.58419
#
# Velocity S-wave (km/s) = -2.88498 3.21208 0.99858
# Velocity P-wave (km/s) = 1.45912 5.34157 3.91544
#
# Compressibility (1/GPa) = 0.02917425
#
# Stress axis : x y z
#
# Youngs Moduli (GPa) = 109.19382 62.46322 133.11994
#
# Poissons Ratio (x) = 0.04259 0.08622
# Poissons Ratio (y) = 0.07445 0.05631
# Poissons Ratio (z) = 0.07073 0.02642
#
# Static dielectric constant tensor:
#      x y z
#    x 2.080600 0.000000 0.000000 
#    y 0.000000 2.225130 0.000000 
#    z 0.000000 0.000000 2.012170 
# 
# From -- ./inp_files/1600.got.cif
#   From: 2010.05.17/outbox.cif.g08.bks.cpg/sg60_1_cif.got.tgz:1600.got - 2010.06.03 14:59:27.
