data_PCOD9453696
_publ_section_title
;
Structure prediction by ZEFSAII (Michael W. Deem and Ramdas Pophale) SiO2 
 PCOD9453696
Probable space group: P B C N
;
_chemical_formula_sum "Si O2"
_cell_formula_units_Z 48
_cell_length_a 5.133845
_cell_length_b 13.575096
_cell_length_c 28.265267
_cell_angle_alpha 90.000000
_cell_angle_beta 90.000000
_cell_angle_gamma 90.000000
_cell_volume 1969.875388
_symmetry_space_group_name_H-M "P B C N"
_symmetry_group_IT_number 60
_symmetry_cell_setting 'orthorhombic'
loop_
_space_group_symop_operation_xyz
x,y,z
1/2-x,1/2-y,1/2+z
1/2+x,1/2-y,-z
-x,y,1/2-z
-x,-y,-z
1/2+x,1/2+y,1/2-z
1/2-x,1/2+y,z
x,-y,1/2+z
loop_
_atom_site_type_symbol
_atom_site_label
_atom_site_fract_x
_atom_site_fract_y
_atom_site_fract_z
Si Si1 0.810754 0.999612 0.401306
Si Si2 0.000000 0.866860 0.250000
Si Si3 0.687562 0.966019 0.651014
Si Si4 0.066702 0.171056 0.850932
Si Si5 0.901502 0.873913 0.981053
Si Si6 0.000000 0.508323 0.250000
Si Si7 0.601460 0.770335 0.559132
O O1 0.533004 0.041849 0.387921
O O2 0.029295 0.058066 0.370288
O O3 0.853952 0.019700 0.456974
O O4 0.846595 0.889336 0.380851
O O5 0.003927 0.802902 0.297479
O O6 0.753054 0.939411 0.259152
O O7 0.584946 0.933918 0.702375
O O8 0.720334 0.085502 0.656237
O O9 0.149136 0.257080 0.885371
O O10 0.188454 0.840373 0.965557
O O11 0.687967 0.806118 0.953329
O O12 0.853932 0.837490 0.034442
#
# Coordination Sequence:
#
# PCOD9453696 Si02
#       7
#     8   4   8   8   8   4   8
#     4  10  19  33  54  82 108 136 178 227 264 316
#     4  10  18  30  54  81 109 136 172 228 268 320
#     4   9  18  29  52  79 106 134 172 223 265 304
#     4   9  21  33  59  82 109 135 188 221 273 308
#     4  10  22  39  55  78 110 149 182 214 279 322
#     4  10  14  30  46  77 109 136 170 210 270 326
#     4  10  22  38  58  77 109 150 181 221 267 336
#
# _framework density 24.367023
#
# number of rings (size 3 to 8) (size 9 to 14) (size 15 to 20)
#    1.000    1.333    1.667    1.000    2.333    0.667 
#    0.000    0.833    0.000    8.000    0.000    0.000 
#    0.000    0.000    0.000    0.000    0.000    0.000 
#
# Total GULP energy -267488.901168 kJ/mol
# GULP energy per Si atom -5572.685441 kJ/mol
# Density = 2.431156 g / cm^3
# Si number density = 24.367023 Si / 1000 Ang^3
#
#
#
# Elastic Constant Matrix: (Units=GPa)
#
#
# Indices 1 2 3 4 5 6 
#
# 1 98.5058 -9.0280 -9.0141 0.0000 0.0000 0.0000
# 2 -9.0280 48.7357 -21.5065 0.0000 0.0000 0.0000
# 3 -9.0141 -21.5065 128.6424 0.0000 0.0000 0.0000
# 4 0.0000 0.0000 0.0000 19.8136 0.0000 0.0000
# 5 0.0000 0.0000 0.0000 0.0000 29.3235 0.0000
# 6 0.0000 0.0000 0.0000 0.0000 0.0000 14.5028
#
#
#
# Elastic Compliance Matrix: (Units=1/GPa)
#
#
# Indices 1 2 3 4 5 6 
#
# 1 0.010480 0.002446 0.001143 0.000000 0.000000 0.000000
# 2 0.002446 0.022724 0.003970 0.000000 0.000000 0.000000
# 3 0.001143 0.003970 0.008517 0.000000 0.000000 0.000000
# 4 0.000000 0.000000 0.000000 0.050470 0.000000 0.000000
# 5 0.000000 0.000000 0.000000 0.000000 0.034102 0.000000
# 6 0.000000 0.000000 0.000000 0.000000 0.000000 0.068952
#
#
# Mechanical properties :
#
#
# Convention : Reuss Voigt Hill
#
# Bulk Modulus (GPa) = 17.59285 21.86517 19.72901
# Shear Modulus (GPa) = 25.11621 33.75681 29.43651
#
# Velocity S-wave (km/s) = 3.21401 3.72606 3.47947
# Velocity P-wave (km/s) = 4.58353 5.24444 4.92508
#
# Compressibility (1/GPa) = 0.05684127
#
# Stress axis : x y z
#
# Youngs Moduli (GPa) = 95.41542 44.00628 117.40708
#
# Poissons Ratio (x) = -0.10764 -0.13423
# Poissons Ratio (y) = -0.23338 -0.46615
# Poissons Ratio (z) = -0.10909 -0.17472
#
# Static dielectric constant tensor:
#      x y z
#    x 1.885240 0.000000 0.000000 
#    y 0.000000 2.069860 0.000000 
#    z 0.000000 0.000000 2.037940 
# 
# From -- ./inp_files/24935.got.cif
#   From: 2010.05.17/outbox.cif.g08.bks.cpg/sg60_13_cif.got.tgz:24935.got - 2010.06.03 14:59:27.
