data_PCOD9453550
_publ_section_title
;
Structure prediction by ZEFSAII (Michael W. Deem and Ramdas Pophale) SiO2 
 PCOD9453550
Probable space group: P M M N
;
_chemical_formula_sum "Si O2"
_cell_formula_units_Z 56
_cell_length_a 9.000000
_cell_length_b 15.000000
_cell_length_c 21.000000
_cell_angle_alpha 90.000000
_cell_angle_beta 90.000000
_cell_angle_gamma 90.000000
_cell_volume 2835.000000
_symmetry_space_group_name_H-M "P M M N"
_symmetry_group_IT_number 59
_space_group.IT_coordinate_system_code '2'
_symmetry_cell_setting 'orthorhombic'
loop_
_space_group_symop_operation_xyz
x,y,z
1/2-x,1/2-y,z
1/2+x,-y,-z
-x,1/2+y,-z
-x,-y,-z
1/2+x,1/2+y,-z
1/2-x,y,z
x,1/2-y,z
loop_
_atom_site_type_symbol
_atom_site_label
_atom_site_fract_x
_atom_site_fract_y
_atom_site_fract_z
Si Si1 0.928929 0.347233 0.378660
Si Si2 0.071528 0.044021 0.638515
Si Si3 0.073832 0.852561 0.469981
Si Si4 0.074714 0.855838 0.247027
Si Si5 0.426901 0.852311 0.029113
Si Si6 0.427800 0.350625 0.110761
Si Si7 0.427163 0.469891 0.862556
O O1 0.750000 0.345023 0.370903
O O2 0.986708 0.250000 0.356654
O O3 0.977755 0.441465 0.349840
O O4 0.955725 0.354362 0.454537
O O5 0.250000 0.049730 0.646255
O O6 0.024875 0.077995 0.568678
O O7 0.984973 0.108531 0.686059
O O8 0.250000 0.870655 0.460558
O O9 0.046117 0.750000 0.448648
O O10 0.250000 0.875430 0.238887
O O11 0.055597 0.750000 0.241966
O O12 0.979421 0.906853 0.194389
O O13 0.250000 0.868518 0.023439
O O14 0.445620 0.750000 0.053792
O O15 0.501547 0.924376 0.074849
O O16 0.504361 0.855309 0.960428
O O17 0.250000 0.362804 0.108613
O O18 0.458257 0.250000 0.134900
O O19 0.505388 0.431660 0.147038
O O20 0.250000 0.474093 0.868040
#
# Coordination Sequence:
#
# PCOD9453550 Si02
#       7
#     8   8   8   8   8   8   8
#     4   8  16  32  53  78 109 144 181 219 264 323
#     4  11  21  33  54  82 109 140 180 229 279 322
#     4   9  17  31  52  77 108 147 183 216 264 327
#     4  11  25  44  62  79 105 144 186 226 272 332
#     4  10  20  35  57  86 120 155 190 230 278 332
#     4  10  21  38  60  86 117 152 190 231 273 323
#     4  12  24  38  59  85 114 147 185 233 285 334
#
# _framework density 19.753086
#
# number of rings (size 3 to 8) (size 9 to 14) (size 15 to 20)
#    0.000    1.857    0.000    5.571    0.000    6.571 
#    0.000    1.429    0.000    6.000    0.000    0.000 
#    0.000    0.000    0.000    0.000    0.000    0.000 
#
# Total GULP energy -312797.290234 kJ/mol
# GULP energy per Si atom -5585.665897 kJ/mol
# Density = 1.970813 g / cm^3
# Si number density = 19.753086 Si / 1000 Ang^3
#
#
#
# Elastic Constant Matrix: (Units=GPa)
#
#
# Indices 1 2 3 4 5 6 
#
# 1 97.0650 58.8508 8.5138 0.0000 0.0000 0.0000
# 2 58.8508 123.5056 11.5954 0.0000 0.0000 0.0000
# 3 8.5138 11.5954 13.5281 0.0000 0.0000 0.0000
# 4 0.0000 0.0000 0.0000 29.9072 0.0000 0.0000
# 5 0.0000 0.0000 0.0000 0.0000 20.2919 0.0000
# 6 0.0000 0.0000 0.0000 0.0000 0.0000 31.3185
#
#
#
# Elastic Compliance Matrix: (Units=1/GPa)
#
#
# Indices 1 2 3 4 5 6 
#
# 1 0.014640 -0.006646 -0.003517 0.000000 0.000000 0.000000
# 2 -0.006646 0.011822 -0.005951 0.000000 0.000000 0.000000
# 3 -0.003517 -0.005951 0.081234 0.000000 0.000000 0.000000
# 4 0.000000 0.000000 0.000000 0.033437 0.000000 0.000000
# 5 0.000000 0.000000 0.000000 0.000000 0.049281 0.000000
# 6 0.000000 0.000000 0.000000 0.000000 0.000000 0.031930
#
#
# Mechanical properties :
#
#
# Convention : Reuss Voigt Hill
#
# Bulk Modulus (GPa) = 13.25048 43.55763 28.40406
# Shear Modulus (GPa) = 17.87446 26.64609 22.26028
#
# Velocity S-wave (km/s) = 3.01141 3.67680 3.36061
# Velocity P-wave (km/s) = 4.33752 6.33436 5.42854
#
# Compressibility (1/GPa) = 0.07546896
#
# Stress axis : x y z
#
# Youngs Moduli (GPa) = 68.30438 84.58587 12.31008
#
# Poissons Ratio (x) = 0.56215 0.04330
# Poissons Ratio (y) = 0.45395 0.07325
# Poissons Ratio (z) = 0.24025 0.50335
#
# Static dielectric constant tensor:
#      x y z
#    x 1.616840 0.000000 0.000000 
#    y 0.000000 1.728620 0.000000 
#    z 0.000000 0.000000 1.745500 
# 
# From -- ./inp_files/29081.got.cif
#   From: 2010.05.17/outbox.ucp.g08.bks.cvg/sg59_15_cif.got.tgz:29081.got - 2010.06.11 16:43:56.
