data_PCOD9453155
_publ_section_title
;
Structure prediction by ZEFSAII (Michael W. Deem and Ramdas Pophale) SiO2 
 PCOD9453155
Probable space group: P M M N
;
_chemical_formula_sum "Si O2"
_cell_formula_units_Z 48
_cell_length_a 8.740541
_cell_length_b 32.632196
_cell_length_c 9.171923
_cell_angle_alpha 90.000000
_cell_angle_beta 90.000000
_cell_angle_gamma 90.000000
_cell_volume 2616.043825
_symmetry_space_group_name_H-M "P M M N"
_symmetry_group_IT_number 59
_space_group.IT_coordinate_system_code '2'
_symmetry_cell_setting 'orthorhombic'
loop_
_space_group_symop_operation_xyz
x,y,z
1/2-x,1/2-y,z
1/2+x,-y,-z
-x,1/2+y,-z
-x,-y,-z
1/2+x,1/2+y,-z
1/2-x,y,z
x,1/2-y,z
loop_
_atom_site_type_symbol
_atom_site_label
_atom_site_fract_x
_atom_site_fract_y
_atom_site_fract_z
Si Si1 0.565727 0.961474 0.412604
Si Si2 0.932244 0.461767 0.911251
Si Si3 0.066790 0.120713 0.418600
Si Si4 0.932838 0.205547 0.414549
Si Si5 0.934022 0.883931 0.926145
Si Si6 0.565704 0.705843 0.913177
O O1 0.750000 0.963356 0.411801
O O2 0.502349 0.962108 0.249765
O O3 0.519083 0.919232 0.492176
O O4 0.500000 0.000000 0.500000
O O5 0.750000 0.465313 0.904447
O O6 0.000000 0.500000 0.000000
O O7 0.981292 0.419915 0.990814
O O8 0.250000 0.124207 0.425574
O O9 0.028507 0.115025 0.246943
O O10 0.998190 0.163318 0.476876
O O11 0.750000 0.203721 0.415555
O O12 0.980199 0.250000 0.478539
O O13 0.992031 0.205968 0.247436
O O14 0.750000 0.889492 0.940618
O O15 0.975271 0.838030 0.981593
O O16 0.750000 0.704787 0.894961
O O17 0.526056 0.750000 0.983009
#
# Coordination Sequence:
#
# PCOD9453155 Si02
#       6
#     8   8   8   8   8   8
#     4  11  23  40  61  84 109 138 175 219 268 322
#     4  12  25  40  58  80 107 141 180 221 269 321
#     4   9  19  34  54  79 107 140 177 217 262 315
#     4   9  16  25  42  72 107 140 175 216 259 303
#     4   9  17  32  54  81 111 140 176 222 267 314
#     4   8  14  26  46  72 103 139 176 215 260 309
#
# _framework density 18.348316000000001
#
# number of rings (size 3 to 8) (size 9 to 14) (size 15 to 20)
#    0.000    2.333    0.000    4.500    0.000    6.333 
#    0.000    0.000    0.000    1.000    0.000    2.333 
#    0.000    0.000    0.000    0.000    0.000    0.000 
#
# Total GULP energy -267614.550151 kJ/mol
# GULP energy per Si atom -5575.303128 kJ/mol
# Density = 1.830655 g / cm^3
# Si number density = 18.348316 Si / 1000 Ang^3
#
#
#
# Elastic Constant Matrix: (Units=GPa)
#
#
# Indices 1 2 3 4 5 6 
#
# 1 48.5745 63.5015 30.5749 0.0000 0.0000 0.0000
# 2 63.5015 230.2128 73.2550 0.0000 0.0000 0.0000
# 3 30.5749 73.2550 69.5776 0.0000 0.0000 0.0000
# 4 0.0000 0.0000 0.0000 19.0209 0.0000 0.0000
# 5 0.0000 0.0000 0.0000 0.0000 21.6420 0.0000
# 6 0.0000 0.0000 0.0000 0.0000 0.0000 34.5561
#
#
#
# Elastic Compliance Matrix: (Units=1/GPa)
#
#
# Indices 1 2 3 4 5 6 
#
# 1 0.034801 -0.007118 -0.007799 0.000000 0.000000 0.000000
# 2 -0.007118 0.007988 -0.005282 0.000000 0.000000 0.000000
# 3 -0.007799 -0.005282 0.023361 0.000000 0.000000 0.000000
# 4 0.000000 0.000000 0.000000 0.052574 0.000000 0.000000
# 5 0.000000 0.000000 0.000000 0.000000 0.046206 0.000000
# 6 0.000000 0.000000 0.000000 0.000000 0.000000 0.028938
#
#
# Mechanical properties :
#
#
# Convention : Reuss Voigt Hill
#
# Bulk Modulus (GPa) = 38.83181 75.89195 57.36188
# Shear Modulus (GPa) = 20.58876 27.11271 23.85074
#
# Velocity S-wave (km/s) = 3.35342 3.84821 3.60931
# Velocity P-wave (km/s) = 6.01694 7.82283 6.97854
#
# Compressibility (1/GPa) = 0.02575209
#
# Stress axis : x y z
#
# Youngs Moduli (GPa) = 28.73483 125.18664 42.80612
#
# Poissons Ratio (x) = 0.89106 0.33384
# Poissons Ratio (y) = 0.20453 0.22612
# Poissons Ratio (z) = 0.22410 0.66129
#
# Static dielectric constant tensor:
#      x y z
#    x 1.626720 0.000000 0.000000 
#    y 0.000000 1.680500 0.000000 
#    z 0.000000 0.000000 1.602800 
# 
# From -- ./inp_files/6313.got.cif
#   From: 2010.05.17/outbox.cif.g08.bks.cpg/sg59_4_cif.got.tgz:6313.got - 2010.06.03 14:40:33.
