data_PCOD9453563
_publ_section_title
;
Structure prediction by ZEFSAII (Michael W. Deem and Ramdas Pophale) SiO2 
 PCOD9453563
Probable space group: P M M N
;
_chemical_formula_sum "Si O2"
_cell_formula_units_Z 40
_cell_length_a 9.000000
_cell_length_b 15.000000
_cell_length_c 15.000000
_cell_angle_alpha 90.000000
_cell_angle_beta 90.000000
_cell_angle_gamma 90.000000
_cell_volume 2025.000000
_symmetry_space_group_name_H-M "P M M N"
_symmetry_group_IT_number 59
_space_group.IT_coordinate_system_code '2'
_symmetry_cell_setting 'orthorhombic'
loop_
_space_group_symop_operation_xyz
x,y,z
1/2-x,1/2-y,z
1/2+x,-y,-z
-x,1/2+y,-z
-x,-y,-z
1/2+x,1/2+y,-z
1/2-x,y,z
x,1/2-y,z
loop_
_atom_site_type_symbol
_atom_site_label
_atom_site_fract_x
_atom_site_fract_y
_atom_site_fract_z
Si Si1 0.572668 0.595951 0.480152
Si Si2 0.073282 0.402266 0.987444
Si Si3 0.431662 0.250000 0.660724
Si Si4 0.086158 0.145995 0.322112
Si Si5 0.912468 0.354950 0.160158
Si Si6 0.068783 0.750000 0.139147
O O1 0.500000 0.500000 0.500000
O O2 0.750000 0.583844 0.469751
O O3 0.526959 0.661739 0.398796
O O4 0.545076 0.643741 0.574701
O O5 0.250000 0.405603 0.970923
O O6 0.994194 0.337218 0.914694
O O7 0.000000 0.500000 0.000000
O O8 0.035615 0.362954 0.084529
O O9 0.250000 0.250000 0.669669
O O10 0.507197 0.250000 0.758705
O O11 0.250000 0.104389 0.312079
O O12 0.099010 0.250000 0.298658
O O13 0.970212 0.104673 0.253049
O O14 0.750000 0.391867 0.133717
O O15 0.892101 0.250000 0.172871
O O16 0.250000 0.750000 0.136896
#
# Coordination Sequence:
#
# PCOD9453563 Si02
#       6
#     8   8   4   8   8   4
#     4  10  21  38  62  90 123 164 214 268 322 386
#     4  12  25  43  68  96 128 171 218 270 329 392
#     4  10  22  44  67  90 127 180 227 268 330 402
#     4   9  17  33  57  83 113 153 199 245 303 371
#     4  10  20  35  58  89 124 157 196 250 310 375
#     4  12  26  46  69  98 135 176 225 278 332 402
#
# _framework density 19.753086
#
# number of rings (size 3 to 8) (size 9 to 14) (size 15 to 20)
#    0.000    1.600    2.000    3.300    0.000    4.000 
#    0.000    4.000    0.000    0.000    0.000    0.000 
#    0.000    0.000    0.000    0.000    0.000    0.000 
#
# Total GULP energy -222751.226020 kJ/mol
# GULP energy per Si atom -5568.780650 kJ/mol
# Density = 1.970813 g / cm^3
# Si number density = 19.753086 Si / 1000 Ang^3
#
#
#
# Elastic Constant Matrix: (Units=GPa)
#
#
# Indices 1 2 3 4 5 6 
#
# 1 117.1482 53.3163 69.4322 0.0000 0.0000 0.0000
# 2 53.3163 108.1671 51.8068 0.0000 0.0000 0.0000
# 3 69.4322 51.8068 138.2260 0.0000 0.0000 0.0000
# 4 0.0000 0.0000 0.0000 -2.1423 0.0000 0.0000
# 5 0.0000 0.0000 0.0000 0.0000 29.8292 0.0000
# 6 0.0000 0.0000 0.0000 0.0000 0.0000 29.7236
#
#
#
# Elastic Compliance Matrix: (Units=1/GPa)
#
#
# Indices 1 2 3 4 5 6 
#
# 1 0.013536 -0.004163 -0.005239 0.000000 0.000000 0.000000
# 2 -0.004163 0.012548 -0.002612 0.000000 0.000000 0.000000
# 3 -0.005239 -0.002612 0.010845 0.000000 0.000000 0.000000
# 4 0.000000 0.000000 0.000000 -0.466779 0.000000 0.000000
# 5 0.000000 0.000000 0.000000 0.000000 0.033524 0.000000
# 6 0.000000 0.000000 0.000000 0.000000 0.000000 0.033643
#
#
# Mechanical properties :
#
#
# Convention : Reuss Voigt Hill
#
# Bulk Modulus (GPa) = 77.51070 79.18353 78.34712
# Shear Modulus (GPa) = -14.95416 24.08116 4.56350
#
# Velocity S-wave (km/s) = -2.75445 3.49536 1.52161
# Velocity P-wave (km/s) = 5.40454 7.51424 6.54495
#
# Compressibility (1/GPa) = 0.01290144
#
# Stress axis : x y z
#
# Youngs Moduli (GPa) = 73.87825 79.69571 92.20778
#
# Poissons Ratio (x) = 0.33175 0.48308
# Poissons Ratio (y) = 0.30753 0.24084
# Poissons Ratio (z) = 0.38705 0.20816
#
# Static dielectric constant tensor:
#      x y z
#    x 1.743400 0.000000 0.000000 
#    y 0.000000 2.972970 0.000000 
#    z 0.000000 0.000000 1.713740 
# 
# From -- ./inp_files/20015.got.cif
#   From: 2010.05.17/outbox.ucp.g08.bks.cvg/sg59_11_cif.got.tgz:20015.got - 2010.06.11 16:43:56.
