data_PCOD9453436
_publ_section_title
;
Structure prediction by ZEFSAII (Michael W. Deem and Ramdas Pophale) SiO2 
 PCOD9453436
Probable space group: P M M N
;
_chemical_formula_sum "Si O2"
_cell_formula_units_Z 64
_cell_length_a 24.000000
_cell_length_b 9.000000
_cell_length_c 15.000000
_cell_angle_alpha 90.000000
_cell_angle_beta 90.000000
_cell_angle_gamma 90.000000
_cell_volume 3240.000000
_symmetry_space_group_name_H-M "P M M N"
_symmetry_group_IT_number 59
_space_group.IT_coordinate_system_code '2'
_symmetry_cell_setting 'orthorhombic'
loop_
_space_group_symop_operation_xyz
x,y,z
1/2-x,1/2-y,z
1/2+x,-y,-z
-x,1/2+y,-z
-x,-y,-z
1/2+x,1/2+y,-z
1/2-x,y,z
x,1/2-y,z
loop_
_atom_site_type_symbol
_atom_site_label
_atom_site_fract_x
_atom_site_fract_y
_atom_site_fract_z
Si Si1 0.559440 0.073611 0.974236
Si Si2 0.029753 0.921926 0.744060
Si Si3 0.685591 0.920907 0.296424
Si Si4 0.810339 0.574977 0.667866
Si Si5 0.953414 0.080813 0.446863
Si Si6 0.829621 0.420128 0.485196
Si Si7 0.107649 0.425357 0.864702
Si Si8 0.592660 0.576696 0.791513
O O1 0.553300 0.250000 0.978283
O O2 0.605521 0.016174 0.044688
O O3 0.500000 0.000000 0.000000
O O4 0.579306 0.015901 0.878869
O O5 0.046647 0.750000 0.764881
O O6 0.055909 0.978063 0.652353
O O7 0.963784 0.922588 0.734207
O O8 0.048703 0.033670 0.819742
O O9 0.750000 0.920145 0.269789
O O10 0.667804 0.750000 0.313286
O O11 0.650633 0.976796 0.211717
O O12 0.682025 0.008364 0.389237
O O13 0.750000 0.556769 0.711035
O O14 0.821501 0.750000 0.656003
O O15 0.808082 0.505433 0.570432
O O16 0.857917 0.514553 0.731703
O O17 0.970994 0.250000 0.432305
O O18 0.895915 0.076952 0.497249
O O19 0.000000 0.000000 0.500000
O O20 0.811554 0.250000 0.483919
O O21 0.114073 0.250000 0.880158
O O22 0.603926 0.750000 0.816119
#
# Coordination Sequence:
#
# PCOD9453436 Si02
#       8
#     8   8   8   8   8   8   8   8
#     4  12  24  39  62  91 122 154 190 236 291 355
#     4  10  19  34  55  80 116 153 186 236 294 350
#     4  10  22  40  61  86 117 156 202 247 291 345
#     4  10  22  41  63  86 116 158 205 248 291 341
#     4  10  21  34  50  78 116 157 197 239 292 350
#     4  11  22  36  57  87 120 157 201 247 294 347
#     4  11  22  37  60  88 117 152 193 240 289 343
#     4  10  21  38  62  89 117 154 197 244 295 347
#
# _framework density 19.753086
#
# number of rings (size 3 to 8) (size 9 to 14) (size 15 to 20)
#    0.000    1.500    2.500    3.000    0.000    5.500 
#    0.000    0.625    0.000    3.750    0.000    0.000 
#    0.000    0.000    0.000    0.000    0.000    0.000 
#
# Total GULP energy -356819.548219 kJ/mol
# GULP energy per Si atom -5575.305441 kJ/mol
# Density = 1.970813 g / cm^3
# Si number density = 19.753086 Si / 1000 Ang^3
#
#
#
# Elastic Constant Matrix: (Units=GPa)
#
#
# Indices 1 2 3 4 5 6 
#
# 1 88.9132 41.1742 66.8943 0.0000 0.0000 0.0000
# 2 41.1742 51.7307 32.5124 0.0000 0.0000 0.0000
# 3 66.8943 32.5124 95.2382 0.0000 0.0000 0.0000
# 4 0.0000 0.0000 0.0000 29.4242 0.0000 0.0000
# 5 0.0000 0.0000 0.0000 0.0000 -14.7124 0.0000
# 6 0.0000 0.0000 0.0000 0.0000 0.0000 7.8423
#
#
#
# Elastic Compliance Matrix: (Units=1/GPa)
#
#
# Indices 1 2 3 4 5 6 
#
# 1 0.029717 -0.013412 -0.016294 0.000000 0.000000 0.000000
# 2 -0.013412 0.030664 -0.001048 0.000000 0.000000 0.000000
# 3 -0.016294 -0.001048 0.022303 0.000000 0.000000 0.000000
# 4 0.000000 0.000000 0.000000 0.033986 0.000000 0.000000
# 5 0.000000 0.000000 0.000000 0.000000 -0.067970 0.000000
# 6 0.000000 0.000000 0.000000 0.000000 0.000000 0.127513
#
#
# Mechanical properties :
#
#
# Convention : Reuss Voigt Hill
#
# Bulk Modulus (GPa) = 47.22341 57.44931 52.33636
# Shear Modulus (GPa) = 20.42660 10.86425 15.64542
#
# Velocity S-wave (km/s) = 3.21923 2.34776 2.81739
# Velocity P-wave (km/s) = 6.14627 6.04120 6.09396
#
# Compressibility (1/GPa) = 0.02117594
#
# Stress axis : x y z
#
# Youngs Moduli (GPa) = 33.65117 32.61115 44.83783
#
# Poissons Ratio (x) = 0.43737 0.73060
# Poissons Ratio (y) = 0.45132 0.04699
# Poissons Ratio (z) = 0.54832 0.03418
#
# Static dielectric constant tensor:
#      x y z
#    x 1.782830 0.000000 0.000000 
#    y 0.000000 1.692180 0.000000 
#    z 0.000000 0.000000 2.162630 
# 
# From -- ./inp_files/24748.got.cif
#   From: 2010.05.17/outbox.ucp.g08.bks.cvg/sg59_13_cif.got.tgz:24748.got - 2010.06.11 16:43:56.
