data_PCOD9453393
_publ_section_title
;
Structure prediction by ZEFSAII (Michael W. Deem and Ramdas Pophale) SiO2 
 PCOD9453393
Probable space group: P M M N
;
_chemical_formula_sum "Si O2"
_cell_formula_units_Z 48
_cell_length_a 9.000000
_cell_length_b 30.000000
_cell_length_c 9.000000
_cell_angle_alpha 90.000000
_cell_angle_beta 90.000000
_cell_angle_gamma 90.000000
_cell_volume 2430.000000
_symmetry_space_group_name_H-M "P M M N"
_symmetry_group_IT_number 59
_space_group.IT_coordinate_system_code '2'
_symmetry_cell_setting 'orthorhombic'
loop_
_space_group_symop_operation_xyz
x,y,z
1/2-x,1/2-y,z
1/2+x,-y,-z
-x,1/2+y,-z
-x,-y,-z
1/2+x,1/2+y,-z
1/2-x,y,z
x,1/2-y,z
loop_
_atom_site_type_symbol
_atom_site_label
_atom_site_fract_x
_atom_site_fract_y
_atom_site_fract_z
Si Si1 0.071797 0.700988 0.513137
Si Si2 0.581439 0.560792 0.400355
Si Si3 0.584169 0.022973 0.864051
Si Si4 0.928933 0.108398 0.340278
Si Si5 0.416800 0.619179 0.989462
Si Si6 0.082408 0.159151 0.755765
O O1 0.250000 0.701298 0.517258
O O2 0.018267 0.750000 0.560203
O O3 0.023861 0.658116 0.608344
O O4 0.018399 0.689895 0.347293
O O5 0.750000 0.547100 0.427009
O O6 0.496875 0.571849 0.551375
O O7 0.583443 0.609464 0.318081
O O8 0.502791 0.526040 0.290616
O O9 0.750000 0.004477 0.846993
O O10 0.596311 0.074432 0.914674
O O11 0.500000 0.000000 0.000000
O O12 0.750000 0.105251 0.350816
O O13 0.974968 0.104332 0.170211
O O14 0.250000 0.637715 0.969244
O O15 0.517760 0.652798 0.080509
O O16 0.250000 0.175683 0.756120
#
# Coordination Sequence:
#
# PCOD9453393 Si02
#       6
#     8   8   8   8   8   8
#     4   9  17  30  49  71  94 122 156 192 230 274
#     4   9  17  30  48  70  94 123 159 194 231 280
#     4  10  19  32  50  71  95 124 159 200 244 287
#     4   9  17  31  50  71  96 126 159 194 234 282
#     4   9  18  32  50  71  96 125 157 195 239 286
#     4   9  17  29  47  69  93 122 156 192 228 271
#
# _framework density 19.753086
#
# number of rings (size 3 to 8) (size 9 to 14) (size 15 to 20)
#    0.000    2.833    0.000    1.500    0.000    5.667 
#    0.000    1.667    0.000    3.000    0.000    0.000 
#    0.000    0.000    0.000    0.000    0.000    0.000 
#
# Total GULP energy -267468.663929 kJ/mol
# GULP energy per Si atom -5572.263832 kJ/mol
# Density = 1.970813 g / cm^3
# Si number density = 19.753086 Si / 1000 Ang^3
#
#
#
# Elastic Constant Matrix: (Units=GPa)
#
#
# Indices 1 2 3 4 5 6 
#
# 1 38.5980 16.5136 26.8695 0.0000 0.0000 0.0000
# 2 16.5136 36.4513 3.3348 0.0000 0.0000 0.0000
# 3 26.8695 3.3348 100.7752 0.0000 0.0000 0.0000
# 4 0.0000 0.0000 0.0000 12.2574 0.0000 0.0000
# 5 0.0000 0.0000 0.0000 0.0000 8.9559 0.0000
# 6 0.0000 0.0000 0.0000 0.0000 0.0000 11.9074
#
#
#
# Elastic Compliance Matrix: (Units=1/GPa)
#
#
# Indices 1 2 3 4 5 6 
#
# 1 0.040459 -0.017395 -0.010212 0.000000 0.000000 0.000000
# 2 -0.017395 0.034996 0.003480 0.000000 0.000000 0.000000
# 3 -0.010212 0.003480 0.012531 0.000000 0.000000 0.000000
# 4 0.000000 0.000000 0.000000 0.081583 0.000000 0.000000
# 5 0.000000 0.000000 0.000000 0.000000 0.111658 0.000000
# 6 0.000000 0.000000 0.000000 0.000000 0.000000 0.083982
#
#
# Mechanical properties :
#
#
# Convention : Reuss Voigt Hill
#
# Bulk Modulus (GPa) = 25.16873 29.91781 27.54327
# Shear Modulus (GPa) = 11.71764 15.23124 13.47444
#
# Velocity S-wave (km/s) = 2.43822 2.77985 2.61462
# Velocity P-wave (km/s) = 4.54928 5.04799 4.80511
#
# Compressibility (1/GPa) = 0.03973184
#
# Stress axis : x y z
#
# Youngs Moduli (GPa) = 24.71626 28.57471 79.80391
#
# Poissons Ratio (x) = 0.49706 0.81495
# Poissons Ratio (y) = 0.42994 -0.27771
# Poissons Ratio (z) = 0.25240 -0.09944
#
# Static dielectric constant tensor:
#      x y z
#    x 1.700810 0.000000 0.000000 
#    y 0.000000 1.705090 0.000000 
#    z 0.000000 0.000000 1.704510 
# 
# From -- ./inp_files/6268.got.cif
#   From: 2010.05.17/outbox.ucp.g08.bks.cvg/sg59_4_cif.got.tgz:6268.got - 2010.06.11 16:43:56.
