data_PCOD9453865
_publ_section_title
;
Structure prediction by ZEFSAII (Michael W. Deem and Ramdas Pophale) SiO2 
 PCOD9453865
Probable space group: P B C N
;
_chemical_formula_sum "Si O2"
_cell_formula_units_Z 32
_cell_length_a 15.884130
_cell_length_b 11.170480
_cell_length_c 9.182632
_cell_angle_alpha 90.000000
_cell_angle_beta 90.000000
_cell_angle_gamma 90.000000
_cell_volume 1629.305217
_symmetry_space_group_name_H-M "P B C N"
_symmetry_group_IT_number 60
_symmetry_cell_setting 'orthorhombic'
loop_
_space_group_symop_operation_xyz
x,y,z
1/2-x,1/2-y,1/2+z
1/2+x,1/2-y,-z
-x,y,1/2-z
-x,-y,-z
1/2+x,1/2+y,1/2-z
1/2-x,1/2+y,z
x,-y,1/2+z
loop_
_atom_site_type_symbol
_atom_site_label
_atom_site_fract_x
_atom_site_fract_y
_atom_site_fract_z
Si Si1 0.113214 0.664208 0.043329
Si Si2 0.662373 0.002257 0.201243
Si Si3 0.266942 0.624486 0.552994
Si Si4 0.954803 0.095629 0.903157
O O1 0.114551 0.596983 0.197216
O O2 0.203236 0.737224 0.035236
O O3 0.045225 0.769197 0.035588
O O4 0.106854 0.572084 0.912231
O O5 0.705024 0.909702 0.315333
O O6 0.729062 0.071310 0.096267
O O7 0.355778 0.564560 0.598286
O O8 0.000000 0.096733 0.750000
O O9 0.000000 0.000000 0.000000
#
# Coordination Sequence:
#
# PCOD9453865 Si02
#       4
#     8   8   8   8
#     4   9  21  31  58  78 114 145 176 237 276 331
#     4  10  17  36  51  90 107 138 187 226 297 326
#     4   9  19  31  59  78 114 138 181 231 280 331
#     4  10  21  38  53  80 110 146 190 220 272 334
#
# _framework density 19.640274000000002
#
# number of rings (size 3 to 8) (size 9 to 14) (size 15 to 20)
#    1.500    1.000    0.000    3.000    0.000    0.000 
#    0.000    3.750    0.000    0.000    0.000    0.000 
#    0.000    0.000    0.000    0.000    0.000    0.000 
#
# Total GULP energy -178167.316766 kJ/mol
# GULP energy per Si atom -5567.728649 kJ/mol
# Density = 1.959557 g / cm^3
# Si number density = 19.640274 Si / 1000 Ang^3
#
#
#
# Elastic Constant Matrix: (Units=GPa)
#
#
# Indices 1 2 3 4 5 6 
#
# 1 25.8822 16.6849 5.3156 0.0000 0.0000 0.0000
# 2 16.6849 122.4221 56.5238 0.0000 0.0000 0.0000
# 3 5.3156 56.5238 88.5651 0.0000 0.0000 0.0000
# 4 0.0000 0.0000 0.0000 37.1704 0.0000 0.0000
# 5 0.0000 0.0000 0.0000 0.0000 12.1696 0.0000
# 6 0.0000 0.0000 0.0000 0.0000 0.0000 82.8114
#
#
#
# Elastic Compliance Matrix: (Units=1/GPa)
#
#
# Indices 1 2 3 4 5 6 
#
# 1 0.042523 -0.006546 0.001626 0.000000 0.000000 0.000000
# 2 -0.006546 0.012589 -0.007642 0.000000 0.000000 0.000000
# 3 0.001626 -0.007642 0.016071 0.000000 0.000000 0.000000
# 4 0.000000 0.000000 0.000000 0.026903 0.000000 0.000000
# 5 0.000000 0.000000 0.000000 0.000000 0.082172 0.000000
# 6 0.000000 0.000000 0.000000 0.000000 0.000000 0.012076
#
#
# Mechanical properties :
#
#
# Convention : Reuss Voigt Hill
#
# Bulk Modulus (GPa) = 21.71169 43.76867 32.74018
# Shear Modulus (GPa) = 21.47680 36.98659 29.23169
#
# Velocity S-wave (km/s) = 3.31041 4.34429 3.86211
# Velocity P-wave (km/s) = 5.06857 6.89184 6.04929
#
# Compressibility (1/GPa) = 0.04605814
#
# Stress axis : x y z
#
# Youngs Moduli (GPa) = 23.51689 79.43579 62.22580
#
# Poissons Ratio (x) = 0.51998 -0.10115
# Poissons Ratio (y) = 0.15394 0.47550
# Poissons Ratio (z) = -0.03823 0.60701
#
# Static dielectric constant tensor:
#      x y z
#    x 1.736170 0.000000 0.000000 
#    y 0.000000 1.717200 0.000000 
#    z 0.000000 0.000000 1.640870 
# 
# From -- ./inp_files/6477.got.cif
#   From: 2010.05.17/outbox.cif.g08.bks.cpg/sg60_4_cif.got.tgz:6477.got - 2010.06.03 14:59:27.
