data_PCOD9453359
_publ_section_title
;
Structure prediction by ZEFSAII (Michael W. Deem and Ramdas Pophale) SiO2 
 PCOD9453359
Probable space group: P M M N
;
_chemical_formula_sum "Si O2"
_cell_formula_units_Z 48
_cell_length_a 27.000000
_cell_length_b 9.000000
_cell_length_c 12.000000
_cell_angle_alpha 90.000000
_cell_angle_beta 90.000000
_cell_angle_gamma 90.000000
_cell_volume 2916.000000
_symmetry_space_group_name_H-M "P M M N"
_symmetry_group_IT_number 59
_space_group.IT_coordinate_system_code '2'
_symmetry_cell_setting 'orthorhombic'
loop_
_space_group_symop_operation_xyz
x,y,z
1/2-x,1/2-y,z
1/2+x,-y,-z
-x,1/2+y,-z
-x,-y,-z
1/2+x,1/2+y,-z
1/2-x,y,z
x,1/2-y,z
loop_
_atom_site_type_symbol
_atom_site_label
_atom_site_fract_x
_atom_site_fract_y
_atom_site_fract_z
Si Si1 0.570250 0.427478 0.299817
Si Si2 0.693095 0.429715 0.669337
Si Si3 0.948930 0.429836 0.044280
Si Si4 0.627102 0.576835 0.485356
Si Si5 0.540234 0.923174 0.662946
Si Si6 0.390546 0.927703 0.163501
O O1 0.577856 0.250000 0.306140
O O2 0.613540 0.507550 0.366813
O O3 0.516794 0.461644 0.355262
O O4 0.563729 0.470744 0.170891
O O5 0.750000 0.474792 0.681400
O O6 0.691041 0.250000 0.665340
O O7 0.668582 0.492940 0.557081
O O8 0.658695 0.481753 0.772875
O O9 0.954125 0.250000 0.040842
O O10 0.904754 0.475762 0.960572
O O11 0.000000 0.500000 0.000000
O O12 0.639289 0.750000 0.476748
O O13 0.576879 0.562182 0.559082
O O14 0.541309 0.750000 0.698933
O O15 0.563823 0.022028 0.759545
O O16 0.387653 0.750000 0.162361
#
# Coordination Sequence:
#
# PCOD9453359 Si02
#       6
#     8   8   8   8   8   8
#     4  10  19  30  44  64  97 136 166 194 232 282
#     4   9  18  34  55  74  93 119 152 196 251 299
#     4  10  19  30  46  68  98 134 167 199 234 280
#     4  10  20  31  46  70  96 123 160 202 241 284
#     4   9  17  29  44  65  95 129 161 195 236 281
#     4   9  17  29  47  72  96 122 160 202 239 281
#
# _framework density 16.460905
#
# number of rings (size 3 to 8) (size 9 to 14) (size 15 to 20)
#    0.000    2.500    1.667    1.000    0.000    2.333 
#    0.000    0.000    0.000    1.000    0.000    4.667 
#    0.000    0.000    0.000    0.000    0.000    0.000 
#
# Total GULP energy -267390.918300 kJ/mol
# GULP energy per Si atom -5570.644131 kJ/mol
# Density = 1.642344 g / cm^3
# Si number density = 16.460905 Si / 1000 Ang^3
#
#
#
# Elastic Constant Matrix: (Units=GPa)
#
#
# Indices 1 2 3 4 5 6 
#
# 1 98.5759 25.2663 45.4186 0.0000 0.0000 0.0000
# 2 25.2663 7.8280 28.5292 0.0000 0.0000 0.0000
# 3 45.4186 28.5292 82.0432 0.0000 0.0000 0.0000
# 4 0.0000 0.0000 0.0000 15.7195 0.0000 0.0000
# 5 0.0000 0.0000 0.0000 0.0000 12.3247 0.0000
# 6 0.0000 0.0000 0.0000 0.0000 0.0000 18.9463
#
#
#
# Elastic Compliance Matrix: (Units=1/GPa)
#
#
# Indices 1 2 3 4 5 6 
#
# 1 0.008598 0.038919 -0.018293 0.000000 0.000000 0.000000
# 2 0.038919 -0.301700 0.083366 0.000000 0.000000 0.000000
# 3 -0.018293 0.083366 -0.006674 0.000000 0.000000 0.000000
# 4 0.000000 0.000000 0.000000 0.063615 0.000000 0.000000
# 5 0.000000 0.000000 0.000000 0.000000 0.081138 0.000000
# 6 0.000000 0.000000 0.000000 0.000000 0.000000 0.052781
#
#
# Mechanical properties :
#
#
# Convention : Reuss Voigt Hill
#
# Bulk Modulus (GPa) = -10.89418 42.98614 16.04598
# Shear Modulus (GPa) = -14.67036 15.34695 0.33829
#
# Velocity S-wave (km/s) = -2.98858 3.05672 0.45383
# Velocity P-wave (km/s) = 4.30597 6.21521 3.16918
#
# Compressibility (1/GPa) = -0.09179214
#
# Stress axis : x y z
#
# Youngs Moduli (GPa) = 116.31253 -3.31455 -149.84181
#
# Poissons Ratio (x) = 0.12900 -2.74104
# Poissons Ratio (y) = -4.52673 12.49174
# Poissons Ratio (z) = 2.12769 0.27632
#
# Static dielectric constant tensor:
#      x y z
#    x 1.541250 0.000000 0.000000 
#    y 0.000000 1.553250 0.000000 
#    z 0.000000 0.000000 1.572860 
# 
# From -- ./inp_files/14320.got.cif
#   From: 2010.05.17/outbox.ucp.g08.bks.cvg/sg59_8_cif.got.tgz:14320.got - 2010.06.11 16:43:56.
