data_PCOD9453087
_publ_section_title
;
Structure prediction by ZEFSAII (Michael W. Deem and Ramdas Pophale) SiO2 
 PCOD9453087
Probable space group: P M M N
;
_chemical_formula_sum "Si O2"
_cell_formula_units_Z 56
_cell_length_a 22.959862
_cell_length_b 14.056897
_cell_length_c 9.000480
_cell_angle_alpha 90.000000
_cell_angle_beta 90.000000
_cell_angle_gamma 90.000000
_cell_volume 2904.854655
_symmetry_space_group_name_H-M "P M M N"
_symmetry_group_IT_number 59
_space_group.IT_coordinate_system_code '2'
_symmetry_cell_setting 'orthorhombic'
loop_
_space_group_symop_operation_xyz
x,y,z
1/2-x,1/2-y,z
1/2+x,-y,-z
-x,1/2+y,-z
-x,-y,-z
1/2+x,1/2+y,-z
1/2-x,y,z
x,1/2-y,z
loop_
_atom_site_type_symbol
_atom_site_label
_atom_site_fract_x
_atom_site_fract_y
_atom_site_fract_z
Si Si1 0.049740 0.857674 0.712766
Si Si2 0.932609 0.553375 0.755637
Si Si3 0.181619 0.138817 0.738682
Si Si4 0.183091 0.135641 0.387575
Si Si5 0.682514 0.359402 0.851626
Si Si6 0.084058 0.857542 0.378353
Si Si7 0.608033 0.498914 0.058511
O O1 0.060147 0.750000 0.763105
O O2 0.081261 0.870852 0.554514
O O3 0.071586 0.932511 0.832396
O O4 0.981023 0.876043 0.692905
O O5 0.868385 0.583836 0.700038
O O6 0.947495 0.446961 0.697736
O O7 0.930518 0.550766 0.933630
O O8 0.250000 0.126275 0.773289
O O9 0.167337 0.250000 0.759530
O O10 0.174584 0.116990 0.563418
O O11 0.143422 0.073135 0.842908
O O12 0.250000 0.108356 0.347952
O O13 0.178814 0.250000 0.365685
O O14 0.750000 0.382442 0.833852
O O15 0.677649 0.250000 0.905915
O O16 0.647903 0.362041 0.695691
O O17 0.651101 0.430710 0.964165
O O18 0.061272 0.750000 0.347003
#
# Coordination Sequence:
#
# PCOD9453087 Si02
#       7
#     8   8   8   8   8   8   8
#     4  11  23  40  58  79 111 149 190 233 278 332
#     4  11  22  37  59  84 112 147 189 231 280 336
#     4   9  19  36  57  83 117 152 185 227 281 339
#     4   9  19  37  60  85 112 143 183 234 287 336
#     4   9  18  35  58  83 111 144 184 229 278 330
#     4   9  20  37  58  82 109 143 184 233 280 325
#     4  11  22  36  54  82 114 150 185 226 277 333
#
# _framework density 19.278072000000002
#
# number of rings (size 3 to 8) (size 9 to 14) (size 15 to 20)
#    0.000    2.143    0.000    3.857    0.000    4.571 
#    0.000    5.000    0.000    3.429    0.000    0.000 
#    0.000    0.000    0.000    0.000    0.000    0.000 
#
# Total GULP energy -312567.108936 kJ/mol
# GULP energy per Si atom -5581.555517 kJ/mol
# Density = 1.923419 g / cm^3
# Si number density = 19.278072 Si / 1000 Ang^3
#
#
#
# Elastic Constant Matrix: (Units=GPa)
#
#
# Indices 1 2 3 4 5 6 
#
# 1 72.8639 29.9977 42.4391 0.0000 0.0000 0.0000
# 2 29.9977 64.9005 41.4688 0.0000 0.0000 0.0000
# 3 42.4391 41.4688 78.6921 0.0000 0.0000 0.0000
# 4 0.0000 0.0000 0.0000 30.2398 0.0000 0.0000
# 5 0.0000 0.0000 0.0000 0.0000 15.2432 0.0000
# 6 0.0000 0.0000 0.0000 0.0000 0.0000 31.5993
#
#
#
# Elastic Compliance Matrix: (Units=1/GPa)
#
#
# Indices 1 2 3 4 5 6 
#
# 1 0.020567 -0.003647 -0.009170 0.000000 0.000000 0.000000
# 2 -0.003647 0.023877 -0.010616 0.000000 0.000000 0.000000
# 3 -0.009170 -0.010616 0.023247 0.000000 0.000000 0.000000
# 4 0.000000 0.000000 0.000000 0.033069 0.000000 0.000000
# 5 0.000000 0.000000 0.000000 0.000000 0.065603 0.000000
# 6 0.000000 0.000000 0.000000 0.000000 0.000000 0.031646
#
#
# Mechanical properties :
#
#
# Convention : Reuss Voigt Hill
#
# Bulk Modulus (GPa) = 48.01735 49.36308 48.69022
# Shear Modulus (GPa) = 19.85579 22.25319 21.05449
#
# Velocity S-wave (km/s) = 3.21279 3.40122 3.30835
# Velocity P-wave (km/s) = 6.22291 6.40982 6.31706
#
# Compressibility (1/GPa) = 0.02082580
#
# Stress axis : x y z
#
# Youngs Moduli (GPa) = 48.62271 41.88159 43.01568
#
# Poissons Ratio (x) = 0.15274 0.39445
# Poissons Ratio (y) = 0.17732 0.45664
# Poissons Ratio (z) = 0.44586 0.44460
#
# Static dielectric constant tensor:
#      x y z
#    x 1.664270 0.000000 0.000000 
#    y 0.000000 1.686620 0.000000 
#    z 0.000000 0.000000 1.646650 
# 
# From -- ./inp_files/11457.got.cif
#   From: 2010.05.17/outbox.cif.g08.bks.cpg/sg59_6_cif.got.tgz:11457.got - 2010.06.03 14:40:33.
