data_PCOD9453506
_publ_section_title
;
Structure prediction by ZEFSAII (Michael W. Deem and Ramdas Pophale) SiO2 
 PCOD9453506
Probable space group: P M M N
;
_chemical_formula_sum "Si O2"
_cell_formula_units_Z 48
_cell_length_a 9.000000
_cell_length_b 9.000000
_cell_length_c 30.000000
_cell_angle_alpha 90.000000
_cell_angle_beta 90.000000
_cell_angle_gamma 90.000000
_cell_volume 2430.000000
_symmetry_space_group_name_H-M "P M M N"
_symmetry_group_IT_number 59
_space_group.IT_coordinate_system_code '2'
_symmetry_cell_setting 'orthorhombic'
loop_
_space_group_symop_operation_xyz
x,y,z
1/2-x,1/2-y,z
1/2+x,-y,-z
-x,1/2+y,-z
-x,-y,-z
1/2+x,1/2+y,-z
1/2-x,y,z
x,1/2-y,z
loop_
_atom_site_type_symbol
_atom_site_label
_atom_site_fract_x
_atom_site_fract_y
_atom_site_fract_z
Si Si1 0.075624 0.916363 0.460019
Si Si2 0.419596 0.927391 0.617103
Si Si3 0.423832 0.914886 0.039495
Si Si4 0.569169 0.417565 0.281931
Si Si5 0.570688 0.911220 0.200061
Si Si6 0.081185 0.923007 0.885701
O O1 0.250000 0.913208 0.467398
O O2 0.017281 0.750000 0.457673
O O3 0.000000 0.000000 0.500000
O O4 0.034125 0.999608 0.415430
O O5 0.250000 0.979467 0.608871
O O6 0.418110 0.750000 0.611363
O O7 0.462984 0.957788 0.667694
O O8 0.250000 0.910213 0.031551
O O9 0.485207 0.750000 0.041685
O O10 0.462903 0.996244 0.084503
O O11 0.500000 0.000000 0.000000
O O12 0.750000 0.412826 0.279032
O O13 0.517670 0.250000 0.272109
O O14 0.512107 0.537246 0.247357
O O15 0.750000 0.900888 0.203289
O O16 0.515521 0.750000 0.185319
O O17 0.544548 0.039935 0.164877
O O18 0.250000 0.978563 0.894846
O O19 0.080546 0.750000 0.894879
#
# Coordination Sequence:
#
# PCOD9453506 Si02
#       6
#     8   8   8   8   8   8
#     4  11  24  39  55  77 104 134 171 214 260 312
#     4   9  18  33  54  80 108 138 174 215 259 308
#     4  11  24  40  58  81 108 138 174 216 263 315
#     4   8  14  26  45  71 104 138 171 211 257 304
#     4   9  16  26  44  73 107 141 177 217 260 305
#     4  10  20  34  54  80 109 142 180 220 263 311
#
# _framework density 19.753086
#
# number of rings (size 3 to 8) (size 9 to 14) (size 15 to 20)
#    0.000    2.333    0.000    4.000    0.000   10.667 
#    0.000    1.667    0.000    1.000    0.000    4.667 
#    0.000    0.000    0.000    0.000    0.000    0.000 
#
# Total GULP energy -267372.596830 kJ/mol
# GULP energy per Si atom -5570.262434 kJ/mol
# Density = 1.970813 g / cm^3
# Si number density = 19.753086 Si / 1000 Ang^3
#
#
#
# Elastic Constant Matrix: (Units=GPa)
#
#
# Indices 1 2 3 4 5 6 
#
# 1 16.4991 34.9196 23.3307 0.0000 0.0000 0.0000
# 2 34.9196 -16.6204 81.8569 0.0000 0.0000 0.0000
# 3 23.3307 81.8569 37.1876 0.0000 0.0000 0.0000
# 4 0.0000 0.0000 0.0000 16.3416 0.0000 0.0000
# 5 0.0000 0.0000 0.0000 0.0000 15.1152 0.0000
# 6 0.0000 0.0000 0.0000 0.0000 0.0000 16.3925
#
#
#
# Elastic Compliance Matrix: (Units=1/GPa)
#
#
# Indices 1 2 3 4 5 6 
#
# 1 0.309168 -0.025820 -0.137132 0.000000 0.000000 0.000000
# 2 -0.025820 -0.002925 0.022637 0.000000 0.000000 0.000000
# 3 -0.137132 0.022637 0.063096 0.000000 0.000000 0.000000
# 4 0.000000 0.000000 0.000000 0.061194 0.000000 0.000000
# 5 0.000000 0.000000 0.000000 0.000000 0.066159 0.000000
# 6 0.000000 0.000000 0.000000 0.000000 0.000000 0.061004
#
#
# Mechanical properties :
#
#
# Convention : Reuss Voigt Hill
#
# Bulk Modulus (GPa) = 11.27264 35.25342 23.26303
# Shear Modulus (GPa) = 5.76107 2.70045 4.23076
#
# Velocity S-wave (km/s) = 1.70964 1.17050 1.46508
# Velocity P-wave (km/s) = 3.10102 4.43988 3.82942
#
# Compressibility (1/GPa) = 0.08871033
#
# Stress axis : x y z
#
# Youngs Moduli (GPa) = 3.23448 -341.88884 15.84890
#
# Poissons Ratio (x) = -8.82749 2.17339
# Poissons Ratio (y) = 0.08351 -0.35877
# Poissons Ratio (z) = 0.44355 7.73938
#
# Static dielectric constant tensor:
#      x y z
#    x 1.670330 0.000000 0.000000 
#    y 0.000000 1.745390 0.000000 
#    z 0.000000 0.000000 1.701630 
# 
# From -- ./inp_files/32859.got.cif
#   From: 2010.05.17/outbox.ucp.g08.bks.cvg/sg59_17_cif.got.tgz:32859.got - 2010.06.11 16:43:56.
