data_PCOD9453008
_publ_section_title
;
Structure prediction by ZEFSAII (Michael W. Deem and Ramdas Pophale) SiO2 
 PCOD9453008
Probable space group: P M M N
;
_chemical_formula_sum "Si O2"
_cell_formula_units_Z 48
_cell_length_a 14.438485
_cell_length_b 7.535388
_cell_length_c 18.453831
_cell_angle_alpha 90.000000
_cell_angle_beta 90.000000
_cell_angle_gamma 90.000000
_cell_volume 2007.769184
_symmetry_space_group_name_H-M "P M M N"
_symmetry_group_IT_number 59
_space_group.IT_coordinate_system_code '2'
_symmetry_cell_setting 'orthorhombic'
loop_
_space_group_symop_operation_xyz
x,y,z
1/2-x,1/2-y,z
1/2+x,-y,-z
-x,1/2+y,-z
-x,-y,-z
1/2+x,1/2+y,-z
1/2-x,y,z
x,1/2-y,z
loop_
_atom_site_type_symbol
_atom_site_label
_atom_site_fract_x
_atom_site_fract_y
_atom_site_fract_z
Si Si1 0.858772 0.964359 0.538353
Si Si2 0.355114 0.464189 0.623724
Si Si3 0.045956 0.457050 0.317868
Si Si4 0.108467 0.960287 0.012493
Si Si5 0.651353 0.546476 0.144376
Si Si6 0.945626 0.457814 0.839090
O O1 0.750000 0.999628 0.548588
O O2 0.870436 0.750000 0.536301
O O3 0.882726 0.028336 0.457458
O O4 0.914126 0.034881 0.607296
O O5 0.250000 0.523483 0.638895
O O6 0.353038 0.250000 0.622496
O O7 0.435285 0.518740 0.678063
O O8 0.067594 0.250000 0.317687
O O9 0.086609 0.529482 0.243204
O O10 0.129138 0.750000 0.007019
O O11 0.119789 0.023736 0.095715
O O12 0.154315 0.048459 0.943256
O O13 0.000000 0.000000 0.000000
O O14 0.750000 0.468224 0.169695
O O15 0.649236 0.750000 0.171974
O O16 0.550375 0.463210 0.159709
O O17 0.957848 0.250000 0.857088
#
# Coordination Sequence:
#
# PCOD9453008 Si02
#       6
#     8   8   8   8   8   8
#     4   8  16  33  54  74  97 129 171 213 254 305
#     4   9  18  34  55  74  97 135 174 205 248 311
#     4  11  21  31  50  79 106 132 166 214 261 296
#     4   9  17  31  51  71  92 122 159 198 239 284
#     4   9  18  33  53  75  97 125 164 206 246 293
#     4   9  19  34  49  68 100 138 168 195 236 299
#
# _framework density 23.907132000000001
#
# number of rings (size 3 to 8) (size 9 to 14) (size 15 to 20)
#    0.000    2.833    0.000    3.500    0.000    4.667 
#    0.000    3.333    0.000    7.000    0.000    0.000 
#    0.000    0.000    0.000    0.000    0.000    0.000 
#
# Total GULP energy -267700.791792 kJ/mol
# GULP energy per Si atom -5577.099829 kJ/mol
# Density = 2.385272 g / cm^3
# Si number density = 23.907132 Si / 1000 Ang^3
#
#
#
# Elastic Constant Matrix: (Units=GPa)
#
#
# Indices 1 2 3 4 5 6 
#
# 1 20.8090 -7.9276 6.7939 0.0000 0.0000 0.0000
# 2 -7.9276 66.9837 -4.6582 0.0000 0.0000 0.0000
# 3 6.7939 -4.6582 133.7574 0.0000 0.0000 0.0000
# 4 0.0000 0.0000 0.0000 21.7541 0.0000 0.0000
# 5 0.0000 0.0000 0.0000 0.0000 4.1589 0.0000
# 6 0.0000 0.0000 0.0000 0.0000 0.0000 3.9396
#
#
#
# Elastic Compliance Matrix: (Units=1/GPa)
#
#
# Indices 1 2 3 4 5 6 
#
# 1 0.051076 0.005879 -0.002390 0.000000 0.000000 0.000000
# 2 0.005879 0.015642 0.000246 0.000000 0.000000 0.000000
# 3 -0.002390 0.000246 0.007606 0.000000 0.000000 0.000000
# 4 0.000000 0.000000 0.000000 0.045968 0.000000 0.000000
# 5 0.000000 0.000000 0.000000 0.000000 0.240447 0.000000
# 6 0.000000 0.000000 0.000000 0.000000 0.000000 0.253834
#
#
# Mechanical properties :
#
#
# Convention : Reuss Voigt Hill
#
# Bulk Modulus (GPa) = 12.22576 23.32959 17.77768
# Shear Modulus (GPa) = 7.88187 21.12666 14.50426
#
# Velocity S-wave (km/s) = 1.81770 2.97593 2.46578
# Velocity P-wave (km/s) = 3.08712 4.64627 3.94450
#
# Compressibility (1/GPa) = 0.08179449
#
# Stress axis : x y z
#
# Youngs Moduli (GPa) = 19.57874 63.93095 131.47225
#
# Poissons Ratio (x) = -0.37583 0.31416
# Poissons Ratio (y) = -0.11510 -0.03236
# Poissons Ratio (z) = 0.04678 -0.01574
#
# Static dielectric constant tensor:
#      x y z
#    x 1.910960 0.000000 0.000000 
#    y 0.000000 1.917540 0.000000 
#    z 0.000000 0.000000 1.959960 
# 
# From -- ./inp_files/27786.got.cif
#   From: 2010.05.17/outbox.cif.g08.bks.cpg/sg59_14_cif.got.tgz:27786.got - 2010.06.03 14:40:33.
