data_PCOD9453893
_publ_section_title
;
Structure prediction by ZEFSAII (Michael W. Deem and Ramdas Pophale) SiO2 
 PCOD9453893
Probable space group: P B C N
;
_chemical_formula_sum "Si O2"
_cell_formula_units_Z 60
_cell_length_a 13.107681
_cell_length_b 30.663697
_cell_length_c 5.715079
_cell_angle_alpha 90.000000
_cell_angle_beta 90.000000
_cell_angle_gamma 90.000000
_cell_volume 2297.061466
_symmetry_space_group_name_H-M "P B C N"
_symmetry_group_IT_number 60
_symmetry_cell_setting 'orthorhombic'
loop_
_space_group_symop_operation_xyz
x,y,z
1/2-x,1/2-y,1/2+z
1/2+x,1/2-y,-z
-x,y,1/2-z
-x,-y,-z
1/2+x,1/2+y,1/2-z
1/2-x,1/2+y,z
x,-y,1/2+z
loop_
_atom_site_type_symbol
_atom_site_label
_atom_site_fract_x
_atom_site_fract_y
_atom_site_fract_z
Si Si1 0.366774 0.713495 0.399882
Si Si2 0.838811 0.243786 0.597456
Si Si3 0.636029 0.987401 0.138588
Si Si4 0.686868 0.835308 0.005004
Si Si5 0.335329 0.382941 0.818577
Si Si6 0.500000 0.131880 0.250000
Si Si7 0.128865 0.980438 0.854272
Si Si8 0.860263 0.603345 0.868463
O O1 0.240875 0.715846 0.395894
O O2 0.392428 0.735004 0.651837
O O3 0.392857 0.661951 0.389705
O O4 0.396358 0.736523 0.150792
O O5 0.753141 0.205606 0.578815
O O6 0.642588 0.936212 0.189272
O O7 0.591845 0.004911 0.382571
O O8 0.748602 0.009890 0.132765
O O9 0.772442 0.869645 0.914170
O O10 0.593600 0.837376 0.824198
O O11 0.628713 0.851997 0.232126
O O12 0.389963 0.429246 0.804721
O O13 0.247864 0.392890 0.006860
O O14 0.450805 0.101082 0.446626
O O15 0.094736 0.005465 0.616346
#
# Coordination Sequence:
#
# PCOD9453893 Si02
#       8
#     8   8   8   8   8   4   8   8
#     4   9  17  28  43  70  84 101 122 156 197 258
#     4   9  17  29  46  63  87 100 124 153 203 251
#     4  10  19  30  45  58  72  95 131 168 208 251
#     4  10  19  32  46  59  77 107 128 169 209 250
#     4  10  18  27  46  61  81 103 131 163 211 243
#     4  10  24  32  42  62  72 100 142 174 206 250
#     4  10  18  27  40  61  78 101 134 164 196 244
#     4  11  19  32  46  55  76 101 133 173 211 246
#
# _framework density 26.120329999999999
#
# number of rings (size 3 to 8) (size 9 to 14) (size 15 to 20)
#    0.000    2.133    4.000    2.000    1.867    0.000 
#    0.000    0.667    0.000    0.000    0.000    0.000 
#    0.000    0.000    0.000    0.000    0.000    0.000 
#
# Total GULP energy -335043.223275 kJ/mol
# GULP energy per Si atom -5584.053721 kJ/mol
# Density = 2.606088 g / cm^3
# Si number density = 26.120330 Si / 1000 Ang^3
#
#
#
# Elastic Constant Matrix: (Units=GPa)
#
#
# Indices 1 2 3 4 5 6 
#
# 1 80.5227 6.3084 42.1218 0.0000 0.0000 0.0000
# 2 6.3084 129.3554 27.2846 0.0000 0.0000 0.0000
# 3 42.1218 27.2846 200.2849 0.0000 0.0000 0.0000
# 4 0.0000 0.0000 0.0000 53.7197 0.0000 0.0000
# 5 0.0000 0.0000 0.0000 0.0000 37.2192 0.0000
# 6 0.0000 0.0000 0.0000 0.0000 0.0000 -18.1326
#
#
#
# Elastic Compliance Matrix: (Units=1/GPa)
#
#
# Indices 1 2 3 4 5 6 
#
# 1 0.013955 -0.000063 -0.002926 0.000000 0.000000 0.000000
# 2 -0.000063 0.007960 -0.001071 0.000000 0.000000 0.000000
# 3 -0.002926 -0.001071 0.005754 0.000000 0.000000 0.000000
# 4 0.000000 0.000000 0.000000 0.018615 0.000000 0.000000
# 5 0.000000 0.000000 0.000000 0.000000 0.026868 0.000000
# 6 0.000000 0.000000 0.000000 0.000000 0.000000 -0.055149
#
#
# Mechanical properties :
#
#
# Convention : Reuss Voigt Hill
#
# Bulk Modulus (GPa) = 51.15781 62.39918 56.77849
# Shear Modulus (GPa) = 153.19111 36.85778 95.02444
#
# Velocity S-wave (km/s) = 7.66652 3.76050 6.03809
# Velocity P-wave (km/s) = 9.89926 6.54188 8.39022
#
# Compressibility (1/GPa) = 0.01954736
#
# Stress axis : x y z
#
# Youngs Moduli (GPa) = 71.66146 125.63389 173.78660
#
# Poissons Ratio (x) = 0.00796 0.50852
# Poissons Ratio (y) = 0.00454 0.18613
# Poissons Ratio (z) = 0.20969 0.13456
#
# Static dielectric constant tensor:
#      x y z
#    x 2.060040 0.000000 0.000000 
#    y 0.000000 2.092320 0.000000 
#    z 0.000000 0.000000 2.185150 
# 
# From -- ./inp_files/2260.got.cif
#   From: 2010.05.17/outbox.cif.g08.bks.cpg/sg60_2_cif.got.tgz:2260.got - 2010.06.03 14:59:27.
