data_PCOD9453937
_publ_section_title
;
Structure prediction by ZEFSAII (Michael W. Deem and Ramdas Pophale) SiO2 
 PCOD9453937
Probable space group: P B C N
;
_chemical_formula_sum "Si O2"
_cell_formula_units_Z 48
_cell_length_a 11.315471
_cell_length_b 26.299159
_cell_length_c 8.720949
_cell_angle_alpha 90.000000
_cell_angle_beta 90.000000
_cell_angle_gamma 90.000000
_cell_volume 2595.244285
_symmetry_space_group_name_H-M "P B C N"
_symmetry_group_IT_number 60
_symmetry_cell_setting 'orthorhombic'
loop_
_space_group_symop_operation_xyz
x,y,z
1/2-x,1/2-y,1/2+z
1/2+x,1/2-y,-z
-x,y,1/2-z
-x,-y,-z
1/2+x,1/2+y,1/2-z
1/2-x,1/2+y,z
x,-y,1/2+z
loop_
_atom_site_type_symbol
_atom_site_label
_atom_site_fract_x
_atom_site_fract_y
_atom_site_fract_z
Si Si1 0.500000 0.216370 0.250000
Si Si2 0.982783 0.116358 0.067256
Si Si3 0.342426 0.157389 0.012365
Si Si4 0.873255 0.037951 0.844424
Si Si5 0.000000 0.702592 0.750000
Si Si6 0.595101 0.717897 0.483950
Si Si7 0.786282 0.060576 0.529813
O O1 0.418740 0.180534 0.148212
O O2 0.423705 0.253024 0.357809
O O3 0.988534 0.176808 0.041519
O O4 0.000000 0.106439 0.250000
O O5 0.100548 0.096622 0.987068
O O6 0.888169 0.082957 0.971512
O O7 0.219426 0.188882 0.017315
O O8 0.414890 0.169830 0.858347
O O9 0.317758 0.097150 0.026703
O O10 0.780574 0.049226 0.709945
O O11 0.000000 0.029038 0.750000
O O12 0.826008 0.988772 0.934538
O O13 0.919508 0.739735 0.853571
#
# Coordination Sequence:
#
# PCOD9453937 Si02
#       7
#     4   8   8   8   4   8   8
#     4  10  22  38  58  81 121 154 192 254 280 344
#     4  10  18  30  51  86 124 155 176 224 292 369
#     4  10  22  38  59  81 113 154 202 239 295 347
#     4  10  19  33  55  85 122 152 182 242 301 356
#     4  10  20  40  54  81 119 150 196 244 276 338
#     4  10  20  34  58  86 119 154 188 231 296 357
#     4  10  20  34  55  81 114 148 193 234 295 360
#
# _framework density 18.495367999999999
#
# number of rings (size 3 to 8) (size 9 to 14) (size 15 to 20)
#    0.000    2.000    0.833    4.500    5.833    0.000 
#    0.000    6.667    0.000    3.000    0.000    0.000 
#    0.000    0.000    0.000    0.000    0.000    0.000 
#
# Total GULP energy -267228.619258 kJ/mol
# GULP energy per Si atom -5567.262901 kJ/mol
# Density = 1.845327 g / cm^3
# Si number density = 18.495368 Si / 1000 Ang^3
#
#
#
# Elastic Constant Matrix: (Units=GPa)
#
#
# Indices 1 2 3 4 5 6 
#
# 1 52.7135 26.5334 19.3226 0.0000 0.0000 0.0000
# 2 26.5334 98.6857 40.6674 0.0000 0.0000 0.0000
# 3 19.3226 40.6674 103.9948 0.0000 0.0000 0.0000
# 4 0.0000 0.0000 0.0000 -3.2515 0.0000 0.0000
# 5 0.0000 0.0000 0.0000 0.0000 -2.2224 0.0000
# 6 0.0000 0.0000 0.0000 0.0000 0.0000 32.5888
#
#
#
# Elastic Compliance Matrix: (Units=1/GPa)
#
#
# Indices 1 2 3 4 5 6 
#
# 1 0.022335 -0.005120 -0.002148 0.000000 0.000000 0.000000
# 2 -0.005120 0.013254 -0.004232 0.000000 0.000000 0.000000
# 3 -0.002148 -0.004232 0.011670 0.000000 0.000000 0.000000
# 4 0.000000 0.000000 0.000000 -0.307547 0.000000 0.000000
# 5 0.000000 0.000000 0.000000 0.000000 -0.449956 0.000000
# 6 0.000000 0.000000 0.000000 0.000000 0.000000 0.030685
#
#
# Mechanical properties :
#
#
# Convention : Reuss Voigt Hill
#
# Bulk Modulus (GPa) = 41.22083 47.60454 44.41268
# Shear Modulus (GPa) = -7.71041 16.68101 4.48530
#
# Velocity S-wave (km/s) = -2.04399 3.00643 1.55896
# Velocity P-wave (km/s) = 4.09451 6.15191 5.22546
#
# Compressibility (1/GPa) = 0.02425958
#
# Stress axis : x y z
#
# Youngs Moduli (GPa) = 44.77287 75.45135 85.69235
#
# Poissons Ratio (x) = 0.38632 0.18404
# Poissons Ratio (y) = 0.22924 0.36261
# Poissons Ratio (z) = 0.09616 0.31927
#
# Static dielectric constant tensor:
#      x y z
#    x 1.732860 0.000000 0.000000 
#    y 0.000000 1.681410 0.000000 
#    z 0.000000 0.000000 1.675740 
# 
# From -- ./inp_files/5117.got.cif
#   From: 2010.05.17/outbox.cif.g08.bks.cpg/sg60_3_cif.got.tgz:5117.got - 2010.06.03 14:59:27.
