data_PCOD9453522
_publ_section_title
;
Structure prediction by ZEFSAII (Michael W. Deem and Ramdas Pophale) SiO2 
 PCOD9453522
Probable space group: P M M N
;
_chemical_formula_sum "Si O2"
_cell_formula_units_Z 56
_cell_length_a 15.000000
_cell_length_b 9.000000
_cell_length_c 21.000000
_cell_angle_alpha 90.000000
_cell_angle_beta 90.000000
_cell_angle_gamma 90.000000
_cell_volume 2835.000000
_symmetry_space_group_name_H-M "P M M N"
_symmetry_group_IT_number 59
_space_group.IT_coordinate_system_code '2'
_symmetry_cell_setting 'orthorhombic'
loop_
_space_group_symop_operation_xyz
x,y,z
1/2-x,1/2-y,z
1/2+x,-y,-z
-x,1/2+y,-z
-x,-y,-z
1/2+x,1/2+y,-z
1/2-x,y,z
x,1/2-y,z
loop_
_atom_site_type_symbol
_atom_site_label
_atom_site_fract_x
_atom_site_fract_y
_atom_site_fract_z
Si Si1 0.750000 0.074573 0.595490
Si Si2 0.096197 0.420585 0.183654
Si Si3 0.647697 0.920594 0.368297
Si Si4 0.903077 0.072289 0.496061
Si Si5 0.001617 0.074945 0.066851
Si Si6 0.750000 0.569845 0.730046
Si Si7 0.349897 0.416361 0.864988
Si Si8 0.094684 0.917448 0.749173
O O1 0.750000 0.250000 0.608462
O O2 0.839055 0.041652 0.555546
O O3 0.750000 0.984737 0.659383
O O4 0.125107 0.250000 0.172218
O O5 0.166325 0.489212 0.230459
O O6 0.076399 0.487877 0.114909
O O7 0.002590 0.414601 0.219830
O O8 0.750000 0.923383 0.345817
O O9 0.617345 0.750000 0.370599
O O10 0.643482 0.995804 0.436364
O O11 0.590421 0.020139 0.321181
O O12 0.909235 0.250000 0.488150
O O13 0.000000 0.000000 0.500000
O O14 0.013476 0.250000 0.061616
O O15 0.908230 0.036813 0.099409
O O16 0.000000 0.000000 0.000000
O O17 0.750000 0.750000 0.728142
O O18 0.250000 0.415376 0.889339
O O19 0.387660 0.250000 0.871687
O O20 0.351275 0.466383 0.791838
O O21 0.131417 0.750000 0.751108
#
# Coordination Sequence:
#
# PCOD9453522 Si02
#       8
#     4   8   8   8   8   4   8   8
#     4  10  24  44  62  88 124 157 196 253 316 368
#     4   8  18  36  57  85 114 148 194 240 283 344
#     4  11  23  38  57  84 116 151 195 242 294 357
#     4  11  24  43  63  85 117 155 199 250 309 372
#     4  10  20  37  59  84 119 156 195 237 291 351
#     4  10  20  38  64  86 112 153 202 247 290 346
#     4  10  20  35  55  82 113 147 192 238 285 344
#     4  10  20  34  55  83 116 152 190 236 295 355
#
# _framework density 19.753086
#
# number of rings (size 3 to 8) (size 9 to 14) (size 15 to 20)
#    0.000    2.000    0.714    3.429    2.000    4.857 
#    1.286    3.571    0.000    0.000    0.000    0.000 
#    0.000    0.000    0.000    0.000    0.000    0.000 
#
# Total GULP energy -311936.820779 kJ/mol
# GULP energy per Si atom -5570.300371 kJ/mol
# Density = 1.970813 g / cm^3
# Si number density = 19.753086 Si / 1000 Ang^3
#
#
#
# Elastic Constant Matrix: (Units=GPa)
#
#
# Indices 1 2 3 4 5 6 
#
# 1 61.0948 34.2233 23.6842 0.0000 0.0000 0.0000
# 2 34.2233 47.7384 57.3742 0.0000 0.0000 0.0000
# 3 23.6842 57.3742 104.6947 0.0000 0.0000 0.0000
# 4 0.0000 0.0000 0.0000 30.0966 0.0000 0.0000
# 5 0.0000 0.0000 0.0000 0.0000 -63.0253 0.0000
# 6 0.0000 0.0000 0.0000 0.0000 0.0000 18.5374
#
#
#
# Elastic Compliance Matrix: (Units=1/GPa)
#
#
# Indices 1 2 3 4 5 6 
#
# 1 0.035659 -0.046485 0.017408 0.000000 0.000000 0.000000
# 2 -0.046485 0.121961 -0.056321 0.000000 0.000000 0.000000
# 3 0.017408 -0.056321 0.036478 0.000000 0.000000 0.000000
# 4 0.000000 0.000000 0.000000 0.033226 0.000000 0.000000
# 5 0.000000 0.000000 0.000000 0.000000 -0.015867 0.000000
# 6 0.000000 0.000000 0.000000 0.000000 0.000000 0.053945
#
#
# Mechanical properties :
#
#
# Convention : Reuss Voigt Hill
#
# Bulk Modulus (GPa) = 42.91430 49.34348 46.12889
# Shear Modulus (GPa) = 11.26209 3.67150 7.46679
#
# Velocity S-wave (km/s) = 2.39036 1.36482 1.94635
# Velocity P-wave (km/s) = 5.42134 5.24576 5.33427
#
# Compressibility (1/GPa) = 0.02330226
#
# Stress axis : x y z
#
# Youngs Moduli (GPa) = 28.04317 8.19931 27.41370
#
# Poissons Ratio (x) = 0.38115 -0.47721
# Poissons Ratio (y) = 1.30360 1.54396
# Poissons Ratio (z) = -0.48817 0.46179
#
# Static dielectric constant tensor:
#      x y z
#    x 1.692960 0.000000 0.000000 
#    y 0.000000 1.479410 0.000000 
#    z 0.000000 0.000000 1.608240 
# 
# From -- ./inp_files/30455.got.cif
#   From: 2010.05.17/outbox.ucp.g08.bks.cvg/sg59_16_cif.got.tgz:30455.got - 2010.06.11 16:43:56.
