data_PCOD9453799
_publ_section_title
;
Structure prediction by ZEFSAII (Michael W. Deem and Ramdas Pophale) SiO2 
 PCOD9453799
Probable space group: P B C N
;
_chemical_formula_sum "Si O2"
_cell_formula_units_Z 52
_cell_length_a 7.817006
_cell_length_b 14.336905
_cell_length_c 20.083789
_cell_angle_alpha 90.000000
_cell_angle_beta 90.000000
_cell_angle_gamma 90.000000
_cell_volume 2250.823821
_symmetry_space_group_name_H-M "P B C N"
_symmetry_group_IT_number 60
_symmetry_cell_setting 'orthorhombic'
loop_
_space_group_symop_operation_xyz
x,y,z
1/2-x,1/2-y,1/2+z
1/2+x,1/2-y,-z
-x,y,1/2-z
-x,-y,-z
1/2+x,1/2+y,1/2-z
1/2-x,1/2+y,z
x,-y,1/2+z
loop_
_atom_site_type_symbol
_atom_site_label
_atom_site_fract_x
_atom_site_fract_y
_atom_site_fract_z
Si Si1 0.502676 0.824867 0.404321
Si Si2 0.814330 0.512287 0.082833
Si Si3 0.327006 0.556035 0.562353
Si Si4 0.219385 0.188622 0.348579
Si Si5 0.836456 0.602683 0.383278
Si Si6 0.006114 0.761465 0.448929
Si Si7 0.000000 0.655999 0.250000
O O1 0.676651 0.884325 0.401725
O O2 0.456079 0.745502 0.350164
O O3 0.504273 0.773159 0.475662
O O4 0.356066 0.905427 0.401126
O O5 0.723460 0.577014 0.138894
O O6 0.006443 0.555446 0.075872
O O7 0.721606 0.530981 0.013323
O O8 0.329115 0.457586 0.600544
O O9 0.481117 0.628506 0.558878
O O10 0.322506 0.226716 0.413242
O O11 0.348938 0.209919 0.288270
O O12 0.851081 0.707243 0.410652
O O13 0.900254 0.599960 0.307519
#
# Coordination Sequence:
#
# PCOD9453799 Si02
#       7
#     8   8   8   8   8   8   4
#     4  11  16  29  50  76 100 129 166 205 248 294
#     4   9  16  28  49  74 101 128 159 203 249 293
#     4  11  17  29  51  79 103 122 162 212 254 290
#     4  10  20  33  50  71 103 134 167 203 246 311
#     4   9  17  32  49  68  96 134 168 201 235 299
#     4  10  17  29  47  75 104 130 153 204 265 295
#     4   8  18  36  52  66  94 144 176 192 240 304
#
# _framework density 23.102653
#
# number of rings (size 3 to 8) (size 9 to 14) (size 15 to 20)
#    0.000    2.462    6.154    0.923    0.000    0.000 
#    0.000   11.538    0.000    0.000    0.000    0.000 
#    0.000    0.000    0.000    0.000    0.000    0.000 
#
# Total GULP energy -290047.415506 kJ/mol
# GULP energy per Si atom -5577.834914 kJ/mol
# Density = 2.305007 g / cm^3
# Si number density = 23.102653 Si / 1000 Ang^3
#
#
#
# Elastic Constant Matrix: (Units=GPa)
#
#
# Indices 1 2 3 4 5 6 
#
# 1 53.0884 10.9342 1.3914 0.0000 0.0000 0.0000
# 2 10.9342 89.3029 -6.0769 0.0000 0.0000 0.0000
# 3 1.3914 -6.0769 68.3925 0.0000 0.0000 0.0000
# 4 0.0000 0.0000 0.0000 6.9381 0.0000 0.0000
# 5 0.0000 0.0000 0.0000 0.0000 18.1103 0.0000
# 6 0.0000 0.0000 0.0000 0.0000 0.0000 34.3243
#
#
#
# Elastic Compliance Matrix: (Units=1/GPa)
#
#
# Indices 1 2 3 4 5 6 
#
# 1 0.019349 -0.002410 -0.000608 0.000000 0.000000 0.000000
# 2 -0.002410 0.011566 0.001077 0.000000 0.000000 0.000000
# 3 -0.000608 0.001077 0.014730 0.000000 0.000000 0.000000
# 4 0.000000 0.000000 0.000000 0.144132 0.000000 0.000000
# 5 0.000000 0.000000 0.000000 0.000000 0.055217 0.000000
# 6 0.000000 0.000000 0.000000 0.000000 0.000000 0.029134
#
#
# Mechanical properties :
#
#
# Convention : Reuss Voigt Hill
#
# Bulk Modulus (GPa) = 23.94541 24.80903 24.37722
# Shear Modulus (GPa) = 17.12730 25.51020 21.31875
#
# Velocity S-wave (km/s) = 2.72574 3.32657 3.04103
# Velocity P-wave (km/s) = 4.50483 5.05140 4.78593
#
# Compressibility (1/GPa) = 0.04176165
#
# Stress axis : x y z
#
# Youngs Moduli (GPa) = 51.68258 86.45852 67.89082
#
# Poissons Ratio (x) = 0.20840 0.04126
# Poissons Ratio (y) = 0.12458 -0.07310
# Poissons Ratio (z) = 0.03141 -0.09309
#
# Static dielectric constant tensor:
#      x y z
#    x 2.018010 0.000000 0.000000 
#    y 0.000000 1.958920 0.000000 
#    z 0.000000 0.000000 1.893540 
# 
# From -- ./inp_files/22711.got.cif
#   From: 2010.05.17/outbox.cif.g08.bks.cpg/sg60_12_cif.got.tgz:22711.got - 2010.06.03 14:59:27.
