data_PCOD9453687
_publ_section_title
;
Structure prediction by ZEFSAII (Michael W. Deem and Ramdas Pophale) SiO2 
 PCOD9453687
Probable space group: P M M N
;
_chemical_formula_sum "Si O2"
_cell_formula_units_Z 64
_cell_length_a 15.000000
_cell_length_b 9.000000
_cell_length_c 24.000000
_cell_angle_alpha 90.000000
_cell_angle_beta 90.000000
_cell_angle_gamma 90.000000
_cell_volume 3240.000000
_symmetry_space_group_name_H-M "P M M N"
_symmetry_group_IT_number 59
_space_group.IT_coordinate_system_code '2'
_symmetry_cell_setting 'orthorhombic'
loop_
_space_group_symop_operation_xyz
x,y,z
1/2-x,1/2-y,z
1/2+x,-y,-z
-x,1/2+y,-z
-x,-y,-z
1/2+x,1/2+y,-z
1/2-x,y,z
x,1/2-y,z
loop_
_atom_site_type_symbol
_atom_site_label
_atom_site_fract_x
_atom_site_fract_y
_atom_site_fract_z
Si Si1 0.036291 0.073489 0.133044
Si Si2 0.148161 0.931427 0.350385
Si Si3 0.151654 0.569839 0.908869
Si Si4 0.644995 0.076522 0.962114
Si Si5 0.849537 0.082578 0.390181
Si Si6 0.651152 0.419768 0.256541
Si Si7 0.511699 0.074993 0.558895
Si Si8 0.963816 0.426794 0.757224
O O1 0.037818 0.250000 0.139340
O O2 0.933535 0.022226 0.125814
O O3 0.088247 0.024247 0.078344
O O4 0.076690 0.995553 0.186968
O O5 0.250000 0.981375 0.347685
O O6 0.148400 0.750000 0.350259
O O7 0.096410 0.980040 0.405774
O O8 0.090008 0.978410 0.297176
O O9 0.250000 0.515613 0.892667
O O10 0.154339 0.750000 0.906909
O O11 0.135255 0.531876 0.973462
O O12 0.750000 0.066977 0.948861
O O13 0.618442 0.250000 0.956651
O O14 0.750000 0.047853 0.411118
O O15 0.873264 0.250000 0.409711
O O16 0.845210 0.088060 0.323522
O O17 0.923242 0.965953 0.407099
O O18 0.750000 0.469191 0.237765
O O19 0.637882 0.250000 0.235469
O O20 0.565587 0.518118 0.244903
O O21 0.520307 0.250000 0.552403
O O22 0.500000 0.000000 0.500000
O O23 0.960738 0.250000 0.759161
#
# Coordination Sequence:
#
# PCOD9453687 Si02
#       8
#     8   8   8   8   8   8   8   8
#     4  11  22  34  53  83 116 149 186 234 290 344
#     4   9  20  40  62  81 106 147 195 236 278 329
#     4   8  16  33  56  80 108 146 189 230 280 344
#     4   9  18  35  58  80 105 143 190 237 285 339
#     4   9  18  34  57  83 112 146 180 219 274 338
#     4   9  18  34  57  82 109 143 180 222 280 343
#     4  11  22  37  59  88 117 148 187 235 287 339
#     4  11  22  37  57  82 111 148 196 243 283 330
#
# _framework density 19.753086
#
# number of rings (size 3 to 8) (size 9 to 14) (size 15 to 20)
#    0.000    2.375    1.250    3.000    0.000    2.250 
#    0.000    5.625    0.000    7.875    0.000    0.000 
#    0.000    0.000    0.000    0.000    0.000    0.000 
#
# Total GULP energy -356979.018840 kJ/mol
# GULP energy per Si atom -5577.797169 kJ/mol
# Density = 1.970813 g / cm^3
# Si number density = 19.753086 Si / 1000 Ang^3
#
#
#
# Elastic Constant Matrix: (Units=GPa)
#
#
# Indices 1 2 3 4 5 6 
#
# 1 97.1687 34.9463 68.2692 0.0000 0.0000 0.0000
# 2 34.9463 33.1999 33.2888 0.0000 0.0000 0.0000
# 3 68.2692 33.2888 124.1211 0.0000 0.0000 0.0000
# 4 0.0000 0.0000 0.0000 21.2429 0.0000 0.0000
# 5 0.0000 0.0000 0.0000 0.0000 -56.2632 0.0000
# 6 0.0000 0.0000 0.0000 0.0000 0.0000 27.3508
#
#
#
# Elastic Compliance Matrix: (Units=1/GPa)
#
#
# Indices 1 2 3 4 5 6 
#
# 1 0.020740 -0.014216 -0.007595 0.000000 0.000000 0.000000
# 2 -0.014216 0.050944 -0.005844 0.000000 0.000000 0.000000
# 3 -0.007595 -0.005844 0.013801 0.000000 0.000000 0.000000
# 4 0.000000 0.000000 0.000000 0.047075 0.000000 0.000000
# 5 0.000000 0.000000 0.000000 0.000000 -0.017774 0.000000
# 6 0.000000 0.000000 0.000000 0.000000 0.000000 0.036562
#
#
# Mechanical properties :
#
#
# Convention : Reuss Voigt Hill
#
# Bulk Modulus (GPa) = 33.13897 58.61094 45.87495
# Shear Modulus (GPa) = 23.07166 6.33181 14.70173
#
# Velocity S-wave (km/s) = 3.42131 1.79233 2.73110
# Velocity P-wave (km/s) = 5.69387 5.83262 5.76366
#
# Compressibility (1/GPa) = 0.03017595
#
# Stress axis : x y z
#
# Youngs Moduli (GPa) = 48.21579 19.62943 72.45712
#
# Poissons Ratio (x) = 0.27905 0.55030
# Poissons Ratio (y) = 0.68543 0.42343
# Poissons Ratio (z) = 0.36619 0.11471
#
# Static dielectric constant tensor:
#      x y z
#    x 1.715640 0.000000 0.000000 
#    y 0.000000 1.655800 0.000000 
#    z 0.000000 0.000000 1.731220 
# 
# From -- ./inp_files/32127.got.cif
#   From: 2010.05.17/outbox.ucp.g08.bks.cvg/sg59_17_cif.got.tgz:32127.got - 2010.06.11 16:43:56.
