data_PCOD9453116
_publ_section_title
;
Structure prediction by ZEFSAII (Michael W. Deem and Ramdas Pophale) SiO2 
 PCOD9453116
Probable space group: P M M N
;
_chemical_formula_sum "Si O2"
_cell_formula_units_Z 48
_cell_length_a 10.254021
_cell_length_b 8.311569
_cell_length_c 30.402039
_cell_angle_alpha 90.000000
_cell_angle_beta 90.000000
_cell_angle_gamma 90.000000
_cell_volume 2591.074671
_symmetry_space_group_name_H-M "P M M N"
_symmetry_group_IT_number 59
_space_group.IT_coordinate_system_code '2'
_symmetry_cell_setting 'orthorhombic'
loop_
_space_group_symop_operation_xyz
x,y,z
1/2-x,1/2-y,z
1/2+x,-y,-z
-x,1/2+y,-z
-x,-y,-z
1/2+x,1/2+y,-z
1/2-x,y,z
x,1/2-y,z
loop_
_atom_site_type_symbol
_atom_site_label
_atom_site_fract_x
_atom_site_fract_y
_atom_site_fract_z
Si Si1 0.399783 0.944637 0.270620
Si Si2 0.250000 0.053949 0.964021
Si Si3 0.099243 0.945137 0.462749
Si Si4 0.896877 0.057750 0.198173
Si Si5 0.750000 0.943017 0.934983
Si Si6 0.976688 0.942700 0.101541
Si Si7 0.091636 0.935154 0.366465
O O1 0.250000 0.997594 0.262325
O O2 0.396653 0.750000 0.273278
O O3 0.443794 0.006731 0.319017
O O4 0.497498 0.993380 0.232475
O O5 0.250000 0.250000 0.964892
O O6 0.376584 0.001996 0.936465
O O7 0.250000 0.998520 0.014299
O O8 0.250000 0.995137 0.470907
O O9 0.099708 0.750000 0.460909
O O10 0.057251 0.006210 0.414014
O O11 0.000000 0.000000 0.500000
O O12 0.750000 0.998690 0.207978
O O13 0.897064 0.250000 0.200683
O O14 0.933131 0.008017 0.148685
O O15 0.750000 0.750000 0.935242
O O16 0.620979 0.003100 0.910858
O O17 0.971015 0.750000 0.103329
O O18 0.250000 0.930101 0.366207
O O19 0.044585 0.750000 0.366597
#
# Coordination Sequence:
#
# PCOD9453116 Si02
#       7
#     8   4   8   8   4   8   8
#     4   9  18  34  59  85 104 130 175 227 273 320
#     4   9  20  39  63  87 113 145 185 225 264 311
#     4   9  17  30  49  73 103 139 178 220 266 316
#     4  11  24  40  56  78 110 147 180 216 271 329
#     4  11  23  39  59  89 121 145 175 223 274 317
#     4  11  22  40  62  85 111 146 187 225 262 313
#     4   7  12  27  50  74 100 132 173 220 266 313
#
# _framework density 18.525130999999998
#
# number of rings (size 3 to 8) (size 9 to 14) (size 15 to 20)
#    0.000    2.500    0.833    3.750    1.167    1.667 
#    0.000    4.167    0.000    8.000    0.000    0.000 
#    0.000    0.000    0.000    0.000    0.000    0.000 
#
# Total GULP energy -267645.800076 kJ/mol
# GULP energy per Si atom -5575.954168 kJ/mol
# Density = 1.848297 g / cm^3
# Si number density = 18.525131 Si / 1000 Ang^3
#
#
#
# Elastic Constant Matrix: (Units=GPa)
#
#
# Indices 1 2 3 4 5 6 
#
# 1 119.6360 13.8117 67.1314 0.0000 0.0000 0.0000
# 2 13.8117 16.2263 14.3911 0.0000 0.0000 0.0000
# 3 67.1314 14.3911 138.0182 0.0000 0.0000 0.0000
# 4 0.0000 0.0000 0.0000 19.4191 0.0000 0.0000
# 5 0.0000 0.0000 0.0000 0.0000 37.4697 0.0000
# 6 0.0000 0.0000 0.0000 0.0000 0.0000 11.2259
#
#
#
# Elastic Compliance Matrix: (Units=1/GPa)
#
#
# Indices 1 2 3 4 5 6 
#
# 1 0.011929 -0.005518 -0.005227 0.000000 0.000000 0.000000
# 2 -0.005518 0.070461 -0.004663 0.000000 0.000000 0.000000
# 3 -0.005227 -0.004663 0.010274 0.000000 0.000000 0.000000
# 4 0.000000 0.000000 0.000000 0.051496 0.000000 0.000000
# 5 0.000000 0.000000 0.000000 0.000000 0.026688 0.000000
# 6 0.000000 0.000000 0.000000 0.000000 0.000000 0.089080
#
#
# Mechanical properties :
#
#
# Convention : Reuss Voigt Hill
#
# Bulk Modulus (GPa) = 16.16869 51.61655 33.89262
# Shear Modulus (GPa) = 16.05869 25.52602 20.79236
#
# Velocity S-wave (km/s) = 2.94744 3.71605 3.35384
# Velocity P-wave (km/s) = 4.50890 6.80702 5.77346
#
# Compressibility (1/GPa) = 0.06184792
#
# Stress axis : x y z
#
# Youngs Moduli (GPa) = 83.83247 14.19230 97.33459
#
# Poissons Ratio (x) = 0.07831 0.50873
# Poissons Ratio (y) = 0.46259 0.45387
# Poissons Ratio (z) = 0.43816 0.06618
#
# Static dielectric constant tensor:
#      x y z
#    x 1.614730 0.000000 0.000000 
#    y 0.000000 1.647700 0.000000 
#    z 0.000000 0.000000 1.654460 
# 
# From -- ./inp_files/32991.got.cif
#   From: 2010.05.17/outbox.cif.g08.bks.cpg/sg59_17_cif.got.tgz:32991.got - 2010.06.03 14:40:33.
