data_PCOD9453747
_publ_section_title
;
Structure prediction by ZEFSAII (Michael W. Deem and Ramdas Pophale) SiO2 
 PCOD9453747
Probable space group: P B C N
;
_chemical_formula_sum "Si O2"
_cell_formula_units_Z 56
_cell_length_a 19.945560
_cell_length_b 8.762375
_cell_length_c 15.298242
_cell_angle_alpha 90.000000
_cell_angle_beta 90.000000
_cell_angle_gamma 90.000000
_cell_volume 2673.681041
_symmetry_space_group_name_H-M "P B C N"
_symmetry_group_IT_number 60
_symmetry_cell_setting 'orthorhombic'
loop_
_space_group_symop_operation_xyz
x,y,z
1/2-x,1/2-y,1/2+z
1/2+x,1/2-y,-z
-x,y,1/2-z
-x,-y,-z
1/2+x,1/2+y,1/2-z
1/2-x,1/2+y,z
x,-y,1/2+z
loop_
_atom_site_type_symbol
_atom_site_label
_atom_site_fract_x
_atom_site_fract_y
_atom_site_fract_z
Si Si1 0.657453 0.000151 0.549226
Si Si2 0.112622 0.073721 0.807294
Si Si3 0.451978 0.892200 0.821846
Si Si4 0.136940 0.991655 0.621086
Si Si5 0.431857 0.201283 0.047200
Si Si6 0.495287 0.393080 0.912759
Si Si7 0.790644 0.839448 0.034803
O O1 0.608630 0.979672 0.632124
O O2 0.692747 0.838878 0.531327
O O3 0.613508 0.053898 0.466871
O O4 0.714822 0.125836 0.561295
O O5 0.081404 0.238482 0.782492
O O6 0.151667 0.011702 0.723202
O O7 0.050615 0.970961 0.839842
O O8 0.159817 0.093158 0.891366
O O9 0.500000 0.969197 0.750000
O O10 0.502983 0.832488 0.895904
O O11 0.191859 0.921890 0.556705
O O12 0.071592 0.881896 0.616527
O O13 0.111128 0.156174 0.584193
O O14 0.459339 0.246015 0.951186
O O15 0.500000 0.500000 0.000000
#
# Coordination Sequence:
#
# PCOD9453747 Si02
#       7
#     8   8   8   8   8   8   8
#     4  11  26  44  68  88 134 182 226 278 340 402
#     4  11  19  36  67 102 132 176 217 264 334 399
#     4  11  20  39  67 102 132 169 219 278 345 396
#     4  11  20  37  69 100 132 171 219 270 327 408
#     4  11  20  38  68  94 130 174 216 272 334 391
#     4  10  16  31  62  96 129 163 212 264 318 383
#     4  11  24  45  64  93 132 184 226 268 338 403
#
# _framework density 20.944906
#
# number of rings (size 3 to 8) (size 9 to 14) (size 15 to 20)
#    0.000    1.143    7.143    2.571    0.000    0.000 
#    2.571    4.286    0.000    0.000    0.000    0.000 
#    0.000    0.000    0.000    0.000    0.000    0.000 
#
# Total GULP energy -312759.257561 kJ/mol
# GULP energy per Si atom -5584.986742 kJ/mol
# Density = 2.089723 g / cm^3
# Si number density = 20.944906 Si / 1000 Ang^3
#
#
#
# Elastic Constant Matrix: (Units=GPa)
#
#
# Indices 1 2 3 4 5 6 
#
# 1 65.8348 31.1826 15.9183 0.0000 0.0000 0.0000
# 2 31.1826 70.1258 31.3133 0.0000 0.0000 0.0000
# 3 15.9183 31.3133 83.1995 0.0000 0.0000 0.0000
# 4 0.0000 0.0000 0.0000 13.6569 0.0000 0.0000
# 5 0.0000 0.0000 0.0000 0.0000 18.4473 0.0000
# 6 0.0000 0.0000 0.0000 0.0000 0.0000 35.7339
#
#
#
# Elastic Compliance Matrix: (Units=1/GPa)
#
#
# Indices 1 2 3 4 5 6 
#
# 1 0.019264 -0.008318 -0.000555 0.000000 0.000000 0.000000
# 2 -0.008318 0.020732 -0.006212 0.000000 0.000000 0.000000
# 3 -0.000555 -0.006212 0.014463 0.000000 0.000000 0.000000
# 4 0.000000 0.000000 0.000000 0.073223 0.000000 0.000000
# 5 0.000000 0.000000 0.000000 0.000000 0.054208 0.000000
# 6 0.000000 0.000000 0.000000 0.000000 0.000000 0.027985
#
#
# Mechanical properties :
#
#
# Convention : Reuss Voigt Hill
#
# Bulk Modulus (GPa) = 41.16887 41.77650 41.47268
# Shear Modulus (GPa) = 20.14980 22.95068 21.55024
#
# Velocity S-wave (km/s) = 3.10504 3.31382 3.21113
# Velocity P-wave (km/s) = 5.70557 5.88482 5.79589
#
# Compressibility (1/GPa) = 0.02429020
#
# Stress axis : x y z
#
# Youngs Moduli (GPa) = 51.91152 48.23352 69.14064
#
# Poissons Ratio (x) = 0.40121 0.03837
# Poissons Ratio (y) = 0.43180 0.42947
# Poissons Ratio (z) = 0.02881 0.29960
#
# Static dielectric constant tensor:
#      x y z
#    x 1.754840 0.000000 0.000000 
#    y 0.000000 1.796510 0.000000 
#    z 0.000000 0.000000 1.758600 
# 
# From -- ./inp_files/17739.got.cif
#   From: 2010.05.17/outbox.cif.g08.bks.cpg/sg60_9_cif.got.tgz:17739.got - 2010.06.03 14:59:27.
