data_PCOD9453519
_publ_section_title
;
Structure prediction by ZEFSAII (Michael W. Deem and Ramdas Pophale) SiO2 
 PCOD9453519
Probable space group: P M M N
;
_chemical_formula_sum "Si O2"
_cell_formula_units_Z 48
_cell_length_a 9.000000
_cell_length_b 9.000000
_cell_length_c 30.000000
_cell_angle_alpha 90.000000
_cell_angle_beta 90.000000
_cell_angle_gamma 90.000000
_cell_volume 2430.000000
_symmetry_space_group_name_H-M "P M M N"
_symmetry_group_IT_number 59
_space_group.IT_coordinate_system_code '2'
_symmetry_cell_setting 'orthorhombic'
loop_
_space_group_symop_operation_xyz
x,y,z
1/2-x,1/2-y,z
1/2+x,-y,-z
-x,1/2+y,-z
-x,-y,-z
1/2+x,1/2+y,-z
1/2-x,y,z
x,1/2-y,z
loop_
_atom_site_type_symbol
_atom_site_label
_atom_site_fract_x
_atom_site_fract_y
_atom_site_fract_z
Si Si1 0.926347 0.923081 0.124001
Si Si2 0.920964 0.573480 0.958240
Si Si3 0.511764 0.579725 0.389411
Si Si4 0.924629 0.425407 0.784626
Si Si5 0.750000 0.908697 0.466023
Si Si6 0.750000 0.070157 0.554738
Si Si7 0.578005 0.574017 0.692020
O O1 0.750000 0.931125 0.120531
O O2 0.971220 0.750000 0.117794
O O3 0.980286 0.968877 0.172792
O O4 0.000808 0.021284 0.086559
O O5 0.750000 0.526510 0.957141
O O6 0.927690 0.750000 0.962654
O O7 0.000000 0.500000 0.000000
O O8 0.481312 0.750000 0.375429
O O9 0.621310 0.586709 0.430433
O O10 0.381115 0.505257 0.416552
O O11 0.533549 0.489891 0.344752
O O12 0.750000 0.448166 0.794623
O O13 0.946584 0.250000 0.776025
O O14 0.962089 0.515211 0.740554
O O15 0.750000 0.750000 0.490236
O O16 0.750000 0.031069 0.503402
O O17 0.750000 0.250000 0.557879
O O18 0.750000 0.521232 0.683170
O O19 0.578688 0.750000 0.690918
#
# Coordination Sequence:
#
# PCOD9453519 Si02
#       7
#     8   8   8   8   4   4   8
#     4  10  21  38  60  88 120 154 195 239 287 345
#     4  11  24  40  60  88 121 159 202 247 294 343
#     4  10  20  36  55  77 105 139 177 217 266 324
#     4   9  18  34  57  81 108 146 187 229 279 334
#     4  10  22  36  52  78 108 138 172 216 267 320
#     4  10  20  34  56  78 102 138 178 216 261 322
#     4  10  20  34  55  82 107 137 181 230 275 322
#
# _framework density 19.753086
#
# number of rings (size 3 to 8) (size 9 to 14) (size 15 to 20)
#    0.000    2.000    0.833    2.500    0.000    7.000 
#    1.500    1.667    0.000    0.000    0.000    0.000 
#    0.000    0.000    0.000    0.000    0.000    0.000 
#
# Total GULP energy -267210.687395 kJ/mol
# GULP energy per Si atom -5566.889321 kJ/mol
# Density = 1.970813 g / cm^3
# Si number density = 19.753086 Si / 1000 Ang^3
#
#
#
# Elastic Constant Matrix: (Units=GPa)
#
#
# Indices 1 2 3 4 5 6 
#
# 1 25.9512 11.4630 25.1592 0.0000 0.0000 0.0000
# 2 11.4630 22.8922 40.1548 0.0000 0.0000 0.0000
# 3 25.1592 40.1548 97.9487 0.0000 0.0000 0.0000
# 4 0.0000 0.0000 0.0000 32.2259 0.0000 0.0000
# 5 0.0000 0.0000 0.0000 0.0000 87.5650 0.0000
# 6 0.0000 0.0000 0.0000 0.0000 0.0000 17.7416
#
#
#
# Elastic Compliance Matrix: (Units=1/GPa)
#
#
# Indices 1 2 3 4 5 6 
#
# 1 0.051858 -0.009264 -0.009522 0.000000 0.000000 0.000000
# 2 -0.009264 0.157164 -0.062051 0.000000 0.000000 0.000000
# 3 -0.009522 -0.062051 0.038094 0.000000 0.000000 0.000000
# 4 0.000000 0.000000 0.000000 0.031031 0.000000 0.000000
# 5 0.000000 0.000000 0.000000 0.000000 0.011420 0.000000
# 6 0.000000 0.000000 0.000000 0.000000 0.000000 0.056365
#
#
# Mechanical properties :
#
#
# Convention : Reuss Voigt Hill
#
# Bulk Modulus (GPa) = 11.70407 33.37178 22.53793
# Shear Modulus (GPa) = 9.32688 32.17417 20.75052
#
# Velocity S-wave (km/s) = 2.17531 4.04024 3.24465
# Velocity P-wave (km/s) = 3.49962 6.22060 5.04694
#
# Compressibility (1/GPa) = 0.08544040
#
# Stress axis : x y z
#
# Youngs Moduli (GPa) = 19.28357 6.36280 26.25120
#
# Poissons Ratio (x) = 0.05895 0.24997
# Poissons Ratio (y) = 0.17864 1.62891
# Poissons Ratio (z) = 0.18363 0.39482
#
# Static dielectric constant tensor:
#      x y z
#    x 1.946960 0.000000 0.000000 
#    y 0.000000 1.677530 0.000000 
#    z 0.000000 0.000000 1.642320 
# 
# From -- ./inp_files/33103.got.cif
#   From: 2010.05.17/outbox.ucp.g08.bks.cvg/sg59_17_cif.got.tgz:33103.got - 2010.06.11 16:43:56.
