data_PCOD9453429
_publ_section_title
;
Structure prediction by ZEFSAII (Michael W. Deem and Ramdas Pophale) SiO2 
 PCOD9453429
Probable space group: P M M N
;
_chemical_formula_sum "Si O2"
_cell_formula_units_Z 64
_cell_length_a 9.000000
_cell_length_b 21.000000
_cell_length_c 18.000000
_cell_angle_alpha 90.000000
_cell_angle_beta 90.000000
_cell_angle_gamma 90.000000
_cell_volume 3402.000000
_symmetry_space_group_name_H-M "P M M N"
_symmetry_group_IT_number 59
_space_group.IT_coordinate_system_code '2'
_symmetry_cell_setting 'orthorhombic'
loop_
_space_group_symop_operation_xyz
x,y,z
1/2-x,1/2-y,z
1/2+x,-y,-z
-x,1/2+y,-z
-x,-y,-z
1/2+x,1/2+y,-z
1/2-x,y,z
x,1/2-y,z
loop_
_atom_site_type_symbol
_atom_site_label
_atom_site_fract_x
_atom_site_fract_y
_atom_site_fract_z
Si Si1 0.083389 0.324717 0.194946
Si Si2 0.573951 0.590427 0.671334
Si Si3 0.569804 0.177832 0.611097
Si Si4 0.069705 0.929564 0.511947
Si Si5 0.073950 0.593420 0.923490
Si Si6 0.930569 0.179466 0.943162
Si Si7 0.429880 0.863619 0.221405
Si Si8 0.070495 0.998916 0.797765
O O1 0.250000 0.349098 0.174567
O O2 0.081808 0.250000 0.188005
O O3 0.060031 0.345345 0.280139
O O4 0.964426 0.354441 0.139405
O O5 0.750000 0.576319 0.660447
O O6 0.491348 0.591962 0.592645
O O7 0.500924 0.540428 0.729252
O O8 0.750000 0.177943 0.609535
O O9 0.520760 0.250000 0.590391
O O10 0.525812 0.121446 0.553216
O O11 0.527999 0.164820 0.697671
O O12 0.250000 0.933703 0.512417
O O13 0.000000 0.000000 0.500000
O O14 0.250000 0.585710 0.933149
O O15 0.021906 0.530247 0.878483
O O16 0.015404 0.622996 0.001389
O O17 0.750000 0.178358 0.947174
O O18 0.979530 0.250000 0.969114
O O19 0.967373 0.172372 0.855767
O O20 0.250000 0.870477 0.222578
O O21 0.509703 0.930795 0.212043
O O22 0.250000 0.995498 0.793557
#
# Coordination Sequence:
#
# PCOD9453429 Si02
#       8
#     8   8   8   8   8   8   8   8
#     4   9  18  32  50  73 102 136 171 209 259 318
#     4  10  20  35  54  76 104 136 172 214 260 315
#     4   9  19  36  57  81 108 140 182 229 272 318
#     4  11  22  36  57  83 111 143 180 224 273 326
#     4   9  18  32  50  74 104 139 178 219 262 311
#     4   9  17  30  51  78 104 133 176 226 268 313
#     4  10  19  33  56  80 102 135 178 222 271 324
#     4  10  20  34  52  76 108 142 177 219 267 320
#
# _framework density 18.812463000000001
#
# number of rings (size 3 to 8) (size 9 to 14) (size 15 to 20)
#    0.000    2.375    0.000    2.625    0.000    5.250 
#    0.000    1.250    0.000    4.875    0.000    0.000 
#    0.000    0.000    0.000    0.000    0.000    0.000 
#
# Total GULP energy -356530.046701 kJ/mol
# GULP energy per Si atom -5570.781980 kJ/mol
# Density = 1.876965 g / cm^3
# Si number density = 18.812463 Si / 1000 Ang^3
#
#
#
# Elastic Constant Matrix: (Units=GPa)
#
#
# Indices 1 2 3 4 5 6 
#
# 1 26.6717 9.1528 9.0531 0.0000 0.0000 0.0000
# 2 9.1528 96.8305 36.9607 0.0000 0.0000 0.0000
# 3 9.0531 36.9607 125.4872 0.0000 0.0000 0.0000
# 4 0.0000 0.0000 0.0000 24.4589 0.0000 0.0000
# 5 0.0000 0.0000 0.0000 0.0000 20.5381 0.0000
# 6 0.0000 0.0000 0.0000 0.0000 0.0000 21.4585
#
#
#
# Elastic Compliance Matrix: (Units=1/GPa)
#
#
# Indices 1 2 3 4 5 6 
#
# 1 0.039171 -0.002956 -0.001955 0.000000 0.000000 0.000000
# 2 -0.002956 0.011859 -0.003280 0.000000 0.000000 0.000000
# 3 -0.001955 -0.003280 0.009076 0.000000 0.000000 0.000000
# 4 0.000000 0.000000 0.000000 0.040885 0.000000 0.000000
# 5 0.000000 0.000000 0.000000 0.000000 0.048690 0.000000
# 6 0.000000 0.000000 0.000000 0.000000 0.000000 0.046602
#
#
# Mechanical properties :
#
#
# Convention : Reuss Voigt Hill
#
# Bulk Modulus (GPa) = 22.87095 39.92472 31.39784
# Shear Modulus (GPa) = 22.00331 26.21263 24.10797
#
# Velocity S-wave (km/s) = 3.42367 3.73683 3.58367
# Velocity P-wave (km/s) = 5.27375 6.31562 5.81805
#
# Compressibility (1/GPa) = 0.04372358
#
# Stress axis : x y z
#
# Youngs Moduli (GPa) = 25.52901 84.32715 110.18150
#
# Poissons Ratio (x) = 0.24930 0.21543
# Poissons Ratio (y) = 0.07547 0.36134
# Poissons Ratio (z) = 0.04991 0.27655
#
# Static dielectric constant tensor:
#      x y z
#    x 1.646800 0.000000 0.000000 
#    y 0.000000 1.692080 0.000000 
#    z 0.000000 0.000000 1.650210 
# 
# From -- ./inp_files/26252.got.cif
#   From: 2010.05.17/outbox.ucp.g08.bks.cvg/sg59_14_cif.got.tgz:26252.got - 2010.06.11 16:43:56.
