data_PCOD9453319
_publ_section_title
;
Structure prediction by ZEFSAII (Michael W. Deem and Ramdas Pophale) SiO2 
 PCOD9453319
Probable space group: P M M N
;
_chemical_formula_sum "Si O2"
_cell_formula_units_Z 48
_cell_length_a 15.000000
_cell_length_b 21.000000
_cell_length_c 9.000000
_cell_angle_alpha 90.000000
_cell_angle_beta 90.000000
_cell_angle_gamma 90.000000
_cell_volume 2835.000000
_symmetry_space_group_name_H-M "P M M N"
_symmetry_group_IT_number 59
_space_group.IT_coordinate_system_code '2'
_symmetry_cell_setting 'orthorhombic'
loop_
_space_group_symop_operation_xyz
x,y,z
1/2-x,1/2-y,z
1/2+x,-y,-z
-x,1/2+y,-z
-x,-y,-z
1/2+x,1/2+y,-z
1/2-x,y,z
x,1/2-y,z
loop_
_atom_site_type_symbol
_atom_site_label
_atom_site_fract_x
_atom_site_fract_y
_atom_site_fract_z
Si Si1 0.903669 0.960465 0.724071
Si Si2 0.351610 0.593495 0.129143
Si Si3 0.400122 0.516249 0.844543
Si Si4 0.027398 0.324902 0.794008
Si Si5 0.353808 0.110946 0.011046
Si Si6 0.351511 0.422488 0.602654
O O1 0.890869 0.945723 0.552669
O O2 0.006002 0.963982 0.775769
O O3 0.862546 0.028674 0.773094
O O4 0.858389 0.902817 0.815213
O O5 0.250000 0.617312 0.147156
O O6 0.431153 0.641758 0.174782
O O7 0.364223 0.569704 0.957350
O O8 0.402422 0.452816 0.947472
O O9 0.347874 0.485430 0.707156
O O10 0.019660 0.250000 0.754862
O O11 0.088367 0.332702 0.942583
O O12 0.083506 0.369206 0.677245
O O13 0.250000 0.112756 0.963574
O O14 0.250000 0.398362 0.587210
#
# Coordination Sequence:
#
# PCOD9453319 Si02
#       6
#     8   8   8   8   8   8
#     4  11  18  34  56  86 117 139 170 221 282 333
#     4  11  20  35  58  84 110 140 180 230 277 322
#     4  10  17  32  55  82 112 142 166 215 280 326
#     4  11  23  39  55  74 104 150 193 224 263 317
#     4  10  18  33  56  81 109 139 175 224 271 322
#     4  11  22  34  54  86 117 144 175 220 275 336
#
# _framework density 16.931217
#
# number of rings (size 3 to 8) (size 9 to 14) (size 15 to 20)
#    0.000    1.333    5.000    7.000    0.000    1.667 
#    0.000    0.833    0.000    2.000    0.000    0.000 
#    0.000    0.000    0.000    0.000    0.000    0.000 
#
# Total GULP energy -267275.267851 kJ/mol
# GULP energy per Si atom -5568.234747 kJ/mol
# Density = 1.689268 g / cm^3
# Si number density = 16.931217 Si / 1000 Ang^3
#
#
#
# Elastic Constant Matrix: (Units=GPa)
#
#
# Indices 1 2 3 4 5 6 
#
# 1 158.2792 56.7202 40.5357 0.0000 0.0000 0.0000
# 2 56.7202 72.8275 34.6986 0.0000 0.0000 0.0000
# 3 40.5357 34.6986 107.6329 0.0000 0.0000 0.0000
# 4 0.0000 0.0000 0.0000 12.0876 0.0000 0.0000
# 5 0.0000 0.0000 0.0000 0.0000 29.4427 0.0000
# 6 0.0000 0.0000 0.0000 0.0000 0.0000 12.0662
#
#
#
# Elastic Compliance Matrix: (Units=1/GPa)
#
#
# Indices 1 2 3 4 5 6 
#
# 1 0.008921 -0.006317 -0.001323 0.000000 0.000000 0.000000
# 2 -0.006317 0.020697 -0.004293 0.000000 0.000000 0.000000
# 3 -0.001323 -0.004293 0.011173 0.000000 0.000000 0.000000
# 4 0.000000 0.000000 0.000000 0.082729 0.000000 0.000000
# 5 0.000000 0.000000 0.000000 0.000000 0.033964 0.000000
# 6 0.000000 0.000000 0.000000 0.000000 0.000000 0.082876
#
#
# Mechanical properties :
#
#
# Convention : Reuss Voigt Hill
#
# Bulk Modulus (GPa) = 59.08894 66.96097 63.02495
# Shear Modulus (GPa) = 18.52759 24.50498 21.51629
#
# Velocity S-wave (km/s) = 3.31159 3.80850 3.56870
# Velocity P-wave (km/s) = 7.04254 7.67947 7.36789
#
# Compressibility (1/GPa) = 0.01692364
#
# Stress axis : x y z
#
# Youngs Moduli (GPa) = 112.09989 48.31728 89.50091
#
# Poissons Ratio (x) = 0.30523 0.11841
# Poissons Ratio (y) = 0.70817 0.38422
# Poissons Ratio (z) = 0.14831 0.20742
#
# Static dielectric constant tensor:
#      x y z
#    x 1.606090 0.000000 0.000000 
#    y 0.000000 1.546470 0.000000 
#    z 0.000000 0.000000 1.639400 
# 
# From -- ./inp_files/9226.got.cif
#   From: 2010.05.17/outbox.ucp.g08.bks.cvg/sg59_5_cif.got.tgz:9226.got - 2010.06.11 16:43:56.
