data_PCOD9453418
_publ_section_title
;
Structure prediction by ZEFSAII (Michael W. Deem and Ramdas Pophale) SiO2 
 PCOD9453418
Probable space group: P M M N
;
_chemical_formula_sum "Si O2"
_cell_formula_units_Z 64
_cell_length_a 21.000000
_cell_length_b 9.000000
_cell_length_c 18.000000
_cell_angle_alpha 90.000000
_cell_angle_beta 90.000000
_cell_angle_gamma 90.000000
_cell_volume 3402.000000
_symmetry_space_group_name_H-M "P M M N"
_symmetry_group_IT_number 59
_space_group.IT_coordinate_system_code '2'
_symmetry_cell_setting 'orthorhombic'
loop_
_space_group_symop_operation_xyz
x,y,z
1/2-x,1/2-y,z
1/2+x,-y,-z
-x,1/2+y,-z
-x,-y,-z
1/2+x,1/2+y,-z
1/2-x,y,z
x,1/2-y,z
loop_
_atom_site_type_symbol
_atom_site_label
_atom_site_fract_x
_atom_site_fract_y
_atom_site_fract_z
Si Si1 0.820839 0.925214 0.542210
Si Si2 0.434953 0.575910 0.977240
Si Si3 0.938623 0.921893 0.325791
Si Si4 0.319128 0.922270 0.614687
Si Si5 0.884811 0.920476 0.794954
Si Si6 0.971548 0.082373 0.183721
Si Si7 0.576790 0.426548 0.641781
Si Si8 0.319647 0.928974 0.075082
O O1 0.750000 0.958274 0.573619
O O2 0.832449 0.750000 0.550624
O O3 0.818976 0.972259 0.456746
O O4 0.876499 0.019270 0.578415
O O5 0.440977 0.750000 0.995659
O O6 0.429574 0.564960 0.888845
O O7 0.500000 0.500000 0.000000
O O8 0.374041 0.515632 0.019866
O O9 0.923196 0.750000 0.339431
O O10 0.002381 0.963404 0.371470
O O11 0.879217 0.026718 0.339296
O O12 0.959022 0.952937 0.241559
O O13 0.250000 0.938200 0.652530
O O14 0.324917 0.750000 0.591842
O O15 0.864791 0.750000 0.787199
O O16 0.953595 0.923768 0.835784
O O17 0.898963 0.990644 0.715323
O O18 0.835952 0.012855 0.843311
O O19 0.961919 0.250000 0.215496
O O20 0.579766 0.250000 0.652675
O O21 0.250000 0.979085 0.051834
O O22 0.320664 0.750000 0.075435
#
# Coordination Sequence:
#
# PCOD9453418 Si02
#       8
#     8   8   8   8   8   8   8   8
#     4  10  21  37  57  81 109 143 184 228 273 323
#     4  10  19  33  55  79 104 138 181 225 269 321
#     4  10  21  36  56  83 112 143 180 226 274 322
#     4  10  21  38  60  83 108 143 184 224 272 329
#     4  10  19  33  53  76 104 139 178 221 268 317
#     4   9  18  33  53  79 107 135 175 224 270 319
#     4  10  21  36  55  81 112 146 183 223 270 323
#     4  10  21  35  51  75 108 143 178 220 270 325
#
# _framework density 18.812463000000001
#
# number of rings (size 3 to 8) (size 9 to 14) (size 15 to 20)
#    0.000    2.125    1.250    1.875    0.000    5.250 
#    0.000    0.625    0.000    2.250    0.000    0.000 
#    0.000    0.000    0.000    0.000    0.000    0.000 
#
# Total GULP energy -356557.945595 kJ/mol
# GULP energy per Si atom -5571.217900 kJ/mol
# Density = 1.876965 g / cm^3
# Si number density = 18.812463 Si / 1000 Ang^3
#
#
#
# Elastic Constant Matrix: (Units=GPa)
#
#
# Indices 1 2 3 4 5 6 
#
# 1 104.9472 27.0118 24.5751 0.0000 0.0000 0.0000
# 2 27.0118 11.3731 1.7860 0.0000 0.0000 0.0000
# 3 24.5751 1.7860 9.7981 0.0000 0.0000 0.0000
# 4 0.0000 0.0000 0.0000 22.1519 0.0000 0.0000
# 5 0.0000 0.0000 0.0000 0.0000 39.4356 0.0000
# 6 0.0000 0.0000 0.0000 0.0000 0.0000 24.1477
#
#
#
# Elastic Compliance Matrix: (Units=1/GPa)
#
#
# Indices 1 2 3 4 5 6 
#
# 1 -0.377841 0.770630 0.807208 0.000000 0.000000 0.000000
# 2 0.770630 -1.481231 -1.662852 0.000000 0.000000 0.000000
# 3 0.807208 -1.662852 -1.619429 0.000000 0.000000 0.000000
# 4 0.000000 0.000000 0.000000 0.045143 0.000000 0.000000
# 5 0.000000 0.000000 0.000000 0.000000 0.025358 0.000000
# 6 0.000000 0.000000 0.000000 0.000000 0.000000 0.041412
#
#
# Mechanical properties :
#
#
# Convention : Reuss Voigt Hill
#
# Bulk Modulus (GPa) = -0.27408 25.87379 12.79985
# Shear Modulus (GPa) = -1.13308 21.99675 10.43183
#
# Velocity S-wave (km/s) = -0.77693 3.42316 2.35737
# Velocity P-wave (km/s) = 0.97510 5.42286 3.77204
#
# Compressibility (1/GPa) = -3.64852924
#
# Stress axis : x y z
#
# Youngs Moduli (GPa) = -2.64662 -0.67511 -0.61750
#
# Poissons Ratio (x) = 0.52026 0.49845
# Poissons Ratio (y) = 2.03956 -1.02681
# Poissons Ratio (z) = 2.13637 -1.12262
#
# Static dielectric constant tensor:
#      x y z
#    x 1.702960 0.000000 0.000000 
#    y 0.000000 1.639170 0.000000 
#    z 0.000000 0.000000 1.663790 
# 
# From -- ./inp_files/26227.got.cif
#   From: 2010.05.17/outbox.ucp.g08.bks.cvg/sg59_14_cif.got.tgz:26227.got - 2010.06.11 16:43:56.
