data_PCOD9453381
_publ_section_title
;
Structure prediction by ZEFSAII (Michael W. Deem and Ramdas Pophale) SiO2 
 PCOD9453381
Probable space group: P M M N
;
_chemical_formula_sum "Si O2"
_cell_formula_units_Z 64
_cell_length_a 30.000000
_cell_length_b 9.000000
_cell_length_c 15.000000
_cell_angle_alpha 90.000000
_cell_angle_beta 90.000000
_cell_angle_gamma 90.000000
_cell_volume 4050.000000
_symmetry_space_group_name_H-M "P M M N"
_symmetry_group_IT_number 59
_space_group.IT_coordinate_system_code '2'
_symmetry_cell_setting 'orthorhombic'
loop_
_space_group_symop_operation_xyz
x,y,z
1/2-x,1/2-y,z
1/2+x,-y,-z
-x,1/2+y,-z
-x,-y,-z
1/2+x,1/2+y,-z
1/2-x,y,z
x,1/2-y,z
loop_
_atom_site_type_symbol
_atom_site_label
_atom_site_fract_x
_atom_site_fract_y
_atom_site_fract_z
Si Si1 0.698512 0.072972 0.840287
Si Si2 0.959526 0.571504 0.058856
Si Si3 0.062991 0.917665 0.250950
Si Si4 0.116404 0.923233 0.435784
Si Si5 0.697792 0.573810 0.647793
Si Si6 0.112647 0.923334 0.061270
Si Si7 0.527109 0.426008 0.252309
Si Si8 0.041837 0.070590 0.555391
O O1 0.750000 0.048153 0.865116
O O2 0.692401 0.250000 0.822734
O O3 0.663463 0.032865 0.917079
O O4 0.689816 0.987380 0.748020
O O5 0.965231 0.750000 0.062442
O O6 0.958556 0.502634 0.158702
O O7 0.914769 0.524231 0.006550
O O8 0.000000 0.500000 0.000000
O O9 0.042549 0.750000 0.252749
O O10 0.093420 0.929161 0.337978
O O11 0.089384 0.929716 0.158654
O O12 0.025832 0.043116 0.254326
O O13 0.117549 0.750000 0.462707
O O14 0.165171 0.990509 0.419911
O O15 0.085822 0.017429 0.502635
O O16 0.750000 0.547417 0.628383
O O17 0.689314 0.750000 0.646006
O O18 0.110721 0.750000 0.032202
O O19 0.536990 0.250000 0.252469
O O20 0.543233 0.504851 0.343922
O O21 0.037464 0.250000 0.556890
O O22 0.000000 0.000000 0.500000
#
# Coordination Sequence:
#
# PCOD9453381 Si02
#       8
#     8   8   8   8   8   8   8   8
#     4   9  17  31  51  74 103 139 176 215 261 312
#     4  12  24  37  53  75 103 138 178 220 264 314
#     4  10  19  31  50  74 106 141 176 218 259 303
#     4  11  21  35  54  77 105 142 183 220 261 314
#     4  10  20  32  48  74 108 142 177 219 266 316
#     4  10  19  33  51  75 105 139 178 216 258 312
#     4  12  24  38  55  75 102 140 180 222 265 309
#     4  12  24  38  55  78 108 141 178 219 261 313
#
# _framework density 15.802469
#
# number of rings (size 3 to 8) (size 9 to 14) (size 15 to 20)
#    0.000    1.250    3.750    4.125    0.000    1.750 
#    0.000    0.000    0.000    0.000    0.000    0.875 
#    0.000    5.000    0.000    0.000    0.000    0.000 
#
# Total GULP energy -357299.572311 kJ/mol
# GULP energy per Si atom -5582.805817 kJ/mol
# Density = 1.576650 g / cm^3
# Si number density = 15.802469 Si / 1000 Ang^3
#
#
#
# Elastic Constant Matrix: (Units=GPa)
#
#
# Indices 1 2 3 4 5 6 
#
# 1 88.4560 49.4361 40.0159 0.0000 0.0000 0.0000
# 2 49.4361 129.8414 59.0445 0.0000 0.0000 0.0000
# 3 40.0159 59.0445 109.5489 0.0000 0.0000 0.0000
# 4 0.0000 0.0000 0.0000 27.6394 0.0000 0.0000
# 5 0.0000 0.0000 0.0000 0.0000 25.2281 0.0000
# 6 0.0000 0.0000 0.0000 0.0000 0.0000 24.3616
#
#
#
# Elastic Compliance Matrix: (Units=1/GPa)
#
#
# Indices 1 2 3 4 5 6 
#
# 1 0.015171 -0.004313 -0.003217 0.000000 0.000000 0.000000
# 2 -0.004313 0.011429 -0.004584 0.000000 0.000000 0.000000
# 3 -0.003217 -0.004584 0.012774 0.000000 0.000000 0.000000
# 4 0.000000 0.000000 0.000000 0.036180 0.000000 0.000000
# 5 0.000000 0.000000 0.000000 0.000000 0.039638 0.000000
# 6 0.000000 0.000000 0.000000 0.000000 0.000000 0.041048
#
#
# Mechanical properties :
#
#
# Convention : Reuss Voigt Hill
#
# Bulk Modulus (GPa) = 66.02864 69.42660 67.72762
# Shear Modulus (GPa) = 26.95163 27.40249 27.17706
#
# Velocity S-wave (km/s) = 4.13429 4.16873 4.15154
# Velocity P-wave (km/s) = 8.04141 8.19759 8.11987
#
# Compressibility (1/GPa) = 0.01514494
#
# Stress axis : x y z
#
# Youngs Moduli (GPa) = 65.91553 87.49952 78.28310
#
# Poissons Ratio (x) = 0.37742 0.25182
# Poissons Ratio (y) = 0.28432 0.35887
# Poissons Ratio (z) = 0.21204 0.40112
#
# Static dielectric constant tensor:
#      x y z
#    x 1.552000 0.000000 0.000000 
#    y 0.000000 1.541880 0.000000 
#    z 0.000000 0.000000 1.518420 
# 
# From -- ./inp_files/25083.got.cif
#   From: 2010.05.17/outbox.ucp.g08.bks.cvg/sg59_13_cif.got.tgz:25083.got - 2010.06.11 16:43:56.
