data_PCOD9453219
_publ_section_title
;
Structure prediction by ZEFSAII (Michael W. Deem and Ramdas Pophale) SiO2 
 PCOD9453219
Probable space group: P M M N
;
_chemical_formula_sum "Si O2"
_cell_formula_units_Z 64
_cell_length_a 7.421955
_cell_length_b 14.449946
_cell_length_c 30.314832
_cell_angle_alpha 90.000000
_cell_angle_beta 90.000000
_cell_angle_gamma 90.000000
_cell_volume 3251.170209
_symmetry_space_group_name_H-M "P M M N"
_symmetry_group_IT_number 59
_space_group.IT_coordinate_system_code '2'
_symmetry_cell_setting 'orthorhombic'
loop_
_space_group_symop_operation_xyz
x,y,z
1/2-x,1/2-y,z
1/2+x,-y,-z
-x,1/2+y,-z
-x,-y,-z
1/2+x,1/2+y,-z
1/2-x,y,z
x,1/2-y,z
loop_
_atom_site_type_symbol
_atom_site_label
_atom_site_fract_x
_atom_site_fract_y
_atom_site_fract_z
Si Si1 0.536542 0.645140 0.077957
Si Si2 0.530367 0.643184 0.346797
Si Si3 0.470558 0.468639 0.837198
Si Si4 0.969936 0.144186 0.114855
Si Si5 0.465701 0.641929 0.982077
Si Si6 0.534384 0.645363 0.518284
Si Si7 0.534547 0.535877 0.431927
Si Si8 0.969569 0.643489 0.247340
O O1 0.750000 0.652140 0.084538
O O2 0.462044 0.750000 0.076799
O O3 0.468574 0.590076 0.120178
O O4 0.516184 0.600438 0.029363
O O5 0.750000 0.641642 0.346540
O O6 0.478974 0.750000 0.355828
O O7 0.467554 0.575839 0.385591
O O8 0.472759 0.619102 0.297047
O O9 0.250000 0.466927 0.836658
O O10 0.526181 0.573305 0.847571
O O11 0.531043 0.423112 0.791708
O O12 0.750000 0.144953 0.114278
O O13 0.027886 0.250000 0.120569
O O14 0.027454 0.109175 0.066054
O O15 0.250000 0.640559 0.981065
O O16 0.524981 0.750000 0.983918
O O17 0.750000 0.651301 0.514035
O O18 0.466716 0.750000 0.524478
O O19 0.465399 0.597257 0.473183
O O20 0.499814 0.571185 0.556829
O O21 0.750000 0.547206 0.431518
O O22 0.750000 0.642131 0.247238
O O23 0.022016 0.750000 0.238510
#
# Coordination Sequence:
#
# PCOD9453219 Si02
#       8
#     8   8   8   8   8   8   8   8
#     4   9  16  24  35  54  78  98 116 144 183 223
#     4   8  13  22  38  59  81 106 136 168 202 242
#     4   9  15  22  34  52  74  98 122 151 188 227
#     4   8  14  24  36  48  63  89 126 159 183 214
#     4   8  14  25  38  50  68  96 126 151 176 214
#     4   9  17  28  41  59  86 118 148 177 210 249
#     4   9  16  26  42  63  85 111 145 181 212 243
#     4   8  13  21  34  54  79 103 126 154 191 236
#
# _framework density 19.685220000000001
#
# number of rings (size 3 to 8) (size 9 to 14) (size 15 to 20)
#    0.000    3.500    0.000    2.250    0.000    3.750 
#    0.000    0.000    0.000    1.875    0.000    4.375 
#    0.000    1.000    0.000    3.500    0.000    3.250 
#
# Total GULP energy -356754.019748 kJ/mol
# GULP energy per Si atom -5574.281559 kJ/mol
# Density = 1.964042 g / cm^3
# Si number density = 19.685220 Si / 1000 Ang^3
#
#
#
# Elastic Constant Matrix: (Units=GPa)
#
#
# Indices 1 2 3 4 5 6 
#
# 1 61.0030 2.2608 4.2849 0.0000 0.0000 0.0000
# 2 2.2608 141.5711 112.0042 0.0000 0.0000 0.0000
# 3 4.2849 112.0042 169.8953 0.0000 0.0000 0.0000
# 4 0.0000 0.0000 0.0000 34.1363 0.0000 0.0000
# 5 0.0000 0.0000 0.0000 0.0000 7.0399 0.0000
# 6 0.0000 0.0000 0.0000 0.0000 0.0000 2.6751
#
#
#
# Elastic Compliance Matrix: (Units=1/GPa)
#
#
# Indices 1 2 3 4 5 6 
#
# 1 0.016423 0.000137 -0.000504 0.000000 0.000000 0.000000
# 2 0.000137 0.014765 -0.009737 0.000000 0.000000 0.000000
# 3 -0.000504 -0.009737 0.012318 0.000000 0.000000 0.000000
# 4 0.000000 0.000000 0.000000 0.029294 0.000000 0.000000
# 5 0.000000 0.000000 0.000000 0.000000 0.142047 0.000000
# 6 0.000000 0.000000 0.000000 0.000000 0.000000 0.373824
#
#
# Mechanical properties :
#
#
# Convention : Reuss Voigt Hill
#
# Bulk Modulus (GPa) = 42.92542 67.72993 55.32767
# Shear Modulus (GPa) = 8.10837 25.69824 16.90330
#
# Velocity S-wave (km/s) = 2.03174 3.61703 2.93350
# Velocity P-wave (km/s) = 5.23041 7.20591 6.29612
#
# Compressibility (1/GPa) = 0.02329622
#
# Stress axis : x y z
#
# Youngs Moduli (GPa) = 60.89022 67.72672 81.18090
#
# Poissons Ratio (x) = -0.00926 0.04094
# Poissons Ratio (y) = -0.00833 0.79050
# Poissons Ratio (z) = 0.03071 0.65949
#
# Static dielectric constant tensor:
#      x y z
#    x 1.775080 0.000000 0.000000 
#    y 0.000000 1.704410 0.000000 
#    z 0.000000 0.000000 1.684340 
# 
# From -- ./inp_files/33248.got.cif
#   From: 2010.05.17/outbox.cif.g08.bks.cpg/sg59_17_cif.got.tgz:33248.got - 2010.06.03 14:40:33.
