data_PCOD9453150
_publ_section_title
;
Structure prediction by ZEFSAII (Michael W. Deem and Ramdas Pophale) SiO2 
 PCOD9453150
Probable space group: P M M N
;
_chemical_formula_sum "Si O2"
_cell_formula_units_Z 48
_cell_length_a 8.986243
_cell_length_b 17.888523
_cell_length_c 15.765921
_cell_angle_alpha 90.000000
_cell_angle_beta 90.000000
_cell_angle_gamma 90.000000
_cell_volume 2534.381490
_symmetry_space_group_name_H-M "P M M N"
_symmetry_group_IT_number 59
_space_group.IT_coordinate_system_code '2'
_symmetry_cell_setting 'orthorhombic'
loop_
_space_group_symop_operation_xyz
x,y,z
1/2-x,1/2-y,z
1/2+x,-y,-z
-x,1/2+y,-z
-x,-y,-z
1/2+x,1/2+y,-z
1/2-x,y,z
x,1/2-y,z
loop_
_atom_site_type_symbol
_atom_site_label
_atom_site_fract_x
_atom_site_fract_y
_atom_site_fract_z
Si Si1 0.571858 0.663290 0.697202
Si Si2 0.071800 0.162288 0.650733
Si Si3 0.926333 0.336085 0.990070
Si Si4 0.422284 0.659066 0.523093
Si Si5 0.929134 0.905373 0.168840
Si Si6 0.928889 0.566177 0.863015
O O1 0.750000 0.662653 0.687003
O O2 0.525935 0.750000 0.710568
O O3 0.499625 0.634618 0.610157
O O4 0.534756 0.614312 0.778962
O O5 0.250000 0.158923 0.641229
O O6 0.031575 0.250000 0.662122
O O7 0.030218 0.117866 0.735339
O O8 0.998353 0.133827 0.564045
O O9 0.750000 0.352133 0.986319
O O10 0.946115 0.250000 0.016797
O O11 0.999966 0.348690 0.898570
O O12 0.006393 0.390580 0.056177
O O13 0.250000 0.638527 0.523750
O O14 0.433858 0.750000 0.522855
O O15 0.750000 0.905015 0.161718
O O16 0.995561 0.985889 0.146198
O O17 0.750000 0.559359 0.869944
#
# Coordination Sequence:
#
# PCOD9453150 Si02
#       6
#     8   8   8   8   8   8
#     4   9  18  34  56  80 107 143 186 229 274 327
#     4   9  18  34  56  80 107 143 186 229 274 327
#     4  11  24  41  62  87 113 143 182 229 278 329
#     4   9  17  29  50  81 112 141 177 227 280 325
#     4  11  23  39  59  83 114 150 187 228 277 332
#     4  11  23  39  59  83 114 150 187 228 277 332
#
# _framework density 18.939533000000001
#
# number of rings (size 3 to 8) (size 9 to 14) (size 15 to 20)
#    0.000    2.000    0.000    3.500    0.000    7.333 
#    0.000    4.167    0.000    0.000    0.000    0.000 
#    0.000    0.000    0.000    0.000    0.000    0.000 
#
# Total GULP energy -268115.583433 kJ/mol
# GULP energy per Si atom -5585.741322 kJ/mol
# Density = 1.889643 g / cm^3
# Si number density = 18.939533 Si / 1000 Ang^3
#
#
#
# Elastic Constant Matrix: (Units=GPa)
#
#
# Indices 1 2 3 4 5 6 
#
# 1 43.4492 15.4016 27.9033 0.0000 0.0000 0.0000
# 2 15.4016 37.1612 3.7469 0.0000 0.0000 0.0000
# 3 27.9033 3.7469 90.3464 0.0000 0.0000 0.0000
# 4 0.0000 0.0000 0.0000 -3.7509 0.0000 0.0000
# 5 0.0000 0.0000 0.0000 0.0000 25.7671 0.0000
# 6 0.0000 0.0000 0.0000 0.0000 0.0000 11.6580
#
#
#
# Elastic Compliance Matrix: (Units=1/GPa)
#
#
# Indices 1 2 3 4 5 6 
#
# 1 0.034074 -0.013116 -0.009980 0.000000 0.000000 0.000000
# 2 -0.013116 0.032071 0.002721 0.000000 0.000000 0.000000
# 3 -0.009980 0.002721 0.014038 0.000000 0.000000 0.000000
# 4 0.000000 0.000000 0.000000 -0.266601 0.000000 0.000000
# 5 0.000000 0.000000 0.000000 0.000000 0.038809 0.000000
# 6 0.000000 0.000000 0.000000 0.000000 0.000000 0.085778
#
#
# Mechanical properties :
#
#
# Convention : Reuss Voigt Hill
#
# Bulk Modulus (GPa) = 25.35915 29.45115 27.40515
# Shear Modulus (GPa) = -629.93815 14.99515 -307.47150
#
# Velocity S-wave (km/s) = -18.25724 2.81684 -12.75524
# Velocity P-wave (km/s) = 20.76096 5.11501 14.22769
#
# Compressibility (1/GPa) = 0.03943349
#
# Stress axis : x y z
#
# Youngs Moduli (GPa) = 29.34828 31.18048 71.23591
#
# Poissons Ratio (x) = 0.40895 0.71091
# Poissons Ratio (y) = 0.38492 -0.19381
# Poissons Ratio (z) = 0.29288 -0.08483
#
# Static dielectric constant tensor:
#      x y z
#    x 1.629100 0.000000 0.000000 
#    y 0.000000 1.657600 0.000000 
#    z 0.000000 0.000000 1.638830 
# 
# From -- ./inp_files/20416.got.cif
#   From: 2010.05.17/outbox.cif.g08.bks.cpg/sg59_11_cif.got.tgz:20416.got - 2010.06.03 14:40:33.
