data_PCOD9453523
_publ_section_title
;
Structure prediction by ZEFSAII (Michael W. Deem and Ramdas Pophale) SiO2 
 PCOD9453523
Probable space group: P M M N
;
_chemical_formula_sum "Si O2"
_cell_formula_units_Z 48
_cell_length_a 9.000000
_cell_length_b 18.000000
_cell_length_c 15.000000
_cell_angle_alpha 90.000000
_cell_angle_beta 90.000000
_cell_angle_gamma 90.000000
_cell_volume 2430.000000
_symmetry_space_group_name_H-M "P M M N"
_symmetry_group_IT_number 59
_space_group.IT_coordinate_system_code '2'
_symmetry_cell_setting 'orthorhombic'
loop_
_space_group_symop_operation_xyz
x,y,z
1/2-x,1/2-y,z
1/2+x,-y,-z
-x,1/2+y,-z
-x,-y,-z
1/2+x,1/2+y,-z
1/2-x,y,z
x,1/2-y,z
loop_
_atom_site_type_symbol
_atom_site_label
_atom_site_fract_x
_atom_site_fract_y
_atom_site_fract_z
Si Si1 0.576708 0.104682 0.659136
Si Si2 0.923440 0.579066 0.009866
Si Si3 0.927291 0.334733 0.144788
Si Si4 0.574468 0.919268 0.511071
Si Si5 0.427067 0.064900 0.293060
Si Si6 0.583156 0.831872 0.185315
O O1 0.750000 0.100653 0.639618
O O2 0.491415 0.126798 0.569756
O O3 0.536208 0.158841 0.738349
O O4 0.530897 0.021675 0.692739
O O5 0.750000 0.573808 0.986148
O O6 0.936222 0.606748 0.110580
O O7 0.000000 0.500000 0.000000
O O8 0.001887 0.639037 0.947497
O O9 0.750000 0.338279 0.139229
O O10 0.971023 0.250000 0.166392
O O11 0.985587 0.393146 0.217064
O O12 0.750000 0.927349 0.501551
O O13 0.544402 0.895431 0.611961
O O14 0.500000 0.000000 0.500000
O O15 0.250000 0.066743 0.274918
O O16 0.750000 0.840102 0.223837
O O17 0.574859 0.750000 0.144010
#
# Coordination Sequence:
#
# PCOD9453523 Si02
#       6
#     8   8   8   8   8   8
#     4  10  20  34  55  84 113 143 183 230 279 330
#     4  11  23  40  63  87 111 143 184 230 278 330
#     4  11  24  39  56  82 115 149 185 227 276 330
#     4   9  17  31  53  81 111 144 184 231 278 324
#     4   9  19  35  56  82 110 144 187 230 274 327
#     4  10  22  39  57  79 109 146 185 223 269 327
#
# _framework density 19.753086
#
# number of rings (size 3 to 8) (size 9 to 14) (size 15 to 20)
#    0.000    2.000    0.000    4.500    0.000   10.333 
#    0.000    0.833    0.000    1.000    0.000    0.000 
#    0.000    0.000    0.000    0.000    0.000    0.000 
#
# Total GULP energy -267784.755887 kJ/mol
# GULP energy per Si atom -5578.849081 kJ/mol
# Density = 1.970813 g / cm^3
# Si number density = 19.753086 Si / 1000 Ang^3
#
#
#
# Elastic Constant Matrix: (Units=GPa)
#
#
# Indices 1 2 3 4 5 6 
#
# 1 34.6403 9.7852 35.5847 0.0000 0.0000 0.0000
# 2 9.7852 43.7937 6.5142 0.0000 0.0000 0.0000
# 3 35.5847 6.5142 57.2350 0.0000 0.0000 0.0000
# 4 0.0000 0.0000 0.0000 435.7619 0.0000 0.0000
# 5 0.0000 0.0000 0.0000 0.0000 30.1449 0.0000
# 6 0.0000 0.0000 0.0000 0.0000 0.0000 20.6286
#
#
#
# Elastic Compliance Matrix: (Units=1/GPa)
#
#
# Indices 1 2 3 4 5 6 
#
# 1 0.085090 -0.011335 -0.051613 0.000000 0.000000 0.000000
# 2 -0.011335 0.024738 0.004232 0.000000 0.000000 0.000000
# 3 -0.051613 0.004232 0.049079 0.000000 0.000000 0.000000
# 4 0.000000 0.000000 0.000000 0.002295 0.000000 0.000000
# 5 0.000000 0.000000 0.000000 0.000000 0.033173 0.000000
# 6 0.000000 0.000000 0.000000 0.000000 0.000000 0.048476
#
#
# Mechanical properties :
#
#
# Convention : Reuss Voigt Hill
#
# Bulk Modulus (GPa) = 24.11102 26.60412 25.35757
# Shear Modulus (GPa) = 13.36511 102.89273 58.12892
#
# Velocity S-wave (km/s) = 2.60399 7.22513 5.43062
# Velocity P-wave (km/s) = 4.61235 9.11597 7.22408
#
# Compressibility (1/GPa) = 0.04147481
#
# Stress axis : x y z
#
# Youngs Moduli (GPa) = 11.75227 40.42439 20.37516
#
# Poissons Ratio (x) = 0.45821 1.05162
# Poissons Ratio (y) = 0.13321 -0.08622
# Poissons Ratio (z) = 0.60657 -0.17107
#
# Static dielectric constant tensor:
#      x y z
#    x 1.664300 0.000000 0.000000 
#    y 0.000000 2.014450 0.000000 
#    z 0.000000 0.000000 1.653230 
# 
# From -- ./inp_files/20288.got.cif
#   From: 2010.05.17/outbox.ucp.g08.bks.cvg/sg59_11_cif.got.tgz:20288.got - 2010.06.11 16:43:56.
