data_PCOD9453559
_publ_section_title
;
Structure prediction by ZEFSAII (Michael W. Deem and Ramdas Pophale) SiO2 
 PCOD9453559
Probable space group: P M M N
;
_chemical_formula_sum "Si O2"
_cell_formula_units_Z 48
_cell_length_a 9.000000
_cell_length_b 18.000000
_cell_length_c 15.000000
_cell_angle_alpha 90.000000
_cell_angle_beta 90.000000
_cell_angle_gamma 90.000000
_cell_volume 2430.000000
_symmetry_space_group_name_H-M "P M M N"
_symmetry_group_IT_number 59
_space_group.IT_coordinate_system_code '2'
_symmetry_cell_setting 'orthorhombic'
loop_
_space_group_symop_operation_xyz
x,y,z
1/2-x,1/2-y,z
1/2+x,-y,-z
-x,1/2+y,-z
-x,-y,-z
1/2+x,1/2+y,-z
1/2-x,y,z
x,1/2-y,z
loop_
_atom_site_type_symbol
_atom_site_label
_atom_site_fract_x
_atom_site_fract_y
_atom_site_fract_z
Si Si1 0.430904 0.664889 0.939113
Si Si2 0.082590 0.662001 0.130347
Si Si3 0.075998 0.575359 0.465377
Si Si4 0.081752 0.410732 0.717523
Si Si5 0.924013 0.665277 0.609865
Si Si6 0.922370 0.420603 0.234548
O O1 0.250000 0.666442 0.941762
O O2 0.481261 0.750000 0.925448
O O3 0.475520 0.613921 0.857626
O O4 0.476064 0.633947 0.035265
O O5 0.250000 0.633014 0.148803
O O6 0.095682 0.750000 0.117359
O O7 0.972672 0.646597 0.209829
O O8 0.250000 0.567563 0.476998
O O9 0.000000 0.500000 0.500000
O O10 0.028951 0.587773 0.364621
O O11 0.014918 0.643264 0.522972
O O12 0.250000 0.397927 0.686143
O O13 0.075315 0.491181 0.763590
O O14 0.750000 0.655437 0.592458
O O15 0.951375 0.750000 0.637033
O O16 0.978730 0.610873 0.686571
O O17 0.750000 0.397280 0.249801
#
# Coordination Sequence:
#
# PCOD9453559 Si02
#       6
#     8   8   8   8   8   8
#     4   8  15  31  56  83 112 150 197 244 288 339
#     4   9  19  37  59  82 111 152 201 248 293 345
#     4  12  24  41  64  86 114 154 195 238 291 351
#     4  11  23  37  57  87 119 153 192 239 293 350
#     4  11  24  40  60  89 122 154 193 242 291 343
#     4  10  20  35  58  86 117 155 196 238 289 351
#
# _framework density 19.753086
#
# number of rings (size 3 to 8) (size 9 to 14) (size 15 to 20)
#    0.000    1.833    1.667    4.000    0.000    4.333 
#    0.000    0.833    0.000    1.000    0.000    0.000 
#    0.000    0.000    0.000    0.000    0.000    0.000 
#
# Total GULP energy -267804.192748 kJ/mol
# GULP energy per Si atom -5579.254016 kJ/mol
# Density = 1.970813 g / cm^3
# Si number density = 19.753086 Si / 1000 Ang^3
#
#
#
# Elastic Constant Matrix: (Units=GPa)
#
#
# Indices 1 2 3 4 5 6 
#
# 1 38.1650 23.1965 -5.4298 0.0000 0.0000 0.0000
# 2 23.1965 15.9093 17.3923 0.0000 0.0000 0.0000
# 3 -5.4298 17.3923 72.0424 0.0000 0.0000 0.0000
# 4 0.0000 0.0000 0.0000 29.5128 0.0000 0.0000
# 5 0.0000 0.0000 0.0000 0.0000 0.5786 0.0000
# 6 0.0000 0.0000 0.0000 0.0000 0.0000 -7.4409
#
#
#
# Elastic Compliance Matrix: (Units=1/GPa)
#
#
# Indices 1 2 3 4 5 6 
#
# 1 -0.073896 0.154647 -0.042904 0.000000 0.000000 0.000000
# 2 0.154647 -0.238248 0.069173 0.000000 0.000000 0.000000
# 3 -0.042904 0.069173 -0.006053 0.000000 0.000000 0.000000
# 4 0.000000 0.000000 0.000000 0.033884 0.000000 0.000000
# 5 0.000000 0.000000 0.000000 0.000000 1.728388 0.000000
# 6 0.000000 0.000000 0.000000 0.000000 0.000000 -0.134393
#
#
# Mechanical properties :
#
#
# Convention : Reuss Voigt Hill
#
# Bulk Modulus (GPa) = 22.91688 21.82610 22.37149
# Shear Modulus (GPa) = 5.19537 10.59394 7.89466
#
# Velocity S-wave (km/s) = 1.62354 2.31837 2.00134
# Velocity P-wave (km/s) = 3.89119 4.27082 4.08542
#
# Compressibility (1/GPa) = 0.04363595
#
# Stress axis : x y z
#
# Youngs Moduli (GPa) = -13.53252 -4.19731 -165.21886
#
# Poissons Ratio (x) = 0.64910 -7.08858
# Poissons Ratio (y) = 2.09277 11.42870
# Poissons Ratio (z) = -0.58060 0.29034
#
# Static dielectric constant tensor:
#      x y z
#    x 1.675160 0.000000 0.000000 
#    y 0.000000 1.689630 0.000000 
#    z 0.000000 0.000000 1.699740 
# 
# From -- ./inp_files/20343.got.cif
#   From: 2010.05.17/outbox.ucp.g08.bks.cvg/sg59_11_cif.got.tgz:20343.got - 2010.06.11 16:43:56.
