data_PCOD9453354
_publ_section_title
;
Structure prediction by ZEFSAII (Michael W. Deem and Ramdas Pophale) SiO2 
 PCOD9453354
Probable space group: P M M N
;
_chemical_formula_sum "Si O2"
_cell_formula_units_Z 64
_cell_length_a 9.000000
_cell_length_b 24.000000
_cell_length_c 18.000000
_cell_angle_alpha 90.000000
_cell_angle_beta 90.000000
_cell_angle_gamma 90.000000
_cell_volume 3888.000000
_symmetry_space_group_name_H-M "P M M N"
_symmetry_group_IT_number 59
_space_group.IT_coordinate_system_code '2'
_symmetry_cell_setting 'orthorhombic'
loop_
_space_group_symop_operation_xyz
x,y,z
1/2-x,1/2-y,z
1/2+x,-y,-z
-x,1/2+y,-z
-x,-y,-z
1/2+x,1/2+y,-z
1/2-x,y,z
x,1/2-y,z
loop_
_atom_site_type_symbol
_atom_site_label
_atom_site_fract_x
_atom_site_fract_y
_atom_site_fract_z
Si Si1 0.428163 0.027119 0.837613
Si Si2 0.429141 0.901123 0.853243
Si Si3 0.070065 0.684241 0.412607
Si Si4 0.921592 0.317492 0.419072
Si Si5 0.927075 0.627014 0.270527
Si Si6 0.578075 0.313409 0.860840
Si Si7 0.571973 0.684106 0.736951
Si Si8 0.573921 0.412000 0.974077
O O1 0.250000 0.032391 0.844254
O O2 0.475351 0.069342 0.771376
O O3 0.495354 0.044717 0.917821
O O4 0.463414 0.962854 0.821868
O O5 0.250000 0.893106 0.852121
O O6 0.503096 0.853906 0.802183
O O7 0.475478 0.904343 0.940571
O O8 0.250000 0.681924 0.409589
O O9 0.028772 0.750000 0.401484
O O10 0.026177 0.666832 0.497284
O O11 0.002714 0.645862 0.347586
O O12 0.750000 0.335751 0.410532
O O13 0.921755 0.250000 0.420693
O O14 0.011861 0.333435 0.345072
O O15 0.750000 0.625102 0.280905
O O16 0.973132 0.671770 0.207800
O O17 0.750000 0.321650 0.836194
O O18 0.559620 0.250000 0.883674
O O19 0.552809 0.354205 0.929707
O O20 0.750000 0.679550 0.737943
O O21 0.533244 0.750000 0.747090
O O22 0.750000 0.425409 0.976296
#
# Coordination Sequence:
#
# PCOD9453354 Si02
#       8
#     8   8   8   8   8   8   8   8
#     4   9  19  34  49  68  96 128 161 200 244 284
#     4  10  20  34  53  73  93 123 163 201 238 285
#     4   9  17  29  47  72  99 126 158 194 231 275
#     4   8  15  30  51  72  95 125 157 188 228 279
#     4  10  19  29  43  66  96 127 159 195 233 275
#     4   9  17  29  43  61  91 126 156 191 235 281
#     4  10  21  35  51  75 104 127 150 188 239 288
#     4   9  18  31  49  72  92 119 163 208 245 280
#
# _framework density 16.460905
#
# number of rings (size 3 to 8) (size 9 to 14) (size 15 to 20)
#    0.000    2.750    0.000    2.250    0.000    5.250 
#    0.000    2.500    0.000    0.750    0.000    0.000 
#    0.000    0.000    0.000    0.000    0.000    0.000 
#
# Total GULP energy -356471.085087 kJ/mol
# GULP energy per Si atom -5569.860704 kJ/mol
# Density = 1.642344 g / cm^3
# Si number density = 16.460905 Si / 1000 Ang^3
#
#
#
# Elastic Constant Matrix: (Units=GPa)
#
#
# Indices 1 2 3 4 5 6 
#
# 1 35.4001 32.4018 43.9612 0.0000 0.0000 0.0000
# 2 32.4018 82.0552 58.9746 0.0000 0.0000 0.0000
# 3 43.9612 58.9746 144.4078 0.0000 0.0000 0.0000
# 4 0.0000 0.0000 0.0000 20.4443 0.0000 0.0000
# 5 0.0000 0.0000 0.0000 0.0000 25.8888 0.0000
# 6 0.0000 0.0000 0.0000 0.0000 0.0000 19.6257
#
#
#
# Elastic Compliance Matrix: (Units=1/GPa)
#
#
# Indices 1 2 3 4 5 6 
#
# 1 0.054300 -0.013534 -0.011003 0.000000 0.000000 0.000000
# 2 -0.013534 0.020623 -0.004302 0.000000 0.000000 0.000000
# 3 -0.011003 -0.004302 0.012032 0.000000 0.000000 0.000000
# 4 0.000000 0.000000 0.000000 0.048913 0.000000 0.000000
# 5 0.000000 0.000000 0.000000 0.000000 0.038627 0.000000
# 6 0.000000 0.000000 0.000000 0.000000 0.000000 0.050954
#
#
# Mechanical properties :
#
#
# Convention : Reuss Voigt Hill
#
# Bulk Modulus (GPa) = 34.15719 59.17092 46.66406
# Shear Modulus (GPa) = 17.07147 21.62678 19.34913
#
# Velocity S-wave (km/s) = 3.22388 3.62861 3.43222
# Velocity P-wave (km/s) = 5.88672 7.31984 6.64205
#
# Compressibility (1/GPa) = 0.02927641
#
# Stress axis : x y z
#
# Youngs Moduli (GPa) = 18.41612 48.48903 83.11490
#
# Poissons Ratio (x) = 0.65623 0.91454
# Poissons Ratio (y) = 0.24924 0.35759
# Poissons Ratio (z) = 0.20264 0.20862
#
# Static dielectric constant tensor:
#      x y z
#    x 1.566120 0.000000 0.000000 
#    y 0.000000 1.561240 0.000000 
#    z 0.000000 0.000000 1.544780 
# 
# From -- ./inp_files/26469.got.cif
#   From: 2010.05.17/outbox.ucp.g08.bks.cvg/sg59_14_cif.got.tgz:26469.got - 2010.06.11 16:43:56.
