data_PCOD9453147
_publ_section_title
;
Structure prediction by ZEFSAII (Michael W. Deem and Ramdas Pophale) SiO2 
 PCOD9453147
Probable space group: P M M N
;
_chemical_formula_sum "Si O2"
_cell_formula_units_Z 48
_cell_length_a 15.783241
_cell_length_b 8.966545
_cell_length_c 17.840769
_cell_angle_alpha 90.000000
_cell_angle_beta 90.000000
_cell_angle_gamma 90.000000
_cell_volume 2524.845979
_symmetry_space_group_name_H-M "P M M N"
_symmetry_group_IT_number 59
_space_group.IT_coordinate_system_code '2'
_symmetry_cell_setting 'orthorhombic'
loop_
_space_group_symop_operation_xyz
x,y,z
1/2-x,1/2-y,z
1/2+x,-y,-z
-x,1/2+y,-z
-x,-y,-z
1/2+x,1/2+y,-z
1/2-x,y,z
x,1/2-y,z
loop_
_atom_site_type_symbol
_atom_site_label
_atom_site_fract_x
_atom_site_fract_y
_atom_site_fract_z
Si Si1 0.150033 0.430820 0.817537
Si Si2 0.350955 0.082422 0.650225
Si Si3 0.996503 0.069983 0.082266
Si Si4 0.591143 0.074034 0.498371
Si Si5 0.350572 0.082341 0.353196
Si Si6 0.151981 0.068399 0.189188
O O1 0.250000 0.469788 0.828389
O O2 0.144752 0.250000 0.822895
O O3 0.121930 0.471708 0.732438
O O4 0.086051 0.507767 0.874712
O O5 0.250000 0.095585 0.656882
O O6 0.385629 0.250000 0.636606
O O7 0.368684 0.980950 0.579255
O O8 0.993367 0.250000 0.078862
O O9 0.082029 0.026537 0.128017
O O10 0.000000 0.000000 0.000000
O O11 0.587484 0.250000 0.499748
O O12 0.500000 0.000000 0.500000
O O13 0.634799 0.014550 0.573664
O O14 0.250000 0.096611 0.343850
O O15 0.386203 0.250000 0.365072
O O16 0.378760 0.020322 0.272458
O O17 0.250000 0.019969 0.175102
O O18 0.154135 0.250000 0.192119
#
# Coordination Sequence:
#
# PCOD9453147 Si02
#       6
#     8   8   8   8   8   8
#     4   9  20  40  64  88 118 157 197 241 299 359
#     4   9  19  38  61  83 111 150 192 235 290 350
#     4  11  23  38  60  91 122 155 197 243 294 353
#     4  12  25  36  50  78 115 153 194 238 285 336
#     4   9  18  36  60  82 108 144 186 235 291 346
#     4   8  17  36  61  86 113 150 194 237 287 350
#
# _framework density 19.011058999999999
#
# number of rings (size 3 to 8) (size 9 to 14) (size 15 to 20)
#    0.000    2.333    0.000    4.500    2.333    4.333 
#    0.000    4.167    0.000    3.500    0.000    0.000 
#    0.000    0.000    0.000    0.000    0.000    0.000 
#
# Total GULP energy -267675.308474 kJ/mol
# GULP energy per Si atom -5576.568927 kJ/mol
# Density = 1.896779 g / cm^3
# Si number density = 19.011059 Si / 1000 Ang^3
#
#
#
# Elastic Constant Matrix: (Units=GPa)
#
#
# Indices 1 2 3 4 5 6 
#
# 1 79.6311 29.7722 75.7610 0.0000 0.0000 0.0000
# 2 29.7722 71.9906 76.6078 0.0000 0.0000 0.0000
# 3 75.7610 76.6078 203.3343 0.0000 0.0000 0.0000
# 4 0.0000 0.0000 0.0000 19.2305 0.0000 0.0000
# 5 0.0000 0.0000 0.0000 0.0000 37.6748 0.0000
# 6 0.0000 0.0000 0.0000 0.0000 0.0000 26.8615
#
#
#
# Elastic Compliance Matrix: (Units=1/GPa)
#
#
# Indices 1 2 3 4 5 6 
#
# 1 0.019467 -0.000555 -0.007044 0.000000 0.000000 0.000000
# 2 -0.000555 0.023203 -0.008535 0.000000 0.000000 0.000000
# 3 -0.007044 -0.008535 0.010758 0.000000 0.000000 0.000000
# 4 0.000000 0.000000 0.000000 0.052001 0.000000 0.000000
# 5 0.000000 0.000000 0.000000 0.000000 0.026543 0.000000
# 6 0.000000 0.000000 0.000000 0.000000 0.000000 0.037228
#
#
# Mechanical properties :
#
#
# Convention : Reuss Voigt Hill
#
# Bulk Modulus (GPa) = 47.25893 79.91534 63.58713
# Shear Modulus (GPa) = 23.97832 28.27437 26.12634
#
# Velocity S-wave (km/s) = 3.55531 3.86068 3.71114
# Velocity P-wave (km/s) = 6.46268 7.87405 7.20302
#
# Compressibility (1/GPa) = 0.02116002
#
# Stress axis : x y z
#
# Youngs Moduli (GPa) = 51.36801 43.09860 92.95047
#
# Poissons Ratio (x) = 0.02390 0.65479
# Poissons Ratio (y) = 0.02849 0.79335
# Poissons Ratio (z) = 0.36186 0.36785
#
# Static dielectric constant tensor:
#      x y z
#    x 1.628480 0.000000 0.000000 
#    y 0.000000 1.649790 0.000000 
#    z 0.000000 0.000000 1.805540 
# 
# From -- ./inp_files/25466.got.cif
#   From: 2010.05.17/outbox.cif.g08.bks.cpg/sg59_13_cif.got.tgz:25466.got - 2010.06.03 14:40:33.
