data_PCOD9453375
_publ_section_title
;
Structure prediction by ZEFSAII (Michael W. Deem and Ramdas Pophale) SiO2 
 PCOD9453375
Probable space group: P M M N
;
_chemical_formula_sum "Si O2"
_cell_formula_units_Z 48
_cell_length_a 9.000000
_cell_length_b 18.000000
_cell_length_c 18.000000
_cell_angle_alpha 90.000000
_cell_angle_beta 90.000000
_cell_angle_gamma 90.000000
_cell_volume 2916.000000
_symmetry_space_group_name_H-M "P M M N"
_symmetry_group_IT_number 59
_space_group.IT_coordinate_system_code '2'
_symmetry_cell_setting 'orthorhombic'
loop_
_space_group_symop_operation_xyz
x,y,z
1/2-x,1/2-y,z
1/2+x,-y,-z
-x,1/2+y,-z
-x,-y,-z
1/2+x,1/2+y,-z
1/2-x,y,z
x,1/2-y,z
loop_
_atom_site_type_symbol
_atom_site_label
_atom_site_fract_x
_atom_site_fract_y
_atom_site_fract_z
Si Si1 0.429184 0.836206 0.826969
Si Si2 0.918956 0.925758 0.699996
Si Si3 0.427891 0.478663 0.578214
Si Si4 0.570386 0.163263 0.659490
Si Si5 0.582799 0.426285 0.801424
Si Si6 0.426286 0.981679 0.921914
O O1 0.250000 0.840476 0.818062
O O2 0.465893 0.750000 0.845596
O O3 0.508152 0.862136 0.750716
O O4 0.470784 0.900912 0.886762
O O5 0.750000 0.906975 0.676811
O O6 0.908881 0.999634 0.750905
O O7 0.020741 0.955075 0.633367
O O8 0.500000 0.500000 0.500000
O O9 0.250000 0.474470 0.574547
O O10 0.492190 0.399636 0.608791
O O11 0.750000 0.155630 0.650957
O O12 0.531817 0.250000 0.645719
O O13 0.536881 0.138879 0.744857
O O14 0.750000 0.410797 0.829672
O O15 0.474730 0.452222 0.866256
O O16 0.250000 0.980204 0.929369
O O17 0.500000 0.000000 0.000000
#
# Coordination Sequence:
#
# PCOD9453375 Si02
#       6
#     8   8   8   8   8   8
#     4   9  18  33  52  74  99 128 165 209 257 306
#     4   9  17  31  51  74  98 126 163 202 243 295
#     4  11  21  34  53  76 104 137 172 209 250 298
#     4   9  18  34  55  78 104 133 166 207 255 303
#     4   8  15  29  49  71  95 125 160 196 237 291
#     4  10  19  31  49  71  97 131 168 207 250 299
#
# _framework density 16.460905
#
# number of rings (size 3 to 8) (size 9 to 14) (size 15 to 20)
#    0.000    2.667    0.000    3.500    0.000    5.333 
#    0.000    1.667    0.000   10.000    0.000    0.000 
#    0.000    0.000    0.000    0.000    0.000    0.000 
#
# Total GULP energy -267238.753640 kJ/mol
# GULP energy per Si atom -5567.474034 kJ/mol
# Density = 1.642344 g / cm^3
# Si number density = 16.460905 Si / 1000 Ang^3
#
#
#
# Elastic Constant Matrix: (Units=GPa)
#
#
# Indices 1 2 3 4 5 6 
#
# 1 85.7684 47.8007 60.5536 0.0000 0.0000 0.0000
# 2 47.8007 117.3882 56.7936 0.0000 0.0000 0.0000
# 3 60.5536 56.7936 108.3290 0.0000 0.0000 0.0000
# 4 0.0000 0.0000 0.0000 20.6827 0.0000 0.0000
# 5 0.0000 0.0000 0.0000 0.0000 28.9546 0.0000
# 6 0.0000 0.0000 0.0000 0.0000 0.0000 25.5125
#
#
#
# Elastic Compliance Matrix: (Units=1/GPa)
#
#
# Indices 1 2 3 4 5 6 
#
# 1 0.020417 -0.003741 -0.009451 0.000000 0.000000 0.000000
# 2 -0.003741 0.012099 -0.004252 0.000000 0.000000 0.000000
# 3 -0.009451 -0.004252 0.016743 0.000000 0.000000 0.000000
# 4 0.000000 0.000000 0.000000 0.048350 0.000000 0.000000
# 5 0.000000 0.000000 0.000000 0.000000 0.034537 0.000000
# 6 0.000000 0.000000 0.000000 0.000000 0.000000 0.039196
#
#
# Mechanical properties :
#
#
# Convention : Reuss Voigt Hill
#
# Bulk Modulus (GPa) = 69.58597 71.30904 70.44750
# Shear Modulus (GPa) = 23.69417 24.78581 24.23999
#
# Velocity S-wave (km/s) = 3.79809 3.88459 3.84158
# Velocity P-wave (km/s) = 7.84852 7.97085 7.90992
#
# Compressibility (1/GPa) = 0.01437071
#
# Stress axis : x y z
#
# Youngs Moduli (GPa) = 48.97846 82.64893 59.72488
#
# Poissons Ratio (x) = 0.30921 0.56448
# Poissons Ratio (y) = 0.18324 0.25395
# Poissons Ratio (z) = 0.46291 0.35143
#
# Static dielectric constant tensor:
#      x y z
#    x 1.578310 0.000000 0.000000 
#    y 0.000000 1.540850 0.000000 
#    z 0.000000 0.000000 1.570820 
# 
# From -- ./inp_files/25763.got.cif
#   From: 2010.05.17/outbox.ucp.g08.bks.cvg/sg59_13_cif.got.tgz:25763.got - 2010.06.11 16:43:56.
