data_PCOD9453052
_publ_section_title
;
Structure prediction by ZEFSAII (Michael W. Deem and Ramdas Pophale) SiO2 
 PCOD9453052
Probable space group: P M M N
;
_chemical_formula_sum "Si O2"
_cell_formula_units_Z 48
_cell_length_a 8.052455
_cell_length_b 28.750159
_cell_length_c 10.325029
_cell_angle_alpha 90.000000
_cell_angle_beta 90.000000
_cell_angle_gamma 90.000000
_cell_volume 2390.340872
_symmetry_space_group_name_H-M "P M M N"
_symmetry_group_IT_number 59
_space_group.IT_coordinate_system_code '2'
_symmetry_cell_setting 'orthorhombic'
loop_
_space_group_symop_operation_xyz
x,y,z
1/2-x,1/2-y,z
1/2+x,-y,-z
-x,1/2+y,-z
-x,-y,-z
1/2+x,1/2+y,-z
1/2-x,y,z
x,1/2-y,z
loop_
_atom_site_type_symbol
_atom_site_label
_atom_site_fract_x
_atom_site_fract_y
_atom_site_fract_z
Si Si1 0.546985 0.599556 0.026358
Si Si2 0.547654 0.801673 0.106676
Si Si3 0.438261 0.605181 0.544954
Si Si4 0.056451 0.052745 0.704041
Si Si5 0.058545 0.452485 0.228257
Si Si6 0.950439 0.802364 0.409052
O O1 0.750000 0.599330 0.022082
O O2 0.492482 0.653390 0.026561
O O3 0.498383 0.576982 0.163152
O O4 0.490749 0.568986 0.905124
O O5 0.750000 0.801133 0.103398
O O6 0.491206 0.750000 0.066680
O O7 0.501974 0.808844 0.257881
O O8 0.250000 0.602425 0.590591
O O9 0.462748 0.571965 0.420594
O O10 0.550037 0.586531 0.661138
O O11 0.479088 0.656794 0.496222
O O12 0.250000 0.065150 0.685755
O O13 0.036886 0.997829 0.722774
O O14 0.250000 0.466565 0.207864
O O15 0.750000 0.804859 0.413412
O O16 0.000165 0.750000 0.447083
#
# Coordination Sequence:
#
# PCOD9453052 Si02
#       6
#     8   8   8   8   8   8
#     4   9  18  33  56  84 113 144 181 229 283 333
#     4   8  13  26  53  86 112 135 171 221 274 324
#     4  12  24  38  56  82 115 153 189 228 279 332
#     4  11  21  38  61  83 109 143 189 239 284 335
#     4  11  23  38  55  80 115 151 189 232 280 338
#     4   9  17  33  60  88 112 142 183 231 279 327
#
# _framework density 20.080819000000002
#
# number of rings (size 3 to 8) (size 9 to 14) (size 15 to 20)
#    0.000    2.000    1.667    4.500    0.000    0.333 
#    0.000    3.333    0.000    3.000    0.000    0.000 
#    0.000    0.000    0.000    0.000    0.000    0.000 
#
# Total GULP energy -268072.172583 kJ/mol
# GULP energy per Si atom -5584.836929 kJ/mol
# Density = 2.003511 g / cm^3
# Si number density = 20.080819 Si / 1000 Ang^3
#
#
#
# Elastic Constant Matrix: (Units=GPa)
#
#
# Indices 1 2 3 4 5 6 
#
# 1 24.8368 -2.7644 -3.5271 0.0000 0.0000 0.0000
# 2 -2.7644 84.5052 -9.3675 0.0000 0.0000 0.0000
# 3 -3.5271 -9.3675 32.2108 0.0000 0.0000 0.0000
# 4 0.0000 0.0000 0.0000 -3.0105 0.0000 0.0000
# 5 0.0000 0.0000 0.0000 0.0000 -28.1838 0.0000
# 6 0.0000 0.0000 0.0000 0.0000 0.0000 -0.3696
#
#
#
# Elastic Compliance Matrix: (Units=1/GPa)
#
#
# Indices 1 2 3 4 5 6 
#
# 1 0.041195 0.001909 0.005066 0.000000 0.000000 0.000000
# 2 0.001909 0.012316 0.003791 0.000000 0.000000 0.000000
# 3 0.005066 0.003791 0.032703 0.000000 0.000000 0.000000
# 4 0.000000 0.000000 0.000000 -0.332169 0.000000 0.000000
# 5 0.000000 0.000000 0.000000 0.000000 -0.035481 0.000000
# 6 0.000000 0.000000 0.000000 0.000000 0.000000 -2.705390
#
#
# Mechanical properties :
#
#
# Convention : Reuss Voigt Hill
#
# Bulk Modulus (GPa) = 9.28108 12.24830 10.76469
# Shear Modulus (GPa) = -1.68212 4.16800 1.24294
#
# Velocity S-wave (km/s) = -0.91624 1.44226 0.78760
# Velocity P-wave (km/s) = 1.87419 2.98098 2.48986
#
# Compressibility (1/GPa) = 0.10774613
#
# Stress axis : x y z
#
# Youngs Moduli (GPa) = 24.27489 81.19346 30.57850
#
# Poissons Ratio (x) = -0.15501 -0.15491
# Poissons Ratio (y) = -0.04635 -0.11592
# Poissons Ratio (z) = -0.12298 -0.30779
#
# Static dielectric constant tensor:
#      x y z
#    x 1.708930 0.000000 0.000000 
#    y 0.000000 1.716200 0.000000 
#    z 0.000000 0.000000 1.670890 
# 
# From -- ./inp_files/6250.got.cif
#   From: 2010.05.17/outbox.cif.g08.bks.cpg/sg59_4_cif.got.tgz:6250.got - 2010.06.03 14:40:33.
