data_PCOD9453567
_publ_section_title
;
Structure prediction by ZEFSAII (Michael W. Deem and Ramdas Pophale) SiO2 
 PCOD9453567
Probable space group: P M M N
;
_chemical_formula_sum "Si O2"
_cell_formula_units_Z 48
_cell_length_a 15.000000
_cell_length_b 9.000000
_cell_length_c 18.000000
_cell_angle_alpha 90.000000
_cell_angle_beta 90.000000
_cell_angle_gamma 90.000000
_cell_volume 2430.000000
_symmetry_space_group_name_H-M "P M M N"
_symmetry_group_IT_number 59
_space_group.IT_coordinate_system_code '2'
_symmetry_cell_setting 'orthorhombic'
loop_
_space_group_symop_operation_xyz
x,y,z
1/2-x,1/2-y,z
1/2+x,-y,-z
-x,1/2+y,-z
-x,-y,-z
1/2+x,1/2+y,-z
1/2-x,y,z
x,1/2-y,z
loop_
_atom_site_type_symbol
_atom_site_label
_atom_site_fract_x
_atom_site_fract_y
_atom_site_fract_z
Si Si1 0.250000 0.430713 0.123785
Si Si2 0.948442 0.084192 0.691406
Si Si3 0.427865 0.083418 0.548603
Si Si4 0.250000 0.072864 0.764570
Si Si5 0.250000 0.927567 0.287453
Si Si6 0.250000 0.927987 0.600475
Si Si7 0.428594 0.584285 0.801490
Si Si8 0.059701 0.417348 0.059073
O O1 0.250000 0.250000 0.128211
O O2 0.250000 0.494811 0.207098
O O3 0.157213 0.477486 0.083713
O O4 0.944317 0.250000 0.726993
O O5 0.845937 0.038766 0.674457
O O6 0.016355 0.097481 0.624075
O O7 0.999276 0.968245 0.741919
O O8 0.406320 0.250000 0.521699
O O9 0.500000 0.000000 0.500000
O O10 0.338430 0.990141 0.560781
O O11 0.250000 0.250000 0.756163
O O12 0.250000 0.996672 0.683350
O O13 0.158398 0.019929 0.803585
O O14 0.250000 0.750000 0.278428
O O15 0.250000 0.750000 0.602356
O O16 0.395300 0.750000 0.784749
O O17 0.490757 0.587251 0.873058
O O18 0.077587 0.250000 0.032565
O O19 0.000000 0.500000 0.000000
#
# Coordination Sequence:
#
# PCOD9453567 Si02
#       8
#     4   8   8   4   4   4   8   8
#     4  10  20  39  60  85 117 157 199 247 308 366
#     4  10  21  37  60  90 125 162 205 254 306 364
#     4  11  24  42  64  93 130 169 213 260 315 380
#     4  12  24  39  62  93 127 163 207 259 314 375
#     4  10  20  35  60  93 121 157 205 251 302 365
#     4  12  24  41  66  93 125 167 213 263 320 376
#     4  11  22  38  62  91 121 157 207 258 306 365
#     4  10  23  40  61  88 123 160 203 254 308 371
#
# _framework density 19.753086
#
# number of rings (size 3 to 8) (size 9 to 14) (size 15 to 20)
#    0.000    1.333    3.333    2.500    0.000    4.000 
#    0.000    3.333    0.000    0.000    0.000    0.000 
#    0.000    0.000    0.000    0.000    0.000    0.000 
#
# Total GULP energy -267466.386966 kJ/mol
# GULP energy per Si atom -5572.216395 kJ/mol
# Density = 1.970813 g / cm^3
# Si number density = 19.753086 Si / 1000 Ang^3
#
#
#
# Elastic Constant Matrix: (Units=GPa)
#
#
# Indices 1 2 3 4 5 6 
#
# 1 196.1888 63.1789 17.6963 0.0000 0.0000 0.0000
# 2 63.1789 115.0337 37.5056 0.0000 0.0000 0.0000
# 3 17.6963 37.5056 32.1141 0.0000 0.0000 0.0000
# 4 0.0000 0.0000 0.0000 20.0674 0.0000 0.0000
# 5 0.0000 0.0000 0.0000 0.0000 36.7814 0.0000
# 6 0.0000 0.0000 0.0000 0.0000 0.0000 122.2214
#
#
#
# Elastic Compliance Matrix: (Units=1/GPa)
#
#
# Indices 1 2 3 4 5 6 
#
# 1 0.006209 -0.003705 0.000906 0.000000 0.000000 0.000000
# 2 -0.003705 0.016250 -0.016936 0.000000 0.000000 0.000000
# 3 0.000906 -0.016936 0.050419 0.000000 0.000000 0.000000
# 4 0.000000 0.000000 0.000000 0.049832 0.000000 0.000000
# 5 0.000000 0.000000 0.000000 0.000000 0.027188 0.000000
# 6 0.000000 0.000000 0.000000 0.000000 0.000000 0.008182
#
#
# Mechanical properties :
#
#
# Convention : Reuss Voigt Hill
#
# Bulk Modulus (GPa) = 29.93388 64.45535 47.19461
# Shear Modulus (GPa) = 23.95937 50.81111 37.38524
#
# Velocity S-wave (km/s) = 3.48651 5.07730 4.35515
# Velocity P-wave (km/s) = 5.60309 8.18983 7.01669
#
# Compressibility (1/GPa) = 0.03340696
#
# Stress axis : x y z
#
# Youngs Moduli (GPa) = 161.06596 61.53796 19.83364
#
# Poissons Ratio (x) = 0.22802 -0.01797
# Poissons Ratio (y) = 0.59681 0.33591
# Poissons Ratio (z) = -0.14596 1.04223
#
# Static dielectric constant tensor:
#      x y z
#    x 1.662320 0.000000 0.000000 
#    y 0.000000 1.753830 0.000000 
#    z 0.000000 0.000000 1.623250 
# 
# From -- ./inp_files/27538.got.cif
#   From: 2010.05.17/outbox.ucp.g08.bks.cvg/sg59_14_cif.got.tgz:27538.got - 2010.06.11 16:43:56.
