data_PCOD9453568
_publ_section_title
;
Structure prediction by ZEFSAII (Michael W. Deem and Ramdas Pophale) SiO2 
 PCOD9453568
Probable space group: P M M N
;
_chemical_formula_sum "Si O2"
_cell_formula_units_Z 64
_cell_length_a 9.000000
_cell_length_b 24.000000
_cell_length_c 15.000000
_cell_angle_alpha 90.000000
_cell_angle_beta 90.000000
_cell_angle_gamma 90.000000
_cell_volume 3240.000000
_symmetry_space_group_name_H-M "P M M N"
_symmetry_group_IT_number 59
_space_group.IT_coordinate_system_code '2'
_symmetry_cell_setting 'orthorhombic'
loop_
_space_group_symop_operation_xyz
x,y,z
1/2-x,1/2-y,z
1/2+x,-y,-z
-x,1/2+y,-z
-x,-y,-z
1/2+x,1/2+y,-z
1/2-x,y,z
x,1/2-y,z
loop_
_atom_site_type_symbol
_atom_site_label
_atom_site_fract_x
_atom_site_fract_y
_atom_site_fract_z
Si Si1 0.925675 0.897784 0.850247
Si Si2 0.922842 0.984168 0.116284
Si Si3 0.572164 0.116703 0.973894
Si Si4 0.412601 0.403021 0.715377
Si Si5 0.578379 0.312444 0.270685
Si Si6 0.926812 0.311896 0.801444
Si Si7 0.076841 0.060808 0.520526
Si Si8 0.576879 0.184711 0.484798
O O1 0.750000 0.905321 0.853906
O O2 0.976089 0.860923 0.767199
O O3 0.006689 0.957411 0.855527
O O4 0.987964 0.866097 0.937180
O O5 0.750000 0.989921 0.088141
O O6 0.926158 0.945308 0.203517
O O7 0.018246 0.946283 0.048423
O O8 0.750000 0.117829 0.983986
O O9 0.528024 0.157018 0.892660
O O10 0.250000 0.376076 0.720024
O O11 0.527841 0.353124 0.722825
O O12 0.423025 0.438008 0.626973
O O13 0.750000 0.322510 0.242901
O O14 0.535582 0.250000 0.240106
O O15 0.575008 0.312185 0.377411
O O16 0.750000 0.308485 0.804044
O O17 0.988917 0.250000 0.793752
O O18 0.250000 0.060567 0.488328
O O19 0.005375 0.123790 0.501630
O O20 0.000000 0.000000 0.500000
O O21 0.750000 0.179376 0.514092
O O22 0.528569 0.250000 0.513492
#
# Coordination Sequence:
#
# PCOD9453568 Si02
#       8
#     8   8   8   8   8   8   8   8
#     4  12  24  35  53  83 114 146 187 234 285 341
#     4  10  20  37  58  78 107 148 191 235 285 340
#     4  10  20  36  55  79 112 149 190 236 285 338
#     4   9  21  39  57  81 113 149 188 230 279 340
#     4   9  20  40  62  82 108 146 191 235 283 342
#     4   9  19  36  59  85 112 145 187 234 281 333
#     4  11  24  40  60  91 126 160 199 248 301 355
#     4   9  20  41  66  89 117 157 201 245 299 363
#
# _framework density 19.753086
#
# number of rings (size 3 to 8) (size 9 to 14) (size 15 to 20)
#    0.000    2.125    0.000    3.375    1.750    4.250 
#    0.000    5.000    0.000    0.000    0.000    0.000 
#    0.000    0.000    0.000    0.000    0.000    0.000 
#
# Total GULP energy -356363.928743 kJ/mol
# GULP energy per Si atom -5568.186387 kJ/mol
# Density = 1.970813 g / cm^3
# Si number density = 19.753086 Si / 1000 Ang^3
#
#
#
# Elastic Constant Matrix: (Units=GPa)
#
#
# Indices 1 2 3 4 5 6 
#
# 1 87.1229 51.6522 13.9308 0.0000 0.0000 0.0000
# 2 51.6522 124.6564 11.8792 0.0000 0.0000 0.0000
# 3 13.9308 11.8792 33.4024 0.0000 0.0000 0.0000
# 4 0.0000 0.0000 0.0000 18.1917 0.0000 0.0000
# 5 0.0000 0.0000 0.0000 0.0000 24.7548 0.0000
# 6 0.0000 0.0000 0.0000 0.0000 0.0000 32.7279
#
#
#
# Elastic Compliance Matrix: (Units=1/GPa)
#
#
# Indices 1 2 3 4 5 6 
#
# 1 0.015821 -0.006135 -0.004417 0.000000 0.000000 0.000000
# 2 -0.006135 0.010682 -0.001240 0.000000 0.000000 0.000000
# 3 -0.004417 -0.001240 0.032221 0.000000 0.000000 0.000000
# 4 0.000000 0.000000 0.000000 0.054970 0.000000 0.000000
# 5 0.000000 0.000000 0.000000 0.000000 0.040396 0.000000
# 6 0.000000 0.000000 0.000000 0.000000 0.000000 0.030555
#
#
# Mechanical properties :
#
#
# Convention : Reuss Voigt Hill
#
# Bulk Modulus (GPa) = 28.45687 44.45623 36.45655
# Shear Modulus (GPa) = 22.73310 26.31617 24.52464
#
# Velocity S-wave (km/s) = 3.39612 3.65397 3.52740
# Velocity P-wave (km/s) = 5.46038 6.35270 5.92337
#
# Compressibility (1/GPa) = 0.03514090
#
# Stress axis : x y z
#
# Youngs Moduli (GPa) = 63.20563 93.61320 31.03555
#
# Poissons Ratio (x) = 0.57430 0.13707
# Poissons Ratio (y) = 0.38775 0.03850
# Poissons Ratio (z) = 0.27916 0.11612
#
# Static dielectric constant tensor:
#      x y z
#    x 1.721050 0.000000 0.000000 
#    y 0.000000 1.716580 0.000000 
#    z 0.000000 0.000000 1.733120 
# 
# From -- ./inp_files/21450.got.cif
#   From: 2010.05.17/outbox.ucp.g08.bks.cvg/sg59_11_cif.got.tgz:21450.got - 2010.06.11 16:43:56.
