data_PCOD9453015
_publ_section_title
;
Structure prediction by ZEFSAII (Michael W. Deem and Ramdas Pophale) SiO2 
 PCOD9453015
Probable space group: P M M N
;
_chemical_formula_sum "Si O2"
_cell_formula_units_Z 48
_cell_length_a 19.435690
_cell_length_b 9.150368
_cell_length_c 16.529850
_cell_angle_alpha 90.000000
_cell_angle_beta 90.000000
_cell_angle_gamma 90.000000
_cell_volume 2939.729946
_symmetry_space_group_name_H-M "P M M N"
_symmetry_group_IT_number 59
_space_group.IT_coordinate_system_code '2'
_symmetry_cell_setting 'orthorhombic'
loop_
_space_group_symop_operation_xyz
x,y,z
1/2-x,1/2-y,z
1/2+x,-y,-z
-x,1/2+y,-z
-x,-y,-z
1/2+x,1/2+y,-z
1/2-x,y,z
x,1/2-y,z
loop_
_atom_site_type_symbol
_atom_site_label
_atom_site_fract_x
_atom_site_fract_y
_atom_site_fract_z
Si Si1 0.983558 0.582924 0.261588
Si Si2 0.532787 0.925827 0.578666
Si Si3 0.359468 0.914996 0.196994
Si Si4 0.826212 0.425694 0.624007
Si Si5 0.058816 0.918264 0.891470
Si Si6 0.100741 0.417217 0.046429
O O1 0.962947 0.750000 0.279929
O O2 0.992767 0.486853 0.342092
O O3 0.060065 0.590159 0.222674
O O4 0.938274 0.508420 0.191772
O O5 0.530486 0.750000 0.575794
O O6 0.500000 0.000000 0.500000
O O7 0.611220 0.984361 0.586537
O O8 0.337517 0.750000 0.177529
O O9 0.324793 0.962900 0.280340
O O10 0.354529 0.015566 0.118849
O O11 0.750000 0.452045 0.589755
O O12 0.840633 0.250000 0.619302
O O13 0.077566 0.750000 0.878662
O O14 0.978813 0.920085 0.921727
O O15 0.101186 0.989978 0.964448
O O16 0.118663 0.250000 0.030432
#
# Coordination Sequence:
#
# PCOD9453015 Si02
#       6
#     8   8   8   8   8   8
#     4   9  16  27  41  58  82 112 146 183 227 277
#     4  11  21  33  49  69  94 124 159 198 244 296
#     4   8  14  24  38  56  80 111 144 178 217 263
#     4   9  18  33  51  70  94 124 157 194 238 288
#     4   9  15  22  33  51  76 107 142 178 216 258
#     4   9  15  21  31  49  75 108 143 177 211 249
#
# _framework density 16.328030999999999
#
# number of rings (size 3 to 8) (size 9 to 14) (size 15 to 20)
#    0.000    2.833    0.000    4.000    0.000    8.333 
#    0.000    0.000    0.000    0.000    0.000    0.000 
#    0.000    1.333    0.000    8.000    0.000   11.667 
#
# Total GULP energy -267291.349019 kJ/mol
# GULP energy per Si atom -5568.569771 kJ/mol
# Density = 1.629087 g / cm^3
# Si number density = 16.328031 Si / 1000 Ang^3
#
#
#
# Elastic Constant Matrix: (Units=GPa)
#
#
# Indices 1 2 3 4 5 6 
#
# 1 37.4358 37.8318 34.4216 0.0000 0.0000 0.0000
# 2 37.8318 139.5456 76.1812 0.0000 0.0000 0.0000
# 3 34.4216 76.1812 104.7866 0.0000 0.0000 0.0000
# 4 0.0000 0.0000 0.0000 30.8999 0.0000 0.0000
# 5 0.0000 0.0000 0.0000 0.0000 7.0893 0.0000
# 6 0.0000 0.0000 0.0000 0.0000 0.0000 8.0448
#
#
#
# Elastic Compliance Matrix: (Units=1/GPa)
#
#
# Indices 1 2 3 4 5 6 
#
# 1 0.041357 -0.006293 -0.009010 0.000000 0.000000 0.000000
# 2 -0.006293 0.012840 -0.007267 0.000000 0.000000 0.000000
# 3 -0.009010 -0.007267 0.017786 0.000000 0.000000 0.000000
# 4 0.000000 0.000000 0.000000 0.032363 0.000000 0.000000
# 5 0.000000 0.000000 0.000000 0.000000 0.141058 0.000000
# 6 0.000000 0.000000 0.000000 0.000000 0.000000 0.124304
#
#
# Mechanical properties :
#
#
# Convention : Reuss Voigt Hill
#
# Bulk Modulus (GPa) = 37.25574 64.29302 50.77438
# Shear Modulus (GPa) = 11.79813 18.09569 14.94691
#
# Velocity S-wave (km/s) = 2.69098 3.33266 3.02886
# Velocity P-wave (km/s) = 5.70278 7.36683 6.58756
#
# Compressibility (1/GPa) = 0.02684150
#
# Stress axis : x y z
#
# Youngs Moduli (GPa) = 24.17977 77.88375 56.22292
#
# Poissons Ratio (x) = 0.49015 0.50657
# Poissons Ratio (y) = 0.15217 0.40859
# Poissons Ratio (z) = 0.21786 0.56600
#
# Static dielectric constant tensor:
#      x y z
#    x 1.571430 0.000000 0.000000 
#    y 0.000000 1.554870 0.000000 
#    z 0.000000 0.000000 1.541550 
# 
# From -- ./inp_files/20713.got.cif
#   From: 2010.05.17/outbox.cif.g08.bks.cpg/sg59_11_cif.got.tgz:20713.got - 2010.06.03 14:40:33.
