data_PCOD9453327
_publ_section_title
;
Structure prediction by ZEFSAII (Michael W. Deem and Ramdas Pophale) SiO2 
 PCOD9453327
Probable space group: P M M N
;
_chemical_formula_sum "Si O2"
_cell_formula_units_Z 64
_cell_length_a 9.000000
_cell_length_b 30.000000
_cell_length_c 15.000000
_cell_angle_alpha 90.000000
_cell_angle_beta 90.000000
_cell_angle_gamma 90.000000
_cell_volume 4050.000000
_symmetry_space_group_name_H-M "P M M N"
_symmetry_group_IT_number 59
_space_group.IT_coordinate_system_code '2'
_symmetry_cell_setting 'orthorhombic'
loop_
_space_group_symop_operation_xyz
x,y,z
1/2-x,1/2-y,z
1/2+x,-y,-z
-x,1/2+y,-z
-x,-y,-z
1/2+x,1/2+y,-z
1/2-x,y,z
x,1/2-y,z
loop_
_atom_site_type_symbol
_atom_site_label
_atom_site_fract_x
_atom_site_fract_y
_atom_site_fract_z
Si Si1 0.078113 0.067639 0.956390
Si Si2 0.569407 0.298216 0.502741
Si Si3 0.424704 0.532137 0.876540
Si Si4 0.928147 0.563527 0.365663
Si Si5 0.569767 0.298496 0.709573
Si Si6 0.930108 0.392340 0.462881
Si Si7 0.930335 0.465515 0.326316
Si Si8 0.927439 0.388535 0.799086
O O1 0.250000 0.080696 0.953696
O O2 0.977568 0.099792 0.897745
O O3 0.065237 0.018830 0.910279
O O4 0.018164 0.061671 0.055656
O O5 0.750000 0.297269 0.502368
O O6 0.516231 0.250000 0.471936
O O7 0.525278 0.304389 0.606348
O O8 0.523423 0.341410 0.449113
O O9 0.250000 0.544267 0.880383
O O10 0.480103 0.535086 0.775635
O O11 0.750000 0.568068 0.368487
O O12 0.970230 0.511716 0.373393
O O13 0.004712 0.590896 0.443938
O O14 0.989176 0.579678 0.270744
O O15 0.750000 0.298262 0.708958
O O16 0.518185 0.250000 0.739801
O O17 0.524571 0.339180 0.770260
O O18 0.750000 0.394374 0.468464
O O19 0.981779 0.424334 0.384555
O O20 0.750000 0.464753 0.323017
O O21 0.750000 0.393225 0.788589
#
# Coordination Sequence:
#
# PCOD9453327 Si02
#       8
#     8   8   8   8   8   8   8   8
#     4  10  19  31  47  67  91 116 145 188 230 265
#     4   8  13  23  41  65  89 111 142 187 227 256
#     4   9  17  32  47  63  88 119 152 185 223 266
#     4  11  20  31  42  61  95 127 151 185 224 257
#     4   8  14  25  42  65  90 114 145 186 224 259
#     4  10  18  30  47  66  86 119 159 186 216 268
#     4   9  18  31  46  63  89 121 154 191 226 258
#     4  11  19  29  48  70  89 119 156 184 219 275
#
# _framework density 15.802469
#
# number of rings (size 3 to 8) (size 9 to 14) (size 15 to 20)
#    0.000    2.500    2.500    2.250    0.000    0.500 
#    0.000    1.250    0.000    2.625    0.000    0.875 
#    0.000    5.000    0.000    0.000    0.000    0.000 
#
# Total GULP energy -356391.126748 kJ/mol
# GULP energy per Si atom -5568.611355 kJ/mol
# Density = 1.576650 g / cm^3
# Si number density = 15.802469 Si / 1000 Ang^3
#
#
#
# Elastic Constant Matrix: (Units=GPa)
#
#
# Indices 1 2 3 4 5 6 
#
# 1 18.9301 17.7015 4.3841 0.0000 0.0000 0.0000
# 2 17.7015 112.6925 33.4689 0.0000 0.0000 0.0000
# 3 4.3841 33.4689 27.3209 0.0000 0.0000 0.0000
# 4 0.0000 0.0000 0.0000 8.7519 0.0000 0.0000
# 5 0.0000 0.0000 0.0000 0.0000 14.7587 0.0000
# 6 0.0000 0.0000 0.0000 0.0000 0.0000 9.1680
#
#
#
# Elastic Compliance Matrix: (Units=1/GPa)
#
#
# Indices 1 2 3 4 5 6 
#
# 1 0.062090 -0.010679 0.003119 0.000000 0.000000 0.000000
# 2 -0.010679 0.015785 -0.017624 0.000000 0.000000 0.000000
# 3 0.003119 -0.017624 0.057691 0.000000 0.000000 0.000000
# 4 0.000000 0.000000 0.000000 0.114261 0.000000 0.000000
# 5 0.000000 0.000000 0.000000 0.000000 0.067757 0.000000
# 6 0.000000 0.000000 0.000000 0.000000 0.000000 0.109075
#
#
# Mechanical properties :
#
#
# Convention : Reuss Voigt Hill
#
# Bulk Modulus (GPa) = 11.73733 30.00583 20.87158
# Shear Modulus (GPa) = 9.89265 13.42833 11.66049
#
# Velocity S-wave (km/s) = 2.50475 2.91823 2.71936
# Velocity P-wave (km/s) = 3.97601 5.51217 4.80587
#
# Compressibility (1/GPa) = 0.08519827
#
# Stress axis : x y z
#
# Youngs Moduli (GPa) = 16.10569 63.34993 17.33365
#
# Poissons Ratio (x) = 0.67653 -0.05406
# Poissons Ratio (y) = 0.17200 0.30549
# Poissons Ratio (z) = -0.05023 1.11647
#
# Static dielectric constant tensor:
#      x y z
#    x 1.521240 0.000000 0.000000 
#    y 0.000000 1.563580 0.000000 
#    z 0.000000 0.000000 1.503800 
# 
# From -- ./inp_files/21946.got.cif
#   From: 2010.05.17/outbox.ucp.g08.bks.cvg/sg59_11_cif.got.tgz:21946.got - 2010.06.11 16:43:56.
