data_PCOD9453003
_publ_section_title
;
Structure prediction by ZEFSAII (Michael W. Deem and Ramdas Pophale) SiO2 
 PCOD9453003
Probable space group: P M M N
;
_chemical_formula_sum "Si O2"
_cell_formula_units_Z 64
_cell_length_a 9.515091
_cell_length_b 15.056095
_cell_length_c 21.795040
_cell_angle_alpha 90.000000
_cell_angle_beta 90.000000
_cell_angle_gamma 90.000000
_cell_volume 3122.359916
_symmetry_space_group_name_H-M "P M M N"
_symmetry_group_IT_number 59
_space_group.IT_coordinate_system_code '2'
_symmetry_cell_setting 'orthorhombic'
loop_
_space_group_symop_operation_xyz
x,y,z
1/2-x,1/2-y,z
1/2+x,-y,-z
-x,1/2+y,-z
-x,-y,-z
1/2+x,1/2+y,-z
1/2-x,y,z
x,1/2-y,z
loop_
_atom_site_type_symbol
_atom_site_label
_atom_site_fract_x
_atom_site_fract_y
_atom_site_fract_z
Si Si1 0.417877 0.406246 0.995038
Si Si2 0.083123 0.594171 0.754616
Si Si3 0.090802 0.889892 0.118494
Si Si4 0.910232 0.892686 0.869970
Si Si5 0.582527 0.086281 0.749583
Si Si6 0.413380 0.358257 0.498417
Si Si7 0.090813 0.355574 0.363666
Si Si8 0.906672 0.143675 0.611964
O O1 0.250000 0.419791 0.989198
O O2 0.482327 0.362883 0.934089
O O3 0.500000 0.500000 0.000000
O O4 0.441743 0.360490 0.061057
O O5 0.250000 0.602233 0.754652
O O6 0.014639 0.635297 0.816168
O O7 0.027187 0.493388 0.755581
O O8 0.012712 0.628625 0.692334
O O9 0.250000 0.866774 0.100161
O O10 0.064715 0.857607 0.187962
O O11 0.086739 0.998637 0.124725
O O12 0.750000 0.868443 0.853731
O O13 0.750000 0.059563 0.750911
O O14 0.555722 0.126360 0.682696
O O15 0.250000 0.381029 0.503238
O O16 0.422822 0.250000 0.499461
O O17 0.460873 0.387960 0.430449
O O18 0.495293 0.391484 0.557883
O O19 0.250000 0.390503 0.351516
O O20 0.104097 0.250000 0.369550
O O21 0.750000 0.108012 0.602269
O O22 0.902505 0.250000 0.605641
#
# Coordination Sequence:
#
# PCOD9453003 Si02
#       8
#     8   8   8   8   8   8   8   8
#     4   9  15  22  35  56  81 110 145 185 224 264
#     4  11  21  30  45  70  96 121 152 192 231 265
#     4   8  14  24  38  56  81 115 150 183 220 264
#     4   8  15  27  40  56  84 120 151 180 223 277
#     4   9  18  32  46  63  94 130 156 182 225 282
#     4   8  15  29  49  71  92 115 146 184 225 270
#     4   9  18  34  54  71  90 121 154 181 221 279
#     4   9  17  30  50  73  93 117 152 192 230 267
#
# _framework density 20.497316999999999
#
# number of rings (size 3 to 8) (size 9 to 14) (size 15 to 20)
#    0.000    3.125    0.000    3.750    0.000    6.250 
#    0.000    1.875    0.000    0.000    0.000    0.875 
#    0.000    3.000    0.000    0.000    0.000    0.000 
#
# Total GULP energy -356487.439545 kJ/mol
# GULP energy per Si atom -5570.116243 kJ/mol
# Density = 2.045066 g / cm^3
# Si number density = 20.497317 Si / 1000 Ang^3
#
#
#
# Elastic Constant Matrix: (Units=GPa)
#
#
# Indices 1 2 3 4 5 6 
#
# 1 122.7515 13.2725 128.0555 0.0000 0.0000 0.0000
# 2 13.2725 33.0558 12.0345 0.0000 0.0000 0.0000
# 3 128.0555 12.0345 239.9506 0.0000 0.0000 0.0000
# 4 0.0000 0.0000 0.0000 18.8635 0.0000 0.0000
# 5 0.0000 0.0000 0.0000 0.0000 38.5654 0.0000
# 6 0.0000 0.0000 0.0000 0.0000 0.0000 5.5090
#
#
#
# Elastic Compliance Matrix: (Units=1/GPa)
#
#
# Indices 1 2 3 4 5 6 
#
# 1 0.018880 -0.003985 -0.009876 0.000000 0.000000 0.000000
# 2 -0.003985 0.031656 0.000539 0.000000 0.000000 0.000000
# 3 -0.009876 0.000539 0.009411 0.000000 0.000000 0.000000
# 4 0.000000 0.000000 0.000000 0.053012 0.000000 0.000000
# 5 0.000000 0.000000 0.000000 0.000000 0.025930 0.000000
# 6 0.000000 0.000000 0.000000 0.000000 0.000000 0.181521
#
#
# Mechanical properties :
#
#
# Convention : Reuss Voigt Hill
#
# Bulk Modulus (GPa) = 30.02753 78.05368 54.04060
# Shear Modulus (GPa) = 13.96041 28.74728 21.35385
#
# Velocity S-wave (km/s) = 2.61259 3.74905 3.23117
# Velocity P-wave (km/s) = 4.87669 7.54341 6.35158
#
# Compressibility (1/GPa) = 0.03330278
#
# Stress axis : x y z
#
# Youngs Moduli (GPa) = 52.96567 31.58990 106.25812
#
# Poissons Ratio (x) = 0.12589 1.04940
# Poissons Ratio (y) = 0.21108 -0.05729
# Poissons Ratio (z) = 0.52309 -0.01703
#
# Static dielectric constant tensor:
#      x y z
#    x 1.672130 0.000000 0.000000 
#    y 0.000000 1.810520 0.000000 
#    z 0.000000 0.000000 1.797310 
# 
# From -- ./inp_files/31747.got.cif
#   From: 2010.05.17/outbox.cif.g08.bks.cpg/sg59_16_cif.got.tgz:31747.got - 2010.06.03 14:40:33.
