data_PCOD9453243
_publ_section_title
;
Structure prediction by ZEFSAII (Michael W. Deem and Ramdas Pophale) SiO2 
 PCOD9453243
Probable space group: P M M N
;
_chemical_formula_sum "Si O2"
_cell_formula_units_Z 56
_cell_length_a 14.206496
_cell_length_b 7.703524
_cell_length_c 30.584599
_cell_angle_alpha 90.000000
_cell_angle_beta 90.000000
_cell_angle_gamma 90.000000
_cell_volume 3347.181050
_symmetry_space_group_name_H-M "P M M N"
_symmetry_group_IT_number 59
_space_group.IT_coordinate_system_code '2'
_symmetry_cell_setting 'orthorhombic'
loop_
_space_group_symop_operation_xyz
x,y,z
1/2-x,1/2-y,z
1/2+x,-y,-z
-x,1/2+y,-z
-x,-y,-z
1/2+x,1/2+y,-z
1/2-x,y,z
x,1/2-y,z
loop_
_atom_site_type_symbol
_atom_site_label
_atom_site_fract_x
_atom_site_fract_y
_atom_site_fract_z
Si Si1 0.860311 0.037936 0.155272
Si Si2 0.040080 0.041449 0.567737
Si Si3 0.144129 0.458804 0.480080
Si Si4 0.642088 0.542447 0.345837
Si Si5 0.358885 0.541406 0.749238
Si Si6 0.643882 0.040780 0.979911
Si Si7 0.958996 0.041988 0.067810
O O1 0.750000 0.989891 0.150639
O O2 0.862276 0.250000 0.154962
O O3 0.895794 0.982048 0.203426
O O4 0.919913 0.975696 0.113895
O O5 0.048919 0.250000 0.567979
O O6 0.101048 0.976444 0.526234
O O7 0.081079 0.975582 0.613552
O O8 0.931922 0.001293 0.557004
O O9 0.250000 0.523296 0.472961
O O10 0.148225 0.250000 0.483048
O O11 0.750000 0.473962 0.347681
O O12 0.648251 0.750000 0.350427
O O13 0.600225 0.509210 0.297645
O O14 0.250000 0.480748 0.748002
O O15 0.358217 0.750000 0.750259
O O16 0.750000 0.977740 0.972684
O O17 0.647056 0.250000 0.982328
O O18 0.567369 0.995209 0.943248
O O19 0.601777 0.976410 0.026319
O O20 0.947601 0.250000 0.068388
#
# Coordination Sequence:
#
# PCOD9453243 Si02
#       7
#     8   8   8   8   8   8   8
#     4   8  13  23  40  60  81 105 132 161 194 233
#     4   9  17  28  42  60  81 107 137 163 191 231
#     4   9  17  29  43  59  81 107 134 165 198 230
#     4   9  16  26  40  58  82 110 135 159 191 233
#     4   8  14  24  38  57  80 104 130 161 196 233
#     4   9  17  28  40  56  81 109 133 160 196 235
#     4   9  16  26  42  61  78 102 137 167 191 227
#
# _framework density 16.730495999999999
#
# number of rings (size 3 to 8) (size 9 to 14) (size 15 to 20)
#    0.000    3.286    0.000    1.714    0.000    4.571 
#    0.000    0.714    0.000    4.714    0.000    1.000 
#    0.000    1.143    0.000    0.000    0.000    0.000 
#
# Total GULP energy -311774.524897 kJ/mol
# GULP energy per Si atom -5567.402230 kJ/mol
# Density = 1.669242 g / cm^3
# Si number density = 16.730496 Si / 1000 Ang^3
#
#
#
# Elastic Constant Matrix: (Units=GPa)
#
#
# Indices 1 2 3 4 5 6 
#
# 1 113.1121 1.4691 82.4921 0.0000 0.0000 0.0000
# 2 1.4691 24.3323 6.4384 0.0000 0.0000 0.0000
# 3 82.4921 6.4384 166.2891 0.0000 0.0000 0.0000
# 4 0.0000 0.0000 0.0000 15.8855 0.0000 0.0000
# 5 0.0000 0.0000 0.0000 0.0000 25.7136 0.0000
# 6 0.0000 0.0000 0.0000 0.0000 0.0000 16.1132
#
#
#
# Elastic Compliance Matrix: (Units=1/GPa)
#
#
# Indices 1 2 3 4 5 6 
#
# 1 0.013876 0.000994 -0.006922 0.000000 0.000000 0.000000
# 2 0.000994 0.041594 -0.002103 0.000000 0.000000 0.000000
# 3 -0.006922 -0.002103 0.009529 0.000000 0.000000 0.000000
# 4 0.000000 0.000000 0.000000 0.062951 0.000000 0.000000
# 5 0.000000 0.000000 0.000000 0.000000 0.038890 0.000000
# 6 0.000000 0.000000 0.000000 0.000000 0.000000 0.062061
#
#
# Mechanical properties :
#
#
# Convention : Reuss Voigt Hill
#
# Bulk Modulus (GPa) = 20.43489 53.83695 37.13592
# Shear Modulus (GPa) = 19.13681 25.76469 22.45075
#
# Velocity S-wave (km/s) = 3.38572 3.92852 3.66718
# Velocity P-wave (km/s) = 5.24641 7.26818 6.33843
#
# Compressibility (1/GPa) = 0.04893591
#
# Stress axis : x y z
#
# Youngs Moduli (GPa) = 72.06613 24.04177 104.94324
#
# Poissons Ratio (x) = -0.02389 0.72643
# Poissons Ratio (y) = -0.07162 0.22074
# Poissons Ratio (z) = 0.49885 0.05057
#
# Static dielectric constant tensor:
#      x y z
#    x 1.545330 0.000000 0.000000 
#    y 0.000000 1.625740 0.000000 
#    z 0.000000 0.000000 1.594570 
# 
# From -- ./inp_files/31893.got.cif
#   From: 2010.05.17/outbox.cif.g08.bks.cpg/sg59_16_cif.got.tgz:31893.got - 2010.06.03 14:40:33.
