data_PCOD9453498
_publ_section_title
;
Structure prediction by ZEFSAII (Michael W. Deem and Ramdas Pophale) SiO2 
 PCOD9453498
Probable space group: P M M N
;
_chemical_formula_sum "Si O2"
_cell_formula_units_Z 40
_cell_length_a 9.000000
_cell_length_b 9.000000
_cell_length_c 27.000000
_cell_angle_alpha 90.000000
_cell_angle_beta 90.000000
_cell_angle_gamma 90.000000
_cell_volume 2187.000000
_symmetry_space_group_name_H-M "P M M N"
_symmetry_group_IT_number 59
_space_group.IT_coordinate_system_code '2'
_symmetry_cell_setting 'orthorhombic'
loop_
_space_group_symop_operation_xyz
x,y,z
1/2-x,1/2-y,z
1/2+x,-y,-z
-x,1/2+y,-z
-x,-y,-z
1/2+x,1/2+y,-z
1/2-x,y,z
x,1/2-y,z
loop_
_atom_site_type_symbol
_atom_site_label
_atom_site_fract_x
_atom_site_fract_y
_atom_site_fract_z
Si Si1 0.079174 0.431174 0.148474
Si Si2 0.923925 0.428216 0.547360
Si Si3 0.076375 0.571442 0.952637
Si Si4 0.574636 0.071920 0.249419
Si Si5 0.074505 0.427811 0.649013
O O1 0.250000 0.475700 0.145968
O O2 0.072731 0.250000 0.148938
O O3 0.994795 0.480006 0.099095
O O4 0.006045 0.481009 0.199787
O O5 0.750000 0.461204 0.546898
O O6 0.943869 0.250000 0.544906
O O7 0.000000 0.500000 0.500000
O O8 0.994287 0.479579 0.599220
O O9 0.250000 0.536817 0.952741
O O10 0.058946 0.750000 0.955209
O O11 0.000000 0.500000 0.000000
O O12 0.750000 0.038409 0.244890
O O13 0.558886 0.250000 0.252737
O O14 0.518690 0.000604 0.300303
O O15 0.250000 0.461124 0.644483
O O16 0.057697 0.250000 0.652747
#
# Coordination Sequence:
#
# PCOD9453498 Si02
#       5
#     8   8   8   8   8
#     4   9  17  30  49  72  98 129 165 205 249 295
#     4  10  21  36  54  76 102 133 169 208 251 299
#     4  10  20  34  53  76 102 133 169 209 254 303
#     4   9  17  30  49  72  96 124 162 205 245 290
#     4   9  18  33  51  71  99 133 164 198 247 301
#
# _framework density 18.289895000000001
#
# number of rings (size 3 to 8) (size 9 to 14) (size 15 to 20)
#    0.000    2.600    0.000    1.800    0.000    6.400 
#    0.000    3.000    0.000    3.600    0.000    0.000 
#    0.000    0.000    0.000    0.000    0.000    0.000 
#
# Total GULP energy -223116.906099 kJ/mol
# GULP energy per Si atom -5577.922652 kJ/mol
# Density = 1.824827 g / cm^3
# Si number density = 18.289895 Si / 1000 Ang^3
#
#
#
# Elastic Constant Matrix: (Units=GPa)
#
#
# Indices 1 2 3 4 5 6 
#
# 1 100.9311 45.3192 125.4514 0.0000 0.0000 0.0000
# 2 45.3192 -5.3036 40.2830 0.0000 0.0000 0.0000
# 3 125.4514 40.2830 248.5048 0.0000 0.0000 0.0000
# 4 0.0000 0.0000 0.0000 34.9890 0.0000 0.0000
# 5 0.0000 0.0000 0.0000 0.0000 40.5293 0.0000
# 6 0.0000 0.0000 0.0000 0.0000 0.0000 17.1633
#
#
#
# Elastic Compliance Matrix: (Units=1/GPa)
#
#
# Indices 1 2 3 4 5 6 
#
# 1 0.011069 0.023368 -0.009376 0.000000 0.000000 0.000000
# 2 0.023368 -0.035170 -0.006096 0.000000 0.000000 0.000000
# 3 -0.009376 -0.006096 0.009745 0.000000 0.000000 0.000000
# 4 0.000000 0.000000 0.000000 0.028580 0.000000 0.000000
# 5 0.000000 0.000000 0.000000 0.000000 0.024673 0.000000
# 6 0.000000 0.000000 0.000000 0.000000 0.000000 0.058264
#
#
# Mechanical properties :
#
#
# Convention : Reuss Voigt Hill
#
# Bulk Modulus (GPa) = 695.51290 85.13774 390.32532
# Shear Modulus (GPa) = 61.08901 27.40825 44.24863
#
# Velocity S-wave (km/s) = 5.78558 3.87531 4.92397
# Velocity P-wave (km/s) = 20.63317 8.16542 15.69079
#
# Compressibility (1/GPa) = 0.00143779
#
# Stress axis : x y z
#
# Youngs Moduli (GPa) = 90.34585 -28.43365 102.61326
#
# Poissons Ratio (x) = 0.66445 0.96208
# Poissons Ratio (y) = -2.11124 0.62552
# Poissons Ratio (z) = 0.84706 -0.17333
#
# Static dielectric constant tensor:
#      x y z
#    x 1.618280 0.000000 0.000000 
#    y 0.000000 1.623260 0.000000 
#    z 0.000000 0.000000 1.596430 
# 
# From -- ./inp_files/25262.got.cif
#   From: 2010.05.17/outbox.ucp.g08.bks.cvg/sg59_13_cif.got.tgz:25262.got - 2010.06.11 16:43:56.
