data_PCOD9453656
_publ_section_title
;
Structure prediction by ZEFSAII (Michael W. Deem and Ramdas Pophale) SiO2 
 PCOD9453656
Probable space group: P M M N
;
_chemical_formula_sum "Si O2"
_cell_formula_units_Z 40
_cell_length_a 15.000000
_cell_length_b 9.000000
_cell_length_c 15.000000
_cell_angle_alpha 90.000000
_cell_angle_beta 90.000000
_cell_angle_gamma 90.000000
_cell_volume 2025.000000
_symmetry_space_group_name_H-M "P M M N"
_symmetry_group_IT_number 59
_space_group.IT_coordinate_system_code '2'
_symmetry_cell_setting 'orthorhombic'
loop_
_space_group_symop_operation_xyz
x,y,z
1/2-x,1/2-y,z
1/2+x,-y,-z
-x,1/2+y,-z
-x,-y,-z
1/2+x,1/2+y,-z
1/2-x,y,z
x,1/2-y,z
loop_
_atom_site_type_symbol
_atom_site_label
_atom_site_fract_x
_atom_site_fract_y
_atom_site_fract_z
Si Si1 0.569052 0.925624 0.066366
Si Si2 0.250000 0.072267 0.660080
Si Si3 0.750000 0.426687 0.006701
Si Si4 0.250000 0.925919 0.468398
Si Si5 0.250000 0.075487 0.184077
Si Si6 0.111215 0.075222 0.340454
Si Si7 0.443260 0.075375 0.728332
O O1 0.577357 0.750000 0.048840
O O2 0.537482 0.945375 0.167524
O O3 0.500000 0.000000 0.000000
O O4 0.663366 0.003227 0.051747
O O5 0.250000 0.250000 0.644817
O O6 0.340491 0.036322 0.711840
O O7 0.250000 0.988868 0.567119
O O8 0.750000 0.250000 0.013807
O O9 0.750000 0.475796 0.903087
O O10 0.250000 0.750000 0.467234
O O11 0.164381 0.987760 0.415827
O O12 0.250000 0.250000 0.158203
O O13 0.165026 0.048652 0.247951
O O14 0.116710 0.250000 0.359047
O O15 0.011146 0.020471 0.328959
O O16 0.455360 0.250000 0.707055
#
# Coordination Sequence:
#
# PCOD9453656 Si02
#       7
#     8   4   4   4   4   8   8
#     4  11  23  40  61  87 120 158 201 247 296 349
#     4  10  22  42  63  84 116 155 196 241 288 341
#     4  12  24  36  55  84 118 159 202 245 296 351
#     4  11  23  40  63  91 119 149 189 236 287 350
#     4   9  19  36  57  83 115 153 195 242 297 348
#     4  10  21  38  62  89 118 151 189 239 295 349
#     4  10  22  40  62  86 115 156 199 241 292 347
#
# _framework density 19.753086
#
# number of rings (size 3 to 8) (size 9 to 14) (size 15 to 20)
#    0.000    1.600    0.000    5.400    0.000   10.400 
#    0.000    1.000    0.000    0.000    0.000    0.000 
#    0.000    0.000    0.000    0.000    0.000    0.000 
#
# Total GULP energy -223636.482988 kJ/mol
# GULP energy per Si atom -5590.912075 kJ/mol
# Density = 1.970813 g / cm^3
# Si number density = 19.753086 Si / 1000 Ang^3
#
#
#
# Elastic Constant Matrix: (Units=GPa)
#
#
# Indices 1 2 3 4 5 6 
#
# 1 113.7928 58.7474 23.5605 0.0000 0.0000 0.0000
# 2 58.7474 54.3433 49.4387 0.0000 0.0000 0.0000
# 3 23.5605 49.4387 52.1305 0.0000 0.0000 0.0000
# 4 0.0000 0.0000 0.0000 28.4728 0.0000 0.0000
# 5 0.0000 0.0000 0.0000 0.0000 -516.5396 0.0000
# 6 0.0000 0.0000 0.0000 0.0000 0.0000 33.3323
#
#
#
# Elastic Compliance Matrix: (Units=1/GPa)
#
#
# Indices 1 2 3 4 5 6 
#
# 1 -0.013413 0.065473 -0.056030 0.000000 0.000000 0.000000
# 2 0.065473 -0.185508 0.146339 0.000000 0.000000 0.000000
# 3 -0.056030 0.146339 -0.094277 0.000000 0.000000 0.000000
# 4 0.000000 0.000000 0.000000 0.035121 0.000000 0.000000
# 5 0.000000 0.000000 0.000000 0.000000 -0.001936 0.000000
# 6 0.000000 0.000000 0.000000 0.000000 0.000000 0.030001
#
#
# Mechanical properties :
#
#
# Convention : Reuss Voigt Hill
#
# Bulk Modulus (GPa) = 54.45104 53.75110 54.10107
# Shear Modulus (GPa) = -9.33792 -85.04558 -47.19175
#
# Velocity S-wave (km/s) = -2.17660 -6.56870 -4.89313
# Velocity P-wave (km/s) = 4.61616 5.50089 2.11553
#
# Compressibility (1/GPa) = 0.01836512
#
# Stress axis : x y z
#
# Youngs Moduli (GPa) = -74.55714 -5.39060 -10.60709
#
# Poissons Ratio (x) = 0.35294 -0.59431
# Poissons Ratio (y) = 4.88145 1.55223
# Poissons Ratio (z) = -4.17743 0.78885
#
# Static dielectric constant tensor:
#      x y z
#    x 1.676440 0.000000 0.000000 
#    y 0.000000 1.622740 0.000000 
#    z 0.000000 0.000000 1.680890 
# 
# From -- ./inp_files/20029.got.cif
#   From: 2010.05.17/outbox.ucp.g08.bks.cvg/sg59_11_cif.got.tgz:20029.got - 2010.06.11 16:43:56.
