data_PCOD9453487
_publ_section_title
;
Structure prediction by ZEFSAII (Michael W. Deem and Ramdas Pophale) SiO2 
 PCOD9453487
Probable space group: P M M N
;
_chemical_formula_sum "Si O2"
_cell_formula_units_Z 64
_cell_length_a 9.000000
_cell_length_b 18.000000
_cell_length_c 21.000000
_cell_angle_alpha 90.000000
_cell_angle_beta 90.000000
_cell_angle_gamma 90.000000
_cell_volume 3402.000000
_symmetry_space_group_name_H-M "P M M N"
_symmetry_group_IT_number 59
_space_group.IT_coordinate_system_code '2'
_symmetry_cell_setting 'orthorhombic'
loop_
_space_group_symop_operation_xyz
x,y,z
1/2-x,1/2-y,z
1/2+x,-y,-z
-x,1/2+y,-z
-x,-y,-z
1/2+x,1/2+y,-z
1/2-x,y,z
x,1/2-y,z
loop_
_atom_site_type_symbol
_atom_site_label
_atom_site_fract_x
_atom_site_fract_y
_atom_site_fract_z
Si Si1 0.070665 0.164316 0.276898
Si Si2 0.582482 0.338816 0.407080
Si Si3 0.575361 0.128065 0.762969
Si Si4 0.425191 0.530619 0.061492
Si Si5 0.077135 0.167767 0.637151
Si Si6 0.926140 0.922835 0.483547
Si Si7 0.418521 0.334087 0.891069
Si Si8 0.071077 0.467698 0.193837
O O1 0.250000 0.160679 0.282089
O O2 0.030715 0.250000 0.265187
O O3 0.016839 0.108742 0.222615
O O4 0.999054 0.138039 0.342638
O O5 0.750000 0.368800 0.410316
O O6 0.589363 0.250000 0.405746
O O7 0.488779 0.364125 0.466756
O O8 0.750000 0.137997 0.777309
O O9 0.528889 0.162685 0.697005
O O10 0.476385 0.161844 0.818880
O O11 0.542900 0.039692 0.762639
O O12 0.250000 0.521945 0.059131
O O13 0.469881 0.615552 0.070072
O O14 0.484461 0.488820 0.124259
O O15 0.500000 0.500000 0.000000
O O16 0.250000 0.158112 0.656812
O O17 0.066348 0.250000 0.607560
O O18 0.037003 0.105513 0.586630
O O19 0.750000 0.927611 0.488747
O O20 0.000000 0.000000 0.500000
O O21 0.250000 0.362949 0.895016
O O22 0.419471 0.250000 0.913083
O O23 0.250000 0.461859 0.189371
#
# Coordination Sequence:
#
# PCOD9453487 Si02
#       8
#     8   8   8   8   8   8   8   8
#     4   9  17  32  56  81 104 137 181 226 273 324
#     4  10  21  37  56  79 107 139 178 225 276 330
#     4  10  20  33  53  81 112 144 179 222 275 331
#     4  10  20  36  57  81 113 151 190 230 275 327
#     4  10  22  39  56  76 105 139 177 222 271 328
#     4  11  24  40  57  78 105 140 183 228 278 332
#     4  10  20  35  56  82 112 146 187 232 277 327
#     4   8  17  33  52  78 109 141 178 222 267 316
#
# _framework density 18.812463000000001
#
# number of rings (size 3 to 8) (size 9 to 14) (size 15 to 20)
#    0.000    2.250    0.000    3.375    1.750    5.000 
#    0.000    3.750    0.000    2.250    0.000    0.000 
#    0.000    0.000    0.000    0.000    0.000    0.000 
#
# Total GULP energy -356738.257481 kJ/mol
# GULP energy per Si atom -5574.035273 kJ/mol
# Density = 1.876965 g / cm^3
# Si number density = 18.812463 Si / 1000 Ang^3
#
#
#
# Elastic Constant Matrix: (Units=GPa)
#
#
# Indices 1 2 3 4 5 6 
#
# 1 9.5888 18.3900 39.0985 0.0000 0.0000 0.0000
# 2 18.3900 18.1985 47.5350 0.0000 0.0000 0.0000
# 3 39.0985 47.5350 55.2523 0.0000 0.0000 0.0000
# 4 0.0000 0.0000 0.0000 231.6111 0.0000 0.0000
# 5 0.0000 0.0000 0.0000 0.0000 20.8515 0.0000
# 6 0.0000 0.0000 0.0000 0.0000 0.0000 23.7716
#
#
#
# Elastic Compliance Matrix: (Units=1/GPa)
#
#
# Indices 1 2 3 4 5 6 
#
# 1 -0.127619 0.085732 0.016550 0.000000 0.000000 0.000000
# 2 0.085732 -0.101652 0.026786 0.000000 0.000000 0.000000
# 3 0.016550 0.026786 -0.016658 0.000000 0.000000 0.000000
# 4 0.000000 0.000000 0.000000 0.004318 0.000000 0.000000
# 5 0.000000 0.000000 0.000000 0.000000 0.047958 0.000000
# 6 0.000000 0.000000 0.000000 0.000000 0.000000 0.042067
#
#
# Mechanical properties :
#
#
# Convention : Reuss Voigt Hill
#
# Bulk Modulus (GPa) = 81.90642 32.56518 57.23580
# Shear Modulus (GPa) = -12.32576 53.78123 20.72774
#
# Velocity S-wave (km/s) = -2.56245 5.35258 3.32295
# Velocity P-wave (km/s) = 5.90576 7.45307 6.72407
#
# Compressibility (1/GPa) = 0.01220905
#
# Stress axis : x y z
#
# Youngs Moduli (GPa) = -7.83580 -9.83751 -60.03147
#
# Poissons Ratio (x) = 0.84339 0.99354
# Poissons Ratio (y) = 0.67178 1.60803
# Poissons Ratio (z) = 0.12969 0.26351
#
# Static dielectric constant tensor:
#      x y z
#    x 1.632610 0.000000 0.000000 
#    y 0.000000 1.709480 0.000000 
#    z 0.000000 0.000000 1.622460 
# 
# From -- ./inp_files/29453.got.cif
#   From: 2010.05.17/outbox.ucp.g08.bks.cvg/sg59_15_cif.got.tgz:29453.got - 2010.06.11 16:43:56.
