data_PCOD9453791
_publ_section_title
;
Structure prediction by ZEFSAII (Michael W. Deem and Ramdas Pophale) SiO2 
 PCOD9453791
Probable space group: P B C N
;
_chemical_formula_sum "Si O2"
_cell_formula_units_Z 56
_cell_length_a 28.760037
_cell_length_b 20.800293
_cell_length_c 5.433536
_cell_angle_alpha 90.000000
_cell_angle_beta 90.000000
_cell_angle_gamma 90.000000
_cell_volume 3250.434672
_symmetry_space_group_name_H-M "P B C N"
_symmetry_group_IT_number 60
_symmetry_cell_setting 'orthorhombic'
loop_
_space_group_symop_operation_xyz
x,y,z
1/2-x,1/2-y,1/2+z
1/2+x,1/2-y,-z
-x,y,1/2-z
-x,-y,-z
1/2+x,1/2+y,1/2-z
1/2-x,1/2+y,z
x,-y,1/2+z
loop_
_atom_site_type_symbol
_atom_site_label
_atom_site_fract_x
_atom_site_fract_y
_atom_site_fract_z
Si Si1 0.500000 0.209447 0.750000
Si Si2 0.716946 0.321531 0.069051
Si Si3 0.309117 0.246551 0.930880
Si Si4 0.825414 0.037524 0.613017
Si Si5 0.561751 0.536494 0.610344
Si Si6 0.596767 0.284586 0.702454
Si Si7 0.500000 0.212960 0.250000
Si Si8 0.926012 0.173237 0.705121
O O1 0.545712 0.254191 0.733810
O O2 0.499304 0.172673 0.496254
O O3 0.772969 0.311911 0.084174
O O4 0.697695 0.280349 0.303076
O O5 0.698670 0.393369 0.097246
O O6 0.704111 0.293206 0.799118
O O7 0.363724 0.234971 0.883129
O O8 0.881798 0.042758 0.612230
O O9 0.812880 0.997174 0.369012
O O10 0.548558 0.501495 0.357865
O O11 0.545832 0.610332 0.625180
O O12 0.595290 0.336040 0.478180
O O13 0.607105 0.313054 0.972184
O O14 0.543050 0.262809 0.237676
#
# Coordination Sequence:
#
# PCOD9453791 Si02
#       8
#     4   8   8   8   8   8   4   8
#     4   8  16  26  40  61  80  96 130 163 190 244
#     4  10  20  32  44  66  89 112 145 174 209 257
#     4  10  19  30  47  65  89 115 138 174 215 254
#     4  10  19  30  44  59  80 109 139 174 208 241
#     4  10  19  28  38  54  71  93 129 168 204 237
#     4  10  17  28  45  62  78 105 131 160 203 242
#     4   8  16  28  40  55  72  98 126 161 204 242
#     4  10  18  29  43  56  76  99 131 167 201 246
#
# _framework density 17.228463999999999
#
# number of rings (size 3 to 8) (size 9 to 14) (size 15 to 20)
#    0.000    2.286    0.000    4.286    0.000    2.286 
#    0.000    0.714    0.000    0.000    0.000    0.000 
#    0.000    0.000    0.000    1.286    0.000    0.000 
#
# Total GULP energy -311784.340096 kJ/mol
# GULP energy per Si atom -5567.577502 kJ/mol
# Density = 1.718925 g / cm^3
# Si number density = 17.228464 Si / 1000 Ang^3
#
#
#
# Elastic Constant Matrix: (Units=GPa)
#
#
# Indices 1 2 3 4 5 6 
#
# 1 74.5125 20.0830 7.3633 0.0000 0.0000 0.0000
# 2 20.0830 31.7100 13.4843 0.0000 0.0000 0.0000
# 3 7.3633 13.4843 162.7051 0.0000 0.0000 0.0000
# 4 0.0000 0.0000 0.0000 17.4425 0.0000 0.0000
# 5 0.0000 0.0000 0.0000 0.0000 18.1281 0.0000
# 6 0.0000 0.0000 0.0000 0.0000 0.0000 -5.5979
#
#
#
# Elastic Compliance Matrix: (Units=1/GPa)
#
#
# Indices 1 2 3 4 5 6 
#
# 1 0.016185 -0.010302 0.000121 0.000000 0.000000 0.000000
# 2 -0.010302 0.039245 -0.002786 0.000000 0.000000 0.000000
# 3 0.000121 -0.002786 0.006372 0.000000 0.000000 0.000000
# 4 0.000000 0.000000 0.000000 0.057331 0.000000 0.000000
# 5 0.000000 0.000000 0.000000 0.000000 0.055163 0.000000
# 6 0.000000 0.000000 0.000000 0.000000 0.000000 -0.178638
#
#
# Mechanical properties :
#
#
# Convention : Reuss Voigt Hill
#
# Bulk Modulus (GPa) = 27.88016 38.97653 33.42835
# Shear Modulus (GPa) = 149.03620 21.19433 85.11526
#
# Velocity S-wave (km/s) = 9.31094 3.51122 7.03641
# Velocity P-wave (km/s) = 11.48082 6.25385 9.24445
#
# Compressibility (1/GPa) = 0.03586780
#
# Stress axis : x y z
#
# Youngs Moduli (GPa) = 61.78443 25.48067 156.94859
#
# Poissons Ratio (x) = 0.26251 -0.01904
# Poissons Ratio (y) = 0.63652 0.43730
# Poissons Ratio (z) = -0.00750 0.07100
#
# Static dielectric constant tensor:
#      x y z
#    x 1.620230 0.000000 0.000000 
#    y 0.000000 1.526730 0.000000 
#    z 0.000000 0.000000 1.663420 
# 
# From -- ./inp_files/2405.got.cif
#   From: 2010.05.17/outbox.cif.g08.bks.cpg/sg60_2_cif.got.tgz:2405.got - 2010.06.03 14:59:27.
