data_PCOD9453080
_publ_section_title
;
Structure prediction by ZEFSAII (Michael W. Deem and Ramdas Pophale) SiO2 
 PCOD9453080
Probable space group: P M M N
;
_chemical_formula_sum "Si O2"
_cell_formula_units_Z 56
_cell_length_a 15.118457
_cell_length_b 7.889118
_cell_length_c 22.237591
_cell_angle_alpha 90.000000
_cell_angle_beta 90.000000
_cell_angle_gamma 90.000000
_cell_volume 2652.306193
_symmetry_space_group_name_H-M "P M M N"
_symmetry_group_IT_number 59
_space_group.IT_coordinate_system_code '2'
_symmetry_cell_setting 'orthorhombic'
loop_
_space_group_symop_operation_xyz
x,y,z
1/2-x,1/2-y,z
1/2+x,-y,-z
-x,1/2+y,-z
-x,-y,-z
1/2+x,1/2+y,-z
1/2-x,y,z
x,1/2-y,z
loop_
_atom_site_type_symbol
_atom_site_label
_atom_site_fract_x
_atom_site_fract_y
_atom_site_fract_z
Si Si1 0.649581 0.541930 0.844661
Si Si2 0.480692 0.051140 0.655391
Si Si3 0.474716 0.948617 0.786602
Si Si4 0.858039 0.945379 0.977082
Si Si5 0.647665 0.454534 0.451626
Si Si6 0.350195 0.047696 0.894621
Si Si7 0.149260 0.542694 0.411958
O O1 0.750000 0.486269 0.832007
O O2 0.652593 0.750000 0.846393
O O3 0.574557 0.486520 0.798309
O O4 0.621254 0.480813 0.911623
O O5 0.490744 0.250000 0.665680
O O6 0.575930 0.980708 0.634444
O O7 0.447819 0.976978 0.718028
O O8 0.414943 0.023976 0.599865
O O9 0.476747 0.750000 0.798002
O O10 0.409632 0.019954 0.836779
O O11 0.750000 0.943896 0.979480
O O12 0.888563 0.750000 0.974914
O O13 0.886399 0.021703 0.041206
O O14 0.750000 0.502333 0.441324
O O15 0.642655 0.250000 0.450100
O O16 0.624671 0.508762 0.519740
O O17 0.250000 0.982818 0.885027
O O18 0.343988 0.250000 0.903531
O O19 0.250000 0.489511 0.399666
O O20 0.148581 0.750000 0.411628
#
# Coordination Sequence:
#
# PCOD9453080 Si02
#       7
#     8   8   8   8   8   8   8
#     4   8  15  30  51  74 101 132 167 208 254 306
#     4  11  22  35  53  76 105 140 174 209 246 291
#     4  11  23  35  49  73 104 139 176 210 249 297
#     4   7  11  24  49  76  97 122 160 206 257 308
#     4   9  18  35  59  83 106 132 163 204 255 305
#     4   9  18  34  55  76  99 129 167 212 259 308
#     4   8  16  33  57  83 107 132 164 203 252 305
#
# _framework density 21.113702
#
# number of rings (size 3 to 8) (size 9 to 14) (size 15 to 20)
#    0.000    3.000    0.000    3.857    0.000    2.286 
#    0.000    0.714    0.000    5.143    0.000    4.000 
#    0.000    0.000    0.000    0.000    0.000    0.000 
#
# Total GULP energy -312300.840579 kJ/mol
# GULP energy per Si atom -5576.800725 kJ/mol
# Density = 2.106565 g / cm^3
# Si number density = 21.113702 Si / 1000 Ang^3
#
#
#
# Elastic Constant Matrix: (Units=GPa)
#
#
# Indices 1 2 3 4 5 6 
#
# 1 28.1638 2.7064 -2.7877 0.0000 0.0000 0.0000
# 2 2.7064 18.8047 -0.5102 0.0000 0.0000 0.0000
# 3 -2.7877 -0.5102 28.4250 0.0000 0.0000 0.0000
# 4 0.0000 0.0000 0.0000 0.2420 0.0000 0.0000
# 5 0.0000 0.0000 0.0000 0.0000 -2.5350 0.0000
# 6 0.0000 0.0000 0.0000 0.0000 0.0000 12.1289
#
#
#
# Elastic Compliance Matrix: (Units=1/GPa)
#
#
# Indices 1 2 3 4 5 6 
#
# 1 0.036344 -0.005137 0.003472 0.000000 0.000000 0.000000
# 2 -0.005137 0.053930 0.000464 0.000000 0.000000 0.000000
# 3 0.003472 0.000464 0.035529 0.000000 0.000000 0.000000
# 4 0.000000 0.000000 0.000000 4.132246 0.000000 0.000000
# 5 0.000000 0.000000 0.000000 0.000000 -0.394485 0.000000
# 6 0.000000 0.000000 0.000000 0.000000 0.000000 0.082448
#
#
# Mechanical properties :
#
#
# Convention : Reuss Voigt Hill
#
# Bulk Modulus (GPa) = 8.10354 8.24561 8.17458
# Shear Modulus (GPa) = 1.25328 7.03286 4.14307
#
# Velocity S-wave (km/s) = 0.77128 1.82707 1.40233
# Velocity P-wave (km/s) = 2.15396 2.89218 2.54993
#
# Compressibility (1/GPa) = 0.12340284
#
# Stress axis : x y z
#
# Youngs Moduli (GPa) = 27.51494 18.54249 28.14592
#
# Poissons Ratio (x) = 0.09524 -0.09773
# Poissons Ratio (y) = 0.14133 -0.01307
# Poissons Ratio (z) = -0.09554 -0.00861
#
# Static dielectric constant tensor:
#      x y z
#    x 1.779980 0.000000 0.000000 
#    y 0.000000 1.769920 0.000000 
#    z 0.000000 0.000000 1.759920 
# 
# From -- ./inp_files/29067.got.cif
#   From: 2010.05.17/outbox.cif.g08.bks.cpg/sg59_15_cif.got.tgz:29067.got - 2010.06.03 14:40:33.
