data_PCOD9453276
_publ_section_title
;
Structure prediction by ZEFSAII (Michael W. Deem and Ramdas Pophale) SiO2 
 PCOD9453276
Probable space group: P M M N
;
_chemical_formula_sum "Si O2"
_cell_formula_units_Z 64
_cell_length_a 14.868618
_cell_length_b 9.419561
_cell_length_c 21.930695
_cell_angle_alpha 90.000000
_cell_angle_beta 90.000000
_cell_angle_gamma 90.000000
_cell_volume 3071.522222
_symmetry_space_group_name_H-M "P M M N"
_symmetry_group_IT_number 59
_space_group.IT_coordinate_system_code '2'
_symmetry_cell_setting 'orthorhombic'
loop_
_space_group_symop_operation_xyz
x,y,z
1/2-x,1/2-y,z
1/2+x,-y,-z
-x,1/2+y,-z
-x,-y,-z
1/2+x,1/2+y,-z
1/2-x,y,z
x,1/2-y,z
loop_
_atom_site_type_symbol
_atom_site_label
_atom_site_fract_x
_atom_site_fract_y
_atom_site_fract_z
Si Si1 0.357241 0.589831 0.123820
Si Si2 0.357889 0.415691 0.875919
Si Si3 0.111365 0.912318 0.259842
Si Si4 0.360024 0.084991 0.008401
Si Si5 0.390237 0.588172 0.629271
Si Si6 0.110612 0.414435 0.376641
Si Si7 0.397151 0.410533 0.743784
Si Si8 0.596492 0.078202 0.504877
O O1 0.250000 0.599168 0.115764
O O2 0.394723 0.750000 0.123373
O O3 0.371150 0.531201 0.191781
O O4 0.392661 0.500671 0.067054
O O5 0.250000 0.416782 0.876485
O O6 0.386957 0.250000 0.875122
O O7 0.384939 0.478662 0.810735
O O8 0.387263 0.474256 0.941782
O O9 0.146500 0.750000 0.263716
O O10 0.003945 0.902311 0.265705
O O11 0.143077 0.011753 0.314511
O O12 0.250000 0.082941 0.009494
O O13 0.386211 0.250000 0.012425
O O14 0.364477 0.750000 0.641136
O O15 0.500365 0.584323 0.626257
O O16 0.360255 0.492566 0.685456
O O17 0.359159 0.549701 0.560980
O O18 0.137181 0.250000 0.382162
O O19 0.138418 0.507967 0.435071
O O20 0.360604 0.250000 0.745841
O O21 0.587297 0.250000 0.511102
O O22 0.500000 0.000000 0.500000
#
# Coordination Sequence:
#
# PCOD9453276 Si02
#       8
#     8   8   8   8   8   8   8   8
#     4   9  17  29  44  61  82 108 137 169 204 243
#     4   8  14  26  44  64  83 104 134 170 205 241
#     4   9  17  28  41  59  84 111 137 166 203 247
#     4   8  14  26  44  62  79 102 134 171 206 240
#     4   8  15  25  36  54  82 111 135 164 203 242
#     4   9  16  25  38  57  81 109 139 171 208 248
#     4   9  16  26  42  61  81 108 138 167 200 241
#     4   9  15  23  36  55  80 110 142 175 209 245
#
# _framework density 20.836573000000001
#
# number of rings (size 3 to 8) (size 9 to 14) (size 15 to 20)
#    0.000    3.375    0.000    2.250    0.000    4.000 
#    0.000    1.250    0.000    1.125    0.000    0.875 
#    0.000    1.000    0.000    0.000    0.000    0.000 
#
# Total GULP energy -356540.770083 kJ/mol
# GULP energy per Si atom -5570.949533 kJ/mol
# Density = 2.078915 g / cm^3
# Si number density = 20.836573 Si / 1000 Ang^3
#
#
#
# Elastic Constant Matrix: (Units=GPa)
#
#
# Indices 1 2 3 4 5 6 
#
# 1 58.2524 4.3010 3.7365 0.0000 0.0000 0.0000
# 2 4.3010 80.1933 107.4859 0.0000 0.0000 0.0000
# 3 3.7365 107.4859 260.8525 0.0000 0.0000 0.0000
# 4 0.0000 0.0000 0.0000 35.2210 0.0000 0.0000
# 5 0.0000 0.0000 0.0000 0.0000 21.9288 0.0000
# 6 0.0000 0.0000 0.0000 0.0000 0.0000 -5.8360
#
#
#
# Elastic Compliance Matrix: (Units=1/GPa)
#
#
# Indices 1 2 3 4 5 6 
#
# 1 0.017245 -0.001326 0.000300 0.000000 0.000000 0.000000
# 2 -0.001326 0.027955 -0.011500 0.000000 0.000000 0.000000
# 3 0.000300 -0.011500 0.008568 0.000000 0.000000 0.000000
# 4 0.000000 0.000000 0.000000 0.028392 0.000000 0.000000
# 5 0.000000 0.000000 0.000000 0.000000 0.045602 0.000000
# 6 0.000000 0.000000 0.000000 0.000000 0.000000 -0.171350
#
#
# Mechanical properties :
#
#
# Convention : Reuss Voigt Hill
#
# Bulk Modulus (GPa) = 34.82565 70.03833 52.43199
# Shear Modulus (GPa) = -557.89095 29.18108 -264.35494
#
# Velocity S-wave (km/s) = -16.38070 3.74635 -11.27591
# Velocity P-wave (km/s) = 18.46672 7.23876 12.01291
#
# Compressibility (1/GPa) = 0.02871447
#
# Stress axis : x y z
#
# Youngs Moduli (GPa) = 57.98650 35.77206 116.71450
#
# Poissons Ratio (x) = 0.04745 -0.03496
# Poissons Ratio (y) = 0.07691 1.34221
# Poissons Ratio (z) = -0.01737 0.41138
#
# Static dielectric constant tensor:
#      x y z
#    x 1.815880 0.000000 0.000000 
#    y 0.000000 1.720280 0.000000 
#    z 0.000000 0.000000 1.780420 
# 
# From -- ./inp_files/29722.got.cif
#   From: 2010.05.17/outbox.cif.g08.bks.cpg/sg59_15_cif.got.tgz:29722.got - 2010.06.03 14:40:33.
