data_PCOD9453142
_publ_section_title
;
Structure prediction by ZEFSAII (Michael W. Deem and Ramdas Pophale) SiO2 
 PCOD9453142
Probable space group: P M M N
;
_chemical_formula_sum "Si O2"
_cell_formula_units_Z 40
_cell_length_a 8.641671
_cell_length_b 14.650947
_cell_length_c 17.623852
_cell_angle_alpha 90.000000
_cell_angle_beta 90.000000
_cell_angle_gamma 90.000000
_cell_volume 2231.332353
_symmetry_space_group_name_H-M "P M M N"
_symmetry_group_IT_number 59
_space_group.IT_coordinate_system_code '2'
_symmetry_cell_setting 'orthorhombic'
loop_
_space_group_symop_operation_xyz
x,y,z
1/2-x,1/2-y,z
1/2+x,-y,-z
-x,1/2+y,-z
-x,-y,-z
1/2+x,1/2+y,-z
1/2-x,y,z
x,1/2-y,z
loop_
_atom_site_type_symbol
_atom_site_label
_atom_site_fract_x
_atom_site_fract_y
_atom_site_fract_z
Si Si1 0.064424 0.250000 0.653750
Si Si2 0.063771 0.558361 0.289323
Si Si3 0.564365 0.750000 0.526062
Si Si4 0.063371 0.991580 0.118799
Si Si5 0.436847 0.645206 0.985737
Si Si6 0.434908 0.943453 0.571501
O O1 0.250000 0.250000 0.660448
O O2 0.026407 0.250000 0.563886
O O3 0.995897 0.159377 0.691276
O O4 0.250000 0.557436 0.293524
O O5 0.016024 0.528968 0.204674
O O6 0.995972 0.490716 0.352344
O O7 0.750000 0.750000 0.533089
O O8 0.495148 0.840716 0.562863
O O9 0.250000 0.996256 0.116855
O O10 0.997386 0.084860 0.084092
O O11 0.015362 0.909912 0.061666
O O12 0.250000 0.645585 0.983922
O O13 0.490181 0.750000 0.985238
O O14 0.250000 0.946397 0.569595
O O15 0.500000 0.000000 0.500000
#
# Coordination Sequence:
#
# PCOD9453142 Si02
#       6
#     4   8   4   8   8   8
#     4  11  23  37  59  89 119 150 191 246 294 347
#     4  11  23  39  61  87 118 157 194 240 293 347
#     4  11  23  41  63  87 115 152 199 246 294 351
#     4   9  20  37  58  85 116 150 190 234 284 343
#     4   9  18  35  60  85 114 151 189 233 284 340
#     4  12  24  40  62  87 118 156 197 243 292 347
#
# _framework density 17.926508999999999
#
# number of rings (size 3 to 8) (size 9 to 14) (size 15 to 20)
#    0.000    1.600    2.000    3.000    1.400    2.800 
#    1.800    0.000    0.000    0.000    0.000    0.000 
#    0.000    0.000    0.000    0.000    0.000    0.000 
#
# Total GULP energy -223501.971910 kJ/mol
# GULP energy per Si atom -5587.549298 kJ/mol
# Density = 1.788571 g / cm^3
# Si number density = 17.926509 Si / 1000 Ang^3
#
#
#
# Elastic Constant Matrix: (Units=GPa)
#
#
# Indices 1 2 3 4 5 6 
#
# 1 62.3503 49.6946 55.9455 0.0000 0.0000 0.0000
# 2 49.6946 202.2333 108.6772 0.0000 0.0000 0.0000
# 3 55.9455 108.6772 177.3416 0.0000 0.0000 0.0000
# 4 0.0000 0.0000 0.0000 3.6957 0.0000 0.0000
# 5 0.0000 0.0000 0.0000 0.0000 26.2899 0.0000
# 6 0.0000 0.0000 0.0000 0.0000 0.0000 33.6409
#
#
#
# Elastic Compliance Matrix: (Units=1/GPa)
#
#
# Indices 1 2 3 4 5 6 
#
# 1 0.023283 -0.002645 -0.005724 0.000000 0.000000 0.000000
# 2 -0.002645 0.007673 -0.003868 0.000000 0.000000 0.000000
# 3 -0.005724 -0.003868 0.009815 0.000000 0.000000 0.000000
# 4 0.000000 0.000000 0.000000 0.270587 0.000000 0.000000
# 5 0.000000 0.000000 0.000000 0.000000 0.038037 0.000000
# 6 0.000000 0.000000 0.000000 0.000000 0.000000 0.029726
#
#
# Mechanical properties :
#
#
# Convention : Reuss Voigt Hill
#
# Bulk Modulus (GPa) = 61.36161 96.72886 79.04523
# Shear Modulus (GPa) = 12.22413 27.89916 20.06165
#
# Velocity S-wave (km/s) = 2.61416 3.94929 3.34893
# Velocity P-wave (km/s) = 6.58905 8.65283 7.69049
#
# Compressibility (1/GPa) = 0.01629683
#
# Stress axis : x y z
#
# Youngs Moduli (GPa) = 42.95039 130.32192 101.88754
#
# Poissons Ratio (x) = 0.34474 0.58319
# Poissons Ratio (y) = 0.11362 0.39408
# Poissons Ratio (z) = 0.24584 0.50406
#
# Static dielectric constant tensor:
#      x y z
#    x 1.604520 0.000000 0.000000 
#    y 0.000000 1.592850 0.000000 
#    z 0.000000 0.000000 1.592220 
# 
# From -- ./inp_files/19995.got.cif
#   From: 2010.05.17/outbox.cif.g08.bks.cpg/sg59_10_cif.got.tgz:19995.got - 2010.06.03 14:40:33.
