data_PCOD9453228
_publ_section_title
;
Structure prediction by ZEFSAII (Michael W. Deem and Ramdas Pophale) SiO2 
 PCOD9453228
Probable space group: P M M N
;
_chemical_formula_sum "Si O2"
_cell_formula_units_Z 56
_cell_length_a 9.976206
_cell_length_b 14.806636
_cell_length_c 18.466448
_cell_angle_alpha 90.000000
_cell_angle_beta 90.000000
_cell_angle_gamma 90.000000
_cell_volume 2727.753840
_symmetry_space_group_name_H-M "P M M N"
_symmetry_group_IT_number 59
_space_group.IT_coordinate_system_code '2'
_symmetry_cell_setting 'orthorhombic'
loop_
_space_group_symop_operation_xyz
x,y,z
1/2-x,1/2-y,z
1/2+x,-y,-z
-x,1/2+y,-z
-x,-y,-z
1/2+x,1/2+y,-z
1/2-x,y,z
x,1/2-y,z
loop_
_atom_site_type_symbol
_atom_site_label
_atom_site_fract_x
_atom_site_fract_y
_atom_site_fract_z
Si Si1 0.401669 0.390348 0.060540
Si Si2 0.097390 0.858270 0.226346
Si Si3 0.097499 0.606587 0.063853
Si Si4 0.902442 0.642690 0.773792
Si Si5 0.596623 0.639874 0.352388
Si Si6 0.095906 0.639470 0.646379
Si Si7 0.403476 0.360155 0.483170
O O1 0.250000 0.355701 0.051344
O O2 0.395584 0.498740 0.054115
O O3 0.443640 0.371081 0.142943
O O4 0.502249 0.356964 0.999024
O O5 0.250000 0.892739 0.231183
O O6 0.102917 0.750000 0.233269
O O7 0.046454 0.877498 0.145347
O O8 0.004171 0.892482 0.290784
O O9 0.250000 0.641929 0.059783
O O10 0.750000 0.606665 0.764590
O O11 0.893482 0.750000 0.761760
O O12 0.011299 0.609368 0.716482
O O13 0.750000 0.613771 0.337119
O O14 0.593482 0.750000 0.351934
O O15 0.563061 0.612484 0.434592
O O16 0.250000 0.609027 0.645940
O O17 0.098982 0.750000 0.646539
O O18 0.011849 0.611033 0.575770
O O19 0.250000 0.388372 0.466293
O O20 0.402213 0.250000 0.482021
#
# Coordination Sequence:
#
# PCOD9453228 Si02
#       7
#     8   8   8   8   8   8   8
#     4   9  18  32  48  64  82 108 142 175 208 249
#     4   9  17  28  42  62  88 115 140 168 207 252
#     4   9  18  32  47  63  85 111 139 172 209 250
#     4   9  17  29  44  62  85 111 139 173 212 251
#     4   8  14  24  38  58  84 113 144 176 208 243
#     4   9  16  24  36  58  86 113 141 172 207 248
#     4   8  13  22  36  54  80 114 145 171 204 245
#
# _framework density 20.529710999999999
#
# number of rings (size 3 to 8) (size 9 to 14) (size 15 to 20)
#    0.000    3.286    0.000    1.286    0.000    4.000 
#    0.000    2.857    0.000    0.000    0.000    1.000 
#    0.000    0.000    0.000    0.000    0.000    0.000 
#
# Total GULP energy -312375.137520 kJ/mol
# GULP energy per Si atom -5578.127456 kJ/mol
# Density = 2.048298 g / cm^3
# Si number density = 20.529711 Si / 1000 Ang^3
#
#
#
# Elastic Constant Matrix: (Units=GPa)
#
#
# Indices 1 2 3 4 5 6 
#
# 1 145.0647 5.6942 152.5906 0.0000 0.0000 0.0000
# 2 5.6942 63.2308 -1.7977 0.0000 0.0000 0.0000
# 3 152.5906 -1.7977 211.7180 0.0000 0.0000 0.0000
# 4 0.0000 0.0000 0.0000 34.7776 0.0000 0.0000
# 5 0.0000 0.0000 0.0000 0.0000 37.3268 0.0000
# 6 0.0000 0.0000 0.0000 0.0000 0.0000 -17.0122
#
#
#
# Elastic Compliance Matrix: (Units=1/GPa)
#
#
# Indices 1 2 3 4 5 6 
#
# 1 0.029141 -0.003222 -0.021030 0.000000 0.000000 0.000000
# 2 -0.003222 0.016175 0.002460 0.000000 0.000000 0.000000
# 3 -0.021030 0.002460 0.019901 0.000000 0.000000 0.000000
# 4 0.000000 0.000000 0.000000 0.028754 0.000000 0.000000
# 5 0.000000 0.000000 0.000000 0.000000 0.026790 0.000000
# 6 0.000000 0.000000 0.000000 0.000000 0.000000 -0.058781
#
#
# Mechanical properties :
#
#
# Convention : Reuss Voigt Hill
#
# Bulk Modulus (GPa) = 46.22758 81.44307 63.83532
# Shear Modulus (GPa) = 44.33555 28.58687 36.46121
#
# Velocity S-wave (km/s) = 4.65217 3.73562 4.21886
# Velocity P-wave (km/s) = 7.17100 7.63960 7.40900
#
# Compressibility (1/GPa) = 0.02163211
#
# Stress axis : x y z
#
# Youngs Moduli (GPa) = 34.31593 61.82312 50.24870
#
# Poissons Ratio (x) = 0.19920 1.05673
# Poissons Ratio (y) = 0.11057 -0.12359
# Poissons Ratio (z) = 0.72166 -0.15206
#
# Static dielectric constant tensor:
#      x y z
#    x 1.715290 0.000000 0.000000 
#    y 0.000000 1.777250 0.000000 
#    z 0.000000 0.000000 1.702570 
# 
# From -- ./inp_files/26024.got.cif
#   From: 2010.05.17/outbox.cif.g08.bks.cpg/sg59_14_cif.got.tgz:26024.got - 2010.06.03 14:40:33.
