data_PCOD9453143
_publ_section_title
;
Structure prediction by ZEFSAII (Michael W. Deem and Ramdas Pophale) SiO2 
 PCOD9453143
Probable space group: P M M N
;
_chemical_formula_sum "Si O2"
_cell_formula_units_Z 64
_cell_length_a 9.233686
_cell_length_b 24.140881
_cell_length_c 14.598566
_cell_angle_alpha 90.000000
_cell_angle_beta 90.000000
_cell_angle_gamma 90.000000
_cell_volume 3254.156346
_symmetry_space_group_name_H-M "P M M N"
_symmetry_group_IT_number 59
_space_group.IT_coordinate_system_code '2'
_symmetry_cell_setting 'orthorhombic'
loop_
_space_group_symop_operation_xyz
x,y,z
1/2-x,1/2-y,z
1/2+x,-y,-z
-x,1/2+y,-z
-x,-y,-z
1/2+x,1/2+y,-z
1/2-x,y,z
x,1/2-y,z
loop_
_atom_site_type_symbol
_atom_site_label
_atom_site_fract_x
_atom_site_fract_y
_atom_site_fract_z
Si Si1 0.579630 0.580538 0.059054
Si Si2 0.081106 0.816216 0.554711
Si Si3 0.423752 0.416978 0.739622
Si Si4 0.914250 0.095210 0.116997
Si Si5 0.585488 0.007374 0.593645
Si Si6 0.076429 0.815195 0.342615
Si Si7 0.585315 0.314758 0.976630
Si Si8 0.586980 0.891128 0.697245
O O1 0.750000 0.574234 0.042795
O O2 0.541275 0.558183 0.159518
O O3 0.534034 0.645749 0.068464
O O4 0.489552 0.563705 0.968750
O O5 0.250000 0.831583 0.565153
O O6 0.069771 0.750000 0.564636
O O7 0.039263 0.828797 0.449119
O O8 0.989622 0.847014 0.631317
O O9 0.250000 0.415702 0.731711
O O10 0.497633 0.453457 0.661708
O O11 0.489877 0.356082 0.722859
O O12 0.750000 0.075650 0.128846
O O13 0.000532 0.095877 0.210302
O O14 0.910853 0.158672 0.078539
O O15 0.750000 0.028213 0.579163
O O16 0.500000 0.000000 0.500000
O O17 0.593444 0.947650 0.640461
O O18 0.250000 0.822649 0.332195
O O19 0.046237 0.750000 0.327099
O O20 0.750000 0.324060 0.939359
O O21 0.555305 0.250000 0.973917
O O22 0.750000 0.873145 0.720327
#
# Coordination Sequence:
#
# PCOD9453143 Si02
#       8
#     8   8   8   8   8   8   8   8
#     4   9  19  35  53  78 113 147 186 237 285 337
#     4   9  19  36  57  82 113 150 191 234 284 348
#     4  11  23  38  59  87 120 157 198 244 297 355
#     4   9  19  35  56  80 109 147 189 233 282 341
#     4  11  25  43  64  90 120 154 197 248 299 355
#     4   9  19  36  58  84 115 154 197 241 294 355
#     4   8  16  31  51  77 109 147 192 237 282 337
#     4  11  23  38  58  87 118 149 191 242 296 350
#
# _framework density 19.667155000000001
#
# number of rings (size 3 to 8) (size 9 to 14) (size 15 to 20)
#    0.750    1.625    0.000    3.000    0.000    8.250 
#    0.000    5.625    0.000    0.000    0.000    0.000 
#    0.000    0.000    0.000    0.000    0.000    0.000 
#
# Total GULP energy -356854.764673 kJ/mol
# GULP energy per Si atom -5575.855698 kJ/mol
# Density = 1.962239 g / cm^3
# Si number density = 19.667155 Si / 1000 Ang^3
#
#
#
# Elastic Constant Matrix: (Units=GPa)
#
#
# Indices 1 2 3 4 5 6 
#
# 1 100.5008 8.6535 78.0717 0.0000 0.0000 0.0000
# 2 8.6535 18.5734 16.2823 0.0000 0.0000 0.0000
# 3 78.0717 16.2823 141.9443 0.0000 0.0000 0.0000
# 4 0.0000 0.0000 0.0000 9.3956 0.0000 0.0000
# 5 0.0000 0.0000 0.0000 0.0000 32.5281 0.0000
# 6 0.0000 0.0000 0.0000 0.0000 0.0000 23.9174
#
#
#
# Elastic Compliance Matrix: (Units=1/GPa)
#
#
# Indices 1 2 3 4 5 6 
#
# 1 0.017375 0.000314 -0.009592 0.000000 0.000000 0.000000
# 2 0.000314 0.059866 -0.007040 0.000000 0.000000 0.000000
# 3 -0.009592 -0.007040 0.013129 0.000000 0.000000 0.000000
# 4 0.000000 0.000000 0.000000 0.106433 0.000000 0.000000
# 5 0.000000 0.000000 0.000000 0.000000 0.030743 0.000000
# 6 0.000000 0.000000 0.000000 0.000000 0.000000 0.041811
#
#
# Mechanical properties :
#
#
# Convention : Reuss Voigt Hill
#
# Bulk Modulus (GPa) = 17.32122 51.89259 34.60691
# Shear Modulus (GPa) = 15.56487 23.70228 19.63358
#
# Velocity S-wave (km/s) = 2.81626 3.47532 3.16300
# Velocity P-wave (km/s) = 4.40470 6.52277 5.56543
#
# Compressibility (1/GPa) = 0.05773264
#
# Stress axis : x y z
#
# Youngs Moduli (GPa) = 57.55465 16.70404 76.16982
#
# Poissons Ratio (x) = -0.00525 0.73066
# Poissons Ratio (y) = -0.01808 0.53623
# Poissons Ratio (z) = 0.55209 0.11760
#
# Static dielectric constant tensor:
#      x y z
#    x 1.674280 0.000000 0.000000 
#    y 0.000000 1.730070 0.000000 
#    z 0.000000 0.000000 3.719730 
# 
# From -- ./inp_files/21551.got.cif
#   From: 2010.05.17/outbox.cif.g08.bks.cpg/sg59_11_cif.got.tgz:21551.got - 2010.06.03 14:40:33.
