data_PCOD9453860
_publ_section_title
;
Structure prediction by ZEFSAII (Michael W. Deem and Ramdas Pophale) SiO2 
 PCOD9453860
Probable space group: P B C N
;
_chemical_formula_sum "Si O2"
_cell_formula_units_Z 48
_cell_length_a 8.852181
_cell_length_b 15.126694
_cell_length_c 15.064481
_cell_angle_alpha 90.000000
_cell_angle_beta 90.000000
_cell_angle_gamma 90.000000
_cell_volume 2017.197777
_symmetry_space_group_name_H-M "P B C N"
_symmetry_group_IT_number 60
_symmetry_cell_setting 'orthorhombic'
loop_
_space_group_symop_operation_xyz
x,y,z
1/2-x,1/2-y,1/2+z
1/2+x,1/2-y,-z
-x,y,1/2-z
-x,-y,-z
1/2+x,1/2+y,1/2-z
1/2-x,1/2+y,z
x,-y,1/2+z
loop_
_atom_site_type_symbol
_atom_site_label
_atom_site_fract_x
_atom_site_fract_y
_atom_site_fract_z
Si Si1 0.342731 0.240200 0.450423
Si Si2 0.745191 0.878750 0.906454
Si Si3 0.327585 0.683234 0.273074
Si Si4 0.050568 0.152678 0.654553
Si Si5 0.576354 0.533291 0.113176
Si Si6 0.794313 0.432756 0.447716
O O1 0.262453 0.312491 0.511970
O O2 0.244279 0.228118 0.360284
O O3 0.502131 0.279377 0.420428
O O4 0.374845 0.148908 0.502912
O O5 0.726706 0.822578 0.815577
O O6 0.914981 0.918804 0.893741
O O7 0.647393 0.968871 0.922050
O O8 0.500000 0.714412 0.250000
O O9 0.340392 0.582219 0.306961
O O10 0.216533 0.113430 0.637792
O O11 0.000000 0.184710 0.750000
O O12 0.944642 0.067563 0.636663
O O13 0.665322 0.546700 0.021950
#
# Coordination Sequence:
#
# PCOD9453860 Si02
#       6
#     8   8   8   8   8   8
#     4  11  22  33  55  87 113 145 184 232 282 333
#     4  10  17  35  55  78 116 141 180 228 281 327
#     4   9  20  34  55  85 114 145 182 228 277 337
#     4  11  20  33  55  87 112 135 186 243 286 315
#     4   9  15  34  57  82 109 136 176 244 289 317
#     4  10  19  34  56  82 112 144 179 231 285 336
#
# _framework density 23.795383999999999
#
# number of rings (size 3 to 8) (size 9 to 14) (size 15 to 20)
#    0.000    2.000    3.333    3.500    2.333    0.000 
#    0.000    0.000    0.000    2.000    0.000    0.000 
#    0.000    0.000    0.000    0.000    0.000    0.000 
#
# Total GULP energy -267966.794043 kJ/mol
# GULP energy per Si atom -5582.641543 kJ/mol
# Density = 2.374122 g / cm^3
# Si number density = 23.795384 Si / 1000 Ang^3
#
#
#
# Elastic Constant Matrix: (Units=GPa)
#
#
# Indices 1 2 3 4 5 6 
#
# 1 26.0327 35.6253 17.6112 0.0000 0.0000 0.0000
# 2 35.6253 139.8078 68.0682 0.0000 0.0000 0.0000
# 3 17.6112 68.0682 155.6323 0.0000 0.0000 0.0000
# 4 0.0000 0.0000 0.0000 47.4824 0.0000 0.0000
# 5 0.0000 0.0000 0.0000 0.0000 27.5380 0.0000
# 6 0.0000 0.0000 0.0000 0.0000 0.0000 20.0704
#
#
#
# Elastic Compliance Matrix: (Units=1/GPa)
#
#
# Indices 1 2 3 4 5 6 
#
# 1 0.058983 -0.014967 -0.000128 0.000000 0.000000 0.000000
# 2 -0.014967 0.012886 -0.003942 0.000000 0.000000 0.000000
# 3 -0.000128 -0.003942 0.008164 0.000000 0.000000 0.000000
# 4 0.000000 0.000000 0.000000 0.021060 0.000000 0.000000
# 5 0.000000 0.000000 0.000000 0.000000 0.036313 0.000000
# 6 0.000000 0.000000 0.000000 0.000000 0.000000 0.049825
#
#
# Mechanical properties :
#
#
# Convention : Reuss Voigt Hill
#
# Bulk Modulus (GPa) = 23.83386 62.67580 43.25483
# Shear Modulus (GPa) = 20.89496 32.36269 26.62883
#
# Velocity S-wave (km/s) = 2.96651 3.69187 3.34889
# Velocity P-wave (km/s) = 4.66599 6.67607 5.75940
#
# Compressibility (1/GPa) = 0.04195711
#
# Stress axis : x y z
#
# Youngs Moduli (GPa) = 16.95418 77.60415 122.48773
#
# Poissons Ratio (x) = 1.16152 0.01571
# Poissons Ratio (y) = 0.25376 0.48287
# Poissons Ratio (z) = 0.00217 0.30593
#
# Static dielectric constant tensor:
#      x y z
#    x 1.971430 0.000000 0.000000 
#    y 0.000000 1.979400 0.000000 
#    z 0.000000 0.000000 1.958930 
# 
# From -- ./inp_files/16091.got.cif
#   From: 2010.05.17/outbox.cif.g08.bks.cpg/sg60_9_cif.got.tgz:16091.got - 2010.06.03 14:59:27.
