data_PCOD9453828
_publ_section_title
;
Structure prediction by ZEFSAII (Michael W. Deem and Ramdas Pophale) SiO2 
 PCOD9453828
Probable space group: P B C N
;
_chemical_formula_sum "Si O2"
_cell_formula_units_Z 64
_cell_length_a 8.320838
_cell_length_b 18.363959
_cell_length_c 21.935086
_cell_angle_alpha 90.000000
_cell_angle_beta 90.000000
_cell_angle_gamma 90.000000
_cell_volume 3351.758525
_symmetry_space_group_name_H-M "P B C N"
_symmetry_group_IT_number 60
_symmetry_cell_setting 'orthorhombic'
loop_
_space_group_symop_operation_xyz
x,y,z
1/2-x,1/2-y,1/2+z
1/2+x,1/2-y,-z
-x,y,1/2-z
-x,-y,-z
1/2+x,1/2+y,1/2-z
1/2-x,1/2+y,z
x,-y,1/2+z
loop_
_atom_site_type_symbol
_atom_site_label
_atom_site_fract_x
_atom_site_fract_y
_atom_site_fract_z
Si Si1 0.323293 0.801031 0.069542
Si Si2 0.666398 0.636514 0.609875
Si Si3 0.641246 0.550311 0.888669
Si Si4 0.495049 0.219372 0.441901
Si Si5 0.575917 0.017739 0.811910
Si Si6 0.944340 0.435977 0.578268
Si Si7 0.520021 0.818962 0.184036
Si Si8 0.261030 0.527021 0.999461
O O1 0.246289 0.881121 0.083956
O O2 0.179463 0.744417 0.058729
O O3 0.429250 0.780320 0.128308
O O4 0.434097 0.800363 0.009759
O O5 0.520408 0.587311 0.635996
O O6 0.599514 0.712754 0.585542
O O7 0.806424 0.655842 0.657854
O O8 0.711352 0.591217 0.548772
O O9 0.744180 0.506753 0.838011
O O10 0.617001 0.497077 0.947049
O O11 0.458137 0.147415 0.403134
O O12 0.500000 0.986981 0.750000
O O13 0.571262 0.104587 0.806190
O O14 0.460966 0.990640 0.865748
O O15 0.786784 0.456799 0.540762
O O16 0.099909 0.451061 0.536284
O O17 0.500000 0.781257 0.250000
#
# Coordination Sequence:
#
# PCOD9453828 Si02
#       8
#     8   8   8   8   8   8   8   8
#     4  10  19  34  52  82 114 147 188 229 286 344
#     4  11  21  34  56  90 115 148 188 237 292 341
#     4   9  19  32  54  85 116 138 188 238 289 338
#     4  11  21  33  55  86 120 145 180 243 291 340
#     4   9  18  35  56  77 103 147 194 235 273 330
#     4  10  18  31  56  81 107 150 189 222 283 344
#     4  10  20  37  58  77 107 154 196 233 277 339
#     4  10  17  32  56  82 114 145 184 233 284 342
#
# _framework density 19.094455
#
# number of rings (size 3 to 8) (size 9 to 14) (size 15 to 20)
#    0.000    2.000    2.500    2.625    0.000    0.000 
#    0.000   11.250    0.000    0.000    0.000    0.000 
#    0.000    0.000    0.000    0.000    0.000    0.000 
#
# Total GULP energy -356364.024123 kJ/mol
# GULP energy per Si atom -5568.187877 kJ/mol
# Density = 1.905100 g / cm^3
# Si number density = 19.094455 Si / 1000 Ang^3
#
#
#
# Elastic Constant Matrix: (Units=GPa)
#
#
# Indices 1 2 3 4 5 6 
#
# 1 76.7384 -1.1661 32.7980 0.0000 0.0000 0.0000
# 2 -1.1661 49.7175 -9.5259 0.0000 0.0000 0.0000
# 3 32.7980 -9.5259 64.7979 0.0000 0.0000 0.0000
# 4 0.0000 0.0000 0.0000 14.9554 0.0000 0.0000
# 5 0.0000 0.0000 0.0000 0.0000 19.4210 0.0000
# 6 0.0000 0.0000 0.0000 0.0000 0.0000 19.7662
#
#
#
# Elastic Compliance Matrix: (Units=1/GPa)
#
#
# Indices 1 2 3 4 5 6 
#
# 1 0.016705 -0.001264 -0.008641 0.000000 0.000000 0.000000
# 2 -0.001264 0.020792 0.003696 0.000000 0.000000 0.000000
# 3 -0.008641 0.003696 0.020350 0.000000 0.000000 0.000000
# 4 0.000000 0.000000 0.000000 0.066866 0.000000 0.000000
# 5 0.000000 0.000000 0.000000 0.000000 0.051491 0.000000
# 6 0.000000 0.000000 0.000000 0.000000 0.000000 0.050591
#
#
# Mechanical properties :
#
#
# Convention : Reuss Voigt Hill
#
# Bulk Modulus (GPa) = 22.01199 26.16285 24.08742
# Shear Modulus (GPa) = 19.65747 22.10503 20.88125
#
# Velocity S-wave (km/s) = 3.21204 3.40614 3.31051
# Velocity P-wave (km/s) = 5.03083 5.40376 5.22063
#
# Compressibility (1/GPa) = 0.04542979
#
# Stress axis : x y z
#
# Youngs Moduli (GPa) = 59.86084 48.09488 49.14024
#
# Poissons Ratio (x) = 0.06079 0.42464
# Poissons Ratio (y) = 0.07566 -0.18164
# Poissons Ratio (z) = 0.51728 -0.17778
#
# Static dielectric constant tensor:
#      x y z
#    x 1.723880 0.000000 0.000000 
#    y 0.000000 1.696330 0.000000 
#    z 0.000000 0.000000 1.719290 
# 
# From -- ./inp_files/22343.got.cif
#   From: 2010.05.17/outbox.cif.g08.bks.cpg/sg60_12_cif.got.tgz:22343.got - 2010.06.03 14:59:27.
