data_PCOD9454458
_publ_section_title
;
Structure prediction by ZEFSAII (Michael W. Deem and Ramdas Pophale) SiO2 
 PCOD9454458
Probable space group: P B C N
;
_chemical_formula_sum "Si O2"
_cell_formula_units_Z 64
_cell_length_a 5.581882
_cell_length_b 16.180868
_cell_length_c 29.283410
_cell_angle_alpha 90.000000
_cell_angle_beta 90.000000
_cell_angle_gamma 90.000000
_cell_volume 2644.868684
_symmetry_space_group_name_H-M "P B C N"
_symmetry_group_IT_number 60
_symmetry_cell_setting 'orthorhombic'
loop_
_space_group_symop_operation_xyz
x,y,z
1/2-x,1/2-y,1/2+z
1/2+x,1/2-y,-z
-x,y,1/2-z
-x,-y,-z
1/2+x,1/2+y,1/2-z
1/2-x,1/2+y,z
x,-y,1/2+z
loop_
_atom_site_type_symbol
_atom_site_label
_atom_site_fract_x
_atom_site_fract_y
_atom_site_fract_z
Si Si1 0.500023 0.278280 0.571364
Si Si2 0.500087 0.180885 0.835009
Si Si3 0.499912 0.338145 0.302031
Si Si4 0.500018 0.461357 0.051625
Si Si5 0.999918 0.984965 0.653544
Si Si6 0.500022 0.877601 0.930912
Si Si7 0.999982 0.616248 0.967907
Si Si8 0.999919 0.480679 0.841362
O O1 0.499995 0.218450 0.614989
O O2 0.248569 0.326937 0.572627
O O3 0.500006 0.215903 0.528828
O O4 0.751492 0.326928 0.572634
O O5 0.749274 0.206919 0.811480
O O6 0.250946 0.206904 0.811458
O O7 0.500103 0.080069 0.836092
O O8 0.500000 0.367895 0.250000
O O9 0.499897 0.417414 0.335244
O O10 0.500043 0.517057 0.097908
O O11 0.746837 0.409641 0.054053
O O12 0.253202 0.409638 0.054054
O O13 0.500000 0.500000 0.000000
O O14 0.757382 0.949968 0.675229
O O15 0.242455 0.949965 0.675227
O O16 0.500045 0.948147 0.893019
O O17 0.499981 0.917031 0.980663
#
# Coordination Sequence:
#
# PCOD9454458 Si02
#       8
#     8   8   8   8   8   8   8   8
#     4  12  24  40  58  82 118 158 195 241 298 347
#     4  10  21  38  60  88 116 147 188 237 292 350
#     4  10  19  34  59  92 120 145 184 242 297 347
#     4  12  22  35  57  85 118 155 195 245 297 341
#     4  10  19  34  54  85 120 148 186 239 298 346
#     4  12  24  39  57  83 115 158 205 242 289 344
#     4  12  23  37  53  77 114 158 202 244 287 342
#     4  10  20  37  58  82 112 145 191 242 280 341
#
# _framework density 24.197797999999999
#
# number of rings (size 3 to 8) (size 9 to 14) (size 15 to 20)
#    0.000    1.000    0.000    9.750    0.000    0.000 
#    0.000    0.000    0.000    0.000    0.000   70.000 
#    0.000    0.000    0.000    0.000    0.000    0.000 
#
# Total GULP energy -357464.713434 kJ/mol
# GULP energy per Si atom -5585.386147 kJ/mol
# Density = 2.414272 g / cm^3
# Si number density = 24.197798 Si / 1000 Ang^3
#
#
#
# Elastic Constant Matrix: (Units=GPa)
#
#
# Indices 1 2 3 4 5 6 
#
# 1 312.1796 38.4454 10.5369 0.0000 0.0000 0.0000
# 2 38.4454 41.4022 -3.9755 0.0000 0.0000 0.0000
# 3 10.5369 -3.9755 45.2419 0.0000 0.0000 0.0000
# 4 0.0000 0.0000 0.0000 0.7756 0.0000 0.0000
# 5 0.0000 0.0000 0.0000 0.0000 9.1361 0.0000
# 6 0.0000 0.0000 0.0000 0.0000 0.0000 30.2086
#
#
#
# Elastic Compliance Matrix: (Units=1/GPa)
#
#
# Indices 1 2 3 4 5 6 
#
# 1 0.003677 -0.003526 -0.001166 0.000000 0.000000 0.000000
# 2 -0.003526 0.027741 0.003259 0.000000 0.000000 0.000000
# 3 -0.001166 0.003259 0.022661 0.000000 0.000000 0.000000
# 4 0.000000 0.000000 0.000000 1.289316 0.000000 0.000000
# 5 0.000000 0.000000 0.000000 0.000000 0.109456 0.000000
# 6 0.000000 0.000000 0.000000 0.000000 0.000000 0.033103
#
#
# Mechanical properties :
#
#
# Convention : Reuss Voigt Hill
#
# Bulk Modulus (GPa) = 19.52673 54.31525 36.92099
# Shear Modulus (GPa) = 3.32029 31.61184 17.46607
#
# Velocity S-wave (km/s) = 1.17266 3.61833 2.68956
# Velocity P-wave (km/s) = 3.14971 6.32072 4.99360
#
# Compressibility (1/GPa) = 0.05121184
#
# Stress axis : x y z
#
# Youngs Moduli (GPa) = 271.96687 36.04806 44.12790
#
# Poissons Ratio (x) = 0.12712 0.05146
# Poissons Ratio (y) = 0.95904 -0.14381
# Poissons Ratio (z) = 0.31717 -0.11748
#
# Static dielectric constant tensor:
#      x y z
#    x 2.031870 0.000000 0.000000 
#    y 0.000000 1.967050 0.000000 
#    z 0.000000 0.000000 1.919830 
# 
# From -- ./inp_files/25042.got.cif
#   From: 2010.05.17/outbox.cif.g08.bks.cpg/sg60_13_cif.got.tgz:25042.got - 2010.06.03 14:59:27.
