data_PCOD9454009
_publ_section_title
;
Structure prediction by ZEFSAII (Michael W. Deem and Ramdas Pophale) SiO2 
 PCOD9454009
Probable space group: P B C N
;
_chemical_formula_sum "Si O2"
_cell_formula_units_Z 64
_cell_length_a 9.049612
_cell_length_b 26.214589
_cell_length_c 13.993815
_cell_angle_alpha 90.000000
_cell_angle_beta 90.000000
_cell_angle_gamma 90.000000
_cell_volume 3319.778750
_symmetry_space_group_name_H-M "P B C N"
_symmetry_group_IT_number 60
_symmetry_cell_setting 'orthorhombic'
loop_
_space_group_symop_operation_xyz
x,y,z
1/2-x,1/2-y,1/2+z
1/2+x,1/2-y,-z
-x,y,1/2-z
-x,-y,-z
1/2+x,1/2+y,1/2-z
1/2-x,1/2+y,z
x,-y,1/2+z
loop_
_atom_site_type_symbol
_atom_site_label
_atom_site_fract_x
_atom_site_fract_y
_atom_site_fract_z
Si Si1 0.882862 0.182838 0.999731
Si Si2 0.559404 0.518899 0.850696
Si Si3 0.107225 0.184111 0.834799
Si Si4 0.592441 0.143078 0.890850
Si Si5 0.704332 0.094691 0.565470
Si Si6 0.662124 0.952510 0.258758
Si Si7 0.474688 0.422154 0.542386
Si Si8 0.603049 0.240486 0.671940
O O1 0.731270 0.163314 0.950841
O O2 0.994972 0.202541 0.917349
O O3 0.955781 0.133319 0.050224
O O4 0.866552 0.226410 0.078151
O O5 0.500000 0.539608 0.750000
O O6 0.732505 0.516849 0.827991
O O7 0.532707 0.554995 0.941134
O O8 0.493550 0.463925 0.877234
O O9 0.203229 0.141036 0.887364
O O10 0.233876 0.222042 0.795273
O O11 0.000000 0.166037 0.750000
O O12 0.465964 0.110641 0.946418
O O13 0.646511 0.104584 0.806427
O O14 0.500531 0.191737 0.853460
O O15 0.713580 0.052749 0.649270
O O16 0.797903 0.080538 0.473116
O O17 0.500000 0.974579 0.250000
O O18 0.500000 0.268476 0.750000
#
# Coordination Sequence:
#
# PCOD9454009 Si02
#       8
#     8   8   8   8   8   8   8   8
#     4  11  21  36  58  81 115 154 192 233 287 337
#     4  11  21  37  59  83 114 144 190 238 286 346
#     4  10  20  32  56  84 109 146 190 238 282 328
#     4  10  19  35  57  85 116 147 187 241 287 332
#     4   9  18  32  54  83 114 141 178 233 289 330
#     4  10  18  32  56  84 113 142 176 236 297 330
#     4  10  22  36  56  85 109 151 191 231 286 344
#     4  11  22  36  53  82 118 155 193 232 278 341
#
# _framework density 19.278393999999999
#
# number of rings (size 3 to 8) (size 9 to 14) (size 15 to 20)
#    0.000    1.750    2.500    4.125    1.750    0.500 
#    0.000    5.000    0.000    0.000    0.000    0.000 
#    0.000    0.000    0.000    0.000    0.000    0.000 
#
# Total GULP energy -356676.688635 kJ/mol
# GULP energy per Si atom -5573.073260 kJ/mol
# Density = 1.923452 g / cm^3
# Si number density = 19.278394 Si / 1000 Ang^3
#
#
#
# Elastic Constant Matrix: (Units=GPa)
#
#
# Indices 1 2 3 4 5 6 
#
# 1 112.5202 10.1592 21.3426 0.0000 0.0000 0.0000
# 2 10.1592 44.1875 10.6233 0.0000 0.0000 0.0000
# 3 21.3426 10.6233 41.4253 0.0000 0.0000 0.0000
# 4 0.0000 0.0000 0.0000 15.9994 0.0000 0.0000
# 5 0.0000 0.0000 0.0000 0.0000 16.9937 0.0000
# 6 0.0000 0.0000 0.0000 0.0000 0.0000 19.9329
#
#
#
# Elastic Compliance Matrix: (Units=1/GPa)
#
#
# Indices 1 2 3 4 5 6 
#
# 1 0.009902 -0.001119 -0.004814 0.000000 0.000000 0.000000
# 2 -0.001119 0.024244 -0.005641 0.000000 0.000000 0.000000
# 3 -0.004814 -0.005641 0.028067 0.000000 0.000000 0.000000
# 4 0.000000 0.000000 0.000000 0.062502 0.000000 0.000000
# 5 0.000000 0.000000 0.000000 0.000000 0.058845 0.000000
# 6 0.000000 0.000000 0.000000 0.000000 0.000000 0.050168
#
#
# Mechanical properties :
#
#
# Convention : Reuss Voigt Hill
#
# Bulk Modulus (GPa) = 25.59892 31.37594 28.48743
# Shear Modulus (GPa) = 18.52549 20.98572 19.75561
#
# Velocity S-wave (km/s) = 3.10328 3.30291 3.20465
# Velocity P-wave (km/s) = 5.11349 5.55483 5.33873
#
# Compressibility (1/GPa) = 0.03906415
#
# Stress axis : x y z
#
# Youngs Moduli (GPa) = 100.99473 41.24689 35.62934
#
# Poissons Ratio (x) = 0.04616 0.17153
# Poissons Ratio (y) = 0.11302 0.20098
# Poissons Ratio (z) = 0.48622 0.23267
#
# Static dielectric constant tensor:
#      x y z
#    x 1.749990 0.000000 0.000000 
#    y 0.000000 1.686580 0.000000 
#    z 0.000000 0.000000 1.684340 
# 
# From -- ./inp_files/15456.got.cif
#   From: 2010.05.17/outbox.cif.g08.bks.cpg/sg60_8_cif.got.tgz:15456.got - 2010.06.03 14:59:27.
