data_PCOD9454248
_publ_section_title
;
Structure prediction by ZEFSAII (Michael W. Deem and Ramdas Pophale) SiO2 
 PCOD9454248
Probable space group: P B C N
;
_chemical_formula_sum "Si O2"
_cell_formula_units_Z 52
_cell_length_a 7.979322
_cell_length_b 18.187327
_cell_length_c 15.602175
_cell_angle_alpha 90.000000
_cell_angle_beta 90.000000
_cell_angle_gamma 90.000000
_cell_volume 2264.227241
_symmetry_space_group_name_H-M "P B C N"
_symmetry_group_IT_number 60
_symmetry_cell_setting 'orthorhombic'
loop_
_space_group_symop_operation_xyz
x,y,z
1/2-x,1/2-y,1/2+z
1/2+x,1/2-y,-z
-x,y,1/2-z
-x,-y,-z
1/2+x,1/2+y,1/2-z
1/2-x,1/2+y,z
x,-y,1/2+z
loop_
_atom_site_type_symbol
_atom_site_label
_atom_site_fract_x
_atom_site_fract_y
_atom_site_fract_z
Si Si1 0.000000 0.179670 0.750000
Si Si2 0.557325 0.020560 0.904966
Si Si3 0.135884 0.191985 0.085231
Si Si4 0.360010 0.159014 0.682133
Si Si5 0.382383 0.553174 0.183291
Si Si6 0.022430 0.722044 0.419173
Si Si7 0.858387 0.399318 0.682241
O O1 0.176157 0.143564 0.720786
O O2 0.961414 0.227815 0.665475
O O3 0.589548 0.107120 0.896992
O O4 0.732000 0.988303 0.865973
O O5 0.414104 0.980967 0.846876
O O6 0.500000 0.000000 0.000000
O O7 0.122189 0.256140 0.156056
O O8 0.060505 0.113595 0.113124
O O9 0.337440 0.186535 0.072885
O O10 0.059539 0.226800 0.999620
O O11 0.500000 0.139615 0.750000
O O12 0.500000 0.507185 0.250000
O O13 0.301638 0.602415 0.258675
O O14 0.144420 0.654108 0.398548
O O15 0.000000 0.374249 0.750000
#
# Coordination Sequence:
#
# PCOD9454248 Si02
#       7
#     4   8   8   8   8   8   8
#     4  10  24  42  64  96 136 170 224 278 348 404
#     4  11  24  44  69  95 129 176 229 280 344 417
#     4  11  24  38  64 100 133 168 225 285 336 395
#     4  11  24  42  68  95 131 178 222 278 345 412
#     4  11  24  42  67  99 132 179 228 278 340 420
#     4  11  21  39  63  96 131 172 217 284 335 403
#     4  10  18  41  67  85 129 181 218 259 341 421
#
# _framework density 22.965893999999999
#
# number of rings (size 3 to 8) (size 9 to 14) (size 15 to 20)
#    0.000    1.231    3.846    3.692    5.385    0.000 
#    0.000    0.769    0.000    0.000    0.000    0.000 
#    0.000    0.000    0.000    0.000    0.000    0.000 
#
# Total GULP energy -289880.753602 kJ/mol
# GULP energy per Si atom -5574.629877 kJ/mol
# Density = 2.291362 g / cm^3
# Si number density = 22.965894 Si / 1000 Ang^3
#
#
#
# Elastic Constant Matrix: (Units=GPa)
#
#
# Indices 1 2 3 4 5 6 
#
# 1 46.0008 -0.2884 26.3294 0.0000 0.0000 0.0000
# 2 -0.2884 60.8964 2.7583 0.0000 0.0000 0.0000
# 3 26.3294 2.7583 105.3686 0.0000 0.0000 0.0000
# 4 0.0000 0.0000 0.0000 98.7860 0.0000 0.0000
# 5 0.0000 0.0000 0.0000 0.0000 40.4393 0.0000
# 6 0.0000 0.0000 0.0000 0.0000 0.0000 10.5170
#
#
#
# Elastic Compliance Matrix: (Units=1/GPa)
#
#
# Indices 1 2 3 4 5 6 
#
# 1 0.025377 0.000408 -0.006352 0.000000 0.000000 0.000000
# 2 0.000408 0.016447 -0.000532 0.000000 0.000000 0.000000
# 3 -0.006352 -0.000532 0.011092 0.000000 0.000000 0.000000
# 4 0.000000 0.000000 0.000000 0.010123 0.000000 0.000000
# 5 0.000000 0.000000 0.000000 0.000000 0.024728 0.000000
# 6 0.000000 0.000000 0.000000 0.000000 0.000000 0.095084
#
#
# Mechanical properties :
#
#
# Convention : Reuss Voigt Hill
#
# Bulk Modulus (GPa) = 25.02309 29.98493 27.50401
# Shear Modulus (GPa) = 23.90910 42.17954 33.04432
#
# Velocity S-wave (km/s) = 3.23006 4.29023 3.79732
# Velocity P-wave (km/s) = 4.98302 6.13400 5.58822
#
# Compressibility (1/GPa) = 0.03996309
#
# Stress axis : x y z
#
# Youngs Moduli (GPa) = 39.40589 60.79994 90.15807
#
# Poissons Ratio (x) = -0.02480 0.57267
# Poissons Ratio (y) = -0.01607 0.04801
# Poissons Ratio (z) = 0.25030 0.03237
#
# Static dielectric constant tensor:
#      x y z
#    x 2.050580 0.000000 0.000000 
#    y 0.000000 1.926220 0.000000 
#    z 0.000000 0.000000 1.897120 
# 
# From -- ./inp_files/15223.got.cif
#   From: 2010.05.17/outbox.cif.g08.bks.cpg/sg60_8_cif.got.tgz:15223.got - 2010.06.03 14:59:27.
