data_PCOD9454511
_publ_section_title
;
Structure prediction by ZEFSAII (Michael W. Deem and Ramdas Pophale) SiO2 
 PCOD9454511
Probable space group: P B C N
;
_chemical_formula_sum "Si O2"
_cell_formula_units_Z 36
_cell_length_a 14.053075
_cell_length_b 19.971592
_cell_length_c 5.062279
_cell_angle_alpha 90.000000
_cell_angle_beta 90.000000
_cell_angle_gamma 90.000000
_cell_volume 1420.790767
_symmetry_space_group_name_H-M "P B C N"
_symmetry_group_IT_number 60
_symmetry_cell_setting 'orthorhombic'
loop_
_space_group_symop_operation_xyz
x,y,z
1/2-x,1/2-y,1/2+z
1/2+x,1/2-y,-z
-x,y,1/2-z
-x,-y,-z
1/2+x,1/2+y,1/2-z
1/2-x,1/2+y,z
x,-y,1/2+z
loop_
_atom_site_type_symbol
_atom_site_label
_atom_site_fract_x
_atom_site_fract_y
_atom_site_fract_z
Si Si1 0.500000 0.851095 0.250000
Si Si2 0.371665 0.233314 0.099154
Si Si3 0.137716 0.463795 0.303742
Si Si4 0.337566 0.319215 0.597912
Si Si5 0.633638 0.461846 0.131364
O O1 0.540985 0.807663 0.013799
O O2 0.588741 0.898815 0.317020
O O3 0.360597 0.295571 0.893571
O O4 0.277407 0.186505 0.076955
O O5 0.372873 0.264060 0.388966
O O6 0.107364 0.477553 0.603100
O O7 0.251566 0.462441 0.319593
O O8 0.380024 0.389729 0.503747
O O9 0.600120 0.481466 0.423580
#
# Coordination Sequence:
#
# PCOD9454511 Si02
#       5
#     4   8   8   8   8
#     4  12  22  40  54  90 108 168 182 234 262 358
#     4  10  23  34  60  74 119 148 195 219 290 308
#     4  10  22  35  52  81 121 154 182 221 266 331
#     4  10  20  41  51  85 108 154 181 247 262 341
#     4  10  19  34  59  84 109 147 187 228 279 335
#
# _framework density 25.338000999999998
#
# number of rings (size 3 to 8) (size 9 to 14) (size 15 to 20)
#    0.000    1.778    2.222    2.000    0.000    4.444 
#    0.000    0.000    0.000    0.000    0.000   15.556 
#    0.000    0.000    0.000    0.000    0.000    0.000 
#
# Total GULP energy -201398.075998 kJ/mol
# GULP energy per Si atom -5594.391000 kJ/mol
# Density = 2.528033 g / cm^3
# Si number density = 25.338001 Si / 1000 Ang^3
#
#
#
# Elastic Constant Matrix: (Units=GPa)
#
#
# Indices 1 2 3 4 5 6 
#
# 1 52.6772 20.0157 34.3540 0.0000 0.0000 0.0000
# 2 20.0157 69.5516 -16.7713 0.0000 0.0000 0.0000
# 3 34.3540 -16.7713 72.1236 0.0000 0.0000 0.0000
# 4 0.0000 0.0000 0.0000 -22.4251 0.0000 0.0000
# 5 0.0000 0.0000 0.0000 0.0000 23.4111 0.0000
# 6 0.0000 0.0000 0.0000 0.0000 0.0000 -1.1413
#
#
#
# Elastic Compliance Matrix: (Units=1/GPa)
#
#
# Indices 1 2 3 4 5 6 
#
# 1 0.041037 -0.017505 -0.023617 0.000000 0.000000 0.000000
# 2 -0.017505 0.022699 0.013616 0.000000 0.000000 0.000000
# 3 -0.023617 0.013616 0.028281 0.000000 0.000000 0.000000
# 4 0.000000 0.000000 0.000000 -0.044593 0.000000 0.000000
# 5 0.000000 0.000000 0.000000 0.000000 0.042715 0.000000
# 6 0.000000 0.000000 0.000000 0.000000 0.000000 -0.876221
#
#
# Mechanical properties :
#
#
# Convention : Reuss Voigt Hill
#
# Bulk Modulus (GPa) = 27.02360 29.94993 28.48677
# Shear Modulus (GPa) = -6.95666 10.41920 1.73127
#
# Velocity S-wave (km/s) = -1.65877 2.03003 0.82750
# Velocity P-wave (km/s) = 2.64948 4.16419 3.49000
#
# Compressibility (1/GPa) = 0.03700469
#
# Stress axis : x y z
#
# Youngs Moduli (GPa) = 24.36814 44.05544 35.35969
#
# Poissons Ratio (x) = 0.77118 0.83510
# Poissons Ratio (y) = 0.42656 -0.48146
# Poissons Ratio (z) = 0.57551 -0.59986
#
# Static dielectric constant tensor:
#      x y z
#    x 2.057910 0.000000 0.000000 
#    y 0.000000 1.987700 0.000000 
#    z 0.000000 0.000000 1.932550 
# 
# From -- ./inp_files/1964.got.cif
#   From: 2010.05.17/outbox.cif.g08.bks.cpg/sg60_1_cif.got.tgz:1964.got - 2010.06.03 14:59:27.
