data_PCOD9454484
_publ_section_title
;
Structure prediction by ZEFSAII (Michael W. Deem and Ramdas Pophale) SiO2 
 PCOD9454484
Probable space group: P B C N
;
_chemical_formula_sum "Si O2"
_cell_formula_units_Z 36
_cell_length_a 19.711043
_cell_length_b 15.273964
_cell_length_c 5.353738
_cell_angle_alpha 90.000000
_cell_angle_beta 90.000000
_cell_angle_gamma 90.000000
_cell_volume 1611.827206
_symmetry_space_group_name_H-M "P B C N"
_symmetry_group_IT_number 60
_symmetry_cell_setting 'orthorhombic'
loop_
_space_group_symop_operation_xyz
x,y,z
1/2-x,1/2-y,1/2+z
1/2+x,1/2-y,-z
-x,y,1/2-z
-x,-y,-z
1/2+x,1/2+y,1/2-z
1/2-x,1/2+y,z
x,-y,1/2+z
loop_
_atom_site_type_symbol
_atom_site_label
_atom_site_fract_x
_atom_site_fract_y
_atom_site_fract_z
Si Si1 0.500000 0.195408 0.250000
Si Si2 0.739951 0.132873 0.025961
Si Si3 0.402685 0.048943 0.458510
Si Si4 0.816144 0.167454 0.524342
Si Si5 0.523546 0.359953 0.004412
O O1 0.441820 0.134037 0.358415
O O2 0.517255 0.266254 0.464832
O O3 0.677283 0.066983 0.040683
O O4 0.785029 0.126409 0.273608
O O5 0.706455 0.230459 0.024211
O O6 0.783847 0.126035 0.774095
O O7 0.420049 0.022305 0.742994
O O8 0.896876 0.158590 0.517917
O O9 0.500000 0.399586 0.750000
O O10 0.500000 0.409495 0.250000
#
# Coordination Sequence:
#
# PCOD9454484 Si02
#       5
#     4   8   8   8   8
#     4  10  24  36  54  78 118 158 196 220 256 330
#     4  10  20  35  54  77 103 141 197 231 279 320
#     4  12  25  38  54  77 115 159 199 225 258 320
#     4  10  19  34  57  77 104 142 179 240 288 326
#     4  10  20  32  55  81 116 139 178 228 283 330
#
# _framework density 22.334900999999999
#
# number of rings (size 3 to 8) (size 9 to 14) (size 15 to 20)
#    0.667    0.889    2.222    3.333    3.111    1.778 
#    0.000    0.000    0.000    0.000    0.000    0.000 
#    0.000   62.222    0.000    0.000    0.000    0.000 
#
# Total GULP energy -201043.491438 kJ/mol
# GULP energy per Si atom -5584.541429 kJ/mol
# Density = 2.228407 g / cm^3
# Si number density = 22.334901 Si / 1000 Ang^3
#
#
#
# Elastic Constant Matrix: (Units=GPa)
#
#
# Indices 1 2 3 4 5 6 
#
# 1 123.2907 7.8369 58.8297 0.0000 0.0000 0.0000
# 2 7.8369 55.3896 8.1034 0.0000 0.0000 0.0000
# 3 58.8297 8.1034 184.0744 0.0000 0.0000 0.0000
# 4 0.0000 0.0000 0.0000 -49.3238 0.0000 0.0000
# 5 0.0000 0.0000 0.0000 0.0000 20.6440 0.0000
# 6 0.0000 0.0000 0.0000 0.0000 0.0000 20.6954
#
#
#
# Elastic Compliance Matrix: (Units=1/GPa)
#
#
# Indices 1 2 3 4 5 6 
#
# 1 0.009616 -0.000917 -0.003033 0.000000 0.000000 0.000000
# 2 -0.000917 0.018258 -0.000511 0.000000 0.000000 0.000000
# 3 -0.003033 -0.000511 0.006424 0.000000 0.000000 0.000000
# 4 0.000000 0.000000 0.000000 -0.020274 0.000000 0.000000
# 5 0.000000 0.000000 0.000000 0.000000 0.048440 0.000000
# 6 0.000000 0.000000 0.000000 0.000000 0.000000 0.048320
#
#
# Mechanical properties :
#
#
# Convention : Reuss Voigt Hill
#
# Bulk Modulus (GPa) = 39.40430 56.92164 48.16297
# Shear Modulus (GPa) = 39.01196 17.60209 28.30703
#
# Velocity S-wave (km/s) = 4.18387 2.81035 3.56390
# Velocity P-wave (km/s) = 6.40472 6.00597 6.20854
#
# Compressibility (1/GPa) = 0.02537794
#
# Stress axis : x y z
#
# Youngs Moduli (GPa) = 103.98862 54.76936 155.65615
#
# Poissons Ratio (x) = 0.05022 0.47211
# Poissons Ratio (y) = 0.09534 0.07950
# Poissons Ratio (z) = 0.31540 0.02797
#
# Static dielectric constant tensor:
#      x y z
#    x 1.786900 0.000000 0.000000 
#    y 0.000000 1.830370 0.000000 
#    z 0.000000 0.000000 1.859370 
# 
# From -- ./inp_files/1680.got.cif
#   From: 2010.05.17/outbox.cif.g08.bks.cpg/sg60_1_cif.got.tgz:1680.got - 2010.06.03 14:59:27.
