data_PCOD9454435
_publ_section_title
;
Structure prediction by ZEFSAII (Michael W. Deem and Ramdas Pophale) SiO2 
 PCOD9454435
Probable space group: P B C N
;
_chemical_formula_sum "Si O2"
_cell_formula_units_Z 32
_cell_length_a 15.134083
_cell_length_b 5.036423
_cell_length_c 21.813246
_cell_angle_alpha 90.000000
_cell_angle_beta 90.000000
_cell_angle_gamma 90.000000
_cell_volume 1662.641465
_symmetry_space_group_name_H-M "P B C N"
_symmetry_group_IT_number 60
_symmetry_cell_setting 'orthorhombic'
loop_
_space_group_symop_operation_xyz
x,y,z
1/2-x,1/2-y,1/2+z
1/2+x,1/2-y,-z
-x,y,1/2-z
-x,-y,-z
1/2+x,1/2+y,1/2-z
1/2-x,1/2+y,z
x,-y,1/2+z
loop_
_atom_site_type_symbol
_atom_site_label
_atom_site_fract_x
_atom_site_fract_y
_atom_site_fract_z
Si Si1 0.580880 0.289668 0.490192
Si Si2 0.806851 0.986883 0.385786
Si Si3 0.536042 0.011037 0.603317
Si Si4 0.008655 0.028397 0.677631
O O1 0.500000 0.500000 0.500000
O O2 0.658209 0.441614 0.455119
O O3 0.602093 0.142187 0.553730
O O4 0.545056 0.069512 0.441980
O O5 0.728356 0.780424 0.375251
O O6 0.890213 0.922926 0.342779
O O7 0.513181 0.238435 0.651520
O O8 0.551612 0.742603 0.641213
O O9 0.000000 0.048696 0.750000
#
# Coordination Sequence:
#
# PCOD9454435 Si02
#       4
#     8   8   8   8
#     4  10  19  35  61  85 122 150 190 241 303 359
#     4  11  23  36  58  91 120 146 192 256 309 338
#     4  10  19  33  59  87 109 148 206 239 277 348
#     4  11  22  38  59  86 117 164 208 240 282 357
#
# _framework density 19.246480999999999
#
# number of rings (size 3 to 8) (size 9 to 14) (size 15 to 20)
#    0.000    1.500    5.000    3.750    3.500    0.000 
#    0.000    0.000    0.000    9.000    0.000    0.000 
#    0.000    0.000    0.000    0.000    0.000    0.000 
#
# Total GULP energy -178406.531735 kJ/mol
# GULP energy per Si atom -5575.204117 kJ/mol
# Density = 1.920267 g / cm^3
# Si number density = 19.246481 Si / 1000 Ang^3
#
#
#
# Elastic Constant Matrix: (Units=GPa)
#
#
# Indices 1 2 3 4 5 6 
#
# 1 32.3171 -0.0719 12.2150 0.0000 0.0000 0.0000
# 2 -0.0719 102.0739 23.5484 0.0000 0.0000 0.0000
# 3 12.2150 23.5484 118.0177 0.0000 0.0000 0.0000
# 4 0.0000 0.0000 0.0000 32.5415 0.0000 0.0000
# 5 0.0000 0.0000 0.0000 0.0000 24.5516 0.0000
# 6 0.0000 0.0000 0.0000 0.0000 0.0000 5.3737
#
#
#
# Elastic Compliance Matrix: (Units=1/GPa)
#
#
# Indices 1 2 3 4 5 6 
#
# 1 0.032270 0.000832 -0.003506 0.000000 0.000000 0.000000
# 2 0.000832 0.010291 -0.002139 0.000000 0.000000 0.000000
# 3 -0.003506 -0.002139 0.009263 0.000000 0.000000 0.000000
# 4 0.000000 0.000000 0.000000 0.030730 0.000000 0.000000
# 5 0.000000 0.000000 0.000000 0.000000 0.040730 0.000000
# 6 0.000000 0.000000 0.000000 0.000000 0.000000 0.186092
#
#
# Mechanical properties :
#
#
# Convention : Reuss Voigt Hill
#
# Bulk Modulus (GPa) = 23.69851 35.97685 29.83768
# Shear Modulus (GPa) = 15.01186 26.94117 20.97651
#
# Velocity S-wave (km/s) = 2.79584 3.74545 3.30493
# Velocity P-wave (km/s) = 4.77097 6.11864 5.48634
#
# Compressibility (1/GPa) = 0.04219675
#
# Stress axis : x y z
#
# Youngs Moduli (GPa) = 30.98813 97.17241 107.95557
#
# Poissons Ratio (x) = -0.08080 0.37849
# Poissons Ratio (y) = -0.02577 0.23097
# Poissons Ratio (z) = 0.10864 0.20790
#
# Static dielectric constant tensor:
#      x y z
#    x 1.693160 0.000000 0.000000 
#    y 0.000000 1.723200 0.000000 
#    z 0.000000 0.000000 1.681760 
# 
# From -- ./inp_files/22761.got.cif
#   From: 2010.05.17/outbox.cif.g08.bks.cpg/sg60_12_cif.got.tgz:22761.got - 2010.06.03 14:59:27.
