data_PCOD9454683
_publ_section_title
;
Structure prediction by ZEFSAII (Michael W. Deem and Ramdas Pophale) SiO2 
 PCOD9454683
Probable space group: P B C N
;
_chemical_formula_sum "Si O2"
_cell_formula_units_Z 48
_cell_length_a 30.517773
_cell_length_b 9.797853
_cell_length_c 8.839315
_cell_angle_alpha 90.000000
_cell_angle_beta 90.000000
_cell_angle_gamma 90.000000
_cell_volume 2643.031678
_symmetry_space_group_name_H-M "P B C N"
_symmetry_group_IT_number 60
_symmetry_cell_setting 'orthorhombic'
loop_
_space_group_symop_operation_xyz
x,y,z
1/2-x,1/2-y,1/2+z
1/2+x,1/2-y,-z
-x,y,1/2-z
-x,-y,-z
1/2+x,1/2+y,1/2-z
1/2-x,1/2+y,z
x,-y,1/2+z
loop_
_atom_site_type_symbol
_atom_site_label
_atom_site_fract_x
_atom_site_fract_y
_atom_site_fract_z
Si Si1 0.840048 0.171514 0.314415
Si Si2 0.830888 0.615197 0.301023
Si Si3 0.179858 0.111972 0.526834
Si Si4 0.967841 0.545522 0.133138
Si Si5 0.284045 0.106225 0.523798
Si Si6 0.908874 0.397837 0.363319
O O1 0.838618 0.137347 0.138742
O O2 0.801830 0.277103 0.363625
O O3 0.883986 0.256825 0.341858
O O4 0.833889 0.034354 0.409086
O O5 0.835742 0.768121 0.361001
O O6 0.794155 0.539643 0.401642
O O7 0.812616 0.614912 0.130030
O O8 0.873721 0.521080 0.333882
O O9 0.232396 0.119409 0.506478
O O10 0.946288 0.428504 0.238580
O O11 0.000000 0.625825 0.250000
O O12 0.928075 0.604172 0.033381
O O13 0.000000 0.500000 0.000000
#
# Coordination Sequence:
#
# PCOD9454683 Si02
#       6
#     8   8   8   8   8   8
#     4  11  24  35  53  78 112 153 188 238 285 318
#     4  11  22  35  57  78 109 153 188 238 286 317
#     4  12  22  36  51  77 109 153 202 232 271 327
#     4   9  18  33  60  90 109 130 163 216 274 333
#     4  11  21  36  52  76 108 150 200 246 276 307
#     4  10  19  37  55  85 115 133 174 224 277 338
#
# _framework density 18.160962000000001
#
# number of rings (size 3 to 8) (size 9 to 14) (size 15 to 20)
#    0.000    1.333    0.000    9.000    0.000    0.000 
#    0.000    0.000    0.000    0.000    0.000   73.500 
#    0.000    0.000    0.000    0.000    0.000    0.000 
#
# Total GULP energy -267716.228800 kJ/mol
# GULP energy per Si atom -5577.421433 kJ/mol
# Density = 1.811963 g / cm^3
# Si number density = 18.160962 Si / 1000 Ang^3
#
#
#
# Elastic Constant Matrix: (Units=GPa)
#
#
# Indices 1 2 3 4 5 6 
#
# 1 58.7681 32.6106 21.4439 0.0000 0.0000 0.0000
# 2 32.6106 102.6381 20.1739 0.0000 0.0000 0.0000
# 3 21.4439 20.1739 92.4547 0.0000 0.0000 0.0000
# 4 0.0000 0.0000 0.0000 30.0345 0.0000 0.0000
# 5 0.0000 0.0000 0.0000 0.0000 20.0084 0.0000
# 6 0.0000 0.0000 0.0000 0.0000 0.0000 12.7500
#
#
#
# Elastic Compliance Matrix: (Units=1/GPa)
#
#
# Indices 1 2 3 4 5 6 
#
# 1 0.021809 -0.006201 -0.003705 0.000000 0.000000 0.000000
# 2 -0.006201 0.011943 -0.001168 0.000000 0.000000 0.000000
# 3 -0.003705 -0.001168 0.011930 0.000000 0.000000 0.000000
# 4 0.000000 0.000000 0.000000 0.033295 0.000000 0.000000
# 5 0.000000 0.000000 0.000000 0.000000 0.049979 0.000000
# 6 0.000000 0.000000 0.000000 0.000000 0.000000 0.078431
#
#
# Mechanical properties :
#
#
# Convention : Reuss Voigt Hill
#
# Bulk Modulus (GPa) = 42.49154 44.70197 43.59676
# Shear Modulus (GPa) = 21.06330 24.53408 22.79869
#
# Velocity S-wave (km/s) = 3.40930 3.67948 3.54696
# Velocity P-wave (km/s) = 6.24065 6.53599 6.39003
#
# Compressibility (1/GPa) = 0.02353410
#
# Stress axis : x y z
#
# Youngs Moduli (GPa) = 45.85269 83.73333 83.82013
#
# Poissons Ratio (x) = 0.51923 0.31058
# Poissons Ratio (y) = 0.28433 0.09788
# Poissons Ratio (z) = 0.16990 0.09777
#
# Static dielectric constant tensor:
#      x y z
#    x 1.687740 0.000000 0.000000 
#    y 0.000000 1.588920 0.000000 
#    z 0.000000 0.000000 1.643330 
# 
# From -- ./inp_files/8381.got.cif
#   From: 2010.05.17/outbox.cif.g08.bks.cpg/sg60_5_cif.got.tgz:8381.got - 2010.06.03 14:59:27.
