data_PCOD9454259
_publ_section_title
;
Structure prediction by ZEFSAII (Michael W. Deem and Ramdas Pophale) SiO2 
 PCOD9454259
Probable space group: P B C N
;
_chemical_formula_sum "Si O2"
_cell_formula_units_Z 28
_cell_length_a 13.496737
_cell_length_b 23.261514
_cell_length_c 4.999335
_cell_angle_alpha 90.000000
_cell_angle_beta 90.000000
_cell_angle_gamma 90.000000
_cell_volume 1569.563904
_symmetry_space_group_name_H-M "P B C N"
_symmetry_group_IT_number 60
_symmetry_cell_setting 'orthorhombic'
loop_
_space_group_symop_operation_xyz
x,y,z
1/2-x,1/2-y,1/2+z
1/2+x,1/2-y,-z
-x,y,1/2-z
-x,-y,-z
1/2+x,1/2+y,1/2-z
1/2-x,1/2+y,z
x,-y,1/2+z
loop_
_atom_site_type_symbol
_atom_site_label
_atom_site_fract_x
_atom_site_fract_y
_atom_site_fract_z
Si Si1 0.188981 0.767273 0.962902
Si Si2 0.601229 0.637415 0.376066
Si Si3 0.500000 0.268349 0.250000
Si Si4 0.620050 0.532989 0.728434
O O1 0.236237 0.734355 0.711788
O O2 0.164755 0.831445 0.853119
O O3 0.085634 0.739975 0.071068
O O4 0.500000 0.611533 0.250000
O O5 0.561129 0.690296 0.552797
O O6 0.648308 0.591311 0.575282
O O7 0.500000 0.534651 0.750000
O O8 0.652559 0.481808 0.527522
#
# Coordination Sequence:
#
# PCOD9454259 Si02
#       4
#     8   8   4   8
#     4  11  22  34  50  71  94 132 175 210 254 296
#     4  10  19  31  47  67  97 130 168 203 242 291
#     4  10  20  34  50  70  98 132 172 206 250 292
#     4  10  19  27  42  66  94 128 168 199 230 282
#
# _framework density 17.83935
#
# number of rings (size 3 to 8) (size 9 to 14) (size 15 to 20)
#    0.000    1.714    4.286    2.571    4.000    0.000 
#    0.000    0.000    0.000    0.000    0.000    0.000 
#    0.000    0.000    0.000   25.714    0.000   11.429 
#
# Total GULP energy -155996.720524 kJ/mol
# GULP energy per Si atom -5571.311447 kJ/mol
# Density = 1.779875 g / cm^3
# Si number density = 17.839350 Si / 1000 Ang^3
#
#
#
# Elastic Constant Matrix: (Units=GPa)
#
#
# Indices 1 2 3 4 5 6 
#
# 1 59.3696 34.9983 42.4140 0.0000 0.0000 0.0000
# 2 34.9983 45.4429 32.3433 0.0000 0.0000 0.0000
# 3 42.4140 32.3433 139.9409 0.0000 0.0000 0.0000
# 4 0.0000 0.0000 0.0000 50.8446 0.0000 0.0000
# 5 0.0000 0.0000 0.0000 0.0000 39.5712 0.0000
# 6 0.0000 0.0000 0.0000 0.0000 0.0000 8.5265
#
#
#
# Elastic Compliance Matrix: (Units=1/GPa)
#
#
# Indices 1 2 3 4 5 6 
#
# 1 0.033563 -0.022273 -0.005025 0.000000 0.000000 0.000000
# 2 -0.022273 0.041118 -0.002753 0.000000 0.000000 0.000000
# 3 -0.005025 -0.002753 0.009305 0.000000 0.000000 0.000000
# 4 0.000000 0.000000 0.000000 0.019668 0.000000 0.000000
# 5 0.000000 0.000000 0.000000 0.000000 0.025271 0.000000
# 6 0.000000 0.000000 0.000000 0.000000 0.000000 0.117281
#
#
# Mechanical properties :
#
#
# Convention : Reuss Voigt Hill
#
# Bulk Modulus (GPa) = 41.86543 51.58495 46.72519
# Shear Modulus (GPa) = 15.90995 28.78833 22.34914
#
# Velocity S-wave (km/s) = 2.98962 4.02151 3.54333
# Velocity P-wave (km/s) = 5.95282 7.10933 6.55662
#
# Compressibility (1/GPa) = 0.02388605
#
# Stress axis : x y z
#
# Youngs Moduli (GPa) = 29.79469 24.32001 107.46845
#
# Poissons Ratio (x) = 0.54167 0.54001
# Poissons Ratio (y) = 0.66360 0.29584
# Poissons Ratio (z) = 0.14971 0.06695
#
# Static dielectric constant tensor:
#      x y z
#    x 1.641390 0.000000 0.000000 
#    y 0.000000 1.687280 0.000000 
#    z 0.000000 0.000000 1.723290 
# 
# From -- ./inp_files/1159.got.cif
#   From: 2010.05.17/outbox.cif.g08.bks.cpg/sg60_1_cif.got.tgz:1159.got - 2010.06.03 14:59:27.
