data_PCOD9454524
_publ_section_title
;
Structure prediction by ZEFSAII (Michael W. Deem and Ramdas Pophale) SiO2 
 PCOD9454524
Probable space group: P B C N
;
_chemical_formula_sum "Si O2"
_cell_formula_units_Z 64
_cell_length_a 16.002460
_cell_length_b 22.522797
_cell_length_c 8.845787
_cell_angle_alpha 90.000000
_cell_angle_beta 90.000000
_cell_angle_gamma 90.000000
_cell_volume 3188.199949
_symmetry_space_group_name_H-M "P B C N"
_symmetry_group_IT_number 60
_symmetry_cell_setting 'orthorhombic'
loop_
_space_group_symop_operation_xyz
x,y,z
1/2-x,1/2-y,1/2+z
1/2+x,1/2-y,-z
-x,y,1/2-z
-x,-y,-z
1/2+x,1/2+y,1/2-z
1/2-x,1/2+y,z
x,-y,1/2+z
loop_
_atom_site_type_symbol
_atom_site_label
_atom_site_fract_x
_atom_site_fract_y
_atom_site_fract_z
Si Si1 0.411692 0.819099 0.670232
Si Si2 0.202696 0.775222 0.346991
Si Si3 0.707813 0.366228 0.409224
Si Si4 0.384828 0.334881 0.627375
Si Si5 0.882027 0.771542 0.572613
Si Si6 0.821945 0.017538 0.713520
Si Si7 0.931206 0.044215 0.436008
Si Si8 0.224774 0.598985 0.276106
O O1 0.500000 0.827128 0.750000
O O2 0.352414 0.773083 0.760720
O O3 0.425110 0.783516 0.512336
O O4 0.356783 0.879267 0.684919
O O5 0.235738 0.822931 0.225353
O O6 0.145187 0.803672 0.475210
O O7 0.284662 0.747519 0.420007
O O8 0.625468 0.332561 0.475498
O O9 0.689012 0.428334 0.328515
O O10 0.769711 0.378470 0.549522
O O11 0.408624 0.288953 0.758780
O O12 0.450318 0.386440 0.585696
O O13 0.303310 0.368697 0.695146
O O14 0.851366 0.040508 0.550541
O O15 0.745414 0.971155 0.715736
O O16 0.899849 0.980077 0.776691
O O17 0.000000 0.000000 0.500000
#
# Coordination Sequence:
#
# PCOD9454524 Si02
#       8
#     8   8   8   8   8   8   8   8
#     4  11  23  40  62  95 130 163 204 277 341 370
#     4  11  18  36  64  95 120 163 206 262 316 390
#     4  10  19  34  61  88 117 151 212 263 292 377
#     4  10  19  36  63  88 120 167 217 252 304 380
#     4  10  20  38  64  91 122 160 216 260 316 398
#     4  11  21  38  58  87 117 166 222 251 302 375
#     4  11  23  38  55  85 130 171 206 264 317 365
#     4  10  20  38  61  86 115 165 215 257 302 390
#
# _framework density 20.074023
#
# number of rings (size 3 to 8) (size 9 to 14) (size 15 to 20)
#    0.000    1.500    6.250    1.125    0.000    0.000 
#    4.500    1.875    0.000    0.750    0.000    0.000 
#    0.000    0.000    0.000    0.000    0.000    0.000 
#
# Total GULP energy -357069.835588 kJ/mol
# GULP energy per Si atom -5579.216181 kJ/mol
# Density = 2.002833 g / cm^3
# Si number density = 20.074023 Si / 1000 Ang^3
#
#
#
# Elastic Constant Matrix: (Units=GPa)
#
#
# Indices 1 2 3 4 5 6 
#
# 1 67.9632 26.4827 0.1128 0.0000 0.0000 0.0000
# 2 26.4827 98.0554 36.6671 0.0000 0.0000 0.0000
# 3 0.1128 36.6671 102.8242 0.0000 0.0000 0.0000
# 4 0.0000 0.0000 0.0000 36.5386 0.0000 0.0000
# 5 0.0000 0.0000 0.0000 0.0000 17.8264 0.0000
# 6 0.0000 0.0000 0.0000 0.0000 0.0000 25.3534
#
#
#
# Elastic Compliance Matrix: (Units=1/GPa)
#
#
# Indices 1 2 3 4 5 6 
#
# 1 0.016741 -0.005209 0.001839 0.000000 0.000000 0.000000
# 2 -0.005209 0.013388 -0.004769 0.000000 0.000000 0.000000
# 3 0.001839 -0.004769 0.011424 0.000000 0.000000 0.000000
# 4 0.000000 0.000000 0.000000 0.027368 0.000000 0.000000
# 5 0.000000 0.000000 0.000000 0.000000 0.056096 0.000000
# 6 0.000000 0.000000 0.000000 0.000000 0.000000 0.039442
#
#
# Mechanical properties :
#
#
# Convention : Reuss Voigt Hill
#
# Bulk Modulus (GPa) = 39.56346 43.92979 41.74662
# Shear Modulus (GPa) = 26.43237 29.64903 28.04070
#
# Velocity S-wave (km/s) = 3.63264 3.84733 3.74152
# Velocity P-wave (km/s) = 6.11116 6.45502 6.28544
#
# Compressibility (1/GPa) = 0.02527585
#
# Stress axis : x y z
#
# Youngs Moduli (GPa) = 59.73520 74.69190 87.53662
#
# Poissons Ratio (x) = 0.38907 -0.16099
# Poissons Ratio (y) = 0.31116 0.41742
# Poissons Ratio (z) = -0.10986 0.35617
#
# Static dielectric constant tensor:
#      x y z
#    x 1.722930 0.000000 0.000000 
#    y 0.000000 1.778580 0.000000 
#    z 0.000000 0.000000 1.804440 
# 
# From -- ./inp_files/7028.got.cif
#   From: 2010.05.17/outbox.cif.g08.bks.cpg/sg60_4_cif.got.tgz:7028.got - 2010.06.03 14:59:27.
