data_PCOD9454281
_publ_section_title
;
Structure prediction by ZEFSAII (Michael W. Deem and Ramdas Pophale) SiO2 
 PCOD9454281
Probable space group: P B C N
;
_chemical_formula_sum "Si O2"
_cell_formula_units_Z 48
_cell_length_a 20.716461
_cell_length_b 5.088637
_cell_length_c 18.253292
_cell_angle_alpha 90.000000
_cell_angle_beta 90.000000
_cell_angle_gamma 90.000000
_cell_volume 1924.235575
_symmetry_space_group_name_H-M "P B C N"
_symmetry_group_IT_number 60
_symmetry_cell_setting 'orthorhombic'
loop_
_space_group_symop_operation_xyz
x,y,z
1/2-x,1/2-y,1/2+z
1/2+x,1/2-y,-z
-x,y,1/2-z
-x,-y,-z
1/2+x,1/2+y,1/2-z
1/2-x,1/2+y,z
x,-y,1/2+z
loop_
_atom_site_type_symbol
_atom_site_label
_atom_site_fract_x
_atom_site_fract_y
_atom_site_fract_z
Si Si1 0.027070 0.358212 0.165839
Si Si2 0.703848 0.701378 0.518891
Si Si3 0.427977 0.659590 0.715377
Si Si4 0.292187 0.795424 0.144090
Si Si5 0.607149 0.079304 0.134977
Si Si6 0.795912 0.187426 0.195529
O O1 0.965685 0.472488 0.122188
O O2 0.000000 0.337408 0.250000
O O3 0.080838 0.583099 0.165832
O O4 0.061235 0.079653 0.158697
O O5 0.740149 0.423644 0.529381
O O6 0.644115 0.765970 0.571525
O O7 0.680653 0.728863 0.435195
O O8 0.500000 0.669830 0.750000
O O9 0.390496 0.734649 0.791344
O O10 0.271170 0.099833 0.146348
O O11 0.322115 0.704614 0.221026
O O12 0.646587 0.810432 0.149018
O O13 0.759444 0.912824 0.186604
#
# Coordination Sequence:
#
# PCOD9454281 Si02
#       6
#     8   8   8   8   8   8
#     4   8  16  28  41  60  86 115 146 181 228 276
#     4  10  20  31  46  71 101 129 157 189 231 282
#     4   8  16  28  41  60  86 115 146 181 228 276
#     4   8  16  32  46  60  93 134 161 184 220 278
#     4  10  19  30  50  74  96 122 157 204 238 268
#     4  10  20  31  46  71 101 129 157 189 231 282
#
# _framework density 24.944970000000001
#
# number of rings (size 3 to 8) (size 9 to 14) (size 15 to 20)
#    0.000    3.333    0.000    1.000    0.000   10.667 
#    0.000    0.000    0.000    0.000    0.000   21.000 
#    0.000    0.000    0.000    0.000    0.000    0.000 
#
# Total GULP energy -267496.457391 kJ/mol
# GULP energy per Si atom -5572.842862 kJ/mol
# Density = 2.488819 g / cm^3
# Si number density = 24.944970 Si / 1000 Ang^3
#
#
#
# Elastic Constant Matrix: (Units=GPa)
#
#
# Indices 1 2 3 4 5 6 
#
# 1 62.3822 -7.4678 -5.2051 0.0000 0.0000 0.0000
# 2 -7.4678 162.2743 -5.4016 0.0000 0.0000 0.0000
# 3 -5.2051 -5.4016 72.9399 0.0000 0.0000 0.0000
# 4 0.0000 0.0000 0.0000 24.1841 0.0000 0.0000
# 5 0.0000 0.0000 0.0000 0.0000 26.9402 0.0000
# 6 0.0000 0.0000 0.0000 0.0000 0.0000 -11.7704
#
#
#
# Elastic Compliance Matrix: (Units=1/GPa)
#
#
# Indices 1 2 3 4 5 6 
#
# 1 0.016226 0.000787 0.001216 0.000000 0.000000 0.000000
# 2 0.000787 0.006216 0.000516 0.000000 0.000000 0.000000
# 3 0.001216 0.000516 0.013835 0.000000 0.000000 0.000000
# 4 0.000000 0.000000 0.000000 0.041349 0.000000 0.000000
# 5 0.000000 0.000000 0.000000 0.000000 0.037119 0.000000
# 6 0.000000 0.000000 0.000000 0.000000 0.000000 -0.084959
#
#
# Mechanical properties :
#
#
# Convention : Reuss Voigt Hill
#
# Bulk Modulus (GPa) = 24.20340 29.04970 26.62655
# Shear Modulus (GPa) = 129.80578 28.91551 79.36065
#
# Velocity S-wave (km/s) = 7.22148 3.40835 5.64653
# Velocity P-wave (km/s) = 8.90263 5.21152 7.29441
#
# Compressibility (1/GPa) = 0.04131652
#
# Stress axis : x y z
#
# Youngs Moduli (GPa) = 61.62971 160.87973 72.28070
#
# Poissons Ratio (x) = -0.12664 -0.08791
# Poissons Ratio (y) = -0.04851 -0.03733
# Poissons Ratio (z) = -0.07495 -0.08309
#
# Static dielectric constant tensor:
#      x y z
#    x 2.119670 0.000000 0.000000 
#    y 0.000000 2.177970 0.000000 
#    z 0.000000 0.000000 2.346050 
# 
# From -- ./inp_files/24559.got.cif
#   From: 2010.05.17/outbox.cif.g08.bks.cpg/sg60_13_cif.got.tgz:24559.got - 2010.06.03 14:59:27.
