data_PCOD9454265
_publ_section_title
;
Structure prediction by ZEFSAII (Michael W. Deem and Ramdas Pophale) SiO2 
 PCOD9454265
Probable space group: P B C N
;
_chemical_formula_sum "Si O2"
_cell_formula_units_Z 28
_cell_length_a 6.854515
_cell_length_b 5.102113
_cell_length_c 32.649205
_cell_angle_alpha 90.000000
_cell_angle_beta 90.000000
_cell_angle_gamma 90.000000
_cell_volume 1141.824651
_symmetry_space_group_name_H-M "P B C N"
_symmetry_group_IT_number 60
_symmetry_cell_setting 'orthorhombic'
loop_
_space_group_symop_operation_xyz
x,y,z
1/2-x,1/2-y,1/2+z
1/2+x,1/2-y,-z
-x,y,1/2-z
-x,-y,-z
1/2+x,1/2+y,1/2-z
1/2-x,1/2+y,z
x,-y,1/2+z
loop_
_atom_site_type_symbol
_atom_site_label
_atom_site_fract_x
_atom_site_fract_y
_atom_site_fract_z
Si Si1 0.427361 0.867566 0.290288
Si Si2 0.877375 0.430932 0.460210
Si Si3 0.383155 0.956886 0.627963
Si Si4 0.000000 0.882328 0.250000
O O1 0.500000 0.043055 0.250000
O O2 0.478150 0.979325 0.334120
O O3 0.298546 0.338941 0.280420
O O4 0.572934 0.615369 0.283108
O O5 0.693742 0.631357 0.460651
O O6 0.978026 0.492615 0.416578
O O7 0.000000 0.500000 0.500000
O O8 0.205297 0.166496 0.629791
#
# Coordination Sequence:
#
# PCOD9454265 Si02
#       4
#     8   8   8   4
#     4   8  14  27  42  63  94 129 163 209 263 308
#     4  10  21  38  60  88 117 152 195 244 300 354
#     4  10  19  29  50  79 104 136 186 229 273 336
#     4   6  14  22  42  58  86 124 162 190 264 298
#
# _framework density 24.522152999999999
#
# number of rings (size 3 to 8) (size 9 to 14) (size 15 to 20)
#    1.714    1.143    0.000    2.571    0.000    0.000 
#    0.000    0.000    0.000    3.429    0.000    0.000 
#    0.000    0.000    0.000    0.000    0.000    0.000 
#
# Total GULP energy -155882.400714 kJ/mol
# GULP energy per Si atom -5567.228597 kJ/mol
# Density = 2.446634 g / cm^3
# Si number density = 24.522153 Si / 1000 Ang^3
#
#
#
# Elastic Constant Matrix: (Units=GPa)
#
#
# Indices 1 2 3 4 5 6 
#
# 1 65.8058 0.7994 74.5179 0.0000 0.0000 0.0000
# 2 0.7994 137.3574 26.5356 0.0000 0.0000 0.0000
# 3 74.5179 26.5356 245.6633 0.0000 0.0000 0.0000
# 4 0.0000 0.0000 0.0000 39.3384 0.0000 0.0000
# 5 0.0000 0.0000 0.0000 0.0000 55.4953 0.0000
# 6 0.0000 0.0000 0.0000 0.0000 0.0000 24.9214
#
#
#
# Elastic Compliance Matrix: (Units=1/GPa)
#
#
# Indices 1 2 3 4 5 6 
#
# 1 0.023358 0.001259 -0.007221 0.000000 0.000000 0.000000
# 2 0.001259 0.007503 -0.001192 0.000000 0.000000 0.000000
# 3 -0.007221 -0.001192 0.006390 0.000000 0.000000 0.000000
# 4 0.000000 0.000000 0.000000 0.025420 0.000000 0.000000
# 5 0.000000 0.000000 0.000000 0.000000 0.018020 0.000000
# 6 0.000000 0.000000 0.000000 0.000000 0.000000 0.040126
#
#
# Mechanical properties :
#
#
# Convention : Reuss Voigt Hill
#
# Bulk Modulus (GPa) = 43.58775 72.50358 58.04567
# Shear Modulus (GPa) = 35.02031 47.08262 41.05147
#
# Velocity S-wave (km/s) = 3.78313 4.38654 4.09596
# Velocity P-wave (km/s) = 6.07423 7.43548 6.78906
#
# Compressibility (1/GPa) = 0.02294222
#
# Stress axis : x y z
#
# Youngs Moduli (GPa) = 42.81129 133.27458 156.49713
#
# Poissons Ratio (x) = -0.16781 1.13012
# Poissons Ratio (y) = -0.05390 0.18661
# Poissons Ratio (z) = 0.30916 0.15892
#
# Static dielectric constant tensor:
#      x y z
#    x 1.886450 0.000000 0.000000 
#    y 0.000000 2.598970 0.000000 
#    z 0.000000 0.000000 2.012130 
# 
# From -- ./inp_files/25088.got.cif
#   From: 2010.05.17/outbox.cif.g08.bks.cpg/sg60_13_cif.got.tgz:25088.got - 2010.06.03 14:59:27.
