data_PCOD9454242
_publ_section_title
;
Structure prediction by ZEFSAII (Michael W. Deem and Ramdas Pophale) SiO2 
 PCOD9454242
Probable space group: P B C N
;
_chemical_formula_sum "Si O2"
_cell_formula_units_Z 40
_cell_length_a 7.787053
_cell_length_b 28.734773
_cell_length_c 7.910486
_cell_angle_alpha 90.000000
_cell_angle_beta 90.000000
_cell_angle_gamma 90.000000
_cell_volume 1770.044021
_symmetry_space_group_name_H-M "P B C N"
_symmetry_group_IT_number 60
_symmetry_cell_setting 'orthorhombic'
loop_
_space_group_symop_operation_xyz
x,y,z
1/2-x,1/2-y,1/2+z
1/2+x,1/2-y,-z
-x,y,1/2-z
-x,-y,-z
1/2+x,1/2+y,1/2-z
1/2-x,1/2+y,z
x,-y,1/2+z
loop_
_atom_site_type_symbol
_atom_site_label
_atom_site_fract_x
_atom_site_fract_y
_atom_site_fract_z
Si Si1 0.899086 0.901787 0.513642
Si Si2 0.500000 0.751250 0.750000
Si Si3 0.760051 0.194759 0.007218
Si Si4 0.863475 0.478448 0.630718
Si Si5 0.235992 0.919883 0.355184
Si Si6 0.000000 0.647731 0.750000
O O1 0.850125 0.851520 0.583169
O O2 0.784811 0.943207 0.585105
O O3 0.841842 0.899463 0.317260
O O4 0.099571 0.914793 0.505323
O O5 0.404924 0.722433 0.599835
O O6 0.651599 0.779334 0.652796
O O7 0.622407 0.179024 0.864282
O O8 0.774743 0.526556 0.688673
O O9 0.000000 0.453245 0.750000
O O10 0.000000 0.500000 0.500000
O O11 0.402695 0.888035 0.376973
#
# Coordination Sequence:
#
# PCOD9454242 Si02
#       6
#     8   4   8   8   8   4
#     4  10  22  38  63  92 132 168 227 270 332 408
#     4  12  26  46  73 100 136 172 233 292 370 426
#     4  11  24  44  70 101 128 178 221 292 354 429
#     4  12  21  37  60  89 131 176 221 266 323 392
#     4  10  19  38  61  92 128 183 213 262 332 410
#     4  10  18  40  69  94 130 174 223 268 348 424
#
# _framework density 22.598307999999999
#
# number of rings (size 3 to 8) (size 9 to 14) (size 15 to 20)
#    0.000    1.200    3.000    5.400    1.400    0.000 
#    0.000    0.000    0.000    0.000    0.000    0.000 
#    0.000    0.000    0.000    0.000    0.000    0.000 
#
# Total GULP energy -223139.458948 kJ/mol
# GULP energy per Si atom -5578.486474 kJ/mol
# Density = 2.254687 g / cm^3
# Si number density = 22.598308 Si / 1000 Ang^3
#
#
#
# Elastic Constant Matrix: (Units=GPa)
#
#
# Indices 1 2 3 4 5 6 
#
# 1 127.9749 52.7240 23.8170 0.0000 0.0000 0.0000
# 2 52.7240 114.9581 21.5656 0.0000 0.0000 0.0000
# 3 23.8170 21.5656 40.0286 0.0000 0.0000 0.0000
# 4 0.0000 0.0000 0.0000 199.6426 0.0000 0.0000
# 5 0.0000 0.0000 0.0000 0.0000 41.7499 0.0000
# 6 0.0000 0.0000 0.0000 0.0000 0.0000 8.8677
#
#
#
# Elastic Compliance Matrix: (Units=1/GPa)
#
#
# Indices 1 2 3 4 5 6 
#
# 1 0.010162 -0.003923 -0.003933 0.000000 0.000000 0.000000
# 2 -0.003923 0.011191 -0.003695 0.000000 0.000000 0.000000
# 3 -0.003933 -0.003695 0.029313 0.000000 0.000000 0.000000
# 4 0.000000 0.000000 0.000000 0.005009 0.000000 0.000000
# 5 0.000000 0.000000 0.000000 0.000000 0.023952 0.000000
# 6 0.000000 0.000000 0.000000 0.000000 0.000000 0.112769
#
#
# Mechanical properties :
#
#
# Convention : Reuss Voigt Hill
#
# Bulk Modulus (GPa) = 36.27890 53.24163 44.76027
# Shear Modulus (GPa) = 22.25318 62.37572 42.31445
#
# Velocity S-wave (km/s) = 3.14144 5.25945 4.33189
# Velocity P-wave (km/s) = 5.40804 7.77777 6.69853
#
# Compressibility (1/GPa) = 0.02756423
#
# Stress axis : x y z
#
# Youngs Moduli (GPa) = 98.40401 89.35576 34.11454
#
# Poissons Ratio (x) = 0.35054 0.13417
# Poissons Ratio (y) = 0.38603 0.12606
# Poissons Ratio (z) = 0.38702 0.33018
#
# Static dielectric constant tensor:
#      x y z
#    x 1.922400 0.000000 0.000000 
#    y 0.000000 1.923410 0.000000 
#    z 0.000000 0.000000 1.935300 
# 
# From -- ./inp_files/3897.got.cif
#   From: 2010.05.17/outbox.cif.g08.bks.cpg/sg60_2_cif.got.tgz:3897.got - 2010.06.03 14:59:27.
