data_PCOD9454998
_publ_section_title
;
Structure prediction by ZEFSAII (Michael W. Deem and Ramdas Pophale) SiO2 
 PCOD9454998
Probable space group: P B C N
;
_chemical_formula_sum "Si O2"
_cell_formula_units_Z 24
_cell_length_a 8.946817
_cell_length_b 5.496760
_cell_length_c 17.930239
_cell_angle_alpha 90.000000
_cell_angle_beta 90.000000
_cell_angle_gamma 90.000000
_cell_volume 881.782363
_symmetry_space_group_name_H-M "P B C N"
_symmetry_group_IT_number 60
_symmetry_cell_setting 'orthorhombic'
loop_
_space_group_symop_operation_xyz
x,y,z
1/2-x,1/2-y,1/2+z
1/2+x,1/2-y,-z
-x,y,1/2-z
-x,-y,-z
1/2+x,1/2+y,1/2-z
1/2-x,1/2+y,z
x,-y,1/2+z
loop_
_atom_site_type_symbol
_atom_site_label
_atom_site_fract_x
_atom_site_fract_y
_atom_site_fract_z
Si Si1 0.390297 0.850772 0.445720
Si Si2 0.689275 0.689882 0.415052
Si Si3 0.833126 0.495869 0.218484
O O1 0.239412 0.274075 0.501914
O O2 0.341581 0.991047 0.372230
O O3 0.500000 0.000000 0.500000
O O4 0.511284 0.649101 0.417088
O O5 0.769704 0.453702 0.381184
O O6 0.764551 0.232114 0.237768
O O7 0.000000 0.519125 0.250000
#
# Coordination Sequence:
#
# PCOD9454998 Si02
#       3
#     8   8   8
#     4  10  22  41  68 102 141 181 232 296 363 434
#     4  10  20  34  57  91 130 170 215 274 342 412
#     4  12  28  51  76 107 149 199 253 310 371 444
#
# _framework density 27.217600999999998
#
# number of rings (size 3 to 8) (size 9 to 14) (size 15 to 20)
#    0.000    1.333    0.000    6.000    0.000   10.667 
#    0.000    0.000    0.000    0.000    0.000    0.000 
#    0.000    0.000    0.000    0.000    0.000    0.000 
#
# Total GULP energy -134458.687967 kJ/mol
# GULP energy per Si atom -5602.445332 kJ/mol
# Density = 2.715565 g / cm^3
# Si number density = 27.217601 Si / 1000 Ang^3
#
#
#
# Elastic Constant Matrix: (Units=GPa)
#
#
# Indices 1 2 3 4 5 6 
#
# 1 136.6374 46.4637 27.3675 0.0000 0.0000 0.0000
# 2 46.4637 183.3496 38.4659 0.0000 0.0000 0.0000
# 3 27.3675 38.4659 97.9396 0.0000 0.0000 0.0000
# 4 0.0000 0.0000 0.0000 47.6786 0.0000 0.0000
# 5 0.0000 0.0000 0.0000 0.0000 45.1550 0.0000
# 6 0.0000 0.0000 0.0000 0.0000 0.0000 53.1842
#
#
#
# Elastic Compliance Matrix: (Units=1/GPa)
#
#
# Indices 1 2 3 4 5 6 
#
# 1 0.008237 -0.001749 -0.001615 0.000000 0.000000 0.000000
# 2 -0.001749 0.006315 -0.001992 0.000000 0.000000 0.000000
# 3 -0.001615 -0.001992 0.011444 0.000000 0.000000 0.000000
# 4 0.000000 0.000000 0.000000 0.020974 0.000000 0.000000
# 5 0.000000 0.000000 0.000000 0.000000 0.022146 0.000000
# 6 0.000000 0.000000 0.000000 0.000000 0.000000 0.018803
#
#
# Mechanical properties :
#
#
# Convention : Reuss Voigt Hill
#
# Bulk Modulus (GPa) = 65.42153 71.39120 68.40636
# Shear Modulus (GPa) = 48.20535 49.57888 48.89212
#
# Velocity S-wave (km/s) = 4.21302 4.27262 4.24293
# Velocity P-wave (km/s) = 6.91048 7.11527 7.01362
#
# Compressibility (1/GPa) = 0.01528549
#
# Stress axis : x y z
#
# Youngs Moduli (GPa) = 121.40827 158.35321 87.38330
#
# Poissons Ratio (x) = 0.27688 0.14111
# Poissons Ratio (y) = 0.21228 0.17404
# Poissons Ratio (z) = 0.19606 0.31538
#
# Static dielectric constant tensor:
#      x y z
#    x 2.158220 0.000000 0.000000 
#    y 0.000000 2.246910 0.000000 
#    z 0.000000 0.000000 2.172520 
# 
# From -- ./inp_files/23798.got.cif
#   From: 2010.05.17/outbox.cif.g08.bks.cpg/sg60_12_cif.got.tgz:23798.got - 2010.06.03 14:59:27.
