data_PCOD9454046
_publ_section_title
;
Structure prediction by ZEFSAII (Michael W. Deem and Ramdas Pophale) SiO2 
 PCOD9454046
Probable space group: P B C N
;
_chemical_formula_sum "Si O2"
_cell_formula_units_Z 48
_cell_length_a 8.649603
_cell_length_b 10.905429
_cell_length_c 22.849443
_cell_angle_alpha 90.000000
_cell_angle_beta 90.000000
_cell_angle_gamma 90.000000
_cell_volume 2155.333837
_symmetry_space_group_name_H-M "P B C N"
_symmetry_group_IT_number 60
_symmetry_cell_setting 'orthorhombic'
loop_
_space_group_symop_operation_xyz
x,y,z
1/2-x,1/2-y,1/2+z
1/2+x,1/2-y,-z
-x,y,1/2-z
-x,-y,-z
1/2+x,1/2+y,1/2-z
1/2-x,1/2+y,z
x,-y,1/2+z
loop_
_atom_site_type_symbol
_atom_site_label
_atom_site_fract_x
_atom_site_fract_y
_atom_site_fract_z
Si Si1 0.756304 0.999015 0.519638
Si Si2 0.036640 0.387835 0.575643
Si Si3 0.040847 0.107295 0.582204
Si Si4 0.214363 0.485513 0.169934
Si Si5 0.172510 0.118755 0.273760
Si Si6 0.824353 0.847541 0.227856
O O1 0.658925 0.089902 0.477246
O O2 0.869685 0.067070 0.564284
O O3 0.631616 0.915379 0.551479
O O4 0.860580 0.916845 0.476672
O O5 0.050204 0.249844 0.598268
O O6 0.078995 0.487611 0.625165
O O7 0.129901 0.029098 0.631545
O O8 0.226317 0.597830 0.214894
O O9 0.216496 0.371676 0.214514
O O10 0.249568 0.233585 0.305428
O O11 0.000000 0.138781 0.250000
O O12 0.177800 0.982558 0.301718
O O13 0.000000 0.828236 0.250000
#
# Coordination Sequence:
#
# PCOD9454046 Si02
#       6
#     8   8   8   8   8   8
#     4   9  20  32  49  82 102 144 192 218 272 331
#     4  10  18  33  54  75 108 144 186 226 274 330
#     4  10  18  33  54  73 114 143 176 235 276 317
#     4   9  19  34  54  81 106 141 182 222 281 326
#     4   9  19  37  59  84 110 143 184 226 279 344
#     4   9  19  37  59  83 112 143 183 227 282 342
#
# _framework density 22.270333000000001
#
# number of rings (size 3 to 8) (size 9 to 14) (size 15 to 20)
#    1.000    1.667    0.000    2.000    0.000    0.667 
#    0.000   10.000    0.000    0.000    0.000    0.000 
#    0.000    0.000    0.000    0.000    0.000    0.000 
#
# Total GULP energy -267583.018703 kJ/mol
# GULP energy per Si atom -5574.646223 kJ/mol
# Density = 2.221965 g / cm^3
# Si number density = 22.270333 Si / 1000 Ang^3
#
#
#
# Elastic Constant Matrix: (Units=GPa)
#
#
# Indices 1 2 3 4 5 6 
#
# 1 81.6615 31.1047 8.8007 0.0000 0.0000 0.0000
# 2 31.1047 115.3261 -11.4879 0.0000 0.0000 0.0000
# 3 8.8007 -11.4879 57.7590 0.0000 0.0000 0.0000
# 4 0.0000 0.0000 0.0000 0.3458 0.0000 0.0000
# 5 0.0000 0.0000 0.0000 0.0000 18.4750 0.0000
# 6 0.0000 0.0000 0.0000 0.0000 0.0000 20.9711
#
#
#
# Elastic Compliance Matrix: (Units=1/GPa)
#
#
# Indices 1 2 3 4 5 6 
#
# 1 0.014130 -0.004107 -0.002970 0.000000 0.000000 0.000000
# 2 -0.004107 0.010040 0.002623 0.000000 0.000000 0.000000
# 3 -0.002970 0.002623 0.018287 0.000000 0.000000 0.000000
# 4 0.000000 0.000000 0.000000 2.891551 0.000000 0.000000
# 5 0.000000 0.000000 0.000000 0.000000 0.054127 0.000000
# 6 0.000000 0.000000 0.000000 0.000000 0.000000 0.047685
#
#
# Mechanical properties :
#
#
# Convention : Reuss Voigt Hill
#
# Bulk Modulus (GPa) = 29.80676 34.62016 32.21346
# Shear Modulus (GPa) = 1.63617 23.04699 12.34158
#
# Velocity S-wave (km/s) = 0.85807 3.22044 2.35664
# Velocity P-wave (km/s) = 3.79405 5.42286 4.67986
#
# Compressibility (1/GPa) = 0.03354944
#
# Stress axis : x y z
#
# Youngs Moduli (GPa) = 70.77131 99.60189 54.68228
#
# Poissons Ratio (x) = 0.40905 0.16240
# Poissons Ratio (y) = 0.29065 -0.14341
# Poissons Ratio (z) = 0.21018 -0.26122
#
# Static dielectric constant tensor:
#      x y z
#    x 1.793260 0.000000 0.000000 
#    y 0.000000 1.936800 0.000000 
#    z 0.000000 0.000000 1.830770 
# 
# From -- ./inp_files/25967.got.cif
#   From: 2010.05.17/outbox.cif.g08.bks.cpg/sg60_13_cif.got.tgz:25967.got - 2010.06.03 14:59:27.
