data_PCOD9454219
_publ_section_title
;
Structure prediction by ZEFSAII (Michael W. Deem and Ramdas Pophale) SiO2 
 PCOD9454219
Probable space group: P B C N
;
_chemical_formula_sum "Si O2"
_cell_formula_units_Z 44
_cell_length_a 27.391672
_cell_length_b 8.400286
_cell_length_c 9.463207
_cell_angle_alpha 90.000000
_cell_angle_beta 90.000000
_cell_angle_gamma 90.000000
_cell_volume 2177.463858
_symmetry_space_group_name_H-M "P B C N"
_symmetry_group_IT_number 60
_symmetry_cell_setting 'orthorhombic'
loop_
_space_group_symop_operation_xyz
x,y,z
1/2-x,1/2-y,1/2+z
1/2+x,1/2-y,-z
-x,y,1/2-z
-x,-y,-z
1/2+x,1/2+y,1/2-z
1/2-x,1/2+y,z
x,-y,1/2+z
loop_
_atom_site_type_symbol
_atom_site_label
_atom_site_fract_x
_atom_site_fract_y
_atom_site_fract_z
Si Si1 0.064559 0.624730 0.499585
Si Si2 0.000000 0.497449 0.750000
Si Si3 0.687194 0.486489 0.682750
Si Si4 0.832897 0.487707 0.518543
Si Si5 0.145865 0.151751 0.069153
Si Si6 0.211858 0.342863 0.723495
O O1 0.032191 0.598400 0.638749
O O2 0.108989 0.494619 0.501993
O O3 0.094321 0.789943 0.507769
O O4 0.034326 0.603214 0.356166
O O5 0.671509 0.515748 0.522944
O O6 0.734685 0.383607 0.718793
O O7 0.697789 0.663233 0.741916
O O8 0.644308 0.404221 0.771181
O O9 0.822345 0.313306 0.449787
O O10 0.822224 0.460760 0.682806
O O11 0.799216 0.612789 0.438414
#
# Coordination Sequence:
#
# PCOD9454219 Si02
#       6
#     8   4   8   8   8   8
#     4   9  20  37  62  96 112 148 189 247 300 357
#     4  10  18  38  70  92 118 138 194 252 302 366
#     4  11  22  37  54  84 119 167 191 247 264 350
#     4   9  20  36  56  87 114 152 195 245 278 360
#     4   9  22  38  55  83 119 151 202 233 298 334
#     4  11  21  34  56  82 119 158 204 228 286 321
#
# _framework density 20.206996
#
# number of rings (size 3 to 8) (size 9 to 14) (size 15 to 20)
#    1.091    1.091    0.000    3.273    0.000    5.818 
#    0.000    0.000    0.000    3.273    0.000    0.000 
#    0.000    0.000    0.000    0.000    0.000    0.000 
#
# Total GULP energy -245185.446784 kJ/mol
# GULP energy per Si atom -5572.396518 kJ/mol
# Density = 2.016100 g / cm^3
# Si number density = 20.206996 Si / 1000 Ang^3
#
#
#
# Elastic Constant Matrix: (Units=GPa)
#
#
# Indices 1 2 3 4 5 6 
#
# 1 88.5416 4.2997 26.0481 0.0000 0.0000 0.0000
# 2 4.2997 28.6199 16.1454 0.0000 0.0000 0.0000
# 3 26.0481 16.1454 75.1735 0.0000 0.0000 0.0000
# 4 0.0000 0.0000 0.0000 21.3803 0.0000 0.0000
# 5 0.0000 0.0000 0.0000 0.0000 35.4304 0.0000
# 6 0.0000 0.0000 0.0000 0.0000 0.0000 17.9298
#
#
#
# Elastic Compliance Matrix: (Units=1/GPa)
#
#
# Indices 1 2 3 4 5 6 
#
# 1 0.012587 0.000648 -0.004501 0.000000 0.000000 0.000000
# 2 0.000648 0.039791 -0.008771 0.000000 0.000000 0.000000
# 3 -0.004501 -0.008771 0.016746 0.000000 0.000000 0.000000
# 4 0.000000 0.000000 0.000000 0.046772 0.000000 0.000000
# 5 0.000000 0.000000 0.000000 0.000000 0.028224 0.000000
# 6 0.000000 0.000000 0.000000 0.000000 0.000000 0.055773
#
#
# Mechanical properties :
#
#
# Convention : Reuss Voigt Hill
#
# Bulk Modulus (GPa) = 22.79097 31.70238 27.24668
# Shear Modulus (GPa) = 20.85374 24.67090 22.76232
#
# Velocity S-wave (km/s) = 3.21597 3.49794 3.35991
# Velocity P-wave (km/s) = 5.00931 5.66012 5.34463
#
# Compressibility (1/GPa) = 0.04387703
#
# Stress axis : x y z
#
# Youngs Moduli (GPa) = 79.44916 25.13122 59.71668
#
# Poissons Ratio (x) = -0.01628 0.26876
# Poissons Ratio (y) = -0.05148 0.52375
# Poissons Ratio (z) = 0.35756 0.22042
#
# Static dielectric constant tensor:
#      x y z
#    x 1.753990 0.000000 0.000000 
#    y 0.000000 1.710210 0.000000 
#    z 0.000000 0.000000 1.711110 
# 
# From -- ./inp_files/8361.got.cif
#   From: 2010.05.17/outbox.cif.g08.bks.cpg/sg60_5_cif.got.tgz:8361.got - 2010.06.03 14:59:27.
