data_PCOD9454020
_publ_section_title
;
Structure prediction by ZEFSAII (Michael W. Deem and Ramdas Pophale) SiO2 
 PCOD9454020
Probable space group: P B C N
;
_chemical_formula_sum "Si O2"
_cell_formula_units_Z 40
_cell_length_a 13.781154
_cell_length_b 12.612190
_cell_length_c 9.648757
_cell_angle_alpha 90.000000
_cell_angle_beta 90.000000
_cell_angle_gamma 90.000000
_cell_volume 1677.055594
_symmetry_space_group_name_H-M "P B C N"
_symmetry_group_IT_number 60
_symmetry_cell_setting 'orthorhombic'
loop_
_space_group_symop_operation_xyz
x,y,z
1/2-x,1/2-y,1/2+z
1/2+x,1/2-y,-z
-x,y,1/2-z
-x,-y,-z
1/2+x,1/2+y,1/2-z
1/2-x,1/2+y,z
x,-y,1/2+z
loop_
_atom_site_type_symbol
_atom_site_label
_atom_site_fract_x
_atom_site_fract_y
_atom_site_fract_z
Si Si1 0.570341 0.526862 0.373413
Si Si2 0.516172 0.834912 0.094197
Si Si3 0.649349 0.969237 0.528280
Si Si4 0.596587 0.290927 0.343714
Si Si5 0.741626 0.108784 0.291655
O O1 0.500000 0.553520 0.250000
O O2 0.500000 0.500000 0.500000
O O3 0.621286 0.414303 0.340013
O O4 0.654914 0.612965 0.368198
O O5 0.500000 0.799244 0.250000
O O6 0.581116 0.942390 0.101265
O O7 0.418134 0.871194 0.015858
O O8 0.569231 0.749480 0.997403
O O9 0.734131 0.935033 0.634461
O O10 0.682724 0.028011 0.389641
O O11 0.500000 0.275530 0.250000
O O12 0.684628 0.219105 0.292574
#
# Coordination Sequence:
#
# PCOD9454020 Si02
#       5
#     8   8   8   8   8
#     4  11  26  50  69  95 140 192 234 291 358 425
#     4  10  18  32  58 103 142 170 211 277 357 411
#     4  10  19  31  60  99 138 167 218 285 340 402
#     4  10  22  42  71 101 136 178 227 291 360 419
#     4  11  21  41  67  99 134 185 232 286 346 420
#
# _framework density 23.851327000000001
#
# number of rings (size 3 to 8) (size 9 to 14) (size 15 to 20)
#    0.000    1.600    4.000    1.200    0.000    0.800 
#    3.600   10.000    0.000    1.200    0.000    0.000 
#    0.000    0.000    0.000    0.000    0.000    0.000 
#
# Total GULP energy -223835.231492 kJ/mol
# GULP energy per Si atom -5595.880787 kJ/mol
# Density = 2.379704 g / cm^3
# Si number density = 23.851327 Si / 1000 Ang^3
#
#
#
# Elastic Constant Matrix: (Units=GPa)
#
#
# Indices 1 2 3 4 5 6 
#
# 1 93.3102 29.3313 10.4478 0.0000 0.0000 0.0000
# 2 29.3313 96.6601 5.3831 0.0000 0.0000 0.0000
# 3 10.4478 5.3831 105.8697 0.0000 0.0000 0.0000
# 4 0.0000 0.0000 0.0000 2.2860 0.0000 0.0000
# 5 0.0000 0.0000 0.0000 0.0000 34.6606 0.0000
# 6 0.0000 0.0000 0.0000 0.0000 0.0000 23.3336
#
#
#
# Elastic Compliance Matrix: (Units=1/GPa)
#
#
# Indices 1 2 3 4 5 6 
#
# 1 0.011951 -0.003571 -0.000998 0.000000 0.000000 0.000000
# 2 -0.003571 0.011442 -0.000229 0.000000 0.000000 0.000000
# 3 -0.000998 -0.000229 0.009556 0.000000 0.000000 0.000000
# 4 0.000000 0.000000 0.000000 0.437437 0.000000 0.000000
# 5 0.000000 0.000000 0.000000 0.000000 0.028851 0.000000
# 6 0.000000 0.000000 0.000000 0.000000 0.000000 0.042857
#
#
# Mechanical properties :
#
#
# Convention : Reuss Voigt Hill
#
# Bulk Modulus (GPa) = 42.82214 42.90715 42.86464
# Shear Modulus (GPa) = 8.93696 28.76791 18.85243
#
# Velocity S-wave (km/s) = 1.93780 3.47671 2.81448
# Velocity P-wave (km/s) = 4.79578 5.84339 5.34531
#
# Compressibility (1/GPa) = 0.02335240
#
# Stress axis : x y z
#
# Youngs Moduli (GPa) = 83.67377 87.39796 104.64947
#
# Poissons Ratio (x) = 0.31210 0.10442
# Poissons Ratio (y) = 0.29880 0.02400
# Poissons Ratio (z) = 0.08349 0.02005
#
# Static dielectric constant tensor:
#      x y z
#    x 1.939210 0.000000 0.000000 
#    y 0.000000 1.880000 0.000000 
#    z 0.000000 0.000000 1.878120 
# 
# From -- ./inp_files/5675.got.cif
#   From: 2010.05.17/outbox.cif.g08.bks.cpg/sg60_3_cif.got.tgz:5675.got - 2010.06.03 14:59:27.
