data_PCOD9454346
_publ_section_title
;
Structure prediction by ZEFSAII (Michael W. Deem and Ramdas Pophale) SiO2 
 PCOD9454346
Probable space group: P B C N
;
_chemical_formula_sum "Si O2"
_cell_formula_units_Z 40
_cell_length_a 13.675536
_cell_length_b 25.265160
_cell_length_c 5.195713
_cell_angle_alpha 90.000000
_cell_angle_beta 90.000000
_cell_angle_gamma 90.000000
_cell_volume 1795.194726
_symmetry_space_group_name_H-M "P B C N"
_symmetry_group_IT_number 60
_symmetry_cell_setting 'orthorhombic'
loop_
_space_group_symop_operation_xyz
x,y,z
1/2-x,1/2-y,1/2+z
1/2+x,1/2-y,-z
-x,y,1/2-z
-x,-y,-z
1/2+x,1/2+y,1/2-z
1/2-x,1/2+y,z
x,-y,1/2+z
loop_
_atom_site_type_symbol
_atom_site_label
_atom_site_fract_x
_atom_site_fract_y
_atom_site_fract_z
Si Si1 0.668665 0.859967 0.548805
Si Si2 0.617167 0.527423 0.736409
Si Si3 0.683599 0.251734 0.160266
Si Si4 0.201148 0.863144 0.450411
Si Si5 0.108827 0.476156 0.971945
O O1 0.623952 0.802178 0.609974
O O2 0.711024 0.859219 0.259672
O O3 0.607342 0.913721 0.574657
O O4 0.754714 0.864549 0.762993
O O5 0.500000 0.525284 0.750000
O O6 0.650080 0.483745 0.527358
O O7 0.646090 0.583904 0.623317
O O8 0.727517 0.251775 0.448847
O O9 0.640045 0.309145 0.096002
O O10 0.156815 0.491349 0.241424
O O11 0.000000 0.500000 0.000000
#
# Coordination Sequence:
#
# PCOD9454346 Si02
#       5
#     8   8   8   8   8
#     4  10  19  32  53  78 101 134 171 219 261 300
#     4  10  21  35  50  72 105 139 162 203 262 314
#     4   8  16  30  48  74 100 126 161 213 265 292
#     4  10  19  32  53  78 103 128 174 220 255 311
#     4  10  21  35  50  71 103 143 172 210 258 311
#
# _framework density 22.281706
#
# number of rings (size 3 to 8) (size 9 to 14) (size 15 to 20)
#    0.000    2.400    0.000    2.400    0.000    4.800 
#    0.000    0.000    4.400    0.000   10.400    0.000 
#    0.000    0.000    0.000    0.000    0.000    0.000 
#
# Total GULP energy -223136.983200 kJ/mol
# GULP energy per Si atom -5578.424580 kJ/mol
# Density = 2.223099 g / cm^3
# Si number density = 22.281706 Si / 1000 Ang^3
#
#
#
# Elastic Constant Matrix: (Units=GPa)
#
#
# Indices 1 2 3 4 5 6 
#
# 1 33.4417 12.8282 10.7081 0.0000 0.0000 0.0000
# 2 12.8282 213.3768 19.0909 0.0000 0.0000 0.0000
# 3 10.7081 19.0909 120.4885 0.0000 0.0000 0.0000
# 4 0.0000 0.0000 0.0000 36.6933 0.0000 0.0000
# 5 0.0000 0.0000 0.0000 0.0000 3.0565 0.0000
# 6 0.0000 0.0000 0.0000 0.0000 0.0000 -0.5396
#
#
#
# Elastic Compliance Matrix: (Units=1/GPa)
#
#
# Indices 1 2 3 4 5 6 
#
# 1 0.031347 -0.001659 -0.002523 0.000000 0.000000 0.000000
# 2 -0.001659 0.004842 -0.000620 0.000000 0.000000 0.000000
# 3 -0.002523 -0.000620 0.008622 0.000000 0.000000 0.000000
# 4 0.000000 0.000000 0.000000 0.027253 0.000000 0.000000
# 5 0.000000 0.000000 0.000000 0.000000 0.327169 0.000000
# 6 0.000000 0.000000 0.000000 0.000000 0.000000 -1.853394
#
#
# Mechanical properties :
#
#
# Convention : Reuss Voigt Hill
#
# Bulk Modulus (GPa) = 28.40303 50.28460 39.34381
# Shear Modulus (GPa) = -3.48962 29.48737 12.99888
#
# Velocity S-wave (km/s) = -1.25281 3.64179 2.41796
# Velocity P-wave (km/s) = 3.26836 6.34824 5.04888
#
# Compressibility (1/GPa) = 0.03520751
#
# Stress axis : x y z
#
# Youngs Moduli (GPa) = 31.90093 206.53808 115.98284
#
# Poissons Ratio (x) = 0.34262 0.29263
# Poissons Ratio (y) = 0.05292 0.07188
# Poissons Ratio (z) = 0.08049 0.12800
#
# Static dielectric constant tensor:
#      x y z
#    x 1.632790 0.000000 0.000000 
#    y 0.000000 1.877870 0.000000 
#    z 0.000000 0.000000 1.816160 
# 
# From -- ./inp_files/1200.got.cif
#   From: 2010.05.17/outbox.cif.g08.bks.cpg/sg60_1_cif.got.tgz:1200.got - 2010.06.03 14:59:27.
