data_PCOD9454943
_publ_section_title
;
Structure prediction by ZEFSAII (Michael W. Deem and Ramdas Pophale) SiO2 
 PCOD9454943
Probable space group: P B C N
;
_chemical_formula_sum "Si O2"
_cell_formula_units_Z 64
_cell_length_a 11.359292
_cell_length_b 8.186707
_cell_length_c 32.505711
_cell_angle_alpha 90.000000
_cell_angle_beta 90.000000
_cell_angle_gamma 90.000000
_cell_volume 3022.874944
_symmetry_space_group_name_H-M "P B C N"
_symmetry_group_IT_number 60
_symmetry_cell_setting 'orthorhombic'
loop_
_space_group_symop_operation_xyz
x,y,z
1/2-x,1/2-y,1/2+z
1/2+x,1/2-y,-z
-x,y,1/2-z
-x,-y,-z
1/2+x,1/2+y,1/2-z
1/2-x,1/2+y,z
x,-y,1/2+z
loop_
_atom_site_type_symbol
_atom_site_label
_atom_site_fract_x
_atom_site_fract_y
_atom_site_fract_z
Si Si1 0.216237 0.675059 0.732981
Si Si2 0.693866 0.243568 0.459559
Si Si3 0.476639 0.433855 0.100811
Si Si4 0.461797 0.907796 0.641694
Si Si5 0.924111 0.122028 0.029707
Si Si6 0.601171 0.876221 0.723682
Si Si7 0.920843 0.602402 0.938248
Si Si8 0.813840 0.935132 0.829451
O O1 0.283765 0.764433 0.770189
O O2 0.135617 0.536371 0.751038
O O3 0.149290 0.795604 0.702349
O O4 0.305349 0.591079 0.700471
O O5 0.614562 0.363308 0.432392
O O6 0.693003 0.326340 0.504799
O O7 0.819365 0.259777 0.438173
O O8 0.638024 0.063273 0.456476
O O9 0.507853 0.265047 0.123559
O O10 0.572901 0.533053 0.074109
O O11 0.405179 0.539273 0.134082
O O12 0.545308 0.928646 0.680809
O O13 0.321091 0.905279 0.653843
O O14 0.467008 0.044729 0.606138
O O15 0.983143 0.300364 0.035679
O O16 0.000000 0.000000 0.000000
O O17 0.500000 0.788200 0.750000
#
# Coordination Sequence:
#
# PCOD9454943 Si02
#       8
#     8   8   8   8   8   8   8   8
#     4  10  22  35  64  90 129 171 217 260 329 390
#     4  10  20  36  58  92 125 161 200 269 325 392
#     4  10  20  33  57  91 126 159 209 266 327 379
#     4  11  22  36  66  89 130 167 215 276 329 379
#     4  10  22  37  57  90 131 160 201 261 335 397
#     4  11  21  42  61  91 133 176 216 275 330 391
#     4  11  22  37  65  93 122 166 215 263 335 388
#     4  11  18  35  57  94 124 161 213 267 318 375
#
# _framework density 21.171897999999999
#
# number of rings (size 3 to 8) (size 9 to 14) (size 15 to 20)
#    0.000    1.500    5.000    1.875    3.500    0.000 
#    0.000    7.500    0.000   15.000    0.000    0.000 
#    0.000    0.000    0.000    0.000    0.000    0.000 
#
# Total GULP energy -356503.871201 kJ/mol
# GULP energy per Si atom -5570.372988 kJ/mol
# Density = 2.112371 g / cm^3
# Si number density = 21.171898 Si / 1000 Ang^3
#
#
#
# Elastic Constant Matrix: (Units=GPa)
#
#
# Indices 1 2 3 4 5 6 
#
# 1 15.7536 11.5196 30.0791 0.0000 0.0000 0.0000
# 2 11.5196 79.4032 48.7772 0.0000 0.0000 0.0000
# 3 30.0791 48.7772 122.9098 0.0000 0.0000 0.0000
# 4 0.0000 0.0000 0.0000 15.0804 0.0000 0.0000
# 5 0.0000 0.0000 0.0000 0.0000 37.6132 0.0000
# 6 0.0000 0.0000 0.0000 0.0000 0.0000 16.8699
#
#
#
# Elastic Compliance Matrix: (Units=1/GPa)
#
#
# Indices 1 2 3 4 5 6 
#
# 1 0.119195 0.000829 -0.029499 0.000000 0.000000 0.000000
# 2 0.000829 0.016660 -0.006814 0.000000 0.000000 0.000000
# 3 -0.029499 -0.006814 0.018059 0.000000 0.000000 0.000000
# 4 0.000000 0.000000 0.000000 0.066311 0.000000 0.000000
# 5 0.000000 0.000000 0.000000 0.000000 0.026586 0.000000
# 6 0.000000 0.000000 0.000000 0.000000 0.000000 0.059277
#
#
# Mechanical properties :
#
#
# Convention : Reuss Voigt Hill
#
# Bulk Modulus (GPa) = 12.05617 44.31318 28.18468
# Shear Modulus (GPa) = 12.35464 22.42541 17.39002
#
# Velocity S-wave (km/s) = 2.41828 3.25808 2.86907
# Velocity P-wave (km/s) = 3.67481 5.92698 4.93119
#
# Compressibility (1/GPa) = 0.08294508
#
# Stress axis : x y z
#
# Youngs Moduli (GPa) = 8.38961 60.02503 55.37280
#
# Poissons Ratio (x) = -0.04973 1.63343
# Poissons Ratio (y) = -0.00695 0.37732
# Poissons Ratio (z) = 0.24748 0.40902
#
# Static dielectric constant tensor:
#      x y z
#    x 1.867020 0.000000 0.000000 
#    y 0.000000 1.850740 0.000000 
#    z 0.000000 0.000000 1.867330 
# 
# From -- ./inp_files/26115.got.cif
#   From: 2010.05.17/outbox.cif.g08.bks.cpg/sg60_14_cif.got.tgz:26115.got - 2010.06.03 14:59:27.
