data_PCOD9454459
_publ_section_title
;
Structure prediction by ZEFSAII (Michael W. Deem and Ramdas Pophale) SiO2 
 PCOD9454459
Probable space group: P B C N
;
_chemical_formula_sum "Si O2"
_cell_formula_units_Z 64
_cell_length_a 13.931774
_cell_length_b 17.222286
_cell_length_c 14.810647
_cell_angle_alpha 90.000000
_cell_angle_beta 90.000000
_cell_angle_gamma 90.000000
_cell_volume 3553.622155
_symmetry_space_group_name_H-M "P B C N"
_symmetry_group_IT_number 60
_symmetry_cell_setting 'orthorhombic'
loop_
_space_group_symop_operation_xyz
x,y,z
1/2-x,1/2-y,1/2+z
1/2+x,1/2-y,-z
-x,y,1/2-z
-x,-y,-z
1/2+x,1/2+y,1/2-z
1/2-x,1/2+y,z
x,-y,1/2+z
loop_
_atom_site_type_symbol
_atom_site_label
_atom_site_fract_x
_atom_site_fract_y
_atom_site_fract_z
Si Si1 0.606841 0.470813 0.475846
Si Si2 0.403080 0.753264 0.691681
Si Si3 0.400917 0.212116 0.803622
Si Si4 0.435609 0.696037 0.487972
Si Si5 0.776261 0.161558 0.304654
Si Si6 0.343906 0.642036 0.002552
Si Si7 0.785430 0.865810 0.191175
Si Si8 0.610989 0.504060 0.271329
O O1 0.500000 0.500000 0.500000
O O2 0.623658 0.385901 0.518570
O O3 0.668559 0.547933 0.496394
O O4 0.609582 0.461581 0.368010
O O5 0.500000 0.753918 0.750000
O O6 0.420678 0.735670 0.585922
O O7 0.336904 0.828487 0.710286
O O8 0.336225 0.685353 0.732276
O O9 0.500000 0.200289 0.750000
O O10 0.339100 0.277234 0.751168
O O11 0.329441 0.138107 0.801530
O O12 0.418086 0.246420 0.904145
O O13 0.545486 0.665981 0.485007
O O14 0.790083 0.175832 0.411421
O O15 0.824494 0.079761 0.282312
O O16 0.309320 0.670684 0.905977
O O17 0.839352 0.947789 0.199570
O O18 0.500000 0.523138 0.250000
#
# Coordination Sequence:
#
# PCOD9454459 Si02
#       8
#     8   8   8   8   8   8   8   8
#     4   9  19  29  50  85 113 143 180 230 292 338
#     4  11  21  38  57  83 116 154 194 232 280 345
#     4  11  23  38  55  81 117 158 191 231 283 349
#     4  11  19  34  57  81 118 157 182 237 289 334
#     4  10  23  36  57  86 115 150 193 236 286 344
#     4  10  19  34  54  87 115 144 191 239 291 342
#     4  11  22  36  59  87 112 150 194 234 291 342
#     4  11  20  35  59  85 115 144 185 244 294 336
#
# _framework density 18.009792999999998
#
# number of rings (size 3 to 8) (size 9 to 14) (size 15 to 20)
#    0.000    1.500    3.750    3.000    5.250    0.000 
#    0.000    0.625    0.000    0.000    0.000    4.375 
#    0.000    0.000    0.000    0.000    0.000    0.000 
#
# Total GULP energy -356637.021132 kJ/mol
# GULP energy per Si atom -5572.453455 kJ/mol
# Density = 1.796880 g / cm^3
# Si number density = 18.009793 Si / 1000 Ang^3
#
#
#
# Elastic Constant Matrix: (Units=GPa)
#
#
# Indices 1 2 3 4 5 6 
#
# 1 107.3873 32.7295 26.1182 0.0000 0.0000 0.0000
# 2 32.7295 45.2778 8.3553 0.0000 0.0000 0.0000
# 3 26.1182 8.3553 112.2119 0.0000 0.0000 0.0000
# 4 0.0000 0.0000 0.0000 -1.9694 0.0000 0.0000
# 5 0.0000 0.0000 0.0000 0.0000 -1.2689 0.0000
# 6 0.0000 0.0000 0.0000 0.0000 0.0000 17.5718
#
#
#
# Elastic Compliance Matrix: (Units=1/GPa)
#
#
# Indices 1 2 3 4 5 6 
#
# 1 0.012487 -0.008608 -0.002265 0.000000 0.000000 0.000000
# 2 -0.008608 0.028328 -0.000106 0.000000 0.000000 0.000000
# 3 -0.002265 -0.000106 0.009447 0.000000 0.000000 0.000000
# 4 0.000000 0.000000 0.000000 -0.507762 0.000000 0.000000
# 5 0.000000 0.000000 0.000000 0.000000 -0.788066 0.000000
# 6 0.000000 0.000000 0.000000 0.000000 0.000000 0.056909
#
#
# Mechanical properties :
#
#
# Convention : Reuss Voigt Hill
#
# Bulk Modulus (GPa) = 35.33190 44.36476 39.84833
# Shear Modulus (GPa) = -4.32053 16.04496 5.86221
#
# Velocity S-wave (km/s) = -1.55055 2.98804 1.80612
# Velocity P-wave (km/s) = 4.05650 6.04910 5.15009
#
# Compressibility (1/GPa) = 0.02830303
#
# Stress axis : x y z
#
# Youngs Moduli (GPa) = 80.08571 35.30099 105.85511
#
# Poissons Ratio (x) = 0.30387 0.23980
# Poissons Ratio (y) = 0.68938 0.01119
# Poissons Ratio (z) = 0.18143 0.00373
#
# Static dielectric constant tensor:
#      x y z
#    x 1.639040 0.000000 0.000000 
#    y 0.000000 1.666470 0.000000 
#    z 0.000000 0.000000 1.661640 
# 
# From -- ./inp_files/17067.got.cif
#   From: 2010.05.17/outbox.cif.g08.bks.cpg/sg60_9_cif.got.tgz:17067.got - 2010.06.03 14:59:27.
