data_PCOD9454165
_publ_section_title
;
Structure prediction by ZEFSAII (Michael W. Deem and Ramdas Pophale) SiO2 
 PCOD9454165
Probable space group: P B C N
;
_chemical_formula_sum "Si O2"
_cell_formula_units_Z 48
_cell_length_a 12.877169
_cell_length_b 22.170731
_cell_length_c 7.884626
_cell_angle_alpha 90.000000
_cell_angle_beta 90.000000
_cell_angle_gamma 90.000000
_cell_volume 2251.031155
_symmetry_space_group_name_H-M "P B C N"
_symmetry_group_IT_number 60
_symmetry_cell_setting 'orthorhombic'
loop_
_space_group_symop_operation_xyz
x,y,z
1/2-x,1/2-y,1/2+z
1/2+x,1/2-y,-z
-x,y,1/2-z
-x,-y,-z
1/2+x,1/2+y,1/2-z
1/2-x,1/2+y,z
x,-y,1/2+z
loop_
_atom_site_type_symbol
_atom_site_label
_atom_site_fract_x
_atom_site_fract_y
_atom_site_fract_z
Si Si1 0.387583 0.744472 0.844382
Si Si2 0.776127 0.052077 0.819749
Si Si3 0.000000 0.454997 0.750000
Si Si4 0.781650 0.819313 0.472307
Si Si5 0.502247 0.652397 0.064915
Si Si6 0.642331 0.043716 0.521261
Si Si7 0.000000 0.939370 0.250000
O O1 0.500000 0.756771 0.750000
O O2 0.311489 0.712777 0.706266
O O3 0.320336 0.797033 0.931184
O O4 0.415781 0.698709 0.997680
O O5 0.777380 0.108939 0.943447
O O6 0.714028 0.076504 0.655752
O O7 0.889161 0.029154 0.761876
O O8 0.716185 0.998380 0.909433
O O9 0.929301 0.499435 0.635472
O O10 0.070703 0.420899 0.612822
O O11 0.889449 0.810698 0.572397
O O12 0.500000 0.623865 0.250000
O O13 0.500142 0.603082 0.915841
#
# Coordination Sequence:
#
# PCOD9454165 Si02
#       7
#     8   8   4   8   8   8   4
#     4  10  19  37  62  90 121 157 201 254 300 367
#     4  10  20  38  58  89 119 159 195 252 296 363
#     4   8  16  36  60  77 106 154 187 242 298 372
#     4  10  20  37  60  87 127 155 204 251 299 362
#     4  10  18  36  61  84 119 172 193 233 312 367
#     4   9  18  35  63  81 111 156 201 242 306 344
#     4  10  20  40  56  89 134 152 201 246 298 376
#
# _framework density 21.323561999999999
#
# number of rings (size 3 to 8) (size 9 to 14) (size 15 to 20)
#    0.000    2.333    4.167    1.000    0.000    0.667 
#   13.500    0.000   51.333    0.000    0.000    0.000 
#    0.000    0.000    0.000    0.000    0.000    0.000 
#
# Total GULP energy -267211.264455 kJ/mol
# GULP energy per Si atom -5566.901343 kJ/mol
# Density = 2.127503 g / cm^3
# Si number density = 21.323562 Si / 1000 Ang^3
#
#
#
# Elastic Constant Matrix: (Units=GPa)
#
#
# Indices 1 2 3 4 5 6 
#
# 1 98.4074 5.9431 27.3312 0.0000 0.0000 0.0000
# 2 5.9431 11.8394 -3.6190 0.0000 0.0000 0.0000
# 3 27.3312 -3.6190 110.8048 0.0000 0.0000 0.0000
# 4 0.0000 0.0000 0.0000 10.9676 0.0000 0.0000
# 5 0.0000 0.0000 0.0000 0.0000 18.6439 0.0000
# 6 0.0000 0.0000 0.0000 0.0000 0.0000 28.7227
#
#
#
# Elastic Compliance Matrix: (Units=1/GPa)
#
#
# Indices 1 2 3 4 5 6 
#
# 1 0.011405 -0.006651 -0.003030 0.000000 0.000000 0.000000
# 2 -0.006651 0.089195 0.004554 0.000000 0.000000 0.000000
# 3 -0.003030 0.004554 0.009921 0.000000 0.000000 0.000000
# 4 0.000000 0.000000 0.000000 0.091178 0.000000 0.000000
# 5 0.000000 0.000000 0.000000 0.000000 0.053637 0.000000
# 6 0.000000 0.000000 0.000000 0.000000 0.000000 0.034816
#
#
# Mechanical properties :
#
#
# Convention : Reuss Voigt Hill
#
# Bulk Modulus (GPa) = 9.97359 31.15136 20.56247
# Shear Modulus (GPa) = 14.97771 24.42657 19.70214
#
# Velocity S-wave (km/s) = 2.65316 3.38823 3.04297
# Velocity P-wave (km/s) = 3.75141 5.47242 4.69151
#
# Compressibility (1/GPa) = 0.10026484
#
# Stress axis : x y z
#
# Youngs Moduli (GPa) = 87.67930 11.21143 100.79521
#
# Poissons Ratio (x) = 0.07457 0.30546
# Poissons Ratio (y) = 0.58320 -0.45900
# Poissons Ratio (z) = 0.26571 -0.05105
#
# Static dielectric constant tensor:
#      x y z
#    x 1.814060 0.000000 0.000000 
#    y 0.000000 1.756330 0.000000 
#    z 0.000000 0.000000 1.816690 
# 
# From -- ./inp_files/5105.got.cif
#   From: 2010.05.17/outbox.cif.g08.bks.cpg/sg60_3_cif.got.tgz:5105.got - 2010.06.03 14:59:27.
