data_PCOD9454934
_publ_section_title
;
Structure prediction by ZEFSAII (Michael W. Deem and Ramdas Pophale) SiO2 
 PCOD9454934
Probable space group: P B C N
;
_chemical_formula_sum "Si O2"
_cell_formula_units_Z 44
_cell_length_a 5.371774
_cell_length_b 18.365342
_cell_length_c 18.006972
_cell_angle_alpha 90.000000
_cell_angle_beta 90.000000
_cell_angle_gamma 90.000000
_cell_volume 1776.468219
_symmetry_space_group_name_H-M "P B C N"
_symmetry_group_IT_number 60
_symmetry_cell_setting 'orthorhombic'
loop_
_space_group_symop_operation_xyz
x,y,z
1/2-x,1/2-y,1/2+z
1/2+x,1/2-y,-z
-x,y,1/2-z
-x,-y,-z
1/2+x,1/2+y,1/2-z
1/2-x,1/2+y,z
x,-y,1/2+z
loop_
_atom_site_type_symbol
_atom_site_label
_atom_site_fract_x
_atom_site_fract_y
_atom_site_fract_z
Si Si1 0.748534 0.292688 0.111323
Si Si2 0.088507 0.516297 0.416674
Si Si3 0.473346 0.168633 0.030196
Si Si4 0.000000 0.771623 0.250000
Si Si5 0.620346 0.673559 0.345053
Si Si6 0.422352 0.495557 0.669138
O O1 0.600046 0.322474 0.182021
O O2 0.932230 0.338326 0.058127
O O3 0.898940 0.229832 0.153318
O O4 0.580517 0.246907 0.053506
O O5 0.116285 0.604428 0.426235
O O6 0.355010 0.486805 0.389264
O O7 0.000000 0.500000 0.500000
O O8 0.858899 0.492954 0.362523
O O9 0.208929 0.164538 0.070331
O O10 0.825827 0.715652 0.296447
O O11 0.574023 0.592117 0.321384
O O12 0.500000 0.524581 0.750000
#
# Coordination Sequence:
#
# PCOD9454934 Si02
#       6
#     8   8   8   4   8   8
#     4  11  18  35  52  85 115 156 193 245 296 366
#     4  11  24  42  63  92 124 163 207 253 300 361
#     4  10  21  33  58  85 117 157 199 239 304 358
#     4  10  22  30  52  82 122 156 190 246 304 362
#     4  10  20  33  54  86 121 147 192 251 310 357
#     4  11  22  38  65  94 121 152 201 263 315 351
#
# _framework density 24.768243999999999
#
# number of rings (size 3 to 8) (size 9 to 14) (size 15 to 20)
#    0.000    1.455    3.636    2.727    5.091    0.000 
#    0.000    0.000    2.000    2.182    0.000    0.000 
#    0.000    0.000    0.000    0.000    0.000    0.000 
#
# Total GULP energy -245286.097024 kJ/mol
# GULP energy per Si atom -5574.684023 kJ/mol
# Density = 2.471187 g / cm^3
# Si number density = 24.768244 Si / 1000 Ang^3
#
#
#
# Elastic Constant Matrix: (Units=GPa)
#
#
# Indices 1 2 3 4 5 6 
#
# 1 76.3407 6.8152 19.9631 0.0000 0.0000 0.0000
# 2 6.8152 47.1945 14.4680 0.0000 0.0000 0.0000
# 3 19.9631 14.4680 125.8714 0.0000 0.0000 0.0000
# 4 0.0000 0.0000 0.0000 5.2593 0.0000 0.0000
# 5 0.0000 0.0000 0.0000 0.0000 10.9881 0.0000
# 6 0.0000 0.0000 0.0000 0.0000 0.0000 2.8246
#
#
#
# Elastic Compliance Matrix: (Units=1/GPa)
#
#
# Indices 1 2 3 4 5 6 
#
# 1 0.013750 -0.001365 -0.002024 0.000000 0.000000 0.000000
# 2 -0.001365 0.022098 -0.002324 0.000000 0.000000 0.000000
# 3 -0.002024 -0.002324 0.008533 0.000000 0.000000 0.000000
# 4 0.000000 0.000000 0.000000 0.190138 0.000000 0.000000
# 5 0.000000 0.000000 0.000000 0.000000 0.091008 0.000000
# 6 0.000000 0.000000 0.000000 0.000000 0.000000 0.354033
#
#
# Mechanical properties :
#
#
# Convention : Reuss Voigt Hill
#
# Bulk Modulus (GPa) = 30.34335 36.87769 33.61052
# Shear Modulus (GPa) = 7.12280 17.69176 12.40728
#
# Velocity S-wave (km/s) = 1.69765 2.67552 2.24059
# Velocity P-wave (km/s) = 4.01500 4.94631 4.50479
#
# Compressibility (1/GPa) = 0.03295615
#
# Stress axis : x y z
#
# Youngs Moduli (GPa) = 72.72577 45.25225 117.19655
#
# Poissons Ratio (x) = 0.06178 0.23719
# Poissons Ratio (y) = 0.09928 0.27231
# Poissons Ratio (z) = 0.14719 0.10514
#
# Static dielectric constant tensor:
#      x y z
#    x 2.055510 0.000000 0.000000 
#    y 0.000000 2.113070 0.000000 
#    z 0.000000 0.000000 1.996920 
# 
# From -- ./inp_files/13901.got.cif
#   From: 2010.05.17/outbox.cif.g08.bks.cpg/sg60_7_cif.got.tgz:13901.got - 2010.06.03 14:59:27.
