data_PCOD9454103
_publ_section_title
;
Structure prediction by ZEFSAII (Michael W. Deem and Ramdas Pophale) SiO2 
 PCOD9454103
Probable space group: P B C N
;
_chemical_formula_sum "Si O2"
_cell_formula_units_Z 32
_cell_length_a 9.332830
_cell_length_b 12.674082
_cell_length_c 10.976510
_cell_angle_alpha 90.000000
_cell_angle_beta 90.000000
_cell_angle_gamma 90.000000
_cell_volume 1298.357064
_symmetry_space_group_name_H-M "P B C N"
_symmetry_group_IT_number 60
_symmetry_cell_setting 'orthorhombic'
loop_
_space_group_symop_operation_xyz
x,y,z
1/2-x,1/2-y,1/2+z
1/2+x,1/2-y,-z
-x,y,1/2-z
-x,-y,-z
1/2+x,1/2+y,1/2-z
1/2-x,1/2+y,z
x,-y,1/2+z
loop_
_atom_site_type_symbol
_atom_site_label
_atom_site_fract_x
_atom_site_fract_y
_atom_site_fract_z
Si Si1 0.528116 0.799936 0.434281
Si Si2 0.609177 0.097943 0.342617
Si Si3 0.866248 0.924962 0.018137
Si Si4 0.755694 0.309102 0.229999
O O1 0.491654 0.875708 0.543409
O O2 0.583436 0.692808 0.490672
O O3 0.381271 0.773753 0.363167
O O4 0.652604 0.840984 0.347436
O O5 0.500000 0.040551 0.250000
O O6 0.747466 0.053673 0.414148
O O7 0.661573 0.207668 0.273683
O O8 0.814532 0.908390 0.158534
O O9 0.000000 0.000000 0.000000
#
# Coordination Sequence:
#
# PCOD9454103 Si02
#       4
#     8   8   8   8
#     4   9  18  34  58  93 131 181 237 271 341 427
#     4  10  18  34  61  96 127 186 235 283 336 437
#     4  10  20  35  61 102 137 173 227 300 357 406
#     4   9  18  34  58  95 129 173 233 282 334 426
#
# _framework density 24.646532000000001
#
# number of rings (size 3 to 8) (size 9 to 14) (size 15 to 20)
#    0.000    2.500    2.500    0.000    0.000    0.000 
#    0.000   10.000    0.000    3.000   32.500    0.000 
#    0.000    0.000    0.000    0.000    0.000    0.000 
#
# Total GULP energy -178768.326075 kJ/mol
# GULP energy per Si atom -5586.510190 kJ/mol
# Density = 2.459044 g / cm^3
# Si number density = 24.646532 Si / 1000 Ang^3
#
#
#
# Elastic Constant Matrix: (Units=GPa)
#
#
# Indices 1 2 3 4 5 6 
#
# 1 149.0235 51.9119 75.2178 0.0000 0.0000 0.0000
# 2 51.9119 62.7602 31.8553 0.0000 0.0000 0.0000
# 3 75.2178 31.8553 154.8098 0.0000 0.0000 0.0000
# 4 0.0000 0.0000 0.0000 15.2136 0.0000 0.0000
# 5 0.0000 0.0000 0.0000 0.0000 27.4744 0.0000
# 6 0.0000 0.0000 0.0000 0.0000 0.0000 59.4265
#
#
#
# Elastic Compliance Matrix: (Units=1/GPa)
#
#
# Indices 1 2 3 4 5 6 
#
# 1 0.011254 -0.007295 -0.003967 0.000000 0.000000 0.000000
# 2 -0.007295 0.022521 -0.001090 0.000000 0.000000 0.000000
# 3 -0.003967 -0.001090 0.008611 0.000000 0.000000 0.000000
# 4 0.000000 0.000000 0.000000 0.065731 0.000000 0.000000
# 5 0.000000 0.000000 0.000000 0.000000 0.036397 0.000000
# 6 0.000000 0.000000 0.000000 0.000000 0.000000 0.016828
#
#
# Mechanical properties :
#
#
# Convention : Reuss Voigt Hill
#
# Bulk Modulus (GPa) = 56.55248 76.06263 66.30755
# Shear Modulus (GPa) = 26.05001 34.26348 30.15674
#
# Velocity S-wave (km/s) = 3.25459 3.73258 3.50175
# Velocity P-wave (km/s) = 6.09249 7.03595 6.58115
#
# Compressibility (1/GPa) = 0.01768269
#
# Stress axis : x y z
#
# Youngs Moduli (GPa) = 88.85928 44.40330 116.12911
#
# Poissons Ratio (x) = 0.32393 0.46066
# Poissons Ratio (y) = 0.64824 0.12654
# Poissons Ratio (z) = 0.35248 0.04838
#
# Static dielectric constant tensor:
#      x y z
#    x 1.955750 0.000000 0.000000 
#    y 0.000000 1.541590 0.000000 
#    z 0.000000 0.000000 2.155650 
# 
# From -- ./inp_files/9511.got.cif
#   From: 2010.05.17/outbox.cif.g08.bks.cpg/sg60_5_cif.got.tgz:9511.got - 2010.06.03 14:59:27.
