data_PCOD9454616
_publ_section_title
;
Structure prediction by ZEFSAII (Michael W. Deem and Ramdas Pophale) SiO2 
 PCOD9454616
Probable space group: P B C N
;
_chemical_formula_sum "Si O2"
_cell_formula_units_Z 56
_cell_length_a 15.883494
_cell_length_b 31.536401
_cell_length_c 5.253162
_cell_angle_alpha 90.000000
_cell_angle_beta 90.000000
_cell_angle_gamma 90.000000
_cell_volume 2631.352111
_symmetry_space_group_name_H-M "P B C N"
_symmetry_group_IT_number 60
_symmetry_cell_setting 'orthorhombic'
loop_
_space_group_symop_operation_xyz
x,y,z
1/2-x,1/2-y,1/2+z
1/2+x,1/2-y,-z
-x,y,1/2-z
-x,-y,-z
1/2+x,1/2+y,1/2-z
1/2-x,1/2+y,z
x,-y,1/2+z
loop_
_atom_site_type_symbol
_atom_site_label
_atom_site_fract_x
_atom_site_fract_y
_atom_site_fract_z
Si Si1 0.475393 0.740325 0.000037
Si Si2 0.253530 0.589490 0.378353
Si Si3 0.208822 0.234670 0.856862
Si Si4 0.260802 0.857850 0.394301
Si Si5 0.546098 0.164940 0.504640
Si Si6 0.901532 0.471413 0.752170
Si Si7 0.097166 0.973644 0.740373
O O1 0.500000 0.715916 0.250000
O O2 0.528990 0.784083 0.004531
O O3 0.500000 0.715542 0.750000
O O4 0.378194 0.751237 0.975004
O O5 0.244848 0.609009 0.660909
O O6 0.167101 0.565024 0.299408
O O7 0.332052 0.558378 0.337453
O O8 0.269145 0.625009 0.165145
O O9 0.225759 0.254438 0.581505
O O10 0.210580 0.184399 0.821890
O O11 0.357244 0.845007 0.453065
O O12 0.500000 0.146572 0.750000
O O13 0.500000 0.149462 0.250000
O O14 0.888853 0.505653 0.524502
O O15 0.000000 0.457562 0.750000
O O16 0.000000 0.958460 0.750000
O O17 0.107495 0.988339 0.447461
#
# Coordination Sequence:
#
# PCOD9454616 Si02
#       7
#     8   8   8   8   8   8   8
#     4  10  20  36  60  85 107 145 204 263 312 366
#     4  12  24  41  62  96 137 169 204 262 331 388
#     4  12  23  42  65  87 118 163 220 276 326 386
#     4  12  26  39  60  93 129 166 206 264 337 394
#     4  10  19  36  56  81 113 153 203 257 307 364
#     4  10  21  39  63  91 127 173 217 251 294 370
#     4  10  21  41  72 101 125 165 216 260 307 375
#
# _framework density 21.281834
#
# number of rings (size 3 to 8) (size 9 to 14) (size 15 to 20)
#    0.000    1.143    0.000    8.571    0.000    1.714 
#    0.000    2.143    0.000    0.000    0.000    0.000 
#    0.000    0.000    0.000    0.000    0.000    0.000 
#
# Total GULP energy -312736.916880 kJ/mol
# GULP energy per Si atom -5584.587801 kJ/mol
# Density = 2.123340 g / cm^3
# Si number density = 21.281834 Si / 1000 Ang^3
#
#
#
# Elastic Constant Matrix: (Units=GPa)
#
#
# Indices 1 2 3 4 5 6 
#
# 1 96.1212 27.9020 6.6762 0.0000 0.0000 0.0000
# 2 27.9020 38.4275 -5.5699 0.0000 0.0000 0.0000
# 3 6.6762 -5.5699 129.7203 0.0000 0.0000 0.0000
# 4 0.0000 0.0000 0.0000 21.9346 0.0000 0.0000
# 5 0.0000 0.0000 0.0000 0.0000 27.5895 0.0000
# 6 0.0000 0.0000 0.0000 0.0000 0.0000 6.1251
#
#
#
# Elastic Compliance Matrix: (Units=1/GPa)
#
#
# Indices 1 2 3 4 5 6 
#
# 1 0.013339 -0.009846 -0.001109 0.000000 0.000000 0.000000
# 2 -0.009846 0.033454 0.001943 0.000000 0.000000 0.000000
# 3 -0.001109 0.001943 0.007849 0.000000 0.000000 0.000000
# 4 0.000000 0.000000 0.000000 0.045590 0.000000 0.000000
# 5 0.000000 0.000000 0.000000 0.000000 0.036246 0.000000
# 6 0.000000 0.000000 0.000000 0.000000 0.000000 0.163264
#
#
# Mechanical properties :
#
#
# Convention : Reuss Voigt Hill
#
# Bulk Modulus (GPa) = 27.30909 35.80950 31.55929
# Shear Modulus (GPa) = 15.15284 26.81389 20.98337
#
# Velocity S-wave (km/s) = 2.67124 3.55342 3.14343
# Velocity P-wave (km/s) = 4.73012 5.80505 5.29493
#
# Compressibility (1/GPa) = 0.03661784
#
# Stress axis : x y z
#
# Youngs Moduli (GPa) = 74.97027 29.89204 127.39797
#
# Poissons Ratio (x) = 0.29431 0.14132
# Poissons Ratio (y) = 0.73815 -0.24755
# Poissons Ratio (z) = 0.08316 -0.05808
#
# Static dielectric constant tensor:
#      x y z
#    x 1.989600 0.000000 0.000000 
#    y 0.000000 1.779360 0.000000 
#    z 0.000000 0.000000 1.914490 
# 
# From -- ./inp_files/1477.got.cif
#   From: 2010.05.17/outbox.cif.g08.bks.cpg/sg60_1_cif.got.tgz:1477.got - 2010.06.03 14:59:27.
