data_PCOD9454450
_publ_section_title
;
Structure prediction by ZEFSAII (Michael W. Deem and Ramdas Pophale) SiO2 
 PCOD9454450
Probable space group: P B C N
;
_chemical_formula_sum "Si O2"
_cell_formula_units_Z 64
_cell_length_a 13.493186
_cell_length_b 10.828866
_cell_length_c 22.897031
_cell_angle_alpha 90.000000
_cell_angle_beta 90.000000
_cell_angle_gamma 90.000000
_cell_volume 3345.620363
_symmetry_space_group_name_H-M "P B C N"
_symmetry_group_IT_number 60
_symmetry_cell_setting 'orthorhombic'
loop_
_space_group_symop_operation_xyz
x,y,z
1/2-x,1/2-y,1/2+z
1/2+x,1/2-y,-z
-x,y,1/2-z
-x,-y,-z
1/2+x,1/2+y,1/2-z
1/2-x,1/2+y,z
x,-y,1/2+z
loop_
_atom_site_type_symbol
_atom_site_label
_atom_site_fract_x
_atom_site_fract_y
_atom_site_fract_z
Si Si1 0.530057 0.412871 0.946150
Si Si2 0.743429 0.346433 0.174506
Si Si3 0.034042 0.144185 0.886631
Si Si4 0.336693 0.087007 0.278945
Si Si5 0.045478 0.620981 0.161015
Si Si6 0.650438 0.765423 0.507526
Si Si7 0.601294 0.023349 0.465637
Si Si8 0.150708 0.722107 0.938559
O O1 0.521210 0.514849 0.896128
O O2 0.446269 0.307186 0.939101
O O3 0.500000 0.500000 0.000000
O O4 0.633457 0.347504 0.962100
O O5 0.640411 0.380183 0.142307
O O6 0.722686 0.212796 0.204186
O O7 0.774038 0.462302 0.213776
O O8 0.828282 0.334127 0.124783
O O9 0.064464 0.226623 0.944811
O O10 0.966814 0.232805 0.848239
O O11 0.433664 0.080279 0.321419
O O12 0.381719 0.095072 0.214293
O O13 0.082532 0.564705 0.100176
O O14 0.746610 0.790239 0.546872
O O15 0.647220 0.888164 0.469273
O O16 0.649774 0.124487 0.508204
O O17 0.500000 0.000000 0.500000
#
# Coordination Sequence:
#
# PCOD9454450 Si02
#       8
#     8   8   8   8   8   8   8   8
#     4  10  19  34  52  83 125 157 191 239 301 369
#     4  10  21  37  64  91 114 151 209 264 295 361
#     4   9  18  34  59  84 115 152 196 242 301 362
#     4  10  22  41  65  85 115 160 214 253 303 358
#     4  10  21  40  62  84 115 166 199 248 306 376
#     4  10  22  33  53  89 124 160 192 237 303 370
#     4  12  20  37  60  88 126 156 201 245 312 369
#     4  11  23  34  59  91 123 156 200 256 309 368
#
# _framework density 19.129486
#
# number of rings (size 3 to 8) (size 9 to 14) (size 15 to 20)
#    0.000    1.750    2.500    2.250    8.750    0.000 
#    2.250    0.000    0.000    1.500    0.000    0.000 
#    0.000    0.000    0.000    0.000    0.000    0.000 
#
# Total GULP energy -356337.633762 kJ/mol
# GULP energy per Si atom -5567.775528 kJ/mol
# Density = 1.908595 g / cm^3
# Si number density = 19.129486 Si / 1000 Ang^3
#
#
#
# Elastic Constant Matrix: (Units=GPa)
#
#
# Indices 1 2 3 4 5 6 
#
# 1 29.0325 25.0566 31.6604 0.0000 0.0000 0.0000
# 2 25.0566 114.2059 55.8462 0.0000 0.0000 0.0000
# 3 31.6604 55.8462 95.6725 0.0000 0.0000 0.0000
# 4 0.0000 0.0000 0.0000 26.6452 0.0000 0.0000
# 5 0.0000 0.0000 0.0000 0.0000 25.9879 0.0000
# 6 0.0000 0.0000 0.0000 0.0000 0.0000 8.9696
#
#
#
# Elastic Compliance Matrix: (Units=1/GPa)
#
#
# Indices 1 2 3 4 5 6 
#
# 1 0.055477 -0.004470 -0.015749 0.000000 0.000000 0.000000
# 2 -0.004470 0.012614 -0.005884 0.000000 0.000000 0.000000
# 3 -0.015749 -0.005884 0.019099 0.000000 0.000000 0.000000
# 4 0.000000 0.000000 0.000000 0.037530 0.000000 0.000000
# 5 0.000000 0.000000 0.000000 0.000000 0.038479 0.000000
# 6 0.000000 0.000000 0.000000 0.000000 0.000000 0.111487
#
#
# Mechanical properties :
#
#
# Convention : Reuss Voigt Hill
#
# Bulk Modulus (GPa) = 28.58530 51.55972 40.07251
# Shear Modulus (GPa) = 14.76867 20.74374 17.75620
#
# Velocity S-wave (km/s) = 2.78157 3.29657 3.04996
# Velocity P-wave (km/s) = 5.02908 6.44216 5.77897
#
# Compressibility (1/GPa) = 0.03498302
#
# Stress axis : x y z
#
# Youngs Moduli (GPa) = 18.02548 79.27692 52.35961
#
# Poissons Ratio (x) = 0.35438 0.82463
# Poissons Ratio (y) = 0.08058 0.30807
# Poissons Ratio (z) = 0.28389 0.46645
#
# Static dielectric constant tensor:
#      x y z
#    x 1.605480 0.000000 0.000000 
#    y 0.000000 1.363500 0.000000 
#    z 0.000000 0.000000 1.742260 
# 
# From -- ./inp_files/24452.got.cif
#   From: 2010.05.17/outbox.cif.g08.bks.cpg/sg60_13_cif.got.tgz:24452.got - 2010.06.03 14:59:27.
