data_PCOD9454948
_publ_section_title
;
Structure prediction by ZEFSAII (Michael W. Deem and Ramdas Pophale) SiO2 
 PCOD9454948
Probable space group: P B C N
;
_chemical_formula_sum "Si O2"
_cell_formula_units_Z 60
_cell_length_a 8.016030
_cell_length_b 18.312457
_cell_length_c 18.666036
_cell_angle_alpha 90.000000
_cell_angle_beta 90.000000
_cell_angle_gamma 90.000000
_cell_volume 2740.047243
_symmetry_space_group_name_H-M "P B C N"
_symmetry_group_IT_number 60
_symmetry_cell_setting 'orthorhombic'
loop_
_space_group_symop_operation_xyz
x,y,z
1/2-x,1/2-y,1/2+z
1/2+x,1/2-y,-z
-x,y,1/2-z
-x,-y,-z
1/2+x,1/2+y,1/2-z
1/2-x,1/2+y,z
x,-y,1/2+z
loop_
_atom_site_type_symbol
_atom_site_label
_atom_site_fract_x
_atom_site_fract_y
_atom_site_fract_z
Si Si1 0.786858 0.915019 0.990802
Si Si2 0.022409 0.237613 0.642561
Si Si3 0.547410 0.904319 0.876447
Si Si4 0.321122 0.073219 0.508187
Si Si5 0.817869 0.626208 0.827599
Si Si6 0.152378 0.684276 0.881191
Si Si7 0.411891 0.692732 0.486074
Si Si8 0.500000 0.985604 0.250000
O O1 0.734624 0.902460 0.907424
O O2 0.959839 0.872473 0.995344
O O3 0.787296 0.000980 0.005440
O O4 0.683212 0.874419 0.054841
O O5 0.014672 0.324193 0.657218
O O6 0.835930 0.203792 0.649190
O O7 0.165528 0.184443 0.676782
O O8 0.074407 0.237599 0.558773
O O9 0.488241 0.962831 0.818855
O O10 0.474107 0.934572 0.952955
O O11 0.314697 0.086693 0.593808
O O12 0.262101 0.152265 0.480226
O O13 0.003387 0.660914 0.829769
O O14 0.836334 0.563862 0.767255
O O15 0.074048 0.754752 0.919927
#
# Coordination Sequence:
#
# PCOD9454948 Si02
#       8
#     8   8   8   8   8   8   8   4
#     4  11  20  32  61  95 134 171 206 268 337 388
#     4  10  22  39  68 101 133 169 223 278 338 396
#     4  12  21  41  66  93 129 174 224 274 330 405
#     4  11  20  38  65  96 131 168 217 265 342 394
#     4  11  23  44  68  95 132 177 216 278 333 404
#     4  11  20  38  66 100 131 167 217 279 333 400
#     4  10  20  33  62 106 135 156 213 283 334 400
#     4  12  28  44  66  90 134 182 230 268 336 400
#
# _framework density 21.897431999999998
#
# number of rings (size 3 to 8) (size 9 to 14) (size 15 to 20)
#    0.000    1.067    5.333    2.400    3.733    0.000 
#    2.400    0.000    2.933    0.000    0.000    0.000 
#    0.000    0.000    0.000    0.000    0.000    0.000 
#
# Total GULP energy -334090.553168 kJ/mol
# GULP energy per Si atom -5568.175886 kJ/mol
# Density = 2.184759 g / cm^3
# Si number density = 21.897432 Si / 1000 Ang^3
#
#
#
# Elastic Constant Matrix: (Units=GPa)
#
#
# Indices 1 2 3 4 5 6 
#
# 1 71.7840 36.9396 11.5306 0.0000 0.0000 0.0000
# 2 36.9396 142.8339 40.0979 0.0000 0.0000 0.0000
# 3 11.5306 40.0979 73.4171 0.0000 0.0000 0.0000
# 4 0.0000 0.0000 0.0000 43.2439 0.0000 0.0000
# 5 0.0000 0.0000 0.0000 0.0000 8.5301 0.0000
# 6 0.0000 0.0000 0.0000 0.0000 0.0000 24.1031
#
#
#
# Elastic Compliance Matrix: (Units=1/GPa)
#
#
# Indices 1 2 3 4 5 6 
#
# 1 0.016075 -0.004073 -0.000300 0.000000 0.000000 0.000000
# 2 -0.004073 0.009301 -0.004440 0.000000 0.000000 0.000000
# 3 -0.000300 -0.004440 0.016093 0.000000 0.000000 0.000000
# 4 0.000000 0.000000 0.000000 0.023125 0.000000 0.000000
# 5 0.000000 0.000000 0.000000 0.000000 0.117232 0.000000
# 6 0.000000 0.000000 0.000000 0.000000 0.000000 0.041488
#
#
# Mechanical properties :
#
#
# Convention : Reuss Voigt Hill
#
# Bulk Modulus (GPa) = 41.94243 51.68570 46.81406
# Shear Modulus (GPa) = 20.08935 28.47320 24.28128
#
# Velocity S-wave (km/s) = 3.03220 3.60988 3.33357
# Velocity P-wave (km/s) = 5.60844 6.40545 6.02015
#
# Compressibility (1/GPa) = 0.02384220
#
# Stress axis : x y z
#
# Youngs Moduli (GPa) = 62.20906 107.51532 62.13874
#
# Poissons Ratio (x) = 0.43791 0.01865
# Poissons Ratio (y) = 0.25338 0.27591
# Poissons Ratio (z) = 0.01867 0.47739
#
# Static dielectric constant tensor:
#      x y z
#    x 2.022870 0.000000 0.000000 
#    y 0.000000 1.836130 0.000000 
#    z 0.000000 0.000000 1.826760 
# 
# From -- ./inp_files/19561.got.cif
#   From: 2010.05.17/outbox.cif.g08.bks.cpg/sg60_10_cif.got.tgz:19561.got - 2010.06.03 14:59:27.
