data_PCOD9454805
_publ_section_title
;
Structure prediction by ZEFSAII (Michael W. Deem and Ramdas Pophale) SiO2 
 PCOD9454805
Probable space group: P B C N
;
_chemical_formula_sum "Si O2"
_cell_formula_units_Z 56
_cell_length_a 13.646318
_cell_length_b 9.669287
_cell_length_c 19.575568
_cell_angle_alpha 90.000000
_cell_angle_beta 90.000000
_cell_angle_gamma 90.000000
_cell_volume 2582.999432
_symmetry_space_group_name_H-M "P B C N"
_symmetry_group_IT_number 60
_symmetry_cell_setting 'orthorhombic'
loop_
_space_group_symop_operation_xyz
x,y,z
1/2-x,1/2-y,1/2+z
1/2+x,1/2-y,-z
-x,y,1/2-z
-x,-y,-z
1/2+x,1/2+y,1/2-z
1/2-x,1/2+y,z
x,-y,1/2+z
loop_
_atom_site_type_symbol
_atom_site_label
_atom_site_fract_x
_atom_site_fract_y
_atom_site_fract_z
Si Si1 0.025529 0.257793 0.074642
Si Si2 0.165668 0.897266 0.386573
Si Si3 0.668448 0.828073 0.303333
Si Si4 0.472346 0.244809 0.069369
Si Si5 0.161580 0.799015 0.837677
Si Si6 0.684691 0.105422 0.349457
Si Si7 0.658076 0.495309 0.960662
O O1 0.099223 0.318689 0.130290
O O2 0.067748 0.104750 0.058949
O O3 0.920451 0.247104 0.108602
O O4 0.017594 0.321756 0.999244
O O5 0.239708 0.781663 0.358749
O O6 0.190387 0.951914 0.463358
O O7 0.057961 0.830158 0.393503
O O8 0.168706 0.035647 0.341605
O O9 0.629079 0.750977 0.237099
O O10 0.767160 0.746285 0.322661
O O11 0.682451 0.989963 0.291111
O O12 0.420383 0.137916 0.119046
O O13 0.385494 0.350780 0.045530
O O14 0.755956 0.040967 0.407682
#
# Coordination Sequence:
#
# PCOD9454805 Si02
#       7
#     8   8   8   8   8   8   8
#     4  10  21  39  65  93 126 172 216 276 339 394
#     4  11  24  38  68  98 132 176 224 278 335 398
#     4  11  25  41  63  92 132 178 225 270 328 407
#     4  11  20  42  69 101 133 163 224 287 345 397
#     4  12  23  43  61  91 134 184 224 268 325 406
#     4  11  23  41  67  97 131 172 217 281 340 398
#     4  10  19  39  68  99 131 162 217 282 346 397
#
# _framework density 21.680221
#
# number of rings (size 3 to 8) (size 9 to 14) (size 15 to 20)
#    0.000    1.143    4.286    3.000    0.000    2.857 
#    0.000    2.143    0.000    0.000    0.000    0.000 
#    0.000    0.000    0.000    0.000    0.000    0.000 
#
# Total GULP energy -313059.114471 kJ/mol
# GULP energy per Si atom -5590.341330 kJ/mol
# Density = 2.163088 g / cm^3
# Si number density = 21.680221 Si / 1000 Ang^3
#
#
#
# Elastic Constant Matrix: (Units=GPa)
#
#
# Indices 1 2 3 4 5 6 
#
# 1 79.7309 40.1998 27.0846 0.0000 0.0000 0.0000
# 2 40.1998 101.4117 51.6575 0.0000 0.0000 0.0000
# 3 27.0846 51.6575 73.2948 0.0000 0.0000 0.0000
# 4 0.0000 0.0000 0.0000 28.6130 0.0000 0.0000
# 5 0.0000 0.0000 0.0000 0.0000 27.0729 0.0000
# 6 0.0000 0.0000 0.0000 0.0000 0.0000 17.1262
#
#
#
# Elastic Compliance Matrix: (Units=1/GPa)
#
#
# Indices 1 2 3 4 5 6 
#
# 1 0.015907 -0.005166 -0.002237 0.000000 0.000000 0.000000
# 2 -0.005166 0.017061 -0.010116 0.000000 0.000000 0.000000
# 3 -0.002237 -0.010116 0.021600 0.000000 0.000000 0.000000
# 4 0.000000 0.000000 0.000000 0.034949 0.000000 0.000000
# 5 0.000000 0.000000 0.000000 0.000000 0.036937 0.000000
# 6 0.000000 0.000000 0.000000 0.000000 0.000000 0.058390
#
#
# Mechanical properties :
#
#
# Convention : Reuss Voigt Hill
#
# Bulk Modulus (GPa) = 51.20259 54.70235 52.95247
# Shear Modulus (GPa) = 22.08560 23.59546 22.84053
#
# Velocity S-wave (km/s) = 3.19517 3.30258 3.24932
# Velocity P-wave (km/s) = 6.10578 6.31102 6.20925
#
# Compressibility (1/GPa) = 0.01953026
#
# Stress axis : x y z
#
# Youngs Moduli (GPa) = 62.86635 58.61197 46.29701
#
# Poissons Ratio (x) = 0.30278 0.10357
# Poissons Ratio (y) = 0.32476 0.46833
# Poissons Ratio (z) = 0.14064 0.59290
#
# Static dielectric constant tensor:
#      x y z
#    x 1.774330 0.000000 0.000000 
#    y 0.000000 1.797820 0.000000 
#    z 0.000000 0.000000 1.805310 
# 
# From -- ./inp_files/22902.got.cif
#   From: 2010.05.17/outbox.cif.g08.bks.cpg/sg60_12_cif.got.tgz:22902.got - 2010.06.03 14:59:27.
