data_PCOD9454104
_publ_section_title
;
Structure prediction by ZEFSAII (Michael W. Deem and Ramdas Pophale) SiO2 
 PCOD9454104
Probable space group: P B C N
;
_chemical_formula_sum "Si O2"
_cell_formula_units_Z 44
_cell_length_a 7.887908
_cell_length_b 18.981781
_cell_length_c 12.900869
_cell_angle_alpha 90.000000
_cell_angle_beta 90.000000
_cell_angle_gamma 90.000000
_cell_volume 1931.602507
_symmetry_space_group_name_H-M "P B C N"
_symmetry_group_IT_number 60
_symmetry_cell_setting 'orthorhombic'
loop_
_space_group_symop_operation_xyz
x,y,z
1/2-x,1/2-y,1/2+z
1/2+x,1/2-y,-z
-x,y,1/2-z
-x,-y,-z
1/2+x,1/2+y,1/2-z
1/2-x,1/2+y,z
x,-y,1/2+z
loop_
_atom_site_type_symbol
_atom_site_label
_atom_site_fract_x
_atom_site_fract_y
_atom_site_fract_z
Si Si1 0.947774 0.117928 0.467944
Si Si2 0.746100 0.819311 0.796477
Si Si3 0.279285 0.498979 0.921785
Si Si4 0.803381 0.828272 0.392760
Si Si5 0.500000 0.562119 0.750000
Si Si6 0.409228 0.870206 0.911966
O O1 0.900225 0.143729 0.355179
O O2 0.097967 0.060219 0.471948
O O3 0.025710 0.181631 0.535930
O O4 0.793313 0.073006 0.518220
O O5 0.747361 0.736215 0.819453
O O6 0.586013 0.845319 0.865569
O O7 0.717731 0.840402 0.677810
O O8 0.372065 0.515132 0.814992
O O9 0.107322 0.455550 0.910655
O O10 0.875416 0.889816 0.319051
O O11 0.651928 0.843886 0.474753
#
# Coordination Sequence:
#
# PCOD9454104 Si02
#       6
#     8   8   8   8   4   8
#     4   9  19  35  59  80 108 146 187 235 269 332
#     4  11  21  36  56  80 114 150 176 225 293 330
#     4   9  18  35  56  83 105 142 194 226 276 326
#     4  10  21  37  57  83 109 145 193 227 272 338
#     4  10  18  34  62  78 104 146 186 234 268 328
#     4  10  22  35  53  82 114 142 183 235 278 340
#
# _framework density 22.779014
#
# number of rings (size 3 to 8) (size 9 to 14) (size 15 to 20)
#    0.000    2.182    0.000    4.364    0.000    4.364 
#    0.000    1.818    0.000    7.636    0.000    0.000 
#    0.000    0.000    0.000    0.000    0.000    0.000 
#
# Total GULP energy -245237.592877 kJ/mol
# GULP energy per Si atom -5573.581656 kJ/mol
# Density = 2.272717 g / cm^3
# Si number density = 22.779014 Si / 1000 Ang^3
#
#
#
# Elastic Constant Matrix: (Units=GPa)
#
#
# Indices 1 2 3 4 5 6 
#
# 1 40.3918 4.4752 -4.1761 0.0000 0.0000 0.0000
# 2 4.4752 56.9417 19.1649 0.0000 0.0000 0.0000
# 3 -4.1761 19.1649 96.7550 0.0000 0.0000 0.0000
# 4 0.0000 0.0000 0.0000 22.8011 0.0000 0.0000
# 5 0.0000 0.0000 0.0000 0.0000 38.0077 0.0000
# 6 0.0000 0.0000 0.0000 0.0000 0.0000 18.3072
#
#
#
# Elastic Compliance Matrix: (Units=1/GPa)
#
#
# Indices 1 2 3 4 5 6 
#
# 1 0.025200 -0.002514 0.001586 0.000000 0.000000 0.000000
# 2 -0.002514 0.019067 -0.003885 0.000000 0.000000 0.000000
# 3 0.001586 -0.003885 0.011173 0.000000 0.000000 0.000000
# 4 0.000000 0.000000 0.000000 0.043858 0.000000 0.000000
# 5 0.000000 0.000000 0.000000 0.000000 0.026310 0.000000
# 6 0.000000 0.000000 0.000000 0.000000 0.000000 0.054623
#
#
# Mechanical properties :
#
#
# Convention : Reuss Voigt Hill
#
# Bulk Modulus (GPa) = 21.82791 25.89071 23.85931
# Shear Modulus (GPa) = 24.37474 27.46484 25.91979
#
# Velocity S-wave (km/s) = 3.27471 3.47610 3.37691
# Velocity P-wave (km/s) = 4.88893 5.24421 5.06968
#
# Compressibility (1/GPa) = 0.04581290
#
# Stress axis : x y z
#
# Youngs Moduli (GPa) = 39.68252 52.44636 89.49821
#
# Poissons Ratio (x) = 0.13186 -0.14192
# Poissons Ratio (y) = 0.09977 0.34772
# Poissons Ratio (z) = -0.06292 0.20377
#
# Static dielectric constant tensor:
#      x y z
#    x 1.967980 0.000000 0.000000 
#    y 0.000000 1.910210 0.000000 
#    z 0.000000 0.000000 1.868370 
# 
# From -- ./inp_files/14933.got.cif
#   From: 2010.05.17/outbox.cif.g08.bks.cpg/sg60_8_cif.got.tgz:14933.got - 2010.06.03 14:59:27.
