data_PCOD9454712
_publ_section_title
;
Structure prediction by ZEFSAII (Michael W. Deem and Ramdas Pophale) SiO2 
 PCOD9454712
Probable space group: P B C N
;
_chemical_formula_sum "Si O2"
_cell_formula_units_Z 44
_cell_length_a 10.212631
_cell_length_b 16.281333
_cell_length_c 10.078875
_cell_angle_alpha 90.000000
_cell_angle_beta 90.000000
_cell_angle_gamma 90.000000
_cell_volume 1675.867421
_symmetry_space_group_name_H-M "P B C N"
_symmetry_group_IT_number 60
_symmetry_cell_setting 'orthorhombic'
loop_
_space_group_symop_operation_xyz
x,y,z
1/2-x,1/2-y,1/2+z
1/2+x,1/2-y,-z
-x,y,1/2-z
-x,-y,-z
1/2+x,1/2+y,1/2-z
1/2-x,1/2+y,z
x,-y,1/2+z
loop_
_atom_site_type_symbol
_atom_site_label
_atom_site_fract_x
_atom_site_fract_y
_atom_site_fract_z
Si Si1 0.705964 0.435115 0.716853
Si Si2 0.783156 0.748684 0.778515
Si Si3 0.411573 0.732603 0.943991
Si Si4 0.000000 0.503800 0.250000
Si Si5 0.421520 0.867701 0.426413
Si Si6 0.355816 0.556588 0.004569
O O1 0.675374 0.339364 0.731187
O O2 0.864280 0.448503 0.724385
O O3 0.644045 0.480880 0.593578
O O4 0.641872 0.474540 0.846660
O O5 0.805945 0.744419 0.936487
O O6 0.645642 0.736349 0.703970
O O7 0.871588 0.682448 0.702290
O O8 0.516505 0.802775 0.973335
O O9 0.442854 0.637060 0.972905
O O10 0.987645 0.442030 0.376069
O O11 0.291282 0.906673 0.486918
#
# Coordination Sequence:
#
# PCOD9454712 Si02
#       6
#     8   8   8   4   8   8
#     4  10  22  35  55  86 121 143 190 243 295 343
#     4  10  21  36  56  86 116 154 193 243 287 347
#     4  10  20  37  59  82 113 155 201 234 288 356
#     4  10  20  32  60  84 112 150 192 230 302 334
#     4  10  19  37  62  81 113 161 198 230 291 355
#     4   9  22  37  55  90 114 153 191 240 297 342
#
# _framework density 26.25506
#
# number of rings (size 3 to 8) (size 9 to 14) (size 15 to 20)
#    0.000    2.182    1.818    0.000    5.091    1.455 
#    0.000    0.909    0.000    0.000    0.000    0.000 
#    0.000    0.000    0.000    0.000    0.000    0.000 
#
# Total GULP energy -246223.027368 kJ/mol
# GULP energy per Si atom -5595.977895 kJ/mol
# Density = 2.619530 g / cm^3
# Si number density = 26.255060 Si / 1000 Ang^3
#
#
#
# Elastic Constant Matrix: (Units=GPa)
#
#
# Indices 1 2 3 4 5 6 
#
# 1 94.8697 18.4655 4.2267 0.0000 0.0000 0.0000
# 2 18.4655 66.5004 32.2771 0.0000 0.0000 0.0000
# 3 4.2267 32.2771 106.7123 0.0000 0.0000 0.0000
# 4 0.0000 0.0000 0.0000 -20.4226 0.0000 0.0000
# 5 0.0000 0.0000 0.0000 0.0000 20.8981 0.0000
# 6 0.0000 0.0000 0.0000 0.0000 0.0000 14.6653
#
#
#
# Elastic Compliance Matrix: (Units=1/GPa)
#
#
# Indices 1 2 3 4 5 6 
#
# 1 0.011174 -0.003385 0.000581 0.000000 0.000000 0.000000
# 2 -0.003385 0.018650 -0.005507 0.000000 0.000000 0.000000
# 3 0.000581 -0.005507 0.011014 0.000000 0.000000 0.000000
# 4 0.000000 0.000000 0.000000 -0.048965 0.000000 0.000000
# 5 0.000000 0.000000 0.000000 0.000000 0.047851 0.000000
# 6 0.000000 0.000000 0.000000 0.000000 0.000000 0.068188
#
#
# Mechanical properties :
#
#
# Convention : Reuss Voigt Hill
#
# Bulk Modulus (GPa) = 41.29422 42.00234 41.64828
# Shear Modulus (GPa) = 37.70597 17.23571 27.47084
#
# Velocity S-wave (km/s) = 3.79376 2.56495 3.23818
# Velocity P-wave (km/s) = 5.91205 4.98041 5.46612
#
# Compressibility (1/GPa) = 0.02421646
#
# Stress axis : x y z
#
# Youngs Moduli (GPa) = 89.49599 53.61838 90.79614
#
# Poissons Ratio (x) = 0.18149 -0.05277
# Poissons Ratio (y) = 0.30292 0.50002
# Poissons Ratio (z) = -0.05202 0.29528
#
# Static dielectric constant tensor:
#      x y z
#    x 2.182210 0.000000 0.000000 
#    y 0.000000 2.002190 0.000000 
#    z 0.000000 0.000000 2.077670 
# 
# From -- ./inp_files/11818.got.cif
#   From: 2010.05.17/outbox.cif.g08.bks.cpg/sg60_6_cif.got.tgz:11818.got - 2010.06.03 14:59:27.
