data_PCOD9454125
_publ_section_title
;
Structure prediction by ZEFSAII (Michael W. Deem and Ramdas Pophale) SiO2 
 PCOD9454125
Probable space group: P B C N
;
_chemical_formula_sum "Si O2"
_cell_formula_units_Z 48
_cell_length_a 9.383698
_cell_length_b 15.069945
_cell_length_c 17.109860
_cell_angle_alpha 90.000000
_cell_angle_beta 90.000000
_cell_angle_gamma 90.000000
_cell_volume 2419.536319
_symmetry_space_group_name_H-M "P B C N"
_symmetry_group_IT_number 60
_symmetry_cell_setting 'orthorhombic'
loop_
_space_group_symop_operation_xyz
x,y,z
1/2-x,1/2-y,1/2+z
1/2+x,1/2-y,-z
-x,y,1/2-z
-x,-y,-z
1/2+x,1/2+y,1/2-z
1/2-x,1/2+y,z
x,-y,1/2+z
loop_
_atom_site_type_symbol
_atom_site_label
_atom_site_fract_x
_atom_site_fract_y
_atom_site_fract_z
Si Si1 0.850184 0.361314 0.182019
Si Si2 0.615796 0.551530 0.602107
Si Si3 0.307360 0.451698 0.041131
Si Si4 0.000000 0.052904 0.250000
Si Si5 0.000000 0.531637 0.250000
Si Si6 0.746045 0.882078 0.848459
Si Si7 0.155498 0.693812 0.641447
O O1 0.720896 0.368764 0.122582
O O2 0.909580 0.461735 0.197330
O O3 0.802491 0.330960 0.268710
O O4 0.983336 0.305194 0.149280
O O5 0.695773 0.478021 0.549365
O O6 0.470048 0.577651 0.558717
O O7 0.565886 0.508384 0.683004
O O8 0.277950 0.543626 0.086894
O O9 0.202247 0.381273 0.080161
O O10 0.125762 0.110190 0.213867
O O11 0.897595 0.590619 0.303761
O O12 0.763841 0.783609 0.880586
#
# Coordination Sequence:
#
# PCOD9454125 Si02
#       7
#     8   8   8   4   4   8   8
#     4  10  18  38  58  86 108 153 203 238 286 354
#     4  10  20  35  64  79 114 157 195 242 299 355
#     4  10  21  38  56  84 118 154 192 240 308 353
#     4  10  18  35  61  86 106 154 206 233 293 346
#     4  10  18  35  59  84 112 148 198 241 283 350
#     4  11  20  37  58  86 119 153 191 247 293 351
#     4  10  21  36  59  84 119 150 194 246 290 349
#
# _framework density 19.838512000000001
#
# number of rings (size 3 to 8) (size 9 to 14) (size 15 to 20)
#    0.000    2.000    5.000    2.000    0.000    2.000 
#    0.000    6.667    0.000    0.000    0.000    0.000 
#    0.000    0.000    0.000    0.000    0.000    0.000 
#
# Total GULP energy -267744.199489 kJ/mol
# GULP energy per Si atom -5578.004156 kJ/mol
# Density = 1.979336 g / cm^3
# Si number density = 19.838512 Si / 1000 Ang^3
#
#
#
# Elastic Constant Matrix: (Units=GPa)
#
#
# Indices 1 2 3 4 5 6 
#
# 1 62.8366 17.9993 20.5581 0.0000 0.0000 0.0000
# 2 17.9993 82.2679 13.1823 0.0000 0.0000 0.0000
# 3 20.5581 13.1823 55.9826 0.0000 0.0000 0.0000
# 4 0.0000 0.0000 0.0000 10.8140 0.0000 0.0000
# 5 0.0000 0.0000 0.0000 0.0000 24.9850 0.0000
# 6 0.0000 0.0000 0.0000 0.0000 0.0000 -20.9936
#
#
#
# Elastic Compliance Matrix: (Units=1/GPa)
#
#
# Indices 1 2 3 4 5 6 
#
# 1 0.018832 -0.003130 -0.006179 0.000000 0.000000 0.000000
# 2 -0.003130 0.013152 -0.001947 0.000000 0.000000 0.000000
# 3 -0.006179 -0.001947 0.020590 0.000000 0.000000 0.000000
# 4 0.000000 0.000000 0.000000 0.092472 0.000000 0.000000
# 5 0.000000 0.000000 0.000000 0.000000 0.040024 0.000000
# 6 0.000000 0.000000 0.000000 0.000000 0.000000 -0.047634
#
#
# Mechanical properties :
#
#
# Convention : Reuss Voigt Hill
#
# Bulk Modulus (GPa) = 33.26440 33.84075 33.55257
# Shear Modulus (GPa) = 29.41676 12.91758 21.16717
#
# Velocity S-wave (km/s) = 3.85491 2.55451 3.27000
# Velocity P-wave (km/s) = 6.05126 5.07896 5.58630
#
# Compressibility (1/GPa) = 0.03006216
#
# Stress axis : x y z
#
# Youngs Moduli (GPa) = 53.10005 76.03211 48.56684
#
# Poissons Ratio (x) = 0.23800 0.30007
# Poissons Ratio (y) = 0.16622 0.09458
# Poissons Ratio (z) = 0.32808 0.14807
#
# Static dielectric constant tensor:
#      x y z
#    x 1.736650 0.000000 0.000000 
#    y 0.000000 1.716270 0.000000 
#    z 0.000000 0.000000 1.714010 
# 
# From -- ./inp_files/22090.got.cif
#   From: 2010.05.17/outbox.cif.g08.bks.cpg/sg60_12_cif.got.tgz:22090.got - 2010.06.03 14:59:27.
