data_PCOD9454966
_publ_section_title
;
Structure prediction by ZEFSAII (Michael W. Deem and Ramdas Pophale) SiO2 
 PCOD9454966
Probable space group: P B C N
;
_chemical_formula_sum "Si O2"
_cell_formula_units_Z 48
_cell_length_a 16.808054
_cell_length_b 23.132294
_cell_length_c 4.956843
_cell_angle_alpha 90.000000
_cell_angle_beta 90.000000
_cell_angle_gamma 90.000000
_cell_volume 1927.264410
_symmetry_space_group_name_H-M "P B C N"
_symmetry_group_IT_number 60
_symmetry_cell_setting 'orthorhombic'
loop_
_space_group_symop_operation_xyz
x,y,z
1/2-x,1/2-y,1/2+z
1/2+x,1/2-y,-z
-x,y,1/2-z
-x,-y,-z
1/2+x,1/2+y,1/2-z
1/2-x,1/2+y,z
x,-y,1/2+z
loop_
_atom_site_type_symbol
_atom_site_label
_atom_site_fract_x
_atom_site_fract_y
_atom_site_fract_z
Si Si1 0.115176 0.843908 0.800345
Si Si2 0.752531 0.537071 0.864323
Si Si3 0.917090 0.087120 0.707948
Si Si4 0.915014 0.541280 0.697777
Si Si5 0.053248 0.273873 0.015942
Si Si6 0.271604 0.211675 0.423689
O O1 0.092802 0.894882 0.599593
O O2 0.083803 0.785560 0.660137
O O3 0.209899 0.837134 0.833012
O O4 0.078088 0.857293 0.090991
O O5 0.758081 0.480088 0.674685
O O6 0.665237 0.559709 0.800622
O O7 0.831224 0.571891 0.768102
O O8 0.000000 0.054291 0.750000
O O9 0.915211 0.514200 0.400756
O O10 0.000000 0.570621 0.750000
O O11 0.136236 0.304077 0.937963
O O12 0.000000 0.266623 0.750000
O O13 0.000000 0.301735 0.250000
O O14 0.239879 0.236313 0.708320
#
# Coordination Sequence:
#
# PCOD9454966 Si02
#       6
#     8   8   8   8   8   8
#     4  11  22  37  54  78 110 142 186 233 270 318
#     4  10  21  37  55  78 108 140 179 227 277 331
#     4  12  24  36  55  79 107 147 187 229 282 328
#     4   8  14  27  50  76  96 118 155 206 258 309
#     4  11  20  33  56  84 111 140 182 230 275 325
#     4  10  20  34  54  79 107 142 177 219 275 327
#
# _framework density 24.905768999999999
#
# number of rings (size 3 to 8) (size 9 to 14) (size 15 to 20)
#    0.000    1.667    0.000    8.000    0.000    0.667 
#    0.000    0.000    0.000    3.000    0.000    0.000 
#    0.000    0.000    0.000    0.000    0.000    0.000 
#
# Total GULP energy -268393.312591 kJ/mol
# GULP energy per Si atom -5591.527346 kJ/mol
# Density = 2.484908 g / cm^3
# Si number density = 24.905769 Si / 1000 Ang^3
#
#
#
# Elastic Constant Matrix: (Units=GPa)
#
#
# Indices 1 2 3 4 5 6 
#
# 1 294.1976 27.9188 48.1365 0.0000 0.0000 0.0000
# 2 27.9188 30.5552 11.7590 0.0000 0.0000 0.0000
# 3 48.1365 11.7590 129.7177 0.0000 0.0000 0.0000
# 4 0.0000 0.0000 0.0000 7.4691 0.0000 0.0000
# 5 0.0000 0.0000 0.0000 0.0000 51.1715 0.0000
# 6 0.0000 0.0000 0.0000 0.0000 0.0000 18.3433
#
#
#
# Elastic Compliance Matrix: (Units=1/GPa)
#
#
# Indices 1 2 3 4 5 6 
#
# 1 0.003883 -0.003102 -0.001160 0.000000 0.000000 0.000000
# 2 -0.003102 0.036388 -0.002148 0.000000 0.000000 0.000000
# 3 -0.001160 -0.002148 0.008334 0.000000 0.000000 0.000000
# 4 0.000000 0.000000 0.000000 0.133884 0.000000 0.000000
# 5 0.000000 0.000000 0.000000 0.000000 0.019542 0.000000
# 6 0.000000 0.000000 0.000000 0.000000 0.000000 0.054516
#
#
# Mechanical properties :
#
#
# Convention : Reuss Voigt Hill
#
# Bulk Modulus (GPa) = 27.94294 70.01100 48.97697
# Shear Modulus (GPa) = 17.77492 39.84054 28.80773
#
# Velocity S-wave (km/s) = 2.67439 4.00390 3.40467
# Velocity P-wave (km/s) = 4.55854 7.03892 5.92987
#
# Compressibility (1/GPa) = 0.03578721
#
# Stress axis : x y z
#
# Youngs Moduli (GPa) = 257.51951 27.48136 119.98860
#
# Poissons Ratio (x) = 0.08524 0.13917
# Poissons Ratio (y) = 0.79877 0.25769
# Poissons Ratio (z) = 0.29868 0.05902
#
# Static dielectric constant tensor:
#      x y z
#    x 2.070880 0.000000 0.000000 
#    y 0.000000 1.987490 0.000000 
#    z 0.000000 0.000000 1.892750 
# 
# From -- ./inp_files/1425.got.cif
#   From: 2010.05.17/outbox.cif.g08.bks.cpg/sg60_1_cif.got.tgz:1425.got - 2010.06.03 14:59:27.
