data_PCOD9454269
_publ_section_title
;
Structure prediction by ZEFSAII (Michael W. Deem and Ramdas Pophale) SiO2 
 PCOD9454269
Probable space group: P B C N
;
_chemical_formula_sum "Si O2"
_cell_formula_units_Z 64
_cell_length_a 27.027673
_cell_length_b 17.623125
_cell_length_c 8.448396
_cell_angle_alpha 90.000000
_cell_angle_beta 90.000000
_cell_angle_gamma 90.000000
_cell_volume 4024.072900
_symmetry_space_group_name_H-M "P B C N"
_symmetry_group_IT_number 60
_symmetry_cell_setting 'orthorhombic'
loop_
_space_group_symop_operation_xyz
x,y,z
1/2-x,1/2-y,1/2+z
1/2+x,1/2-y,-z
-x,y,1/2-z
-x,-y,-z
1/2+x,1/2+y,1/2-z
1/2-x,1/2+y,z
x,-y,1/2+z
loop_
_atom_site_type_symbol
_atom_site_label
_atom_site_fract_x
_atom_site_fract_y
_atom_site_fract_z
Si Si1 0.301349 0.171601 0.543473
Si Si2 0.767659 0.890471 0.983838
Si Si3 0.635963 0.296902 0.068845
Si Si4 0.214841 0.255216 0.387270
Si Si5 0.561285 0.568178 0.090195
Si Si6 0.741577 0.456494 0.332302
Si Si7 0.553213 0.403256 0.956120
Si Si8 0.349672 0.351498 0.075798
O O1 0.352141 0.210893 0.486326
O O2 0.261822 0.200464 0.413549
O O3 0.288932 0.084146 0.583703
O O4 0.288385 0.211940 0.711766
O O5 0.821069 0.849289 0.986961
O O6 0.726718 0.824974 0.995021
O O7 0.761483 0.953841 0.852669
O O8 0.761230 0.935379 0.148670
O O9 0.583192 0.331576 0.021544
O O10 0.644492 0.310178 0.255452
O O11 0.167979 0.208595 0.444808
O O12 0.506406 0.598488 0.048162
O O13 0.569825 0.582995 0.275260
O O14 0.564849 0.478248 0.058376
O O15 0.600804 0.608942 0.980645
O O16 0.693435 0.414569 0.405805
#
# Coordination Sequence:
#
# PCOD9454269 Si02
#       8
#     8   8   8   8   8   8   8   8
#     4   9  17  29  42  59  83 110 141 176 212 251
#     4   9  18  28  40  60  84 110 140 172 207 248
#     4  10  19  30  44  62  83 112 147 178 213 253
#     4   9  17  29  42  59  83 110 141 176 212 251
#     4  10  20  32  45  62  85 113 144 179 216 251
#     4   9  18  28  40  60  84 110 140 172 207 248
#     4  10  20  32  45  62  85 113 144 179 216 251
#     4  10  19  30  44  62  83 112 147 178 213 253
#
# _framework density 15.904285
#
# number of rings (size 3 to 8) (size 9 to 14) (size 15 to 20)
#    0.000    2.500    0.000    4.500    0.000    9.500 
#    0.000    0.000    0.000    0.000    0.000    0.000 
#    0.000    1.000    0.000    3.250    0.000    4.000 
#
# Total GULP energy -356751.254601 kJ/mol
# GULP energy per Si atom -5574.238353 kJ/mol
# Density = 1.586809 g / cm^3
# Si number density = 15.904285 Si / 1000 Ang^3
#
#
#
# Elastic Constant Matrix: (Units=GPa)
#
#
# Indices 1 2 3 4 5 6 
#
# 1 34.6787 2.7148 13.3991 0.0000 0.0000 0.0000
# 2 2.7148 24.2129 4.7352 0.0000 0.0000 0.0000
# 3 13.3991 4.7352 33.2775 0.0000 0.0000 0.0000
# 4 0.0000 0.0000 0.0000 23.0879 0.0000 0.0000
# 5 0.0000 0.0000 0.0000 0.0000 16.6980 0.0000
# 6 0.0000 0.0000 0.0000 0.0000 0.0000 23.9292
#
#
#
# Elastic Compliance Matrix: (Units=1/GPa)
#
#
# Indices 1 2 3 4 5 6 
#
# 1 0.034181 -0.001174 -0.013596 0.000000 0.000000 0.000000
# 2 -0.001174 0.042523 -0.005578 0.000000 0.000000 0.000000
# 3 -0.013596 -0.005578 0.036318 0.000000 0.000000 0.000000
# 4 0.000000 0.000000 0.000000 0.043313 0.000000 0.000000
# 5 0.000000 0.000000 0.000000 0.000000 0.059887 0.000000
# 6 0.000000 0.000000 0.000000 0.000000 0.000000 0.041790
#
#
# Mechanical properties :
#
#
# Convention : Reuss Voigt Hill
#
# Bulk Modulus (GPa) = 13.82612 14.87414 14.35013
# Shear Modulus (GPa) = 15.48864 17.49767 16.49316
#
# Velocity S-wave (km/s) = 3.12407 3.32050 3.22378
# Velocity P-wave (km/s) = 4.66104 4.90648 4.78533
#
# Compressibility (1/GPa) = 0.07232688
#
# Stress axis : x y z
#
# Youngs Moduli (GPa) = 29.25582 23.51683 27.53419
#
# Poissons Ratio (x) = 0.02760 0.37435
# Poissons Ratio (y) = 0.03434 0.15359
# Poissons Ratio (z) = 0.39776 0.13118
#
# Static dielectric constant tensor:
#      x y z
#    x 1.527130 0.000000 0.000000 
#    y 0.000000 1.552240 0.000000 
#    z 0.000000 0.000000 1.564540 
# 
# From -- ./inp_files/8028.got.cif
#   From: 2010.05.17/outbox.cif.g08.bks.cpg/sg60_5_cif.got.tgz:8028.got - 2010.06.03 14:59:27.
