data_PCOD9454812
_publ_section_title
;
Structure prediction by ZEFSAII (Michael W. Deem and Ramdas Pophale) SiO2 
 PCOD9454812
Probable space group: P B C N
;
_chemical_formula_sum "Si O2"
_cell_formula_units_Z 48
_cell_length_a 10.447737
_cell_length_b 15.458553
_cell_length_c 16.094868
_cell_angle_alpha 90.000000
_cell_angle_beta 90.000000
_cell_angle_gamma 90.000000
_cell_volume 2599.432175
_symmetry_space_group_name_H-M "P B C N"
_symmetry_group_IT_number 60
_symmetry_cell_setting 'orthorhombic'
loop_
_space_group_symop_operation_xyz
x,y,z
1/2-x,1/2-y,1/2+z
1/2+x,1/2-y,-z
-x,y,1/2-z
-x,-y,-z
1/2+x,1/2+y,1/2-z
1/2-x,1/2+y,z
x,-y,1/2+z
loop_
_atom_site_type_symbol
_atom_site_label
_atom_site_fract_x
_atom_site_fract_y
_atom_site_fract_z
Si Si1 0.793016 0.874532 0.715723
Si Si2 0.000000 0.268178 0.250000
Si Si3 0.830991 0.360459 0.381420
Si Si4 0.953753 0.809967 0.340001
Si Si5 0.593753 0.840983 0.571857
Si Si6 0.594648 0.046434 0.328008
Si Si7 0.500000 0.520999 0.750000
O O1 0.712385 0.864592 0.631798
O O2 0.692265 0.883564 0.790612
O O3 0.884738 0.792993 0.721963
O O4 0.881857 0.959241 0.726730
O O5 0.945431 0.323225 0.325494
O O6 0.697474 0.313847 0.357853
O O7 0.863624 0.346954 0.477373
O O8 0.830547 0.461996 0.358466
O O9 0.000000 0.773026 0.250000
O O10 0.033271 0.752843 0.405077
O O11 0.985904 0.911889 0.326948
O O12 0.486247 0.910775 0.598353
O O13 0.500000 0.025180 0.250000
#
# Coordination Sequence:
#
# PCOD9454812 Si02
#       7
#     8   4   8   8   8   8   4
#     4  10  21  42  64  91 119 166 212 249 311 374
#     4  11  24  38  61  90 120 162 207 256 306 383
#     4  12  23  39  63  92 126 164 208 261 314 369
#     4  10  21  43  65  90 121 173 204 247 320 378
#     4  11  24  37  62  94 129 156 207 265 310 368
#     4  10  19  40  62  87 123 168 205 250 306 374
#     4   9  20  40  71  84 120 166 215 250 302 389
#
# _framework density 18.465571000000001
#
# number of rings (size 3 to 8) (size 9 to 14) (size 15 to 20)
#    0.500    1.000    2.500    4.000    2.333    0.000 
#    0.000    4.167    0.000    0.000    0.000    0.000 
#    0.000    0.000    0.000    0.000    0.000    0.000 
#
# Total GULP energy -267597.052771 kJ/mol
# GULP energy per Si atom -5574.938599 kJ/mol
# Density = 1.842354 g / cm^3
# Si number density = 18.465571 Si / 1000 Ang^3
#
#
#
# Elastic Constant Matrix: (Units=GPa)
#
#
# Indices 1 2 3 4 5 6 
#
# 1 121.3184 48.0285 71.2304 0.0000 0.0000 0.0000
# 2 48.0285 102.4451 48.1924 0.0000 0.0000 0.0000
# 3 71.2304 48.1924 135.0074 0.0000 0.0000 0.0000
# 4 0.0000 0.0000 0.0000 -6.0825 0.0000 0.0000
# 5 0.0000 0.0000 0.0000 0.0000 21.5308 0.0000
# 6 0.0000 0.0000 0.0000 0.0000 0.0000 2.2882
#
#
#
# Elastic Compliance Matrix: (Units=1/GPa)
#
#
# Indices 1 2 3 4 5 6 
#
# 1 0.012863 -0.003411 -0.005569 0.000000 0.000000 0.000000
# 2 -0.003411 0.012636 -0.002711 0.000000 0.000000 0.000000
# 3 -0.005569 -0.002711 0.011313 0.000000 0.000000 0.000000
# 4 0.000000 0.000000 0.000000 -0.164407 0.000000 0.000000
# 5 0.000000 0.000000 0.000000 0.000000 0.046445 0.000000
# 6 0.000000 0.000000 0.000000 0.000000 0.000000 0.437016
#
#
# Mechanical properties :
#
#
# Convention : Reuss Voigt Hill
#
# Bulk Modulus (GPa) = 74.45918 77.07484 75.76701
# Shear Modulus (GPa) = 13.03021 16.30195 14.66608
#
# Velocity S-wave (km/s) = 2.65929 2.97447 2.82128
# Velocity P-wave (km/s) = 7.05974 7.32304 7.19259
#
# Compressibility (1/GPa) = 0.01343018
#
# Stress axis : x y z
#
# Youngs Moduli (GPa) = 77.74406 79.14165 88.39435
#
# Poissons Ratio (x) = 0.26992 0.49227
# Poissons Ratio (y) = 0.26515 0.23964
# Poissons Ratio (z) = 0.43296 0.21455
#
# Static dielectric constant tensor:
#      x y z
#    x 1.644850 0.000000 0.000000 
#    y 0.000000 1.651940 0.000000 
#    z 0.000000 0.000000 1.596260 
# 
# From -- ./inp_files/16120.got.cif
#   From: 2010.05.17/outbox.cif.g08.bks.cpg/sg60_9_cif.got.tgz:16120.got - 2010.06.03 14:59:27.
