data_PCOD9454155
_publ_section_title
;
Structure prediction by ZEFSAII (Michael W. Deem and Ramdas Pophale) SiO2 
 PCOD9454155
Probable space group: P B C N
;
_chemical_formula_sum "Si O2"
_cell_formula_units_Z 48
_cell_length_a 15.854961
_cell_length_b 8.856306
_cell_length_c 18.952343
_cell_angle_alpha 90.000000
_cell_angle_beta 90.000000
_cell_angle_gamma 90.000000
_cell_volume 2661.219515
_symmetry_space_group_name_H-M "P B C N"
_symmetry_group_IT_number 60
_symmetry_cell_setting 'orthorhombic'
loop_
_space_group_symop_operation_xyz
x,y,z
1/2-x,1/2-y,1/2+z
1/2+x,1/2-y,-z
-x,y,1/2-z
-x,-y,-z
1/2+x,1/2+y,1/2-z
1/2-x,1/2+y,z
x,-y,1/2+z
loop_
_atom_site_type_symbol
_atom_site_label
_atom_site_fract_x
_atom_site_fract_y
_atom_site_fract_z
Si Si1 0.557609 0.862996 0.916232
Si Si2 0.304887 0.867897 0.835416
Si Si3 0.105030 0.567069 0.935192
Si Si4 0.459660 0.638819 0.826170
Si Si5 0.592285 0.956950 0.279688
Si Si6 0.609216 0.304653 0.685637
O O1 0.527940 0.705099 0.881740
O O2 0.469767 0.944904 0.935558
O O3 0.598553 0.972151 0.857003
O O4 0.611220 0.859498 0.987899
O O5 0.371785 0.730045 0.837274
O O6 0.209151 0.823416 0.825062
O O7 0.316352 0.973413 0.904397
O O8 0.337373 0.967728 0.769692
O O9 0.080844 0.688962 0.875594
O O10 0.500000 0.671719 0.750000
O O11 0.437266 0.462468 0.825538
O O12 0.500000 0.002274 0.250000
O O13 0.596645 0.778641 0.261336
#
# Coordination Sequence:
#
# PCOD9454155 Si02
#       6
#     8   8   8   8   8   8
#     4  10  18  36  58  78 107 146 194 228 277 335
#     4  10  19  37  55  80 111 152 186 219 289 351
#     4   9  20  35  57  78 106 155 186 221 281 351
#     4  11  19  32  57  85 109 139 190 245 274 322
#     4  11  17  37  58  81 108 147 194 231 275 343
#     4  11  22  32  57  86 114 143 189 239 289 331
#
# _framework density 18.036842
#
# number of rings (size 3 to 8) (size 9 to 14) (size 15 to 20)
#    0.000    1.667    6.667    2.500    0.000    0.667 
#    0.000    1.667    0.000    0.000    0.000    0.000 
#    0.000    0.000    0.000    0.000    0.000    0.000 
#
# Total GULP energy -267353.458238 kJ/mol
# GULP energy per Si atom -5569.863713 kJ/mol
# Density = 1.799579 g / cm^3
# Si number density = 18.036842 Si / 1000 Ang^3
#
#
#
# Elastic Constant Matrix: (Units=GPa)
#
#
# Indices 1 2 3 4 5 6 
#
# 1 42.9649 0.4497 4.7105 0.0000 0.0000 0.0000
# 2 0.4497 106.8954 11.9405 0.0000 0.0000 0.0000
# 3 4.7105 11.9405 83.3444 0.0000 0.0000 0.0000
# 4 0.0000 0.0000 0.0000 5.8352 0.0000 0.0000
# 5 0.0000 0.0000 0.0000 0.0000 15.9254 0.0000
# 6 0.0000 0.0000 0.0000 0.0000 0.0000 22.2876
#
#
#
# Elastic Compliance Matrix: (Units=1/GPa)
#
#
# Indices 1 2 3 4 5 6 
#
# 1 0.023420 0.000050 -0.001331 0.000000 0.000000 0.000000
# 2 0.000050 0.009507 -0.001365 0.000000 0.000000 0.000000
# 3 -0.001331 -0.001365 0.012269 0.000000 0.000000 0.000000
# 4 0.000000 0.000000 0.000000 0.171372 0.000000 0.000000
# 5 0.000000 0.000000 0.000000 0.000000 0.062793 0.000000
# 6 0.000000 0.000000 0.000000 0.000000 0.000000 0.044868
#
#
# Mechanical properties :
#
#
# Convention : Reuss Voigt Hill
#
# Bulk Modulus (GPa) = 25.05933 29.71181 27.38557
# Shear Modulus (GPa) = 14.58481 23.21659 18.90070
#
# Velocity S-wave (km/s) = 2.84670 3.59162 3.24063
# Velocity P-wave (km/s) = 4.97277 5.80588 5.40540
#
# Compressibility (1/GPa) = 0.03990529
#
# Stress axis : x y z
#
# Youngs Moduli (GPa) = 42.69816 105.18356 81.50510
#
# Poissons Ratio (x) = -0.00527 0.10847
# Poissons Ratio (y) = -0.00214 0.11125
# Poissons Ratio (z) = 0.05683 0.14357
#
# Static dielectric constant tensor:
#      x y z
#    x 1.620000 0.000000 0.000000 
#    y 0.000000 1.679710 0.000000 
#    z 0.000000 0.000000 1.660360 
# 
# From -- ./inp_files/20820.got.cif
#   From: 2010.05.17/outbox.cif.g08.bks.cpg/sg60_11_cif.got.tgz:20820.got - 2010.06.03 14:59:27.
