data_PCOD9454017
_publ_section_title
;
Structure prediction by ZEFSAII (Michael W. Deem and Ramdas Pophale) SiO2 
 PCOD9454017
Probable space group: P B C N
;
_chemical_formula_sum "Si O2"
_cell_formula_units_Z 40
_cell_length_a 7.598600
_cell_length_b 25.140174
_cell_length_c 8.512530
_cell_angle_alpha 90.000000
_cell_angle_beta 90.000000
_cell_angle_gamma 90.000000
_cell_volume 1626.149680
_symmetry_space_group_name_H-M "P B C N"
_symmetry_group_IT_number 60
_symmetry_cell_setting 'orthorhombic'
loop_
_space_group_symop_operation_xyz
x,y,z
1/2-x,1/2-y,1/2+z
1/2+x,1/2-y,-z
-x,y,1/2-z
-x,-y,-z
1/2+x,1/2+y,1/2-z
1/2-x,1/2+y,z
x,-y,1/2+z
loop_
_atom_site_type_symbol
_atom_site_label
_atom_site_fract_x
_atom_site_fract_y
_atom_site_fract_z
Si Si1 0.689976 0.020927 0.844849
Si Si2 0.452568 0.778373 0.578345
Si Si3 0.441076 0.675521 0.080776
Si Si4 0.046620 0.610104 0.436793
Si Si5 0.315199 0.575198 0.947330
O O1 0.500000 0.012224 0.750000
O O2 0.815258 0.046074 0.716424
O O3 0.662021 0.062572 0.989707
O O4 0.783750 0.968896 0.916508
O O5 0.500000 0.756920 0.750000
O O6 0.259895 0.803912 0.585871
O O7 0.456858 0.728792 0.463929
O O8 0.588032 0.827268 0.543842
O O9 0.500000 0.656253 0.250000
O O10 0.450733 0.622840 0.974124
O O11 0.000000 0.604437 0.250000
O O12 0.874357 0.603767 0.543972
#
# Coordination Sequence:
#
# PCOD9454017 Si02
#       5
#     8   8   8   8   8
#     4  10  18  32  57  88 131 178 225 268 310 386
#     4  10  22  40  64  96 129 170 217 270 335 400
#     4  11  24  43  66  93 128 167 217 281 343 410
#     4   9  17  31  56  91 128 167 219 271 315 375
#     4  10  20  34  56  88 123 168 218 268 323 379
#
# _framework density 24.597981999999998
#
# number of rings (size 3 to 8) (size 9 to 14) (size 15 to 20)
#    0.000    2.000    0.000    5.400    0.000    6.400 
#    0.000    3.000    0.000    0.000    0.000    0.000 
#    0.000    0.000    0.000    0.400    0.000    0.000 
#
# Total GULP energy -223254.283505 kJ/mol
# GULP energy per Si atom -5581.357088 kJ/mol
# Density = 2.454200 g / cm^3
# Si number density = 24.597982 Si / 1000 Ang^3
#
#
#
# Elastic Constant Matrix: (Units=GPa)
#
#
# Indices 1 2 3 4 5 6 
#
# 1 60.0601 24.4999 1.1925 0.0000 0.0000 0.0000
# 2 24.4999 165.2220 57.5907 0.0000 0.0000 0.0000
# 3 1.1925 57.5907 92.3721 0.0000 0.0000 0.0000
# 4 0.0000 0.0000 0.0000 -30.7676 0.0000 0.0000
# 5 0.0000 0.0000 0.0000 0.0000 14.8750 0.0000
# 6 0.0000 0.0000 0.0000 0.0000 0.0000 0.1216
#
#
#
# Elastic Compliance Matrix: (Units=1/GPa)
#
#
# Indices 1 2 3 4 5 6 
#
# 1 0.017960 -0.003299 0.001825 0.000000 0.000000 0.000000
# 2 -0.003299 0.008339 -0.005157 0.000000 0.000000 0.000000
# 3 0.001825 -0.005157 0.014017 0.000000 0.000000 0.000000
# 4 0.000000 0.000000 0.000000 -0.032502 0.000000 0.000000
# 5 0.000000 0.000000 0.000000 0.000000 0.067227 0.000000
# 6 0.000000 0.000000 0.000000 0.000000 0.000000 8.220871
#
#
# Mechanical properties :
#
#
# Convention : Reuss Voigt Hill
#
# Bulk Modulus (GPa) = 36.96251 53.80226 45.38238
# Shear Modulus (GPa) = 0.60109 12.47055 6.53582
#
# Velocity S-wave (km/s) = 0.49487 2.25405 1.63182
# Velocity P-wave (km/s) = 3.92247 5.35672 4.69469
#
# Compressibility (1/GPa) = 0.02705444
#
# Stress axis : x y z
#
# Youngs Moduli (GPa) = 55.68046 119.91721 71.34128
#
# Poissons Ratio (x) = 0.39564 -0.13021
# Poissons Ratio (y) = 0.18371 0.36787
# Poissons Ratio (z) = -0.10162 0.61836
#
# Static dielectric constant tensor:
#      x y z
#    x 2.096560 0.000000 0.000000 
#    y 0.000000 2.000360 0.000000 
#    z 0.000000 0.000000 1.917610 
# 
# From -- ./inp_files/3865.got.cif
#   From: 2010.05.17/outbox.cif.g08.bks.cpg/sg60_2_cif.got.tgz:3865.got - 2010.06.03 14:59:27.
