data_PCOD9454005
_publ_section_title
;
Structure prediction by ZEFSAII (Michael W. Deem and Ramdas Pophale) SiO2 
 PCOD9454005
Probable space group: P B C N
;
_chemical_formula_sum "Si O2"
_cell_formula_units_Z 60
_cell_length_a 13.404494
_cell_length_b 12.719392
_cell_length_c 19.203827
_cell_angle_alpha 90.000000
_cell_angle_beta 90.000000
_cell_angle_gamma 90.000000
_cell_volume 3274.195156
_symmetry_space_group_name_H-M "P B C N"
_symmetry_group_IT_number 60
_symmetry_cell_setting 'orthorhombic'
loop_
_space_group_symop_operation_xyz
x,y,z
1/2-x,1/2-y,1/2+z
1/2+x,1/2-y,-z
-x,y,1/2-z
-x,-y,-z
1/2+x,1/2+y,1/2-z
1/2-x,1/2+y,z
x,-y,1/2+z
loop_
_atom_site_type_symbol
_atom_site_label
_atom_site_fract_x
_atom_site_fract_y
_atom_site_fract_z
Si Si1 0.593246 0.668664 0.912717
Si Si2 0.419356 0.790149 0.981415
Si Si3 0.409761 0.541834 0.148264
Si Si4 0.616658 0.592801 0.066850
Si Si5 0.321782 0.992202 0.437280
Si Si6 0.250417 0.656496 0.053797
Si Si7 0.500000 0.689226 0.250000
Si Si8 0.566984 0.806672 0.113377
O O1 0.491154 0.731512 0.926634
O O2 0.596671 0.584287 0.850930
O O3 0.681391 0.753937 0.912237
O O4 0.604714 0.598263 0.983478
O O5 0.378035 0.899739 0.953168
O O6 0.329275 0.714829 0.003751
O O7 0.483190 0.808748 0.052549
O O8 0.513098 0.565063 0.105150
O O9 0.316266 0.590535 0.107682
O O10 0.418767 0.607205 0.219628
O O11 0.708626 0.518592 0.084106
O O12 0.640144 0.712933 0.088304
O O13 0.315441 0.922702 0.507793
O O14 0.379551 0.917948 0.383945
O O15 0.527051 0.764452 0.186193
#
# Coordination Sequence:
#
# PCOD9454005 Si02
#       8
#     8   8   8   8   8   8   4   8
#     4  11  20  32  53  89 116 143 184 244 295 341
#     4  11  20  34  55  89 122 146 182 251 305 344
#     4  11  21  38  57  78 112 157 196 231 284 333
#     4  10  18  32  55  83 112 143 184 240 288 342
#     4  12  20  32  59  92 120 146 182 248 319 338
#     4  12  19  32  57  89 119 144 187 243 296 354
#     4  10  22  42  62  72 114 172 202 224 264 364
#     4  10  21  37  56  81 117 154 197 228 284 353
#
# _framework density 18.325116000000001
#
# number of rings (size 3 to 8) (size 9 to 14) (size 15 to 20)
#    0.000    1.067    9.333    1.600    0.000    0.000 
#    0.000    2.667    0.000    0.800    0.000    0.000 
#    0.000    0.000    0.000    0.000    0.000    0.000 
#
# Total GULP energy -334709.023359 kJ/mol
# GULP energy per Si atom -5578.483723 kJ/mol
# Density = 1.828341 g / cm^3
# Si number density = 18.325116 Si / 1000 Ang^3
#
#
#
# Elastic Constant Matrix: (Units=GPa)
#
#
# Indices 1 2 3 4 5 6 
#
# 1 67.7792 43.9631 5.1708 0.0000 0.0000 0.0000
# 2 43.9631 115.6055 10.0532 0.0000 0.0000 0.0000
# 3 5.1708 10.0532 31.0794 0.0000 0.0000 0.0000
# 4 0.0000 0.0000 0.0000 16.7029 0.0000 0.0000
# 5 0.0000 0.0000 0.0000 0.0000 11.4806 0.0000
# 6 0.0000 0.0000 0.0000 0.0000 0.0000 42.1270
#
#
#
# Elastic Compliance Matrix: (Units=1/GPa)
#
#
# Indices 1 2 3 4 5 6 
#
# 1 0.019608 -0.007380 -0.000875 0.000000 0.000000 0.000000
# 2 -0.007380 0.011678 -0.002550 0.000000 0.000000 0.000000
# 3 -0.000875 -0.002550 0.033146 0.000000 0.000000 0.000000
# 4 0.000000 0.000000 0.000000 0.059870 0.000000 0.000000
# 5 0.000000 0.000000 0.000000 0.000000 0.087103 0.000000
# 6 0.000000 0.000000 0.000000 0.000000 0.000000 0.023738
#
#
# Mechanical properties :
#
#
# Convention : Reuss Voigt Hill
#
# Bulk Modulus (GPa) = 23.35240 36.98203 30.16721
# Shear Modulus (GPa) = 18.44835 24.41391 21.43113
#
# Velocity S-wave (km/s) = 3.17633 3.65398 3.42350
# Velocity P-wave (km/s) = 5.12086 6.16660 5.66790
#
# Compressibility (1/GPa) = 0.04282216
#
# Stress axis : x y z
#
# Youngs Moduli (GPa) = 51.00055 85.62744 30.16955
#
# Poissons Ratio (x) = 0.63197 0.02639
# Poissons Ratio (y) = 0.37641 0.07692
# Poissons Ratio (z) = 0.04462 0.21833
#
# Static dielectric constant tensor:
#      x y z
#    x 1.657150 0.000000 0.000000 
#    y 0.000000 1.662630 0.000000 
#    z 0.000000 0.000000 1.651260 
# 
# From -- ./inp_files/20621.got.cif
#   From: 2010.05.17/outbox.cif.g08.bks.cpg/sg60_11_cif.got.tgz:20621.got - 2010.06.03 14:59:27.
