data_PCOD9454517
_publ_section_title
;
Structure prediction by ZEFSAII (Michael W. Deem and Ramdas Pophale) SiO2 
 PCOD9454517
Probable space group: P B C N
;
_chemical_formula_sum "Si O2"
_cell_formula_units_Z 32
_cell_length_a 15.080785
_cell_length_b 5.492052
_cell_length_c 15.529651
_cell_angle_alpha 90.000000
_cell_angle_beta 90.000000
_cell_angle_gamma 90.000000
_cell_volume 1286.234887
_symmetry_space_group_name_H-M "P B C N"
_symmetry_group_IT_number 60
_symmetry_cell_setting 'orthorhombic'
loop_
_space_group_symop_operation_xyz
x,y,z
1/2-x,1/2-y,1/2+z
1/2+x,1/2-y,-z
-x,y,1/2-z
-x,-y,-z
1/2+x,1/2+y,1/2-z
1/2-x,1/2+y,z
x,-y,1/2+z
loop_
_atom_site_type_symbol
_atom_site_label
_atom_site_fract_x
_atom_site_fract_y
_atom_site_fract_z
Si Si1 0.596719 0.641953 0.293729
Si Si2 0.367511 0.139841 0.169792
Si Si3 0.011361 0.624905 0.909675
Si Si4 0.198548 0.687529 0.972012
O O1 0.500000 0.659012 0.250000
O O2 0.640851 0.386534 0.278358
O O3 0.562178 0.664934 0.393836
O O4 0.656263 0.882737 0.286004
O O5 0.325297 0.175172 0.075082
O O6 0.473226 0.083669 0.153817
O O7 0.111473 0.710792 0.911533
O O8 0.000000 0.500000 0.000000
O O9 0.242898 0.425726 0.955663
#
# Coordination Sequence:
#
# PCOD9454517 Si02
#       4
#     8   8   8   8
#     4  10  19  34  60  84 106 144 189 239 278 325
#     4   9  20  35  56  79 113 138 192 228 274 323
#     4   8  20  35  57  81 111 137 190 233 276 319
#     4  11  22  33  55  83 114 146 179 227 284 332
#
# _framework density 24.878814999999999
#
# number of rings (size 3 to 8) (size 9 to 14) (size 15 to 20)
#    1.500    1.000    0.000    2.250    3.500    2.000 
#    0.000    0.000    0.000    9.000    0.000    0.000 
#    0.000    0.000    0.000    0.000    0.000    0.000 
#
# Total GULP energy -178175.952253 kJ/mol
# GULP energy per Si atom -5567.998508 kJ/mol
# Density = 2.482219 g / cm^3
# Si number density = 24.878815 Si / 1000 Ang^3
#
#
#
# Elastic Constant Matrix: (Units=GPa)
#
#
# Indices 1 2 3 4 5 6 
#
# 1 91.8072 46.1040 -7.2282 0.0000 0.0000 0.0000
# 2 46.1040 209.3629 -8.8100 0.0000 0.0000 0.0000
# 3 -7.2282 -8.8100 28.8820 0.0000 0.0000 0.0000
# 4 0.0000 0.0000 0.0000 18.4692 0.0000 0.0000
# 5 0.0000 0.0000 0.0000 0.0000 33.7453 0.0000
# 6 0.0000 0.0000 0.0000 0.0000 0.0000 9.9505
#
#
#
# Elastic Compliance Matrix: (Units=1/GPa)
#
#
# Indices 1 2 3 4 5 6 
#
# 1 0.012396 -0.002633 0.002299 0.000000 0.000000 0.000000
# 2 -0.002633 0.005398 0.000988 0.000000 0.000000 0.000000
# 3 0.002299 0.000988 0.035500 0.000000 0.000000 0.000000
# 4 0.000000 0.000000 0.000000 0.054144 0.000000 0.000000
# 5 0.000000 0.000000 0.000000 0.000000 0.029634 0.000000
# 6 0.000000 0.000000 0.000000 0.000000 0.000000 0.100497
#
#
# Mechanical properties :
#
#
# Convention : Reuss Voigt Hill
#
# Bulk Modulus (GPa) = 18.31462 43.35374 30.83418
# Shear Modulus (GPa) = 19.64931 32.43208 26.04070
#
# Velocity S-wave (km/s) = 2.81339 3.61446 3.23879
# Velocity P-wave (km/s) = 4.23451 5.90617 5.13877
#
# Compressibility (1/GPa) = 0.05460120
#
# Stress axis : x y z
#
# Youngs Moduli (GPa) = 80.67372 185.26251 28.16875
#
# Poissons Ratio (x) = 0.48778 -0.06476
# Poissons Ratio (y) = 0.21241 -0.02782
# Poissons Ratio (z) = -0.18548 -0.18296
#
# Static dielectric constant tensor:
#      x y z
#    x 2.023100 0.000000 0.000000 
#    y 0.000000 2.044170 0.000000 
#    z 0.000000 0.000000 2.156700 
# 
# From -- ./inp_files/22758.got.cif
#   From: 2010.05.17/outbox.cif.g08.bks.cpg/sg60_12_cif.got.tgz:22758.got - 2010.06.03 14:59:27.
