data_PCOD9454721
_publ_section_title
;
Structure prediction by ZEFSAII (Michael W. Deem and Ramdas Pophale) SiO2 
 PCOD9454721
Probable space group: P B C N
;
_chemical_formula_sum "Si O2"
_cell_formula_units_Z 52
_cell_length_a 10.841444
_cell_length_b 17.898774
_cell_length_c 14.749604
_cell_angle_alpha 90.000000
_cell_angle_beta 90.000000
_cell_angle_gamma 90.000000
_cell_volume 2862.139358
_symmetry_space_group_name_H-M "P B C N"
_symmetry_group_IT_number 60
_symmetry_cell_setting 'orthorhombic'
loop_
_space_group_symop_operation_xyz
x,y,z
1/2-x,1/2-y,1/2+z
1/2+x,1/2-y,-z
-x,y,1/2-z
-x,-y,-z
1/2+x,1/2+y,1/2-z
1/2-x,1/2+y,z
x,-y,1/2+z
loop_
_atom_site_type_symbol
_atom_site_label
_atom_site_fract_x
_atom_site_fract_y
_atom_site_fract_z
Si Si1 0.177168 0.357397 0.674715
Si Si2 0.629327 0.316629 0.301724
Si Si3 0.099673 0.907950 0.020186
Si Si4 0.500000 0.028231 0.250000
Si Si5 0.686627 0.428254 0.991078
Si Si6 0.375664 0.418303 0.806916
Si Si7 0.232742 0.567161 0.813911
O O1 0.140758 0.271887 0.685290
O O2 0.061870 0.414786 0.677586
O O3 0.261043 0.376910 0.588032
O O4 0.262314 0.376911 0.760476
O O5 0.500000 0.332101 0.250000
O O6 0.637706 0.350803 0.402529
O O7 0.732726 0.358608 0.241215
O O8 0.951428 0.911135 0.024938
O O9 0.120261 0.896225 0.912642
O O10 0.168461 0.986274 0.042420
O O11 0.390672 0.974814 0.283370
O O12 0.772215 0.420782 0.078565
O O13 0.500000 0.403825 0.750000
O O14 0.342782 0.506318 0.800198
#
# Coordination Sequence:
#
# PCOD9454721 Si02
#       7
#     8   8   8   4   8   8   8
#     4  11  23  39  60  88 133 163 198 244 325 371
#     4  12  23  40  61  89 125 164 201 258 305 378
#     4  10  20  36  63  96 116 148 216 258 301 347
#     4  10  22  42  60  90 122 172 198 254 306 374
#     4  10  20  37  64  92 115 158 205 261 299 361
#     4  10  19  37  64  91 117 156 205 263 296 359
#     4  10  22  38  66  89 121 158 213 251 304 361
#
# _framework density 18.168229
#
# number of rings (size 3 to 8) (size 9 to 14) (size 15 to 20)
#    0.000    1.538    3.846    2.308    2.154    1.846 
#    1.385    3.077    0.000    0.000    0.000    0.000 
#    0.000    0.000    0.000    0.000    0.000    0.000 
#
# Total GULP energy -289945.144399 kJ/mol
# GULP energy per Si atom -5575.868162 kJ/mol
# Density = 1.812688 g / cm^3
# Si number density = 18.168229 Si / 1000 Ang^3
#
#
#
# Elastic Constant Matrix: (Units=GPa)
#
#
# Indices 1 2 3 4 5 6 
#
# 1 73.8250 39.9300 29.8194 0.0000 0.0000 0.0000
# 2 39.9300 91.1018 43.3068 0.0000 0.0000 0.0000
# 3 29.8194 43.3068 69.5093 0.0000 0.0000 0.0000
# 4 0.0000 0.0000 0.0000 16.2688 0.0000 0.0000
# 5 0.0000 0.0000 0.0000 0.0000 16.0683 0.0000
# 6 0.0000 0.0000 0.0000 0.0000 0.0000 19.4850
#
#
#
# Elastic Compliance Matrix: (Units=1/GPa)
#
#
# Indices 1 2 3 4 5 6 
#
# 1 0.018545 -0.006175 -0.004108 0.000000 0.000000 0.000000
# 2 -0.006175 0.017652 -0.008349 0.000000 0.000000 0.000000
# 3 -0.004108 -0.008349 0.021351 0.000000 0.000000 0.000000
# 4 0.000000 0.000000 0.000000 0.061467 0.000000 0.000000
# 5 0.000000 0.000000 0.000000 0.000000 0.062234 0.000000
# 6 0.000000 0.000000 0.000000 0.000000 0.000000 0.051322
#
#
# Mechanical properties :
#
#
# Convention : Reuss Voigt Hill
#
# Bulk Modulus (GPa) = 49.30240 51.17205 50.23723
# Shear Modulus (GPa) = 18.07685 18.45640 18.26663
#
# Velocity S-wave (km/s) = 3.15774 3.19072 3.17427
# Velocity P-wave (km/s) = 6.36322 6.46537 6.41450
#
# Compressibility (1/GPa) = 0.02028299
#
# Stress axis : x y z
#
# Youngs Moduli (GPa) = 53.92270 56.65057 46.83716
#
# Poissons Ratio (x) = 0.34984 0.19242
# Poissons Ratio (y) = 0.33299 0.39103
# Poissons Ratio (z) = 0.22153 0.47296
#
# Static dielectric constant tensor:
#      x y z
#    x 1.626080 0.000000 0.000000 
#    y 0.000000 1.629020 0.000000 
#    z 0.000000 0.000000 1.641410 
# 
# From -- ./inp_files/16313.got.cif
#   From: 2010.05.17/outbox.cif.g08.bks.cpg/sg60_9_cif.got.tgz:16313.got - 2010.06.03 14:59:27.
