data_PCOD9454529
_publ_section_title
;
Structure prediction by ZEFSAII (Michael W. Deem and Ramdas Pophale) SiO2 
 PCOD9454529
Probable space group: P B C N
;
_chemical_formula_sum "Si O2"
_cell_formula_units_Z 56
_cell_length_a 14.554810
_cell_length_b 9.430504
_cell_length_c 18.197560
_cell_angle_alpha 90.000000
_cell_angle_beta 90.000000
_cell_angle_gamma 90.000000
_cell_volume 2497.782417
_symmetry_space_group_name_H-M "P B C N"
_symmetry_group_IT_number 60
_symmetry_cell_setting 'orthorhombic'
loop_
_space_group_symop_operation_xyz
x,y,z
1/2-x,1/2-y,1/2+z
1/2+x,1/2-y,-z
-x,y,1/2-z
-x,-y,-z
1/2+x,1/2+y,1/2-z
1/2-x,1/2+y,z
x,-y,1/2+z
loop_
_atom_site_type_symbol
_atom_site_label
_atom_site_fract_x
_atom_site_fract_y
_atom_site_fract_z
Si Si1 0.737638 0.501458 0.631001
Si Si2 0.314340 0.776664 0.959498
Si Si3 0.429329 0.286765 0.862965
Si Si4 0.687682 0.842724 0.264861
Si Si5 0.796755 0.393627 0.855150
Si Si6 0.379133 0.714633 0.522805
Si Si7 0.901034 0.908032 0.928441
O O1 0.722439 0.637738 0.581528
O O2 0.819580 0.402100 0.599938
O O3 0.644905 0.412284 0.630764
O O4 0.752940 0.558822 0.711347
O O5 0.228405 0.824431 0.008876
O O6 0.394641 0.715063 0.009492
O O7 0.394454 0.206293 0.790164
O O8 0.530971 0.351653 0.865298
O O9 0.415691 0.221138 0.945532
O O10 0.755226 0.719738 0.295581
O O11 0.662439 0.956763 0.327247
O O12 0.871176 0.319039 0.908223
O O13 0.702340 0.423346 0.898812
O O14 0.426375 0.564795 0.542590
#
# Coordination Sequence:
#
# PCOD9454529 Si02
#       7
#     8   8   8   8   8   8   8
#     4  11  19  37  63  91 125 172 226 265 324 411
#     4  10  19  34  63  94 124 166 218 274 321 401
#     4  11  23  38  70 100 136 165 229 282 343 391
#     4  12  22  43  65  97 129 186 226 269 326 420
#     4  11  24  41  69  94 134 180 235 265 334 417
#     4  10  20  38  64  98 129 171 225 278 327 406
#     4  11  22  39  65 103 133 169 219 291 345 392
#
# _framework density 22.419886999999999
#
# number of rings (size 3 to 8) (size 9 to 14) (size 15 to 20)
#    0.000    1.143    8.571    0.429    0.000    0.571 
#    0.000    0.714    3.143    0.000    0.000    0.000 
#    0.000    0.000    0.000    0.000    0.000    0.000 
#
# Total GULP energy -312147.177143 kJ/mol
# GULP energy per Si atom -5574.056735 kJ/mol
# Density = 2.236886 g / cm^3
# Si number density = 22.419887 Si / 1000 Ang^3
#
#
#
# Elastic Constant Matrix: (Units=GPa)
#
#
# Indices 1 2 3 4 5 6 
#
# 1 43.2001 23.8688 15.3200 0.0000 0.0000 0.0000
# 2 23.8688 125.4810 56.5091 0.0000 0.0000 0.0000
# 3 15.3200 56.5091 92.5721 0.0000 0.0000 0.0000
# 4 0.0000 0.0000 0.0000 42.1117 0.0000 0.0000
# 5 0.0000 0.0000 0.0000 0.0000 26.1222 0.0000
# 6 0.0000 0.0000 0.0000 0.0000 0.0000 22.6823
#
#
#
# Elastic Compliance Matrix: (Units=1/GPa)
#
#
# Indices 1 2 3 4 5 6 
#
# 1 0.026077 -0.004161 -0.001776 0.000000 0.000000 0.000000
# 2 -0.004161 0.011655 -0.006426 0.000000 0.000000 0.000000
# 3 -0.001776 -0.006426 0.015019 0.000000 0.000000 0.000000
# 4 0.000000 0.000000 0.000000 0.023746 0.000000 0.000000
# 5 0.000000 0.000000 0.000000 0.000000 0.038282 0.000000
# 6 0.000000 0.000000 0.000000 0.000000 0.000000 0.044087
#
#
# Mechanical properties :
#
#
# Convention : Reuss Voigt Hill
#
# Bulk Modulus (GPa) = 35.68144 50.29432 42.98788
# Shear Modulus (GPa) = 25.91596 29.22025 27.56811
#
# Velocity S-wave (km/s) = 3.40359 3.61407 3.51041
# Velocity P-wave (km/s) = 5.60318 6.31640 5.97045
#
# Compressibility (1/GPa) = 0.02802577
#
# Stress axis : x y z
#
# Youngs Moduli (GPa) = 38.34851 85.80357 66.58334
#
# Poissons Ratio (x) = 0.35699 0.11824
# Poissons Ratio (y) = 0.15955 0.42785
# Poissons Ratio (z) = 0.06810 0.55135
#
# Static dielectric constant tensor:
#      x y z
#    x 1.864530 0.000000 0.000000 
#    y 0.000000 1.895310 0.000000 
#    z 0.000000 0.000000 1.975190 
# 
# From -- ./inp_files/22915.got.cif
#   From: 2010.05.17/outbox.cif.g08.bks.cpg/sg60_12_cif.got.tgz:22915.got - 2010.06.03 14:59:27.
