data_PCOD9454218
_publ_section_title
;
Structure prediction by ZEFSAII (Michael W. Deem and Ramdas Pophale) SiO2 
 PCOD9454218
Probable space group: P B C N
;
_chemical_formula_sum "Si O2"
_cell_formula_units_Z 44
_cell_length_a 16.794468
_cell_length_b 9.807088
_cell_length_c 13.192710
_cell_angle_alpha 90.000000
_cell_angle_beta 90.000000
_cell_angle_gamma 90.000000
_cell_volume 2172.903000
_symmetry_space_group_name_H-M "P B C N"
_symmetry_group_IT_number 60
_symmetry_cell_setting 'orthorhombic'
loop_
_space_group_symop_operation_xyz
x,y,z
1/2-x,1/2-y,1/2+z
1/2+x,1/2-y,-z
-x,y,1/2-z
-x,-y,-z
1/2+x,1/2+y,1/2-z
1/2-x,1/2+y,z
x,-y,1/2+z
loop_
_atom_site_type_symbol
_atom_site_label
_atom_site_fract_x
_atom_site_fract_y
_atom_site_fract_z
Si Si1 0.419844 0.085374 0.522514
Si Si2 0.000000 0.254557 0.750000
Si Si3 0.184910 0.230802 0.493974
Si Si4 0.337430 0.902071 0.685323
Si Si5 0.496291 0.342908 0.025397
Si Si6 0.278676 0.998031 0.888492
O O1 0.440345 0.244038 0.528294
O O2 0.363423 0.055710 0.428185
O O3 0.500000 0.000000 0.500000
O O4 0.372098 0.025267 0.617268
O O5 0.081728 0.337733 0.732105
O O6 0.991484 0.172489 0.645848
O O7 0.201048 0.293141 0.606275
O O8 0.089476 0.218518 0.494237
O O9 0.220197 0.342121 0.415303
O O10 0.217500 0.085180 0.458740
O O11 0.277650 0.957064 0.770881
O O12 0.500000 0.500000 0.000000
#
# Coordination Sequence:
#
# PCOD9454218 Si02
#       6
#     8   4   8   8   8   8
#     4  11  19  40  67  94 120 167 220 276 316 392
#     4  10  18  38  68  92 122 174 204 276 332 376
#     4  10  25  40  62  95 128 174 215 264 332 397
#     4  10  20  38  69  92 123 172 226 258 337 382
#     4  11  23  42  63 100 133 166 218 280 333 387
#     4  11  22  40  63  91 132 168 217 270 326 403
#
# _framework density 20.249409
#
# number of rings (size 3 to 8) (size 9 to 14) (size 15 to 20)
#    0.000    1.455    7.273    0.000    2.545    2.909 
#    3.273    3.636    0.000    0.000    0.000    0.000 
#    0.000    0.000    0.000    0.000    0.000    0.000 
#
# Total GULP energy -245419.868459 kJ/mol
# GULP energy per Si atom -5577.724283 kJ/mol
# Density = 2.020332 g / cm^3
# Si number density = 20.249409 Si / 1000 Ang^3
#
#
#
# Elastic Constant Matrix: (Units=GPa)
#
#
# Indices 1 2 3 4 5 6 
#
# 1 20.8950 -4.3093 9.8813 0.0000 0.0000 0.0000
# 2 -4.3093 116.8498 27.8866 0.0000 0.0000 0.0000
# 3 9.8813 27.8866 108.5749 0.0000 0.0000 0.0000
# 4 0.0000 0.0000 0.0000 32.4693 0.0000 0.0000
# 5 0.0000 0.0000 0.0000 0.0000 20.6387 0.0000
# 6 0.0000 0.0000 0.0000 0.0000 0.0000 33.1997
#
#
#
# Elastic Compliance Matrix: (Units=1/GPa)
#
#
# Indices 1 2 3 4 5 6 
#
# 1 0.051103 0.003190 -0.005470 0.000000 0.000000 0.000000
# 2 0.003190 0.009316 -0.002683 0.000000 0.000000 0.000000
# 3 -0.005470 -0.002683 0.010397 0.000000 0.000000 0.000000
# 4 0.000000 0.000000 0.000000 0.030798 0.000000 0.000000
# 5 0.000000 0.000000 0.000000 0.000000 0.048453 0.000000
# 6 0.000000 0.000000 0.000000 0.000000 0.000000 0.030121
#
#
# Mechanical properties :
#
#
# Convention : Reuss Voigt Hill
#
# Bulk Modulus (GPa) = 16.42309 34.80412 25.61360
# Shear Modulus (GPa) = 23.76303 31.45228 27.60765
#
# Velocity S-wave (km/s) = 3.42938 3.94540 3.69640
# Velocity P-wave (km/s) = 4.87943 6.16278 5.55827
#
# Compressibility (1/GPa) = 0.06088987
#
# Stress axis : x y z
#
# Youngs Moduli (GPa) = 19.56831 107.34262 96.17980
#
# Poissons Ratio (x) = -0.34243 0.52612
# Poissons Ratio (y) = -0.06243 0.25806
# Poissons Ratio (z) = 0.10704 0.28801
#
# Static dielectric constant tensor:
#      x y z
#    x 1.796950 0.000000 0.000000 
#    y 0.000000 1.775090 0.000000 
#    z 0.000000 0.000000 1.752270 
# 
# From -- ./inp_files/17262.got.cif
#   From: 2010.05.17/outbox.cif.g08.bks.cpg/sg60_9_cif.got.tgz:17262.got - 2010.06.03 14:59:27.
