data_PCOD9454822
_publ_section_title
;
Structure prediction by ZEFSAII (Michael W. Deem and Ramdas Pophale) SiO2 
 PCOD9454822
Probable space group: P B C N
;
_chemical_formula_sum "Si O2"
_cell_formula_units_Z 48
_cell_length_a 9.768868
_cell_length_b 10.092506
_cell_length_c 20.793567
_cell_angle_alpha 90.000000
_cell_angle_beta 90.000000
_cell_angle_gamma 90.000000
_cell_volume 2050.086821
_symmetry_space_group_name_H-M "P B C N"
_symmetry_group_IT_number 60
_symmetry_cell_setting 'orthorhombic'
loop_
_space_group_symop_operation_xyz
x,y,z
1/2-x,1/2-y,1/2+z
1/2+x,1/2-y,-z
-x,y,1/2-z
-x,-y,-z
1/2+x,1/2+y,1/2-z
1/2-x,1/2+y,z
x,-y,1/2+z
loop_
_atom_site_type_symbol
_atom_site_label
_atom_site_fract_x
_atom_site_fract_y
_atom_site_fract_z
Si Si1 0.095155 0.376566 0.020852
Si Si2 0.094436 0.612092 0.312704
Si Si3 0.669893 0.917691 0.890612
Si Si4 0.872789 0.811978 0.479345
Si Si5 0.304335 0.612908 0.789328
Si Si6 0.409870 0.457084 0.155204
O O1 0.144483 0.428491 0.090482
O O2 0.241864 0.373433 0.983918
O O3 0.000000 0.500000 0.000000
O O4 0.003545 0.245485 0.016320
O O5 0.193279 0.738338 0.315950
O O6 0.174441 0.474782 0.307434
O O7 0.000000 0.622999 0.250000
O O8 0.978703 0.625436 0.366573
O O9 0.697393 0.819760 0.949156
O O10 0.806107 0.918359 0.847979
O O11 0.917731 0.901026 0.418029
O O12 0.436081 0.536659 0.819274
O O13 0.334104 0.624557 0.712596
#
# Coordination Sequence:
#
# PCOD9454822 Si02
#       6
#     8   8   8   8   8   8
#     4   9  21  38  62  92 118 164 212 267 325 391
#     4  12  22  42  62  93 133 169 213 271 318 389
#     4  10  20  40  63  88 126 169 208 261 335 385
#     4  10  19  40  65  87 128 163 212 268 328 390
#     4  11  23  40  62  96 130 171 218 263 321 391
#     4  10  20  38  62  88 124 169 210 261 322 389
#
# _framework density 23.413641999999999
#
# number of rings (size 3 to 8) (size 9 to 14) (size 15 to 20)
#    0.000    1.667    5.000    0.000    0.000    1.333 
#    9.000    7.500    0.000    0.000    0.000    0.000 
#    0.000    0.000    0.000    0.000    0.000    0.000 
#
# Total GULP energy -267214.546878 kJ/mol
# GULP energy per Si atom -5566.969727 kJ/mol
# Density = 2.336035 g / cm^3
# Si number density = 23.413642 Si / 1000 Ang^3
#
#
#
# Elastic Constant Matrix: (Units=GPa)
#
#
# Indices 1 2 3 4 5 6 
#
# 1 91.5495 35.5235 13.3724 0.0000 0.0000 0.0000
# 2 35.5235 74.9632 0.1008 0.0000 0.0000 0.0000
# 3 13.3724 0.1008 18.9805 0.0000 0.0000 0.0000
# 4 0.0000 0.0000 0.0000 27.9481 0.0000 0.0000
# 5 0.0000 0.0000 0.0000 0.0000 31.8681 0.0000
# 6 0.0000 0.0000 0.0000 0.0000 0.0000 35.1125
#
#
#
# Elastic Compliance Matrix: (Units=1/GPa)
#
#
# Indices 1 2 3 4 5 6 
#
# 1 0.015300 -0.007236 -0.010741 0.000000 0.000000 0.000000
# 2 -0.007236 0.016762 0.005009 0.000000 0.000000 0.000000
# 3 -0.010741 0.005009 0.060226 0.000000 0.000000 0.000000
# 4 0.000000 0.000000 0.000000 0.035781 0.000000 0.000000
# 5 0.000000 0.000000 0.000000 0.000000 0.031379 0.000000
# 6 0.000000 0.000000 0.000000 0.000000 0.000000 0.028480
#
#
# Mechanical properties :
#
#
# Convention : Reuss Voigt Hill
#
# Bulk Modulus (GPa) = 15.07098 31.49852 23.28475
# Shear Modulus (GPa) = 21.18820 28.08549 24.63684
#
# Velocity S-wave (km/s) = 3.01150 3.46719 3.24735
# Velocity P-wave (km/s) = 4.30616 5.43238 4.90172
#
# Compressibility (1/GPa) = 0.06635269
#
# Stress axis : x y z
#
# Youngs Moduli (GPa) = 65.36141 59.65878 16.60405
#
# Poissons Ratio (x) = 0.43167 0.17834
# Poissons Ratio (y) = 0.47294 -0.08317
# Poissons Ratio (z) = 0.70202 -0.29882
#
# Static dielectric constant tensor:
#      x y z
#    x 1.978500 0.000000 0.000000 
#    y 0.000000 1.980920 0.000000 
#    z 0.000000 0.000000 2.062730 
# 
# From -- ./inp_files/23937.got.cif
#   From: 2010.05.17/outbox.cif.g08.bks.cpg/sg60_12_cif.got.tgz:23937.got - 2010.06.03 14:59:27.
