data_PCOD9454949
_publ_section_title
;
Structure prediction by ZEFSAII (Michael W. Deem and Ramdas Pophale) SiO2 
 PCOD9454949
Probable space group: P B C N
;
_chemical_formula_sum "Si O2"
_cell_formula_units_Z 36
_cell_length_a 5.666533
_cell_length_b 19.553022
_cell_length_c 16.711526
_cell_angle_alpha 90.000000
_cell_angle_beta 90.000000
_cell_angle_gamma 90.000000
_cell_volume 1851.601058
_symmetry_space_group_name_H-M "P B C N"
_symmetry_group_IT_number 60
_symmetry_cell_setting 'orthorhombic'
loop_
_space_group_symop_operation_xyz
x,y,z
1/2-x,1/2-y,1/2+z
1/2+x,1/2-y,-z
-x,y,1/2-z
-x,-y,-z
1/2+x,1/2+y,1/2-z
1/2-x,1/2+y,z
x,-y,1/2+z
loop_
_atom_site_type_symbol
_atom_site_label
_atom_site_fract_x
_atom_site_fract_y
_atom_site_fract_z
Si Si1 0.842166 0.725050 0.121737
Si Si2 0.748768 0.980925 0.457497
Si Si3 0.000000 0.805514 0.750000
Si Si4 0.729570 0.114842 0.386017
Si Si5 0.562075 0.664849 0.977207
O O1 0.697957 0.736361 0.202689
O O2 0.983903 0.653564 0.127325
O O3 0.003617 0.788769 0.098673
O O4 0.682120 0.713581 0.043238
O O5 0.774759 0.899236 0.452372
O O6 0.500000 0.000000 0.500000
O O7 0.734970 0.032919 0.382794
O O8 0.000000 0.000000 0.500000
O O9 0.894367 0.852988 0.818880
O O10 0.834546 0.136158 0.473389
#
# Coordination Sequence:
#
# PCOD9454949 Si02
#       5
#     8   8   4   8   8
#     4  11  19  36  59  93 125 169 215 271 324 401
#     4  10  20  36  61  93 121 154 204 269 325 379
#     4  10  24  36  58  86 126 178 216 262 330 402
#     4  10  20  37  59  85 122 161 216 262 324 393
#     4  10  20  33  62  94 124 157 215 272 329 377
#
# _framework density 19.442634000000002
#
# number of rings (size 3 to 8) (size 9 to 14) (size 15 to 20)
#    0.000    1.778    4.444    0.667    0.000    0.000 
#    0.000    0.000    4.889    0.000    0.000    0.000 
#    0.000    0.000    0.000    0.000    0.000    0.000 
#
# Total GULP energy -200439.238383 kJ/mol
# GULP energy per Si atom -5567.756622 kJ/mol
# Density = 1.939838 g / cm^3
# Si number density = 19.442634 Si / 1000 Ang^3
#
#
#
# Elastic Constant Matrix: (Units=GPa)
#
#
# Indices 1 2 3 4 5 6 
#
# 1 87.4899 28.3394 26.0146 0.0000 0.0000 0.0000
# 2 28.3394 115.7962 41.4497 0.0000 0.0000 0.0000
# 3 26.0146 41.4497 71.9814 0.0000 0.0000 0.0000
# 4 0.0000 0.0000 0.0000 19.3377 0.0000 0.0000
# 5 0.0000 0.0000 0.0000 0.0000 34.3508 0.0000
# 6 0.0000 0.0000 0.0000 0.0000 0.0000 20.8627
#
#
#
# Elastic Compliance Matrix: (Units=1/GPa)
#
#
# Indices 1 2 3 4 5 6 
#
# 1 0.013133 -0.001908 -0.003647 0.000000 0.000000 0.000000
# 2 -0.001908 0.011155 -0.005734 0.000000 0.000000 0.000000
# 3 -0.003647 -0.005734 0.018512 0.000000 0.000000 0.000000
# 4 0.000000 0.000000 0.000000 0.051712 0.000000 0.000000
# 5 0.000000 0.000000 0.000000 0.000000 0.029111 0.000000
# 6 0.000000 0.000000 0.000000 0.000000 0.000000 0.047933
#
#
# Mechanical properties :
#
#
# Convention : Reuss Voigt Hill
#
# Bulk Modulus (GPa) = 49.45337 51.87500 50.66419
# Shear Modulus (GPa) = 24.89090 26.87449 25.88269
#
# Velocity S-wave (km/s) = 3.58190 3.72189 3.65257
# Velocity P-wave (km/s) = 6.52667 6.72376 6.62595
#
# Compressibility (1/GPa) = 0.02022107
#
# Stress axis : x y z
#
# Youngs Moduli (GPa) = 76.14660 89.64236 54.01757
#
# Poissons Ratio (x) = 0.17108 0.19702
# Poissons Ratio (y) = 0.14532 0.30974
# Poissons Ratio (z) = 0.27773 0.51401
#
# Static dielectric constant tensor:
#      x y z
#    x 1.827920 0.000000 0.000000 
#    y 0.000000 1.730410 0.000000 
#    z 0.000000 0.000000 1.671530 
# 
# From -- ./inp_files/13742.got.cif
#   From: 2010.05.17/outbox.cif.g08.bks.cpg/sg60_7_cif.got.tgz:13742.got - 2010.06.03 14:59:27.
