data_PCOD9454973
_publ_section_title
;
Structure prediction by ZEFSAII (Michael W. Deem and Ramdas Pophale) SiO2 
 PCOD9454973
Probable space group: P B C N
;
_chemical_formula_sum "Si O2"
_cell_formula_units_Z 48
_cell_length_a 16.945100
_cell_length_b 6.955870
_cell_length_c 13.811588
_cell_angle_alpha 90.000000
_cell_angle_beta 90.000000
_cell_angle_gamma 90.000000
_cell_volume 1627.943049
_symmetry_space_group_name_H-M "P B C N"
_symmetry_group_IT_number 60
_symmetry_cell_setting 'orthorhombic'
loop_
_space_group_symop_operation_xyz
x,y,z
1/2-x,1/2-y,1/2+z
1/2+x,1/2-y,-z
-x,y,1/2-z
-x,-y,-z
1/2+x,1/2+y,1/2-z
1/2-x,1/2+y,z
x,-y,1/2+z
loop_
_atom_site_type_symbol
_atom_site_label
_atom_site_fract_x
_atom_site_fract_y
_atom_site_fract_z
Si Si1 0.823076 0.085665 0.297790
Si Si2 0.145629 0.993164 0.920975
Si Si3 0.649000 0.967393 0.762913
Si Si4 0.179353 0.451830 0.453575
Si Si5 0.447950 0.931752 0.088667
Si Si6 0.981342 0.992393 0.861808
O O1 0.834138 0.982376 0.194207
O O2 0.850690 0.301667 0.276461
O O3 0.885577 0.988263 0.371476
O O4 0.729779 0.103575 0.312222
O O5 0.147651 0.765545 0.945858
O O6 0.054728 0.067944 0.926912
O O7 0.226821 0.068214 0.966825
O O8 0.657255 0.943201 0.648168
O O9 0.570561 0.918944 0.823997
O O10 0.137376 0.574561 0.536234
O O11 0.487213 0.739225 0.127067
O O12 0.500000 0.000000 0.000000
O O13 0.000000 0.035638 0.750000
#
# Coordination Sequence:
#
# PCOD9454973 Si02
#       6
#     8   8   8   8   8   8
#     4   8  16  31  56  76 101 139 170 211 259 304
#     4   9  17  33  54  76 104 135 173 214 259 308
#     4   9  19  34  52  80 107 133 174 215 256 311
#     4  10  20  34  55  79 105 136 173 216 261 310
#     4  11  21  31  54  79 101 138 177 215 260 301
#     4   9  17  33  54  76 103 138 178 214 255 316
#
# _framework density 29.485060000000001
#
# number of rings (size 3 to 8) (size 9 to 14) (size 15 to 20)
#    0.000    2.667    1.667    1.000    0.000    2.667 
#    0.000    0.000    3.667    2.000    0.000    0.000 
#    0.000    0.000    0.000    0.000    0.000    0.000 
#
# Total GULP energy -268579.076948 kJ/mol
# GULP energy per Si atom -5595.397436 kJ/mol
# Density = 2.941795 g / cm^3
# Si number density = 29.485060 Si / 1000 Ang^3
#
#
#
# Elastic Constant Matrix: (Units=GPa)
#
#
# Indices 1 2 3 4 5 6 
#
# 1 200.3139 6.3975 64.2754 0.0000 0.0000 0.0000
# 2 6.3975 96.0477 21.6460 0.0000 0.0000 0.0000
# 3 64.2754 21.6460 137.1714 0.0000 0.0000 0.0000
# 4 0.0000 0.0000 0.0000 29.0867 0.0000 0.0000
# 5 0.0000 0.0000 0.0000 0.0000 73.1122 0.0000
# 6 0.0000 0.0000 0.0000 0.0000 0.0000 42.4549
#
#
#
# Elastic Compliance Matrix: (Units=1/GPa)
#
#
# Indices 1 2 3 4 5 6 
#
# 1 0.005881 0.000238 -0.002793 0.000000 0.000000 0.000000
# 2 0.000238 0.010805 -0.001816 0.000000 0.000000 0.000000
# 3 -0.002793 -0.001816 0.008886 0.000000 0.000000 0.000000
# 4 0.000000 0.000000 0.000000 0.034380 0.000000 0.000000
# 5 0.000000 0.000000 0.000000 0.000000 0.013678 0.000000
# 6 0.000000 0.000000 0.000000 0.000000 0.000000 0.023554
#
#
# Mechanical properties :
#
#
# Convention : Reuss Voigt Hill
#
# Bulk Modulus (GPa) = 59.42564 68.68566 64.05565
# Shear Modulus (GPa) = 44.82841 51.67836 48.25339
#
# Velocity S-wave (km/s) = 3.90343 4.19106 4.04980
# Velocity P-wave (km/s) = 6.36506 6.83854 6.60604
#
# Compressibility (1/GPa) = 0.01682775
#
# Stress axis : x y z
#
# Youngs Moduli (GPa) = 170.04448 92.54952 112.54175
#
# Poissons Ratio (x) = -0.02201 0.31434
# Poissons Ratio (y) = -0.04043 0.20443
# Poissons Ratio (z) = 0.47496 0.16811
#
# Static dielectric constant tensor:
#      x y z
#    x 2.386470 0.000000 0.000000 
#    y 0.000000 2.306630 0.000000 
#    z 0.000000 0.000000 2.381020 
# 
# From -- ./inp_files/16775.got.cif
#   From: 2010.05.17/outbox.cif.g08.bks.cpg/sg60_9_cif.got.tgz:16775.got - 2010.06.03 14:59:27.
