data_PCOD9454899
_publ_section_title
;
Structure prediction by ZEFSAII (Michael W. Deem and Ramdas Pophale) SiO2 
 PCOD9454899
Probable space group: P B C N
;
_chemical_formula_sum "Si O2"
_cell_formula_units_Z 60
_cell_length_a 18.618528
_cell_length_b 22.172891
_cell_length_c 6.293516
_cell_angle_alpha 90.000000
_cell_angle_beta 90.000000
_cell_angle_gamma 90.000000
_cell_volume 2598.130762
_symmetry_space_group_name_H-M "P B C N"
_symmetry_group_IT_number 60
_symmetry_cell_setting 'orthorhombic'
loop_
_space_group_symop_operation_xyz
x,y,z
1/2-x,1/2-y,1/2+z
1/2+x,1/2-y,-z
-x,y,1/2-z
-x,-y,-z
1/2+x,1/2+y,1/2-z
1/2-x,1/2+y,z
x,-y,1/2+z
loop_
_atom_site_type_symbol
_atom_site_label
_atom_site_fract_x
_atom_site_fract_y
_atom_site_fract_z
Si Si1 0.921473 0.768979 0.651718
Si Si2 0.574536 0.869204 0.119511
Si Si3 0.655099 0.359797 0.410998
Si Si4 0.866772 0.428122 0.503071
Si Si5 0.292499 0.523318 0.421824
Si Si6 0.705660 0.816237 0.653340
Si Si7 0.187914 0.183397 0.997266
Si Si8 0.000000 0.561677 0.250000
O O1 0.900531 0.700028 0.601754
O O2 0.908992 0.813285 0.454305
O O3 0.000000 0.769764 0.750000
O O4 0.868101 0.797934 0.823092
O O5 0.500000 0.866027 0.250000
O O6 0.625622 0.913308 0.253570
O O7 0.549585 0.899063 0.904253
O O8 0.653921 0.419765 0.548843
O O9 0.731444 0.331146 0.484305
O O10 0.663123 0.368836 0.159713
O O11 0.792069 0.458180 0.566273
O O12 0.859854 0.358870 0.590988
O O13 0.937051 0.463138 0.592126
O O14 0.301809 0.495406 0.668526
O O15 0.693730 0.745392 0.635431
O O16 0.739045 0.832239 0.881286
#
# Coordination Sequence:
#
# PCOD9454899 Si02
#       8
#     8   8   8   8   8   8   8   4
#     4  10  22  37  59  96 139 176 212 249 318 407
#     4   9  19  34  54  90 132 176 210 247 308 392
#     4  10  24  38  63  90 124 170 207 276 333 391
#     4  10  22  39  61  90 125 178 216 273 330 396
#     4  11  28  49  72  97 123 164 230 300 356 393
#     4  10  20  32  54  90 126 168 208 256 314 387
#     4  11  20  34  57  91 132 167 212 258 315 396
#     4  10  22  34  62  88 140 174 222 258 320 398
#
# _framework density 23.093525
#
# number of rings (size 3 to 8) (size 9 to 14) (size 15 to 20)
#    0.000    1.867    2.667    0.000    9.333    1.600 
#    0.000    0.667    0.000    0.800    0.000    0.000 
#    0.000    0.000    0.000    0.000    0.000    0.000 
#
# Total GULP energy -334427.900702 kJ/mol
# GULP energy per Si atom -5573.798345 kJ/mol
# Density = 2.304096 g / cm^3
# Si number density = 23.093525 Si / 1000 Ang^3
#
#
#
# Elastic Constant Matrix: (Units=GPa)
#
#
# Indices 1 2 3 4 5 6 
#
# 1 47.5383 7.1121 10.1817 0.0000 0.0000 0.0000
# 2 7.1121 60.7158 27.8339 0.0000 0.0000 0.0000
# 3 10.1817 27.8339 111.5085 0.0000 0.0000 0.0000
# 4 0.0000 0.0000 0.0000 -9.9640 0.0000 0.0000
# 5 0.0000 0.0000 0.0000 0.0000 33.9037 0.0000
# 6 0.0000 0.0000 0.0000 0.0000 0.0000 26.0912
#
#
#
# Elastic Compliance Matrix: (Units=1/GPa)
#
#
# Indices 1 2 3 4 5 6 
#
# 1 0.021636 -0.001839 -0.001516 0.000000 0.000000 0.000000
# 2 -0.001839 0.018755 -0.004513 0.000000 0.000000 0.000000
# 3 -0.001516 -0.004513 0.010233 0.000000 0.000000 0.000000
# 4 0.000000 0.000000 0.000000 -0.100361 0.000000 0.000000
# 5 0.000000 0.000000 0.000000 0.000000 0.029495 0.000000
# 6 0.000000 0.000000 0.000000 0.000000 0.000000 0.038327
#
#
# Mechanical properties :
#
#
# Convention : Reuss Voigt Hill
#
# Bulk Modulus (GPa) = 28.66545 34.44643 31.55594
# Shear Modulus (GPa) = 110.00784 21.64848 65.82816
#
# Velocity S-wave (km/s) = 6.90936 3.06506 5.34480
# Velocity P-wave (km/s) = 8.72307 5.24162 7.19606
#
# Compressibility (1/GPa) = 0.03488520
#
# Stress axis : x y z
#
# Youngs Moduli (GPa) = 46.22005 53.31989 97.72295
#
# Poissons Ratio (x) = 0.09806 0.14819
# Poissons Ratio (y) = 0.08501 0.44107
# Poissons Ratio (z) = 0.07009 0.24066
#
# Static dielectric constant tensor:
#      x y z
#    x 1.856650 0.000000 0.000000 
#    y 0.000000 1.917220 0.000000 
#    z 0.000000 0.000000 2.025740 
# 
# From -- ./inp_files/2178.got.cif
#   From: 2010.05.17/outbox.cif.g08.bks.cpg/sg60_2_cif.got.tgz:2178.got - 2010.06.03 14:59:27.
