data_PCOD9454360
_publ_section_title
;
Structure prediction by ZEFSAII (Michael W. Deem and Ramdas Pophale) SiO2 
 PCOD9454360
Probable space group: P B C N
;
_chemical_formula_sum "Si O2"
_cell_formula_units_Z 56
_cell_length_a 17.020038
_cell_length_b 25.976010
_cell_length_c 5.623429
_cell_angle_alpha 90.000000
_cell_angle_beta 90.000000
_cell_angle_gamma 90.000000
_cell_volume 2486.189251
_symmetry_space_group_name_H-M "P B C N"
_symmetry_group_IT_number 60
_symmetry_cell_setting 'orthorhombic'
loop_
_space_group_symop_operation_xyz
x,y,z
1/2-x,1/2-y,1/2+z
1/2+x,1/2-y,-z
-x,y,1/2-z
-x,-y,-z
1/2+x,1/2+y,1/2-z
1/2-x,1/2+y,z
x,-y,1/2+z
loop_
_atom_site_type_symbol
_atom_site_label
_atom_site_fract_x
_atom_site_fract_y
_atom_site_fract_z
Si Si1 0.898627 0.015159 0.628223
Si Si2 0.215791 0.523900 0.343827
Si Si3 0.545241 0.721016 0.496250
Si Si4 0.643133 0.792329 0.214597
Si Si5 0.705492 0.308753 0.526958
Si Si6 0.801720 0.630034 0.392434
Si Si7 0.851954 0.126942 0.659830
O O1 0.899141 0.076577 0.602419
O O2 0.931694 0.993503 0.387169
O O3 0.810380 0.987757 0.647627
O O4 0.187490 0.506302 0.605338
O O5 0.189597 0.582702 0.288177
O O6 0.500000 0.707011 0.250000
O O7 0.583975 0.776210 0.424318
O O8 0.611640 0.677277 0.535488
O O9 0.500000 0.723184 0.750000
O O10 0.730033 0.797908 0.324799
O O11 0.651329 0.740463 0.060568
O O12 0.630985 0.842035 0.047865
O O13 0.757679 0.324619 0.749951
O O14 0.654982 0.357091 0.435384
O O15 0.735230 0.611142 0.575791
#
# Coordination Sequence:
#
# PCOD9454360 Si02
#       7
#     8   8   8   8   8   8   8
#     4  10  19  32  55  85 116 153 189 243 304 377
#     4  10  19  33  49  86 123 157 181 224 303 386
#     4  12  28  45  61  80 120 173 223 264 292 355
#     4  11  22  36  57  89 121 155 200 252 318 369
#     4  11  19  34  59  92 122 152 186 260 316 396
#     4  11  21  32  61  89 122 157 190 249 313 393
#     4  11  22  36  60  87 117 161 209 246 314 367
#
# _framework density 22.524432000000001
#
# number of rings (size 3 to 8) (size 9 to 14) (size 15 to 20)
#    0.000    1.143    5.714    3.429    4.000    0.000 
#    0.000    0.000    0.000    2.571    0.000    0.000 
#    0.000    3.429    0.000    0.000    0.000    0.000 
#
# Total GULP energy -312232.710821 kJ/mol
# GULP energy per Si atom -5575.584122 kJ/mol
# Density = 2.247317 g / cm^3
# Si number density = 22.524432 Si / 1000 Ang^3
#
#
#
# Elastic Constant Matrix: (Units=GPa)
#
#
# Indices 1 2 3 4 5 6 
#
# 1 9.4870 9.2892 6.4961 0.0000 0.0000 0.0000
# 2 9.2892 93.7899 33.2983 0.0000 0.0000 0.0000
# 3 6.4961 33.2983 122.6593 0.0000 0.0000 0.0000
# 4 0.0000 0.0000 0.0000 35.7768 0.0000 0.0000
# 5 0.0000 0.0000 0.0000 0.0000 31.2326 0.0000
# 6 0.0000 0.0000 0.0000 0.0000 0.0000 4.3180
#
#
#
# Elastic Compliance Matrix: (Units=1/GPa)
#
#
# Indices 1 2 3 4 5 6 
#
# 1 0.117999 -0.010478 -0.003405 0.000000 0.000000 0.000000
# 2 -0.010478 0.012730 -0.002901 0.000000 0.000000 0.000000
# 3 -0.003405 -0.002901 0.009120 0.000000 0.000000 0.000000
# 4 0.000000 0.000000 0.000000 0.027951 0.000000 0.000000
# 5 0.000000 0.000000 0.000000 0.000000 0.032018 0.000000
# 6 0.000000 0.000000 0.000000 0.000000 0.000000 0.231590
#
#
# Mechanical properties :
#
#
# Convention : Reuss Voigt Hill
#
# Bulk Modulus (GPa) = 9.40896 36.01148 22.71022
# Shear Modulus (GPa) = 9.99196 26.05566 18.02381
#
# Velocity S-wave (km/s) = 2.10848 3.40483 2.83183
# Velocity P-wave (km/s) = 3.18023 5.61067 4.56034
#
# Compressibility (1/GPa) = 0.10628170
#
# Stress axis : x y z
#
# Youngs Moduli (GPa) = 8.47466 78.55577 109.64348
#
# Poissons Ratio (x) = 0.82312 0.37331
# Poissons Ratio (y) = 0.08880 0.31806
# Poissons Ratio (z) = 0.02885 0.22788
#
# Static dielectric constant tensor:
#      x y z
#    x 1.961240 0.000000 0.000000 
#    y 0.000000 1.876840 0.000000 
#    z 0.000000 0.000000 1.913860 
# 
# From -- ./inp_files/2130.got.cif
#   From: 2010.05.17/outbox.cif.g08.bks.cpg/sg60_2_cif.got.tgz:2130.got - 2010.06.03 14:59:27.
