data_PCOD9454487
_publ_section_title
;
Structure prediction by ZEFSAII (Michael W. Deem and Ramdas Pophale) SiO2 
 PCOD9454487
Probable space group: P B C N
;
_chemical_formula_sum "Si O2"
_cell_formula_units_Z 64
_cell_length_a 9.877583
_cell_length_b 9.792770
_cell_length_c 30.873726
_cell_angle_alpha 90.000000
_cell_angle_beta 90.000000
_cell_angle_gamma 90.000000
_cell_volume 2986.381508
_symmetry_space_group_name_H-M "P B C N"
_symmetry_group_IT_number 60
_symmetry_cell_setting 'orthorhombic'
loop_
_space_group_symop_operation_xyz
x,y,z
1/2-x,1/2-y,1/2+z
1/2+x,1/2-y,-z
-x,y,1/2-z
-x,-y,-z
1/2+x,1/2+y,1/2-z
1/2-x,1/2+y,z
x,-y,1/2+z
loop_
_atom_site_type_symbol
_atom_site_label
_atom_site_fract_x
_atom_site_fract_y
_atom_site_fract_z
Si Si1 0.541926 0.632052 0.920361
Si Si2 0.476768 0.288971 0.331732
Si Si3 0.889718 0.128658 0.063240
Si Si4 0.094531 0.937778 0.787418
Si Si5 0.736002 0.005709 0.985515
Si Si6 0.395181 0.752941 0.999763
Si Si7 0.337997 0.789483 0.355600
Si Si8 0.410720 0.014081 0.289157
O O1 0.571735 0.699996 0.874071
O O2 0.443797 0.503068 0.911188
O O3 0.666011 0.567142 0.947805
O O4 0.457503 0.732282 0.952001
O O5 0.478917 0.423312 0.302396
O O6 0.322934 0.286634 0.349503
O O7 0.485377 0.153670 0.303081
O O8 0.864398 0.253544 0.094851
O O9 0.003015 0.165909 0.028953
O O10 0.770767 0.075950 0.032250
O O11 0.000000 0.879141 0.750000
O O12 0.103288 0.833867 0.827068
O O13 0.252956 0.963757 0.775121
O O14 0.602565 0.096184 0.979346
O O15 0.759895 0.844455 0.992519
O O16 0.396790 0.923723 0.332780
O O17 0.500000 0.954065 0.250000
#
# Coordination Sequence:
#
# PCOD9454487 Si02
#       8
#     8   8   8   8   8   8   8   8
#     4   9  17  33  54  74 102 141 181 213 254 315
#     4  10  19  34  57  80 104 135 179 222 263 315
#     4   9  17  33  54  74 102 141 181 213 254 315
#     4  10  20  36  60  79 100 144 184 209 262 350
#     4   9  18  33  51  73 106 142 175 215 259 310
#     4   9  18  33  51  73 106 142 175 215 259 310
#     4  10  19  34  57  80 104 135 179 222 263 315
#     4  10  22  38  54  83 116 132 166 237 288 306
#
# _framework density 21.430620000000001
#
# number of rings (size 3 to 8) (size 9 to 14) (size 15 to 20)
#    0.000    2.500    1.250    3.000    0.000    0.000 
#    4.500    3.750    0.000    0.000    0.000    0.000 
#    0.000    0.000    0.000    0.000    0.000    0.000 
#
# Total GULP energy -356437.183632 kJ/mol
# GULP energy per Si atom -5569.330994 kJ/mol
# Density = 2.138184 g / cm^3
# Si number density = 21.430620 Si / 1000 Ang^3
#
#
#
# Elastic Constant Matrix: (Units=GPa)
#
#
# Indices 1 2 3 4 5 6 
#
# 1 10.3713 -3.1057 13.1909 0.0000 0.0000 0.0000
# 2 -3.1057 64.5191 8.5772 0.0000 0.0000 0.0000
# 3 13.1909 8.5772 95.0199 0.0000 0.0000 0.0000
# 4 0.0000 0.0000 0.0000 -4.4204 0.0000 0.0000
# 5 0.0000 0.0000 0.0000 0.0000 18.1333 0.0000
# 6 0.0000 0.0000 0.0000 0.0000 0.0000 15.6478
#
#
#
# Elastic Compliance Matrix: (Units=1/GPa)
#
#
# Indices 1 2 3 4 5 6 
#
# 1 0.121205 0.008169 -0.017563 0.000000 0.000000 0.000000
# 2 0.008169 0.016238 -0.002600 0.000000 0.000000 0.000000
# 3 -0.017563 -0.002600 0.013197 0.000000 0.000000 0.000000
# 4 0.000000 0.000000 0.000000 -0.226224 0.000000 0.000000
# 5 0.000000 0.000000 0.000000 0.000000 0.055147 0.000000
# 6 0.000000 0.000000 0.000000 0.000000 0.000000 0.063907
#
#
# Mechanical properties :
#
#
# Convention : Reuss Voigt Hill
#
# Bulk Modulus (GPa) = 7.89566 23.02615 15.46091
# Shear Modulus (GPa) = 45.58884 15.95532 30.77208
#
# Velocity S-wave (km/s) = 4.61724 2.73153 3.79343
# Velocity P-wave (km/s) = 5.66723 4.55150 5.13973
#
# Compressibility (1/GPa) = 0.12665185
#
# Stress axis : x y z
#
# Youngs Moduli (GPa) = 8.25049 61.58344 75.77483
#
# Poissons Ratio (x) = -0.50308 1.33087
# Poissons Ratio (y) = -0.06740 0.19700
# Poissons Ratio (z) = 0.14491 0.16011
#
# Static dielectric constant tensor:
#      x y z
#    x 1.973300 0.000000 0.000000 
#    y 0.000000 1.938640 0.000000 
#    z 0.000000 0.000000 2.013890 
# 
# From -- ./inp_files/25367.got.cif
#   From: 2010.05.17/outbox.cif.g08.bks.cpg/sg60_13_cif.got.tgz:25367.got - 2010.06.03 14:59:27.
