data_PCOD9454100
_publ_section_title
;
Structure prediction by ZEFSAII (Michael W. Deem and Ramdas Pophale) SiO2 
 PCOD9454100
Probable space group: P B C N
;
_chemical_formula_sum "Si O2"
_cell_formula_units_Z 40
_cell_length_a 14.836433
_cell_length_b 10.381901
_cell_length_c 10.107493
_cell_angle_alpha 90.000000
_cell_angle_beta 90.000000
_cell_angle_gamma 90.000000
_cell_volume 1556.860973
_symmetry_space_group_name_H-M "P B C N"
_symmetry_group_IT_number 60
_symmetry_cell_setting 'orthorhombic'
loop_
_space_group_symop_operation_xyz
x,y,z
1/2-x,1/2-y,1/2+z
1/2+x,1/2-y,-z
-x,y,1/2-z
-x,-y,-z
1/2+x,1/2+y,1/2-z
1/2-x,1/2+y,z
x,-y,1/2+z
loop_
_atom_site_type_symbol
_atom_site_label
_atom_site_fract_x
_atom_site_fract_y
_atom_site_fract_z
Si Si1 0.402610 0.859110 0.801854
Si Si2 0.745156 0.988001 0.078359
Si Si3 0.242423 0.759953 0.103400
Si Si4 0.430032 0.475470 0.859801
Si Si5 0.931848 0.803849 0.936129
O O1 0.500000 0.894591 0.750000
O O2 0.344521 0.981447 0.841624
O O3 0.337398 0.773501 0.706415
O O4 0.425492 0.784713 0.936702
O O5 0.827150 0.006840 0.181691
O O6 0.759010 0.102247 0.969697
O O7 0.737135 0.850367 0.010028
O O8 0.346502 0.737979 0.151038
O O9 0.500000 0.530649 0.750000
O O10 0.468308 0.331226 0.881597
O O11 0.420646 0.553525 0.997952
#
# Coordination Sequence:
#
# PCOD9454100 Si02
#       5
#     8   8   8   8   8
#     4  11  22  38  60  85 123 167 203 246 303 364
#     4  10  23  39  59  89 120 157 206 249 302 371
#     4  10  22  40  61  87 123 158 199 253 305 359
#     4  10  18  34  60  89 122 156 199 258 309 352
#     4   9  20  35  58  92 120 155 206 250 304 368
#
# _framework density 25.692723999999998
#
# number of rings (size 3 to 8) (size 9 to 14) (size 15 to 20)
#    0.000    2.000    0.000    3.000    0.000    8.800 
#    0.000    1.000    0.000    0.000    0.000    0.000 
#    0.000    0.000    0.000    0.000    0.000    0.000 
#
# Total GULP energy -223242.331739 kJ/mol
# GULP energy per Si atom -5581.058293 kJ/mol
# Density = 2.563425 g / cm^3
# Si number density = 25.692724 Si / 1000 Ang^3
#
#
#
# Elastic Constant Matrix: (Units=GPa)
#
#
# Indices 1 2 3 4 5 6 
#
# 1 187.3782 24.8061 36.8373 0.0000 0.0000 0.0000
# 2 24.8061 84.4592 19.5841 0.0000 0.0000 0.0000
# 3 36.8373 19.5841 82.5384 0.0000 0.0000 0.0000
# 4 0.0000 0.0000 0.0000 35.9990 0.0000 0.0000
# 5 0.0000 0.0000 0.0000 0.0000 23.9829 0.0000
# 6 0.0000 0.0000 0.0000 0.0000 0.0000 18.4956
#
#
#
# Elastic Compliance Matrix: (Units=1/GPa)
#
#
# Indices 1 2 3 4 5 6 
#
# 1 0.005963 -0.001200 -0.002376 0.000000 0.000000 0.000000
# 2 -0.001200 0.012771 -0.002495 0.000000 0.000000 0.000000
# 3 -0.002376 -0.002495 0.013768 0.000000 0.000000 0.000000
# 4 0.000000 0.000000 0.000000 0.027779 0.000000 0.000000
# 5 0.000000 0.000000 0.000000 0.000000 0.041696 0.000000
# 6 0.000000 0.000000 0.000000 0.000000 0.000000 0.054067
#
#
# Mechanical properties :
#
#
# Convention : Reuss Voigt Hill
#
# Bulk Modulus (GPa) = 49.11730 57.42564 53.27147
# Shear Modulus (GPa) = 28.57586 33.90539 31.24062
#
# Velocity S-wave (km/s) = 3.33861 3.63664 3.49081
# Velocity P-wave (km/s) = 5.83270 6.32716 6.08496
#
# Compressibility (1/GPa) = 0.02035942
#
# Stress axis : x y z
#
# Youngs Moduli (GPa) = 167.70368 78.30254 72.63173
#
# Poissons Ratio (x) = 0.09399 0.17261
# Poissons Ratio (y) = 0.20129 0.18118
# Poissons Ratio (z) = 0.39854 0.19533
#
# Static dielectric constant tensor:
#      x y z
#    x 2.303030 0.000000 0.000000 
#    y 0.000000 2.006030 0.000000 
#    z 0.000000 0.000000 2.159870 
# 
# From -- ./inp_files/11705.got.cif
#   From: 2010.05.17/outbox.cif.g08.bks.cpg/sg60_6_cif.got.tgz:11705.got - 2010.06.03 14:59:27.
