data_PCOD9454347
_publ_section_title
;
Structure prediction by ZEFSAII (Michael W. Deem and Ramdas Pophale) SiO2 
 PCOD9454347
Probable space group: P B C N
;
_chemical_formula_sum "Si O2"
_cell_formula_units_Z 48
_cell_length_a 16.379264
_cell_length_b 18.525893
_cell_length_c 8.920149
_cell_angle_alpha 90.000000
_cell_angle_beta 90.000000
_cell_angle_gamma 90.000000
_cell_volume 2706.734404
_symmetry_space_group_name_H-M "P B C N"
_symmetry_group_IT_number 60
_symmetry_cell_setting 'orthorhombic'
loop_
_space_group_symop_operation_xyz
x,y,z
1/2-x,1/2-y,1/2+z
1/2+x,1/2-y,-z
-x,y,1/2-z
-x,-y,-z
1/2+x,1/2+y,1/2-z
1/2-x,1/2+y,z
x,-y,1/2+z
loop_
_atom_site_type_symbol
_atom_site_label
_atom_site_fract_x
_atom_site_fract_y
_atom_site_fract_z
Si Si1 0.232296 0.321567 0.880783
Si Si2 0.337837 0.543925 0.397164
Si Si3 0.909475 0.082397 0.797255
Si Si4 0.403667 0.087173 0.245998
Si Si5 0.752207 0.668527 0.762072
Si Si6 0.325494 0.041515 0.931861
O O1 0.295253 0.384709 0.831107
O O2 0.146092 0.344921 0.810814
O O3 0.259978 0.244326 0.821550
O O4 0.228372 0.324386 0.061459
O O5 0.382958 0.492099 0.282433
O O6 0.398725 0.568781 0.526633
O O7 0.261312 0.498173 0.465973
O O8 0.841254 0.140806 0.752516
O O9 0.000000 0.102578 0.750000
O O10 0.500000 0.098172 0.250000
O O11 0.379657 0.018778 0.349630
O O12 0.368877 0.069412 0.081094
O O13 0.805641 0.606885 0.681420
#
# Coordination Sequence:
#
# PCOD9454347 Si02
#       6
#     8   8   8   8   8   8
#     4  10  20  36  54  77 104 140 182 217 261 319
#     4   9  18  33  53  75 100 134 173 207 250 311
#     4  10  19  32  53  79 105 130 164 213 261 304
#     4  11  21  34  56  82 109 137 174 227 276 318
#     4  10  21  36  56  77 105 143 181 217 259 320
#     4  10  19  35  55  78 105 140 180 217 262 322
#
# _framework density 17.733547000000002
#
# number of rings (size 3 to 8) (size 9 to 14) (size 15 to 20)
#    0.000    2.000    0.000    7.000    0.000    2.000 
#    0.000    0.000    0.000    1.000    0.000    0.000 
#    0.000    0.000    0.000    0.000    0.000    0.000 
#
# Total GULP energy -267968.941660 kJ/mol
# GULP energy per Si atom -5582.686285 kJ/mol
# Density = 1.769318 g / cm^3
# Si number density = 17.733547 Si / 1000 Ang^3
#
#
#
# Elastic Constant Matrix: (Units=GPa)
#
#
# Indices 1 2 3 4 5 6 
#
# 1 56.6492 -20.4363 -0.1451 0.0000 0.0000 0.0000
# 2 -20.4363 43.7998 -12.5137 0.0000 0.0000 0.0000
# 3 -0.1451 -12.5137 41.4970 0.0000 0.0000 0.0000
# 4 0.0000 0.0000 0.0000 27.6857 0.0000 0.0000
# 5 0.0000 0.0000 0.0000 0.0000 23.2080 0.0000
# 6 0.0000 0.0000 0.0000 0.0000 0.0000 8.1237
#
#
#
# Elastic Compliance Matrix: (Units=1/GPa)
#
#
# Indices 1 2 3 4 5 6 
#
# 1 0.021659 0.011082 0.003418 0.000000 0.000000 0.000000
# 2 0.011082 0.030654 0.009283 0.000000 0.000000 0.000000
# 3 0.003418 0.009283 0.026909 0.000000 0.000000 0.000000
# 4 0.000000 0.000000 0.000000 0.036120 0.000000 0.000000
# 5 0.000000 0.000000 0.000000 0.000000 0.043089 0.000000
# 6 0.000000 0.000000 0.000000 0.000000 0.000000 0.123097
#
#
# Mechanical properties :
#
#
# Convention : Reuss Voigt Hill
#
# Bulk Modulus (GPa) = 7.88721 8.41733 8.15227
# Shear Modulus (GPa) = 18.10120 23.47289 20.78704
#
# Velocity S-wave (km/s) = 3.19836 3.64214 3.42744
# Velocity P-wave (km/s) = 4.25401 4.73748 4.50224
#
# Compressibility (1/GPa) = 0.12678751
#
# Stress axis : x y z
#
# Youngs Moduli (GPa) = 46.16979 32.62218 37.16190
#
# Poissons Ratio (x) = -0.36153 -0.12701
# Poissons Ratio (y) = -0.51166 -0.34496
# Poissons Ratio (z) = -0.15779 -0.30282
#
# Static dielectric constant tensor:
#      x y z
#    x 1.592210 0.000000 0.000000 
#    y 0.000000 1.589120 0.000000 
#    z 0.000000 0.000000 1.603840 
# 
# From -- ./inp_files/5884.got.cif
#   From: 2010.05.17/outbox.cif.g08.bks.cpg/sg60_3_cif.got.tgz:5884.got - 2010.06.03 14:59:27.
