data_PCOD9454913
_publ_section_title
;
Structure prediction by ZEFSAII (Michael W. Deem and Ramdas Pophale) SiO2 
 PCOD9454913
Probable space group: P B C N
;
_chemical_formula_sum "Si O2"
_cell_formula_units_Z 60
_cell_length_a 14.567889
_cell_length_b 14.462714
_cell_length_c 14.923764
_cell_angle_alpha 90.000000
_cell_angle_beta 90.000000
_cell_angle_gamma 90.000000
_cell_volume 3144.305928
_symmetry_space_group_name_H-M "P B C N"
_symmetry_group_IT_number 60
_symmetry_cell_setting 'orthorhombic'
loop_
_space_group_symop_operation_xyz
x,y,z
1/2-x,1/2-y,1/2+z
1/2+x,1/2-y,-z
-x,y,1/2-z
-x,-y,-z
1/2+x,1/2+y,1/2-z
1/2-x,1/2+y,z
x,-y,1/2+z
loop_
_atom_site_type_symbol
_atom_site_label
_atom_site_fract_x
_atom_site_fract_y
_atom_site_fract_z
Si Si1 0.951816 0.761846 0.563449
Si Si2 0.900484 0.339685 0.232622
Si Si3 0.202281 0.487423 0.803433
Si Si4 0.000000 0.588720 0.250000
Si Si5 0.290568 0.397271 0.980022
Si Si6 0.240832 0.949408 0.611773
Si Si7 0.338611 0.752168 0.081349
Si Si8 0.941931 0.579770 0.448256
O O1 0.930040 0.742651 0.667771
O O2 0.884330 0.842155 0.535139
O O3 0.929657 0.665518 0.514163
O O4 0.059869 0.775030 0.547429
O O5 0.826324 0.405499 0.185534
O O6 0.858401 0.305095 0.325183
O O7 0.000000 0.389767 0.250000
O O8 0.103864 0.446304 0.773278
O O9 0.246534 0.441462 0.890321
O O10 0.265529 0.473908 0.716317
O O11 0.980200 0.619960 0.353996
O O12 0.312223 0.478558 0.050207
O O13 0.217430 0.323002 0.019450
O O14 0.215566 0.842793 0.596952
O O15 0.345059 0.964410 0.577959
O O16 0.000000 0.500000 0.500000
#
# Coordination Sequence:
#
# PCOD9454913 Si02
#       8
#     8   8   8   4   8   8   8   8
#     4  11  23  39  65  91 128 168 214 261 318 396
#     4  10  20  38  64  95 122 165 218 267 327 379
#     4  11  21  35  61  95 127 161 208 272 321 387
#     4  10  20  32  58  94 126 156 198 260 338 362
#     4  12  24  41  63  97 126 170 219 261 328 391
#     4  11  23  40  62  89 130 166 207 260 323 381
#     4  11  23  42  62  92 128 168 214 271 317 388
#     4  11  21  37  63  95 123 159 208 271 321 370
#
# _framework density 19.082111999999999
#
# number of rings (size 3 to 8) (size 9 to 14) (size 15 to 20)
#    0.000    1.067    3.333    4.800    3.733    0.533 
#    0.000    0.667    2.933    0.000    0.000    0.000 
#    0.000    0.000    0.000    0.000    0.000    0.000 
#
# Total GULP energy -334350.892682 kJ/mol
# GULP energy per Si atom -5572.514878 kJ/mol
# Density = 1.903868 g / cm^3
# Si number density = 19.082112 Si / 1000 Ang^3
#
#
#
# Elastic Constant Matrix: (Units=GPa)
#
#
# Indices 1 2 3 4 5 6 
#
# 1 38.9409 19.3885 27.2948 0.0000 0.0000 0.0000
# 2 19.3885 84.2689 45.9298 0.0000 0.0000 0.0000
# 3 27.2948 45.9298 124.5349 0.0000 0.0000 0.0000
# 4 0.0000 0.0000 0.0000 13.5341 0.0000 0.0000
# 5 0.0000 0.0000 0.0000 0.0000 20.3524 0.0000
# 6 0.0000 0.0000 0.0000 0.0000 0.0000 38.3444
#
#
#
# Elastic Compliance Matrix: (Units=1/GPa)
#
#
# Indices 1 2 3 4 5 6 
#
# 1 0.031578 -0.004372 -0.005309 0.000000 0.000000 0.000000
# 2 -0.004372 0.015458 -0.004743 0.000000 0.000000 0.000000
# 3 -0.005309 -0.004743 0.010943 0.000000 0.000000 0.000000
# 4 0.000000 0.000000 0.000000 0.073887 0.000000 0.000000
# 5 0.000000 0.000000 0.000000 0.000000 0.049134 0.000000
# 6 0.000000 0.000000 0.000000 0.000000 0.000000 0.026079
#
#
# Mechanical properties :
#
#
# Convention : Reuss Voigt Hill
#
# Bulk Modulus (GPa) = 34.32732 48.10786 41.21759
# Shear Modulus (GPa) = 20.35535 24.78830 22.57183
#
# Velocity S-wave (km/s) = 3.26962 3.60812 3.44303
# Velocity P-wave (km/s) = 5.68174 6.52869 6.11988
#
# Compressibility (1/GPa) = 0.02913132
#
# Stress axis : x y z
#
# Youngs Moduli (GPa) = 31.66800 64.69294 91.38650
#
# Poissons Ratio (x) = 0.28284 0.48513
# Poissons Ratio (y) = 0.13845 0.43342
# Poissons Ratio (z) = 0.16811 0.30682
#
# Static dielectric constant tensor:
#      x y z
#    x 1.682340 0.000000 0.000000 
#    y 0.000000 1.719960 0.000000 
#    z 0.000000 0.000000 1.724870 
# 
# From -- ./inp_files/17002.got.cif
#   From: 2010.05.17/outbox.cif.g08.bks.cpg/sg60_9_cif.got.tgz:17002.got - 2010.06.03 14:59:27.
