data_PCOD9454624
_publ_section_title
;
Structure prediction by ZEFSAII (Michael W. Deem and Ramdas Pophale) SiO2 
 PCOD9454624
Probable space group: P B C N
;
_chemical_formula_sum "Si O2"
_cell_formula_units_Z 32
_cell_length_a 5.890322
_cell_length_b 19.491393
_cell_length_c 11.074083
_cell_angle_alpha 90.000000
_cell_angle_beta 90.000000
_cell_angle_gamma 90.000000
_cell_volume 1271.421903
_symmetry_space_group_name_H-M "P B C N"
_symmetry_group_IT_number 60
_symmetry_cell_setting 'orthorhombic'
loop_
_space_group_symop_operation_xyz
x,y,z
1/2-x,1/2-y,1/2+z
1/2+x,1/2-y,-z
-x,y,1/2-z
-x,-y,-z
1/2+x,1/2+y,1/2-z
1/2-x,1/2+y,z
x,-y,1/2+z
loop_
_atom_site_type_symbol
_atom_site_label
_atom_site_fract_x
_atom_site_fract_y
_atom_site_fract_z
Si Si1 0.304674 0.208453 0.150663
Si Si2 0.307319 0.968251 0.414235
Si Si3 0.556581 0.404928 0.594294
Si Si4 0.933451 0.335760 0.423099
O O1 0.500000 0.198171 0.250000
O O2 0.120200 0.147811 0.154900
O O3 0.190115 0.282553 0.164436
O O4 0.401905 0.205578 0.014251
O O5 0.106407 0.940012 0.496327
O O6 0.427112 0.899267 0.367360
O O7 0.802892 0.967721 0.659238
O O8 0.500000 0.000000 0.500000
O O9 0.745005 0.365425 0.515880
#
# Coordination Sequence:
#
# PCOD9454624 Si02
#       4
#     8   8   8   8
#     4  11  22  35  58  96 133 173 217 269 334 408
#     4   8  16  31  60  89 111 168 213 264 335 387
#     4   9  17  34  56  91 122 164 216 268 327 396
#     4  10  19  36  57  92 130 168 216 269 334 398
#
# _framework density 25.168671
#
# number of rings (size 3 to 8) (size 9 to 14) (size 15 to 20)
#    0.000    2.500    2.500    0.000    0.000    1.000 
#    0.000    0.000    0.000    0.000  201.500    0.000 
#    0.000    0.000    0.000    0.000    0.000    0.000 
#
# Total GULP energy -178655.151169 kJ/mol
# GULP energy per Si atom -5582.973474 kJ/mol
# Density = 2.511139 g / cm^3
# Si number density = 25.168671 Si / 1000 Ang^3
#
#
#
# Elastic Constant Matrix: (Units=GPa)
#
#
# Indices 1 2 3 4 5 6 
#
# 1 139.3648 98.5739 29.0586 0.0000 0.0000 0.0000
# 2 98.5739 235.9707 35.8728 0.0000 0.0000 0.0000
# 3 29.0586 35.8728 54.6334 0.0000 0.0000 0.0000
# 4 0.0000 0.0000 0.0000 13.5500 0.0000 0.0000
# 5 0.0000 0.0000 0.0000 0.0000 47.2776 0.0000
# 6 0.0000 0.0000 0.0000 0.0000 0.0000 78.6891
#
#
#
# Elastic Compliance Matrix: (Units=1/GPa)
#
#
# Indices 1 2 3 4 5 6 
#
# 1 0.010620 -0.003974 -0.003039 0.000000 0.000000 0.000000
# 2 -0.003974 0.006195 -0.001954 0.000000 0.000000 0.000000
# 3 -0.003039 -0.001954 0.021203 0.000000 0.000000 0.000000
# 4 0.000000 0.000000 0.000000 0.073801 0.000000 0.000000
# 5 0.000000 0.000000 0.000000 0.000000 0.021152 0.000000
# 6 0.000000 0.000000 0.000000 0.000000 0.000000 0.012708
#
#
# Mechanical properties :
#
#
# Convention : Reuss Voigt Hill
#
# Bulk Modulus (GPa) = 49.79132 84.10883 66.95008
# Shear Modulus (GPa) = 29.35852 45.66758 37.51305
#
# Velocity S-wave (km/s) = 3.41907 4.26427 3.86484
# Velocity P-wave (km/s) = 5.95086 7.59842 6.82454
#
# Compressibility (1/GPa) = 0.02008382
#
# Stress axis : x y z
#
# Youngs Moduli (GPa) = 94.15959 161.41709 47.16277
#
# Poissons Ratio (x) = 0.64155 0.14333
# Poissons Ratio (y) = 0.37424 0.09215
# Poissons Ratio (z) = 0.28616 0.31538
#
# Static dielectric constant tensor:
#      x y z
#    x 1.814510 0.000000 0.000000 
#    y 0.000000 1.925470 0.000000 
#    z 0.000000 0.000000 1.994670 
# 
# From -- ./inp_files/13773.got.cif
#   From: 2010.05.17/outbox.cif.g08.bks.cpg/sg60_7_cif.got.tgz:13773.got - 2010.06.03 14:59:27.
