data_PCOD9454630
_publ_section_title
;
Structure prediction by ZEFSAII (Michael W. Deem and Ramdas Pophale) SiO2 
 PCOD9454630
Probable space group: P B C N
;
_chemical_formula_sum "Si O2"
_cell_formula_units_Z 56
_cell_length_a 20.870403
_cell_length_b 11.929555
_cell_length_c 9.039908
_cell_angle_alpha 90.000000
_cell_angle_beta 90.000000
_cell_angle_gamma 90.000000
_cell_volume 2250.707663
_symmetry_space_group_name_H-M "P B C N"
_symmetry_group_IT_number 60
_symmetry_cell_setting 'orthorhombic'
loop_
_space_group_symop_operation_xyz
x,y,z
1/2-x,1/2-y,1/2+z
1/2+x,1/2-y,-z
-x,y,1/2-z
-x,-y,-z
1/2+x,1/2+y,1/2-z
1/2-x,1/2+y,z
x,-y,1/2+z
loop_
_atom_site_type_symbol
_atom_site_label
_atom_site_fract_x
_atom_site_fract_y
_atom_site_fract_z
Si Si1 0.905711 0.764439 0.098714
Si Si2 0.353524 0.784341 0.200547
Si Si3 0.436167 0.042011 0.291926
Si Si4 0.067743 0.021764 0.727719
Si Si5 0.351934 0.028328 0.044647
Si Si6 0.208918 0.264644 0.665038
Si Si7 0.872715 0.132024 0.056001
O O1 0.886905 0.785293 0.930826
O O2 0.948741 0.653083 0.113426
O O3 0.939461 0.868852 0.169980
O O4 0.841302 0.742270 0.197995
O O5 0.279901 0.751001 0.222885
O O6 0.347759 0.905348 0.117721
O O7 0.388081 0.747510 0.353580
O O8 0.500000 0.975074 0.250000
O O9 0.377315 0.986706 0.379849
O O10 0.410724 0.081767 0.134388
O O11 0.082662 0.070398 0.565332
O O12 0.000000 0.958193 0.750000
O O13 0.126476 0.955307 0.807015
O O14 0.296070 0.114854 0.081192
O O15 0.187336 0.169830 0.546418
#
# Coordination Sequence:
#
# PCOD9454630 Si02
#       7
#     8   8   8   8   8   8   8
#     4   9  21  37  58  89 126 169 221 265 331 417
#     4  11  22  40  63  94 131 172 222 282 339 403
#     4  10  19  36  58  83 119 163 208 270 332 386
#     4  11  23  43  67  97 140 182 221 284 346 401
#     4  10  22  38  60  92 124 162 224 274 327 411
#     4  10  22  41  63  92 131 176 219 282 345 397
#     4  11  24  41  66 101 135 178 235 273 334 419
#
# _framework density 24.881062
#
# number of rings (size 3 to 8) (size 9 to 14) (size 15 to 20)
#    0.000    1.714    0.000    3.857    0.000    3.429 
#    0.000   10.000    0.000    0.000    0.000    0.000 
#    0.000    0.000    0.000    0.000    0.000    0.000 
#
# Total GULP energy -311997.329468 kJ/mol
# GULP energy per Si atom -5571.380883 kJ/mol
# Density = 2.482443 g / cm^3
# Si number density = 24.881062 Si / 1000 Ang^3
#
#
#
# Elastic Constant Matrix: (Units=GPa)
#
#
# Indices 1 2 3 4 5 6 
#
# 1 60.1895 7.8171 38.2313 0.0000 0.0000 0.0000
# 2 7.8171 83.8629 17.7681 0.0000 0.0000 0.0000
# 3 38.2313 17.7681 162.0958 0.0000 0.0000 0.0000
# 4 0.0000 0.0000 0.0000 36.5690 0.0000 0.0000
# 5 0.0000 0.0000 0.0000 0.0000 22.3370 0.0000
# 6 0.0000 0.0000 0.0000 0.0000 0.0000 4.1690
#
#
#
# Elastic Compliance Matrix: (Units=1/GPa)
#
#
# Indices 1 2 3 4 5 6 
#
# 1 0.019603 -0.000868 -0.004528 0.000000 0.000000 0.000000
# 2 -0.000868 0.012246 -0.001138 0.000000 0.000000 0.000000
# 3 -0.004528 -0.001138 0.007362 0.000000 0.000000 0.000000
# 4 0.000000 0.000000 0.000000 0.027346 0.000000 0.000000
# 5 0.000000 0.000000 0.000000 0.000000 0.044769 0.000000
# 6 0.000000 0.000000 0.000000 0.000000 0.000000 0.239863
#
#
# Mechanical properties :
#
#
# Convention : Reuss Voigt Hill
#
# Bulk Modulus (GPa) = 38.25040 48.19790 43.22415
# Shear Modulus (GPa) = 13.40587 28.77047 21.08817
#
# Velocity S-wave (km/s) = 2.32372 3.40416 2.91445
# Velocity P-wave (km/s) = 4.75460 5.90461 5.36054
#
# Compressibility (1/GPa) = 0.02614352
#
# Stress axis : x y z
#
# Youngs Moduli (GPa) = 51.01191 81.65830 135.83354
#
# Poissons Ratio (x) = 0.07087 0.61511
# Poissons Ratio (y) = 0.04427 0.15453
# Poissons Ratio (z) = 0.23100 0.09290
#
# Static dielectric constant tensor:
#      x y z
#    x 2.043030 0.000000 0.000000 
#    y 0.000000 2.107950 0.000000 
#    z 0.000000 0.000000 1.977430 
# 
# From -- ./inp_files/12842.got.cif
#   From: 2010.05.17/outbox.cif.g08.bks.cpg/sg60_7_cif.got.tgz:12842.got - 2010.06.03 14:59:27.
