data_PCOD9454498
_publ_section_title
;
Structure prediction by ZEFSAII (Michael W. Deem and Ramdas Pophale) SiO2 
 PCOD9454498
Probable space group: P B C N
;
_chemical_formula_sum "Si O2"
_cell_formula_units_Z 52
_cell_length_a 5.675988
_cell_length_b 23.286009
_cell_length_c 17.022343
_cell_angle_alpha 90.000000
_cell_angle_beta 90.000000
_cell_angle_gamma 90.000000
_cell_volume 2249.861929
_symmetry_space_group_name_H-M "P B C N"
_symmetry_group_IT_number 60
_symmetry_cell_setting 'orthorhombic'
loop_
_space_group_symop_operation_xyz
x,y,z
1/2-x,1/2-y,1/2+z
1/2+x,1/2-y,-z
-x,y,1/2-z
-x,-y,-z
1/2+x,1/2+y,1/2-z
1/2-x,1/2+y,z
x,-y,1/2+z
loop_
_atom_site_type_symbol
_atom_site_label
_atom_site_fract_x
_atom_site_fract_y
_atom_site_fract_z
Si Si1 0.000000 0.615517 0.250000
Si Si2 0.869141 0.965715 0.831337
Si Si3 0.007774 0.746702 0.658134
Si Si4 0.750671 0.405325 0.344997
Si Si5 0.657194 0.637340 0.113550
Si Si6 0.754711 0.137697 0.659984
Si Si7 0.753792 0.718162 0.980041
O O1 0.160402 0.575847 0.195005
O O2 0.163269 0.646766 0.313506
O O3 0.000000 0.980112 0.750000
O O4 0.047024 0.925957 0.881997
O O5 0.770518 0.026194 0.858133
O O6 0.030379 0.812836 0.633516
O O7 0.781444 0.705553 0.642749
O O8 0.000000 0.745211 0.750000
O O9 0.220089 0.715261 0.613852
O O10 0.747269 0.382306 0.252695
O O11 0.497057 0.383987 0.376313
O O12 0.013450 0.389594 0.373117
O O13 0.755223 0.659883 0.030920
O O14 0.508371 0.751103 0.999691
#
# Coordination Sequence:
#
# PCOD9454498 Si02
#       7
#     4   8   8   8   8   8   8
#     4  10  20  32  62  90 124 160 220 264 322 378
#     4  10  19  34  57  90 124 168 212 275 316 386
#     4  11  22  41  66  97 129 167 221 274 323 399
#     4  10  19  35  55  88 126 158 216 263 325 366
#     4  10  24  37  59  95 130 167 215 265 345 395
#     4  10  20  34  57  88 123 163 210 267 317 372
#     4  10  25  45  63  89 136 181 209 266 341 406
#
# _framework density 23.112531000000001
#
# number of rings (size 3 to 8) (size 9 to 14) (size 15 to 20)
#    0.000    1.846    3.077    2.308    8.615    3.692 
#    0.000    0.000    0.000    1.846    0.000    0.000 
#    0.000    0.000    0.000    0.000    0.000    0.000 
#
# Total GULP energy -289494.714263 kJ/mol
# GULP energy per Si atom -5567.206044 kJ/mol
# Density = 2.305993 g / cm^3
# Si number density = 23.112531 Si / 1000 Ang^3
#
#
#
# Elastic Constant Matrix: (Units=GPa)
#
#
# Indices 1 2 3 4 5 6 
#
# 1 136.0593 28.5593 15.5636 0.0000 0.0000 0.0000
# 2 28.5593 83.7681 12.7884 0.0000 0.0000 0.0000
# 3 15.5636 12.7884 64.0750 0.0000 0.0000 0.0000
# 4 0.0000 0.0000 0.0000 21.3428 0.0000 0.0000
# 5 0.0000 0.0000 0.0000 0.0000 27.3849 0.0000
# 6 0.0000 0.0000 0.0000 0.0000 0.0000 -311.6906
#
#
#
# Elastic Compliance Matrix: (Units=1/GPa)
#
#
# Indices 1 2 3 4 5 6 
#
# 1 0.008045 -0.002521 -0.001451 0.000000 0.000000 0.000000
# 2 -0.002521 0.013103 -0.002003 0.000000 0.000000 0.000000
# 3 -0.001451 -0.002003 0.016359 0.000000 0.000000 0.000000
# 4 0.000000 0.000000 0.000000 0.046854 0.000000 0.000000
# 5 0.000000 0.000000 0.000000 0.000000 0.036516 0.000000
# 6 0.000000 0.000000 0.000000 0.000000 0.000000 -0.003208
#
#
# Mechanical properties :
#
#
# Convention : Reuss Voigt Hill
#
# Bulk Modulus (GPa) = 39.12825 44.19168 41.65997
# Shear Modulus (GPa) = 36.19571 -37.45982 -0.63206
#
# Velocity S-wave (km/s) = 3.96165 -4.03023 -0.52351
# Velocity P-wave (km/s) = 6.15568 1.57965 4.20696
#
# Compressibility (1/GPa) = 0.02555698
#
# Stress axis : x y z
#
# Youngs Moduli (GPa) = 124.30191 76.31805 61.12901
#
# Poissons Ratio (x) = 0.19242 0.08869
# Poissons Ratio (y) = 0.31340 0.12243
# Poissons Ratio (z) = 0.18035 0.15285
#
# Static dielectric constant tensor:
#      x y z
#    x 2.164700 0.000000 0.000000 
#    y 0.000000 1.935960 0.000000 
#    z 0.000000 0.000000 2.071950 
# 
# From -- ./inp_files/18759.got.cif
#   From: 2010.05.17/outbox.cif.g08.bks.cpg/sg60_10_cif.got.tgz:18759.got - 2010.06.03 14:59:27.
