data_PCOD9454466
_publ_section_title
;
Structure prediction by ZEFSAII (Michael W. Deem and Ramdas Pophale) SiO2 
 PCOD9454466
Probable space group: P B C N
;
_chemical_formula_sum "Si O2"
_cell_formula_units_Z 40
_cell_length_a 8.196195
_cell_length_b 23.648735
_cell_length_c 10.496601
_cell_angle_alpha 90.000000
_cell_angle_beta 90.000000
_cell_angle_gamma 90.000000
_cell_volume 2034.552430
_symmetry_space_group_name_H-M "P B C N"
_symmetry_group_IT_number 60
_symmetry_cell_setting 'orthorhombic'
loop_
_space_group_symop_operation_xyz
x,y,z
1/2-x,1/2-y,1/2+z
1/2+x,1/2-y,-z
-x,y,1/2-z
-x,-y,-z
1/2+x,1/2+y,1/2-z
1/2-x,1/2+y,z
x,-y,1/2+z
loop_
_atom_site_type_symbol
_atom_site_label
_atom_site_fract_x
_atom_site_fract_y
_atom_site_fract_z
Si Si1 0.197773 0.037276 0.756562
Si Si2 0.663524 0.669671 0.998596
Si Si3 0.812432 0.344743 0.220655
Si Si4 0.091408 0.751640 0.385918
Si Si5 0.154746 0.040981 0.474945
O O1 0.277770 0.091560 0.823272
O O2 0.252787 0.034992 0.608613
O O3 0.000000 0.046354 0.750000
O O4 0.230701 0.983489 0.845278
O O5 0.713866 0.660246 0.852405
O O6 0.526951 0.718503 0.988896
O O7 0.820643 0.694500 0.070449
O O8 0.611664 0.607160 0.043758
O O9 0.733124 0.298085 0.132252
O O10 0.000000 0.335256 0.250000
O O11 0.000000 0.743977 0.250000
O O12 0.000000 0.000000 0.500000
#
# Coordination Sequence:
#
# PCOD9454466 Si02
#       5
#     8   8   8   8   8
#     4   9  17  33  54  76 104 141 184 227 272 329
#     4  10  20  36  57  80 111 146 184 231 281 335
#     4  10  19  34  55  78 107 147 187 226 280 340
#     4  10  20  36  56  81 112 146 185 233 286 342
#     4   9  17  33  55  79 106 142 186 227 272 334
#
# _framework density 19.660343999999998
#
# number of rings (size 3 to 8) (size 9 to 14) (size 15 to 20)
#    0.000    2.400    0.000    5.400    0.000    0.000 
#    0.000   26.000    0.000    0.000    0.000    0.000 
#    0.000    0.000    0.000    0.000    0.000    0.000 
#
# Total GULP energy -222753.328780 kJ/mol
# GULP energy per Si atom -5568.833220 kJ/mol
# Density = 1.961560 g / cm^3
# Si number density = 19.660344 Si / 1000 Ang^3
#
#
#
# Elastic Constant Matrix: (Units=GPa)
#
#
# Indices 1 2 3 4 5 6 
#
# 1 53.7765 30.2989 4.4080 0.0000 0.0000 0.0000
# 2 30.2989 133.4086 38.5519 0.0000 0.0000 0.0000
# 3 4.4080 38.5519 55.6863 0.0000 0.0000 0.0000
# 4 0.0000 0.0000 0.0000 -1.4637 0.0000 0.0000
# 5 0.0000 0.0000 0.0000 0.0000 19.5726 0.0000
# 6 0.0000 0.0000 0.0000 0.0000 0.0000 23.8480
#
#
#
# Elastic Compliance Matrix: (Units=1/GPa)
#
#
# Indices 1 2 3 4 5 6 
#
# 1 0.021519 -0.005494 0.002100 0.000000 0.000000 0.000000
# 2 -0.005494 0.010773 -0.007023 0.000000 0.000000 0.000000
# 3 0.002100 -0.007023 0.022654 0.000000 0.000000 0.000000
# 4 0.000000 0.000000 0.000000 -0.683187 0.000000 0.000000
# 5 0.000000 0.000000 0.000000 0.000000 0.051092 0.000000
# 6 0.000000 0.000000 0.000000 0.000000 0.000000 0.041932
#
#
# Mechanical properties :
#
#
# Convention : Reuss Voigt Hill
#
# Bulk Modulus (GPa) = 29.31588 43.26545 36.29066
# Shear Modulus (GPa) = -9.94011 19.69888 4.87939
#
# Velocity S-wave (km/s) = -2.25098 3.16881 1.57710
# Velocity P-wave (km/s) = 2.86141 5.95338 4.67067
#
# Compressibility (1/GPa) = 0.03411121
#
# Stress axis : x y z
#
# Youngs Moduli (GPa) = 46.47089 92.82328 44.14263
#
# Poissons Ratio (x) = 0.50998 -0.09271
# Poissons Ratio (y) = 0.25532 0.31003
# Poissons Ratio (z) = -0.09760 0.65194
#
# Static dielectric constant tensor:
#      x y z
#    x 1.803880 0.000000 0.000000 
#    y 0.000000 1.723310 0.000000 
#    z 0.000000 0.000000 1.766510 
# 
# From -- ./inp_files/3786.got.cif
#   From: 2010.05.17/outbox.cif.g08.bks.cpg/sg60_2_cif.got.tgz:3786.got - 2010.06.03 14:59:27.
