data_PCOD9454313
_publ_section_title
;
Structure prediction by ZEFSAII (Michael W. Deem and Ramdas Pophale) SiO2 
 PCOD9454313
Probable space group: P B C N
;
_chemical_formula_sum "Si O2"
_cell_formula_units_Z 48
_cell_length_a 5.473315
_cell_length_b 17.725889
_cell_length_c 22.161552
_cell_angle_alpha 90.000000
_cell_angle_beta 90.000000
_cell_angle_gamma 90.000000
_cell_volume 2150.099905
_symmetry_space_group_name_H-M "P B C N"
_symmetry_group_IT_number 60
_symmetry_cell_setting 'orthorhombic'
loop_
_space_group_symop_operation_xyz
x,y,z
1/2-x,1/2-y,1/2+z
1/2+x,1/2-y,-z
-x,y,1/2-z
-x,-y,-z
1/2+x,1/2+y,1/2-z
1/2-x,1/2+y,z
x,-y,1/2+z
loop_
_atom_site_type_symbol
_atom_site_label
_atom_site_fract_x
_atom_site_fract_y
_atom_site_fract_z
Si Si1 0.991786 0.779921 0.471531
Si Si2 0.765990 0.930174 0.509909
Si Si3 0.167490 0.981481 0.599962
Si Si4 0.744371 0.550996 0.769769
Si Si5 0.251636 0.379477 0.779063
Si Si6 0.985418 0.655395 0.394041
O O1 0.267822 0.758019 0.490426
O O2 0.945324 0.743283 0.405671
O O3 0.952157 0.868627 0.480459
O O4 0.565855 0.879193 0.541934
O O5 0.911861 0.973068 0.563709
O O6 0.677624 0.980282 0.454023
O O7 0.258257 0.898539 0.621109
O O8 0.207693 0.030421 0.659971
O O9 0.500000 0.593227 0.750000
O O10 0.745826 0.470300 0.732677
O O11 0.000000 0.586945 0.750000
O O12 0.500000 0.349921 0.750000
O O13 0.204543 0.360424 0.848229
O O14 0.000000 0.350536 0.750000
#
# Coordination Sequence:
#
# PCOD9454313 Si02
#       6
#     8   8   8   8   8   8
#     4  10  21  37  56  80 116 155 189 229 294 357
#     4  10  22  35  54  87 121 149 194 238 302 363
#     4  11  20  35  57  86 115 154 192 249 295 349
#     4  10  19  33  52  80 110 141 186 237 277 326
#     4  10  19  31  53  81 113 140 193 243 279 325
#     4  11  20  35  58  83 120 156 195 244 299 353
#
# _framework density 22.324546000000002
#
# number of rings (size 3 to 8) (size 9 to 14) (size 15 to 20)
#    0.000    1.667    5.000    2.500    0.000    0.000 
#    0.000    0.000    0.000    1.000    0.000    3.500 
#    0.000    0.000    0.000    0.000    0.000    0.000 
#
# Total GULP energy -267309.119008 kJ/mol
# GULP energy per Si atom -5568.939979 kJ/mol
# Density = 2.227373 g / cm^3
# Si number density = 22.324546 Si / 1000 Ang^3
#
#
#
# Elastic Constant Matrix: (Units=GPa)
#
#
# Indices 1 2 3 4 5 6 
#
# 1 133.5341 9.1131 28.0416 0.0000 0.0000 0.0000
# 2 9.1131 37.8128 15.4688 0.0000 0.0000 0.0000
# 3 28.0416 15.4688 97.8814 0.0000 0.0000 0.0000
# 4 0.0000 0.0000 0.0000 13.4003 0.0000 0.0000
# 5 0.0000 0.0000 0.0000 0.0000 34.6272 0.0000
# 6 0.0000 0.0000 0.0000 0.0000 0.0000 20.0152
#
#
#
# Elastic Compliance Matrix: (Units=1/GPa)
#
#
# Indices 1 2 3 4 5 6 
#
# 1 0.008008 -0.001060 -0.002127 0.000000 0.000000 0.000000
# 2 -0.001060 0.028414 -0.004187 0.000000 0.000000 0.000000
# 3 -0.002127 -0.004187 0.011487 0.000000 0.000000 0.000000
# 4 0.000000 0.000000 0.000000 0.074625 0.000000 0.000000
# 5 0.000000 0.000000 0.000000 0.000000 0.028879 0.000000
# 6 0.000000 0.000000 0.000000 0.000000 0.000000 0.049962
#
#
# Mechanical properties :
#
#
# Convention : Reuss Voigt Hill
#
# Bulk Modulus (GPa) = 30.15441 41.60836 35.88139
# Shear Modulus (GPa) = 22.00932 28.04885 25.02908
#
# Velocity S-wave (km/s) = 3.14328 3.54844 3.35198
# Velocity P-wave (km/s) = 5.16819 5.95541 5.57571
#
# Compressibility (1/GPa) = 0.03316264
#
# Stress axis : x y z
#
# Youngs Moduli (GPa) = 124.88090 35.19352 87.05232
#
# Poissons Ratio (x) = 0.03730 0.18512
# Poissons Ratio (y) = 0.13237 0.36447
# Poissons Ratio (z) = 0.26557 0.14735
#
# Static dielectric constant tensor:
#      x y z
#    x 1.938180 0.000000 0.000000 
#    y 0.000000 1.897290 0.000000 
#    z 0.000000 0.000000 1.908080 
# 
# From -- ./inp_files/21617.got.cif
#   From: 2010.05.17/outbox.cif.g08.bks.cpg/sg60_11_cif.got.tgz:21617.got - 2010.06.03 14:59:27.
