data_PCOD9454316
_publ_section_title
;
Structure prediction by ZEFSAII (Michael W. Deem and Ramdas Pophale) SiO2 
 PCOD9454316
Probable space group: P B C N
;
_chemical_formula_sum "Si O2"
_cell_formula_units_Z 64
_cell_length_a 15.655645
_cell_length_b 32.270745
_cell_length_c 5.271293
_cell_angle_alpha 90.000000
_cell_angle_beta 90.000000
_cell_angle_gamma 90.000000
_cell_volume 2663.159105
_symmetry_space_group_name_H-M "P B C N"
_symmetry_group_IT_number 60
_symmetry_cell_setting 'orthorhombic'
loop_
_space_group_symop_operation_xyz
x,y,z
1/2-x,1/2-y,1/2+z
1/2+x,1/2-y,-z
-x,y,1/2-z
-x,-y,-z
1/2+x,1/2+y,1/2-z
1/2-x,1/2+y,z
x,-y,1/2+z
loop_
_atom_site_type_symbol
_atom_site_label
_atom_site_fract_x
_atom_site_fract_y
_atom_site_fract_z
Si Si1 0.377567 0.386958 0.866785
Si Si2 0.164981 0.023234 0.589066
Si Si3 0.278970 0.136884 0.054598
Si Si4 0.092430 0.395647 0.866682
Si Si5 0.109916 0.142527 0.863581
Si Si6 0.871355 0.476883 0.360499
Si Si7 0.397556 0.183818 0.699178
Si Si8 0.057537 0.232932 0.999306
O O1 0.425413 0.361142 0.082602
O O2 0.362722 0.432184 0.981577
O O3 0.290855 0.361851 0.782351
O O4 0.419783 0.387436 0.589260
O O5 0.268205 0.023863 0.614209
O O6 0.136972 0.009577 0.871033
O O7 0.339345 0.099196 0.139646
O O8 0.210142 0.129304 0.833663
O O9 0.341652 0.172565 0.947758
O O10 0.096312 0.431768 0.067868
O O11 0.000000 0.391898 0.750000
O O12 0.117435 0.352814 0.000260
O O13 0.104899 0.190144 0.943812
O O14 0.899749 0.492925 0.088503
O O15 0.500000 0.182617 0.750000
O O16 0.382407 0.228428 0.573606
O O17 0.000000 0.243130 0.750000
O O18 0.000000 0.226345 0.250000
#
# Coordination Sequence:
#
# PCOD9454316 Si02
#       8
#     8   8   8   8   8   8   8   8
#     4  10  20  38  64  92 127 165 212 260 316 374
#     4  10  19  31  54  86 123 166 207 257 315 363
#     4  10  23  39  62  89 125 164 217 263 315 376
#     4  12  23  38  59  81 118 164 221 265 327 369
#     4  10  22  42  67  94 127 167 202 270 315 384
#     4  10  23  36  54  77 111 157 213 269 314 364
#     4  11  24  41  63  89 121 168 218 265 315 377
#     4  11  25  47  71  97 132 161 207 265 328 401
#
# _framework density 24.031607999999999
#
# number of rings (size 3 to 8) (size 9 to 14) (size 15 to 20)
#    0.750    0.750    2.500    2.625    3.500    0.500 
#    2.250    0.000    0.000    0.000    0.000    0.000 
#    0.000   35.000    0.000    0.000    0.000    0.000 
#
# Total GULP energy -357318.232220 kJ/mol
# GULP energy per Si atom -5583.097378 kJ/mol
# Density = 2.397691 g / cm^3
# Si number density = 24.031608 Si / 1000 Ang^3
#
#
#
# Elastic Constant Matrix: (Units=GPa)
#
#
# Indices 1 2 3 4 5 6 
#
# 1 46.4836 0.0124 13.4345 0.0000 0.0000 0.0000
# 2 0.0124 112.6273 24.0774 0.0000 0.0000 0.0000
# 3 13.4345 24.0774 113.3486 0.0000 0.0000 0.0000
# 4 0.0000 0.0000 0.0000 43.6135 0.0000 0.0000
# 5 0.0000 0.0000 0.0000 0.0000 35.3428 0.0000
# 6 0.0000 0.0000 0.0000 0.0000 0.0000 13.7731
#
#
#
# Elastic Compliance Matrix: (Units=1/GPa)
#
#
# Indices 1 2 3 4 5 6 
#
# 1 0.022313 0.000590 -0.002770 0.000000 0.000000 0.000000
# 2 0.000590 0.009317 -0.002049 0.000000 0.000000 0.000000
# 3 -0.002770 -0.002049 0.009586 0.000000 0.000000 0.000000
# 4 0.000000 0.000000 0.000000 0.022929 0.000000 0.000000
# 5 0.000000 0.000000 0.000000 0.000000 0.028294 0.000000
# 6 0.000000 0.000000 0.000000 0.000000 0.000000 0.072605
#
#
# Mechanical properties :
#
#
# Convention : Reuss Voigt Hill
#
# Bulk Modulus (GPa) = 30.52721 38.61201 34.56961
# Shear Modulus (GPa) = 27.11176 34.20824 30.66000
#
# Velocity S-wave (km/s) = 3.36247 3.77698 3.57574
# Velocity P-wave (km/s) = 5.27309 5.92645 5.60929
#
# Compressibility (1/GPa) = 0.03275766
#
# Stress axis : x y z
#
# Youngs Moduli (GPa) = 44.81624 107.33291 104.32010
#
# Poissons Ratio (x) = -0.06329 0.28896
# Poissons Ratio (y) = -0.02643 0.21375
# Poissons Ratio (z) = 0.12414 0.21992
#
# Static dielectric constant tensor:
#      x y z
#    x 1.997500 0.000000 0.000000 
#    y 0.000000 1.885080 0.000000 
#    z 0.000000 0.000000 2.053180 
# 
# From -- ./inp_files/1907.got.cif
#   From: 2010.05.17/outbox.cif.g08.bks.cpg/sg60_1_cif.got.tgz:1907.got - 2010.06.03 14:59:27.
