data_PCOD9454967
_publ_section_title
;
Structure prediction by ZEFSAII (Michael W. Deem and Ramdas Pophale) SiO2 
 PCOD9454967
Probable space group: P B C N
;
_chemical_formula_sum "Si O2"
_cell_formula_units_Z 64
_cell_length_a 7.062517
_cell_length_b 20.773411
_cell_length_c 17.744173
_cell_angle_alpha 90.000000
_cell_angle_beta 90.000000
_cell_angle_gamma 90.000000
_cell_volume 2603.293194
_symmetry_space_group_name_H-M "P B C N"
_symmetry_group_IT_number 60
_symmetry_cell_setting 'orthorhombic'
loop_
_space_group_symop_operation_xyz
x,y,z
1/2-x,1/2-y,1/2+z
1/2+x,1/2-y,-z
-x,y,1/2-z
-x,-y,-z
1/2+x,1/2+y,1/2-z
1/2-x,1/2+y,z
x,-y,1/2+z
loop_
_atom_site_type_symbol
_atom_site_label
_atom_site_fract_x
_atom_site_fract_y
_atom_site_fract_z
Si Si1 0.719146 0.888434 0.807155
Si Si2 0.380727 0.272849 0.933570
Si Si3 0.707404 0.152857 0.651693
Si Si4 0.686392 0.991573 0.400662
Si Si5 0.342364 0.599301 0.359757
Si Si6 0.249155 0.634899 0.676997
Si Si7 0.178568 0.264434 0.602514
Si Si8 0.260278 0.032900 0.940638
O O1 0.635948 0.954448 0.839697
O O2 0.726033 0.886577 0.716935
O O3 0.628072 0.826518 0.847857
O O4 0.939193 0.894506 0.833805
O O5 0.266818 0.224851 0.878914
O O6 0.306612 0.345555 0.922991
O O7 0.594906 0.272057 0.905311
O O8 0.388535 0.242476 0.016663
O O9 0.781352 0.136197 0.734108
O O10 0.477844 0.144500 0.661672
O O11 0.791225 0.102007 0.592664
O O12 0.790857 0.022745 0.472209
O O13 0.794135 0.933079 0.361340
O O14 0.489049 0.965762 0.433630
O O15 0.304697 0.528528 0.392285
O O16 0.352242 0.696232 0.642228
#
# Coordination Sequence:
#
# PCOD9454967 Si02
#       8
#     8   8   8   8   8   8   8   8
#     4  10  21  36  54  78 108 141 175 213 262 318
#     4  10  20  35  55  77 102 133 171 214 258 306
#     4   9  17  31  52  75  99 132 173 211 247 294
#     4  10  20  34  54  80 107 136 174 218 260 305
#     4  10  21  36  54  78 108 141 175 213 262 318
#     4   9  17  31  52  75  99 132 173 211 247 294
#     4  10  20  35  55  77 102 133 171 214 258 306
#     4  10  20  34  54  80 107 136 174 218 260 305
#
# _framework density 24.584244999999999
#
# number of rings (size 3 to 8) (size 9 to 14) (size 15 to 20)
#    0.000    2.250    0.000    3.000    0.000    8.000 
#    0.000    1.250    0.000    3.750    0.000    0.000 
#    0.000    0.000    0.000    0.000    0.000    0.000 
#
# Total GULP energy -358197.758022 kJ/mol
# GULP energy per Si atom -5596.839969 kJ/mol
# Density = 2.452829 g / cm^3
# Si number density = 24.584245 Si / 1000 Ang^3
#
#
#
# Elastic Constant Matrix: (Units=GPa)
#
#
# Indices 1 2 3 4 5 6 
#
# 1 63.7167 -7.8565 0.7253 0.0000 0.0000 0.0000
# 2 -7.8565 86.0175 -6.8843 0.0000 0.0000 0.0000
# 3 0.7253 -6.8843 79.1098 0.0000 0.0000 0.0000
# 4 0.0000 0.0000 0.0000 41.4768 0.0000 0.0000
# 5 0.0000 0.0000 0.0000 0.0000 12.2161 0.0000
# 6 0.0000 0.0000 0.0000 0.0000 0.0000 10.4854
#
#
#
# Elastic Compliance Matrix: (Units=1/GPa)
#
#
# Indices 1 2 3 4 5 6 
#
# 1 0.015873 0.001448 -0.000019 0.000000 0.000000 0.000000
# 2 0.001448 0.011839 0.001017 0.000000 0.000000 0.000000
# 3 -0.000019 0.001017 0.012729 0.000000 0.000000 0.000000
# 4 0.000000 0.000000 0.000000 0.024110 0.000000 0.000000
# 5 0.000000 0.000000 0.000000 0.000000 0.081859 0.000000
# 6 0.000000 0.000000 0.000000 0.000000 0.000000 0.095371
#
#
# Mechanical properties :
#
#
# Convention : Reuss Voigt Hill
#
# Bulk Modulus (GPa) = 22.05885 22.31256 22.18571
# Shear Modulus (GPa) = 19.84115 29.02629 24.43372
#
# Velocity S-wave (km/s) = 2.84398 3.43984 3.15600
# Velocity P-wave (km/s) = 4.44708 4.98722 4.72487
#
# Compressibility (1/GPa) = 0.04533327
#
# Stress axis : x y z
#
# Youngs Moduli (GPa) = 62.99905 84.46511 78.55865
#
# Poissons Ratio (x) = -0.12233 0.00153
# Poissons Ratio (y) = -0.09124 -0.07989
# Poissons Ratio (z) = 0.00123 -0.08590
#
# Static dielectric constant tensor:
#      x y z
#    x 2.041640 0.000000 0.000000 
#    y 0.000000 1.907310 0.000000 
#    z 0.000000 0.000000 1.876990 
# 
# From -- ./inp_files/16373.got.cif
#   From: 2010.05.17/outbox.cif.g08.bks.cpg/sg60_9_cif.got.tgz:16373.got - 2010.06.03 14:59:27.
