data_PCOD9454126
_publ_section_title
;
Structure prediction by ZEFSAII (Michael W. Deem and Ramdas Pophale) SiO2 
 PCOD9454126
Probable space group: P B C N
;
_chemical_formula_sum "Si O2"
_cell_formula_units_Z 64
_cell_length_a 9.969640
_cell_length_b 15.609179
_cell_length_c 21.003388
_cell_angle_alpha 90.000000
_cell_angle_beta 90.000000
_cell_angle_gamma 90.000000
_cell_volume 3268.503035
_symmetry_space_group_name_H-M "P B C N"
_symmetry_group_IT_number 60
_symmetry_cell_setting 'orthorhombic'
loop_
_space_group_symop_operation_xyz
x,y,z
1/2-x,1/2-y,1/2+z
1/2+x,1/2-y,-z
-x,y,1/2-z
-x,-y,-z
1/2+x,1/2+y,1/2-z
1/2-x,1/2+y,z
x,-y,1/2+z
loop_
_atom_site_type_symbol
_atom_site_label
_atom_site_fract_x
_atom_site_fract_y
_atom_site_fract_z
Si Si1 0.282044 0.549436 0.040724
Si Si2 0.080703 0.541475 0.865482
Si Si3 0.360701 0.660242 0.216443
Si Si4 0.744935 0.913720 0.569338
Si Si5 0.016104 0.364288 0.492757
Si Si6 0.292029 0.007704 0.678620
Si Si7 0.490427 0.313948 0.580636
Si Si8 0.339820 0.163642 0.764680
O O1 0.266964 0.497217 0.106891
O O2 0.406482 0.613641 0.043622
O O3 0.294067 0.483307 0.982832
O O4 0.149751 0.609549 0.031446
O O5 0.188610 0.467749 0.872214
O O6 0.154779 0.622918 0.834622
O O7 0.021649 0.568016 0.934268
O O8 0.953301 0.508289 0.826703
O O9 0.500000 0.634983 0.250000
O O10 0.267632 0.577622 0.209857
O O11 0.407899 0.695594 0.146665
O O12 0.293602 0.739815 0.253375
O O13 0.615287 0.872034 0.535918
O O14 0.861417 0.851093 0.590441
O O15 0.008176 0.272418 0.459168
O O16 0.268166 0.095025 0.718277
O O17 0.500000 0.168403 0.750000
#
# Coordination Sequence:
#
# PCOD9454126 Si02
#       8
#     8   8   8   8   8   8   8   8
#     4  10  20  37  54  83 117 152 193 225 295 351
#     4  10  19  37  61  85 106 157 200 239 285 348
#     4  10  22  37  56  85 115 148 195 241 293 358
#     4  11  21  35  60  84 122 151 193 242 285 360
#     4  11  19  37  60  82 119 150 202 235 280 356
#     4  10  18  35  60  82 111 149 196 240 280 345
#     4  11  23  34  56  88 118 151 185 246 305 336
#     4   9  19  35  59  84 104 148 201 236 283 338
#
# _framework density 19.580828
#
# number of rings (size 3 to 8) (size 9 to 14) (size 15 to 20)
#    0.000    1.750    2.500    4.125    1.750    0.000 
#    0.000    0.000    0.000    2.250    0.000    0.000 
#    0.000    0.000    0.000    0.000    0.000    0.000 
#
# Total GULP energy -357042.385665 kJ/mol
# GULP energy per Si atom -5578.787276 kJ/mol
# Density = 1.953626 g / cm^3
# Si number density = 19.580828 Si / 1000 Ang^3
#
#
#
# Elastic Constant Matrix: (Units=GPa)
#
#
# Indices 1 2 3 4 5 6 
#
# 1 61.6244 29.1432 4.9137 0.0000 0.0000 0.0000
# 2 29.1432 83.2460 6.0248 0.0000 0.0000 0.0000
# 3 4.9137 6.0248 38.5732 0.0000 0.0000 0.0000
# 4 0.0000 0.0000 0.0000 29.9590 0.0000 0.0000
# 5 0.0000 0.0000 0.0000 0.0000 11.3517 0.0000
# 6 0.0000 0.0000 0.0000 0.0000 0.0000 24.9806
#
#
#
# Elastic Compliance Matrix: (Units=1/GPa)
#
#
# Indices 1 2 3 4 5 6 
#
# 1 0.019525 -0.006732 -0.001436 0.000000 0.000000 0.000000
# 2 -0.006732 0.014471 -0.001403 0.000000 0.000000 0.000000
# 3 -0.001436 -0.001403 0.026327 0.000000 0.000000 0.000000
# 4 0.000000 0.000000 0.000000 0.033379 0.000000 0.000000
# 5 0.000000 0.000000 0.000000 0.000000 0.088092 0.000000
# 6 0.000000 0.000000 0.000000 0.000000 0.000000 0.040031
#
#
# Mechanical properties :
#
#
# Convention : Reuss Voigt Hill
#
# Bulk Modulus (GPa) = 24.28216 29.28967 26.78591
# Shear Modulus (GPa) = 19.63148 22.81572 21.22360
#
# Velocity S-wave (km/s) = 3.16980 3.41722 3.29583
# Velocity P-wave (km/s) = 5.08181 5.52817 5.30968
#
# Compressibility (1/GPa) = 0.04118250
#
# Stress axis : x y z
#
# Youngs Moduli (GPa) = 51.21563 69.10498 37.98419
#
# Poissons Ratio (x) = 0.46519 0.05454
# Poissons Ratio (y) = 0.34476 0.05328
# Poissons Ratio (z) = 0.07354 0.09693
#
# Static dielectric constant tensor:
#      x y z
#    x 1.666550 0.000000 0.000000 
#    y 0.000000 1.694740 0.000000 
#    z 0.000000 0.000000 1.748290 
# 
# From -- ./inp_files/22363.got.cif
#   From: 2010.05.17/outbox.cif.g08.bks.cpg/sg60_12_cif.got.tgz:22363.got - 2010.06.03 14:59:27.
