data_PCOD9454513
_publ_section_title
;
Structure prediction by ZEFSAII (Michael W. Deem and Ramdas Pophale) SiO2 
 PCOD9454513
Probable space group: P B C N
;
_chemical_formula_sum "Si O2"
_cell_formula_units_Z 44
_cell_length_a 7.779702
_cell_length_b 28.018433
_cell_length_c 9.334574
_cell_angle_alpha 90.000000
_cell_angle_beta 90.000000
_cell_angle_gamma 90.000000
_cell_volume 2034.704321
_symmetry_space_group_name_H-M "P B C N"
_symmetry_group_IT_number 60
_symmetry_cell_setting 'orthorhombic'
loop_
_space_group_symop_operation_xyz
x,y,z
1/2-x,1/2-y,1/2+z
1/2+x,1/2-y,-z
-x,y,1/2-z
-x,-y,-z
1/2+x,1/2+y,1/2-z
1/2-x,1/2+y,z
x,-y,1/2+z
loop_
_atom_site_type_symbol
_atom_site_label
_atom_site_fract_x
_atom_site_fract_y
_atom_site_fract_z
Si Si1 0.325442 0.027192 0.442585
Si Si2 0.870343 0.752358 0.621386
Si Si3 0.295453 0.660047 0.755664
Si Si4 0.291953 0.943921 0.251969
Si Si5 0.000000 0.605946 0.250000
Si Si6 0.584272 0.183111 0.033040
O O1 0.239885 0.047865 0.586185
O O2 0.370099 0.068841 0.328147
O O3 0.500000 0.000000 0.500000
O O4 0.229370 0.986326 0.353873
O O5 0.764400 0.704603 0.652830
O O6 0.754593 0.798708 0.612297
O O7 0.000000 0.759760 0.750000
O O8 0.979203 0.732596 0.487443
O O9 0.500000 0.664214 0.750000
O O10 0.261361 0.607069 0.811393
O O11 0.168443 0.664170 0.615623
O O12 0.500000 0.944638 0.250000
O O13 0.976286 0.643557 0.381630
#
# Coordination Sequence:
#
# PCOD9454513 Si02
#       6
#     8   8   8   8   4   8
#     4  10  19  34  59  91 125 155 208 266 313 376
#     4  10  24  41  63  89 124 167 205 261 315 377
#     4  11  23  40  61  88 123 166 211 256 317 383
#     4  10  19  36  62  88 118 158 210 262 314 375
#     4  12  22  34  64  96 124 162 210 266 312 384
#     4  11  24  40  64  92 127 161 216 257 322 379
#
# _framework density 21.624763999999999
#
# number of rings (size 3 to 8) (size 9 to 14) (size 15 to 20)
#    0.000    1.455    4.545    2.727    8.909    0.000 
#    0.000    0.909    0.000    0.000    0.000    0.000 
#    0.000    0.000    0.000    0.000    0.000    0.000 
#
# Total GULP energy -245016.717089 kJ/mol
# GULP energy per Si atom -5568.561752 kJ/mol
# Density = 2.157555 g / cm^3
# Si number density = 21.624764 Si / 1000 Ang^3
#
#
#
# Elastic Constant Matrix: (Units=GPa)
#
#
# Indices 1 2 3 4 5 6 
#
# 1 42.4272 3.6514 13.9333 0.0000 0.0000 0.0000
# 2 3.6514 105.6802 37.9250 0.0000 0.0000 0.0000
# 3 13.9333 37.9250 72.4082 0.0000 0.0000 0.0000
# 4 0.0000 0.0000 0.0000 2.6312 0.0000 0.0000
# 5 0.0000 0.0000 0.0000 0.0000 9.6864 0.0000
# 6 0.0000 0.0000 0.0000 0.0000 0.0000 5.0992
#
#
#
# Elastic Compliance Matrix: (Units=1/GPa)
#
#
# Indices 1 2 3 4 5 6 
#
# 1 0.025258 0.001073 -0.005422 0.000000 0.000000 0.000000
# 2 0.001073 0.011698 -0.006334 0.000000 0.000000 0.000000
# 3 -0.005422 -0.006334 0.018171 0.000000 0.000000 0.000000
# 4 0.000000 0.000000 0.000000 0.380056 0.000000 0.000000
# 5 0.000000 0.000000 0.000000 0.000000 0.103238 0.000000
# 6 0.000000 0.000000 0.000000 0.000000 0.000000 0.196108
#
#
# Mechanical properties :
#
#
# Convention : Reuss Voigt Hill
#
# Bulk Modulus (GPa) = 29.61909 36.83723 33.22816
# Shear Modulus (GPa) = 6.51763 14.48375 10.50069
#
# Velocity S-wave (km/s) = 1.73796 2.59081 2.20599
# Velocity P-wave (km/s) = 4.21354 5.10112 4.67843
#
# Compressibility (1/GPa) = 0.03376201
#
# Stress axis : x y z
#
# Youngs Moduli (GPa) = 39.59111 85.48180 55.03146
#
# Poissons Ratio (x) = -0.09174 0.29841
# Poissons Ratio (y) = -0.04249 0.34856
# Poissons Ratio (z) = 0.21468 0.54142
#
# Static dielectric constant tensor:
#      x y z
#    x 1.776610 0.000000 0.000000 
#    y 0.000000 1.794740 0.000000 
#    z 0.000000 0.000000 1.855300 
# 
# From -- ./inp_files/4129.got.cif
#   From: 2010.05.17/outbox.cif.g08.bks.cpg/sg60_3_cif.got.tgz:4129.got - 2010.06.03 14:59:27.
