data_PCOD9454680
_publ_section_title
;
Structure prediction by ZEFSAII (Michael W. Deem and Ramdas Pophale) SiO2 
 PCOD9454680
Probable space group: P B C N
;
_chemical_formula_sum "Si O2"
_cell_formula_units_Z 64
_cell_length_a 9.092405
_cell_length_b 13.857759
_cell_length_c 18.897968
_cell_angle_alpha 90.000000
_cell_angle_beta 90.000000
_cell_angle_gamma 90.000000
_cell_volume 2381.150719
_symmetry_space_group_name_H-M "P B C N"
_symmetry_group_IT_number 60
_symmetry_cell_setting 'orthorhombic'
loop_
_space_group_symop_operation_xyz
x,y,z
1/2-x,1/2-y,1/2+z
1/2+x,1/2-y,-z
-x,y,1/2-z
-x,-y,-z
1/2+x,1/2+y,1/2-z
1/2-x,1/2+y,z
x,-y,1/2+z
loop_
_atom_site_type_symbol
_atom_site_label
_atom_site_fract_x
_atom_site_fract_y
_atom_site_fract_z
Si Si1 0.717917 0.363817 0.467539
Si Si2 0.569951 0.563780 0.422311
Si Si3 0.226218 0.038709 0.344969
Si Si4 0.481113 0.099826 0.425441
Si Si5 0.280974 0.165549 0.820140
Si Si6 0.693568 0.088750 0.303115
Si Si7 0.130111 0.362648 0.181873
Si Si8 0.717482 0.830285 0.015978
O O1 0.617956 0.458693 0.453519
O O2 0.804026 0.352262 0.394632
O O3 0.639499 0.262647 0.482172
O O4 0.847587 0.360828 0.526547
O O5 0.598297 0.428020 0.602465
O O6 0.660340 0.584598 0.350366
O O7 0.632161 0.640383 0.477879
O O8 0.379322 0.020456 0.385779
O O9 0.264584 0.107835 0.279080
O O10 0.184744 0.933191 0.317967
O O11 0.570933 0.138034 0.354880
O O12 0.609709 0.085180 0.483411
O O13 0.269697 0.197119 0.737675
O O14 0.459744 0.164318 0.819781
O O15 0.255367 0.192041 0.901871
O O16 0.640339 0.976389 0.298914
#
# Coordination Sequence:
#
# PCOD9454680 Si02
#       8
#     8   8   8   8   8   8   8   8
#     4  11  24  43  69 100 145 184 248 310 373 448
#     4  10  24  41  69 101 143 190 237 299 389 440
#     4  11  21  38  65 104 143 182 238 301 360 455
#     4  11  22  38  66  96 132 182 238 296 359 426
#     4  10  19  36  67  95 129 176 237 287 361 439
#     4   9  19  38  67 100 134 182 238 299 361 440
#     4   9  18  37  66  97 125 176 232 295 354 440
#     4  11  25  43  66 102 146 190 244 304 370 448
#
# _framework density 26.877759000000001
#
# number of rings (size 3 to 8) (size 9 to 14) (size 15 to 20)
#    0.000    1.750    2.500    1.500    0.000    6.000 
#    0.000    3.750    5.500    7.500    0.000    0.000 
#    0.000    0.000    0.000    0.000    0.000    0.000 
#
# Total GULP energy -356432.183549 kJ/mol
# GULP energy per Si atom -5569.252868 kJ/mol
# Density = 2.681658 g / cm^3
# Si number density = 26.877759 Si / 1000 Ang^3
#
#
#
# Elastic Constant Matrix: (Units=GPa)
#
#
# Indices 1 2 3 4 5 6 
#
# 1 151.8294 15.2661 63.4946 0.0000 0.0000 0.0000
# 2 15.2661 67.0178 28.1061 0.0000 0.0000 0.0000
# 3 63.4946 28.1061 221.5952 0.0000 0.0000 0.0000
# 4 0.0000 0.0000 0.0000 9.8586 0.0000 0.0000
# 5 0.0000 0.0000 0.0000 0.0000 52.0527 0.0000
# 6 0.0000 0.0000 0.0000 0.0000 0.0000 12.2393
#
#
#
# Elastic Compliance Matrix: (Units=1/GPa)
#
#
# Indices 1 2 3 4 5 6 
#
# 1 0.007529 -0.000856 -0.002049 0.000000 0.000000 0.000000
# 2 -0.000856 0.015857 -0.001766 0.000000 0.000000 0.000000
# 3 -0.002049 -0.001766 0.005324 0.000000 0.000000 0.000000
# 4 0.000000 0.000000 0.000000 0.101434 0.000000 0.000000
# 5 0.000000 0.000000 0.000000 0.000000 0.019211 0.000000
# 6 0.000000 0.000000 0.000000 0.000000 0.000000 0.081704
#
#
# Mechanical properties :
#
#
# Convention : Reuss Voigt Hill
#
# Bulk Modulus (GPa) = 51.62984 72.68622 62.15803
# Shear Modulus (GPa) = 20.25462 37.06848 28.66155
#
# Velocity S-wave (km/s) = 2.74812 3.71772 3.26907
# Velocity P-wave (km/s) = 5.41483 6.74763 6.11764
#
# Compressibility (1/GPa) = 0.01936865
#
# Stress axis : x y z
#
# Youngs Moduli (GPa) = 132.81618 63.06364 187.83637
#
# Poissons Ratio (x) = 0.05397 0.38484
# Poissons Ratio (y) = 0.11367 0.33172
# Poissons Ratio (z) = 0.27212 0.11137
#
# Static dielectric constant tensor:
#      x y z
#    x 2.085300 0.000000 0.000000 
#    y 0.000000 2.226780 0.000000 
#    z 0.000000 0.000000 2.206330 
# 
# From -- ./inp_files/20707.got.cif
#   From: 2010.05.17/outbox.cif.g08.bks.cpg/sg60_11_cif.got.tgz:20707.got - 2010.06.03 14:59:27.
