data_PCOD9454224
_publ_section_title
;
Structure prediction by ZEFSAII (Michael W. Deem and Ramdas Pophale) SiO2 
 PCOD9454224
Probable space group: P B C N
;
_chemical_formula_sum "Si O2"
_cell_formula_units_Z 44
_cell_length_a 11.591388
_cell_length_b 11.685180
_cell_length_c 17.839502
_cell_angle_alpha 90.000000
_cell_angle_beta 90.000000
_cell_angle_gamma 90.000000
_cell_volume 2416.315148
_symmetry_space_group_name_H-M "P B C N"
_symmetry_group_IT_number 60
_symmetry_cell_setting 'orthorhombic'
loop_
_space_group_symop_operation_xyz
x,y,z
1/2-x,1/2-y,1/2+z
1/2+x,1/2-y,-z
-x,y,1/2-z
-x,-y,-z
1/2+x,1/2+y,1/2-z
1/2-x,1/2+y,z
x,-y,1/2+z
loop_
_atom_site_type_symbol
_atom_site_label
_atom_site_fract_x
_atom_site_fract_y
_atom_site_fract_z
Si Si1 0.335970 0.761606 0.355085
Si Si2 0.000000 0.889909 0.750000
Si Si3 0.460841 0.552953 0.618219
Si Si4 0.914604 0.492157 0.071764
Si Si5 0.831984 0.068102 0.027668
Si Si6 0.570813 0.216089 0.174734
O O1 0.412269 0.687991 0.297045
O O2 0.404036 0.878124 0.376501
O O3 0.325038 0.692098 0.433554
O O4 0.204888 0.760618 0.321792
O O5 0.062102 0.973970 0.690298
O O6 0.565633 0.494447 0.572580
O O7 0.358502 0.566567 0.559709
O O8 0.502458 0.677500 0.640686
O O9 0.785477 0.502650 0.040897
O O10 0.933118 0.603750 0.123185
O O11 0.000000 0.500000 0.000000
O O12 0.500000 0.188896 0.250000
#
# Coordination Sequence:
#
# PCOD9454224 Si02
#       6
#     8   4   8   8   8   8
#     4  10  22  42  58  85 127 159 200 251 313 356
#     4  10  22  38  64  88 118 162 194 252 302 368
#     4  10  18  39  63  87 112 152 216 239 293 360
#     4  11  23  40  60  90 128 160 199 255 314 358
#     4   9  20  37  64  83 113 163 197 253 290 362
#     4  11  23  38  63  87 122 163 199 255 309 363
#
# _framework density 18.209544999999999
#
# number of rings (size 3 to 8) (size 9 to 14) (size 15 to 20)
#    0.000    1.818    2.727    1.091    1.273    1.455 
#    3.273    0.000    0.000    0.000    0.000    0.000 
#    0.000    0.000    0.000    0.000    0.000    0.000 
#
# Total GULP energy -245129.667684 kJ/mol
# GULP energy per Si atom -5571.128811 kJ/mol
# Density = 1.816810 g / cm^3
# Si number density = 18.209545 Si / 1000 Ang^3
#
#
#
# Elastic Constant Matrix: (Units=GPa)
#
#
# Indices 1 2 3 4 5 6 
#
# 1 30.5538 17.6861 36.1479 0.0000 0.0000 0.0000
# 2 17.6861 108.7166 52.3615 0.0000 0.0000 0.0000
# 3 36.1479 52.3615 117.7036 0.0000 0.0000 0.0000
# 4 0.0000 0.0000 0.0000 15.1612 0.0000 0.0000
# 5 0.0000 0.0000 0.0000 0.0000 28.3439 0.0000
# 6 0.0000 0.0000 0.0000 0.0000 0.0000 20.8897
#
#
#
# Elastic Compliance Matrix: (Units=1/GPa)
#
#
# Indices 1 2 3 4 5 6 
#
# 1 0.051487 -0.000968 -0.015382 0.000000 0.000000 0.000000
# 2 -0.000968 0.011725 -0.004919 0.000000 0.000000 0.000000
# 3 -0.015382 -0.004919 0.015408 0.000000 0.000000 0.000000
# 4 0.000000 0.000000 0.000000 0.065958 0.000000 0.000000
# 5 0.000000 0.000000 0.000000 0.000000 0.035281 0.000000
# 6 0.000000 0.000000 0.000000 0.000000 0.000000 0.047871
#
#
# Mechanical properties :
#
#
# Convention : Reuss Voigt Hill
#
# Bulk Modulus (GPa) = 27.71334 52.15169 39.93251
# Shear Modulus (GPa) = 17.71207 22.93084 20.32146
#
# Velocity S-wave (km/s) = 3.12217 3.55248 3.34425
# Velocity P-wave (km/s) = 5.31502 6.74750 6.07364
#
# Compressibility (1/GPa) = 0.03608371
#
# Stress axis : x y z
#
# Youngs Moduli (GPa) = 19.42228 85.29056 64.90164
#
# Poissons Ratio (x) = 0.08253 0.99830
# Poissons Ratio (y) = 0.01879 0.31923
# Poissons Ratio (z) = 0.29875 0.41951
#
# Static dielectric constant tensor:
#      x y z
#    x 1.618630 0.000000 0.000000 
#    y 0.000000 1.645850 0.000000 
#    z 0.000000 0.000000 1.836190 
# 
# From -- ./inp_files/19953.got.cif
#   From: 2010.05.17/outbox.cif.g08.bks.cpg/sg60_10_cif.got.tgz:19953.got - 2010.06.03 14:59:27.
