data_PCOD9454521
_publ_section_title
;
Structure prediction by ZEFSAII (Michael W. Deem and Ramdas Pophale) SiO2 
 PCOD9454521
Probable space group: P B C N
;
_chemical_formula_sum "Si O2"
_cell_formula_units_Z 64
_cell_length_a 28.477158
_cell_length_b 5.426258
_cell_length_c 19.391982
_cell_angle_alpha 90.000000
_cell_angle_beta 90.000000
_cell_angle_gamma 90.000000
_cell_volume 2996.534508
_symmetry_space_group_name_H-M "P B C N"
_symmetry_group_IT_number 60
_symmetry_cell_setting 'orthorhombic'
loop_
_space_group_symop_operation_xyz
x,y,z
1/2-x,1/2-y,1/2+z
1/2+x,1/2-y,-z
-x,y,1/2-z
-x,-y,-z
1/2+x,1/2+y,1/2-z
1/2-x,1/2+y,z
x,-y,1/2+z
loop_
_atom_site_type_symbol
_atom_site_label
_atom_site_fract_x
_atom_site_fract_y
_atom_site_fract_z
Si Si1 0.935749 0.597253 0.104870
Si Si2 0.133953 0.833869 0.658824
Si Si3 0.775987 0.706190 0.445910
Si Si4 0.948195 0.573858 0.757372
Si Si5 0.739022 0.713366 0.290817
Si Si6 0.068061 0.799879 0.129976
Si Si7 0.123037 0.502786 0.526646
Si Si8 0.511191 0.405505 0.576004
O O1 0.929629 0.525368 0.184422
O O2 0.971411 0.374506 0.081178
O O3 0.953811 0.879833 0.102882
O O4 0.893426 0.577653 0.049604
O O5 0.095223 0.715796 0.708776
O O6 0.185415 0.788383 0.685924
O O7 0.131135 0.724722 0.581195
O O8 0.119016 0.118249 0.656571
O O9 0.744600 0.470314 0.468356
O O10 0.770101 0.709524 0.361889
O O11 0.828891 0.653596 0.470304
O O12 0.957510 0.355229 0.811891
O O13 0.000000 0.698380 0.750000
O O14 0.749739 0.462789 0.252045
O O15 0.079885 0.648074 0.061449
O O16 0.037638 0.041097 0.114575
O O17 0.500000 0.500000 0.500000
#
# Coordination Sequence:
#
# PCOD9454521 Si02
#       8
#     8   8   8   8   8   8   8   8
#     4  12  27  43  64  92 132 174 218 269 330 391
#     4  11  23  38  68  96 132 171 227 277 332 406
#     4  10  19  34  60  92 129 157 201 260 341 391
#     4  11  25  44  61  91 134 187 226 270 329 405
#     4  10  19  36  61  96 129 157 206 275 340 385
#     4  11  23  38  65  92 129 172 225 270 328 386
#     4  11  23  38  63 100 127 165 214 282 332 395
#     4  12  24  43  66  91 129 169 221 275 323 379
#
# _framework density 21.358004999999999
#
# number of rings (size 3 to 8) (size 9 to 14) (size 15 to 20)
#    0.000    1.000    5.000    3.375    5.250    0.500 
#    0.000    0.000    0.000    1.500    0.000    0.000 
#    0.000    0.000    0.000    0.000    0.000    0.000 
#
# Total GULP energy -357232.171570 kJ/mol
# GULP energy per Si atom -5581.752681 kJ/mol
# Density = 2.130939 g / cm^3
# Si number density = 21.358005 Si / 1000 Ang^3
#
#
#
# Elastic Constant Matrix: (Units=GPa)
#
#
# Indices 1 2 3 4 5 6 
#
# 1 105.1874 24.8169 31.4827 0.0000 0.0000 0.0000
# 2 24.8169 91.0058 -5.1999 0.0000 0.0000 0.0000
# 3 31.4827 -5.1999 87.6142 0.0000 0.0000 0.0000
# 4 0.0000 0.0000 0.0000 9.0711 0.0000 0.0000
# 5 0.0000 0.0000 0.0000 0.0000 16.6740 0.0000
# 6 0.0000 0.0000 0.0000 0.0000 0.0000 39.8481
#
#
#
# Elastic Compliance Matrix: (Units=1/GPa)
#
#
# Indices 1 2 3 4 5 6 
#
# 1 0.011625 -0.003420 -0.004380 0.000000 0.000000 0.000000
# 2 -0.003420 0.012032 0.001943 0.000000 0.000000 0.000000
# 3 -0.004380 0.001943 0.013103 0.000000 0.000000 0.000000
# 4 0.000000 0.000000 0.000000 0.110241 0.000000 0.000000
# 5 0.000000 0.000000 0.000000 0.000000 0.059974 0.000000
# 6 0.000000 0.000000 0.000000 0.000000 0.000000 0.025095
#
#
# Mechanical properties :
#
#
# Convention : Reuss Voigt Hill
#
# Bulk Modulus (GPa) = 39.92802 42.88966 41.40884
# Shear Modulus (GPa) = 19.83086 28.63248 24.23167
#
# Velocity S-wave (km/s) = 3.05043 3.66539 3.37196
# Velocity P-wave (km/s) = 5.58051 6.16752 5.88134
#
# Compressibility (1/GPa) = 0.02504507
#
# Stress axis : x y z
#
# Youngs Moduli (GPa) = 86.02312 83.11147 76.31872
#
# Poissons Ratio (x) = 0.28427 0.33429
# Poissons Ratio (y) = 0.29423 -0.14830
# Poissons Ratio (z) = 0.37680 -0.16150
#
# Static dielectric constant tensor:
#      x y z
#    x 1.808810 0.000000 0.000000 
#    y 0.000000 1.901490 0.000000 
#    z 0.000000 0.000000 1.765870 
# 
# From -- ./inp_files/21293.got.cif
#   From: 2010.05.17/outbox.cif.g08.bks.cpg/sg60_11_cif.got.tgz:21293.got - 2010.06.03 14:59:27.
