data_PCOD9454029
_publ_section_title
;
Structure prediction by ZEFSAII (Michael W. Deem and Ramdas Pophale) SiO2 
 PCOD9454029
Probable space group: P B C N
;
_chemical_formula_sum "Si O2"
_cell_formula_units_Z 48
_cell_length_a 9.328137
_cell_length_b 17.779064
_cell_length_c 11.597921
_cell_angle_alpha 90.000000
_cell_angle_beta 90.000000
_cell_angle_gamma 90.000000
_cell_volume 1923.463526
_symmetry_space_group_name_H-M "P B C N"
_symmetry_group_IT_number 60
_symmetry_cell_setting 'orthorhombic'
loop_
_space_group_symop_operation_xyz
x,y,z
1/2-x,1/2-y,1/2+z
1/2+x,1/2-y,-z
-x,y,1/2-z
-x,-y,-z
1/2+x,1/2+y,1/2-z
1/2-x,1/2+y,z
x,-y,1/2+z
loop_
_atom_site_type_symbol
_atom_site_label
_atom_site_fract_x
_atom_site_fract_y
_atom_site_fract_z
Si Si1 0.549649 0.828721 0.032176
Si Si2 0.164825 0.152632 0.268260
Si Si3 0.152636 0.543772 0.112705
Si Si4 0.857719 0.021014 0.068189
Si Si5 0.239348 0.220189 0.621952
Si Si6 0.226858 0.586094 0.765665
O O1 0.642695 0.763336 0.970769
O O2 0.538519 0.896283 0.936565
O O3 0.398816 0.794545 0.071403
O O4 0.635614 0.865013 0.141258
O O5 0.253326 0.226576 0.236504
O O6 0.000000 0.172147 0.250000
O O7 0.224801 0.095236 0.171759
O O8 0.164093 0.105414 0.385835
O O9 0.129759 0.475990 0.200608
O O10 0.220438 0.502532 0.004578
O O11 0.847643 0.963271 0.173679
O O12 0.000000 0.000000 0.000000
O O13 0.199196 0.139358 0.671310
#
# Coordination Sequence:
#
# PCOD9454029 Si02
#       6
#     8   8   8   8   8   8
#     4  10  23  46  69 100 139 188 236 290 361 429
#     4  10  18  32  61  90 129 182 224 278 353 409
#     4   9  20  37  61  98 131 177 238 287 344 423
#     4  10  19  36  61  99 137 176 228 293 350 415
#     4  11  24  44  67  98 141 187 232 291 359 432
#     4  10  22  40  64 100 136 181 235 292 360 425
#
# _framework density 24.954982999999999
#
# number of rings (size 3 to 8) (size 9 to 14) (size 15 to 20)
#    0.000    2.000    1.667    1.500    0.000    3.333 
#    3.000    0.000    0.000    0.000    0.000    0.000 
#    0.000    0.000    0.000    0.000    0.000    0.000 
#
# Total GULP energy -268359.179313 kJ/mol
# GULP energy per Si atom -5590.816236 kJ/mol
# Density = 2.489818 g / cm^3
# Si number density = 24.954983 Si / 1000 Ang^3
#
#
#
# Elastic Constant Matrix: (Units=GPa)
#
#
# Indices 1 2 3 4 5 6 
#
# 1 64.1795 38.8174 34.4093 0.0000 0.0000 0.0000
# 2 38.8174 154.2295 71.1905 0.0000 0.0000 0.0000
# 3 34.4093 71.1905 108.2621 0.0000 0.0000 0.0000
# 4 0.0000 0.0000 0.0000 52.4439 0.0000 0.0000
# 5 0.0000 0.0000 0.0000 0.0000 9.6131 0.0000
# 6 0.0000 0.0000 0.0000 0.0000 0.0000 12.7358
#
#
#
# Elastic Compliance Matrix: (Units=1/GPa)
#
#
# Indices 1 2 3 4 5 6 
#
# 1 0.019684 -0.002967 -0.004305 0.000000 0.000000 0.000000
# 2 -0.002967 0.009757 -0.005473 0.000000 0.000000 0.000000
# 3 -0.004305 -0.005473 0.014204 0.000000 0.000000 0.000000
# 4 0.000000 0.000000 0.000000 0.019068 0.000000 0.000000
# 5 0.000000 0.000000 0.000000 0.000000 0.104025 0.000000
# 6 0.000000 0.000000 0.000000 0.000000 0.000000 0.078519
#
#
# Mechanical properties :
#
#
# Convention : Reuss Voigt Hill
#
# Bulk Modulus (GPa) = 55.08201 68.38948 61.73574
# Shear Modulus (GPa) = 18.06369 27.10881 22.58625
#
# Velocity S-wave (km/s) = 2.69337 3.29950 3.01172
# Velocity P-wave (km/s) = 5.63851 6.47921 6.07342
#
# Compressibility (1/GPa) = 0.01815475
#
# Stress axis : x y z
#
# Youngs Moduli (GPa) = 50.80273 102.49297 70.40276
#
# Poissons Ratio (x) = 0.30409 0.30310
# Poissons Ratio (y) = 0.15073 0.38530
# Poissons Ratio (z) = 0.21872 0.56093
#
# Static dielectric constant tensor:
#      x y z
#    x 1.912990 0.000000 0.000000 
#    y 0.000000 1.976020 0.000000 
#    z 0.000000 0.000000 2.084040 
# 
# From -- ./inp_files/12892.got.cif
#   From: 2010.05.17/outbox.cif.g08.bks.cpg/sg60_7_cif.got.tgz:12892.got - 2010.06.03 14:59:27.
