data_PCOD9454131
_publ_section_title
;
Structure prediction by ZEFSAII (Michael W. Deem and Ramdas Pophale) SiO2 
 PCOD9454131
Probable space group: P B C N
;
_chemical_formula_sum "Si O2"
_cell_formula_units_Z 60
_cell_length_a 17.556291
_cell_length_b 29.078799
_cell_length_c 5.507145
_cell_angle_alpha 90.000000
_cell_angle_beta 90.000000
_cell_angle_gamma 90.000000
_cell_volume 2811.484850
_symmetry_space_group_name_H-M "P B C N"
_symmetry_group_IT_number 60
_symmetry_cell_setting 'orthorhombic'
loop_
_space_group_symop_operation_xyz
x,y,z
1/2-x,1/2-y,1/2+z
1/2+x,1/2-y,-z
-x,y,1/2-z
-x,-y,-z
1/2+x,1/2+y,1/2-z
1/2-x,1/2+y,z
x,-y,1/2+z
loop_
_atom_site_type_symbol
_atom_site_label
_atom_site_fract_x
_atom_site_fract_y
_atom_site_fract_z
Si Si1 0.814273 0.009976 0.486458
Si Si2 0.868547 0.710378 0.931026
Si Si3 0.926805 0.204777 0.140547
Si Si4 0.090379 0.612866 0.759586
Si Si5 0.777162 0.160253 0.979180
Si Si6 0.355714 0.025311 0.507707
Si Si7 0.763789 0.391644 0.976626
Si Si8 0.000000 0.272209 0.750000
O O1 0.782217 0.061205 0.480869
O O2 0.856148 0.000877 0.737481
O O3 0.736664 0.978800 0.490831
O O4 0.884617 0.761232 0.830844
O O5 0.892486 0.667387 0.762526
O O6 0.780035 0.703781 0.983516
O O7 0.926812 0.701430 0.151689
O O8 0.000000 0.178699 0.250000
O O9 0.864254 0.174463 0.010043
O O10 0.966103 0.240314 0.958274
O O11 0.120471 0.578005 0.550589
O O12 0.000000 0.606999 0.750000
O O13 0.145977 0.599042 0.982412
O O14 0.762604 0.135703 0.720366
O O15 0.753550 0.132750 0.222218
O O16 0.381460 0.002089 0.253879
#
# Coordination Sequence:
#
# PCOD9454131 Si02
#       8
#     8   8   8   8   8   8   8   4
#     4  10  18  35  61  80 122 166 209 264 324 378
#     4  10  25  38  64  90 129 169 218 262 323 376
#     4  10  24  46  67  97 128 172 215 268 334 393
#     4  11  23  39  57  84 122 172 224 270 318 368
#     4  11  27  40  70  95 132 168 219 270 327 386
#     4  10  21  37  55  76 112 161 218 267 315 361
#     4  11  24  41  58  95 129 168 218 280 317 386
#     4  10  22  42  68  88 130 170 216 260 324 384
#
# _framework density 21.341035000000002
#
# number of rings (size 3 to 8) (size 9 to 14) (size 15 to 20)
#    0.000    1.600    2.667    2.000   16.800    0.533 
#    0.000    0.000    0.000    0.000    0.000    0.000 
#    0.000   10.667    0.000    0.000    0.000    0.000 
#
# Total GULP energy -334655.678018 kJ/mol
# GULP energy per Si atom -5577.594634 kJ/mol
# Density = 2.129246 g / cm^3
# Si number density = 21.341035 Si / 1000 Ang^3
#
#
#
# Elastic Constant Matrix: (Units=GPa)
#
#
# Indices 1 2 3 4 5 6 
#
# 1 81.2781 10.9904 10.6748 0.0000 0.0000 0.0000
# 2 10.9904 32.5526 8.4614 0.0000 0.0000 0.0000
# 3 10.6748 8.4614 108.9322 0.0000 0.0000 0.0000
# 4 0.0000 0.0000 0.0000 -190.4838 0.0000 0.0000
# 5 0.0000 0.0000 0.0000 0.0000 19.4196 0.0000
# 6 0.0000 0.0000 0.0000 0.0000 0.0000 24.4247
#
#
#
# Elastic Compliance Matrix: (Units=1/GPa)
#
#
# Indices 1 2 3 4 5 6 
#
# 1 0.012988 -0.004138 -0.000951 0.000000 0.000000 0.000000
# 2 -0.004138 0.032671 -0.002132 0.000000 0.000000 0.000000
# 3 -0.000951 -0.002132 0.009439 0.000000 0.000000 0.000000
# 4 0.000000 0.000000 0.000000 -0.005250 0.000000 0.000000
# 5 0.000000 0.000000 0.000000 0.000000 0.051494 0.000000
# 6 0.000000 0.000000 0.000000 0.000000 0.000000 0.040942
#
#
# Mechanical properties :
#
#
# Convention : Reuss Voigt Hill
#
# Bulk Modulus (GPa) = 24.59725 31.44622 28.02174
# Shear Modulus (GPa) = 29.36365 -16.48550 6.43907
#
# Velocity S-wave (km/s) = 3.71337 -2.78237 1.73890
# Velocity P-wave (km/s) = 5.47141 2.10832 4.14616
#
# Compressibility (1/GPa) = 0.04065494
#
# Stress axis : x y z
#
# Youngs Moduli (GPa) = 76.99482 30.60841 105.94483
#
# Poissons Ratio (x) = 0.12665 0.10079
# Poissons Ratio (y) = 0.31858 0.22590
# Poissons Ratio (z) = 0.07325 0.06526
#
# Static dielectric constant tensor:
#      x y z
#    x 1.768180 0.000000 0.000000 
#    y 0.000000 1.798200 0.000000 
#    z 0.000000 0.000000 1.920740 
# 
# From -- ./inp_files/1851.got.cif
#   From: 2010.05.17/outbox.cif.g08.bks.cpg/sg60_1_cif.got.tgz:1851.got - 2010.06.03 14:59:27.
