data_PCOD9454051
_publ_section_title
;
Structure prediction by ZEFSAII (Michael W. Deem and Ramdas Pophale) SiO2 
 PCOD9454051
Probable space group: P B C N
;
_chemical_formula_sum "Si O2"
_cell_formula_units_Z 48
_cell_length_a 8.043920
_cell_length_b 18.626449
_cell_length_c 17.418816
_cell_angle_alpha 90.000000
_cell_angle_beta 90.000000
_cell_angle_gamma 90.000000
_cell_volume 2609.855377
_symmetry_space_group_name_H-M "P B C N"
_symmetry_group_IT_number 60
_symmetry_cell_setting 'orthorhombic'
loop_
_space_group_symop_operation_xyz
x,y,z
1/2-x,1/2-y,1/2+z
1/2+x,1/2-y,-z
-x,y,1/2-z
-x,-y,-z
1/2+x,1/2+y,1/2-z
1/2-x,1/2+y,z
x,-y,1/2+z
loop_
_atom_site_type_symbol
_atom_site_label
_atom_site_fract_x
_atom_site_fract_y
_atom_site_fract_z
Si Si1 0.671178 0.143834 0.708541
Si Si2 0.329163 0.997402 0.547802
Si Si3 0.439173 0.743849 0.838378
Si Si4 0.624688 0.602391 0.858688
Si Si5 0.792136 0.977590 0.110403
Si Si6 0.033485 0.406622 0.841174
O O1 0.500000 0.159105 0.750000
O O2 0.753743 0.212749 0.669204
O O3 0.792519 0.113552 0.775521
O O4 0.666239 0.081929 0.645064
O O5 0.261109 0.070997 0.583549
O O6 0.202219 0.972783 0.481781
O O7 0.622174 0.055423 0.383220
O O8 0.500000 0.000000 0.500000
O O9 0.500000 0.747515 0.750000
O O10 0.545390 0.680277 0.878088
O O11 0.453721 0.824164 0.868228
O O12 0.473423 0.544934 0.858888
O O13 0.704158 0.051351 0.136941
O O14 0.000000 0.410494 0.750000
#
# Coordination Sequence:
#
# PCOD9454051 Si02
#       6
#     8   8   8   8   8   8
#     4  10  18  33  56  80 106 145 187 221 265 329
#     4  10  20  33  53  79 106 139 177 219 266 319
#     4   8  18  34  53  76 105 137 175 220 263 308
#     4  10  19  35  55  77 106 143 179 216 265 323
#     4  10  19  32  53  81 109 138 177 221 266 322
#     4  10  19  35  55  79 107 136 173 223 269 311
#
# _framework density 18.391822999999999
#
# number of rings (size 3 to 8) (size 9 to 14) (size 15 to 20)
#    0.000    2.333    0.000    5.500    0.000    0.000 
#    0.000   13.333    0.000    0.000    0.000    0.000 
#    0.000    0.000    0.000    0.000    0.000    0.000 
#
# Total GULP energy -267240.894256 kJ/mol
# GULP energy per Si atom -5567.518630 kJ/mol
# Density = 1.834996 g / cm^3
# Si number density = 18.391823 Si / 1000 Ang^3
#
#
#
# Elastic Constant Matrix: (Units=GPa)
#
#
# Indices 1 2 3 4 5 6 
#
# 1 89.1070 44.5216 18.7908 0.0000 0.0000 0.0000
# 2 44.5216 135.9670 31.3830 0.0000 0.0000 0.0000
# 3 18.7908 31.3830 79.4433 0.0000 0.0000 0.0000
# 4 0.0000 0.0000 0.0000 -8.0290 0.0000 0.0000
# 5 0.0000 0.0000 0.0000 0.0000 29.2652 0.0000
# 6 0.0000 0.0000 0.0000 0.0000 0.0000 18.8809
#
#
#
# Elastic Compliance Matrix: (Units=1/GPa)
#
#
# Indices 1 2 3 4 5 6 
#
# 1 0.013601 -0.004083 -0.001604 0.000000 0.000000 0.000000
# 2 -0.004083 0.009319 -0.002715 0.000000 0.000000 0.000000
# 3 -0.001604 -0.002715 0.014040 0.000000 0.000000 0.000000
# 4 0.000000 0.000000 0.000000 -0.124548 0.000000 0.000000
# 5 0.000000 0.000000 0.000000 0.000000 0.034170 0.000000
# 6 0.000000 0.000000 0.000000 0.000000 0.000000 0.052964
#
#
# Mechanical properties :
#
#
# Convention : Reuss Voigt Hill
#
# Bulk Modulus (GPa) = 49.61838 54.87868 52.24853
# Shear Modulus (GPa) = 216.75005 22.01153 119.38079
#
# Velocity S-wave (km/s) = 10.86771 3.46325 8.06540
# Velocity P-wave (km/s) = 13.58357 6.77462 10.73333
#
# Compressibility (1/GPa) = 0.02015382
#
# Stress axis : x y z
#
# Youngs Moduli (GPa) = 73.52455 107.31333 71.22690
#
# Poissons Ratio (x) = 0.43819 0.11425
# Poissons Ratio (y) = 0.30022 0.19340
# Poissons Ratio (z) = 0.11793 0.29139
#
# Static dielectric constant tensor:
#      x y z
#    x 1.696040 0.000000 0.000000 
#    y 0.000000 1.638970 0.000000 
#    z 0.000000 0.000000 1.669600 
# 
# From -- ./inp_files/19608.got.cif
#   From: 2010.05.17/outbox.cif.g08.bks.cpg/sg60_10_cif.got.tgz:19608.got - 2010.06.03 14:59:27.
