data_PCOD9454939
_publ_section_title
;
Structure prediction by ZEFSAII (Michael W. Deem and Ramdas Pophale) SiO2 
 PCOD9454939
Probable space group: P B C N
;
_chemical_formula_sum "Si O2"
_cell_formula_units_Z 56
_cell_length_a 20.535867
_cell_length_b 9.022615
_cell_length_c 15.917512
_cell_angle_alpha 90.000000
_cell_angle_beta 90.000000
_cell_angle_gamma 90.000000
_cell_volume 2949.311574
_symmetry_space_group_name_H-M "P B C N"
_symmetry_group_IT_number 60
_symmetry_cell_setting 'orthorhombic'
loop_
_space_group_symop_operation_xyz
x,y,z
1/2-x,1/2-y,1/2+z
1/2+x,1/2-y,-z
-x,y,1/2-z
-x,-y,-z
1/2+x,1/2+y,1/2-z
1/2-x,1/2+y,z
x,-y,1/2+z
loop_
_atom_site_type_symbol
_atom_site_label
_atom_site_fract_x
_atom_site_fract_y
_atom_site_fract_z
Si Si1 0.575698 0.012862 0.023427
Si Si2 0.330803 0.304620 0.234370
Si Si3 0.846415 0.606902 0.861656
Si Si4 0.234605 0.067688 0.325126
Si Si5 0.573778 0.928625 0.722035
Si Si6 0.743492 0.827391 0.894819
Si Si7 0.308553 0.176902 0.933244
O O1 0.609473 0.101059 0.945784
O O2 0.579001 0.064744 0.120852
O O3 0.500000 0.000000 0.000000
O O4 0.621822 0.867130 0.028361
O O5 0.280986 0.184706 0.277362
O O6 0.311252 0.461983 0.270273
O O7 0.400261 0.233877 0.251971
O O8 0.312742 0.284630 0.137724
O O9 0.884410 0.547539 0.778790
O O10 0.810506 0.765170 0.856072
O O11 0.787695 0.487683 0.875679
O O12 0.191245 0.169834 0.384591
O O13 0.282460 0.956835 0.375039
O O14 0.500000 0.950768 0.750000
O O15 0.745619 0.811845 0.994312
#
# Coordination Sequence:
#
# PCOD9454939 Si02
#       7
#     8   8   8   8   8   8   8
#     4  11  21  37  58  82 116 154 200 236 279 344
#     4  10  20  35  56  85 113 148 186 241 294 355
#     4  10  22  37  58  89 118 143 189 246 291 354
#     4  10  20  33  56  86 115 142 186 236 303 356
#     4  11  21  37  58  82 113 158 202 235 283 348
#     4  10  20  34  54  84 116 143 182 237 298 346
#     4  10  20  35  56  86 117 150 187 242 297 356
#
# _framework density 18.987482
#
# number of rings (size 3 to 8) (size 9 to 14) (size 15 to 20)
#    0.000    1.714    2.857    3.429    4.000    0.000 
#    0.000    0.000    0.000    6.857    0.000    0.000 
#    0.000    0.000    0.000    0.000    0.000    0.000 
#
# Total GULP energy -311869.386362 kJ/mol
# GULP energy per Si atom -5569.096185 kJ/mol
# Density = 1.894427 g / cm^3
# Si number density = 18.987482 Si / 1000 Ang^3
#
#
#
# Elastic Constant Matrix: (Units=GPa)
#
#
# Indices 1 2 3 4 5 6 
#
# 1 106.7463 35.6841 31.6472 0.0000 0.0000 0.0000
# 2 35.6841 81.1879 21.6267 0.0000 0.0000 0.0000
# 3 31.6472 21.6267 101.3627 0.0000 0.0000 0.0000
# 4 0.0000 0.0000 0.0000 27.2892 0.0000 0.0000
# 5 0.0000 0.0000 0.0000 0.0000 32.7850 0.0000
# 6 0.0000 0.0000 0.0000 0.0000 0.0000 22.8058
#
#
#
# Elastic Compliance Matrix: (Units=1/GPa)
#
#
# Indices 1 2 3 4 5 6 
#
# 1 0.011637 -0.004397 -0.002695 0.000000 0.000000 0.000000
# 2 -0.004397 0.014721 -0.001768 0.000000 0.000000 0.000000
# 3 -0.002695 -0.001768 0.011084 0.000000 0.000000 0.000000
# 4 0.000000 0.000000 0.000000 0.036645 0.000000 0.000000
# 5 0.000000 0.000000 0.000000 0.000000 0.030502 0.000000
# 6 0.000000 0.000000 0.000000 0.000000 0.000000 0.043849
#
#
# Mechanical properties :
#
#
# Convention : Reuss Voigt Hill
#
# Bulk Modulus (GPa) = 50.70527 51.91253 51.30890
# Shear Modulus (GPa) = 28.94687 29.93192 29.43940
#
# Velocity S-wave (km/s) = 3.90875 3.97470 3.94186
# Velocity P-wave (km/s) = 6.86540 6.96162 6.91367
#
# Compressibility (1/GPa) = 0.01972182
#
# Stress axis : x y z
#
# Youngs Moduli (GPa) = 85.93414 67.93225 90.21811
#
# Poissons Ratio (x) = 0.29868 0.24315
# Poissons Ratio (y) = 0.37783 0.15951
# Poissons Ratio (z) = 0.23160 0.12011
#
# Static dielectric constant tensor:
#      x y z
#    x 1.672300 0.000000 0.000000 
#    y 0.000000 1.678750 0.000000 
#    z 0.000000 0.000000 1.791250 
# 
# From -- ./inp_files/17718.got.cif
#   From: 2010.05.17/outbox.cif.g08.bks.cpg/sg60_9_cif.got.tgz:17718.got - 2010.06.03 14:59:27.
