data_PCOD9454120
_publ_section_title
;
Structure prediction by ZEFSAII (Michael W. Deem and Ramdas Pophale) SiO2 
 PCOD9454120
Probable space group: P B C N
;
_chemical_formula_sum "Si O2"
_cell_formula_units_Z 52
_cell_length_a 14.422152
_cell_length_b 8.123934
_cell_length_c 20.327560
_cell_angle_alpha 90.000000
_cell_angle_beta 90.000000
_cell_angle_gamma 90.000000
_cell_volume 2381.670660
_symmetry_space_group_name_H-M "P B C N"
_symmetry_group_IT_number 60
_symmetry_cell_setting 'orthorhombic'
loop_
_space_group_symop_operation_xyz
x,y,z
1/2-x,1/2-y,1/2+z
1/2+x,1/2-y,-z
-x,y,1/2-z
-x,-y,-z
1/2+x,1/2+y,1/2-z
1/2-x,1/2+y,z
x,-y,1/2+z
loop_
_atom_site_type_symbol
_atom_site_label
_atom_site_fract_x
_atom_site_fract_y
_atom_site_fract_z
Si Si1 0.848842 0.033242 0.612064
Si Si2 0.815578 0.289703 0.182314
Si Si3 0.960551 0.030199 0.839214
Si Si4 0.683759 0.780938 0.801590
Si Si5 0.146740 0.108818 0.040279
Si Si6 0.000000 0.724170 0.750000
Si Si7 0.684614 0.067425 0.895736
O O1 0.752383 0.092705 0.642448
O O2 0.937401 0.101026 0.651093
O O3 0.863060 0.076539 0.536466
O O4 0.851493 0.840687 0.628881
O O5 0.748574 0.201420 0.237242
O O6 0.908719 0.358947 0.217911
O O7 0.917460 0.999474 0.911443
O O8 0.898605 0.151022 0.795952
O O9 0.960678 0.852419 0.804274
O O10 0.646210 0.940850 0.840792
O O11 0.752452 0.687890 0.851808
O O12 0.130430 0.300443 0.059790
O O13 0.250274 0.044345 0.058018
#
# Coordination Sequence:
#
# PCOD9454120 Si02
#       7
#     8   8   8   8   8   4   8
#     4  11  23  39  57  86 121 161 197 243 307 367
#     4  11  22  37  60  83 117 150 193 254 304 360
#     4  10  21  37  62  86 120 160 199 246 297 367
#     4  10  18  35  57  87 113 146 196 246 300 346
#     4  10  19  36  57  86 122 162 203 242 294 363
#     4  10  20  38  60  88 110 150 206 250 308 354
#     4   9  18  31  58  83 111 155 200 246 289 346
#
# _framework density 21.833414000000001
#
# number of rings (size 3 to 8) (size 9 to 14) (size 15 to 20)
#    0.000    1.846    0.000    6.923    0.000    0.000 
#    0.000    6.923    0.000    0.923    0.000    3.231 
#    0.000    0.000    0.000    0.000    0.000    0.000 
#
# Total GULP energy -289875.599245 kJ/mol
# GULP energy per Si atom -5574.530755 kJ/mol
# Density = 2.178372 g / cm^3
# Si number density = 21.833414 Si / 1000 Ang^3
#
#
#
# Elastic Constant Matrix: (Units=GPa)
#
#
# Indices 1 2 3 4 5 6 
#
# 1 95.4452 10.9604 32.5833 0.0000 0.0000 0.0000
# 2 10.9604 33.5016 7.5738 0.0000 0.0000 0.0000
# 3 32.5833 7.5738 121.0527 0.0000 0.0000 0.0000
# 4 0.0000 0.0000 0.0000 19.8565 0.0000 0.0000
# 5 0.0000 0.0000 0.0000 0.0000 27.8037 0.0000
# 6 0.0000 0.0000 0.0000 0.0000 0.0000 17.1893
#
#
#
# Elastic Compliance Matrix: (Units=1/GPa)
#
#
# Indices 1 2 3 4 5 6 
#
# 1 0.011867 -0.003206 -0.002994 0.000000 0.000000 0.000000
# 2 -0.003206 0.031144 -0.001086 0.000000 0.000000 0.000000
# 3 -0.002994 -0.001086 0.009135 0.000000 0.000000 0.000000
# 4 0.000000 0.000000 0.000000 0.050361 0.000000 0.000000
# 5 0.000000 0.000000 0.000000 0.000000 0.035966 0.000000
# 6 0.000000 0.000000 0.000000 0.000000 0.000000 0.058176
#
#
# Mechanical properties :
#
#
# Convention : Reuss Voigt Hill
#
# Bulk Modulus (GPa) = 26.61324 39.13718 32.87521
# Shear Modulus (GPa) = 22.34695 26.22871 24.28783
#
# Velocity S-wave (km/s) = 3.20272 3.46975 3.33891
# Velocity P-wave (km/s) = 5.08844 5.83237 5.47306
#
# Compressibility (1/GPa) = 0.03757528
#
# Stress axis : x y z
#
# Youngs Moduli (GPa) = 84.26484 32.10937 109.47384
#
# Poissons Ratio (x) = 0.10293 0.32773
# Poissons Ratio (y) = 0.27013 0.11885
# Poissons Ratio (z) = 0.25227 0.03486
#
# Static dielectric constant tensor:
#      x y z
#    x 1.853860 0.000000 0.000000 
#    y 0.000000 1.842810 0.000000 
#    z 0.000000 0.000000 1.804890 
# 
# From -- ./inp_files/24387.got.cif
#   From: 2010.05.17/outbox.cif.g08.bks.cpg/sg60_13_cif.got.tgz:24387.got - 2010.06.03 14:59:27.
