data_PCOD9454543
_publ_section_title
;
Structure prediction by ZEFSAII (Michael W. Deem and Ramdas Pophale) SiO2 
 PCOD9454543
Probable space group: P B C N
;
_chemical_formula_sum "Si O2"
_cell_formula_units_Z 40
_cell_length_a 9.423697
_cell_length_b 18.354664
_cell_length_c 9.028514
_cell_angle_alpha 90.000000
_cell_angle_beta 90.000000
_cell_angle_gamma 90.000000
_cell_volume 1561.651161
_symmetry_space_group_name_H-M "P B C N"
_symmetry_group_IT_number 60
_symmetry_cell_setting 'orthorhombic'
loop_
_space_group_symop_operation_xyz
x,y,z
1/2-x,1/2-y,1/2+z
1/2+x,1/2-y,-z
-x,y,1/2-z
-x,-y,-z
1/2+x,1/2+y,1/2-z
1/2-x,1/2+y,z
x,-y,1/2+z
loop_
_atom_site_type_symbol
_atom_site_label
_atom_site_fract_x
_atom_site_fract_y
_atom_site_fract_z
Si Si1 0.302296 0.577850 0.164560
Si Si2 0.056455 0.363776 0.478062
Si Si3 0.233864 0.923902 0.011759
Si Si4 0.424803 0.714848 0.034976
Si Si5 0.742232 0.317261 0.255615
O O1 0.305080 0.573995 0.340395
O O2 0.305827 0.499428 0.088203
O O3 0.417926 0.632665 0.094500
O O4 0.150210 0.610085 0.114053
O O5 0.151722 0.374103 0.330084
O O6 0.903058 0.402046 0.480806
O O7 0.045475 0.275767 0.479526
O O8 0.164481 0.861301 0.114221
O O9 0.330626 0.755159 0.162332
O O10 0.353914 0.713710 0.873623
#
# Coordination Sequence:
#
# PCOD9454543 Si02
#       5
#     8   8   8   8   8
#     4  11  22  35  57  86 117 151 188 234 286 340
#     4  10  21  36  56  84 116 149 185 231 286 342
#     4  11  21  36  55  84 119 149 186 240 293 337
#     4  10  19  35  54  81 114 151 187 227 283 341
#     4  10  21  36  55  83 115 150 189 234 284 342
#
# _framework density 25.613914999999999
#
# number of rings (size 3 to 8) (size 9 to 14) (size 15 to 20)
#    0.000    1.600    0.000    8.400    0.000    3.200 
#    0.000    2.000    0.000    0.000    0.000   89.600 
#    0.000    0.000    0.000    1.600    0.000    0.000 
#
# Total GULP energy -223961.453918 kJ/mol
# GULP energy per Si atom -5599.036348 kJ/mol
# Density = 2.555562 g / cm^3
# Si number density = 25.613915 Si / 1000 Ang^3
#
#
#
# Elastic Constant Matrix: (Units=GPa)
#
#
# Indices 1 2 3 4 5 6 
#
# 1 60.2023 17.1955 35.8793 0.0000 0.0000 0.0000
# 2 17.1955 155.3750 48.1178 0.0000 0.0000 0.0000
# 3 35.8793 48.1178 218.5163 0.0000 0.0000 0.0000
# 4 0.0000 0.0000 0.0000 52.3828 0.0000 0.0000
# 5 0.0000 0.0000 0.0000 0.0000 39.3591 0.0000
# 6 0.0000 0.0000 0.0000 0.0000 0.0000 33.2104
#
#
#
# Elastic Compliance Matrix: (Units=1/GPa)
#
#
# Indices 1 2 3 4 5 6 
#
# 1 0.018617 -0.001195 -0.002794 0.000000 0.000000 0.000000
# 2 -0.001195 0.006984 -0.001342 0.000000 0.000000 0.000000
# 3 -0.002794 -0.001342 0.005330 0.000000 0.000000 0.000000
# 4 0.000000 0.000000 0.000000 0.019090 0.000000 0.000000
# 5 0.000000 0.000000 0.000000 0.000000 0.025407 0.000000
# 6 0.000000 0.000000 0.000000 0.000000 0.000000 0.030111
#
#
# Mechanical properties :
#
#
# Convention : Reuss Voigt Hill
#
# Bulk Modulus (GPa) = 49.33312 70.71986 60.02649
# Shear Modulus (GPa) = 40.66456 47.18388 43.92422
#
# Velocity S-wave (km/s) = 3.98879 4.29665 4.14558
# Velocity P-wave (km/s) = 6.36522 7.23082 6.81178
#
# Compressibility (1/GPa) = 0.02027036
#
# Stress axis : x y z
#
# Youngs Moduli (GPa) = 53.71435 143.18869 187.60165
#
# Poissons Ratio (x) = 0.17114 0.52409
# Poissons Ratio (y) = 0.06420 0.25169
# Poissons Ratio (z) = 0.15006 0.19210
#
# Static dielectric constant tensor:
#      x y z
#    x 2.085060 0.000000 0.000000 
#    y 0.000000 2.018800 0.000000 
#    z 0.000000 0.000000 1.972090 
# 
# From -- ./inp_files/4742.got.cif
#   From: 2010.05.17/outbox.cif.g08.bks.cpg/sg60_3_cif.got.tgz:4742.got - 2010.06.03 14:59:27.
