data_PCOD9454500
_publ_section_title
;
Structure prediction by ZEFSAII (Michael W. Deem and Ramdas Pophale) SiO2 
 PCOD9454500
Probable space group: P B C N
;
_chemical_formula_sum "Si O2"
_cell_formula_units_Z 48
_cell_length_a 6.529950
_cell_length_b 14.178675
_cell_length_c 20.384154
_cell_angle_alpha 90.000000
_cell_angle_beta 90.000000
_cell_angle_gamma 90.000000
_cell_volume 1887.288073
_symmetry_space_group_name_H-M "P B C N"
_symmetry_group_IT_number 60
_symmetry_cell_setting 'orthorhombic'
loop_
_space_group_symop_operation_xyz
x,y,z
1/2-x,1/2-y,1/2+z
1/2+x,1/2-y,-z
-x,y,1/2-z
-x,-y,-z
1/2+x,1/2+y,1/2-z
1/2-x,1/2+y,z
x,-y,1/2+z
loop_
_atom_site_type_symbol
_atom_site_label
_atom_site_fract_x
_atom_site_fract_y
_atom_site_fract_z
Si Si1 0.332873 0.926645 0.350308
Si Si2 0.742016 0.122339 0.467817
Si Si3 0.500000 0.371603 0.250000
Si Si4 0.500000 0.056726 0.250000
Si Si5 0.232877 0.559281 0.473448
Si Si6 0.272982 0.256830 0.912790
Si Si7 0.359382 0.207672 0.166756
O O1 0.394780 0.820682 0.370095
O O2 0.140203 0.925233 0.301303
O O3 0.493282 0.987978 0.311435
O O4 0.278986 0.987098 0.413560
O O5 0.494218 0.103839 0.482997
O O6 0.807580 0.190941 0.527444
O O7 0.756597 0.175977 0.398532
O O8 0.805635 0.010712 0.468559
O O9 0.352052 0.306170 0.204800
O O10 0.330665 0.130738 0.224106
O O11 0.358271 0.649898 0.448666
O O12 0.093502 0.290750 0.863248
#
# Coordination Sequence:
#
# PCOD9454500 Si02
#       7
#     8   8   4   4   8   8   8
#     4  10  19  34  58  81 108 155 190 233 293 342
#     4   9  16  30  56  79 101 145 198 218 282 350
#     4   9  20  36  57  78 118 154 187 230 301 350
#     4  11  18  34  61  80 110 150 199 234 287 340
#     4   9  17  33  55  78 109 152 183 240 286 337
#     4   9  17  32  55  77 109 144 183 233 285 330
#     4   9  18  35  55  78 112 156 186 235 294 338
#
# _framework density 25.433318
#
# number of rings (size 3 to 8) (size 9 to 14) (size 15 to 20)
#    0.000    2.667    3.333    0.000    0.000    0.000 
#    3.000    0.833    7.333    9.000    0.000    0.000 
#    0.000    0.000    0.000    0.000    0.000    0.000 
#
# Total GULP energy -267478.092579 kJ/mol
# GULP energy per Si atom -5572.460262 kJ/mol
# Density = 2.537543 g / cm^3
# Si number density = 25.433318 Si / 1000 Ang^3
#
#
#
# Elastic Constant Matrix: (Units=GPa)
#
#
# Indices 1 2 3 4 5 6 
#
# 1 38.5752 14.0980 13.0825 0.0000 0.0000 0.0000
# 2 14.0980 133.0548 20.1062 0.0000 0.0000 0.0000
# 3 13.0825 20.1062 124.0481 0.0000 0.0000 0.0000
# 4 0.0000 0.0000 0.0000 -185.3528 0.0000 0.0000
# 5 0.0000 0.0000 0.0000 0.0000 37.6799 0.0000
# 6 0.0000 0.0000 0.0000 0.0000 0.0000 12.2420
#
#
#
# Elastic Compliance Matrix: (Units=1/GPa)
#
#
# Indices 1 2 3 4 5 6 
#
# 1 0.027708 -0.002557 -0.002508 0.000000 0.000000 0.000000
# 2 -0.002557 0.007940 -0.001017 0.000000 0.000000 0.000000
# 3 -0.002508 -0.001017 0.008491 0.000000 0.000000 0.000000
# 4 0.000000 0.000000 0.000000 -0.005395 0.000000 0.000000
# 5 0.000000 0.000000 0.000000 0.000000 0.026539 0.000000
# 6 0.000000 0.000000 0.000000 0.000000 0.000000 0.081686
#
#
# Mechanical properties :
#
#
# Convention : Reuss Voigt Hill
#
# Bulk Modulus (GPa) = 31.27404 43.36127 37.31765
# Shear Modulus (GPa) = 29.44779 -10.52674 9.46053
#
# Velocity S-wave (km/s) = 3.40640 -2.03665 1.93075
# Velocity P-wave (km/s) = 5.27206 3.39933 4.43565
#
# Compressibility (1/GPa) = 0.03197541
#
# Stress axis : x y z
#
# Youngs Moduli (GPa) = 36.09019 125.93898 117.77508
#
# Poissons Ratio (x) = 0.32201 0.29535
# Poissons Ratio (y) = 0.09228 0.11982
# Poissons Ratio (z) = 0.09051 0.12812
#
# Static dielectric constant tensor:
#      x y z
#    x 2.336580 0.000000 0.000000 
#    y 0.000000 2.017950 0.000000 
#    z 0.000000 0.000000 2.040030 
# 
# From -- ./inp_files/22106.got.cif
#   From: 2010.05.17/outbox.cif.g08.bks.cpg/sg60_12_cif.got.tgz:22106.got - 2010.06.03 14:59:27.
