data_PCOD9454509
_publ_section_title
;
Structure prediction by ZEFSAII (Michael W. Deem and Ramdas Pophale) SiO2 
 PCOD9454509
Probable space group: P B C N
;
_chemical_formula_sum "Si O2"
_cell_formula_units_Z 40
_cell_length_a 13.541761
_cell_length_b 13.728466
_cell_length_c 9.350258
_cell_angle_alpha 90.000000
_cell_angle_beta 90.000000
_cell_angle_gamma 90.000000
_cell_volume 1738.284075
_symmetry_space_group_name_H-M "P B C N"
_symmetry_group_IT_number 60
_symmetry_cell_setting 'orthorhombic'
loop_
_space_group_symop_operation_xyz
x,y,z
1/2-x,1/2-y,1/2+z
1/2+x,1/2-y,-z
-x,y,1/2-z
-x,-y,-z
1/2+x,1/2+y,1/2-z
1/2-x,1/2+y,z
x,-y,1/2+z
loop_
_atom_site_type_symbol
_atom_site_label
_atom_site_fract_x
_atom_site_fract_y
_atom_site_fract_z
Si Si1 0.128648 0.520661 0.561582
Si Si2 0.305931 0.251998 0.878002
Si Si3 0.000000 0.200167 0.750000
Si Si4 0.000000 0.330052 0.250000
Si Si5 0.195258 0.134354 0.658805
Si Si6 0.137661 0.625329 0.283174
O O1 0.242297 0.545282 0.599187
O O2 0.115845 0.538948 0.394613
O O3 0.109413 0.415660 0.628433
O O4 0.062203 0.601698 0.641499
O O5 0.418821 0.234088 0.834533
O O6 0.246042 0.161466 0.809940
O O7 0.251013 0.343217 0.801577
O O8 0.288986 0.277684 0.043769
O O9 0.922304 0.131776 0.830511
O O10 0.926093 0.279076 0.676683
#
# Coordination Sequence:
#
# PCOD9454509 Si02
#       6
#     8   8   4   4   8   8
#     4  10  21  35  53  79 109 139 172 215 266 315
#     4   9  19  35  54  78 107 140 179 220 264 314
#     4  10  19  34  59  80 102 136 182 224 259 308
#     4  10  19  34  59  80 102 136 182 224 259 308
#     4   9  19  35  54  78 107 140 179 220 264 314
#     4  10  21  35  53  79 109 139 172 215 266 315
#
# _framework density 23.011198
#
# number of rings (size 3 to 8) (size 9 to 14) (size 15 to 20)
#    0.000    2.400    0.000    1.800    0.000   11.200 
#    0.000    1.000    0.000    4.800    0.000    0.000 
#    0.000    0.000    0.000    0.000    0.000    0.000 
#
# Total GULP energy -223044.328405 kJ/mol
# GULP energy per Si atom -5576.108210 kJ/mol
# Density = 2.295882 g / cm^3
# Si number density = 23.011198 Si / 1000 Ang^3
#
#
#
# Elastic Constant Matrix: (Units=GPa)
#
#
# Indices 1 2 3 4 5 6 
#
# 1 157.1438 41.9377 20.1722 0.0000 0.0000 0.0000
# 2 41.9377 37.9355 9.3986 0.0000 0.0000 0.0000
# 3 20.1722 9.3986 37.0043 0.0000 0.0000 0.0000
# 4 0.0000 0.0000 0.0000 17.5904 0.0000 0.0000
# 5 0.0000 0.0000 0.0000 0.0000 30.5728 0.0000
# 6 0.0000 0.0000 0.0000 0.0000 0.0000 37.5411
#
#
#
# Elastic Compliance Matrix: (Units=1/GPa)
#
#
# Indices 1 2 3 4 5 6 
#
# 1 0.009257 -0.009587 -0.002612 0.000000 0.000000 0.000000
# 2 -0.009587 0.038059 -0.004440 0.000000 0.000000 0.000000
# 3 -0.002612 -0.004440 0.029575 0.000000 0.000000 0.000000
# 4 0.000000 0.000000 0.000000 0.056849 0.000000 0.000000
# 5 0.000000 0.000000 0.000000 0.000000 0.032709 0.000000
# 6 0.000000 0.000000 0.000000 0.000000 0.000000 0.026637
#
#
# Mechanical properties :
#
#
# Convention : Reuss Voigt Hill
#
# Bulk Modulus (GPa) = 22.92838 41.67785 32.30312
# Shear Modulus (GPa) = 20.75523 27.84585 24.30054
#
# Velocity S-wave (km/s) = 3.00653 3.48242 3.25319
# Velocity P-wave (km/s) = 4.69446 5.85841 5.30843
#
# Compressibility (1/GPa) = 0.04361407
#
# Stress axis : x y z
#
# Youngs Moduli (GPa) = 108.02201 26.27491 33.81204
#
# Poissons Ratio (x) = 0.25190 0.08830
# Poissons Ratio (y) = 1.03561 0.15014
# Poissons Ratio (z) = 0.28210 0.11667
#
# Static dielectric constant tensor:
#      x y z
#    x 1.919780 0.000000 0.000000 
#    y 0.000000 1.872820 0.000000 
#    z 0.000000 0.000000 1.899080 
# 
# From -- ./inp_files/4798.got.cif
#   From: 2010.05.17/outbox.cif.g08.bks.cpg/sg60_3_cif.got.tgz:4798.got - 2010.06.03 14:59:27.
