data_PCOD9454216
_publ_section_title
;
Structure prediction by ZEFSAII (Michael W. Deem and Ramdas Pophale) SiO2 
 PCOD9454216
Probable space group: P B C N
;
_chemical_formula_sum "Si O2"
_cell_formula_units_Z 60
_cell_length_a 9.125034
_cell_length_b 16.723614
_cell_length_c 20.005630
_cell_angle_alpha 90.000000
_cell_angle_beta 90.000000
_cell_angle_gamma 90.000000
_cell_volume 3052.930085
_symmetry_space_group_name_H-M "P B C N"
_symmetry_group_IT_number 60
_symmetry_cell_setting 'orthorhombic'
loop_
_space_group_symop_operation_xyz
x,y,z
1/2-x,1/2-y,1/2+z
1/2+x,1/2-y,-z
-x,y,1/2-z
-x,-y,-z
1/2+x,1/2+y,1/2-z
1/2-x,1/2+y,z
x,-y,1/2+z
loop_
_atom_site_type_symbol
_atom_site_label
_atom_site_fract_x
_atom_site_fract_y
_atom_site_fract_z
Si Si1 0.337844 0.762476 0.075427
Si Si2 0.326230 0.523479 0.250086
Si Si3 0.161944 0.644800 0.166335
Si Si4 0.000000 0.772246 0.250000
Si Si5 0.821170 0.077290 0.884810
Si Si6 0.831770 0.300498 0.044758
Si Si7 0.352157 0.387517 0.346142
Si Si8 0.878185 0.543857 0.455656
O O1 0.287541 0.688032 0.121677
O O2 0.275238 0.843018 0.108858
O O3 0.510668 0.765917 0.063786
O O4 0.262045 0.757832 0.002288
O O5 0.500000 0.543092 0.250000
O O6 0.229996 0.600085 0.230697
O O7 0.301220 0.465714 0.186454
O O8 0.296252 0.472475 0.317128
O O9 0.059409 0.715416 0.191975
O O10 0.082546 0.581131 0.117358
O O11 0.115391 0.832634 0.281922
O O12 0.994202 0.097894 0.885602
O O13 0.757706 0.015348 0.939768
O O14 0.752590 0.334576 0.109316
O O15 0.844555 0.378822 0.998985
O O16 0.000000 0.500000 0.500000
#
# Coordination Sequence:
#
# PCOD9454216 Si02
#       8
#     8   8   8   4   8   8   8   8
#     4  11  21  41  60  92 129 165 206 269 310 382
#     4   9  19  39  61  85 122 163 204 259 307 377
#     4  10  23  37  62  92 125 167 212 255 319 370
#     4  12  22  40  64  90 126 176 208 262 318 384
#     4  10  18  38  68  80 124 168 202 256 315 366
#     4  11  25  37  64  96 125 162 214 254 322 383
#     4  11  21  40  64  90 121 173 212 249 322 384
#     4  10  21  39  62  93 126 161 206 267 312 368
#
# _framework density 19.65325
#
# number of rings (size 3 to 8) (size 9 to 14) (size 15 to 20)
#    0.000    1.600    4.667    0.800    1.867    2.667 
#    0.000    4.000    0.000    0.000    0.000    0.000 
#    0.000    0.000    0.000    0.000    0.000    0.000 
#
# Total GULP energy -334486.823281 kJ/mol
# GULP energy per Si atom -5574.780388 kJ/mol
# Density = 1.960852 g / cm^3
# Si number density = 19.653250 Si / 1000 Ang^3
#
#
#
# Elastic Constant Matrix: (Units=GPa)
#
#
# Indices 1 2 3 4 5 6 
#
# 1 67.6323 7.4408 24.5644 0.0000 0.0000 0.0000
# 2 7.4408 51.5473 -0.0991 0.0000 0.0000 0.0000
# 3 24.5644 -0.0991 51.9992 0.0000 0.0000 0.0000
# 4 0.0000 0.0000 0.0000 26.0781 0.0000 0.0000
# 5 0.0000 0.0000 0.0000 0.0000 28.2887 0.0000
# 6 0.0000 0.0000 0.0000 0.0000 0.0000 15.5651
#
#
#
# Elastic Compliance Matrix: (Units=1/GPa)
#
#
# Indices 1 2 3 4 5 6 
#
# 1 0.018202 -0.002644 -0.008603 0.000000 0.000000 0.000000
# 2 -0.002644 0.019784 0.001287 0.000000 0.000000 0.000000
# 3 -0.008603 0.001287 0.023298 0.000000 0.000000 0.000000
# 4 0.000000 0.000000 0.000000 0.038346 0.000000 0.000000
# 5 0.000000 0.000000 0.000000 0.000000 0.035350 0.000000
# 6 0.000000 0.000000 0.000000 0.000000 0.000000 0.064246
#
#
# Mechanical properties :
#
#
# Convention : Reuss Voigt Hill
#
# Bulk Modulus (GPa) = 24.17690 26.11009 25.14349
# Shear Modulus (GPa) = 21.46531 23.27123 22.36827
#
# Velocity S-wave (km/s) = 3.30843 3.44480 3.37730
# Velocity P-wave (km/s) = 5.18871 5.39781 5.29429
#
# Compressibility (1/GPa) = 0.04136180
#
# Stress axis : x y z
#
# Youngs Moduli (GPa) = 54.94044 50.54647 42.92257
#
# Poissons Ratio (x) = 0.13364 0.36928
# Poissons Ratio (y) = 0.14526 -0.05523
# Poissons Ratio (z) = 0.47268 -0.06504
#
# Static dielectric constant tensor:
#      x y z
#    x 1.700740 0.000000 0.000000 
#    y 0.000000 1.707880 0.000000 
#    z 0.000000 0.000000 1.695970 
# 
# From -- ./inp_files/19592.got.cif
#   From: 2010.05.17/outbox.cif.g08.bks.cpg/sg60_10_cif.got.tgz:19592.got - 2010.06.03 14:59:27.
