data_PCOD9454362
_publ_section_title
;
Structure prediction by ZEFSAII (Michael W. Deem and Ramdas Pophale) SiO2 
 PCOD9454362
Probable space group: P B C N
;
_chemical_formula_sum "Si O2"
_cell_formula_units_Z 56
_cell_length_a 17.106256
_cell_length_b 8.927495
_cell_length_c 13.513414
_cell_angle_alpha 90.000000
_cell_angle_beta 90.000000
_cell_angle_gamma 90.000000
_cell_volume 2063.714734
_symmetry_space_group_name_H-M "P B C N"
_symmetry_group_IT_number 60
_symmetry_cell_setting 'orthorhombic'
loop_
_space_group_symop_operation_xyz
x,y,z
1/2-x,1/2-y,1/2+z
1/2+x,1/2-y,-z
-x,y,1/2-z
-x,-y,-z
1/2+x,1/2+y,1/2-z
1/2-x,1/2+y,z
x,-y,1/2+z
loop_
_atom_site_type_symbol
_atom_site_label
_atom_site_fract_x
_atom_site_fract_y
_atom_site_fract_z
Si Si1 0.040050 0.246867 0.614942
Si Si2 0.302923 0.161187 0.020088
Si Si3 0.295124 0.403432 0.699917
Si Si4 0.839837 0.370150 0.516341
Si Si5 0.659013 0.704338 0.708280
Si Si6 0.018698 0.584381 0.631382
Si Si7 0.972808 0.089965 0.362562
O O1 0.118815 0.260442 0.551562
O O2 0.083972 0.244054 0.723335
O O3 0.999050 0.411539 0.601608
O O4 0.009941 0.076775 0.596543
O O5 0.241536 0.290474 0.005783
O O6 0.263118 0.064597 0.108918
O O7 0.323238 0.036043 0.938842
O O8 0.319226 0.533050 0.775195
O O9 0.240098 0.286256 0.758744
O O10 0.379088 0.378915 0.646049
O O11 0.866411 0.253686 0.600056
O O12 0.896499 0.404007 0.423503
O O13 0.000000 0.584626 0.750000
O O14 0.989875 0.752539 0.600434
O O15 0.000000 0.078059 0.250000
#
# Coordination Sequence:
#
# PCOD9454362 Si02
#       7
#     8   8   8   8   8   8   8
#     4   9  20  36  56  79 109 146 191 235 292 339
#     4  10  19  32  56  80 107 146 186 239 285 340
#     4  10  19  35  53  82 110 151 185 230 296 352
#     4  11  20  34  53  87 116 138 190 239 291 343
#     4  10  21  32  54  83 116 146 172 239 310 341
#     4  10  21  36  59  81 107 152 203 236 271 337
#     4  10  19  33  57  82 104 146 198 236 268 335
#
# _framework density 27.135532999999999
#
# number of rings (size 3 to 8) (size 9 to 14) (size 15 to 20)
#    0.000    2.000    1.429    3.857    4.000    0.000 
#    0.000    0.714    0.000   13.714    0.000    0.000 
#    0.000    0.000    0.000    0.000    0.000    0.000 
#
# Total GULP energy -311974.138333 kJ/mol
# GULP energy per Si atom -5570.966756 kJ/mol
# Density = 2.707377 g / cm^3
# Si number density = 27.135533 Si / 1000 Ang^3
#
#
#
# Elastic Constant Matrix: (Units=GPa)
#
#
# Indices 1 2 3 4 5 6 
#
# 1 90.8349 42.2658 53.1529 0.0000 0.0000 0.0000
# 2 42.2658 242.0912 35.8076 0.0000 0.0000 0.0000
# 3 53.1529 35.8076 51.8681 0.0000 0.0000 0.0000
# 4 0.0000 0.0000 0.0000 32.7854 0.0000 0.0000
# 5 0.0000 0.0000 0.0000 0.0000 29.0898 0.0000
# 6 0.0000 0.0000 0.0000 0.0000 0.0000 44.3705
#
#
#
# Elastic Compliance Matrix: (Units=1/GPa)
#
#
# Indices 1 2 3 4 5 6 
#
# 1 0.027607 -0.000708 -0.027802 0.000000 0.000000 0.000000
# 2 -0.000708 0.004619 -0.002463 0.000000 0.000000 0.000000
# 3 -0.027802 -0.002463 0.049471 0.000000 0.000000 0.000000
# 4 0.000000 0.000000 0.000000 0.030501 0.000000 0.000000
# 5 0.000000 0.000000 0.000000 0.000000 0.034376 0.000000
# 6 0.000000 0.000000 0.000000 0.000000 0.000000 0.022537
#
#
# Mechanical properties :
#
#
# Convention : Reuss Voigt Hill
#
# Bulk Modulus (GPa) = 50.63222 71.91631 61.27426
# Shear Modulus (GPa) = 21.04002 38.15367 29.59684
#
# Velocity S-wave (km/s) = 2.78756 3.75379 3.30616
# Velocity P-wave (km/s) = 5.39075 6.73410 6.09952
#
# Compressibility (1/GPa) = 0.01975027
#
# Stress axis : x y z
#
# Youngs Moduli (GPa) = 36.22256 216.51761 20.21372
#
# Poissons Ratio (x) = 0.15320 0.56199
# Poissons Ratio (y) = 0.02563 0.04979
# Poissons Ratio (z) = 1.00708 0.53336
#
# Static dielectric constant tensor:
#      x y z
#    x 3.049210 0.000000 0.000000 
#    y 0.000000 2.134940 0.000000 
#    z 0.000000 0.000000 2.288970 
# 
# From -- ./inp_files/17720.got.cif
#   From: 2010.05.17/outbox.cif.g08.bks.cpg/sg60_9_cif.got.tgz:17720.got - 2010.06.03 14:59:27.
