data_PCOD9454553
_publ_section_title
;
Structure prediction by ZEFSAII (Michael W. Deem and Ramdas Pophale) SiO2 
 PCOD9454553
Probable space group: P B C N
;
_chemical_formula_sum "Si O2"
_cell_formula_units_Z 48
_cell_length_a 10.343968
_cell_length_b 29.173936
_cell_length_c 8.512094
_cell_angle_alpha 90.000000
_cell_angle_beta 90.000000
_cell_angle_gamma 90.000000
_cell_volume 2568.730871
_symmetry_space_group_name_H-M "P B C N"
_symmetry_group_IT_number 60
_symmetry_cell_setting 'orthorhombic'
loop_
_space_group_symop_operation_xyz
x,y,z
1/2-x,1/2-y,1/2+z
1/2+x,1/2-y,-z
-x,y,1/2-z
-x,-y,-z
1/2+x,1/2+y,1/2-z
1/2-x,1/2+y,z
x,-y,1/2+z
loop_
_atom_site_type_symbol
_atom_site_label
_atom_site_fract_x
_atom_site_fract_y
_atom_site_fract_z
Si Si1 0.500000 0.376536 0.750000
Si Si2 0.500000 0.739836 0.750000
Si Si3 0.902438 0.973339 0.380869
Si Si4 0.890824 0.193194 0.039934
Si Si5 0.500000 0.102022 0.250000
Si Si6 0.896159 0.679201 0.042284
Si Si7 0.500000 0.772334 0.250000
Si Si8 0.226296 0.055442 0.307440
O O1 0.504846 0.343063 0.600605
O O2 0.375748 0.408201 0.739983
O O3 0.413752 0.709230 0.636241
O O4 0.580250 0.774635 0.642407
O O5 0.809653 0.947260 0.505629
O O6 0.000000 0.950694 0.250000
O O7 0.813830 0.008145 0.279397
O O8 0.000000 0.000000 0.500000
O O9 0.753999 0.169026 0.063477
O O10 0.908966 0.238348 0.148438
O O11 0.486100 0.138190 0.395167
O O12 0.370995 0.071435 0.265080
O O13 0.923759 0.695036 0.867161
#
# Coordination Sequence:
#
# PCOD9454553 Si02
#       8
#     4   4   8   8   4   8   4   8
#     4  11  20  36  60  83 120 146 198 245 286 344
#     4   9  20  34  52  83 110 154 206 241 288 352
#     4   9  18  37  67  88 110 147 191 236 286 351
#     4  10  19  35  56  84 110 156 199 252 289 339
#     4  11  24  38  60  83 130 158 184 247 304 350
#     4  10  19  37  55  79 117 162 192 246 299 343
#     4   9  20  34  56  81 112 156 212 241 284 358
#     4  11  21  41  61  92 116 152 194 236 300 362
#
# _framework density 18.68627
#
# number of rings (size 3 to 8) (size 9 to 14) (size 15 to 20)
#    0.000    2.000    4.167    1.000    0.000    0.667 
#    7.500    3.333    0.000    0.000    0.000    0.000 
#    0.000    0.000    0.000    0.000    0.000    0.000 
#
# Total GULP energy -267237.695486 kJ/mol
# GULP energy per Si atom -5567.451989 kJ/mol
# Density = 1.864374 g / cm^3
# Si number density = 18.686270 Si / 1000 Ang^3
#
#
#
# Elastic Constant Matrix: (Units=GPa)
#
#
# Indices 1 2 3 4 5 6 
#
# 1 118.1423 39.6844 38.9757 0.0000 0.0000 0.0000
# 2 39.6844 62.1530 23.5585 0.0000 0.0000 0.0000
# 3 38.9757 23.5585 99.8601 0.0000 0.0000 0.0000
# 4 0.0000 0.0000 0.0000 -0.8043 0.0000 0.0000
# 5 0.0000 0.0000 0.0000 0.0000 19.1996 0.0000
# 6 0.0000 0.0000 0.0000 0.0000 0.0000 30.3072
#
#
#
# Elastic Compliance Matrix: (Units=1/GPa)
#
#
# Indices 1 2 3 4 5 6 
#
# 1 0.011560 -0.006228 -0.003043 0.000000 0.000000 0.000000
# 2 -0.006228 0.021024 -0.002529 0.000000 0.000000 0.000000
# 3 -0.003043 -0.002529 0.011798 0.000000 0.000000 0.000000
# 4 0.000000 0.000000 0.000000 -1.243256 0.000000 0.000000
# 5 0.000000 0.000000 0.000000 0.000000 0.052084 0.000000
# 6 0.000000 0.000000 0.000000 0.000000 0.000000 0.032996
#
#
# Mechanical properties :
#
#
# Convention : Reuss Voigt Hill
#
# Bulk Modulus (GPa) = 48.11549 53.84361 50.97955
# Shear Modulus (GPa) = -4.61567 21.60294 8.49363
#
# Velocity S-wave (km/s) = -1.57336 3.40382 2.13430
# Velocity P-wave (km/s) = 4.74388 6.65770 5.78055
#
# Compressibility (1/GPa) = 0.02078333
#
# Stress axis : x y z
#
# Youngs Moduli (GPa) = 86.50444 47.56375 84.75810
#
# Poissons Ratio (x) = 0.29622 0.25790
# Poissons Ratio (y) = 0.53873 0.21437
# Poissons Ratio (z) = 0.26321 0.12030
#
# Static dielectric constant tensor:
#      x y z
#    x 1.634740 0.000000 0.000000 
#    y 0.000000 1.663310 0.000000 
#    z 0.000000 0.000000 1.689340 
# 
# From -- ./inp_files/4299.got.cif
#   From: 2010.05.17/outbox.cif.g08.bks.cpg/sg60_3_cif.got.tgz:4299.got - 2010.06.03 14:59:27.
