data_PCOD9454192
_publ_section_title
;
Structure prediction by ZEFSAII (Michael W. Deem and Ramdas Pophale) SiO2 
 PCOD9454192
Probable space group: P B C N
;
_chemical_formula_sum "Si O2"
_cell_formula_units_Z 44
_cell_length_a 8.915829
_cell_length_b 20.406128
_cell_length_c 12.671130
_cell_angle_alpha 90.000000
_cell_angle_beta 90.000000
_cell_angle_gamma 90.000000
_cell_volume 2305.354320
_symmetry_space_group_name_H-M "P B C N"
_symmetry_group_IT_number 60
_symmetry_cell_setting 'orthorhombic'
loop_
_space_group_symop_operation_xyz
x,y,z
1/2-x,1/2-y,1/2+z
1/2+x,1/2-y,-z
-x,y,1/2-z
-x,-y,-z
1/2+x,1/2+y,1/2-z
1/2-x,1/2+y,z
x,-y,1/2+z
loop_
_atom_site_type_symbol
_atom_site_label
_atom_site_fract_x
_atom_site_fract_y
_atom_site_fract_z
Si Si1 0.074533 0.068487 0.032895
Si Si2 0.000000 0.863572 0.750000
Si Si3 0.500000 0.926164 0.750000
Si Si4 0.675813 0.638501 0.921669
Si Si5 0.699990 0.817482 0.638602
Si Si6 0.000000 0.788817 0.250000
Si Si7 0.352881 0.999609 0.069795
O O1 0.047850 0.089920 0.153128
O O2 0.246751 0.054006 0.016206
O O3 0.990008 0.121821 0.965188
O O4 0.000000 0.000000 0.000000
O O5 0.855297 0.822956 0.706958
O O6 0.600984 0.880869 0.673285
O O7 0.608136 0.972268 0.816360
O O8 0.631172 0.671646 0.811667
O O9 0.770027 0.570435 0.918267
O O10 0.755858 0.679800 0.014990
O O11 0.593000 0.757577 0.669805
O O12 0.500000 0.000000 0.000000
#
# Coordination Sequence:
#
# PCOD9454192 Si02
#       7
#     8   4   4   8   8   4   8
#     4   9  20  34  59  87 123 159 201 259 325 391
#     4  10  18  37  61  87 115 166 224 246 316 394
#     4  11  20  38  63  97 130 165 210 266 338 397
#     4  10  23  43  62  93 127 169 217 263 331 383
#     4  10  22  42  66  89 125 180 221 259 323 394
#     4  11  26  45  64  92 135 173 224 284 308 377
#     4  11  21  36  62  96 129 159 205 266 331 399
#
# _framework density 19.086003999999999
#
# number of rings (size 3 to 8) (size 9 to 14) (size 15 to 20)
#    0.000    1.818    3.636    0.000    0.000    7.273 
#    0.000    4.545    0.000    0.000    0.000    0.000 
#    0.000    0.000    0.000    0.000    0.000    0.000 
#
# Total GULP energy -245027.072276 kJ/mol
# GULP energy per Si atom -5568.797097 kJ/mol
# Density = 1.904256 g / cm^3
# Si number density = 19.086004 Si / 1000 Ang^3
#
#
#
# Elastic Constant Matrix: (Units=GPa)
#
#
# Indices 1 2 3 4 5 6 
#
# 1 113.7141 32.9335 18.2923 0.0000 0.0000 0.0000
# 2 32.9335 70.5347 39.9661 0.0000 0.0000 0.0000
# 3 18.2923 39.9661 69.5622 0.0000 0.0000 0.0000
# 4 0.0000 0.0000 0.0000 13.9772 0.0000 0.0000
# 5 0.0000 0.0000 0.0000 0.0000 34.3451 0.0000
# 6 0.0000 0.0000 0.0000 0.0000 0.0000 10.2751
#
#
#
# Elastic Compliance Matrix: (Units=1/GPa)
#
#
# Indices 1 2 3 4 5 6 
#
# 1 0.010169 -0.004793 0.000080 0.000000 0.000000 0.000000
# 2 -0.004793 0.023280 -0.012115 0.000000 0.000000 0.000000
# 3 0.000080 -0.012115 0.021315 0.000000 0.000000 0.000000
# 4 0.000000 0.000000 0.000000 0.071545 0.000000 0.000000
# 5 0.000000 0.000000 0.000000 0.000000 0.029116 0.000000
# 6 0.000000 0.000000 0.000000 0.000000 0.000000 0.097323
#
#
# Mechanical properties :
#
#
# Convention : Reuss Voigt Hill
#
# Bulk Modulus (GPa) = 47.37608 48.46607 47.92108
# Shear Modulus (GPa) = 17.03919 22.56075 19.79997
#
# Velocity S-wave (km/s) = 2.99115 3.44184 3.22438
# Velocity P-wave (km/s) = 6.06676 6.42212 6.24697
#
# Compressibility (1/GPa) = 0.02110770
#
# Stress axis : x y z
#
# Youngs Moduli (GPa) = 98.33419 42.95543 46.91534
#
# Poissons Ratio (x) = 0.20591 -0.00375
# Poissons Ratio (y) = 0.47136 0.56837
# Poissons Ratio (z) = -0.00785 0.52039
#
# Static dielectric constant tensor:
#      x y z
#    x 1.675710 0.000000 0.000000 
#    y 0.000000 1.664780 0.000000 
#    z 0.000000 0.000000 1.664290 
# 
# From -- ./inp_files/10040.got.cif
#   From: 2010.05.17/outbox.cif.g08.bks.cpg/sg60_6_cif.got.tgz:10040.got - 2010.06.03 14:59:27.
