data_PCOD9454471
_publ_section_title
;
Structure prediction by ZEFSAII (Michael W. Deem and Ramdas Pophale) SiO2 
 PCOD9454471
Probable space group: P B C N
;
_chemical_formula_sum "Si O2"
_cell_formula_units_Z 64
_cell_length_a 20.977733
_cell_length_b 13.264020
_cell_length_c 11.201680
_cell_angle_alpha 90.000000
_cell_angle_beta 90.000000
_cell_angle_gamma 90.000000
_cell_volume 3116.857043
_symmetry_space_group_name_H-M "P B C N"
_symmetry_group_IT_number 60
_symmetry_cell_setting 'orthorhombic'
loop_
_space_group_symop_operation_xyz
x,y,z
1/2-x,1/2-y,1/2+z
1/2+x,1/2-y,-z
-x,y,1/2-z
-x,-y,-z
1/2+x,1/2+y,1/2-z
1/2-x,1/2+y,z
x,-y,1/2+z
loop_
_atom_site_type_symbol
_atom_site_label
_atom_site_fract_x
_atom_site_fract_y
_atom_site_fract_z
Si Si1 0.829036 0.596026 0.679344
Si Si2 0.392564 0.416027 0.527276
Si Si3 0.057423 0.219768 0.845502
Si Si4 0.792119 0.206731 0.315471
Si Si5 0.074160 0.422410 0.759661
Si Si6 0.796373 0.980554 0.662038
Si Si7 0.152134 0.298024 0.564639
Si Si8 0.628798 0.406573 0.341896
O O1 0.806195 0.678646 0.776289
O O2 0.882509 0.519260 0.723907
O O3 0.771299 0.526966 0.630737
O O4 0.852282 0.657460 0.565649
O O5 0.446225 0.349227 0.462146
O O6 0.346115 0.337698 0.595785
O O7 0.348425 0.481808 0.434565
O O8 0.417274 0.503107 0.616921
O O9 0.076119 0.336036 0.863570
O O10 0.111224 0.161560 0.771459
O O11 0.000000 0.218349 0.750000
O O12 0.722819 0.194857 0.376946
O O13 0.793057 0.136671 0.196246
O O14 0.102548 0.359756 0.647476
O O15 0.000000 0.449838 0.750000
O O16 0.811612 0.031359 0.791815
O O17 0.137188 0.179265 0.561389
#
# Coordination Sequence:
#
# PCOD9454471 Si02
#       8
#     8   8   8   8   8   8   8   8
#     4  12  23  37  62  91 123 166 209 264 313 383
#     4  10  20  36  59  90 126 161 196 263 325 371
#     4   9  20  40  63  85 116 166 217 254 299 381
#     4  11  22  36  57  95 128 160 210 259 325 383
#     4  10  24  45  63  86 125 172 221 260 309 386
#     4  10  19  34  55  85 124 158 196 251 316 386
#     4  11  21  37  62  90 126 168 205 263 321 376
#     4   9  19  35  54  84 127 148 197 256 310 375
#
# _framework density 20.533505000000002
#
# number of rings (size 3 to 8) (size 9 to 14) (size 15 to 20)
#    0.000    1.750    3.750    0.750    0.000    2.000 
#    4.500    2.500    0.000    7.500    0.000    0.000 
#    0.000    0.000    0.000    0.000    0.000    0.000 
#
# Total GULP energy -356433.475254 kJ/mol
# GULP energy per Si atom -5569.273051 kJ/mol
# Density = 2.048677 g / cm^3
# Si number density = 20.533505 Si / 1000 Ang^3
#
#
#
# Elastic Constant Matrix: (Units=GPa)
#
#
# Indices 1 2 3 4 5 6 
#
# 1 43.9201 20.8161 -9.1090 0.0000 0.0000 0.0000
# 2 20.8161 120.8762 14.1831 0.0000 0.0000 0.0000
# 3 -9.1090 14.1831 34.7477 0.0000 0.0000 0.0000
# 4 0.0000 0.0000 0.0000 53.8862 0.0000 0.0000
# 5 0.0000 0.0000 0.0000 0.0000 17.8331 0.0000
# 6 0.0000 0.0000 0.0000 0.0000 0.0000 -162.7167
#
#
#
# Elastic Compliance Matrix: (Units=1/GPa)
#
#
# Indices 1 2 3 4 5 6 
#
# 1 0.027547 -0.005872 0.009618 0.000000 0.000000 0.000000
# 2 -0.005872 0.009941 -0.005597 0.000000 0.000000 0.000000
# 3 0.009618 -0.005597 0.033585 0.000000 0.000000 0.000000
# 4 0.000000 0.000000 0.000000 0.018558 0.000000 0.000000
# 5 0.000000 0.000000 0.000000 0.000000 0.056075 0.000000
# 6 0.000000 0.000000 0.000000 0.000000 0.000000 -0.006146
#
#
# Mechanical properties :
#
#
# Convention : Reuss Voigt Hill
#
# Bulk Modulus (GPa) = 14.84338 27.92493 21.38415
# Shear Modulus (GPa) = 30.17155 -6.62256 11.77449
#
# Velocity S-wave (km/s) = 3.83741 -1.79785 2.39723
# Velocity P-wave (km/s) = 5.18448 3.05279 4.25431
#
# Compressibility (1/GPa) = 0.06737009
#
# Stress axis : x y z
#
# Youngs Moduli (GPa) = 36.30202 100.59410 29.77530
#
# Poissons Ratio (x) = 0.59073 -0.28639
# Poissons Ratio (y) = 0.21318 0.16665
# Poissons Ratio (z) = -0.34916 0.56303
#
# Static dielectric constant tensor:
#      x y z
#    x 1.764290 0.000000 0.000000 
#    y 0.000000 1.766890 0.000000 
#    z 0.000000 0.000000 1.833780 
# 
# From -- ./inp_files/13159.got.cif
#   From: 2010.05.17/outbox.cif.g08.bks.cpg/sg60_7_cif.got.tgz:13159.got - 2010.06.03 14:59:27.
