data_PCOD9454882
_publ_section_title
;
Structure prediction by ZEFSAII (Michael W. Deem and Ramdas Pophale) SiO2 
 PCOD9454882
Probable space group: P B C N
;
_chemical_formula_sum "Si O2"
_cell_formula_units_Z 32
_cell_length_a 17.106572
_cell_length_b 8.790763
_cell_length_c 7.961593
_cell_angle_alpha 90.000000
_cell_angle_beta 90.000000
_cell_angle_gamma 90.000000
_cell_volume 1197.262924
_symmetry_space_group_name_H-M "P B C N"
_symmetry_group_IT_number 60
_symmetry_cell_setting 'orthorhombic'
loop_
_space_group_symop_operation_xyz
x,y,z
1/2-x,1/2-y,1/2+z
1/2+x,1/2-y,-z
-x,y,1/2-z
-x,-y,-z
1/2+x,1/2+y,1/2-z
1/2-x,1/2+y,z
x,-y,1/2+z
loop_
_atom_site_type_symbol
_atom_site_label
_atom_site_fract_x
_atom_site_fract_y
_atom_site_fract_z
Si Si1 0.333070 0.809114 0.650695
Si Si2 0.086095 0.046685 0.814256
Si Si3 0.916502 0.315482 0.170466
Si Si4 0.330189 0.231165 0.519107
O O1 0.352028 0.629837 0.692489
O O2 0.399035 0.864340 0.520207
O O3 0.251492 0.813226 0.554081
O O4 0.327280 0.861445 0.844810
O O5 0.102062 0.144200 0.982882
O O6 0.000000 0.083433 0.750000
O O7 0.092048 0.868541 0.839978
O O8 0.852879 0.356450 0.312925
O O9 0.000000 0.356429 0.250000
#
# Coordination Sequence:
#
# PCOD9454882 Si02
#       4
#     8   8   8   8
#     4  10  20  32  45  66 103 139 164 190 231 297
#     4   9  19  32  50  76 103 127 158 200 248 293
#     4  11  19  32  52  76 103 127 156 204 250 291
#     4  10  20  32  45  66 103 139 164 190 231 297
#
# _framework density 26.727630999999999
#
# number of rings (size 3 to 8) (size 9 to 14) (size 15 to 20)
#    1.500    0.500    2.500    3.000    0.000    4.000 
#    0.000    0.000    0.000    0.000    0.000    0.000 
#    0.000  140.000    0.000    0.000    0.000    0.000 
#
# Total GULP energy -178848.371105 kJ/mol
# GULP energy per Si atom -5589.011597 kJ/mol
# Density = 2.666680 g / cm^3
# Si number density = 26.727631 Si / 1000 Ang^3
#
#
#
# Elastic Constant Matrix: (Units=GPa)
#
#
# Indices 1 2 3 4 5 6 
#
# 1 79.4437 4.8377 22.1407 0.0000 0.0000 0.0000
# 2 4.8377 84.6834 10.4887 0.0000 0.0000 0.0000
# 3 22.1407 10.4887 189.7891 0.0000 0.0000 0.0000
# 4 0.0000 0.0000 0.0000 46.8816 0.0000 0.0000
# 5 0.0000 0.0000 0.0000 0.0000 57.6332 0.0000
# 6 0.0000 0.0000 0.0000 0.0000 0.0000 -4.4149
#
#
#
# Elastic Compliance Matrix: (Units=1/GPa)
#
#
# Indices 1 2 3 4 5 6 
#
# 1 0.013037 -0.000560 -0.001490 0.000000 0.000000 0.000000
# 2 -0.000560 0.011914 -0.000593 0.000000 0.000000 0.000000
# 3 -0.001490 -0.000593 0.005476 0.000000 0.000000 0.000000
# 4 0.000000 0.000000 0.000000 0.021330 0.000000 0.000000
# 5 0.000000 0.000000 0.000000 0.000000 0.017351 0.000000
# 6 0.000000 0.000000 0.000000 0.000000 0.000000 -0.226508
#
#
# Mechanical properties :
#
#
# Convention : Reuss Voigt Hill
#
# Bulk Modulus (GPa) = 39.77695 47.65006 43.71350
# Shear Modulus (GPa) = -34.78665 41.11660 3.16498
#
# Velocity S-wave (km/s) = -3.61158 3.92644 1.08937
# Velocity P-wave (km/s) = 1.57375 6.19860 4.23946
#
# Compressibility (1/GPa) = 0.02514019
#
# Stress axis : x y z
#
# Youngs Moduli (GPa) = 76.70546 83.93381 182.62849
#
# Poissons Ratio (x) = 0.04702 0.27210
# Poissons Ratio (y) = 0.04297 0.10831
# Poissons Ratio (z) = 0.11428 0.04978
#
# Static dielectric constant tensor:
#      x y z
#    x 2.012680 0.000000 0.000000 
#    y 0.000000 2.198540 0.000000 
#    z 0.000000 0.000000 2.172150 
# 
# From -- ./inp_files/5564.got.cif
#   From: 2010.05.17/outbox.cif.g08.bks.cpg/sg60_3_cif.got.tgz:5564.got - 2010.06.03 14:59:27.
