data_PCOD9454663
_publ_section_title
;
Structure prediction by ZEFSAII (Michael W. Deem and Ramdas Pophale) SiO2 
 PCOD9454663
Probable space group: P B C N
;
_chemical_formula_sum "Si O2"
_cell_formula_units_Z 48
_cell_length_a 8.795610
_cell_length_b 15.498049
_cell_length_c 18.597228
_cell_angle_alpha 90.000000
_cell_angle_beta 90.000000
_cell_angle_gamma 90.000000
_cell_volume 2535.077318
_symmetry_space_group_name_H-M "P B C N"
_symmetry_group_IT_number 60
_symmetry_cell_setting 'orthorhombic'
loop_
_space_group_symop_operation_xyz
x,y,z
1/2-x,1/2-y,1/2+z
1/2+x,1/2-y,-z
-x,y,1/2-z
-x,-y,-z
1/2+x,1/2+y,1/2-z
1/2-x,1/2+y,z
x,-y,1/2+z
loop_
_atom_site_type_symbol
_atom_site_label
_atom_site_fract_x
_atom_site_fract_y
_atom_site_fract_z
Si Si1 0.159208 0.762857 0.211384
Si Si2 0.020242 0.239012 0.930476
Si Si3 0.573911 0.907601 0.017686
Si Si4 0.832913 0.302958 0.152227
Si Si5 0.066372 0.854603 0.681427
Si Si6 0.421212 0.416140 0.528367
O O1 0.256603 0.821737 0.268474
O O2 0.267616 0.681255 0.199251
O O3 0.000000 0.742374 0.250000
O O4 0.104155 0.786271 0.130706
O O5 0.187482 0.231042 0.894013
O O6 0.007481 0.169230 0.993502
O O7 0.997160 0.331755 0.967847
O O8 0.585886 0.874957 0.101469
O O9 0.747277 0.915360 0.993780
O O10 0.500000 0.000000 0.000000
O O11 0.956750 0.228036 0.166325
O O12 0.065860 0.912953 0.612916
O O13 0.000000 0.901958 0.750000
O O14 0.500000 0.500000 0.500000
#
# Coordination Sequence:
#
# PCOD9454663 Si02
#       6
#     8   8   8   8   8   8
#     4   9  18  36  64  87 118 163 211 254 317 383
#     4  10  20  39  63  87 123 166 213 263 321 382
#     4  11  23  37  60  95 129 164 212 265 329 386
#     4   9  20  36  61  90 119 167 207 260 318 380
#     4  10  19  36  62  89 120 158 207 254 318 375
#     4  11  24  38  60  94 124 165 214 261 325 381
#
# _framework density 18.934334
#
# number of rings (size 3 to 8) (size 9 to 14) (size 15 to 20)
#    0.000    2.000    3.333    0.000    2.333    1.333 
#    0.000    4.167    0.000    5.000    0.000    0.000 
#    0.000    0.000    0.000    0.000    0.000    0.000 
#
# Total GULP energy -267294.473989 kJ/mol
# GULP energy per Si atom -5568.634875 kJ/mol
# Density = 1.889124 g / cm^3
# Si number density = 18.934334 Si / 1000 Ang^3
#
#
#
# Elastic Constant Matrix: (Units=GPa)
#
#
# Indices 1 2 3 4 5 6 
#
# 1 41.9635 13.4935 13.1571 0.0000 0.0000 0.0000
# 2 13.4935 94.4745 39.4058 0.0000 0.0000 0.0000
# 3 13.1571 39.4058 137.5451 0.0000 0.0000 0.0000
# 4 0.0000 0.0000 0.0000 15.2029 0.0000 0.0000
# 5 0.0000 0.0000 0.0000 0.0000 20.2875 0.0000
# 6 0.0000 0.0000 0.0000 0.0000 0.0000 9.9004
#
#
#
# Elastic Compliance Matrix: (Units=1/GPa)
#
#
# Indices 1 2 3 4 5 6 
#
# 1 0.025273 -0.002954 -0.001571 0.000000 0.000000 0.000000
# 2 -0.002954 0.012367 -0.003260 0.000000 0.000000 0.000000
# 3 -0.001571 -0.003260 0.008355 0.000000 0.000000 0.000000
# 4 0.000000 0.000000 0.000000 0.065777 0.000000 0.000000
# 5 0.000000 0.000000 0.000000 0.000000 0.049291 0.000000
# 6 0.000000 0.000000 0.000000 0.000000 0.000000 0.101006
#
#
# Mechanical properties :
#
#
# Convention : Reuss Voigt Hill
#
# Bulk Modulus (GPa) = 32.87028 45.12176 38.99602
# Shear Modulus (GPa) = 17.37433 22.93994 20.15713
#
# Velocity S-wave (km/s) = 3.03249 3.48451 3.26633
# Velocity P-wave (km/s) = 5.44602 6.33021 5.90469
#
# Compressibility (1/GPa) = 0.03042262
#
# Stress axis : x y z
#
# Youngs Moduli (GPa) = 39.56818 80.86203 119.69289
#
# Poissons Ratio (x) = 0.23889 0.18805
# Poissons Ratio (y) = 0.11690 0.39025
# Poissons Ratio (z) = 0.06217 0.26364
#
# Static dielectric constant tensor:
#      x y z
#    x 1.661340 0.000000 0.000000 
#    y 0.000000 1.623650 0.000000 
#    z 0.000000 0.000000 1.726650 
# 
# From -- ./inp_files/19334.got.cif
#   From: 2010.05.17/outbox.cif.g08.bks.cpg/sg60_10_cif.got.tgz:19334.got - 2010.06.03 14:59:27.
