data_PCOD9454545
_publ_section_title
;
Structure prediction by ZEFSAII (Michael W. Deem and Ramdas Pophale) SiO2 
 PCOD9454545
Probable space group: P B C N
;
_chemical_formula_sum "Si O2"
_cell_formula_units_Z 56
_cell_length_a 5.390333
_cell_length_b 23.988172
_cell_length_c 22.215722
_cell_angle_alpha 90.000000
_cell_angle_beta 90.000000
_cell_angle_gamma 90.000000
_cell_volume 2872.586941
_symmetry_space_group_name_H-M "P B C N"
_symmetry_group_IT_number 60
_symmetry_cell_setting 'orthorhombic'
loop_
_space_group_symop_operation_xyz
x,y,z
1/2-x,1/2-y,1/2+z
1/2+x,1/2-y,-z
-x,y,1/2-z
-x,-y,-z
1/2+x,1/2+y,1/2-z
1/2-x,1/2+y,z
x,-y,1/2+z
loop_
_atom_site_type_symbol
_atom_site_label
_atom_site_fract_x
_atom_site_fract_y
_atom_site_fract_z
Si Si1 0.821964 0.385816 0.070971
Si Si2 0.061634 0.069110 0.817720
Si Si3 0.031164 0.715437 0.495912
Si Si4 0.872823 0.459087 0.685778
Si Si5 0.556409 0.575111 0.461717
Si Si6 0.938054 0.378341 0.594177
Si Si7 0.695033 0.972925 0.408307
O O1 0.753868 0.395205 0.141282
O O2 0.002772 0.437067 0.054269
O O3 0.587394 0.399154 0.028210
O O4 0.949364 0.329726 0.047111
O O5 0.000000 0.087626 0.750000
O O6 0.824756 0.067454 0.860469
O O7 0.147301 0.003574 0.813819
O O8 0.286633 0.746468 0.512267
O O9 0.086936 0.683125 0.433361
O O10 0.865169 0.395292 0.662565
O O11 0.000000 0.462339 0.750000
O O12 0.044145 0.485617 0.634463
O O13 0.281335 0.587447 0.439331
O O14 0.624830 0.511075 0.447413
O O15 0.777511 0.606821 0.424450
#
# Coordination Sequence:
#
# PCOD9454545 Si02
#       7
#     8   8   8   8   8   8   8
#     4  10  24  35  58  89 118 164 206 254 310 369
#     4  11  21  35  57  86 129 172 203 228 285 375
#     4  11  24  44  65  87 115 151 207 275 330 360
#     4  10  19  35  54  89 126 167 198 232 282 361
#     4  10  20  36  55  90 129 158 189 239 298 376
#     4  10  21  37  61  91 117 156 202 245 309 367
#     4  10  20  33  55  85 133 161 197 230 288 375
#
# _framework density 19.494624999999999
#
# number of rings (size 3 to 8) (size 9 to 14) (size 15 to 20)
#    0.000    1.714    2.857    2.143    6.000    1.714 
#    0.000    0.000    0.000    0.857    0.000    0.000 
#    0.000    0.000    0.000    0.000    0.000    0.000 
#
# Total GULP energy -311838.503114 kJ/mol
# GULP energy per Si atom -5568.544698 kJ/mol
# Density = 1.945025 g / cm^3
# Si number density = 19.494625 Si / 1000 Ang^3
#
#
#
# Elastic Constant Matrix: (Units=GPa)
#
#
# Indices 1 2 3 4 5 6 
#
# 1 80.3595 13.7816 25.6371 0.0000 0.0000 0.0000
# 2 13.7816 71.1538 17.6978 0.0000 0.0000 0.0000
# 3 25.6371 17.6978 80.3598 0.0000 0.0000 0.0000
# 4 0.0000 0.0000 0.0000 18.1085 0.0000 0.0000
# 5 0.0000 0.0000 0.0000 0.0000 17.9846 0.0000
# 6 0.0000 0.0000 0.0000 0.0000 0.0000 27.4279
#
#
#
# Elastic Compliance Matrix: (Units=1/GPa)
#
#
# Indices 1 2 3 4 5 6 
#
# 1 0.014046 -0.001699 -0.004107 0.000000 0.000000 0.000000
# 2 -0.001699 0.015074 -0.002778 0.000000 0.000000 0.000000
# 3 -0.004107 -0.002778 0.014366 0.000000 0.000000 0.000000
# 4 0.000000 0.000000 0.000000 0.055223 0.000000 0.000000
# 5 0.000000 0.000000 0.000000 0.000000 0.055603 0.000000
# 6 0.000000 0.000000 0.000000 0.000000 0.000000 0.036459
#
#
# Mechanical properties :
#
#
# Convention : Reuss Voigt Hill
#
# Bulk Modulus (GPa) = 37.99601 38.45624 38.22612
# Shear Modulus (GPa) = 23.07223 24.35463 23.71343
#
# Velocity S-wave (km/s) = 3.44396 3.53838 3.49149
# Velocity P-wave (km/s) = 5.94536 6.03845 5.99209
#
# Compressibility (1/GPa) = 0.02631855
#
# Stress axis : x y z
#
# Youngs Moduli (GPa) = 71.19641 66.33927 69.60895
#
# Poissons Ratio (x) = 0.11271 0.28587
# Poissons Ratio (y) = 0.12096 0.19336
# Poissons Ratio (z) = 0.29239 0.18427
#
# Static dielectric constant tensor:
#      x y z
#    x 1.737150 0.000000 0.000000 
#    y 0.000000 1.748690 0.000000 
#    z 0.000000 0.000000 1.698430 
# 
# From -- ./inp_files/21740.got.cif
#   From: 2010.05.17/outbox.cif.g08.bks.cpg/sg60_11_cif.got.tgz:21740.got - 2010.06.03 14:59:27.
