data_PCOD9454875
_publ_section_title
;
Structure prediction by ZEFSAII (Michael W. Deem and Ramdas Pophale) SiO2 
 PCOD9454875
Probable space group: P B C N
;
_chemical_formula_sum "Si O2"
_cell_formula_units_Z 64
_cell_length_a 16.340132
_cell_length_b 27.069058
_cell_length_c 8.823122
_cell_angle_alpha 90.000000
_cell_angle_beta 90.000000
_cell_angle_gamma 90.000000
_cell_volume 3902.572569
_symmetry_space_group_name_H-M "P B C N"
_symmetry_group_IT_number 60
_symmetry_cell_setting 'orthorhombic'
loop_
_space_group_symop_operation_xyz
x,y,z
1/2-x,1/2-y,1/2+z
1/2+x,1/2-y,-z
-x,y,1/2-z
-x,-y,-z
1/2+x,1/2+y,1/2-z
1/2-x,1/2+y,z
x,-y,1/2+z
loop_
_atom_site_type_symbol
_atom_site_label
_atom_site_fract_x
_atom_site_fract_y
_atom_site_fract_z
Si Si1 0.087081 0.566464 0.679531
Si Si2 0.589443 0.035604 0.174729
Si Si3 0.462534 0.756161 0.087082
Si Si4 0.318440 0.309151 0.608936
Si Si5 0.275895 0.270949 0.284686
Si Si6 0.198172 0.624789 0.232568
Si Si7 0.079686 0.291595 0.661459
Si Si8 0.178156 0.660549 0.576206
O O1 0.112909 0.520650 0.785317
O O2 0.080970 0.546673 0.505057
O O3 0.145773 0.613353 0.668203
O O4 0.000000 0.582446 0.750000
O O5 0.500000 0.043780 0.250000
O O6 0.656248 0.071718 0.251078
O O7 0.500000 0.762702 0.250000
O O8 0.412738 0.704568 0.080996
O O9 0.395400 0.799544 0.062170
O O10 0.538838 0.763524 0.977078
O O11 0.273648 0.290209 0.455600
O O12 0.287571 0.272894 0.744188
O O13 0.285509 0.363037 0.655563
O O14 0.364487 0.247547 0.251251
O O15 0.251050 0.313495 0.167164
O O16 0.136403 0.660796 0.140095
O O17 0.199977 0.644182 0.406403
O O18 0.000000 0.310107 0.750000
#
# Coordination Sequence:
#
# PCOD9454875 Si02
#       8
#     8   8   8   8   8   8   8   8
#     4  10  20  34  49  70  97 122 160 202 233 278
#     4  10  20  33  49  70  94 126 159 197 240 273
#     4  11  22  30  46  70  94 124 163 196 230 275
#     4  10  20  33  44  67  92 123 159 194 236 278
#     4  10  20  31  47  64  93 124 156 196 235 276
#     4  10  21  32  50  65  94 128 160 193 238 283
#     4  11  18  33  47  65  94 126 160 192 230 280
#     4  10  21  34  46  69  94 126 163 193 235 281
#
# _framework density 16.399439000000001
#
# number of rings (size 3 to 8) (size 9 to 14) (size 15 to 20)
#    0.000    1.750    2.500    4.500   10.500    2.000 
#    0.000    0.000    0.000    0.000    0.000    0.000 
#    0.000    2.000    0.000    0.125    0.000    0.125 
#
# Total GULP energy -356637.195756 kJ/mol
# GULP energy per Si atom -5572.456184 kJ/mol
# Density = 1.636211 g / cm^3
# Si number density = 16.399439 Si / 1000 Ang^3
#
#
#
# Elastic Constant Matrix: (Units=GPa)
#
#
# Indices 1 2 3 4 5 6 
#
# 1 25.2349 19.4255 16.0541 0.0000 0.0000 0.0000
# 2 19.4255 55.7315 -2.7576 0.0000 0.0000 0.0000
# 3 16.0541 -2.7576 40.5526 0.0000 0.0000 0.0000
# 4 0.0000 0.0000 0.0000 20.7901 0.0000 0.0000
# 5 0.0000 0.0000 0.0000 0.0000 26.6401 0.0000
# 6 0.0000 0.0000 0.0000 0.0000 0.0000 18.0204
#
#
#
# Elastic Compliance Matrix: (Units=1/GPa)
#
#
# Indices 1 2 3 4 5 6 
#
# 1 0.088491 -0.032687 -0.037255 0.000000 0.000000 0.000000
# 2 -0.032687 0.030078 0.014986 0.000000 0.000000 0.000000
# 3 -0.037255 0.014986 0.040427 0.000000 0.000000 0.000000
# 4 0.000000 0.000000 0.000000 0.048100 0.000000 0.000000
# 5 0.000000 0.000000 0.000000 0.000000 0.037537 0.000000
# 6 0.000000 0.000000 0.000000 0.000000 0.000000 0.055493
#
#
# Mechanical properties :
#
#
# Convention : Reuss Voigt Hill
#
# Bulk Modulus (GPa) = 20.37370 20.77367 20.57368
# Shear Modulus (GPa) = 11.72606 19.00992 15.36799
#
# Velocity S-wave (km/s) = 2.67690 3.40837 3.06454
# Velocity P-wave (km/s) = 4.69093 5.30887 5.00944
#
# Compressibility (1/GPa) = 0.04908290
#
# Stress axis : x y z
#
# Youngs Moduli (GPa) = 11.30055 33.24680 24.73598
#
# Poissons Ratio (x) = 1.08675 0.92154
# Poissons Ratio (y) = 0.36939 -0.37069
# Poissons Ratio (z) = 0.42100 -0.49823
#
# Static dielectric constant tensor:
#      x y z
#    x 1.586290 0.000000 0.000000 
#    y 0.000000 1.563120 0.000000 
#    z 0.000000 0.000000 1.625770 
# 
# From -- ./inp_files/7111.got.cif
#   From: 2010.05.17/outbox.cif.g08.bks.cpg/sg60_4_cif.got.tgz:7111.got - 2010.06.03 14:59:27.
