data_PCOD9454709
_publ_section_title
;
Structure prediction by ZEFSAII (Michael W. Deem and Ramdas Pophale) SiO2 
 PCOD9454709
Probable space group: P B C N
;
_chemical_formula_sum "Si O2"
_cell_formula_units_Z 60
_cell_length_a 14.878817
_cell_length_b 11.821039
_cell_length_c 16.789439
_cell_angle_alpha 90.000000
_cell_angle_beta 90.000000
_cell_angle_gamma 90.000000
_cell_volume 2952.978176
_symmetry_space_group_name_H-M "P B C N"
_symmetry_group_IT_number 60
_symmetry_cell_setting 'orthorhombic'
loop_
_space_group_symop_operation_xyz
x,y,z
1/2-x,1/2-y,1/2+z
1/2+x,1/2-y,-z
-x,y,1/2-z
-x,-y,-z
1/2+x,1/2+y,1/2-z
1/2-x,1/2+y,z
x,-y,1/2+z
loop_
_atom_site_type_symbol
_atom_site_label
_atom_site_fract_x
_atom_site_fract_y
_atom_site_fract_z
Si Si1 0.805489 0.780635 0.058159
Si Si2 0.933639 0.637954 0.964987
Si Si3 0.872830 0.988745 0.623871
Si Si4 0.111839 0.262990 0.668728
Si Si5 0.500000 0.426958 0.250000
Si Si6 0.881817 0.228562 0.012891
Si Si7 0.022327 0.464678 0.869691
Si Si8 0.695192 0.901111 0.701205
O O1 0.858502 0.893484 0.078555
O O2 0.813717 0.696244 0.133357
O O3 0.847874 0.716429 0.981785
O O4 0.700563 0.803898 0.045127
O O5 0.949493 0.562831 0.886410
O O6 0.022460 0.714512 0.972357
O O7 0.935039 0.556129 0.042575
O O8 0.960665 0.999692 0.678265
O O9 0.877403 0.888646 0.560030
O O10 0.786915 0.964845 0.680914
O O11 0.078112 0.157682 0.720470
O O12 0.133920 0.219031 0.581165
O O13 0.029070 0.350905 0.656067
O O14 0.186423 0.335718 0.715330
O O15 0.106575 0.479536 0.811122
#
# Coordination Sequence:
#
# PCOD9454709 Si02
#       8
#     8   8   8   8   4   8   8   8
#     4  10  20  40  60  87 123 168 204 259 321 390
#     4   9  18  33  56  88 120 153 200 259 311 371
#     4  11  23  40  65  88 128 177 211 263 335 388
#     4  11  20  39  65  94 123 164 222 269 310 397
#     4  12  22  42  66  92 128 174 222 264 334 406
#     4  10  23  38  61  93 128 161 218 267 322 389
#     4   9  16  32  62  85 113 154 202 258 313 368
#     4  10  19  37  61  88 117 165 213 260 319 380
#
# _framework density 20.318472
#
# number of rings (size 3 to 8) (size 9 to 14) (size 15 to 20)
#    0.000    1.867    2.667    2.400    0.000    5.333 
#    7.200    0.000    5.867    0.000    0.000    0.000 
#    0.000    0.000    0.000    0.000    0.000    0.000 
#
# Total GULP energy -334722.884959 kJ/mol
# GULP energy per Si atom -5578.714749 kJ/mol
# Density = 2.027223 g / cm^3
# Si number density = 20.318472 Si / 1000 Ang^3
#
#
#
# Elastic Constant Matrix: (Units=GPa)
#
#
# Indices 1 2 3 4 5 6 
#
# 1 52.5086 19.7244 6.0877 0.0000 0.0000 0.0000
# 2 19.7244 59.7862 25.3882 0.0000 0.0000 0.0000
# 3 6.0877 25.3882 78.0359 0.0000 0.0000 0.0000
# 4 0.0000 0.0000 0.0000 23.5713 0.0000 0.0000
# 5 0.0000 0.0000 0.0000 0.0000 27.8182 0.0000
# 6 0.0000 0.0000 0.0000 0.0000 0.0000 25.3208
#
#
#
# Elastic Compliance Matrix: (Units=1/GPa)
#
#
# Indices 1 2 3 4 5 6 
#
# 1 0.021775 -0.007499 0.000741 0.000000 0.000000 0.000000
# 2 -0.007499 0.021990 -0.006569 0.000000 0.000000 0.000000
# 3 0.000741 -0.006569 0.014894 0.000000 0.000000 0.000000
# 4 0.000000 0.000000 0.000000 0.042424 0.000000 0.000000
# 5 0.000000 0.000000 0.000000 0.000000 0.035948 0.000000
# 6 0.000000 0.000000 0.000000 0.000000 0.000000 0.039493
#
#
# Mechanical properties :
#
#
# Convention : Reuss Voigt Hill
#
# Bulk Modulus (GPa) = 31.24481 32.52570 31.88525
# Shear Modulus (GPa) = 23.38120 24.61741 23.99931
#
# Velocity S-wave (km/s) = 3.39593 3.48455 3.44053
# Velocity P-wave (km/s) = 5.54864 5.67734 5.61336
#
# Compressibility (1/GPa) = 0.03200532
#
# Stress axis : x y z
#
# Youngs Moduli (GPa) = 45.92337 45.47564 67.14099
#
# Poissons Ratio (x) = 0.34101 -0.04974
# Poissons Ratio (y) = 0.34436 0.44106
# Poissons Ratio (z) = -0.03402 0.29874
#
# Static dielectric constant tensor:
#      x y z
#    x 1.747810 0.000000 0.000000 
#    y 0.000000 1.719650 0.000000 
#    z 0.000000 0.000000 1.748960 
# 
# From -- ./inp_files/20643.got.cif
#   From: 2010.05.17/outbox.cif.g08.bks.cpg/sg60_11_cif.got.tgz:20643.got - 2010.06.03 14:59:27.
