data_PCOD9454359
_publ_section_title
;
Structure prediction by ZEFSAII (Michael W. Deem and Ramdas Pophale) SiO2 
 PCOD9454359
Probable space group: P B C N
;
_chemical_formula_sum "Si O2"
_cell_formula_units_Z 48
_cell_length_a 5.138882
_cell_length_b 14.374820
_cell_length_c 26.747378
_cell_angle_alpha 90.000000
_cell_angle_beta 90.000000
_cell_angle_gamma 90.000000
_cell_volume 1975.842287
_symmetry_space_group_name_H-M "P B C N"
_symmetry_group_IT_number 60
_symmetry_cell_setting 'orthorhombic'
loop_
_space_group_symop_operation_xyz
x,y,z
1/2-x,1/2-y,1/2+z
1/2+x,1/2-y,-z
-x,y,1/2-z
-x,-y,-z
1/2+x,1/2+y,1/2-z
1/2-x,1/2+y,z
x,-y,1/2+z
loop_
_atom_site_type_symbol
_atom_site_label
_atom_site_fract_x
_atom_site_fract_y
_atom_site_fract_z
Si Si1 0.488599 0.791574 0.986379
Si Si2 0.946098 0.709690 0.371901
Si Si3 0.073531 0.206035 0.305331
Si Si4 0.245964 0.036118 0.528770
Si Si5 0.435961 0.429869 0.134005
Si Si6 0.578887 0.927179 0.197396
O O1 0.527120 0.825507 0.929173
O O2 0.771148 0.790649 0.012625
O O3 0.306037 0.855171 0.022307
O O4 0.170143 0.672515 0.334816
O O5 0.989040 0.821273 0.378021
O O6 0.670168 0.696983 0.343642
O O7 0.000000 0.167809 0.250000
O O8 0.135992 0.316361 0.295519
O O9 0.163944 0.017229 0.585306
O O10 0.500000 0.000000 0.500000
O O11 0.000000 0.000000 0.500000
O O12 0.683345 0.465514 0.164837
O O13 0.186454 0.430774 0.168139
O O14 0.500000 0.971131 0.250000
#
# Coordination Sequence:
#
# PCOD9454359 Si02
#       6
#     8   8   8   8   8   8
#     4  12  24  40  64  89 120 161 213 253 302 366
#     4  10  19  32  55  83 113 153 200 244 297 360
#     4   9  17  29  48  81 120 149 183 240 312 364
#     4  12  26  42  60  89 126 169 208 256 313 369
#     4  10  19  34  54  81 118 154 194 245 306 358
#     4   9  17  29  51  82 115 148 190 242 306 365
#
# _framework density 24.293434999999999
#
# number of rings (size 3 to 8) (size 9 to 14) (size 15 to 20)
#    0.000    1.667    1.667    4.000    4.667    4.000 
#    0.000    0.000    0.000    0.000    0.000   23.333 
#    0.000    0.000    0.000    0.000    0.000    0.000 
#
# Total GULP energy -267878.767512 kJ/mol
# GULP energy per Si atom -5580.807656 kJ/mol
# Density = 2.423814 g / cm^3
# Si number density = 24.293435 Si / 1000 Ang^3
#
#
#
# Elastic Constant Matrix: (Units=GPa)
#
#
# Indices 1 2 3 4 5 6 
#
# 1 151.7154 22.9913 31.2211 0.0000 0.0000 0.0000
# 2 22.9913 30.7931 15.3631 0.0000 0.0000 0.0000
# 3 31.2211 15.3631 159.6837 0.0000 0.0000 0.0000
# 4 0.0000 0.0000 0.0000 25.7594 0.0000 0.0000
# 5 0.0000 0.0000 0.0000 0.0000 51.9212 0.0000
# 6 0.0000 0.0000 0.0000 0.0000 0.0000 17.8510
#
#
#
# Elastic Compliance Matrix: (Units=1/GPa)
#
#
# Indices 1 2 3 4 5 6 
#
# 1 0.007577 -0.005166 -0.000984 0.000000 0.000000 0.000000
# 2 -0.005166 0.037634 -0.002611 0.000000 0.000000 0.000000
# 3 -0.000984 -0.002611 0.006706 0.000000 0.000000 0.000000
# 4 0.000000 0.000000 0.000000 0.038821 0.000000 0.000000
# 5 0.000000 0.000000 0.000000 0.000000 0.019260 0.000000
# 6 0.000000 0.000000 0.000000 0.000000 0.000000 0.056019
#
#
# Mechanical properties :
#
#
# Convention : Reuss Voigt Hill
#
# Bulk Modulus (GPa) = 29.07397 53.48258 41.27828
# Shear Modulus (GPa) = 25.64046 37.28078 31.46062
#
# Velocity S-wave (km/s) = 3.25229 3.92165 3.60255
# Velocity P-wave (km/s) = 5.10852 6.52448 5.85943
#
# Compressibility (1/GPa) = 0.03439502
#
# Stress axis : x y z
#
# Youngs Moduli (GPa) = 131.98319 26.57141 149.11973
#
# Poissons Ratio (x) = 0.13727 0.14679
# Poissons Ratio (y) = 0.68182 0.38931
# Poissons Ratio (z) = 0.12992 0.06937
#
# Static dielectric constant tensor:
#      x y z
#    x 1.742940 0.000000 0.000000 
#    y 0.000000 1.737710 0.000000 
#    z 0.000000 0.000000 1.837750 
# 
# From -- ./inp_files/23614.got.cif
#   From: 2010.05.17/outbox.cif.g08.bks.cpg/sg60_12_cif.got.tgz:23614.got - 2010.06.03 14:59:27.
