data_PCOD9454653
_publ_section_title
;
Structure prediction by ZEFSAII (Michael W. Deem and Ramdas Pophale) SiO2 
 PCOD9454653
Probable space group: P B C N
;
_chemical_formula_sum "Si O2"
_cell_formula_units_Z 60
_cell_length_a 15.672960
_cell_length_b 22.291233
_cell_length_c 8.617595
_cell_angle_alpha 90.000000
_cell_angle_beta 90.000000
_cell_angle_gamma 90.000000
_cell_volume 3010.725745
_symmetry_space_group_name_H-M "P B C N"
_symmetry_group_IT_number 60
_symmetry_cell_setting 'orthorhombic'
loop_
_space_group_symop_operation_xyz
x,y,z
1/2-x,1/2-y,1/2+z
1/2+x,1/2-y,-z
-x,y,1/2-z
-x,-y,-z
1/2+x,1/2+y,1/2-z
1/2-x,1/2+y,z
x,-y,1/2+z
loop_
_atom_site_type_symbol
_atom_site_label
_atom_site_fract_x
_atom_site_fract_y
_atom_site_fract_z
Si Si1 0.339567 0.246968 0.907172
Si Si2 0.131867 0.592388 0.623045
Si Si3 0.590376 0.634883 0.196597
Si Si4 0.500000 0.819615 0.250000
Si Si5 0.286368 0.679409 0.695637
Si Si6 0.084329 0.082666 0.650784
Si Si7 0.808739 0.960925 0.868369
Si Si8 0.816057 0.496444 0.121461
O O1 0.343624 0.311467 0.823306
O O2 0.428929 0.215842 0.853510
O O3 0.263814 0.206817 0.840003
O O4 0.319925 0.267362 0.083089
O O5 0.054144 0.638164 0.633963
O O6 0.217554 0.633721 0.614967
O O7 0.133583 0.541308 0.491256
O O8 0.133752 0.553303 0.781676
O O9 0.500000 0.659638 0.250000
O O10 0.624935 0.589738 0.325239
O O11 0.575754 0.603036 0.029441
O O12 0.366235 0.637357 0.732658
O O13 0.000000 0.070024 0.750000
O O14 0.142066 0.023737 0.644592
O O15 0.734898 0.961356 0.739856
O O16 0.757648 0.961181 0.027697
#
# Coordination Sequence:
#
# PCOD9454653 Si02
#       8
#     8   8   8   4   8   8   8   8
#     4  10  22  42  64  87 120 163 215 254 306 362
#     4  10  21  39  66  92 126 160 203 255 312 375
#     4  11  23  35  54  86 120 157 203 252 296 373
#     4  10  22  42  64  90 124 168 208 262 308 356
#     4  10  21  42  63  87 122 166 206 256 307 370
#     4  11  23  37  55  87 126 158 195 250 311 375
#     4  11  20  36  57  87 123 161 200 243 309 366
#     4  10  19  36  61  89 121 161 198 247 306 378
#
# _framework density 19.928750000000001
#
# number of rings (size 3 to 8) (size 9 to 14) (size 15 to 20)
#    0.000    1.600    4.667    1.200    1.867    4.800 
#    2.400    0.000    0.000    6.400    0.000    0.000 
#    0.000    0.000    0.000    0.000    0.000    0.000 
#
# Total GULP energy -334671.320155 kJ/mol
# GULP energy per Si atom -5577.855336 kJ/mol
# Density = 1.988339 g / cm^3
# Si number density = 19.928750 Si / 1000 Ang^3
#
#
#
# Elastic Constant Matrix: (Units=GPa)
#
#
# Indices 1 2 3 4 5 6 
#
# 1 48.0390 19.7282 9.9300 0.0000 0.0000 0.0000
# 2 19.7282 69.6857 22.1488 0.0000 0.0000 0.0000
# 3 9.9300 22.1488 43.3023 0.0000 0.0000 0.0000
# 4 0.0000 0.0000 0.0000 27.6272 0.0000 0.0000
# 5 0.0000 0.0000 0.0000 0.0000 17.2568 0.0000
# 6 0.0000 0.0000 0.0000 0.0000 0.0000 21.5652
#
#
#
# Elastic Compliance Matrix: (Units=1/GPa)
#
#
# Indices 1 2 3 4 5 6 
#
# 1 0.023762 -0.005965 -0.002398 0.000000 0.000000 0.000000
# 2 -0.005965 0.018633 -0.008163 0.000000 0.000000 0.000000
# 3 -0.002398 -0.008163 0.027819 0.000000 0.000000 0.000000
# 4 0.000000 0.000000 0.000000 0.036196 0.000000 0.000000
# 5 0.000000 0.000000 0.000000 0.000000 0.057948 0.000000
# 6 0.000000 0.000000 0.000000 0.000000 0.000000 0.046371
#
#
# Mechanical properties :
#
#
# Convention : Reuss Voigt Hill
#
# Bulk Modulus (GPa) = 26.90916 29.40456 28.15686
# Shear Modulus (GPa) = 19.51843 20.57116 20.04479
#
# Velocity S-wave (km/s) = 3.13295 3.21633 3.17491
# Velocity P-wave (km/s) = 5.15937 5.34602 5.25352
#
# Compressibility (1/GPa) = 0.03716207
#
# Stress axis : x y z
#
# Youngs Moduli (GPa) = 42.08456 53.66737 35.94707
#
# Poissons Ratio (x) = 0.32011 0.08620
# Poissons Ratio (y) = 0.25103 0.29344
# Poissons Ratio (z) = 0.10092 0.43809
#
# Static dielectric constant tensor:
#      x y z
#    x 1.691420 0.000000 0.000000 
#    y 0.000000 1.693860 0.000000 
#    z 0.000000 0.000000 1.759110 
# 
# From -- ./inp_files/6269.got.cif
#   From: 2010.05.17/outbox.cif.g08.bks.cpg/sg60_4_cif.got.tgz:6269.got - 2010.06.03 14:59:27.
