data_PCOD9454965
_publ_section_title
;
Structure prediction by ZEFSAII (Michael W. Deem and Ramdas Pophale) SiO2 
 PCOD9454965
Probable space group: P B C N
;
_chemical_formula_sum "Si O2"
_cell_formula_units_Z 48
_cell_length_a 16.583772
_cell_length_b 19.540356
_cell_length_c 7.621475
_cell_angle_alpha 90.000000
_cell_angle_beta 90.000000
_cell_angle_gamma 90.000000
_cell_volume 2469.760380
_symmetry_space_group_name_H-M "P B C N"
_symmetry_group_IT_number 60
_symmetry_cell_setting 'orthorhombic'
loop_
_space_group_symop_operation_xyz
x,y,z
1/2-x,1/2-y,1/2+z
1/2+x,1/2-y,-z
-x,y,1/2-z
-x,-y,-z
1/2+x,1/2+y,1/2-z
1/2-x,1/2+y,z
x,-y,1/2+z
loop_
_atom_site_type_symbol
_atom_site_label
_atom_site_fract_x
_atom_site_fract_y
_atom_site_fract_z
Si Si1 0.000000 0.269424 0.750000
Si Si2 0.167082 0.701862 0.382517
Si Si3 0.428784 0.666748 0.474771
Si Si4 0.318490 0.324387 0.637370
Si Si5 0.773385 0.897018 0.421458
Si Si6 0.000000 0.050099 0.250000
Si Si7 0.677137 0.472596 0.778883
O O1 0.920468 0.311053 0.697223
O O2 0.021383 0.222248 0.581374
O O3 0.169206 0.775994 0.472907
O O4 0.234610 0.695081 0.232042
O O5 0.196929 0.648902 0.533239
O O6 0.386955 0.688122 0.288530
O O7 0.352922 0.649124 0.601039
O O8 0.480856 0.600785 0.414598
O O9 0.316892 0.405708 0.595402
O O10 0.799421 0.937428 0.597631
O O11 0.768320 0.960845 0.294339
O O12 0.082196 0.008984 0.219917
#
# Coordination Sequence:
#
# PCOD9454965 Si02
#       7
#     4   8   8   8   8   4   8
#     4  12  20  31  54  78 106 141 174 222 264 301
#     4  10  20  34  54  77 105 136 178 220 260 313
#     4   9  19  31  49  78 108 135 169 202 259 323
#     4   9  19  37  54  75 108 140 172 215 263 320
#     4   9  20  34  48  74 103 136 173 209 256 318
#     4   8  16  31  46  72 106 133 164 214 252 309
#     4   9  18  31  49  70 104 139 167 204 258 315
#
# _framework density 19.435082999999999
#
# number of rings (size 3 to 8) (size 9 to 14) (size 15 to 20)
#    0.000    3.333    0.000    4.000    0.000    7.333 
#    0.000    0.000    0.000    4.000    0.000    0.000 
#    0.000    0.000    0.000    0.000    0.000    0.000 
#
# Total GULP energy -267402.453623 kJ/mol
# GULP energy per Si atom -5570.884450 kJ/mol
# Density = 1.939085 g / cm^3
# Si number density = 19.435083 Si / 1000 Ang^3
#
#
#
# Elastic Constant Matrix: (Units=GPa)
#
#
# Indices 1 2 3 4 5 6 
#
# 1 85.4730 10.4461 20.0647 0.0000 0.0000 0.0000
# 2 10.4461 34.1035 23.5831 0.0000 0.0000 0.0000
# 3 20.0647 23.5831 41.3116 0.0000 0.0000 0.0000
# 4 0.0000 0.0000 0.0000 29.9989 0.0000 0.0000
# 5 0.0000 0.0000 0.0000 0.0000 16.0908 0.0000
# 6 0.0000 0.0000 0.0000 0.0000 0.0000 18.6690
#
#
#
# Elastic Compliance Matrix: (Units=1/GPa)
#
#
# Indices 1 2 3 4 5 6 
#
# 1 0.013214 0.000645 -0.006786 0.000000 0.000000 0.000000
# 2 0.000645 0.048479 -0.027988 0.000000 0.000000 0.000000
# 3 -0.006786 -0.027988 0.043480 0.000000 0.000000 0.000000
# 4 0.000000 0.000000 0.000000 0.033335 0.000000 0.000000
# 5 0.000000 0.000000 0.000000 0.000000 0.062147 0.000000
# 6 0.000000 0.000000 0.000000 0.000000 0.000000 0.053565
#
#
# Mechanical properties :
#
#
# Convention : Reuss Voigt Hill
#
# Bulk Modulus (GPa) = 27.08975 29.89734 28.49355
# Shear Modulus (GPa) = 14.93511 20.07138 17.50325
#
# Velocity S-wave (km/s) = 2.77512 3.21711 3.00426
# Velocity P-wave (km/s) = 4.92313 5.40521 5.16980
#
# Compressibility (1/GPa) = 0.03691433
#
# Stress axis : x y z
#
# Youngs Moduli (GPa) = 75.67852 20.62747 22.99932
#
# Poissons Ratio (x) = -0.01331 0.15608
# Poissons Ratio (y) = -0.04884 0.64371
# Poissons Ratio (z) = 0.51357 0.57732
#
# Static dielectric constant tensor:
#      x y z
#    x 1.685840 0.000000 0.000000 
#    y 0.000000 1.792870 0.000000 
#    z 0.000000 0.000000 1.791100 
# 
# From -- ./inp_files/6046.got.cif
#   From: 2010.05.17/outbox.cif.g08.bks.cpg/sg60_4_cif.got.tgz:6046.got - 2010.06.03 14:59:27.
