data_PCOD9454047
_publ_section_title
;
Structure prediction by ZEFSAII (Michael W. Deem and Ramdas Pophale) SiO2 
 PCOD9454047
Probable space group: P B C N
;
_chemical_formula_sum "Si O2"
_cell_formula_units_Z 52
_cell_length_a 7.960799
_cell_length_b 18.255138
_cell_length_c 18.174278
_cell_angle_alpha 90.000000
_cell_angle_beta 90.000000
_cell_angle_gamma 90.000000
_cell_volume 2641.185753
_symmetry_space_group_name_H-M "P B C N"
_symmetry_group_IT_number 60
_symmetry_cell_setting 'orthorhombic'
loop_
_space_group_symop_operation_xyz
x,y,z
1/2-x,1/2-y,1/2+z
1/2+x,1/2-y,-z
-x,y,1/2-z
-x,-y,-z
1/2+x,1/2+y,1/2-z
1/2-x,1/2+y,z
x,-y,1/2+z
loop_
_atom_site_type_symbol
_atom_site_label
_atom_site_fract_x
_atom_site_fract_y
_atom_site_fract_z
Si Si1 0.224551 0.216441 0.722099
Si Si2 0.168190 0.587894 0.954875
Si Si3 0.500000 0.144492 0.250000
Si Si4 0.529287 0.064225 0.094794
Si Si5 0.903556 0.826353 0.131890
Si Si6 0.444294 0.772498 0.090048
Si Si7 0.748177 0.806273 0.544942
O O1 0.223943 0.172781 0.798343
O O2 0.388871 0.223365 0.673662
O O3 0.154084 0.297761 0.741116
O O4 0.084215 0.177087 0.670279
O O5 0.091519 0.518767 0.912082
O O6 0.352182 0.610260 0.925025
O O7 0.058388 0.659186 0.934312
O O8 0.133420 0.574112 0.041478
O O9 0.507053 0.095233 0.176766
O O10 0.674623 0.113848 0.057355
O O11 0.868936 0.748878 0.092252
O O12 0.561961 0.703915 0.071058
O O13 0.281517 0.777708 0.037730
#
# Coordination Sequence:
#
# PCOD9454047 Si02
#       7
#     8   8   4   8   8   8   8
#     4  10  19  34  56  83 115 143 194 241 292 332
#     4   9  21  35  60  82 113 153 196 232 274 355
#     4  10  20  34  56  82 116 152 180 242 296 336
#     4  10  19  38  56  83 118 154 189 231 294 339
#     4   9  18  34  55  79 108 150 184 242 276 334
#     4  10  21  32  57  85 107 147 191 237 282 335
#     4  10  18  33  54  79 110 143 191 235 278 336
#
# _framework density 19.688127000000001
#
# number of rings (size 3 to 8) (size 9 to 14) (size 15 to 20)
#    0.000    2.462    3.077    0.923    4.308    3.692 
#    0.000    0.000   10.154    6.462    0.000    0.000 
#    0.000    0.000    0.000    0.000    0.000    0.000 
#
# Total GULP energy -289835.604924 kJ/mol
# GULP energy per Si atom -5573.761633 kJ/mol
# Density = 1.964332 g / cm^3
# Si number density = 19.688127 Si / 1000 Ang^3
#
#
#
# Elastic Constant Matrix: (Units=GPa)
#
#
# Indices 1 2 3 4 5 6 
#
# 1 40.4343 1.6774 18.6209 0.0000 0.0000 0.0000
# 2 1.6774 60.2365 14.6552 0.0000 0.0000 0.0000
# 3 18.6209 14.6552 105.5833 0.0000 0.0000 0.0000
# 4 0.0000 0.0000 0.0000 18.5129 0.0000 0.0000
# 5 0.0000 0.0000 0.0000 0.0000 39.4488 0.0000
# 6 0.0000 0.0000 0.0000 0.0000 0.0000 10.4974
#
#
#
# Elastic Compliance Matrix: (Units=1/GPa)
#
#
# Indices 1 2 3 4 5 6 
#
# 1 0.026928 0.000420 -0.004807 0.000000 0.000000 0.000000
# 2 0.000420 0.017188 -0.002460 0.000000 0.000000 0.000000
# 3 -0.004807 -0.002460 0.010660 0.000000 0.000000 0.000000
# 4 0.000000 0.000000 0.000000 0.054016 0.000000 0.000000
# 5 0.000000 0.000000 0.000000 0.000000 0.025349 0.000000
# 6 0.000000 0.000000 0.000000 0.000000 0.000000 0.095262
#
#
# Mechanical properties :
#
#
# Convention : Reuss Voigt Hill
#
# Bulk Modulus (GPa) = 24.34174 30.68454 27.51314
# Shear Modulus (GPa) = 19.47096 25.11186 22.29141
#
# Velocity S-wave (km/s) = 3.14820 3.57526 3.36851
# Velocity P-wave (km/s) = 5.06018 5.71511 5.39759
#
# Compressibility (1/GPa) = 0.04108170
#
# Stress axis : x y z
#
# Youngs Moduli (GPa) = 37.13612 58.18021 93.80472
#
# Poissons Ratio (x) = -0.02442 0.45095
# Poissons Ratio (y) = -0.01559 0.23074
# Poissons Ratio (z) = 0.17853 0.14311
#
# Static dielectric constant tensor:
#      x y z
#    x 1.764940 0.000000 0.000000 
#    y 0.000000 1.657740 0.000000 
#    z 0.000000 0.000000 1.760120 
# 
# From -- ./inp_files/19522.got.cif
#   From: 2010.05.17/outbox.cif.g08.bks.cpg/sg60_10_cif.got.tgz:19522.got - 2010.06.03 14:59:27.
