data_PCOD9454932
_publ_section_title
;
Structure prediction by ZEFSAII (Michael W. Deem and Ramdas Pophale) SiO2 
 PCOD9454932
Probable space group: P B C N
;
_chemical_formula_sum "Si O2"
_cell_formula_units_Z 60
_cell_length_a 30.394880
_cell_length_b 9.027911
_cell_length_c 8.489239
_cell_angle_alpha 90.000000
_cell_angle_beta 90.000000
_cell_angle_gamma 90.000000
_cell_volume 2329.466465
_symmetry_space_group_name_H-M "P B C N"
_symmetry_group_IT_number 60
_symmetry_cell_setting 'orthorhombic'
loop_
_space_group_symop_operation_xyz
x,y,z
1/2-x,1/2-y,1/2+z
1/2+x,1/2-y,-z
-x,y,1/2-z
-x,-y,-z
1/2+x,1/2+y,1/2-z
1/2-x,1/2+y,z
x,-y,1/2+z
loop_
_atom_site_type_symbol
_atom_site_label
_atom_site_fract_x
_atom_site_fract_y
_atom_site_fract_z
Si Si1 0.688205 0.148942 0.400716
Si Si2 0.430926 0.717392 0.482168
Si Si3 0.686944 0.355830 0.024904
Si Si4 0.754269 0.398403 0.475904
Si Si5 0.147946 0.280023 0.271058
Si Si6 0.892682 0.778699 0.211339
Si Si7 0.000000 0.730231 0.750000
Si Si8 0.924094 0.431031 0.442865
O O1 0.779624 0.011929 0.554641
O O2 0.787780 0.295555 0.572367
O O3 0.644520 0.189447 0.308564
O O4 0.714383 0.999201 0.368827
O O5 0.390122 0.692950 0.365422
O O6 0.422178 0.647606 0.653261
O O7 0.474482 0.680327 0.385461
O O8 0.431160 0.896898 0.515838
O O9 0.722326 0.283876 0.391032
O O10 0.639325 0.374892 0.101794
O O11 0.677129 0.325150 0.839812
O O12 0.825613 0.356182 0.086769
O O13 0.120401 0.388264 0.153956
O O14 0.919710 0.666313 0.101755
O O15 0.035929 0.629019 0.661778
#
# Coordination Sequence:
#
# PCOD9454932 Si02
#       8
#     8   8   8   8   8   8   4   8
#     4  10  23  38  57  82 119 159 212 257 303 357
#     4  10  20  33  54  83 116 161 194 239 296 367
#     4  10  23  38  57  82 119 159 212 257 303 357
#     4  10  24  38  58  86 116 160 210 268 312 334
#     4   9  21  35  53  78 111 160 203 241 290 366
#     4  10  22  35  55  82 113 160 207 236 295 371
#     4  10  20  34  52  84 126 154 194 238 296 366
#     4  10  20  33  54  83 116 161 194 239 296 367
#
# _framework density 25.756969000000002
#
# number of rings (size 3 to 8) (size 9 to 14) (size 15 to 20)
#    0.000    2.133    0.000    2.000   11.200    8.000 
#    0.000    0.000    0.000    0.000    0.000    0.000 
#    0.000  241.067    0.000    0.000    0.533    0.000 
#
# Total GULP energy -335900.050126 kJ/mol
# GULP energy per Si atom -5598.334169 kJ/mol
# Density = 2.569835 g / cm^3
# Si number density = 25.756969 Si / 1000 Ang^3
#
#
#
# Elastic Constant Matrix: (Units=GPa)
#
#
# Indices 1 2 3 4 5 6 
#
# 1 120.6702 17.7568 41.8177 0.0000 0.0000 0.0000
# 2 17.7568 82.7495 14.2184 0.0000 0.0000 0.0000
# 3 41.8177 14.2184 145.4527 0.0000 0.0000 0.0000
# 4 0.0000 0.0000 0.0000 13.9546 0.0000 0.0000
# 5 0.0000 0.0000 0.0000 0.0000 61.5026 0.0000
# 6 0.0000 0.0000 0.0000 0.0000 0.0000 8.6193
#
#
#
# Elastic Compliance Matrix: (Units=1/GPa)
#
#
# Indices 1 2 3 4 5 6 
#
# 1 0.009403 -0.001580 -0.002549 0.000000 0.000000 0.000000
# 2 -0.001580 0.012557 -0.000773 0.000000 0.000000 0.000000
# 3 -0.002549 -0.000773 0.007683 0.000000 0.000000 0.000000
# 4 0.000000 0.000000 0.000000 0.071661 0.000000 0.000000
# 5 0.000000 0.000000 0.000000 0.000000 0.016259 0.000000
# 6 0.000000 0.000000 0.000000 0.000000 0.000000 0.116018
#
#
# Mechanical properties :
#
#
# Convention : Reuss Voigt Hill
#
# Bulk Modulus (GPa) = 50.40564 55.16201 52.78383
# Shear Modulus (GPa) = 20.00013 35.15393 27.57703
#
# Velocity S-wave (km/s) = 2.78959 3.69837 3.27565
# Velocity P-wave (km/s) = 5.47612 6.30080 5.90288
#
# Compressibility (1/GPa) = 0.01983905
#
# Stress axis : x y z
#
# Youngs Moduli (GPa) = 106.35109 79.63988 130.14931
#
# Poissons Ratio (x) = 0.12581 0.33174
# Poissons Ratio (y) = 0.16801 0.10064
# Poissons Ratio (z) = 0.27108 0.06158
#
# Static dielectric constant tensor:
#      x y z
#    x 2.005890 0.000000 0.000000 
#    y 0.000000 2.013940 0.000000 
#    z 0.000000 0.000000 2.122150 
# 
# From -- ./inp_files/8171.got.cif
#   From: 2010.05.17/outbox.cif.g08.bks.cpg/sg60_5_cif.got.tgz:8171.got - 2010.06.03 14:59:27.
