data_PCOD9454366
_publ_section_title
;
Structure prediction by ZEFSAII (Michael W. Deem and Ramdas Pophale) SiO2 
 PCOD9454366
Probable space group: P B C N
;
_chemical_formula_sum "Si O2"
_cell_formula_units_Z 60
_cell_length_a 27.505224
_cell_length_b 5.857251
_cell_length_c 15.137689
_cell_angle_alpha 90.000000
_cell_angle_beta 90.000000
_cell_angle_gamma 90.000000
_cell_volume 2438.757398
_symmetry_space_group_name_H-M "P B C N"
_symmetry_group_IT_number 60
_symmetry_cell_setting 'orthorhombic'
loop_
_space_group_symop_operation_xyz
x,y,z
1/2-x,1/2-y,1/2+z
1/2+x,1/2-y,-z
-x,y,1/2-z
-x,-y,-z
1/2+x,1/2+y,1/2-z
1/2-x,1/2+y,z
x,-y,1/2+z
loop_
_atom_site_type_symbol
_atom_site_label
_atom_site_fract_x
_atom_site_fract_y
_atom_site_fract_z
Si Si1 0.051591 0.754038 0.961302
Si Si2 0.371427 0.633420 0.195077
Si Si3 0.728209 0.588701 0.776882
Si Si4 0.922818 0.870983 0.155662
Si Si5 0.136718 0.459122 0.349986
Si Si6 0.445231 0.883044 0.099931
Si Si7 0.261032 0.894349 0.428418
Si Si8 0.000000 0.590866 0.250000
O O1 0.067378 0.007183 0.936799
O O2 0.086005 0.627055 0.890432
O O3 0.994644 0.723016 0.940096
O O4 0.063435 0.622740 0.050692
O O5 0.326156 0.463788 0.188585
O O6 0.412313 0.517963 0.256942
O O7 0.353689 0.848531 0.254697
O O8 0.397870 0.726976 0.108380
O O9 0.744483 0.847645 0.803435
O O10 0.734434 0.593902 0.668779
O O11 0.873778 0.725221 0.150349
O O12 0.972073 0.740240 0.178571
O O13 0.181530 0.388916 0.409451
O O14 0.460268 0.944125 0.199656
O O15 0.251482 0.146358 0.470178
#
# Coordination Sequence:
#
# PCOD9454366 Si02
#       8
#     8   8   8   8   8   8   8   4
#     4  10  24  41  58  81 131 171 211 253 334 399
#     4  11  21  35  62  88 123 158 214 270 328 377
#     4  10  19  33  57  93 126 159 203 277 336 391
#     4  11  21  35  59  90 116 161 210 269 314 388
#     4  11  20  36  60  88 122 158 209 267 314 388
#     4  11  22  43  58  87 126 171 208 269 325 403
#     4  10  19  32  56  91 124 159 206 269 329 383
#     4  12  20  36  64  88 120 158 220 272 326 372
#
# _framework density 24.602692999999999
#
# number of rings (size 3 to 8) (size 9 to 14) (size 15 to 20)
#    0.000    1.333    5.333    3.200    1.867    0.533 
#    2.400    0.000    0.000    1.600    0.000    0.000 
#    0.000    0.000    0.000    0.000    0.000    0.000 
#
# Total GULP energy -334936.397076 kJ/mol
# GULP energy per Si atom -5582.273285 kJ/mol
# Density = 2.454670 g / cm^3
# Si number density = 24.602693 Si / 1000 Ang^3
#
#
#
# Elastic Constant Matrix: (Units=GPa)
#
#
# Indices 1 2 3 4 5 6 
#
# 1 102.0336 42.1250 7.7280 0.0000 0.0000 0.0000
# 2 42.1250 123.1370 16.3381 0.0000 0.0000 0.0000
# 3 7.7280 16.3381 47.2315 0.0000 0.0000 0.0000
# 4 0.0000 0.0000 0.0000 31.3967 0.0000 0.0000
# 5 0.0000 0.0000 0.0000 0.0000 8.1433 0.0000
# 6 0.0000 0.0000 0.0000 0.0000 0.0000 42.6116
#
#
#
# Elastic Compliance Matrix: (Units=1/GPa)
#
#
# Indices 1 2 3 4 5 6 
#
# 1 0.011426 -0.003837 -0.000542 0.000000 0.000000 0.000000
# 2 -0.003837 0.009800 -0.002762 0.000000 0.000000 0.000000
# 3 -0.000542 -0.002762 0.022217 0.000000 0.000000 0.000000
# 4 0.000000 0.000000 0.000000 0.031851 0.000000 0.000000
# 5 0.000000 0.000000 0.000000 0.000000 0.122800 0.000000
# 6 0.000000 0.000000 0.000000 0.000000 0.000000 0.023468
#
#
# Mechanical properties :
#
#
# Convention : Reuss Voigt Hill
#
# Bulk Modulus (GPa) = 34.29374 44.97602 39.63488
# Shear Modulus (GPa) = 20.36133 30.17771 25.26952
#
# Velocity S-wave (km/s) = 2.87993 3.50609 3.20832
# Velocity P-wave (km/s) = 5.00280 5.89159 5.46529
#
# Compressibility (1/GPa) = 0.02915984
#
# Stress axis : x y z
#
# Youngs Moduli (GPa) = 87.52119 102.03976 45.01150
#
# Poissons Ratio (x) = 0.39151 0.02441
# Poissons Ratio (y) = 0.33580 0.12433
# Poissons Ratio (z) = 0.04746 0.28186
#
# Static dielectric constant tensor:
#      x y z
#    x 1.930510 0.000000 0.000000 
#    y 0.000000 2.251160 0.000000 
#    z 0.000000 0.000000 1.946900 
# 
# From -- ./inp_files/21275.got.cif
#   From: 2010.05.17/outbox.cif.g08.bks.cpg/sg60_11_cif.got.tgz:21275.got - 2010.06.03 14:59:27.
