data_PCOD9454089
_publ_section_title
;
Structure prediction by ZEFSAII (Michael W. Deem and Ramdas Pophale) SiO2 
 PCOD9454089
Probable space group: P B C N
;
_chemical_formula_sum "Si O2"
_cell_formula_units_Z 56
_cell_length_a 16.306139
_cell_length_b 8.248771
_cell_length_c 17.633751
_cell_angle_alpha 90.000000
_cell_angle_beta 90.000000
_cell_angle_gamma 90.000000
_cell_volume 2371.838373
_symmetry_space_group_name_H-M "P B C N"
_symmetry_group_IT_number 60
_symmetry_cell_setting 'orthorhombic'
loop_
_space_group_symop_operation_xyz
x,y,z
1/2-x,1/2-y,1/2+z
1/2+x,1/2-y,-z
-x,y,1/2-z
-x,-y,-z
1/2+x,1/2+y,1/2-z
1/2-x,1/2+y,z
x,-y,1/2+z
loop_
_atom_site_type_symbol
_atom_site_label
_atom_site_fract_x
_atom_site_fract_y
_atom_site_fract_z
Si Si1 0.071776 0.311475 0.942751
Si Si2 0.475963 0.430554 0.141193
Si Si3 0.150674 0.000163 0.009753
Si Si4 0.773486 0.326886 0.264938
Si Si5 0.303221 0.919721 0.619077
Si Si6 0.870374 0.025656 0.213333
Si Si7 0.906111 0.662093 0.521596
O O1 0.004086 0.314225 0.011258
O O2 0.021149 0.241860 0.870986
O O3 0.135600 0.168241 0.964764
O O4 0.106224 0.493232 0.932832
O O5 0.426242 0.477611 0.066765
O O6 0.415913 0.456765 0.211301
O O7 0.555557 0.539753 0.155098
O O8 0.230360 0.021018 0.062723
O O9 0.146452 0.827316 0.965146
O O10 0.822863 0.457991 0.313303
O O11 0.726873 0.233637 0.333155
O O12 0.832318 0.199833 0.226758
O O13 0.708246 0.407444 0.207828
O O14 0.376342 0.884658 0.563172
#
# Coordination Sequence:
#
# PCOD9454089 Si02
#       7
#     8   8   8   8   8   8   8
#     4  10  22  37  60  86 128 160 195 246 306 370
#     4  10  19  38  58  86 114 167 196 239 314 373
#     4  11  20  37  63  93 118 161 201 255 307 354
#     4  10  18  34  57  89 108 149 196 271 289 345
#     4  11  18  33  60  88 117 143 210 257 291 348
#     4  10  21  35  65  80 116 155 210 246 311 362
#     4  10  20  34  56  91 118 158 191 245 304 351
#
# _framework density 23.610378000000001
#
# number of rings (size 3 to 8) (size 9 to 14) (size 15 to 20)
#    0.000    1.714    4.286    3.429    0.000    0.000 
#    0.000    1.429   28.286    6.857    0.000    0.000 
#    0.000    0.000    0.000    0.000    0.000    0.000 
#
# Total GULP energy -312361.012815 kJ/mol
# GULP energy per Si atom -5577.875229 kJ/mol
# Density = 2.355664 g / cm^3
# Si number density = 23.610378 Si / 1000 Ang^3
#
#
#
# Elastic Constant Matrix: (Units=GPa)
#
#
# Indices 1 2 3 4 5 6 
#
# 1 80.2342 46.5619 15.8510 0.0000 0.0000 0.0000
# 2 46.5619 125.8462 -2.8111 0.0000 0.0000 0.0000
# 3 15.8510 -2.8111 29.6528 0.0000 0.0000 0.0000
# 4 0.0000 0.0000 0.0000 -6.7486 0.0000 0.0000
# 5 0.0000 0.0000 0.0000 0.0000 46.9496 0.0000
# 6 0.0000 0.0000 0.0000 0.0000 0.0000 -19.4464
#
#
#
# Elastic Compliance Matrix: (Units=1/GPa)
#
#
# Indices 1 2 3 4 5 6 
#
# 1 0.018739 -0.007172 -0.010697 0.000000 0.000000 0.000000
# 2 -0.007172 0.010708 0.004849 0.000000 0.000000 0.000000
# 3 -0.010697 0.004849 0.039901 0.000000 0.000000 0.000000
# 4 0.000000 0.000000 0.000000 -0.148179 0.000000 0.000000
# 5 0.000000 0.000000 0.000000 0.000000 0.021299 0.000000
# 6 0.000000 0.000000 0.000000 0.000000 0.000000 -0.051423
#
#
# Mechanical properties :
#
#
# Convention : Reuss Voigt Hill
#
# Bulk Modulus (GPa) = 23.09018 39.43742 31.26380
# Shear Modulus (GPa) = -73.01552 15.89302 -28.56125
#
# Velocity S-wave (km/s) = -5.56707 2.59730 -3.48183
# Velocity P-wave (km/s) = 5.61446 5.07290 1.70115
#
# Compressibility (1/GPa) = 0.04330846
#
# Stress axis : x y z
#
# Youngs Moduli (GPa) = 53.36473 93.38673 25.06177
#
# Poissons Ratio (x) = 0.66979 0.26808
# Poissons Ratio (y) = 0.38274 -0.12153
# Poissons Ratio (z) = 0.57084 -0.45284
#
# Static dielectric constant tensor:
#      x y z
#    x 1.881280 0.000000 0.000000 
#    y 0.000000 2.055450 0.000000 
#    z 0.000000 0.000000 1.873170 
# 
# From -- ./inp_files/24522.got.cif
#   From: 2010.05.17/outbox.cif.g08.bks.cpg/sg60_13_cif.got.tgz:24522.got - 2010.06.03 14:59:27.
