data_PCOD9454478
_publ_section_title
;
Structure prediction by ZEFSAII (Michael W. Deem and Ramdas Pophale) SiO2 
 PCOD9454478
Probable space group: P B C N
;
_chemical_formula_sum "Si O2"
_cell_formula_units_Z 60
_cell_length_a 18.780037
_cell_length_b 16.910444
_cell_length_c 8.747420
_cell_angle_alpha 90.000000
_cell_angle_beta 90.000000
_cell_angle_gamma 90.000000
_cell_volume 2777.994832
_symmetry_space_group_name_H-M "P B C N"
_symmetry_group_IT_number 60
_symmetry_cell_setting 'orthorhombic'
loop_
_space_group_symop_operation_xyz
x,y,z
1/2-x,1/2-y,1/2+z
1/2+x,1/2-y,-z
-x,y,1/2-z
-x,-y,-z
1/2+x,1/2+y,1/2-z
1/2-x,1/2+y,z
x,-y,1/2+z
loop_
_atom_site_type_symbol
_atom_site_label
_atom_site_fract_x
_atom_site_fract_y
_atom_site_fract_z
Si Si1 0.500000 0.877721 0.250000
Si Si2 0.532336 0.898023 0.584851
Si Si3 0.826593 0.966901 0.464344
Si Si4 0.972568 0.921910 0.583704
Si Si5 0.166898 0.473591 0.018513
Si Si6 0.544012 0.288340 0.100610
Si Si7 0.684314 0.379145 0.140277
Si Si8 0.653538 0.116960 0.669282
O O1 0.506959 0.924387 0.412808
O O2 0.420721 0.839284 0.283224
O O3 0.500000 0.918936 0.750000
O O4 0.613481 0.923983 0.583209
O O5 0.529699 0.803157 0.571614
O O6 0.888306 0.922567 0.555993
O O7 0.747239 0.952401 0.525141
O O8 0.830076 0.934272 0.290628
O O9 0.830569 0.061451 0.497043
O O10 0.000000 0.935219 0.750000
O O11 0.009993 0.842682 0.527740
O O12 0.000000 0.000000 0.500000
O O13 0.148433 0.565040 0.985445
O O14 0.159508 0.446878 0.193325
O O15 0.500000 0.312378 0.250000
O O16 0.626212 0.310370 0.128283
O O17 0.766161 0.348287 0.155552
#
# Coordination Sequence:
#
# PCOD9454478 Si02
#       8
#     4   8   8   8   8   8   8   8
#     4  10  22  42  62  88 124 150 204 256 300 358
#     4  10  24  41  62  85 119 164 200 244 300 367
#     4  10  19  34  56  82 119 145 187 250 298 345
#     4  12  22  33  56  87 114 151 196 246 296 347
#     4   9  20  37  58  87 119 148 196 247 303 356
#     4  11  22  39  58  80 114 158 197 240 291 360
#     4  10  19  35  56  85 117 148 193 239 302 353
#     4   9  20  34  62  89 115 152 188 254 302 349
#
# _framework density 21.598313000000001
#
# number of rings (size 3 to 8) (size 9 to 14) (size 15 to 20)
#    0.000    1.867    2.667    1.200    3.733    1.067 
#    0.000    1.333    5.867    0.000    0.000    0.000 
#    0.000    0.000    0.000    0.000    0.000    0.000 
#
# Total GULP energy -334187.674324 kJ/mol
# GULP energy per Si atom -5569.794572 kJ/mol
# Density = 2.154915 g / cm^3
# Si number density = 21.598313 Si / 1000 Ang^3
#
#
#
# Elastic Constant Matrix: (Units=GPa)
#
#
# Indices 1 2 3 4 5 6 
#
# 1 148.7291 15.5626 21.7641 0.0000 0.0000 0.0000
# 2 15.5626 45.2587 32.9943 0.0000 0.0000 0.0000
# 3 21.7641 32.9943 108.6426 0.0000 0.0000 0.0000
# 4 0.0000 0.0000 0.0000 17.6443 0.0000 0.0000
# 5 0.0000 0.0000 0.0000 0.0000 27.0741 0.0000
# 6 0.0000 0.0000 0.0000 0.0000 0.0000 16.2813
#
#
#
# Elastic Compliance Matrix: (Units=1/GPa)
#
#
# Indices 1 2 3 4 5 6 
#
# 1 0.007038 -0.001788 -0.000867 0.000000 0.000000 0.000000
# 2 -0.001788 0.028832 -0.008398 0.000000 0.000000 0.000000
# 3 -0.000867 -0.008398 0.011929 0.000000 0.000000 0.000000
# 4 0.000000 0.000000 0.000000 0.056676 0.000000 0.000000
# 5 0.000000 0.000000 0.000000 0.000000 0.036936 0.000000
# 6 0.000000 0.000000 0.000000 0.000000 0.000000 0.061420
#
#
# Mechanical properties :
#
#
# Convention : Reuss Voigt Hill
#
# Bulk Modulus (GPa) = 38.92155 49.25250 44.08703
# Shear Modulus (GPa) = 21.41328 27.68723 24.55026
#
# Velocity S-wave (km/s) = 3.15212 3.58427 3.37512
# Velocity P-wave (km/s) = 5.59532 6.32319 5.97035
#
# Compressibility (1/GPa) = 0.02569271
#
# Stress axis : x y z
#
# Youngs Moduli (GPa) = 142.09456 34.68329 83.83212
#
# Poissons Ratio (x) = 0.06201 0.07267
# Poissons Ratio (y) = 0.25407 0.70403
# Poissons Ratio (z) = 0.12317 0.29127
#
# Static dielectric constant tensor:
#      x y z
#    x 1.855960 0.000000 0.000000 
#    y 0.000000 1.783150 0.000000 
#    z 0.000000 0.000000 1.812640 
# 
# From -- ./inp_files/6927.got.cif
#   From: 2010.05.17/outbox.cif.g08.bks.cpg/sg60_4_cif.got.tgz:6927.got - 2010.06.03 14:59:27.
