data_PCOD9454133
_publ_section_title
;
Structure prediction by ZEFSAII (Michael W. Deem and Ramdas Pophale) SiO2 
 PCOD9454133
Probable space group: P B C N
;
_chemical_formula_sum "Si O2"
_cell_formula_units_Z 52
_cell_length_a 8.360527
_cell_length_b 14.535572
_cell_length_c 19.159556
_cell_angle_alpha 90.000000
_cell_angle_beta 90.000000
_cell_angle_gamma 90.000000
_cell_volume 2328.365851
_symmetry_space_group_name_H-M "P B C N"
_symmetry_group_IT_number 60
_symmetry_cell_setting 'orthorhombic'
loop_
_space_group_symop_operation_xyz
x,y,z
1/2-x,1/2-y,1/2+z
1/2+x,1/2-y,-z
-x,y,1/2-z
-x,-y,-z
1/2+x,1/2+y,1/2-z
1/2-x,1/2+y,z
x,-y,1/2+z
loop_
_atom_site_type_symbol
_atom_site_label
_atom_site_fract_x
_atom_site_fract_y
_atom_site_fract_z
Si Si1 0.870888 0.141615 0.039375
Si Si2 0.000000 0.878765 0.750000
Si Si3 0.118663 0.345475 0.418597
Si Si4 0.834551 0.920267 0.380978
Si Si5 0.683982 0.760835 0.350475
Si Si6 0.684465 0.493731 0.150986
Si Si7 0.255591 0.894580 0.563128
O O1 0.814597 0.242374 0.064989
O O2 0.064442 0.123896 0.047714
O O3 0.787001 0.066995 0.088738
O O4 0.838868 0.123338 0.958641
O O5 0.081143 0.808995 0.695466
O O6 0.140023 0.943065 0.782148
O O7 0.191098 0.410332 0.358083
O O8 0.148810 0.397584 0.491333
O O9 0.940564 0.317842 0.398066
O O10 0.781405 0.847474 0.322192
O O11 0.014135 0.948441 0.365145
O O12 0.734783 0.013748 0.391099
O O13 0.802580 0.694422 0.392579
#
# Coordination Sequence:
#
# PCOD9454133 Si02
#       7
#     8   4   8   8   8   8   8
#     4  10  18  35  61  94 126 149 196 255 311 367
#     4  12  24  46  62  78 128 176 220 238 294 380
#     4  11  20  36  64  97 122 155 197 261 323 354
#     4  11  19  37  66  93 119 158 203 249 318 373
#     4  11  25  38  61  94 126 163 198 266 308 352
#     4  11  22  40  65  86 118 175 211 237 297 388
#     4  10  18  36  60  93 125 157 192 248 320 376
#
# _framework density 22.333259999999999
#
# number of rings (size 3 to 8) (size 9 to 14) (size 15 to 20)
#    0.000    1.231    9.231    0.923    0.000    1.846 
#    0.000    0.000    0.000    1.846    0.000    0.000 
#    0.000    0.000    0.000    0.000    0.000    0.000 
#
# Total GULP energy -289783.630223 kJ/mol
# GULP energy per Si atom -5572.762120 kJ/mol
# Density = 2.228243 g / cm^3
# Si number density = 22.333260 Si / 1000 Ang^3
#
#
#
# Elastic Constant Matrix: (Units=GPa)
#
#
# Indices 1 2 3 4 5 6 
#
# 1 10.6811 22.7412 14.3618 0.0000 0.0000 0.0000
# 2 22.7412 128.4025 13.7038 0.0000 0.0000 0.0000
# 3 14.3618 13.7038 56.8455 0.0000 0.0000 0.0000
# 4 0.0000 0.0000 0.0000 51.0726 0.0000 0.0000
# 5 0.0000 0.0000 0.0000 0.0000 6.8820 0.0000
# 6 0.0000 0.0000 0.0000 0.0000 0.0000 35.5808
#
#
#
# Elastic Compliance Matrix: (Units=1/GPa)
#
#
# Indices 1 2 3 4 5 6 
#
# 1 0.245002 -0.037757 -0.052797 0.000000 0.000000 0.000000
# 2 -0.037757 0.013812 0.006209 0.000000 0.000000 0.000000
# 3 -0.052797 0.006209 0.029434 0.000000 0.000000 0.000000
# 4 0.000000 0.000000 0.000000 0.019580 0.000000 0.000000
# 5 0.000000 0.000000 0.000000 0.000000 0.145307 0.000000
# 6 0.000000 0.000000 0.000000 0.000000 0.000000 0.028105
#
#
# Mechanical properties :
#
#
# Convention : Reuss Voigt Hill
#
# Bulk Modulus (GPa) = 8.36407 33.06033 20.71220
# Shear Modulus (GPa) = 7.24867 28.38191 17.81529
#
# Velocity S-wave (km/s) = 1.80353 3.56875 2.82743
# Velocity P-wave (km/s) = 2.84433 5.64062 4.46692
#
# Compressibility (1/GPa) = 0.11955901
#
# Stress axis : x y z
#
# Youngs Moduli (GPa) = 4.08160 72.39854 33.97487
#
# Poissons Ratio (x) = 2.73357 1.79376
# Poissons Ratio (y) = 0.15411 -0.21096
# Poissons Ratio (z) = 0.21549 -0.44955
#
# Static dielectric constant tensor:
#      x y z
#    x 1.868160 0.000000 0.000000 
#    y 0.000000 1.902350 0.000000 
#    z 0.000000 0.000000 1.912300 
# 
# From -- ./inp_files/22141.got.cif
#   From: 2010.05.17/outbox.cif.g08.bks.cpg/sg60_12_cif.got.tgz:22141.got - 2010.06.03 14:59:27.
