data_PCOD9454209
_publ_section_title
;
Structure prediction by ZEFSAII (Michael W. Deem and Ramdas Pophale) SiO2 
 PCOD9454209
Probable space group: P B C N
;
_chemical_formula_sum "Si O2"
_cell_formula_units_Z 44
_cell_length_a 14.790324
_cell_length_b 9.120954
_cell_length_c 12.646106
_cell_angle_alpha 90.000000
_cell_angle_beta 90.000000
_cell_angle_gamma 90.000000
_cell_volume 1705.983282
_symmetry_space_group_name_H-M "P B C N"
_symmetry_group_IT_number 60
_symmetry_cell_setting 'orthorhombic'
loop_
_space_group_symop_operation_xyz
x,y,z
1/2-x,1/2-y,1/2+z
1/2+x,1/2-y,-z
-x,y,1/2-z
-x,-y,-z
1/2+x,1/2+y,1/2-z
1/2-x,1/2+y,z
x,-y,1/2+z
loop_
_atom_site_type_symbol
_atom_site_label
_atom_site_fract_x
_atom_site_fract_y
_atom_site_fract_z
Si Si1 0.432996 0.785093 0.602684
Si Si2 0.225205 0.456538 0.517632
Si Si3 0.182247 0.930117 0.232287
Si Si4 0.851935 0.244786 0.241069
Si Si5 0.500000 0.042067 0.750000
Si Si6 0.376205 0.751828 0.004632
O O1 0.346390 0.824492 0.531192
O O2 0.400555 0.660764 0.683650
O O3 0.453214 0.934488 0.666522
O O4 0.523819 0.745798 0.541463
O O5 0.258077 0.504483 0.634742
O O6 0.174180 0.597192 0.470590
O O7 0.316224 0.387116 0.471423
O O8 0.148403 0.075721 0.290667
O O9 0.253933 0.814306 0.277638
O O10 0.926812 0.353212 0.195145
O O11 0.875210 0.249279 0.367387
#
# Coordination Sequence:
#
# PCOD9454209 Si02
#       6
#     8   8   8   8   4   8
#     4  12  22  39  66  95 128 169 216 264 326 387
#     4  10  18  38  62  93 124 161 208 260 328 366
#     4  10  18  39  65  88 124 167 202 255 323 393
#     4  10  20  38  62  89 118 167 207 255 321 381
#     4  12  24  38  58  90 122 172 216 262 320 386
#     4  10  21  38  66  92 123 168 213 263 313 387
#
# _framework density 25.791578999999999
#
# number of rings (size 3 to 8) (size 9 to 14) (size 15 to 20)
#    0.000    1.455    9.091    0.545    0.000    3.636 
#    0.000    3.636    0.000    0.000    0.000    0.000 
#    0.000    0.000    0.000    0.000    0.000    0.000 
#
# Total GULP energy -246508.856164 kJ/mol
# GULP energy per Si atom -5602.474004 kJ/mol
# Density = 2.573288 g / cm^3
# Si number density = 25.791579 Si / 1000 Ang^3
#
#
#
# Elastic Constant Matrix: (Units=GPa)
#
#
# Indices 1 2 3 4 5 6 
#
# 1 140.4657 42.9734 21.4282 0.0000 0.0000 0.0000
# 2 42.9734 141.5034 16.8635 0.0000 0.0000 0.0000
# 3 21.4282 16.8635 54.3574 0.0000 0.0000 0.0000
# 4 0.0000 0.0000 0.0000 14.9600 0.0000 0.0000
# 5 0.0000 0.0000 0.0000 0.0000 32.9837 0.0000
# 6 0.0000 0.0000 0.0000 0.0000 0.0000 58.5254
#
#
#
# Elastic Compliance Matrix: (Units=1/GPa)
#
#
# Indices 1 2 3 4 5 6 
#
# 1 0.008174 -0.002179 -0.002546 0.000000 0.000000 0.000000
# 2 -0.002179 0.007919 -0.001598 0.000000 0.000000 0.000000
# 3 -0.002546 -0.001598 0.019896 0.000000 0.000000 0.000000
# 4 0.000000 0.000000 0.000000 0.066845 0.000000 0.000000
# 5 0.000000 0.000000 0.000000 0.000000 0.030318 0.000000
# 6 0.000000 0.000000 0.000000 0.000000 0.000000 0.017087
#
#
# Mechanical properties :
#
#
# Convention : Reuss Voigt Hill
#
# Bulk Modulus (GPa) = 42.83882 55.42852 49.13367
# Shear Modulus (GPa) = 29.29692 38.29792 33.79742
#
# Velocity S-wave (km/s) = 3.37398 3.85762 3.62388
# Velocity P-wave (km/s) = 5.64128 6.43267 6.04993
#
# Compressibility (1/GPa) = 0.02334331
#
# Stress axis : x y z
#
# Youngs Moduli (GPa) = 122.33531 126.27658 50.26069
#
# Poissons Ratio (x) = 0.27516 0.12798
# Poissons Ratio (y) = 0.26657 0.08031
# Poissons Ratio (z) = 0.31151 0.20176
#
# Static dielectric constant tensor:
#      x y z
#    x 2.025180 0.000000 0.000000 
#    y 0.000000 2.000260 0.000000 
#    z 0.000000 0.000000 2.177940 
# 
# From -- ./inp_files/20431.got.cif
#   From: 2010.05.17/outbox.cif.g08.bks.cpg/sg60_11_cif.got.tgz:20431.got - 2010.06.03 14:59:27.
