data_PCOD9454741
_publ_section_title
;
Structure prediction by ZEFSAII (Michael W. Deem and Ramdas Pophale) SiO2 
 PCOD9454741
Probable space group: P B C N
;
_chemical_formula_sum "Si O2"
_cell_formula_units_Z 48
_cell_length_a 11.220508
_cell_length_b 19.584814
_cell_length_c 8.966793
_cell_angle_alpha 90.000000
_cell_angle_beta 90.000000
_cell_angle_gamma 90.000000
_cell_volume 1970.466769
_symmetry_space_group_name_H-M "P B C N"
_symmetry_group_IT_number 60
_symmetry_cell_setting 'orthorhombic'
loop_
_space_group_symop_operation_xyz
x,y,z
1/2-x,1/2-y,1/2+z
1/2+x,1/2-y,-z
-x,y,1/2-z
-x,-y,-z
1/2+x,1/2+y,1/2-z
1/2-x,1/2+y,z
x,-y,1/2+z
loop_
_atom_site_type_symbol
_atom_site_label
_atom_site_fract_x
_atom_site_fract_y
_atom_site_fract_z
Si Si1 0.170075 0.529281 0.992946
Si Si2 0.500000 0.189107 0.750000
Si Si3 0.661789 0.866445 0.513227
Si Si4 0.500000 0.401681 0.750000
Si Si5 0.000000 0.708070 0.250000
Si Si6 0.416494 0.528159 0.868529
Si Si7 0.413530 0.295117 0.970733
Si Si8 0.500000 0.992332 0.750000
O O1 0.095109 0.546062 0.141599
O O2 0.184515 0.447177 0.996532
O O3 0.296731 0.558059 0.938025
O O4 0.078760 0.538309 0.858416
O O5 0.420478 0.153646 0.625333
O O6 0.410276 0.237261 0.844025
O O7 0.595801 0.838488 0.661466
O O8 0.787809 0.829893 0.505280
O O9 0.392824 0.456951 0.774767
O O10 0.499411 0.352962 0.894725
O O11 0.951912 0.757770 0.379375
O O12 0.500000 0.568712 0.750000
O O13 0.500000 0.500000 0.000000
#
# Coordination Sequence:
#
# PCOD9454741 Si02
#       8
#     8   4   8   4   4   8   8   4
#     4  11  21  39  60  82 119 153 197 250 290 366
#     4   9  21  32  56  83 111 148 186 233 287 342
#     4  11  19  37  57  80 113 149 188 235 287 340
#     4   9  20  38  56  84 114 154 184 238 299 342
#     4  10  23  34  57  89 109 151 196 229 284 354
#     4  10  20  37  59  86 114 154 196 245 304 348
#     4  10  19  38  56  80 118 147 188 237 286 345
#     4  10  24  38  57  86 114 157 198 242 308 346
#
# _framework density 24.359711000000001
#
# number of rings (size 3 to 8) (size 9 to 14) (size 15 to 20)
#    0.500    1.333    1.667    3.000    0.000    0.000 
#    1.500    0.000    0.000    0.000    0.000    0.000 
#    0.000    0.000    0.000    0.000    0.000    0.000 
#
# Total GULP energy -268012.536845 kJ/mol
# GULP energy per Si atom -5583.594518 kJ/mol
# Density = 2.430427 g / cm^3
# Si number density = 24.359711 Si / 1000 Ang^3
#
#
#
# Elastic Constant Matrix: (Units=GPa)
#
#
# Indices 1 2 3 4 5 6 
#
# 1 153.5721 21.4600 67.4284 0.0000 0.0000 0.0000
# 2 21.4600 78.2252 35.8952 0.0000 0.0000 0.0000
# 3 67.4284 35.8952 186.1755 0.0000 0.0000 0.0000
# 4 0.0000 0.0000 0.0000 36.0966 0.0000 0.0000
# 5 0.0000 0.0000 0.0000 0.0000 30.7149 0.0000
# 6 0.0000 0.0000 0.0000 0.0000 0.0000 16.6599
#
#
#
# Elastic Compliance Matrix: (Units=1/GPa)
#
#
# Indices 1 2 3 4 5 6 
#
# 1 0.007804 -0.000926 -0.002648 0.000000 0.000000 0.000000
# 2 -0.000926 0.014134 -0.002390 0.000000 0.000000 0.000000
# 3 -0.002648 -0.002390 0.006791 0.000000 0.000000 0.000000
# 4 0.000000 0.000000 0.000000 0.027703 0.000000 0.000000
# 5 0.000000 0.000000 0.000000 0.000000 0.032557 0.000000
# 6 0.000000 0.000000 0.000000 0.000000 0.000000 0.060024
#
#
# Mechanical properties :
#
#
# Convention : Reuss Voigt Hill
#
# Bulk Modulus (GPa) = 59.51689 74.17112 66.84400
# Shear Modulus (GPa) = 30.02256 36.24022 33.13139
#
# Velocity S-wave (km/s) = 3.51446 3.86127 3.69194
# Velocity P-wave (km/s) = 6.39954 7.09884 6.75824
#
# Compressibility (1/GPa) = 0.01680195
#
# Stress axis : x y z
#
# Youngs Moduli (GPa) = 128.14739 70.75042 147.25390
#
# Poissons Ratio (x) = 0.06550 0.38989
# Poissons Ratio (y) = 0.11864 0.35191
# Poissons Ratio (z) = 0.33930 0.16908
#
# Static dielectric constant tensor:
#      x y z
#    x 1.927890 0.000000 0.000000 
#    y 0.000000 1.990880 0.000000 
#    z 0.000000 0.000000 2.035480 
# 
# From -- ./inp_files/5137.got.cif
#   From: 2010.05.17/outbox.cif.g08.bks.cpg/sg60_3_cif.got.tgz:5137.got - 2010.06.03 14:59:27.
