data_PCOD9454528
_publ_section_title
;
Structure prediction by ZEFSAII (Michael W. Deem and Ramdas Pophale) SiO2 
 PCOD9454528
Probable space group: P B C N
;
_chemical_formula_sum "Si O2"
_cell_formula_units_Z 64
_cell_length_a 15.980856
_cell_length_b 19.504981
_cell_length_c 8.663762
_cell_angle_alpha 90.000000
_cell_angle_beta 90.000000
_cell_angle_gamma 90.000000
_cell_volume 2700.549133
_symmetry_space_group_name_H-M "P B C N"
_symmetry_group_IT_number 60
_symmetry_cell_setting 'orthorhombic'
loop_
_space_group_symop_operation_xyz
x,y,z
1/2-x,1/2-y,1/2+z
1/2+x,1/2-y,-z
-x,y,1/2-z
-x,-y,-z
1/2+x,1/2+y,1/2-z
1/2-x,1/2+y,z
x,-y,1/2+z
loop_
_atom_site_type_symbol
_atom_site_label
_atom_site_fract_x
_atom_site_fract_y
_atom_site_fract_z
Si Si1 0.228985 0.622935 0.871105
Si Si2 0.920102 0.770476 0.205002
Si Si3 0.693691 0.073726 0.083303
Si Si4 0.383306 0.463863 0.843795
Si Si5 0.254562 0.719551 0.333651
Si Si6 0.866603 0.855644 0.903010
Si Si7 0.112692 0.093054 0.672806
Si Si8 0.600227 0.974147 0.270059
O O1 0.218139 0.705146 0.890885
O O2 0.290622 0.607465 0.724002
O O3 0.146123 0.579392 0.847445
O O4 0.288086 0.606051 0.016107
O O5 0.833861 0.734916 0.245798
O O6 0.927457 0.833344 0.322591
O O7 0.000000 0.725858 0.250000
O O8 0.907673 0.807985 0.037106
O O9 0.781563 0.037431 0.132798
O O10 0.724545 0.153064 0.068205
O O11 0.632722 0.049905 0.222563
O O12 0.641012 0.048328 0.934216
O O13 0.408372 0.413999 0.702251
O O14 0.413277 0.539341 0.803210
O O15 0.408731 0.438050 0.009663
O O16 0.327167 0.695029 0.222282
O O17 0.500000 0.969447 0.250000
#
# Coordination Sequence:
#
# PCOD9454528 Si02
#       8
#     8   8   8   8   8   8   8   8
#     4  10  21  38  62  91 127 170 228 274 326 396
#     4  10  23  43  63  92 133 171 211 275 342 399
#     4  11  23  41  66  91 131 172 231 271 340 393
#     4  11  18  35  64  96 119 164 220 286 313 393
#     4   9  22  39  71  91 124 172 231 278 327 401
#     4   9  21  37  65  91 123 159 226 264 327 389
#     4  10  19  34  63  90 124 163 217 266 329 387
#     4  12  26  41  61  98 143 181 214 279 346 421
#
# _framework density 23.698885000000001
#
# number of rings (size 3 to 8) (size 9 to 14) (size 15 to 20)
#    0.000    2.000    2.500    1.875    7.000    2.500 
#    2.250    3.125    0.000    0.000    0.000    0.000 
#    0.000    0.000    0.000    0.000    0.000    0.000 
#
# Total GULP energy -356625.123776 kJ/mol
# GULP energy per Si atom -5572.267559 kJ/mol
# Density = 2.364495 g / cm^3
# Si number density = 23.698885 Si / 1000 Ang^3
#
#
#
# Elastic Constant Matrix: (Units=GPa)
#
#
# Indices 1 2 3 4 5 6 
#
# 1 110.0280 3.8515 -2.2783 0.0000 0.0000 0.0000
# 2 3.8515 103.2113 26.1169 0.0000 0.0000 0.0000
# 3 -2.2783 26.1169 109.0473 0.0000 0.0000 0.0000
# 4 0.0000 0.0000 0.0000 44.5122 0.0000 0.0000
# 5 0.0000 0.0000 0.0000 0.0000 26.4178 0.0000
# 6 0.0000 0.0000 0.0000 0.0000 0.0000 1.7414
#
#
#
# Elastic Compliance Matrix: (Units=1/GPa)
#
#
# Indices 1 2 3 4 5 6 
#
# 1 0.009109 -0.000413 0.000289 0.000000 0.000000 0.000000
# 2 -0.000413 0.010333 -0.002483 0.000000 0.000000 0.000000
# 3 0.000289 -0.002483 0.009771 0.000000 0.000000 0.000000
# 4 0.000000 0.000000 0.000000 0.022466 0.000000 0.000000
# 5 0.000000 0.000000 0.000000 0.000000 0.037853 0.000000
# 6 0.000000 0.000000 0.000000 0.000000 0.000000 0.574250
#
#
# Mechanical properties :
#
#
# Convention : Reuss Voigt Hill
#
# Bulk Modulus (GPa) = 41.66927 41.96297 41.81612
# Shear Modulus (GPa) = 7.38557 34.17403 20.77980
#
# Velocity S-wave (km/s) = 1.76725 3.80150 2.96434
# Velocity P-wave (km/s) = 4.66746 6.08389 5.42213
#
# Compressibility (1/GPa) = 0.02399850
#
# Stress axis : x y z
#
# Youngs Moduli (GPa) = 109.78094 96.78047 102.34226
#
# Poissons Ratio (x) = 0.03998 -0.02960
# Poissons Ratio (y) = 0.04535 0.25415
# Poissons Ratio (z) = -0.03176 0.24034
#
# Static dielectric constant tensor:
#      x y z
#    x 2.071180 0.000000 0.000000 
#    y 0.000000 1.958950 0.000000 
#    z 0.000000 0.000000 1.956580 
# 
# From -- ./inp_files/7016.got.cif
#   From: 2010.05.17/outbox.cif.g08.bks.cpg/sg60_4_cif.got.tgz:7016.got - 2010.06.03 14:59:27.
