data_PCOD9454315
_publ_section_title
;
Structure prediction by ZEFSAII (Michael W. Deem and Ramdas Pophale) SiO2 
 PCOD9454315
Probable space group: P B C N
;
_chemical_formula_sum "Si O2"
_cell_formula_units_Z 48
_cell_length_a 15.010642
_cell_length_b 6.730352
_cell_length_c 17.949108
_cell_angle_alpha 90.000000
_cell_angle_beta 90.000000
_cell_angle_gamma 90.000000
_cell_volume 1813.342818
_symmetry_space_group_name_H-M "P B C N"
_symmetry_group_IT_number 60
_symmetry_cell_setting 'orthorhombic'
loop_
_space_group_symop_operation_xyz
x,y,z
1/2-x,1/2-y,1/2+z
1/2+x,1/2-y,-z
-x,y,1/2-z
-x,-y,-z
1/2+x,1/2+y,1/2-z
1/2-x,1/2+y,z
x,-y,1/2+z
loop_
_atom_site_type_symbol
_atom_site_label
_atom_site_fract_x
_atom_site_fract_y
_atom_site_fract_z
Si Si1 0.671385 0.792008 0.381204
Si Si2 0.142661 0.148451 0.964677
Si Si3 0.122573 0.737319 0.085222
Si Si4 0.952748 0.857466 0.180253
Si Si5 0.146938 0.609067 0.935998
Si Si6 0.897743 0.571579 0.729765
O O1 0.631286 0.638184 0.443577
O O2 0.777742 0.801753 0.392336
O O3 0.654738 0.802945 0.292691
O O4 0.629108 0.000194 0.404104
O O5 0.103258 0.055061 0.888385
O O6 0.118408 0.381123 0.949552
O O7 0.248386 0.118653 0.954677
O O8 0.041101 0.794619 0.135487
O O9 0.105043 0.758394 0.996804
O O10 0.895941 0.672394 0.217262
O O11 0.000000 0.967972 0.250000
O O12 0.128284 0.649472 0.850765
O O13 0.000000 0.598241 0.750000
#
# Coordination Sequence:
#
# PCOD9454315 Si02
#       6
#     8   8   8   8   8   8
#     4  10  20  34  56  80 108 139 179 221 271 315
#     4   9  20  35  55  77 107 141 178 221 269 318
#     4  10  20  36  55  79 108 141 179 219 270 317
#     4  10  19  33  55  80 103 138 183 221 253 316
#     4   9  20  33  55  78 106 141 176 221 270 317
#     4  10  19  31  54  82 103 132 183 224 254 307
#
# _framework density 26.47045
#
# number of rings (size 3 to 8) (size 9 to 14) (size 15 to 20)
#    0.000    2.333    3.333    0.000    4.667    2.000 
#    0.000    0.000    3.667    4.000    0.000    0.000 
#    0.000    0.000    0.000    0.000    0.000    0.000 
#
# Total GULP energy -267671.198796 kJ/mol
# GULP energy per Si atom -5576.483308 kJ/mol
# Density = 2.641020 g / cm^3
# Si number density = 26.470450 Si / 1000 Ang^3
#
#
#
# Elastic Constant Matrix: (Units=GPa)
#
#
# Indices 1 2 3 4 5 6 
#
# 1 42.1988 -10.3407 27.4202 0.0000 0.0000 0.0000
# 2 -10.3407 47.0029 4.1233 0.0000 0.0000 0.0000
# 3 27.4202 4.1233 218.5242 0.0000 0.0000 0.0000
# 4 0.0000 0.0000 0.0000 34.9851 0.0000 0.0000
# 5 0.0000 0.0000 0.0000 0.0000 69.1465 0.0000
# 6 0.0000 0.0000 0.0000 0.0000 0.0000 9.3675
#
#
#
# Elastic Compliance Matrix: (Units=1/GPa)
#
#
# Indices 1 2 3 4 5 6 
#
# 1 0.027589 0.006384 -0.003582 0.000000 0.000000 0.000000
# 2 0.006384 0.022788 -0.001231 0.000000 0.000000 0.000000
# 3 -0.003582 -0.001231 0.005049 0.000000 0.000000 0.000000
# 4 0.000000 0.000000 0.000000 0.028584 0.000000 0.000000
# 5 0.000000 0.000000 0.000000 0.000000 0.014462 0.000000
# 6 0.000000 0.000000 0.000000 0.000000 0.000000 0.106752
#
#
# Mechanical properties :
#
#
# Convention : Reuss Voigt Hill
#
# Bulk Modulus (GPa) = 17.07436 38.90349 27.98893
# Shear Modulus (GPa) = 22.56268 41.80138 32.18203
#
# Velocity S-wave (km/s) = 2.92271 3.97819 3.49057
# Velocity P-wave (km/s) = 4.22540 5.98583 5.18093
#
# Compressibility (1/GPa) = 0.05856735
#
# Stress axis : x y z
#
# Youngs Moduli (GPa) = 36.24569 43.88321 198.06328
#
# Poissons Ratio (x) = -0.28015 0.70953
# Poissons Ratio (y) = -0.23139 0.24382
# Poissons Ratio (z) = 0.12985 0.05402
#
# Static dielectric constant tensor:
#      x y z
#    x 1.378590 0.000000 0.000000 
#    y 0.000000 2.187900 0.000000 
#    z 0.000000 0.000000 2.184760 
# 
# From -- ./inp_files/16763.got.cif
#   From: 2010.05.17/outbox.cif.g08.bks.cpg/sg60_9_cif.got.tgz:16763.got - 2010.06.03 14:59:27.
