data_PCOD9454039
_publ_section_title
;
Structure prediction by ZEFSAII (Michael W. Deem and Ramdas Pophale) SiO2 
 PCOD9454039
Probable space group: P B C N
;
_chemical_formula_sum "Si O2"
_cell_formula_units_Z 48
_cell_length_a 16.077861
_cell_length_b 16.590521
_cell_length_c 8.429335
_cell_angle_alpha 90.000000
_cell_angle_beta 90.000000
_cell_angle_gamma 90.000000
_cell_volume 2248.441581
_symmetry_space_group_name_H-M "P B C N"
_symmetry_group_IT_number 60
_symmetry_cell_setting 'orthorhombic'
loop_
_space_group_symop_operation_xyz
x,y,z
1/2-x,1/2-y,1/2+z
1/2+x,1/2-y,-z
-x,y,1/2-z
-x,-y,-z
1/2+x,1/2+y,1/2-z
1/2-x,1/2+y,z
x,-y,1/2+z
loop_
_atom_site_type_symbol
_atom_site_label
_atom_site_fract_x
_atom_site_fract_y
_atom_site_fract_z
Si Si1 0.000000 0.344841 0.750000
Si Si2 0.716965 0.818997 0.049131
Si Si3 0.411514 0.453077 0.297386
Si Si4 0.000000 0.783537 0.750000
Si Si5 0.856512 0.099630 0.356757
Si Si6 0.142192 0.786619 0.192928
Si Si7 0.037720 0.374607 0.411210
O O1 0.080504 0.285256 0.746995
O O2 0.006432 0.396038 0.586963
O O3 0.770361 0.861268 0.910832
O O4 0.679936 0.738057 0.974521
O O5 0.781281 0.799813 0.187254
O O6 0.637723 0.872651 0.097435
O O7 0.500000 0.489674 0.250000
O O8 0.400457 0.428821 0.478982
O O9 0.345629 0.521014 0.250822
O O10 0.403845 0.371975 0.194392
O O11 0.081346 0.836588 0.722656
O O12 0.009786 0.720234 0.894307
O O13 0.000000 0.411901 0.250000
#
# Coordination Sequence:
#
# PCOD9454039 Si02
#       7
#     4   8   8   4   8   8   8
#     4  10  18  33  52  82 116 147 194 226 290 375
#     4  10  21  35  52  83 116 151 199 250 293 355
#     4  11  22  35  54  80 116 161 189 235 290 367
#     4  10  20  33  54  82 116 155 196 236 300 365
#     4  11  23  35  53  82 120 154 202 234 292 370
#     4  10  21  34  55  80 117 152 194 243 293 354
#     4   9  20  33  57  79 115 153 187 252 301 340
#
# _framework density 21.348117999999999
#
# number of rings (size 3 to 8) (size 9 to 14) (size 15 to 20)
#    0.500    1.333    1.667    3.500    4.667    1.333 
#    0.000    0.000    0.000    0.000    0.000    4.667 
#    5.000    0.667    0.000    0.000    0.000    0.000 
#
# Total GULP energy -267881.966934 kJ/mol
# GULP energy per Si atom -5580.874311 kJ/mol
# Density = 2.129953 g / cm^3
# Si number density = 21.348118 Si / 1000 Ang^3
#
#
#
# Elastic Constant Matrix: (Units=GPa)
#
#
# Indices 1 2 3 4 5 6 
#
# 1 99.6375 -6.3307 30.8849 0.0000 0.0000 0.0000
# 2 -6.3307 29.7948 14.3106 0.0000 0.0000 0.0000
# 3 30.8849 14.3106 97.5353 0.0000 0.0000 0.0000
# 4 0.0000 0.0000 0.0000 9.5150 0.0000 0.0000
# 5 0.0000 0.0000 0.0000 0.0000 37.8875 0.0000
# 6 0.0000 0.0000 0.0000 0.0000 0.0000 12.3113
#
#
#
# Elastic Compliance Matrix: (Units=1/GPa)
#
#
# Indices 1 2 3 4 5 6 
#
# 1 0.011683 0.004582 -0.004372 0.000000 0.000000 0.000000
# 2 0.004582 0.037904 -0.007012 0.000000 0.000000 0.000000
# 3 -0.004372 -0.007012 0.012666 0.000000 0.000000 0.000000
# 4 0.000000 0.000000 0.000000 0.105097 0.000000 0.000000
# 5 0.000000 0.000000 0.000000 0.000000 0.026394 0.000000
# 6 0.000000 0.000000 0.000000 0.000000 0.000000 0.081226
#
#
# Mechanical properties :
#
#
# Convention : Reuss Voigt Hill
#
# Bulk Modulus (GPa) = 20.55541 33.85525 27.20533
# Shear Modulus (GPa) = 16.40474 24.48296 20.44385
#
# Velocity S-wave (km/s) = 2.77508 3.39018 3.09794
# Velocity P-wave (km/s) = 4.46292 5.58727 5.05644
#
# Compressibility (1/GPa) = 0.04864900
#
# Stress axis : x y z
#
# Youngs Moduli (GPa) = 85.59748 26.38211 78.95245
#
# Poissons Ratio (x) = -0.12088 0.34515
# Poissons Ratio (y) = -0.39221 0.55364
# Poissons Ratio (z) = 0.37420 0.18500
#
# Static dielectric constant tensor:
#      x y z
#    x 1.812160 0.000000 0.000000 
#    y 0.000000 1.756460 0.000000 
#    z 0.000000 0.000000 1.817510 
# 
# From -- ./inp_files/6066.got.cif
#   From: 2010.05.17/outbox.cif.g08.bks.cpg/sg60_4_cif.got.tgz:6066.got - 2010.06.03 14:59:27.
