data_PCOD9454612
_publ_section_title
;
Structure prediction by ZEFSAII (Michael W. Deem and Ramdas Pophale) SiO2 
 PCOD9454612
Probable space group: P B C N
;
_chemical_formula_sum "Si O2"
_cell_formula_units_Z 40
_cell_length_a 9.123397
_cell_length_b 20.214376
_cell_length_c 9.092688
_cell_angle_alpha 90.000000
_cell_angle_beta 90.000000
_cell_angle_gamma 90.000000
_cell_volume 1676.907867
_symmetry_space_group_name_H-M "P B C N"
_symmetry_group_IT_number 60
_symmetry_cell_setting 'orthorhombic'
loop_
_space_group_symop_operation_xyz
x,y,z
1/2-x,1/2-y,1/2+z
1/2+x,1/2-y,-z
-x,y,1/2-z
-x,-y,-z
1/2+x,1/2+y,1/2-z
1/2-x,1/2+y,z
x,-y,1/2+z
loop_
_atom_site_type_symbol
_atom_site_label
_atom_site_fract_x
_atom_site_fract_y
_atom_site_fract_z
Si Si1 0.608662 0.416297 0.122964
Si Si2 0.151360 0.932480 0.926165
Si Si3 0.725276 0.704557 0.187294
Si Si4 0.066522 0.263866 0.048876
Si Si5 0.359471 0.903338 0.192281
O O1 0.500000 0.392292 0.250000
O O2 0.513172 0.410860 0.975929
O O3 0.762211 0.384238 0.165117
O O4 0.638813 0.494934 0.139580
O O5 0.252587 0.936654 0.072884
O O6 0.218986 0.874645 0.828941
O O7 0.684959 0.725322 0.350618
O O8 0.589639 0.732220 0.086980
O O9 0.873616 0.732834 0.116345
O O10 0.079069 0.338355 0.111585
O O11 0.500000 0.943219 0.250000
#
# Coordination Sequence:
#
# PCOD9454612 Si02
#       5
#     8   8   8   8   8
#     4   9  19  35  57  81 108 147 186 234 280 334
#     4   9  20  35  56  83 107 145 194 233 277 333
#     4  10  21  37  58  84 116 146 191 235 286 337
#     4  10  22  37  57  87 113 152 186 236 285 338
#     4  10  19  36  55  78 117 146 183 230 291 343
#
# _framework density 23.853425999999999
#
# number of rings (size 3 to 8) (size 9 to 14) (size 15 to 20)
#    0.000    2.400    2.000    0.000    5.600    1.600 
#    0.000    0.000    8.800    0.000    0.000    0.000 
#    0.000    0.000    0.000    0.000    0.000    0.000 
#
# Total GULP energy -223349.323241 kJ/mol
# GULP energy per Si atom -5583.733081 kJ/mol
# Density = 2.379913 g / cm^3
# Si number density = 23.853426 Si / 1000 Ang^3
#
#
#
# Elastic Constant Matrix: (Units=GPa)
#
#
# Indices 1 2 3 4 5 6 
#
# 1 96.4983 3.3989 22.4213 0.0000 0.0000 0.0000
# 2 3.3989 57.8955 9.0276 0.0000 0.0000 0.0000
# 3 22.4213 9.0276 47.9212 0.0000 0.0000 0.0000
# 4 0.0000 0.0000 0.0000 24.5745 0.0000 0.0000
# 5 0.0000 0.0000 0.0000 0.0000 36.4412 0.0000
# 6 0.0000 0.0000 0.0000 0.0000 0.0000 -0.4432
#
#
#
# Elastic Compliance Matrix: (Units=1/GPa)
#
#
# Indices 1 2 3 4 5 6 
#
# 1 0.011628 0.000171 -0.005473 0.000000 0.000000 0.000000
# 2 0.000171 0.017798 -0.003433 0.000000 0.000000 0.000000
# 3 -0.005473 -0.003433 0.024075 0.000000 0.000000 0.000000
# 4 0.000000 0.000000 0.000000 0.040693 0.000000 0.000000
# 5 0.000000 0.000000 0.000000 0.000000 0.027441 0.000000
# 6 0.000000 0.000000 0.000000 0.000000 0.000000 -2.256286
#
#
# Mechanical properties :
#
#
# Convention : Reuss Voigt Hill
#
# Bulk Modulus (GPa) = 27.75356 30.22339 28.98848
# Shear Modulus (GPa) = -2.37510 23.27898 10.45194
#
# Velocity S-wave (km/s) = -0.99893 3.12736 2.09553
# Velocity P-wave (km/s) = 3.21400 5.07331 4.24666
#
# Compressibility (1/GPa) = 0.03603141
#
# Stress axis : x y z
#
# Youngs Moduli (GPa) = 85.99577 56.18688 41.53708
#
# Poissons Ratio (x) = -0.00959 0.22733
# Poissons Ratio (y) = -0.01468 0.14258
# Poissons Ratio (z) = 0.47064 0.19287
#
# Static dielectric constant tensor:
#      x y z
#    x 1.948140 0.000000 0.000000 
#    y 0.000000 1.896180 0.000000 
#    z 0.000000 0.000000 1.946710 
# 
# From -- ./inp_files/9933.got.cif
#   From: 2010.05.17/outbox.cif.g08.bks.cpg/sg60_5_cif.got.tgz:9933.got - 2010.06.03 14:59:27.
