data_PCOD9454557
_publ_section_title
;
Structure prediction by ZEFSAII (Michael W. Deem and Ramdas Pophale) SiO2 
 PCOD9454557
Probable space group: P B C N
;
_chemical_formula_sum "Si O2"
_cell_formula_units_Z 52
_cell_length_a 17.394522
_cell_length_b 18.152442
_cell_length_c 7.901460
_cell_angle_alpha 90.000000
_cell_angle_beta 90.000000
_cell_angle_gamma 90.000000
_cell_volume 2494.910108
_symmetry_space_group_name_H-M "P B C N"
_symmetry_group_IT_number 60
_symmetry_cell_setting 'orthorhombic'
loop_
_space_group_symop_operation_xyz
x,y,z
1/2-x,1/2-y,1/2+z
1/2+x,1/2-y,-z
-x,y,1/2-z
-x,-y,-z
1/2+x,1/2+y,1/2-z
1/2-x,1/2+y,z
x,-y,1/2+z
loop_
_atom_site_type_symbol
_atom_site_label
_atom_site_fract_x
_atom_site_fract_y
_atom_site_fract_z
Si Si1 0.669359 0.849182 0.212162
Si Si2 0.735037 0.751358 0.517049
Si Si3 0.392679 0.358726 0.352407
Si Si4 0.042675 0.172785 0.491358
Si Si5 0.720223 0.468786 0.310059
Si Si6 0.193632 0.111889 0.338452
Si Si7 0.500000 0.801699 0.250000
O O1 0.715829 0.800587 0.352856
O O2 0.692228 0.804111 0.041668
O O3 0.704565 0.930751 0.227107
O O4 0.579625 0.845901 0.253969
O O5 0.663506 0.698209 0.554269
O O6 0.753102 0.816692 0.651399
O O7 0.416665 0.320293 0.174105
O O8 0.467444 0.374736 0.464288
O O9 0.349708 0.432117 0.294175
O O10 0.106047 0.139075 0.364575
O O11 0.010613 0.247432 0.410372
O O12 0.713222 0.437480 0.498052
O O13 0.711475 0.556211 0.311084
#
# Coordination Sequence:
#
# PCOD9454557 Si02
#       7
#     8   8   8   8   8   8   4
#     4  10  21  35  57  84 113 150 190 247 285 337
#     4  10  19  35  57  81 110 143 197 237 286 341
#     4   9  19  37  55  78 115 146 180 239 295 337
#     4  10  20  34  55  83 112 141 185 235 295 340
#     4   9  21  36  53  78 114 154 190 228 277 344
#     4  10  20  36  54  81 111 149 194 229 278 350
#     4  12  20  34  56  90 116 142 190 248 282 340
#
# _framework density 20.842434000000001
#
# number of rings (size 3 to 8) (size 9 to 14) (size 15 to 20)
#    0.000    2.154    3.077    0.923    0.000    4.308 
#    0.000    1.538    0.000    5.538    0.000    0.000 
#    0.000    0.000    0.000    0.000    0.000    0.000 
#
# Total GULP energy -290056.129296 kJ/mol
# GULP energy per Si atom -5578.002486 kJ/mol
# Density = 2.079500 g / cm^3
# Si number density = 20.842434 Si / 1000 Ang^3
#
#
#
# Elastic Constant Matrix: (Units=GPa)
#
#
# Indices 1 2 3 4 5 6 
#
# 1 128.3245 28.0657 7.5955 0.0000 0.0000 0.0000
# 2 28.0657 71.7729 6.1761 0.0000 0.0000 0.0000
# 3 7.5955 6.1761 40.4755 0.0000 0.0000 0.0000
# 4 0.0000 0.0000 0.0000 31.5668 0.0000 0.0000
# 5 0.0000 0.0000 0.0000 0.0000 22.7140 0.0000
# 6 0.0000 0.0000 0.0000 0.0000 0.0000 7.2022
#
#
#
# Elastic Compliance Matrix: (Units=1/GPa)
#
#
# Indices 1 2 3 4 5 6 
#
# 1 0.008571 -0.003256 -0.001112 0.000000 0.000000 0.000000
# 2 -0.003256 0.015355 -0.001732 0.000000 0.000000 0.000000
# 3 -0.001112 -0.001732 0.025179 0.000000 0.000000 0.000000
# 4 0.000000 0.000000 0.000000 0.031679 0.000000 0.000000
# 5 0.000000 0.000000 0.000000 0.000000 0.044026 0.000000
# 6 0.000000 0.000000 0.000000 0.000000 0.000000 0.138847
#
#
# Mechanical properties :
#
#
# Convention : Reuss Voigt Hill
#
# Bulk Modulus (GPa) = 27.09579 36.02750 31.56164
# Shear Modulus (GPa) = 17.35167 25.54562 21.44865
#
# Velocity S-wave (km/s) = 2.88847 3.50473 3.21142
# Velocity P-wave (km/s) = 4.91455 5.80523 5.37836
#
# Compressibility (1/GPa) = 0.03690611
#
# Stress axis : x y z
#
# Youngs Moduli (GPa) = 116.67797 65.12536 39.71539
#
# Poissons Ratio (x) = 0.21203 0.04415
# Poissons Ratio (y) = 0.37988 0.06879
# Poissons Ratio (z) = 0.12969 0.11280
#
# Static dielectric constant tensor:
#      x y z
#    x 1.768990 0.000000 0.000000 
#    y 0.000000 1.729780 0.000000 
#    z 0.000000 0.000000 1.878920 
# 
# From -- ./inp_files/6854.got.cif
#   From: 2010.05.17/outbox.cif.g08.bks.cpg/sg60_4_cif.got.tgz:6854.got - 2010.06.03 14:59:27.
