data_PCOD9454205
_publ_section_title
;
Structure prediction by ZEFSAII (Michael W. Deem and Ramdas Pophale) SiO2 
 PCOD9454205
Probable space group: P B C N
;
_chemical_formula_sum "Si O2"
_cell_formula_units_Z 60
_cell_length_a 16.571375
_cell_length_b 12.087387
_cell_length_c 14.890353
_cell_angle_alpha 90.000000
_cell_angle_beta 90.000000
_cell_angle_gamma 90.000000
_cell_volume 2982.606540
_symmetry_space_group_name_H-M "P B C N"
_symmetry_group_IT_number 60
_symmetry_cell_setting 'orthorhombic'
loop_
_space_group_symop_operation_xyz
x,y,z
1/2-x,1/2-y,1/2+z
1/2+x,1/2-y,-z
-x,y,1/2-z
-x,-y,-z
1/2+x,1/2+y,1/2-z
1/2-x,1/2+y,z
x,-y,1/2+z
loop_
_atom_site_type_symbol
_atom_site_label
_atom_site_fract_x
_atom_site_fract_y
_atom_site_fract_z
Si Si1 0.434695 0.223185 0.610578
Si Si2 0.066736 0.614866 0.003124
Si Si3 0.333847 0.904220 0.255754
Si Si4 0.320511 0.727796 0.418473
Si Si5 0.163263 0.000123 0.813759
Si Si6 0.500000 0.396287 0.750000
Si Si7 0.570290 0.062838 0.126663
Si Si8 0.643316 0.283516 0.069722
O O1 0.497065 0.134389 0.571560
O O2 0.365890 0.159922 0.667679
O O3 0.483956 0.311291 0.668926
O O4 0.404652 0.286052 0.522542
O O5 0.118033 0.725905 0.993296
O O6 0.107991 0.506548 0.959298
O O7 0.021276 0.591842 0.095877
O O8 0.330441 0.809225 0.332425
O O9 0.246109 0.966457 0.259734
O O10 0.402335 0.991173 0.288435
O O11 0.323491 0.604720 0.379692
O O12 0.233382 0.752457 0.456781
O O13 0.142597 0.105168 0.874511
O O14 0.082347 0.966444 0.759510
O O15 0.611414 0.182223 0.129700
#
# Coordination Sequence:
#
# PCOD9454205 Si02
#       8
#     8   8   8   8   8   4   8   8
#     4  11  21  40  63  96 118 166 228 263 308 401
#     4   9  18  33  61  91 119 153 211 267 306 373
#     4  10  20  37  65  87 120 168 213 264 319 377
#     4  10  18  38  62  87 124 174 207 254 326 392
#     4  11  22  40  63  91 130 175 211 266 334 387
#     4  12  22  42  66  92 132 170 222 262 324 400
#     4   9  17  34  56  86 118 152 202 259 312 370
#     4  10  23  38  60  90 129 163 217 262 322 393
#
# _framework density 20.116631999999999
#
# number of rings (size 3 to 8) (size 9 to 14) (size 15 to 20)
#    0.000    1.867    4.000    0.800    0.000    0.533 
#    2.400    1.333    0.000    0.000    0.000    0.000 
#    0.000    0.000    0.000    0.000    0.000    0.000 
#
# Total GULP energy -334213.276855 kJ/mol
# GULP energy per Si atom -5570.221281 kJ/mol
# Density = 2.007085 g / cm^3
# Si number density = 20.116632 Si / 1000 Ang^3
#
#
#
# Elastic Constant Matrix: (Units=GPa)
#
#
# Indices 1 2 3 4 5 6 
#
# 1 66.2122 25.2003 1.8658 0.0000 0.0000 0.0000
# 2 25.2003 114.8876 7.4505 0.0000 0.0000 0.0000
# 3 1.8658 7.4505 26.9228 0.0000 0.0000 0.0000
# 4 0.0000 0.0000 0.0000 19.1374 0.0000 0.0000
# 5 0.0000 0.0000 0.0000 0.0000 25.0382 0.0000
# 6 0.0000 0.0000 0.0000 0.0000 0.0000 36.2423
#
#
#
# Elastic Compliance Matrix: (Units=1/GPa)
#
#
# Indices 1 2 3 4 5 6 
#
# 1 0.016479 -0.003605 -0.000144 0.000000 0.000000 0.000000
# 2 -0.003605 0.009652 -0.002421 0.000000 0.000000 0.000000
# 3 -0.000144 -0.002421 0.037823 0.000000 0.000000 0.000000
# 4 0.000000 0.000000 0.000000 0.052254 0.000000 0.000000
# 5 0.000000 0.000000 0.000000 0.000000 0.039939 0.000000
# 6 0.000000 0.000000 0.000000 0.000000 0.000000 0.027592
#
#
# Mechanical properties :
#
#
# Convention : Reuss Voigt Hill
#
# Bulk Modulus (GPa) = 19.37504 30.78399 25.07951
# Shear Modulus (GPa) = 23.44279 27.65064 25.54671
#
# Velocity S-wave (km/s) = 3.41742 3.71147 3.56747
# Velocity P-wave (km/s) = 5.02234 5.80540 5.42801
#
# Compressibility (1/GPa) = 0.05161281
#
# Stress axis : x y z
#
# Youngs Moduli (GPa) = 60.68252 103.60554 26.43873
#
# Poissons Ratio (x) = 0.37353 0.00382
# Poissons Ratio (y) = 0.21878 0.06401
# Poissons Ratio (z) = 0.00876 0.25085
#
# Static dielectric constant tensor:
#      x y z
#    x 1.801550 0.000000 0.000000 
#    y 0.000000 1.749900 0.000000 
#    z 0.000000 0.000000 1.715480 
# 
# From -- ./inp_files/17457.got.cif
#   From: 2010.05.17/outbox.cif.g08.bks.cpg/sg60_9_cif.got.tgz:17457.got - 2010.06.03 14:59:27.
