data_PCOD9454962
_publ_section_title
;
Structure prediction by ZEFSAII (Michael W. Deem and Ramdas Pophale) SiO2 
 PCOD9454962
Probable space group: P B C N
;
_chemical_formula_sum "Si O2"
_cell_formula_units_Z 40
_cell_length_a 9.062698
_cell_length_b 24.720314
_cell_length_c 8.831857
_cell_angle_alpha 90.000000
_cell_angle_beta 90.000000
_cell_angle_gamma 90.000000
_cell_volume 1978.625125
_symmetry_space_group_name_H-M "P B C N"
_symmetry_group_IT_number 60
_symmetry_cell_setting 'orthorhombic'
loop_
_space_group_symop_operation_xyz
x,y,z
1/2-x,1/2-y,1/2+z
1/2+x,1/2-y,-z
-x,y,1/2-z
-x,-y,-z
1/2+x,1/2+y,1/2-z
1/2-x,1/2+y,z
x,-y,1/2+z
loop_
_atom_site_type_symbol
_atom_site_label
_atom_site_fract_x
_atom_site_fract_y
_atom_site_fract_z
Si Si1 0.656700 0.274921 0.332764
Si Si2 0.826842 0.380223 0.265174
Si Si3 0.660309 0.312751 0.680970
Si Si4 0.116796 0.952578 0.389338
Si Si5 0.331684 0.571174 0.439066
O O1 0.500000 0.285663 0.250000
O O2 0.775986 0.318510 0.275580
O O3 0.652942 0.286406 0.512257
O O4 0.716620 0.216931 0.281174
O O5 0.737256 0.406710 0.128694
O O6 0.760685 0.411565 0.411939
O O7 0.000000 0.385766 0.250000
O O8 0.500000 0.304251 0.750000
O O9 0.688206 0.377058 0.666783
O O10 0.000000 0.953641 0.250000
O O11 0.006871 0.937023 0.525240
O O12 0.201427 0.009800 0.392345
#
# Coordination Sequence:
#
# PCOD9454962 Si02
#       5
#     8   8   8   8   8
#     4  11  23  40  60  85 116 158 204 247 304 368
#     4  10  20  34  53  79 113 151 194 249 305 354
#     4  11  22  39  61  87 119 155 202 256 305 362
#     4   9  17  34  58  83 115 154 200 247 300 364
#     4   9  19  35  57  84 112 154 201 245 300 367
#
# _framework density 20.216058
#
# number of rings (size 3 to 8) (size 9 to 14) (size 15 to 20)
#    0.000    2.000    0.000    5.400    0.000    2.400 
#    0.000    1.000    0.000    0.000    0.000    0.000 
#    0.000    0.000    0.000    0.000    0.000    0.000 
#
# Total GULP energy -223135.315662 kJ/mol
# GULP energy per Si atom -5578.382892 kJ/mol
# Density = 2.017005 g / cm^3
# Si number density = 20.216058 Si / 1000 Ang^3
#
#
#
# Elastic Constant Matrix: (Units=GPa)
#
#
# Indices 1 2 3 4 5 6 
#
# 1 87.0082 22.6837 3.3449 0.0000 0.0000 0.0000
# 2 22.6837 120.2615 24.5185 0.0000 0.0000 0.0000
# 3 3.3449 24.5185 26.8781 0.0000 0.0000 0.0000
# 4 0.0000 0.0000 0.0000 -3.4515 0.0000 0.0000
# 5 0.0000 0.0000 0.0000 0.0000 19.5340 0.0000
# 6 0.0000 0.0000 0.0000 0.0000 0.0000 19.4658
#
#
#
# Elastic Compliance Matrix: (Units=1/GPa)
#
#
# Indices 1 2 3 4 5 6 
#
# 1 0.012099 -0.002426 0.000708 0.000000 0.000000 0.000000
# 2 -0.002426 0.010702 -0.009460 0.000000 0.000000 0.000000
# 3 0.000708 -0.009460 0.045747 0.000000 0.000000 0.000000
# 4 0.000000 0.000000 0.000000 -0.289727 0.000000 0.000000
# 5 0.000000 0.000000 0.000000 0.000000 0.051193 0.000000
# 6 0.000000 0.000000 0.000000 0.000000 0.000000 0.051372
#
#
# Mechanical properties :
#
#
# Convention : Reuss Voigt Hill
#
# Bulk Modulus (GPa) = 21.65011 37.24910 29.44961
# Shear Modulus (GPa) = -61.83436 19.34971 -21.24233
#
# Velocity S-wave (km/s) = -5.53653 3.09713 -3.24507
# Velocity P-wave (km/s) = 5.48983 5.59063 0.74729
#
# Compressibility (1/GPa) = 0.04618914
#
# Stress axis : x y z
#
# Youngs Moduli (GPa) = 82.65472 93.44437 21.85956
#
# Poissons Ratio (x) = 0.22672 -0.01547
# Poissons Ratio (y) = 0.20054 0.20679
# Poissons Ratio (z) = -0.05849 0.88399
#
# Static dielectric constant tensor:
#      x y z
#    x 1.659300 0.000000 0.000000 
#    y 0.000000 1.737440 0.000000 
#    z 0.000000 0.000000 1.800390 
# 
# From -- ./inp_files/3794.got.cif
#   From: 2010.05.17/outbox.cif.g08.bks.cpg/sg60_2_cif.got.tgz:3794.got - 2010.06.03 14:59:27.
