data_PCOD9454488
_publ_section_title
;
Structure prediction by ZEFSAII (Michael W. Deem and Ramdas Pophale) SiO2 
 PCOD9454488
Probable space group: P B C N
;
_chemical_formula_sum "Si O2"
_cell_formula_units_Z 48
_cell_length_a 11.277514
_cell_length_b 24.832416
_cell_length_c 7.038882
_cell_angle_alpha 90.000000
_cell_angle_beta 90.000000
_cell_angle_gamma 90.000000
_cell_volume 1971.224257
_symmetry_space_group_name_H-M "P B C N"
_symmetry_group_IT_number 60
_symmetry_cell_setting 'orthorhombic'
loop_
_space_group_symop_operation_xyz
x,y,z
1/2-x,1/2-y,1/2+z
1/2+x,1/2-y,-z
-x,y,1/2-z
-x,-y,-z
1/2+x,1/2+y,1/2-z
1/2-x,1/2+y,z
x,-y,1/2+z
loop_
_atom_site_type_symbol
_atom_site_label
_atom_site_fract_x
_atom_site_fract_y
_atom_site_fract_z
Si Si1 0.601464 0.797017 0.085693
Si Si2 0.401211 0.326731 0.970181
Si Si3 0.979492 0.593532 0.517618
Si Si4 0.260874 0.924834 0.935287
Si Si5 0.757478 0.956813 0.125559
Si Si6 0.860083 0.147920 0.591007
O O1 0.500000 0.791930 0.250000
O O2 0.542988 0.844372 0.960138
O O3 0.730687 0.824871 0.099892
O O4 0.632416 0.735687 0.037429
O O5 0.310807 0.370787 0.880738
O O6 0.544485 0.328136 0.943853
O O7 0.394790 0.343879 0.190562
O O8 0.865015 0.554521 0.510615
O O9 0.000000 0.595051 0.750000
O O10 0.097359 0.576804 0.407093
O O11 0.255677 0.934014 0.162330
O O12 0.211288 0.981010 0.858093
O O13 0.851749 0.915287 0.041059
#
# Coordination Sequence:
#
# PCOD9454488 Si02
#       6
#     8   8   8   8   8   8
#     4  10  20  35  60  82 109 146 190 235 280 341
#     4  10  21  36  56  81 112 151 184 231 282 346
#     4   8  16  32  56  80 106 147 188 229 285 336
#     4  10  19  34  57  82 112 147 191 228 285 334
#     4   9  18  35  55  79 110 150 186 234 273 335
#     4   9  21  38  56  78 112 152 185 221 295 340
#
# _framework density 24.350351
#
# number of rings (size 3 to 8) (size 9 to 14) (size 15 to 20)
#    0.000    2.667    0.000    3.500    4.667    0.667 
#    3.000    0.000    0.000    0.000    0.000    0.000 
#    0.000    0.000    0.000    0.000    0.000    0.000 
#
# Total GULP energy -267236.478888 kJ/mol
# GULP energy per Si atom -5567.426644 kJ/mol
# Density = 2.429493 g / cm^3
# Si number density = 24.350351 Si / 1000 Ang^3
#
#
#
# Elastic Constant Matrix: (Units=GPa)
#
#
# Indices 1 2 3 4 5 6 
#
# 1 37.0289 15.8788 1.2150 0.0000 0.0000 0.0000
# 2 15.8788 194.1817 -4.7261 0.0000 0.0000 0.0000
# 3 1.2150 -4.7261 49.5297 0.0000 0.0000 0.0000
# 4 0.0000 0.0000 0.0000 38.3364 0.0000 0.0000
# 5 0.0000 0.0000 0.0000 0.0000 25.9778 0.0000
# 6 0.0000 0.0000 0.0000 0.0000 0.0000 -27.5116
#
#
#
# Elastic Compliance Matrix: (Units=1/GPa)
#
#
# Indices 1 2 3 4 5 6 
#
# 1 0.028028 -0.002314 -0.000908 0.000000 0.000000 0.000000
# 2 -0.002314 0.005353 0.000568 0.000000 0.000000 0.000000
# 3 -0.000908 0.000568 0.020266 0.000000 0.000000 0.000000
# 4 0.000000 0.000000 0.000000 0.026085 0.000000 0.000000
# 5 0.000000 0.000000 0.000000 0.000000 0.038494 0.000000
# 6 0.000000 0.000000 0.000000 0.000000 0.000000 -0.036348
#
#
# Mechanical properties :
#
#
# Convention : Reuss Voigt Hill
#
# Bulk Modulus (GPa) = 20.68785 33.94174 27.31480
# Shear Modulus (GPa) = 48.40247 25.25202 36.82725
#
# Velocity S-wave (km/s) = 4.46326 3.22379 3.89317
# Velocity P-wave (km/s) = 5.92244 5.27506 5.60810
#
# Compressibility (1/GPa) = 0.04833754
#
# Stress axis : x y z
#
# Youngs Moduli (GPa) = 35.67851 186.81622 49.34288
#
# Poissons Ratio (x) = 0.43230 0.04482
# Poissons Ratio (y) = 0.08256 -0.02800
# Poissons Ratio (z) = 0.03241 -0.10602
#
# Static dielectric constant tensor:
#      x y z
#    x 1.978890 0.000000 0.000000 
#    y 0.000000 1.899570 0.000000 
#    z 0.000000 0.000000 2.069320 
# 
# From -- ./inp_files/5048.got.cif
#   From: 2010.05.17/outbox.cif.g08.bks.cpg/sg60_3_cif.got.tgz:5048.got - 2010.06.03 14:59:27.
