data_PCOD9454857
_publ_section_title
;
Structure prediction by ZEFSAII (Michael W. Deem and Ramdas Pophale) SiO2 
 PCOD9454857
Probable space group: P B C N
;
_chemical_formula_sum "Si O2"
_cell_formula_units_Z 40
_cell_length_a 17.298367
_cell_length_b 8.779000
_cell_length_c 12.300774
_cell_angle_alpha 90.000000
_cell_angle_beta 90.000000
_cell_angle_gamma 90.000000
_cell_volume 1868.024617
_symmetry_space_group_name_H-M "P B C N"
_symmetry_group_IT_number 60
_symmetry_cell_setting 'orthorhombic'
loop_
_space_group_symop_operation_xyz
x,y,z
1/2-x,1/2-y,1/2+z
1/2+x,1/2-y,-z
-x,y,1/2-z
-x,-y,-z
1/2+x,1/2+y,1/2-z
1/2-x,1/2+y,z
x,-y,1/2+z
loop_
_atom_site_type_symbol
_atom_site_label
_atom_site_fract_x
_atom_site_fract_y
_atom_site_fract_z
Si Si1 0.314801 0.514456 0.826872
Si Si2 0.522943 0.385767 0.594575
Si Si3 0.926882 0.578009 0.671213
Si Si4 0.181291 0.332372 0.924520
Si Si5 0.646089 0.294677 0.837467
O O1 0.402213 0.467954 0.856382
O O2 0.256191 0.438066 0.912020
O O3 0.309380 0.693780 0.839979
O O4 0.302322 0.430865 0.711475
O O5 0.500000 0.500000 0.500000
O O6 0.550521 0.209569 0.584102
O O7 0.441573 0.359618 0.654720
O O8 0.891764 0.433522 0.611513
O O9 0.862843 0.657292 0.750219
O O10 0.000000 0.544799 0.750000
O O11 0.170572 0.264611 0.044794
#
# Coordination Sequence:
#
# PCOD9454857 Si02
#       5
#     8   8   8   8   8
#     4  11  24  42  66  98 138 176 238 282 349 418
#     4  10  19  43  69  99 133 178 218 286 342 411
#     4   9  22  42  68 100 142 170 231 282 332 421
#     4  12  25  45  67 100 138 189 227 289 357 412
#     4  10  23  46  68  96 137 178 224 291 343 405
#
# _framework density 21.412991999999999
#
# number of rings (size 3 to 8) (size 9 to 14) (size 15 to 20)
#    0.000    1.600    2.000    4.200    0.000    8.000 
#    3.600    0.000    0.000    0.000    0.000    0.000 
#    0.000    0.000    0.000    0.000    0.000    0.000 
#
# Total GULP energy -223099.162890 kJ/mol
# GULP energy per Si atom -5577.479072 kJ/mol
# Density = 2.136426 g / cm^3
# Si number density = 21.412992 Si / 1000 Ang^3
#
#
#
# Elastic Constant Matrix: (Units=GPa)
#
#
# Indices 1 2 3 4 5 6 
#
# 1 66.3134 38.4039 28.4725 0.0000 0.0000 0.0000
# 2 38.4039 154.0656 68.0814 0.0000 0.0000 0.0000
# 3 28.4725 68.0814 103.9709 0.0000 0.0000 0.0000
# 4 0.0000 0.0000 0.0000 30.9610 0.0000 0.0000
# 5 0.0000 0.0000 0.0000 0.0000 20.4050 0.0000
# 6 0.0000 0.0000 0.0000 0.0000 0.0000 30.9405
#
#
#
# Elastic Compliance Matrix: (Units=1/GPa)
#
#
# Indices 1 2 3 4 5 6 
#
# 1 0.018198 -0.003284 -0.002833 0.000000 0.000000 0.000000
# 2 -0.003284 0.009726 -0.005470 0.000000 0.000000 0.000000
# 3 -0.002833 -0.005470 0.013975 0.000000 0.000000 0.000000
# 4 0.000000 0.000000 0.000000 0.032299 0.000000 0.000000
# 5 0.000000 0.000000 0.000000 0.000000 0.049008 0.000000
# 6 0.000000 0.000000 0.000000 0.000000 0.000000 0.032320
#
#
# Mechanical properties :
#
#
# Convention : Reuss Voigt Hill
#
# Bulk Modulus (GPa) = 53.40063 66.02951 59.71507
# Shear Modulus (GPa) = 27.03544 29.08746 28.06145
#
# Velocity S-wave (km/s) = 3.55712 3.68965 3.62399
# Velocity P-wave (km/s) = 6.47019 7.00389 6.74232
#
# Compressibility (1/GPa) = 0.01872637
#
# Stress axis : x y z
#
# Youngs Moduli (GPa) = 54.94997 102.81257 71.55430
#
# Poissons Ratio (x) = 0.33768 0.20271
# Poissons Ratio (y) = 0.18048 0.39137
# Poissons Ratio (z) = 0.15567 0.56234
#
# Static dielectric constant tensor:
#      x y z
#    x 1.792240 0.000000 0.000000 
#    y 0.000000 1.800680 0.000000 
#    z 0.000000 0.000000 2.051460 
# 
# From -- ./inp_files/12281.got.cif
#   From: 2010.05.17/outbox.cif.g08.bks.cpg/sg60_7_cif.got.tgz:12281.got - 2010.06.03 14:59:27.
