data_PCOD9454073
_publ_section_title
;
Structure prediction by ZEFSAII (Michael W. Deem and Ramdas Pophale) SiO2 
 PCOD9454073
Probable space group: P B C N
;
_chemical_formula_sum "Si O2"
_cell_formula_units_Z 56
_cell_length_a 8.427347
_cell_length_b 17.020221
_cell_length_c 17.237608
_cell_angle_alpha 90.000000
_cell_angle_beta 90.000000
_cell_angle_gamma 90.000000
_cell_volume 2472.481619
_symmetry_space_group_name_H-M "P B C N"
_symmetry_group_IT_number 60
_symmetry_cell_setting 'orthorhombic'
loop_
_space_group_symop_operation_xyz
x,y,z
1/2-x,1/2-y,1/2+z
1/2+x,1/2-y,-z
-x,y,1/2-z
-x,-y,-z
1/2+x,1/2+y,1/2-z
1/2-x,1/2+y,z
x,-y,1/2+z
loop_
_atom_site_type_symbol
_atom_site_label
_atom_site_fract_x
_atom_site_fract_y
_atom_site_fract_z
Si Si1 0.304890 0.056571 0.995444
Si Si2 0.155633 0.079597 0.395597
Si Si3 0.955371 0.343523 0.558911
Si Si4 0.644180 0.352463 0.310057
Si Si5 0.332749 0.527727 0.167741
Si Si6 0.537562 0.671941 0.526982
Si Si7 0.336301 0.182262 0.202598
O O1 0.486407 0.084990 0.004874
O O2 0.237541 0.030654 0.079781
O O3 0.208656 0.132877 0.966623
O O4 0.246653 0.992756 0.934565
O O5 0.305096 0.138378 0.385837
O O6 0.051083 0.127889 0.457714
O O7 0.022521 0.042363 0.339609
O O8 0.933318 0.263625 0.512623
O O9 0.104289 0.327164 0.614280
O O10 0.500000 0.351491 0.250000
O O11 0.713310 0.440537 0.303247
O O12 0.566410 0.343711 0.395783
O O13 0.736809 0.270325 0.292196
O O14 0.264378 0.603019 0.214208
O O15 0.500000 0.180979 0.250000
#
# Coordination Sequence:
#
# PCOD9454073 Si02
#       7
#     8   8   8   8   8   8   8
#     4  10  18  34  53  80 115 145 183 239 289 339
#     4  11  19  33  56  85 115 141 190 239 289 350
#     4  10  21  31  54  83 112 152 185 232 299 337
#     4  10  19  35  59  82 103 154 197 227 283 348
#     4  10  19  36  60  81 108 152 186 232 292 345
#     4  10  18  35  52  76 114 148 193 234 280 356
#     4   9  21  39  57  79 117 148 191 241 279 342
#
# _framework density 22.649308000000001
#
# number of rings (size 3 to 8) (size 9 to 14) (size 15 to 20)
#    0.000    2.000    2.857    2.143    0.000    2.286 
#    0.000    0.000    0.000    0.857    0.000    0.000 
#    0.000    0.000    0.000    0.000    0.000    0.000 
#
# Total GULP energy -312060.474372 kJ/mol
# GULP energy per Si atom -5572.508471 kJ/mol
# Density = 2.259776 g / cm^3
# Si number density = 22.649308 Si / 1000 Ang^3
#
#
#
# Elastic Constant Matrix: (Units=GPa)
#
#
# Indices 1 2 3 4 5 6 
#
# 1 77.2783 42.6494 -5.7248 0.0000 0.0000 0.0000
# 2 42.6494 203.3506 16.3092 0.0000 0.0000 0.0000
# 3 -5.7248 16.3092 22.8987 0.0000 0.0000 0.0000
# 4 0.0000 0.0000 0.0000 24.1422 0.0000 0.0000
# 5 0.0000 0.0000 0.0000 0.0000 18.8954 0.0000
# 6 0.0000 0.0000 0.0000 0.0000 0.0000 34.4080
#
#
#
# Elastic Compliance Matrix: (Units=1/GPa)
#
#
# Indices 1 2 3 4 5 6 
#
# 1 0.015514 -0.003781 0.006571 0.000000 0.000000 0.000000
# 2 -0.003781 0.006137 -0.005316 0.000000 0.000000 0.000000
# 3 0.006571 -0.005316 0.049100 0.000000 0.000000 0.000000
# 4 0.000000 0.000000 0.000000 0.041421 0.000000 0.000000
# 5 0.000000 0.000000 0.000000 0.000000 0.052923 0.000000
# 6 0.000000 0.000000 0.000000 0.000000 0.000000 0.029063
#
#
# Mechanical properties :
#
#
# Convention : Reuss Voigt Hill
#
# Bulk Modulus (GPa) = 15.22086 45.55500 30.38793
# Shear Modulus (GPa) = 22.61330 32.17536 27.39433
#
# Velocity S-wave (km/s) = 3.16319 3.77316 3.48156
# Velocity P-wave (km/s) = 4.48061 6.25613 5.44128
#
# Compressibility (1/GPa) = 0.06569930
#
# Stress axis : x y z
#
# Youngs Moduli (GPa) = 64.45943 162.94783 20.36663
#
# Poissons Ratio (x) = 0.61607 -0.13384
# Poissons Ratio (y) = 0.24371 0.10827
# Poissons Ratio (z) = -0.42358 0.86626
#
# Static dielectric constant tensor:
#      x y z
#    x 1.829000 0.000000 0.000000 
#    y 0.000000 1.939710 0.000000 
#    z 0.000000 0.000000 1.872720 
# 
# From -- ./inp_files/22220.got.cif
#   From: 2010.05.17/outbox.cif.g08.bks.cpg/sg60_12_cif.got.tgz:22220.got - 2010.06.03 14:59:27.
