data_PCOD9454403
_publ_section_title
;
Structure prediction by ZEFSAII (Michael W. Deem and Ramdas Pophale) SiO2 
 PCOD9454403
Probable space group: P B C N
;
_chemical_formula_sum "Si O2"
_cell_formula_units_Z 48
_cell_length_a 22.083981
_cell_length_b 16.045661
_cell_length_c 5.614432
_cell_angle_alpha 90.000000
_cell_angle_beta 90.000000
_cell_angle_gamma 90.000000
_cell_volume 1989.485616
_symmetry_space_group_name_H-M "P B C N"
_symmetry_group_IT_number 60
_symmetry_cell_setting 'orthorhombic'
loop_
_space_group_symop_operation_xyz
x,y,z
1/2-x,1/2-y,1/2+z
1/2+x,1/2-y,-z
-x,y,1/2-z
-x,-y,-z
1/2+x,1/2+y,1/2-z
1/2-x,1/2+y,z
x,-y,1/2+z
loop_
_atom_site_type_symbol
_atom_site_label
_atom_site_fract_x
_atom_site_fract_y
_atom_site_fract_z
Si Si1 0.215249 0.176254 0.126015
Si Si2 0.918905 0.274229 0.867476
Si Si3 0.921670 0.223655 0.372453
Si Si4 0.426310 0.955869 0.742593
Si Si5 0.197152 0.166164 0.627398
Si Si6 0.431195 0.529607 0.045559
O O1 0.151959 0.228917 0.119923
O O2 0.213558 0.126818 0.373981
O O3 0.267950 0.244335 0.126977
O O4 0.215049 0.126493 0.878682
O O5 0.949655 0.258667 0.613414
O O6 0.895754 0.367914 0.824879
O O7 0.872128 0.195975 0.874023
O O8 0.942437 0.268989 0.135154
O O9 0.933373 0.125426 0.378344
O O10 0.500000 0.944496 0.750000
O O11 0.411711 0.014126 0.512276
O O12 0.403747 0.484067 0.279717
O O13 0.500000 0.500000 0.000000
#
# Coordination Sequence:
#
# PCOD9454403 Si02
#       6
#     8   8   8   8   8   8
#     4   8  14  25  44  71  99 133 157 206 256 302
#     4  10  19  33  54  83 101 129 174 225 249 294
#     4  10  19  33  54  78 104 129 181 219 251 294
#     4  10  21  38  55  72 104 141 166 197 264 321
#     4   8  14  25  44  71 104 125 160 204 261 297
#     4  10  21  38  53  69 101 144 172 207 267 318
#
# _framework density 24.126837999999999
#
# number of rings (size 3 to 8) (size 9 to 14) (size 15 to 20)
#    0.000    2.667    0.000    2.000    0.000    0.000 
#    9.000    0.000    0.000    2.000    0.000    0.000 
#    0.000    0.000    0.000    0.000    0.000    0.000 
#
# Total GULP energy -267479.228174 kJ/mol
# GULP energy per Si atom -5572.483920 kJ/mol
# Density = 2.407192 g / cm^3
# Si number density = 24.126838 Si / 1000 Ang^3
#
#
#
# Elastic Constant Matrix: (Units=GPa)
#
#
# Indices 1 2 3 4 5 6 
#
# 1 37.2850 -7.9904 4.8910 0.0000 0.0000 0.0000
# 2 -7.9904 88.5198 27.4301 0.0000 0.0000 0.0000
# 3 4.8910 27.4301 286.4238 0.0000 0.0000 0.0000
# 4 0.0000 0.0000 0.0000 32.3288 0.0000 0.0000
# 5 0.0000 0.0000 0.0000 0.0000 25.2702 0.0000
# 6 0.0000 0.0000 0.0000 0.0000 0.0000 98.8189
#
#
#
# Elastic Compliance Matrix: (Units=1/GPa)
#
#
# Indices 1 2 3 4 5 6 
#
# 1 0.027496 0.002708 -0.000729 0.000000 0.000000 0.000000
# 2 0.002708 0.011909 -0.001187 0.000000 0.000000 0.000000
# 3 -0.000729 -0.001187 0.003617 0.000000 0.000000 0.000000
# 4 0.000000 0.000000 0.000000 0.030932 0.000000 0.000000
# 5 0.000000 0.000000 0.000000 0.000000 0.039572 0.000000
# 6 0.000000 0.000000 0.000000 0.000000 0.000000 0.010120
#
#
# Mechanical properties :
#
#
# Convention : Reuss Voigt Hill
#
# Bulk Modulus (GPa) = 22.41781 51.20999 36.81390
# Shear Modulus (GPa) = 36.51463 57.14343 46.82903
#
# Velocity S-wave (km/s) = 3.89452 4.87196 4.41040
# Velocity P-wave (km/s) = 5.43460 7.27457 6.42084
#
# Compressibility (1/GPa) = 0.04460740
#
# Stress axis : x y z
#
# Youngs Moduli (GPa) = 36.36846 83.96954 276.43951
#
# Poissons Ratio (x) = -0.22738 0.20148
# Poissons Ratio (y) = -0.09848 0.32806
# Poissons Ratio (z) = 0.02651 0.09965
#
# Static dielectric constant tensor:
#      x y z
#    x 1.982920 0.000000 0.000000 
#    y 0.000000 1.855450 0.000000 
#    z 0.000000 0.000000 2.082250 
# 
# From -- ./inp_files/2551.got.cif
#   From: 2010.05.17/outbox.cif.g08.bks.cpg/sg60_2_cif.got.tgz:2551.got - 2010.06.03 14:59:27.
