data_PCOD9454031
_publ_section_title
;
Structure prediction by ZEFSAII (Michael W. Deem and Ramdas Pophale) SiO2 
 PCOD9454031
Probable space group: P B C N
;
_chemical_formula_sum "Si O2"
_cell_formula_units_Z 60
_cell_length_a 12.529299
_cell_length_b 14.732200
_cell_length_c 17.305842
_cell_angle_alpha 90.000000
_cell_angle_beta 90.000000
_cell_angle_gamma 90.000000
_cell_volume 3194.383941
_symmetry_space_group_name_H-M "P B C N"
_symmetry_group_IT_number 60
_symmetry_cell_setting 'orthorhombic'
loop_
_space_group_symop_operation_xyz
x,y,z
1/2-x,1/2-y,1/2+z
1/2+x,1/2-y,-z
-x,y,1/2-z
-x,-y,-z
1/2+x,1/2+y,1/2-z
1/2-x,1/2+y,z
x,-y,1/2+z
loop_
_atom_site_type_symbol
_atom_site_label
_atom_site_fract_x
_atom_site_fract_y
_atom_site_fract_z
Si Si1 0.300167 0.109512 0.954931
Si Si2 0.267945 0.549503 0.557870
Si Si3 0.398165 0.503348 0.203544
Si Si4 0.209172 0.538119 0.320903
Si Si5 0.285828 0.314169 0.926496
Si Si6 0.492900 0.307236 0.660453
Si Si7 0.461102 0.128425 0.590408
Si Si8 0.000000 0.524564 0.750000
O O1 0.256013 0.211730 0.948627
O O2 0.430657 0.117898 0.960263
O O3 0.284040 0.049744 0.877102
O O4 0.242157 0.050966 0.021053
O O5 0.331949 0.550601 0.638389
O O6 0.317171 0.622288 0.498632
O O7 0.144369 0.579935 0.561365
O O8 0.500000 0.461631 0.250000
O O9 0.313314 0.535805 0.267495
O O10 0.444694 0.592661 0.161418
O O11 0.203979 0.625738 0.376338
O O12 0.106179 0.532194 0.266744
O O13 0.388652 0.305550 0.872591
O O14 0.500000 0.278956 0.750000
O O15 0.433878 0.233088 0.608373
O O16 0.485399 0.084335 0.673645
#
# Coordination Sequence:
#
# PCOD9454031 Si02
#       8
#     8   8   8   8   8   8   8   4
#     4   9  22  39  61  88 124 161 201 257 301 370
#     4  11  23  37  60  92 123 161 199 257 312 365
#     4  11  22  38  61  88 121 161 208 253 297 367
#     4  10  19  38  61  88 119 156 206 250 310 350
#     4  10  21  40  58  88 121 160 201 250 307 365
#     4  10  19  35  62  87 113 162 215 246 281 368
#     4  10  19  35  61  89 116 156 208 251 305 349
#     4  10  18  32  62  88 114 152 196 260 300 344
#
# _framework density 18.782965999999998
#
# number of rings (size 3 to 8) (size 9 to 14) (size 15 to 20)
#    0.000    1.867    4.667    0.400    1.867    0.533 
#    0.000    0.000    1.467    0.000    0.000    0.000 
#    0.000    0.000    0.000    0.000    0.000    0.000 
#
# Total GULP energy -334276.145027 kJ/mol
# GULP energy per Si atom -5571.269084 kJ/mol
# Density = 1.874021 g / cm^3
# Si number density = 18.782966 Si / 1000 Ang^3
#
#
#
# Elastic Constant Matrix: (Units=GPa)
#
#
# Indices 1 2 3 4 5 6 
#
# 1 47.5643 6.4849 15.3978 0.0000 0.0000 0.0000
# 2 6.4849 90.6809 16.9233 0.0000 0.0000 0.0000
# 3 15.3978 16.9233 67.1604 0.0000 0.0000 0.0000
# 4 0.0000 0.0000 0.0000 31.4789 0.0000 0.0000
# 5 0.0000 0.0000 0.0000 0.0000 28.8274 0.0000
# 6 0.0000 0.0000 0.0000 0.0000 0.0000 14.1311
#
#
#
# Elastic Compliance Matrix: (Units=1/GPa)
#
#
# Indices 1 2 3 4 5 6 
#
# 1 0.022750 -0.000686 -0.005043 0.000000 0.000000 0.000000
# 2 -0.000686 0.011593 -0.002764 0.000000 0.000000 0.000000
# 3 -0.005043 -0.002764 0.016742 0.000000 0.000000 0.000000
# 4 0.000000 0.000000 0.000000 0.031767 0.000000 0.000000
# 5 0.000000 0.000000 0.000000 0.000000 0.034689 0.000000
# 6 0.000000 0.000000 0.000000 0.000000 0.000000 0.070766
#
#
# Mechanical properties :
#
#
# Convention : Reuss Voigt Hill
#
# Bulk Modulus (GPa) = 29.32583 31.44638 30.38610
# Shear Modulus (GPa) = 23.07765 25.99412 24.53589
#
# Velocity S-wave (km/s) = 3.50901 3.72414 3.61818
# Velocity P-wave (km/s) = 5.66255 5.93891 5.80237
#
# Compressibility (1/GPa) = 0.03409963
#
# Stress axis : x y z
#
# Youngs Moduli (GPa) = 43.95554 86.26243 59.72853
#
# Poissons Ratio (x) = 0.05916 0.30122
# Poissons Ratio (y) = 0.03014 0.16508
# Poissons Ratio (z) = 0.22167 0.23842
#
# Static dielectric constant tensor:
#      x y z
#    x 1.670510 0.000000 0.000000 
#    y 0.000000 1.688880 0.000000 
#    z 0.000000 0.000000 1.658880 
# 
# From -- ./inp_files/20152.got.cif
#   From: 2010.05.17/outbox.cif.g08.bks.cpg/sg60_11_cif.got.tgz:20152.got - 2010.06.03 14:59:27.
