data_PCOD9454884
_publ_section_title
;
Structure prediction by ZEFSAII (Michael W. Deem and Ramdas Pophale) SiO2 
 PCOD9454884
Probable space group: P B C N
;
_chemical_formula_sum "Si O2"
_cell_formula_units_Z 48
_cell_length_a 7.730661
_cell_length_b 21.272999
_cell_length_c 16.731231
_cell_angle_alpha 90.000000
_cell_angle_beta 90.000000
_cell_angle_gamma 90.000000
_cell_volume 2751.523614
_symmetry_space_group_name_H-M "P B C N"
_symmetry_group_IT_number 60
_symmetry_cell_setting 'orthorhombic'
loop_
_space_group_symop_operation_xyz
x,y,z
1/2-x,1/2-y,1/2+z
1/2+x,1/2-y,-z
-x,y,1/2-z
-x,-y,-z
1/2+x,1/2+y,1/2-z
1/2-x,1/2+y,z
x,-y,1/2+z
loop_
_atom_site_type_symbol
_atom_site_label
_atom_site_fract_x
_atom_site_fract_y
_atom_site_fract_z
Si Si1 0.059622 0.428525 0.001061
Si Si2 0.771295 0.728960 0.382041
Si Si3 0.768140 0.336438 0.057194
Si Si4 0.114430 0.210448 0.369489
Si Si5 0.619142 0.644594 0.954563
Si Si6 0.933774 0.362954 0.670990
O O1 0.059316 0.403138 0.909814
O O2 0.249352 0.413274 0.036795
O O3 0.000000 0.500000 0.000000
O O4 0.921623 0.386424 0.049934
O O5 0.763804 0.698521 0.470957
O O6 0.584340 0.716180 0.344194
O O7 0.804835 0.802591 0.395133
O O8 0.931999 0.694740 0.341097
O O9 0.808601 0.280499 0.119102
O O10 0.579757 0.367091 0.068473
O O11 0.116539 0.178418 0.458148
O O12 0.243773 0.166591 0.320560
O O13 0.000000 0.397638 0.750000
#
# Coordination Sequence:
#
# PCOD9454884 Si02
#       6
#     8   8   8   8   8   8
#     4  10  20  32  48  72 100 135 178 207 235 290
#     4   9  15  26  47  73  97 121 150 193 256 303
#     4   9  15  26  47  73  97 120 154 205 248 284
#     4   9  15  26  47  73  97 121 150 193 256 303
#     4   9  15  26  47  73  97 120 154 205 248 284
#     4  10  20  32  48  72 101 127 158 209 262 304
#
# _framework density 17.444880000000001
#
# number of rings (size 3 to 8) (size 9 to 14) (size 15 to 20)
#    0.000    2.667    3.333    0.000    0.000    1.333 
#    0.000    0.000    0.000    2.000    0.000    0.000 
#    0.000    0.000    0.000    0.000    0.000    0.000 
#
# Total GULP energy -267357.162475 kJ/mol
# GULP energy per Si atom -5569.940885 kJ/mol
# Density = 1.740517 g / cm^3
# Si number density = 17.444880 Si / 1000 Ang^3
#
#
#
# Elastic Constant Matrix: (Units=GPa)
#
#
# Indices 1 2 3 4 5 6 
#
# 1 106.9801 8.0568 4.7219 0.0000 0.0000 0.0000
# 2 8.0568 56.0208 -1.1791 0.0000 0.0000 0.0000
# 3 4.7219 -1.1791 24.9485 0.0000 0.0000 0.0000
# 4 0.0000 0.0000 0.0000 5.1890 0.0000 0.0000
# 5 0.0000 0.0000 0.0000 0.0000 17.8801 0.0000
# 6 0.0000 0.0000 0.0000 0.0000 0.0000 16.6028
#
#
#
# Elastic Compliance Matrix: (Units=1/GPa)
#
#
# Indices 1 2 3 4 5 6 
#
# 1 0.009536 -0.001411 -0.001872 0.000000 0.000000 0.000000
# 2 -0.001411 0.018077 0.001121 0.000000 0.000000 0.000000
# 3 -0.001872 0.001121 0.040490 0.000000 0.000000 0.000000
# 4 0.000000 0.000000 0.000000 0.192716 0.000000 0.000000
# 5 0.000000 0.000000 0.000000 0.000000 0.055928 0.000000
# 6 0.000000 0.000000 0.000000 0.000000 0.000000 0.060231
#
#
# Mechanical properties :
#
#
# Convention : Reuss Voigt Hill
#
# Bulk Modulus (GPa) = 15.67868 23.46096 19.56982
# Shear Modulus (GPa) = 12.42050 19.69103 16.05576
#
# Velocity S-wave (km/s) = 2.67120 3.36334 3.03705
# Velocity P-wave (km/s) = 4.30358 5.34421 4.85188
#
# Compressibility (1/GPa) = 0.06378088
#
# Stress axis : x y z
#
# Youngs Moduli (GPa) = 104.86138 55.31885 24.69763
#
# Poissons Ratio (x) = 0.07805 0.04622
# Poissons Ratio (y) = 0.14795 -0.02769
# Poissons Ratio (z) = 0.19626 -0.06203
#
# Static dielectric constant tensor:
#      x y z
#    x 1.623210 0.000000 0.000000 
#    y 0.000000 1.554280 0.000000 
#    z 0.000000 0.000000 1.635800 
# 
# From -- ./inp_files/19604.got.cif
#   From: 2010.05.17/outbox.cif.g08.bks.cpg/sg60_10_cif.got.tgz:19604.got - 2010.06.03 14:59:27.
