data_PCOD9454959
_publ_section_title
;
Structure prediction by ZEFSAII (Michael W. Deem and Ramdas Pophale) SiO2 
 PCOD9454959
Probable space group: P B C N
;
_chemical_formula_sum "Si O2"
_cell_formula_units_Z 64
_cell_length_a 15.499466
_cell_length_b 23.572469
_cell_length_c 9.024216
_cell_angle_alpha 90.000000
_cell_angle_beta 90.000000
_cell_angle_gamma 90.000000
_cell_volume 3297.093710
_symmetry_space_group_name_H-M "P B C N"
_symmetry_group_IT_number 60
_symmetry_cell_setting 'orthorhombic'
loop_
_space_group_symop_operation_xyz
x,y,z
1/2-x,1/2-y,1/2+z
1/2+x,1/2-y,-z
-x,y,1/2-z
-x,-y,-z
1/2+x,1/2+y,1/2-z
1/2-x,1/2+y,z
x,-y,1/2+z
loop_
_atom_site_type_symbol
_atom_site_label
_atom_site_fract_x
_atom_site_fract_y
_atom_site_fract_z
Si Si1 0.255132 0.085117 0.789278
Si Si2 0.596502 0.331323 0.205270
Si Si3 0.659167 0.777988 0.892808
Si Si4 0.579171 0.039698 0.161246
Si Si5 0.079943 0.665733 0.346852
Si Si6 0.904560 0.318488 0.194422
Si Si7 0.806341 0.484092 0.925170
Si Si8 0.143385 0.759000 0.561174
O O1 0.167018 0.119900 0.776455
O O2 0.334522 0.130836 0.782296
O O3 0.264124 0.039422 0.654787
O O4 0.256970 0.053318 0.950818
O O5 0.500000 0.347399 0.250000
O O6 0.626933 0.278807 0.310073
O O7 0.599918 0.308537 0.035149
O O8 0.659498 0.825930 0.765995
O O9 0.599146 0.802271 0.021912
O O10 0.754547 0.767603 0.954765
O O11 0.500000 0.013046 0.250000
O O12 0.555253 0.102544 0.110674
O O13 0.655026 0.047227 0.282308
O O14 0.613338 0.004530 0.025171
O O15 0.108172 0.702247 0.484079
O O16 0.000000 0.689104 0.250000
O O17 0.877266 0.258365 0.271299
O O18 0.000000 0.334331 0.250000
#
# Coordination Sequence:
#
# PCOD9454959 Si02
#       8
#     8   8   8   8   8   8   8   8
#     4  11  23  43  59  88 112 159 202 250 301 340
#     4  11  23  42  64  85 119 159 197 239 295 352
#     4  11  20  36  56  88 122 152 190 229 279 349
#     4  10  20  34  56  82 114 157 193 228 287 354
#     4  10  20  34  52  78 114 156 190 219 275 349
#     4  12  22  35  59  93 129 155 186 230 286 355
#     4  10  23  38  57  80 118 148 200 260 290 332
#     4  11  20  36  56  88 122 152 190 229 279 349
#
# _framework density 19.411034000000001
#
# number of rings (size 3 to 8) (size 9 to 14) (size 15 to 20)
#    0.000    1.250    2.500    5.625    0.000    5.000 
#    0.000    0.625    0.000    0.000    0.000    0.000 
#    0.000    0.000    0.000    0.000    0.000    0.000 
#
# Total GULP energy -356838.100219 kJ/mol
# GULP energy per Si atom -5575.595316 kJ/mol
# Density = 1.936685 g / cm^3
# Si number density = 19.411034 Si / 1000 Ang^3
#
#
#
# Elastic Constant Matrix: (Units=GPa)
#
#
# Indices 1 2 3 4 5 6 
#
# 1 104.5318 40.1670 21.0939 0.0000 0.0000 0.0000
# 2 40.1670 75.3176 16.5521 0.0000 0.0000 0.0000
# 3 21.0939 16.5521 61.6707 0.0000 0.0000 0.0000
# 4 0.0000 0.0000 0.0000 16.3521 0.0000 0.0000
# 5 0.0000 0.0000 0.0000 0.0000 25.9817 0.0000
# 6 0.0000 0.0000 0.0000 0.0000 0.0000 20.7480
#
#
#
# Elastic Compliance Matrix: (Units=1/GPa)
#
#
# Indices 1 2 3 4 5 6 
#
# 1 0.012420 -0.006046 -0.002625 0.000000 0.000000 0.000000
# 2 -0.006046 0.017053 -0.002509 0.000000 0.000000 0.000000
# 3 -0.002625 -0.002509 0.017786 0.000000 0.000000 0.000000
# 4 0.000000 0.000000 0.000000 0.061154 0.000000 0.000000
# 5 0.000000 0.000000 0.000000 0.000000 0.038489 0.000000
# 6 0.000000 0.000000 0.000000 0.000000 0.000000 0.048197
#
#
# Mechanical properties :
#
#
# Convention : Reuss Voigt Hill
#
# Bulk Modulus (GPa) = 40.16359 44.12735 42.14547
# Shear Modulus (GPa) = 22.14743 23.53016 22.83879
#
# Velocity S-wave (km/s) = 3.38149 3.48545 3.43386
# Velocity P-wave (km/s) = 5.99850 6.24342 6.12219
#
# Compressibility (1/GPa) = 0.02489817
#
# Stress axis : x y z
#
# Youngs Moduli (GPa) = 80.51782 58.64049 56.22264
#
# Poissons Ratio (x) = 0.35457 0.14759
# Poissons Ratio (y) = 0.48685 0.14105
# Poissons Ratio (z) = 0.21137 0.14712
#
# Static dielectric constant tensor:
#      x y z
#    x 1.700870 0.000000 0.000000 
#    y 0.000000 1.696610 0.000000 
#    z 0.000000 0.000000 1.721800 
# 
# From -- ./inp_files/6291.got.cif
#   From: 2010.05.17/outbox.cif.g08.bks.cpg/sg60_4_cif.got.tgz:6291.got - 2010.06.03 14:59:27.
