data_PCOD9454276
_publ_section_title
;
Structure prediction by ZEFSAII (Michael W. Deem and Ramdas Pophale) SiO2 
 PCOD9454276
Probable space group: P B C N
;
_chemical_formula_sum "Si O2"
_cell_formula_units_Z 40
_cell_length_a 14.399652
_cell_length_b 33.898612
_cell_length_c 5.200891
_cell_angle_alpha 90.000000
_cell_angle_beta 90.000000
_cell_angle_gamma 90.000000
_cell_volume 2538.701646
_symmetry_space_group_name_H-M "P B C N"
_symmetry_group_IT_number 60
_symmetry_cell_setting 'orthorhombic'
loop_
_space_group_symop_operation_xyz
x,y,z
1/2-x,1/2-y,1/2+z
1/2+x,1/2-y,-z
-x,y,1/2-z
-x,-y,-z
1/2+x,1/2+y,1/2-z
1/2-x,1/2+y,z
x,-y,1/2+z
loop_
_atom_site_type_symbol
_atom_site_label
_atom_site_fract_x
_atom_site_fract_y
_atom_site_fract_z
Si Si1 0.894493 0.984010 0.550884
Si Si2 0.710637 0.773548 0.279735
Si Si3 0.672737 0.649898 0.708967
Si Si4 0.109371 0.893440 0.779283
Si Si5 0.000000 0.795290 0.250000
Si Si6 0.500000 0.755320 0.250000
O O1 0.892158 0.939917 0.656922
O O2 0.851074 0.988371 0.269680
O O3 0.000000 0.000000 0.500000
O O4 0.755055 0.753575 0.537408
O O5 0.745394 0.818226 0.229840
O O6 0.598970 0.775368 0.308995
O O7 0.666028 0.618951 0.474949
O O8 0.584571 0.677932 0.665005
O O9 0.654172 0.628447 0.978235
O O10 0.000000 0.882235 0.750000
O O11 0.975775 0.769847 0.497513
#
# Coordination Sequence:
#
# PCOD9454276 Si02
#       6
#     8   8   8   8   4   4
#     4  10  19  30  47  67  96 135 183 192 231 306
#     4  12  23  37  56  74  99 135 180 228 270 320
#     4  12  23  32  47  75 102 129 173 221 263 299
#     4  12  21  31  48  71 102 138 169 207 251 301
#     4  12  20  32  54  72  94 133 170 221 268 310
#     4  12  22  38  54  72  94 133 178 223 270 310
#
# _framework density 15.756087000000001
#
# number of rings (size 3 to 8) (size 9 to 14) (size 15 to 20)
#    0.000    0.400    8.000    3.600    2.800    0.000 
#    0.000    0.000    0.000    0.000    0.000    0.000 
#    0.000    0.000    0.000   18.000    0.000    0.000 
#
# Total GULP energy -222928.473349 kJ/mol
# GULP energy per Si atom -5573.211834 kJ/mol
# Density = 1.572023 g / cm^3
# Si number density = 15.756087 Si / 1000 Ang^3
#
#
#
# Elastic Constant Matrix: (Units=GPa)
#
#
# Indices 1 2 3 4 5 6 
#
# 1 74.9749 31.0208 5.8886 0.0000 0.0000 0.0000
# 2 31.0208 93.5867 37.5482 0.0000 0.0000 0.0000
# 3 5.8886 37.5482 131.4810 0.0000 0.0000 0.0000
# 4 0.0000 0.0000 0.0000 34.6201 0.0000 0.0000
# 5 0.0000 0.0000 0.0000 0.0000 9.1903 0.0000
# 6 0.0000 0.0000 0.0000 0.0000 0.0000 30.8485
#
#
#
# Elastic Compliance Matrix: (Units=1/GPa)
#
#
# Indices 1 2 3 4 5 6 
#
# 1 0.015546 -0.005504 0.000876 0.000000 0.000000 0.000000
# 2 -0.005504 0.014017 -0.003756 0.000000 0.000000 0.000000
# 3 0.000876 -0.003756 0.008639 0.000000 0.000000 0.000000
# 4 0.000000 0.000000 0.000000 0.028885 0.000000 0.000000
# 5 0.000000 0.000000 0.000000 0.000000 0.108811 0.000000
# 6 0.000000 0.000000 0.000000 0.000000 0.000000 0.032416
#
#
# Mechanical properties :
#
#
# Convention : Reuss Voigt Hill
#
# Bulk Modulus (GPa) = 46.65871 49.88421 48.27146
# Shear Modulus (GPa) = 21.53044 29.97077 25.75060
#
# Velocity S-wave (km/s) = 3.70061 4.36612 4.04707
# Velocity P-wave (km/s) = 6.92364 7.55952 7.24856
#
# Compressibility (1/GPa) = 0.02143222
#
# Stress axis : x y z
#
# Youngs Moduli (GPa) = 64.32321 71.34224 115.75152
#
# Poissons Ratio (x) = 0.39270 -0.10136
# Poissons Ratio (y) = 0.35406 0.43481
# Poissons Ratio (z) = -0.05633 0.26799
#
# Static dielectric constant tensor:
#      x y z
#    x 1.559500 0.000000 0.000000 
#    y 0.000000 1.547880 0.000000 
#    z 0.000000 0.000000 1.619220 
# 
# From -- ./inp_files/1264.got.cif
#   From: 2010.05.17/outbox.cif.g08.bks.cpg/sg60_1_cif.got.tgz:1264.got - 2010.06.03 14:59:27.
