data_PCOD9454303
_publ_section_title
;
Structure prediction by ZEFSAII (Michael W. Deem and Ramdas Pophale) SiO2 
 PCOD9454303
Probable space group: P B C N
;
_chemical_formula_sum "Si O2"
_cell_formula_units_Z 48
_cell_length_a 17.876194
_cell_length_b 8.699878
_cell_length_c 15.154362
_cell_angle_alpha 90.000000
_cell_angle_beta 90.000000
_cell_angle_gamma 90.000000
_cell_volume 2356.817091
_symmetry_space_group_name_H-M "P B C N"
_symmetry_group_IT_number 60
_symmetry_cell_setting 'orthorhombic'
loop_
_space_group_symop_operation_xyz
x,y,z
1/2-x,1/2-y,1/2+z
1/2+x,1/2-y,-z
-x,y,1/2-z
-x,-y,-z
1/2+x,1/2+y,1/2-z
1/2-x,1/2+y,z
x,-y,1/2+z
loop_
_atom_site_type_symbol
_atom_site_label
_atom_site_fract_x
_atom_site_fract_y
_atom_site_fract_z
Si Si1 0.142129 0.771098 0.847791
Si Si2 0.851016 0.687359 0.838122
Si Si3 0.411787 0.314126 0.489495
Si Si4 0.574430 0.325075 0.471799
Si Si5 0.770554 0.068349 0.585619
Si Si6 0.293296 0.877653 0.604906
O O1 0.111637 0.753790 0.749805
O O2 0.201884 0.635307 0.860735
O O3 0.190829 0.923418 0.868909
O O4 0.082271 0.771095 0.926253
O O5 0.899431 0.707507 0.926369
O O6 0.775867 0.787831 0.852983
O O7 0.826202 0.510899 0.834577
O O8 0.490524 0.287251 0.441962
O O9 0.414909 0.490635 0.526099
O O10 0.338332 0.309896 0.428593
O O11 0.641234 0.241124 0.421243
O O12 0.738222 0.045003 0.486159
#
# Coordination Sequence:
#
# PCOD9454303 Si02
#       6
#     8   8   8   8   8   8
#     4  10  19  31  50  76 102 129 163 212 256 295
#     4  11  20  31  51  77 103 130 166 214 261 297
#     4   9  18  34  54  75  99 134 173 206 248 305
#     4   9  19  35  54  74 101 135 173 207 247 307
#     4   9  17  32  51  72  99 133 171 202 244 301
#     4  10  19  33  52  75 102 136 174 209 248 305
#
# _framework density 20.366451000000001
#
# number of rings (size 3 to 8) (size 9 to 14) (size 15 to 20)
#    0.000    2.333    0.000    6.000    0.000    1.333 
#    0.000    0.000    0.000    5.000    0.000    0.000 
#    0.000    0.000    0.000    0.000    0.000    0.000 
#
# Total GULP energy -267824.133061 kJ/mol
# GULP energy per Si atom -5579.669439 kJ/mol
# Density = 2.032010 g / cm^3
# Si number density = 20.366451 Si / 1000 Ang^3
#
#
#
# Elastic Constant Matrix: (Units=GPa)
#
#
# Indices 1 2 3 4 5 6 
#
# 1 61.5923 -7.5872 -13.7632 0.0000 0.0000 0.0000
# 2 -7.5872 35.4071 -7.4521 0.0000 0.0000 0.0000
# 3 -13.7632 -7.4521 30.6024 0.0000 0.0000 0.0000
# 4 0.0000 0.0000 0.0000 -29.3427 0.0000 0.0000
# 5 0.0000 0.0000 0.0000 0.0000 6.5492 0.0000
# 6 0.0000 0.0000 0.0000 0.0000 0.0000 15.5786
#
#
#
# Elastic Compliance Matrix: (Units=1/GPa)
#
#
# Indices 1 2 3 4 5 6 
#
# 1 0.019290 0.006281 0.010205 0.000000 0.000000 0.000000
# 2 0.006281 0.031814 0.010572 0.000000 0.000000 0.000000
# 3 0.010205 0.010572 0.039841 0.000000 0.000000 0.000000
# 4 0.000000 0.000000 0.000000 -0.034080 0.000000 0.000000
# 5 0.000000 0.000000 0.000000 0.000000 0.152690 0.000000
# 6 0.000000 0.000000 0.000000 0.000000 0.000000 0.064190
#
#
# Mechanical properties :
#
#
# Convention : Reuss Voigt Hill
#
# Bulk Modulus (GPa) = 6.89359 7.77744 7.33551
# Shear Modulus (GPa) = 18.65792 8.98398 13.82095
#
# Velocity S-wave (km/s) = 3.03002 2.10256 2.60785
# Velocity P-wave (km/s) = 3.95392 3.11791 3.56053
#
# Compressibility (1/GPa) = 0.14506239
#
# Stress axis : x y z
#
# Youngs Moduli (GPa) = 51.84045 31.43266 25.09961
#
# Poissons Ratio (x) = -0.19744 -0.25614
# Poissons Ratio (y) = -0.32563 -0.26536
# Poissons Ratio (z) = -0.52904 -0.33231
#
# Static dielectric constant tensor:
#      x y z
#    x 1.716090 0.000000 0.000000 
#    y 0.000000 1.743000 0.000000 
#    z 0.000000 0.000000 1.753270 
# 
# From -- ./inp_files/17314.got.cif
#   From: 2010.05.17/outbox.cif.g08.bks.cpg/sg60_9_cif.got.tgz:17314.got - 2010.06.03 14:59:27.
