data_PCOD9454056
_publ_section_title
;
Structure prediction by ZEFSAII (Michael W. Deem and Ramdas Pophale) SiO2 
 PCOD9454056
Probable space group: P B C N
;
_chemical_formula_sum "Si O2"
_cell_formula_units_Z 64
_cell_length_a 12.135638
_cell_length_b 13.351662
_cell_length_c 22.781182
_cell_angle_alpha 90.000000
_cell_angle_beta 90.000000
_cell_angle_gamma 90.000000
_cell_volume 3691.256259
_symmetry_space_group_name_H-M "P B C N"
_symmetry_group_IT_number 60
_symmetry_cell_setting 'orthorhombic'
loop_
_space_group_symop_operation_xyz
x,y,z
1/2-x,1/2-y,1/2+z
1/2+x,1/2-y,-z
-x,y,1/2-z
-x,-y,-z
1/2+x,1/2+y,1/2-z
1/2-x,1/2+y,z
x,-y,1/2+z
loop_
_atom_site_type_symbol
_atom_site_label
_atom_site_fract_x
_atom_site_fract_y
_atom_site_fract_z
Si Si1 0.922440 0.278284 0.455021
Si Si2 0.604103 0.014242 0.668136
Si Si3 0.145157 0.540467 0.202819
Si Si4 0.128536 0.671691 0.412290
Si Si5 0.248665 0.087773 0.606978
Si Si6 0.165224 0.686061 0.914045
Si Si7 0.747160 0.601727 0.467259
Si Si8 0.894000 0.719184 0.373817
O O1 0.902900 0.326311 0.519117
O O2 0.858633 0.350366 0.409747
O O3 0.858885 0.172334 0.456470
O O4 0.049895 0.271213 0.438611
O O5 0.474166 0.002447 0.682363
O O6 0.660368 0.980878 0.728851
O O7 0.632085 0.936994 0.616392
O O8 0.638229 0.122016 0.643793
O O9 0.232664 0.481657 0.163380
O O10 0.140447 0.657383 0.184393
O O11 0.242565 0.730007 0.404244
O O12 0.025024 0.723891 0.379959
O O13 0.158272 0.172266 0.618386
O O14 0.226034 0.011014 0.553688
O O15 0.214383 0.616194 0.966105
O O16 0.843397 0.649094 0.425889
#
# Coordination Sequence:
#
# PCOD9454056 Si02
#       8
#     8   8   8   8   8   8   8   8
#     4  10  19  33  53  79 110 137 177 213 267 322
#     4  10  20  35  53  77 104 136 181 223 262 313
#     4   9  19  34  55  78 100 132 185 228 254 310
#     4  10  21  35  51  78 111 141 171 215 270 322
#     4  10  18  33  57  78 102 139 176 221 263 312
#     4  11  20  34  54  79 110 145 170 218 271 319
#     4   9  19  32  52  82 107 137 178 217 260 319
#     4   9  18  34  54  77 105 139 176 219 265 314
#
# _framework density 17.338270000000001
#
# number of rings (size 3 to 8) (size 9 to 14) (size 15 to 20)
#    0.000    2.250    2.500    0.750    0.000    2.000 
#    2.250    1.250    0.000    0.000    0.000    0.000 
#    0.000    0.000    0.000    0.000    0.000    0.000 
#
# Total GULP energy -356787.437414 kJ/mol
# GULP energy per Si atom -5574.803710 kJ/mol
# Density = 1.729881 g / cm^3
# Si number density = 17.338270 Si / 1000 Ang^3
#
#
#
# Elastic Constant Matrix: (Units=GPa)
#
#
# Indices 1 2 3 4 5 6 
#
# 1 93.0299 41.5415 16.7576 0.0000 0.0000 0.0000
# 2 41.5415 63.1804 11.8276 0.0000 0.0000 0.0000
# 3 16.7576 11.8276 32.3858 0.0000 0.0000 0.0000
# 4 0.0000 0.0000 0.0000 17.9421 0.0000 0.0000
# 5 0.0000 0.0000 0.0000 0.0000 15.5327 0.0000
# 6 0.0000 0.0000 0.0000 0.0000 0.0000 15.2857
#
#
#
# Elastic Compliance Matrix: (Units=1/GPa)
#
#
# Indices 1 2 3 4 5 6 
#
# 1 0.015862 -0.009546 -0.004722 0.000000 0.000000 0.000000
# 2 -0.009546 0.022734 -0.003363 0.000000 0.000000 0.000000
# 3 -0.004722 -0.003363 0.034549 0.000000 0.000000 0.000000
# 4 0.000000 0.000000 0.000000 0.055735 0.000000 0.000000
# 5 0.000000 0.000000 0.000000 0.000000 0.064380 0.000000
# 6 0.000000 0.000000 0.000000 0.000000 0.000000 0.065421
#
#
# Mechanical properties :
#
#
# Convention : Reuss Voigt Hill
#
# Bulk Modulus (GPa) = 26.39632 36.53885 31.46759
# Shear Modulus (GPa) = 16.30951 17.65006 16.97979
#
# Velocity S-wave (km/s) = 3.07035 3.19405 3.13281
# Velocity P-wave (km/s) = 5.27511 5.89257 5.59237
#
# Compressibility (1/GPa) = 0.03788407
#
# Stress axis : x y z
#
# Youngs Moduli (GPa) = 63.04282 43.98773 28.94429
#
# Poissons Ratio (x) = 0.41989 0.13666
# Poissons Ratio (y) = 0.60178 0.09735
# Poissons Ratio (z) = 0.29766 0.14794
#
# Static dielectric constant tensor:
#      x y z
#    x 1.580960 0.000000 0.000000 
#    y 0.000000 1.580450 0.000000 
#    z 0.000000 0.000000 1.607030 
# 
# From -- ./inp_files/24329.got.cif
#   From: 2010.05.17/outbox.cif.g08.bks.cpg/sg60_13_cif.got.tgz:24329.got - 2010.06.03 14:59:27.
