data_PCOD9454942
_publ_section_title
;
Structure prediction by ZEFSAII (Michael W. Deem and Ramdas Pophale) SiO2 
 PCOD9454942
Probable space group: P B C N
;
_chemical_formula_sum "Si O2"
_cell_formula_units_Z 56
_cell_length_a 14.519284
_cell_length_b 18.640910
_cell_length_c 9.382758
_cell_angle_alpha 90.000000
_cell_angle_beta 90.000000
_cell_angle_gamma 90.000000
_cell_volume 2539.468470
_symmetry_space_group_name_H-M "P B C N"
_symmetry_group_IT_number 60
_symmetry_cell_setting 'orthorhombic'
loop_
_space_group_symop_operation_xyz
x,y,z
1/2-x,1/2-y,1/2+z
1/2+x,1/2-y,-z
-x,y,1/2-z
-x,-y,-z
1/2+x,1/2+y,1/2-z
1/2-x,1/2+y,z
x,-y,1/2+z
loop_
_atom_site_type_symbol
_atom_site_label
_atom_site_fract_x
_atom_site_fract_y
_atom_site_fract_z
Si Si1 0.596232 0.110033 0.824619
Si Si2 0.294324 0.379506 0.213017
Si Si3 0.918241 0.606358 0.147560
Si Si4 0.285089 0.383871 0.874674
Si Si5 0.915681 0.778728 0.148274
Si Si6 0.568782 0.495038 0.136425
Si Si7 0.096475 0.783320 0.676406
O O1 0.500000 0.094222 0.750000
O O2 0.693652 0.086844 0.755095
O O3 0.607974 0.197074 0.825107
O O4 0.581909 0.081007 0.984393
O O5 0.320106 0.303507 0.282882
O O6 0.378530 0.427814 0.281399
O O7 0.284897 0.362611 0.042907
O O8 0.813113 0.595173 0.192225
O O9 0.926069 0.693149 0.139457
O O10 0.000000 0.580502 0.250000
O O11 0.347327 0.453215 0.887978
O O12 0.329705 0.325348 0.770717
O O13 0.000000 0.802770 0.250000
O O14 0.913536 0.807856 0.987463
O O15 0.500000 0.527423 0.250000
O O16 0.500000 0.500000 0.000000
O O17 0.000000 0.797485 0.750000
#
# Coordination Sequence:
#
# PCOD9454942 Si02
#       7
#     8   8   8   8   8   8   8
#     4   9  20  39  59  87 122 156 198 248 299 364
#     4  11  23  39  60  84 120 161 200 250 308 354
#     4   9  20  39  59  89 122 157 196 249 302 359
#     4  11  23  39  61  85 121 159 203 251 301 362
#     4  10  20  33  58  89 124 157 196 241 303 364
#     4  12  26  44  62  86 120 157 202 253 304 360
#     4  10  20  33  57  90 121 157 197 243 299 365
#
# _framework density 22.051857999999999
#
# number of rings (size 3 to 8) (size 9 to 14) (size 15 to 20)
#    0.000    1.714    1.429    2.571    4.000    2.286 
#    0.000    0.714    0.000    3.429    0.000    0.000 
#    0.000    0.000    0.000    0.000    0.000    0.000 
#
# Total GULP energy -311817.478055 kJ/mol
# GULP energy per Si atom -5568.169251 kJ/mol
# Density = 2.200167 g / cm^3
# Si number density = 22.051858 Si / 1000 Ang^3
#
#
#
# Elastic Constant Matrix: (Units=GPa)
#
#
# Indices 1 2 3 4 5 6 
#
# 1 181.8542 17.5888 67.1519 0.0000 0.0000 0.0000
# 2 17.5888 36.3969 18.7623 0.0000 0.0000 0.0000
# 3 67.1519 18.7623 121.1726 0.0000 0.0000 0.0000
# 4 0.0000 0.0000 0.0000 9.5654 0.0000 0.0000
# 5 0.0000 0.0000 0.0000 0.0000 43.4819 0.0000
# 6 0.0000 0.0000 0.0000 0.0000 0.0000 99.1797
#
#
#
# Elastic Compliance Matrix: (Units=1/GPa)
#
#
# Indices 1 2 3 4 5 6 
#
# 1 0.006988 -0.001500 -0.003640 0.000000 0.000000 0.000000
# 2 -0.001500 0.030180 -0.003842 0.000000 0.000000 0.000000
# 3 -0.003640 -0.003842 0.010865 0.000000 0.000000 0.000000
# 4 0.000000 0.000000 0.000000 0.104544 0.000000 0.000000
# 5 0.000000 0.000000 0.000000 0.000000 0.022998 0.000000
# 6 0.000000 0.000000 0.000000 0.000000 0.000000 0.010083
#
#
# Mechanical properties :
#
#
# Convention : Reuss Voigt Hill
#
# Bulk Modulus (GPa) = 33.25733 60.71442 46.98587
# Shear Modulus (GPa) = 23.40318 46.17343 34.78830
#
# Velocity S-wave (km/s) = 3.26126 4.58083 3.97617
# Velocity P-wave (km/s) = 5.41251 7.45460 6.51407
#
# Compressibility (1/GPa) = 0.03006856
#
# Stress axis : x y z
#
# Youngs Moduli (GPa) = 143.09570 33.13423 92.03855
#
# Poissons Ratio (x) = 0.04972 0.33506
# Poissons Ratio (y) = 0.21471 0.35357
# Poissons Ratio (z) = 0.52094 0.12729
#
# Static dielectric constant tensor:
#      x y z
#    x 1.824580 0.000000 0.000000 
#    y 0.000000 3.152100 0.000000 
#    z 0.000000 0.000000 1.798020 
# 
# From -- ./inp_files/6158.got.cif
#   From: 2010.05.17/outbox.cif.g08.bks.cpg/sg60_4_cif.got.tgz:6158.got - 2010.06.03 14:59:27.
