data_PCOD9454415
_publ_section_title
;
Structure prediction by ZEFSAII (Michael W. Deem and Ramdas Pophale) SiO2 
 PCOD9454415
Probable space group: P B C N
;
_chemical_formula_sum "Si O2"
_cell_formula_units_Z 64
_cell_length_a 6.948305
_cell_length_b 15.849777
_cell_length_c 23.333861
_cell_angle_alpha 90.000000
_cell_angle_beta 90.000000
_cell_angle_gamma 90.000000
_cell_volume 2569.736756
_symmetry_space_group_name_H-M "P B C N"
_symmetry_group_IT_number 60
_symmetry_cell_setting 'orthorhombic'
loop_
_space_group_symop_operation_xyz
x,y,z
1/2-x,1/2-y,1/2+z
1/2+x,1/2-y,-z
-x,y,1/2-z
-x,-y,-z
1/2+x,1/2+y,1/2-z
1/2-x,1/2+y,z
x,-y,1/2+z
loop_
_atom_site_type_symbol
_atom_site_label
_atom_site_fract_x
_atom_site_fract_y
_atom_site_fract_z
Si Si1 0.317121 0.659682 0.877497
Si Si2 0.248604 0.308147 0.092264
Si Si3 0.766667 0.335348 0.652276
Si Si4 0.740012 0.085332 0.506827
Si Si5 0.306369 0.608923 0.477336
Si Si6 0.181839 0.533945 0.671939
Si Si7 0.316877 0.134270 0.115116
Si Si8 0.769473 0.991912 0.201618
O O1 0.519213 0.694306 0.900889
O O2 0.228524 0.735762 0.840205
O O3 0.360906 0.575528 0.841640
O O4 0.198547 0.633159 0.933832
O O5 0.218024 0.330553 0.026029
O O6 0.188134 0.382880 0.133964
O O7 0.183254 0.216373 0.113258
O O8 0.717166 0.358584 0.586732
O O9 0.681019 0.409767 0.691427
O O10 0.999391 0.346894 0.654945
O O11 0.628789 0.118667 0.451366
O O12 0.965796 0.099806 0.491410
O O13 0.721059 0.985337 0.516051
O O14 0.263126 0.454738 0.636249
O O15 0.287077 0.535769 0.732824
O O16 0.957168 0.517580 0.685366
#
# Coordination Sequence:
#
# PCOD9454415 Si02
#       8
#     8   8   8   8   8   8   8   8
#     4  10  21  37  57  83 111 144 182 221 271 328
#     4  10  21  37  57  83 111 144 182 221 271 328
#     4  10  21  36  57  83 110 143 183 223 270 326
#     4  10  19  33  55  83 116 145 176 222 273 325
#     4  10  19  33  55  83 116 145 176 222 273 325
#     4  10  22  39  56  77 107 142 182 229 274 317
#     4  10  21  36  57  83 110 143 183 223 270 326
#     4  10  22  39  56  77 107 142 182 229 274 317
#
# _framework density 24.905275
#
# number of rings (size 3 to 8) (size 9 to 14) (size 15 to 20)
#    0.000    2.000    2.500    0.750    0.000    4.000 
#    0.000    2.500    0.000    0.000    0.000    0.000 
#    0.000    0.000    0.000    0.000    0.000    0.000 
#
# Total GULP energy -358198.902180 kJ/mol
# GULP energy per Si atom -5596.857847 kJ/mol
# Density = 2.484859 g / cm^3
# Si number density = 24.905275 Si / 1000 Ang^3
#
#
#
# Elastic Constant Matrix: (Units=GPa)
#
#
# Indices 1 2 3 4 5 6 
#
# 1 65.2162 0.3683 -8.2725 0.0000 0.0000 0.0000
# 2 0.3683 143.6215 5.6297 0.0000 0.0000 0.0000
# 3 -8.2725 5.6297 68.8335 0.0000 0.0000 0.0000
# 4 0.0000 0.0000 0.0000 1.4107 0.0000 0.0000
# 5 0.0000 0.0000 0.0000 0.0000 28.8230 0.0000
# 6 0.0000 0.0000 0.0000 0.0000 0.0000 14.6476
#
#
#
# Elastic Compliance Matrix: (Units=1/GPa)
#
#
# Indices 1 2 3 4 5 6 
#
# 1 0.015573 -0.000114 0.001881 0.000000 0.000000 0.000000
# 2 -0.000114 0.006986 -0.000585 0.000000 0.000000 0.000000
# 3 0.001881 -0.000585 0.014802 0.000000 0.000000 0.000000
# 4 0.000000 0.000000 0.000000 0.708867 0.000000 0.000000
# 5 0.000000 0.000000 0.000000 0.000000 0.034694 0.000000
# 6 0.000000 0.000000 0.000000 0.000000 0.000000 0.068270
#
#
# Mechanical properties :
#
#
# Convention : Reuss Voigt Hill
#
# Bulk Modulus (GPa) = 25.17313 30.34690 27.76001
# Shear Modulus (GPa) = 5.81348 27.63932 16.72640
#
# Velocity S-wave (km/s) = 1.52948 3.33495 2.59434
# Velocity P-wave (km/s) = 3.63986 5.20005 4.48827
#
# Compressibility (1/GPa) = 0.03972490
#
# Stress axis : x y z
#
# Youngs Moduli (GPa) = 64.21437 143.14406 67.55974
#
# Poissons Ratio (x) = 0.01627 -0.12707
# Poissons Ratio (y) = 0.00730 0.03952
# Poissons Ratio (z) = -0.12078 0.08374
#
# Static dielectric constant tensor:
#      x y z
#    x 2.087350 0.000000 0.000000 
#    y 0.000000 1.965490 0.000000 
#    z 0.000000 0.000000 1.894330 
# 
# From -- ./inp_files/24106.got.cif
#   From: 2010.05.17/outbox.cif.g08.bks.cpg/sg60_13_cif.got.tgz:24106.got - 2010.06.03 14:59:27.
