data_PCOD9454580
_publ_section_title
;
Structure prediction by ZEFSAII (Michael W. Deem and Ramdas Pophale) SiO2 
 PCOD9454580
Probable space group: P B C N
;
_chemical_formula_sum "Si O2"
_cell_formula_units_Z 32
_cell_length_a 4.994034
_cell_length_b 17.946137
_cell_length_c 18.666599
_cell_angle_alpha 90.000000
_cell_angle_beta 90.000000
_cell_angle_gamma 90.000000
_cell_volume 1672.968145
_symmetry_space_group_name_H-M "P B C N"
_symmetry_group_IT_number 60
_symmetry_cell_setting 'orthorhombic'
loop_
_space_group_symop_operation_xyz
x,y,z
1/2-x,1/2-y,1/2+z
1/2+x,1/2-y,-z
-x,y,1/2-z
-x,-y,-z
1/2+x,1/2+y,1/2-z
1/2-x,1/2+y,z
x,-y,1/2+z
loop_
_atom_site_type_symbol
_atom_site_label
_atom_site_fract_x
_atom_site_fract_y
_atom_site_fract_z
Si Si1 0.245363 0.454307 0.029740
Si Si2 0.162284 0.708568 0.469468
Si Si3 0.004495 0.382792 0.165962
Si Si4 0.501580 0.282873 0.333095
O O1 0.151076 0.440770 0.112763
O O2 0.500000 0.500000 0.000000
O O3 0.253553 0.372232 0.994767
O O4 0.000000 0.500000 0.000000
O O5 0.395164 0.766368 0.489320
O O6 0.087249 0.718267 0.386409
O O7 0.197303 0.311194 0.155771
O O8 0.000000 0.405223 0.250000
O O9 0.702847 0.352611 0.151946
O O10 0.500000 0.262273 0.250000
#
# Coordination Sequence:
#
# PCOD9454580 Si02
#       4
#     8   8   8   8
#     4  12  24  38  59  92 130 165 207 259 322 382
#     4  12  21  38  63  90 123 160 212 258 314 370
#     4  10  20  37  61  87 119 159 209 253 308 377
#     4  10  19  35  61  91 116 153 208 265 305 363
#
# _framework density 19.127680999999999
#
# number of rings (size 3 to 8) (size 9 to 14) (size 15 to 20)
#    0.000    1.000    5.000    3.000    0.000    0.000 
#    0.000    1.250    0.000    3.000    0.000    0.000 
#    0.000    0.000    0.000    0.000    0.000    0.000 
#
# Total GULP energy -178277.566532 kJ/mol
# GULP energy per Si atom -5571.173954 kJ/mol
# Density = 1.908415 g / cm^3
# Si number density = 19.127681 Si / 1000 Ang^3
#
#
#
# Elastic Constant Matrix: (Units=GPa)
#
#
# Indices 1 2 3 4 5 6 
#
# 1 120.4733 10.8347 42.9442 0.0000 0.0000 0.0000
# 2 10.8347 62.4229 52.0454 0.0000 0.0000 0.0000
# 3 42.9442 52.0454 162.2450 0.0000 0.0000 0.0000
# 4 0.0000 0.0000 0.0000 27.0790 0.0000 0.0000
# 5 0.0000 0.0000 0.0000 0.0000 27.1689 0.0000
# 6 0.0000 0.0000 0.0000 0.0000 0.0000 40.3088
#
#
#
# Elastic Compliance Matrix: (Units=1/GPa)
#
#
# Indices 1 2 3 4 5 6 
#
# 1 0.009181 0.000591 -0.002620 0.000000 0.000000 0.000000
# 2 0.000591 0.021907 -0.007184 0.000000 0.000000 0.000000
# 3 -0.002620 -0.007184 0.009161 0.000000 0.000000 0.000000
# 4 0.000000 0.000000 0.000000 0.036929 0.000000 0.000000
# 5 0.000000 0.000000 0.000000 0.000000 0.036807 0.000000
# 6 0.000000 0.000000 0.000000 0.000000 0.000000 0.024808
#
#
# Mechanical properties :
#
#
# Convention : Reuss Voigt Hill
#
# Bulk Modulus (GPa) = 45.82144 61.86551 53.84348
# Shear Modulus (GPa) = 30.39641 34.86582 32.63111
#
# Velocity S-wave (km/s) = 3.99072 4.27405 4.13481
# Velocity P-wave (km/s) = 6.72622 7.53461 7.14186
#
# Compressibility (1/GPa) = 0.02182384
#
# Stress axis : x y z
#
# Youngs Moduli (GPa) = 108.91740 45.64839 109.15547
#
# Poissons Ratio (x) = -0.02696 0.28594
# Poissons Ratio (y) = -0.06432 0.78412
# Poissons Ratio (z) = 0.28532 0.32792
#
# Static dielectric constant tensor:
#      x y z
#    x 1.676100 0.000000 0.000000 
#    y 0.000000 1.624210 0.000000 
#    z 0.000000 0.000000 1.853680 
# 
# From -- ./inp_files/18389.got.cif
#   From: 2010.05.17/outbox.cif.g08.bks.cpg/sg60_10_cif.got.tgz:18389.got - 2010.06.03 14:59:27.
