data_PCOD9454713
_publ_section_title
;
Structure prediction by ZEFSAII (Michael W. Deem and Ramdas Pophale) SiO2 
 PCOD9454713
Probable space group: P B C N
;
_chemical_formula_sum "Si O2"
_cell_formula_units_Z 48
_cell_length_a 12.710964
_cell_length_b 16.589810
_cell_length_c 12.078130
_cell_angle_alpha 90.000000
_cell_angle_beta 90.000000
_cell_angle_gamma 90.000000
_cell_volume 2546.945199
_symmetry_space_group_name_H-M "P B C N"
_symmetry_group_IT_number 60
_symmetry_cell_setting 'orthorhombic'
loop_
_space_group_symop_operation_xyz
x,y,z
1/2-x,1/2-y,1/2+z
1/2+x,1/2-y,-z
-x,y,1/2-z
-x,-y,-z
1/2+x,1/2+y,1/2-z
1/2-x,1/2+y,z
x,-y,1/2+z
loop_
_atom_site_type_symbol
_atom_site_label
_atom_site_fract_x
_atom_site_fract_y
_atom_site_fract_z
Si Si1 0.757824 0.908367 0.681383
Si Si2 0.611501 0.822795 0.063014
Si Si3 0.381057 0.946350 0.240155
Si Si4 0.621700 0.146813 0.977455
Si Si5 0.534521 0.647848 0.123882
Si Si6 0.188662 0.174065 0.088559
O O1 0.684372 0.868227 0.589142
O O2 0.874914 0.918614 0.631216
O O3 0.772317 0.852176 0.789787
O O4 0.703365 0.990589 0.717265
O O5 0.617355 0.867537 0.181043
O O6 0.504132 0.852936 0.005137
O O7 0.591674 0.727468 0.077223
O O8 0.716276 0.841409 0.995245
O O9 0.500000 0.980268 0.250000
O O10 0.357664 0.920797 0.114910
O O11 0.656832 0.232056 0.924306
O O12 0.500000 0.667250 0.250000
O O13 0.423390 0.630027 0.065671
#
# Coordination Sequence:
#
# PCOD9454713 Si02
#       6
#     8   8   8   8   8   8
#     4  11  22  36  60  86 119 154 193 238 297 348
#     4  10  19  37  62  87 114 154 192 245 298 343
#     4  10  23  37  58  87 122 157 191 242 301 353
#     4  10  22  38  60  88 118 149 198 246 293 346
#     4   9  18  38  59  82 113 158 194 230 289 361
#     4  10  21  36  64  85 112 154 198 240 287 351
#
# _framework density 18.846105999999999
#
# number of rings (size 3 to 8) (size 9 to 14) (size 15 to 20)
#    0.000    2.000    1.667    3.500    4.667    1.333 
#    0.000    0.833    3.667    0.000    0.000    0.000 
#    0.000    0.000    0.000    0.000    0.000    0.000 
#
# Total GULP energy -267684.161669 kJ/mol
# GULP energy per Si atom -5576.753368 kJ/mol
# Density = 1.880321 g / cm^3
# Si number density = 18.846106 Si / 1000 Ang^3
#
#
#
# Elastic Constant Matrix: (Units=GPa)
#
#
# Indices 1 2 3 4 5 6 
#
# 1 170.0127 42.8008 54.5363 0.0000 0.0000 0.0000
# 2 42.8008 47.0106 14.1070 0.0000 0.0000 0.0000
# 3 54.5363 14.1070 36.8640 0.0000 0.0000 0.0000
# 4 0.0000 0.0000 0.0000 16.5746 0.0000 0.0000
# 5 0.0000 0.0000 0.0000 0.0000 38.9365 0.0000
# 6 0.0000 0.0000 0.0000 0.0000 0.0000 -0.1223
#
#
#
# Elastic Compliance Matrix: (Units=1/GPa)
#
#
# Indices 1 2 3 4 5 6 
#
# 1 0.012858 -0.006777 -0.016429 0.000000 0.000000 0.000000
# 2 -0.006777 0.027603 -0.000538 0.000000 0.000000 0.000000
# 3 -0.016429 -0.000538 0.051637 0.000000 0.000000 0.000000
# 4 0.000000 0.000000 0.000000 0.060333 0.000000 0.000000
# 5 0.000000 0.000000 0.000000 0.000000 0.025683 0.000000
# 6 0.000000 0.000000 0.000000 0.000000 0.000000 -8.176150
#
#
# Mechanical properties :
#
#
# Convention : Reuss Voigt Hill
#
# Bulk Modulus (GPa) = 22.41567 52.97506 37.69537
# Shear Modulus (GPa) = -0.63007 20.57396 9.97195
#
# Velocity S-wave (km/s) = -0.57883 3.30765 2.30277
# Velocity P-wave (km/s) = 3.38720 6.53894 5.20725
#
# Compressibility (1/GPa) = 0.04461165
#
# Stress axis : x y z
#
# Youngs Moduli (GPa) = 77.77375 36.22813 19.36606
#
# Poissons Ratio (x) = 0.24550 0.31816
# Poissons Ratio (y) = 0.52703 0.01042
# Poissons Ratio (z) = 1.27771 0.01949
#
# Static dielectric constant tensor:
#      x y z
#    x 1.685730 0.000000 0.000000 
#    y 0.000000 1.650570 0.000000 
#    z 0.000000 0.000000 1.639620 
# 
# From -- ./inp_files/11023.got.cif
#   From: 2010.05.17/outbox.cif.g08.bks.cpg/sg60_6_cif.got.tgz:11023.got - 2010.06.03 14:59:27.
