data_PCOD9454352
_publ_section_title
;
Structure prediction by ZEFSAII (Michael W. Deem and Ramdas Pophale) SiO2 
 PCOD9454352
Probable space group: P B C N
;
_chemical_formula_sum "Si O2"
_cell_formula_units_Z 48
_cell_length_a 18.953822
_cell_length_b 19.896749
_cell_length_c 5.658485
_cell_angle_alpha 90.000000
_cell_angle_beta 90.000000
_cell_angle_gamma 90.000000
_cell_volume 2133.924688
_symmetry_space_group_name_H-M "P B C N"
_symmetry_group_IT_number 60
_symmetry_cell_setting 'orthorhombic'
loop_
_space_group_symop_operation_xyz
x,y,z
1/2-x,1/2-y,1/2+z
1/2+x,1/2-y,-z
-x,y,1/2-z
-x,-y,-z
1/2+x,1/2+y,1/2-z
1/2-x,1/2+y,z
x,-y,1/2+z
loop_
_atom_site_type_symbol
_atom_site_label
_atom_site_fract_x
_atom_site_fract_y
_atom_site_fract_z
Si Si1 0.248634 0.507979 0.438337
Si Si2 0.203118 0.653908 0.337451
Si Si3 0.326438 0.725317 0.141253
Si Si4 0.406566 0.962581 0.392929
Si Si5 0.917868 0.687815 0.503309
Si Si6 0.023995 0.192271 0.994422
O O1 0.287134 0.498311 0.686894
O O2 0.212718 0.581064 0.440344
O O3 0.179286 0.460623 0.421168
O O4 0.269326 0.667293 0.167944
O O5 0.213179 0.712437 0.525652
O O6 0.126209 0.666038 0.228136
O O7 0.365270 0.760213 0.363837
O O8 0.392198 0.698881 0.990719
O O9 0.429863 0.884901 0.379164
O O10 0.426343 0.998953 0.645785
O O11 0.987715 0.733126 0.488250
O O12 0.000000 0.163521 0.250000
O O13 0.000000 0.158574 0.750000
#
# Coordination Sequence:
#
# PCOD9454352 Si02
#       6
#     8   8   8   8   8   8
#     4  10  20  34  52  80 114 151 188 242 286 332
#     4  12  21  33  60  83 118 154 195 247 296 348
#     4  11  23  36  54  89 116 152 197 242 301 353
#     4  10  19  32  54  78 108 148 195 236 273 322
#     4  11  21  36  57  80 113 159 189 237 288 349
#     4  10  22  38  57  76 114 154 189 229 290 347
#
# _framework density 22.493763999999999
#
# number of rings (size 3 to 8) (size 9 to 14) (size 15 to 20)
#    0.000    1.333    6.667    2.000    0.000    0.000 
#    0.000    0.000    0.000   24.000    0.000    0.000 
#    0.000   17.333    0.000    0.000    0.000    0.000 
#
# Total GULP energy -267682.498080 kJ/mol
# GULP energy per Si atom -5576.718710 kJ/mol
# Density = 2.244257 g / cm^3
# Si number density = 22.493764 Si / 1000 Ang^3
#
#
#
# Elastic Constant Matrix: (Units=GPa)
#
#
# Indices 1 2 3 4 5 6 
#
# 1 82.3364 6.4455 6.0485 0.0000 0.0000 0.0000
# 2 6.4455 21.3180 3.6377 0.0000 0.0000 0.0000
# 3 6.0485 3.6377 152.4836 0.0000 0.0000 0.0000
# 4 0.0000 0.0000 0.0000 66.2946 0.0000 0.0000
# 5 0.0000 0.0000 0.0000 0.0000 15.2440 0.0000
# 6 0.0000 0.0000 0.0000 0.0000 0.0000 -0.2335
#
#
#
# Elastic Compliance Matrix: (Units=1/GPa)
#
#
# Indices 1 2 3 4 5 6 
#
# 1 0.012465 -0.003699 -0.000406 0.000000 0.000000 0.000000
# 2 -0.003699 0.048198 -0.001003 0.000000 0.000000 0.000000
# 3 -0.000406 -0.001003 0.006598 0.000000 0.000000 0.000000
# 4 0.000000 0.000000 0.000000 0.015084 0.000000 0.000000
# 5 0.000000 0.000000 0.000000 0.000000 0.065599 0.000000
# 6 0.000000 0.000000 0.000000 0.000000 0.000000 -4.282469
#
#
# Mechanical properties :
#
#
# Convention : Reuss Voigt Hill
#
# Bulk Modulus (GPa) = 17.53037 32.04461 24.78749
# Shear Modulus (GPa) = -1.21794 32.26144 15.52175
#
# Velocity S-wave (km/s) = -0.73664 3.79124 2.62972
# Velocity P-wave (km/s) = 2.66211 5.78287 4.50158
#
# Compressibility (1/GPa) = 0.05704387
#
# Stress axis : x y z
#
# Youngs Moduli (GPa) = 80.22634 20.74760 151.55826
#
# Poissons Ratio (x) = 0.07675 0.06156
# Poissons Ratio (y) = 0.29679 0.15203
# Poissons Ratio (z) = 0.03259 0.02081
#
# Static dielectric constant tensor:
#      x y z
#    x 1.887960 0.000000 0.000000 
#    y 0.000000 1.812360 0.000000 
#    z 0.000000 0.000000 1.940810 
# 
# From -- ./inp_files/1756.got.cif
#   From: 2010.05.17/outbox.cif.g08.bks.cpg/sg60_1_cif.got.tgz:1756.got - 2010.06.03 14:59:27.
