data_PCOD9454021
_publ_section_title
;
Structure prediction by ZEFSAII (Michael W. Deem and Ramdas Pophale) SiO2 
 PCOD9454021
Probable space group: P B C N
;
_chemical_formula_sum "Si O2"
_cell_formula_units_Z 44
_cell_length_a 15.789074
_cell_length_b 7.629756
_cell_length_c 13.888862
_cell_angle_alpha 90.000000
_cell_angle_beta 90.000000
_cell_angle_gamma 90.000000
_cell_volume 1673.146512
_symmetry_space_group_name_H-M "P B C N"
_symmetry_group_IT_number 60
_symmetry_cell_setting 'orthorhombic'
loop_
_space_group_symop_operation_xyz
x,y,z
1/2-x,1/2-y,1/2+z
1/2+x,1/2-y,-z
-x,y,1/2-z
-x,-y,-z
1/2+x,1/2+y,1/2-z
1/2-x,1/2+y,z
x,-y,1/2+z
loop_
_atom_site_type_symbol
_atom_site_label
_atom_site_fract_x
_atom_site_fract_y
_atom_site_fract_z
Si Si1 0.702398 0.457347 0.491026
Si Si2 0.175452 0.925128 0.226592
Si Si3 0.854488 0.339986 0.248751
Si Si4 0.000000 0.060330 0.750000
Si Si5 0.124388 0.342525 0.032310
Si Si6 0.456084 0.723042 0.408706
O O1 0.697302 0.379684 0.382738
O O2 0.802081 0.457145 0.517784
O O3 0.667487 0.653055 0.482698
O O4 0.631016 0.352862 0.549230
O O5 0.261050 0.895160 0.283545
O O6 0.087700 0.834796 0.254846
O O7 0.154702 0.129790 0.237501
O O8 0.875439 0.405887 0.355693
O O9 0.926410 0.364555 0.170138
O O10 0.001066 0.935923 0.846243
O O11 0.024436 0.301547 0.017058
#
# Coordination Sequence:
#
# PCOD9454021 Si02
#       6
#     8   8   8   4   8   8
#     4  10  21  32  57  80 109 138 181 226 276 314
#     4   9  18  34  53  80 107 141 177 226 267 316
#     4   9  18  33  57  76 108 141 184 219 265 320
#     4  10  18  32  58  78 102 144 190 218 256 332
#     4  10  19  37  54  78 108 144 178 226 269 320
#     4  11  18  35  57  83 102 150 188 216 268 337
#
# _framework density 26.297754000000001
#
# number of rings (size 3 to 8) (size 9 to 14) (size 15 to 20)
#    0.000    2.182    5.455    0.545    0.000    2.909 
#    0.000    0.909   16.000    0.000    0.000    0.000 
#    0.000    0.000    0.000    0.000    0.000    0.000 
#
# Total GULP energy -245624.827993 kJ/mol
# GULP energy per Si atom -5582.382454 kJ/mol
# Density = 2.623790 g / cm^3
# Si number density = 26.297754 Si / 1000 Ang^3
#
#
#
# Elastic Constant Matrix: (Units=GPa)
#
#
# Indices 1 2 3 4 5 6 
#
# 1 135.5086 8.8083 44.6272 0.0000 0.0000 0.0000
# 2 8.8083 35.0521 15.9973 0.0000 0.0000 0.0000
# 3 44.6272 15.9973 82.4732 0.0000 0.0000 0.0000
# 4 0.0000 0.0000 0.0000 15.1059 0.0000 0.0000
# 5 0.0000 0.0000 0.0000 0.0000 45.9962 0.0000
# 6 0.0000 0.0000 0.0000 0.0000 0.0000 26.3699
#
#
#
# Elastic Compliance Matrix: (Units=1/GPa)
#
#
# Indices 1 2 3 4 5 6 
#
# 1 0.008980 -0.000043 -0.004851 0.000000 0.000000 0.000000
# 2 -0.000043 0.031300 -0.006048 0.000000 0.000000 0.000000
# 3 -0.004851 -0.006048 0.015923 0.000000 0.000000 0.000000
# 4 0.000000 0.000000 0.000000 0.066199 0.000000 0.000000
# 5 0.000000 0.000000 0.000000 0.000000 0.021741 0.000000
# 6 0.000000 0.000000 0.000000 0.000000 0.000000 0.037922
#
#
# Mechanical properties :
#
#
# Convention : Reuss Voigt Hill
#
# Bulk Modulus (GPa) = 29.13784 43.54441 36.34113
# Shear Modulus (GPa) = 23.21384 29.73448 26.47416
#
# Velocity S-wave (km/s) = 2.97430 3.36621 3.17631
# Velocity P-wave (km/s) = 4.78532 5.63052 5.22504
#
# Compressibility (1/GPa) = 0.03431963
#
# Stress axis : x y z
#
# Youngs Moduli (GPa) = 111.35956 31.94890 62.80153
#
# Poissons Ratio (x) = 0.00136 0.30464
# Poissons Ratio (y) = 0.00476 0.37983
# Poissons Ratio (z) = 0.54019 0.19323
#
# Static dielectric constant tensor:
#      x y z
#    x 2.199810 0.000000 0.000000 
#    y 0.000000 2.073910 0.000000 
#    z 0.000000 0.000000 2.184960 
# 
# From -- ./inp_files/16719.got.cif
#   From: 2010.05.17/outbox.cif.g08.bks.cpg/sg60_9_cif.got.tgz:16719.got - 2010.06.03 14:59:27.
