data_PCOD9454902
_publ_section_title
;
Structure prediction by ZEFSAII (Michael W. Deem and Ramdas Pophale) SiO2 
 PCOD9454902
Probable space group: P B C N
;
_chemical_formula_sum "Si O2"
_cell_formula_units_Z 44
_cell_length_a 18.770117
_cell_length_b 10.095468
_cell_length_c 9.181779
_cell_angle_alpha 90.000000
_cell_angle_beta 90.000000
_cell_angle_gamma 90.000000
_cell_volume 1739.883909
_symmetry_space_group_name_H-M "P B C N"
_symmetry_group_IT_number 60
_symmetry_cell_setting 'orthorhombic'
loop_
_space_group_symop_operation_xyz
x,y,z
1/2-x,1/2-y,1/2+z
1/2+x,1/2-y,-z
-x,y,1/2-z
-x,-y,-z
1/2+x,1/2+y,1/2-z
1/2-x,1/2+y,z
x,-y,1/2+z
loop_
_atom_site_type_symbol
_atom_site_label
_atom_site_fract_x
_atom_site_fract_y
_atom_site_fract_z
Si Si1 0.177075 0.587347 0.982876
Si Si2 0.168847 0.987088 0.415591
Si Si3 0.000000 0.455393 0.750000
Si Si4 0.418896 0.853100 0.020126
Si Si5 0.347129 0.317681 0.160924
Si Si6 0.314448 0.732912 0.211017
O O1 0.262663 0.581619 0.990590
O O2 0.159466 0.665834 0.837051
O O3 0.150001 0.440235 0.978144
O O4 0.137217 0.668922 0.109898
O O5 0.131540 0.078934 0.535119
O O6 0.197397 0.095235 0.296558
O O7 0.130947 0.878926 0.314068
O O8 0.959512 0.560559 0.857042
O O9 0.963857 0.359790 0.628018
O O10 0.380908 0.728726 0.099080
O O11 0.260254 0.301687 0.164880
#
# Coordination Sequence:
#
# PCOD9454902 Si02
#       6
#     8   8   4   8   8   8
#     4  10  20  35  57  82 124 157 190 230 295 351
#     4  10  20  35  50  84 121 156 190 214 279 377
#     4  10  24  36  60  80 114 140 224 264 304 344
#     4  11  20  40  56  87 110 157 195 264 302 344
#     4  10  20  33  53  84 121 158 182 225 271 377
#     4  10  20  32  56  82 120 159 185 231 292 356
#
# _framework density 25.289041999999998
#
# number of rings (size 3 to 8) (size 9 to 14) (size 15 to 20)
#    0.000    1.818    3.636    1.091    2.545    0.000 
#    6.545    0.000    0.000    0.000    0.000    7.636 
#    0.000    0.000    0.000    0.000    0.000    0.000 
#
# Total GULP energy -245585.391711 kJ/mol
# GULP energy per Si atom -5581.486175 kJ/mol
# Density = 2.523148 g / cm^3
# Si number density = 25.289042 Si / 1000 Ang^3
#
#
#
# Elastic Constant Matrix: (Units=GPa)
#
#
# Indices 1 2 3 4 5 6 
#
# 1 41.6577 -4.5162 19.8987 0.0000 0.0000 0.0000
# 2 -4.5162 69.9721 11.9836 0.0000 0.0000 0.0000
# 3 19.8987 11.9836 131.5479 0.0000 0.0000 0.0000
# 4 0.0000 0.0000 0.0000 42.4942 0.0000 0.0000
# 5 0.0000 0.0000 0.0000 0.0000 30.5609 0.0000
# 6 0.0000 0.0000 0.0000 0.0000 0.0000 32.4207
#
#
#
# Elastic Compliance Matrix: (Units=1/GPa)
#
#
# Indices 1 2 3 4 5 6 
#
# 1 0.026270 0.002414 -0.004194 0.000000 0.000000 0.000000
# 2 0.002414 0.014740 -0.001708 0.000000 0.000000 0.000000
# 3 -0.004194 -0.001708 0.008392 0.000000 0.000000 0.000000
# 4 0.000000 0.000000 0.000000 0.023533 0.000000 0.000000
# 5 0.000000 0.000000 0.000000 0.000000 0.032722 0.000000
# 6 0.000000 0.000000 0.000000 0.000000 0.000000 0.030845
#
#
# Mechanical properties :
#
#
# Convention : Reuss Voigt Hill
#
# Bulk Modulus (GPa) = 23.57048 33.10112 28.33580
# Shear Modulus (GPa) = 31.72233 35.48259 33.60246
#
# Velocity S-wave (km/s) = 3.54558 3.74984 3.64914
# Velocity P-wave (km/s) = 5.10903 5.64499 5.38368
#
# Compressibility (1/GPa) = 0.04242595
#
# Stress axis : x y z
#
# Youngs Moduli (GPa) = 38.06620 67.84399 119.16495
#
# Poissons Ratio (x) = -0.16376 0.49974
# Poissons Ratio (y) = -0.09188 0.20352
# Poissons Ratio (z) = 0.15964 0.11587
#
# Static dielectric constant tensor:
#      x y z
#    x 2.006550 0.000000 0.000000 
#    y 0.000000 2.001780 0.000000 
#    z 0.000000 0.000000 2.098890 
# 
# From -- ./inp_files/7808.got.cif
#   From: 2010.05.17/outbox.cif.g08.bks.cpg/sg60_4_cif.got.tgz:7808.got - 2010.06.03 14:59:27.
