data_PCOD9454262
_publ_section_title
;
Structure prediction by ZEFSAII (Michael W. Deem and Ramdas Pophale) SiO2 
 PCOD9454262
Probable space group: P B C N
;
_chemical_formula_sum "Si O2"
_cell_formula_units_Z 48
_cell_length_a 24.072507
_cell_length_b 6.996097
_cell_length_c 11.835136
_cell_angle_alpha 90.000000
_cell_angle_beta 90.000000
_cell_angle_gamma 90.000000
_cell_volume 1993.197789
_symmetry_space_group_name_H-M "P B C N"
_symmetry_group_IT_number 60
_symmetry_cell_setting 'orthorhombic'
loop_
_space_group_symop_operation_xyz
x,y,z
1/2-x,1/2-y,1/2+z
1/2+x,1/2-y,-z
-x,y,1/2-z
-x,-y,-z
1/2+x,1/2+y,1/2-z
1/2-x,1/2+y,z
x,-y,1/2+z
loop_
_atom_site_type_symbol
_atom_site_label
_atom_site_fract_x
_atom_site_fract_y
_atom_site_fract_z
Si Si1 0.167578 0.174668 0.397995
Si Si2 0.557256 0.125073 0.197438
Si Si3 0.381086 0.204629 0.523537
Si Si4 0.435173 0.327363 0.747352
Si Si5 0.291892 0.894246 0.852125
Si Si6 0.348298 0.804995 0.639621
O O1 0.112261 0.101911 0.335417
O O2 0.178429 0.397478 0.359621
O O3 0.227389 0.083993 0.375920
O O4 0.158560 0.173555 0.532119
O O5 0.500000 0.186357 0.250000
O O6 0.601953 0.231451 0.274867
O O7 0.560476 0.897425 0.217289
O O8 0.570062 0.165727 0.067181
O O9 0.407072 0.333469 0.622865
O O10 0.326561 0.233331 0.443362
O O11 0.362623 0.012266 0.588353
O O12 0.500000 0.393742 0.750000
O O13 0.296919 0.816424 0.724732
#
# Coordination Sequence:
#
# PCOD9454262 Si02
#       6
#     8   8   8   8   8   8
#     4  11  21  34  52  77 106 136 174 215 264 313
#     4   9  16  25  46  70 101 136 161 206 261 308
#     4   9  16  32  44  71 105 132 168 210 259 310
#     4  10  19  28  48  75 104 136 167 215 266 307
#     4  10  21  34  51  75 104 139 171 217 260 314
#     4   9  17  31  46  69 106 128 170 204 260 305
#
# _framework density 24.081906
#
# number of rings (size 3 to 8) (size 9 to 14) (size 15 to 20)
#    0.000    2.333    6.667    0.000    4.667    2.000 
#    0.000    0.000    0.000    0.000    0.000    7.000 
#    0.000    0.000    0.000    0.000    0.000    0.000 
#
# Total GULP energy -267987.570309 kJ/mol
# GULP energy per Si atom -5583.074381 kJ/mol
# Density = 2.402709 g / cm^3
# Si number density = 24.081906 Si / 1000 Ang^3
#
#
#
# Elastic Constant Matrix: (Units=GPa)
#
#
# Indices 1 2 3 4 5 6 
#
# 1 153.2193 40.1640 48.4930 0.0000 0.0000 0.0000
# 2 40.1640 67.0849 32.2210 0.0000 0.0000 0.0000
# 3 48.4930 32.2210 188.8522 0.0000 0.0000 0.0000
# 4 0.0000 0.0000 0.0000 1.1608 0.0000 0.0000
# 5 0.0000 0.0000 0.0000 0.0000 27.0319 0.0000
# 6 0.0000 0.0000 0.0000 0.0000 0.0000 8.2420
#
#
#
# Elastic Compliance Matrix: (Units=1/GPa)
#
#
# Indices 1 2 3 4 5 6 
#
# 1 0.008048 -0.004167 -0.001356 0.000000 0.000000 0.000000
# 2 -0.004167 0.018395 -0.002068 0.000000 0.000000 0.000000
# 3 -0.001356 -0.002068 0.005996 0.000000 0.000000 0.000000
# 4 0.000000 0.000000 0.000000 0.861512 0.000000 0.000000
# 5 0.000000 0.000000 0.000000 0.000000 0.036993 0.000000
# 6 0.000000 0.000000 0.000000 0.000000 0.000000 0.121330
#
#
# Mechanical properties :
#
#
# Convention : Reuss Voigt Hill
#
# Bulk Modulus (GPa) = 57.94892 72.32361 65.13627
# Shear Modulus (GPa) = 4.65893 26.50548 15.58221
#
# Velocity S-wave (km/s) = 1.39241 3.32119 2.54648
# Velocity P-wave (km/s) = 5.16726 6.69362 5.97935
#
# Compressibility (1/GPa) = 0.01725658
#
# Stress axis : x y z
#
# Youngs Moduli (GPa) = 124.25435 54.36288 166.77467
#
# Poissons Ratio (x) = 0.22655 0.22607
# Poissons Ratio (y) = 0.51781 0.34495
# Poissons Ratio (z) = 0.16843 0.11244
#
# Static dielectric constant tensor:
#      x y z
#    x 1.997050 0.000000 0.000000 
#    y 0.000000 2.037450 0.000000 
#    z 0.000000 0.000000 1.897020 
# 
# From -- ./inp_files/13100.got.cif
#   From: 2010.05.17/outbox.cif.g08.bks.cpg/sg60_7_cif.got.tgz:13100.got - 2010.06.03 14:59:27.
