data_PCOD9454645
_publ_section_title
;
Structure prediction by ZEFSAII (Michael W. Deem and Ramdas Pophale) SiO2 
 PCOD9454645
Probable space group: P B C N
;
_chemical_formula_sum "Si O2"
_cell_formula_units_Z 64
_cell_length_a 18.129723
_cell_length_b 16.122360
_cell_length_c 9.296305
_cell_angle_alpha 90.000000
_cell_angle_beta 90.000000
_cell_angle_gamma 90.000000
_cell_volume 2717.253438
_symmetry_space_group_name_H-M "P B C N"
_symmetry_group_IT_number 60
_symmetry_cell_setting 'orthorhombic'
loop_
_space_group_symop_operation_xyz
x,y,z
1/2-x,1/2-y,1/2+z
1/2+x,1/2-y,-z
-x,y,1/2-z
-x,-y,-z
1/2+x,1/2+y,1/2-z
1/2-x,1/2+y,z
x,-y,1/2+z
loop_
_atom_site_type_symbol
_atom_site_label
_atom_site_fract_x
_atom_site_fract_y
_atom_site_fract_z
Si Si1 0.074052 0.394915 0.335669
Si Si2 0.556779 0.318171 0.966706
Si Si3 0.229513 0.232876 0.549993
Si Si4 0.482490 0.136378 0.414921
Si Si5 0.718227 0.988276 0.285428
Si Si6 0.597100 0.696964 0.155197
Si Si7 0.321795 0.088219 0.444384
Si Si8 0.309307 0.653840 0.842462
O O1 0.144496 0.441111 0.273441
O O2 0.084599 0.295860 0.318852
O O3 0.000000 0.420066 0.250000
O O4 0.052011 0.402218 0.502941
O O5 0.473571 0.344595 0.923201
O O6 0.601982 0.333498 0.818932
O O7 0.540008 0.222738 0.010191
O O8 0.608054 0.350074 0.095667
O O9 0.165503 0.193659 0.451042
O O10 0.299170 0.172250 0.524496
O O11 0.203233 0.222593 0.714710
O O12 0.255347 0.317358 0.473039
O O13 0.500000 0.150793 0.250000
O O14 0.409085 0.082758 0.430532
O O15 0.711953 0.983369 0.455460
O O16 0.784983 0.931985 0.229689
O O17 0.714194 0.076983 0.211259
#
# Coordination Sequence:
#
# PCOD9454645 Si02
#       8
#     8   8   8   8   8   8   8   8
#     4  11  19  37  58  81 121 161 195 238 290 347
#     4  10  20  36  58  88 122 148 194 245 301 355
#     4  11  23  37  62  88 119 154 200 250 300 352
#     4  11  23  35  56  88 121 158 203 241 284 354
#     4  11  25  41  59  82 119 163 201 243 296 347
#     4  10  19  36  60  86 119 155 187 247 304 350
#     4  11  25  43  56  84 121 160 203 246 289 354
#     4  11  23  37  60  90 118 154 200 251 297 355
#
# _framework density 23.553196
#
# number of rings (size 3 to 8) (size 9 to 14) (size 15 to 20)
#    0.000    1.250    6.250    0.750    5.250    3.000 
#    0.000    0.000    0.000    0.750    0.000    0.000 
#    0.000    0.000    0.000    0.000    0.000    0.000 
#
# Total GULP energy -357582.189128 kJ/mol
# GULP energy per Si atom -5587.221705 kJ/mol
# Density = 2.349959 g / cm^3
# Si number density = 23.553196 Si / 1000 Ang^3
#
#
#
# Elastic Constant Matrix: (Units=GPa)
#
#
# Indices 1 2 3 4 5 6 
#
# 1 96.6467 -5.3923 33.0164 0.0000 0.0000 0.0000
# 2 -5.3923 20.7882 -3.9849 0.0000 0.0000 0.0000
# 3 33.0164 -3.9849 125.8378 0.0000 0.0000 0.0000
# 4 0.0000 0.0000 0.0000 22.6550 0.0000 0.0000
# 5 0.0000 0.0000 0.0000 0.0000 49.9027 0.0000
# 6 0.0000 0.0000 0.0000 0.0000 0.0000 10.7009
#
#
#
# Elastic Compliance Matrix: (Units=1/GPa)
#
#
# Indices 1 2 3 4 5 6 
#
# 1 0.011485 0.002416 -0.002937 0.000000 0.000000 0.000000
# 2 0.002416 0.048906 0.000915 0.000000 0.000000 0.000000
# 3 -0.002937 0.000915 0.008746 0.000000 0.000000 0.000000
# 4 0.000000 0.000000 0.000000 0.044140 0.000000 0.000000
# 5 0.000000 0.000000 0.000000 0.000000 0.020039 0.000000
# 6 0.000000 0.000000 0.000000 0.000000 0.000000 0.093450
#
#
# Mechanical properties :
#
#
# Convention : Reuss Voigt Hill
#
# Bulk Modulus (GPa) = 14.30088 32.28346 23.29217
# Shear Modulus (GPa) = 20.05717 31.29395 25.67556
#
# Velocity S-wave (km/s) = 2.92133 3.64902 3.30526
# Velocity P-wave (km/s) = 4.17897 5.61161 4.94742
#
# Compressibility (1/GPa) = 0.06992574
#
# Stress axis : x y z
#
# Youngs Moduli (GPa) = 87.06965 20.44729 114.33464
#
# Poissons Ratio (x) = -0.04940 0.33578
# Poissons Ratio (y) = -0.21038 -0.10459
# Poissons Ratio (z) = 0.25571 -0.01870
#
# Static dielectric constant tensor:
#      x y z
#    x 1.896580 0.000000 0.000000 
#    y 0.000000 1.935730 0.000000 
#    z 0.000000 0.000000 1.933840 
# 
# From -- ./inp_files/7567.got.cif
#   From: 2010.05.17/outbox.cif.g08.bks.cpg/sg60_4_cif.got.tgz:7567.got - 2010.06.03 14:59:27.
