data_PCOD9454920
_publ_section_title
;
Structure prediction by ZEFSAII (Michael W. Deem and Ramdas Pophale) SiO2 
 PCOD9454920
Probable space group: P B C N
;
_chemical_formula_sum "Si O2"
_cell_formula_units_Z 48
_cell_length_a 19.555569
_cell_length_b 13.481672
_cell_length_c 8.887673
_cell_angle_alpha 90.000000
_cell_angle_beta 90.000000
_cell_angle_gamma 90.000000
_cell_volume 2343.161815
_symmetry_space_group_name_H-M "P B C N"
_symmetry_group_IT_number 60
_symmetry_cell_setting 'orthorhombic'
loop_
_space_group_symop_operation_xyz
x,y,z
1/2-x,1/2-y,1/2+z
1/2+x,1/2-y,-z
-x,y,1/2-z
-x,-y,-z
1/2+x,1/2+y,1/2-z
1/2-x,1/2+y,z
x,-y,1/2+z
loop_
_atom_site_type_symbol
_atom_site_label
_atom_site_fract_x
_atom_site_fract_y
_atom_site_fract_z
Si Si1 0.927580 0.044692 0.448305
Si Si2 0.582728 0.632453 0.754051
Si Si3 0.769815 0.433617 0.769515
Si Si4 0.632448 0.703857 0.269228
Si Si5 0.342056 0.774730 0.555589
Si Si6 0.710464 0.133041 0.936382
O O1 0.892644 0.091992 0.593942
O O2 0.928043 0.132974 0.327589
O O3 0.893354 0.948761 0.375944
O O4 0.000000 0.000000 0.500000
O O5 0.500000 0.634819 0.750000
O O6 0.611381 0.735498 0.808561
O O7 0.697264 0.373620 0.771537
O O8 0.816633 0.382550 0.898022
O O9 0.798189 0.413531 0.601872
O O10 0.770355 0.548574 0.814795
O O11 0.649559 0.795898 0.378550
O O12 0.623614 0.750998 0.104326
O O13 0.274291 0.707542 0.554215
#
# Coordination Sequence:
#
# PCOD9454920 Si02
#       6
#     8   8   8   8   8   8
#     4  10  20  33  50  74 104 141 183 225 272 323
#     4  10  20  33  50  74 103 141 182 226 271 320
#     4  10  20  33  52  80 112 146 184 226 281 342
#     4  10  20  34  53  78 111 148 185 229 280 336
#     4  10  20  34  53  78 111 148 186 230 279 335
#     4  10  20  33  52  80 112 146 183 226 282 342
#
# _framework density 20.485140999999999
#
# number of rings (size 3 to 8) (size 9 to 14) (size 15 to 20)
#    0.000    2.000    0.000    4.000    0.000    8.000 
#    0.000    0.000    0.000    0.000    0.000   22.167 
#    0.000    0.000    0.000    0.000    0.000    0.000 
#
# Total GULP energy -267794.341985 kJ/mol
# GULP energy per Si atom -5579.048791 kJ/mol
# Density = 2.043852 g / cm^3
# Si number density = 20.485141 Si / 1000 Ang^3
#
#
#
# Elastic Constant Matrix: (Units=GPa)
#
#
# Indices 1 2 3 4 5 6 
#
# 1 34.6900 12.2550 20.9806 0.0000 0.0000 0.0000
# 2 12.2550 65.6327 14.1074 0.0000 0.0000 0.0000
# 3 20.9806 14.1074 80.4193 0.0000 0.0000 0.0000
# 4 0.0000 0.0000 0.0000 32.4087 0.0000 0.0000
# 5 0.0000 0.0000 0.0000 0.0000 23.3420 0.0000
# 6 0.0000 0.0000 0.0000 0.0000 0.0000 23.3816
#
#
#
# Elastic Compliance Matrix: (Units=1/GPa)
#
#
# Indices 1 2 3 4 5 6 
#
# 1 0.035648 -0.004840 -0.008451 0.000000 0.000000 0.000000
# 2 -0.004840 0.016490 -0.001630 0.000000 0.000000 0.000000
# 3 -0.008451 -0.001630 0.014926 0.000000 0.000000 0.000000
# 4 0.000000 0.000000 0.000000 0.030856 0.000000 0.000000
# 5 0.000000 0.000000 0.000000 0.000000 0.042841 0.000000
# 6 0.000000 0.000000 0.000000 0.000000 0.000000 0.042769
#
#
# Mechanical properties :
#
#
# Convention : Reuss Voigt Hill
#
# Bulk Modulus (GPa) = 26.86599 30.60310 28.73454
# Shear Modulus (GPa) = 22.14557 24.71972 23.43265
#
# Velocity S-wave (km/s) = 3.29151 3.47755 3.38581
# Velocity P-wave (km/s) = 5.25249 5.57638 5.41686
#
# Compressibility (1/GPa) = 0.03722179
#
# Stress axis : x y z
#
# Youngs Moduli (GPa) = 28.05227 60.64153 66.99884
#
# Poissons Ratio (x) = 0.29348 0.56622
# Poissons Ratio (y) = 0.13576 0.10922
# Poissons Ratio (z) = 0.23707 0.09886
#
# Static dielectric constant tensor:
#      x y z
#    x 1.789680 0.000000 0.000000 
#    y 0.000000 1.711360 0.000000 
#    z 0.000000 0.000000 1.805210 
# 
# From -- ./inp_files/7851.got.cif
#   From: 2010.05.17/outbox.cif.g08.bks.cpg/sg60_4_cif.got.tgz:7851.got - 2010.06.03 14:59:27.
