data_PCOD9454189
_publ_section_title
;
Structure prediction by ZEFSAII (Michael W. Deem and Ramdas Pophale) SiO2 
 PCOD9454189
Probable space group: P B C N
;
_chemical_formula_sum "Si O2"
_cell_formula_units_Z 56
_cell_length_a 7.847288
_cell_length_b 13.795552
_cell_length_c 22.475289
_cell_angle_alpha 90.000000
_cell_angle_beta 90.000000
_cell_angle_gamma 90.000000
_cell_volume 2433.122412
_symmetry_space_group_name_H-M "P B C N"
_symmetry_group_IT_number 60
_symmetry_cell_setting 'orthorhombic'
loop_
_space_group_symop_operation_xyz
x,y,z
1/2-x,1/2-y,1/2+z
1/2+x,1/2-y,-z
-x,y,1/2-z
-x,-y,-z
1/2+x,1/2+y,1/2-z
1/2-x,1/2+y,z
x,-y,1/2+z
loop_
_atom_site_type_symbol
_atom_site_label
_atom_site_fract_x
_atom_site_fract_y
_atom_site_fract_z
Si Si1 0.730739 0.848428 0.854954
Si Si2 0.696501 0.872444 0.500767
Si Si3 0.690427 0.634795 0.230926
Si Si4 0.969785 0.110552 0.565947
Si Si5 0.046399 0.200311 0.811322
Si Si6 0.663655 0.897760 0.985665
Si Si7 0.589033 0.601656 0.107858
O O1 0.738140 0.909295 0.792868
O O2 0.621891 0.757167 0.834084
O O3 0.649505 0.892569 0.914232
O O4 0.925625 0.833736 0.875609
O O5 0.502795 0.842939 0.489850
O O6 0.774253 0.848231 0.565238
O O7 0.842761 0.852284 0.452582
O O8 0.673572 0.989577 0.503063
O O9 0.500000 0.667948 0.250000
O O10 0.812410 0.721411 0.208749
O O11 0.669359 0.572067 0.171386
O O12 0.903369 0.143549 0.629992
O O13 0.835844 0.141954 0.515361
O O14 0.979444 0.993523 0.573284
O O15 0.000000 0.144905 0.750000
#
# Coordination Sequence:
#
# PCOD9454189 Si02
#       7
#     8   8   8   8   8   8   8
#     4  10  18  37  58  83 116 158 205 239 291 358
#     4  10  19  35  61  88 123 154 190 254 312 344
#     4   9  20  37  62  84 112 165 205 247 294 358
#     4  11  21  40  60  92 125 154 197 255 314 355
#     4  10  23  41  58  85 126 162 194 251 311 355
#     4  10  19  36  61  89 118 158 198 247 301 368
#     4  10  18  37  65  87 114 157 208 247 292 363
#
# _framework density 23.015694
#
# number of rings (size 3 to 8) (size 9 to 14) (size 15 to 20)
#    0.000    2.000    2.857    1.714    0.000    1.714 
#   12.857    0.000    0.000    2.571    0.000    0.000 
#    0.000    0.000    0.000    0.000    0.000    0.000 
#
# Total GULP energy -312186.922367 kJ/mol
# GULP energy per Si atom -5574.766471 kJ/mol
# Density = 2.296331 g / cm^3
# Si number density = 23.015694 Si / 1000 Ang^3
#
#
#
# Elastic Constant Matrix: (Units=GPa)
#
#
# Indices 1 2 3 4 5 6 
#
# 1 123.1960 19.4243 56.2332 0.0000 0.0000 0.0000
# 2 19.4243 35.8326 17.9323 0.0000 0.0000 0.0000
# 3 56.2332 17.9323 165.5657 0.0000 0.0000 0.0000
# 4 0.0000 0.0000 0.0000 29.5902 0.0000 0.0000
# 5 0.0000 0.0000 0.0000 0.0000 31.3905 0.0000
# 6 0.0000 0.0000 0.0000 0.0000 0.0000 16.3059
#
#
#
# Elastic Compliance Matrix: (Units=1/GPa)
#
#
# Indices 1 2 3 4 5 6 
#
# 1 0.010116 -0.003980 -0.003005 0.000000 0.000000 0.000000
# 2 -0.003980 0.031073 -0.002014 0.000000 0.000000 0.000000
# 3 -0.003005 -0.002014 0.007279 0.000000 0.000000 0.000000
# 4 0.000000 0.000000 0.000000 0.033795 0.000000 0.000000
# 5 0.000000 0.000000 0.000000 0.000000 0.031857 0.000000
# 6 0.000000 0.000000 0.000000 0.000000 0.000000 0.061328
#
#
# Mechanical properties :
#
#
# Convention : Reuss Voigt Hill
#
# Bulk Modulus (GPa) = 32.81867 56.86377 44.84122
# Shear Modulus (GPa) = 24.55783 30.85761 27.70772
#
# Velocity S-wave (km/s) = 3.27005 3.66556 3.47344
# Velocity P-wave (km/s) = 5.34302 6.53263 5.96754
#
# Compressibility (1/GPa) = 0.03047046
#
# Stress axis : x y z
#
# Youngs Moduli (GPa) = 98.85078 32.18243 137.38965
#
# Poissons Ratio (x) = 0.12809 0.41283
# Poissons Ratio (y) = 0.39344 0.27666
# Poissons Ratio (z) = 0.29703 0.06480
#
# Static dielectric constant tensor:
#      x y z
#    x 1.924070 0.000000 0.000000 
#    y 0.000000 1.890610 0.000000 
#    z 0.000000 0.000000 1.917660 
# 
# From -- ./inp_files/22299.got.cif
#   From: 2010.05.17/outbox.cif.g08.bks.cpg/sg60_12_cif.got.tgz:22299.got - 2010.06.03 14:59:27.
