data_PCOD9454309
_publ_section_title
;
Structure prediction by ZEFSAII (Michael W. Deem and Ramdas Pophale) SiO2 
 PCOD9454309
Probable space group: P B C N
;
_chemical_formula_sum "Si O2"
_cell_formula_units_Z 48
_cell_length_a 20.981269
_cell_length_b 21.222206
_cell_length_c 5.370930
_cell_angle_alpha 90.000000
_cell_angle_beta 90.000000
_cell_angle_gamma 90.000000
_cell_volume 2391.507625
_symmetry_space_group_name_H-M "P B C N"
_symmetry_group_IT_number 60
_symmetry_cell_setting 'orthorhombic'
loop_
_space_group_symop_operation_xyz
x,y,z
1/2-x,1/2-y,1/2+z
1/2+x,1/2-y,-z
-x,y,1/2-z
-x,-y,-z
1/2+x,1/2+y,1/2-z
1/2-x,1/2+y,z
x,-y,1/2+z
loop_
_atom_site_type_symbol
_atom_site_label
_atom_site_fract_x
_atom_site_fract_y
_atom_site_fract_z
Si Si1 0.261928 0.838241 0.986605
Si Si2 0.619583 0.841098 0.168329
Si Si3 0.268667 0.971195 0.801210
Si Si4 0.086687 0.477938 0.382697
Si Si5 0.539231 0.245487 0.992741
Si Si6 0.656879 0.266158 0.276378
O O1 0.312691 0.855204 0.202220
O O2 0.192663 0.823136 0.092134
O O3 0.263600 0.896057 0.797020
O O4 0.289235 0.774335 0.866389
O O5 0.594222 0.904818 0.047275
O O6 0.571241 0.818358 0.384355
O O7 0.628712 0.783330 0.978374
O O8 0.240068 0.003319 0.558579
O O9 0.342889 0.991930 0.827170
O O10 0.057809 0.517017 0.608102
O O11 0.500000 0.269751 0.750000
O O12 0.500000 0.236961 0.250000
O O13 0.601357 0.284125 0.083743
#
# Coordination Sequence:
#
# PCOD9454309 Si02
#       6
#     8   8   8   8   8   8
#     4  11  21  32  55  91 126 146 192 229 312 363
#     4  11  21  36  59  82 116 152 191 240 292 353
#     4  10  19  33  50  75 116 163 184 220 269 368
#     4  10  19  31  51  78 105 153 190 222 278 347
#     4  11  24  43  59  78 108 157 208 243 288 341
#     4  11  22  35  58  91 119 154 181 252 300 361
#
# _framework density 20.071020999999998
#
# number of rings (size 3 to 8) (size 9 to 14) (size 15 to 20)
#    0.000    1.333    6.667    2.000    2.333    0.000 
#    0.000    0.000    0.000    3.000    0.000    0.000 
#    0.000    4.000    0.000    0.000    0.000    0.000 
#
# Total GULP energy -267922.719478 kJ/mol
# GULP energy per Si atom -5581.723322 kJ/mol
# Density = 2.002534 g / cm^3
# Si number density = 20.071021 Si / 1000 Ang^3
#
#
#
# Elastic Constant Matrix: (Units=GPa)
#
#
# Indices 1 2 3 4 5 6 
#
# 1 63.9396 14.8925 24.7790 0.0000 0.0000 0.0000
# 2 14.8925 23.1849 -1.1276 0.0000 0.0000 0.0000
# 3 24.7790 -1.1276 121.2420 0.0000 0.0000 0.0000
# 4 0.0000 0.0000 0.0000 19.7101 0.0000 0.0000
# 5 0.0000 0.0000 0.0000 0.0000 30.8799 0.0000
# 6 0.0000 0.0000 0.0000 0.0000 0.0000 4.4582
#
#
#
# Elastic Compliance Matrix: (Units=1/GPa)
#
#
# Indices 1 2 3 4 5 6 
#
# 1 0.020405 -0.013316 -0.004294 0.000000 0.000000 0.000000
# 2 -0.013316 0.051841 0.003204 0.000000 0.000000 0.000000
# 3 -0.004294 0.003204 0.009155 0.000000 0.000000 0.000000
# 4 0.000000 0.000000 0.000000 0.050735 0.000000 0.000000
# 5 0.000000 0.000000 0.000000 0.000000 0.032384 0.000000
# 6 0.000000 0.000000 0.000000 0.000000 0.000000 0.224304
#
#
# Mechanical properties :
#
#
# Convention : Reuss Voigt Hill
#
# Bulk Modulus (GPa) = 19.01562 31.71715 25.36639
# Shear Modulus (GPa) = 11.48984 22.33115 16.91050
#
# Velocity S-wave (km/s) = 2.39521 3.33919 2.90579
# Velocity P-wave (km/s) = 4.14054 5.54109 4.89121
#
# Compressibility (1/GPa) = 0.05258833
#
# Stress axis : x y z
#
# Youngs Moduli (GPa) = 49.00660 19.28983 109.22521
#
# Poissons Ratio (x) = 0.25686 0.46904
# Poissons Ratio (y) = 0.65257 -0.34991
# Poissons Ratio (z) = 0.21045 -0.06180
#
# Static dielectric constant tensor:
#      x y z
#    x 1.787390 0.000000 0.000000 
#    y 0.000000 1.685400 0.000000 
#    z 0.000000 0.000000 1.861130 
# 
# From -- ./inp_files/2059.got.cif
#   From: 2010.05.17/outbox.cif.g08.bks.cpg/sg60_2_cif.got.tgz:2059.got - 2010.06.03 14:59:27.
