data_PCOD9454615
_publ_section_title
;
Structure prediction by ZEFSAII (Michael W. Deem and Ramdas Pophale) SiO2 
 PCOD9454615
Probable space group: P B C N
;
_chemical_formula_sum "Si O2"
_cell_formula_units_Z 44
_cell_length_a 9.524245
_cell_length_b 28.753725
_cell_length_c 8.714362
_cell_angle_alpha 90.000000
_cell_angle_beta 90.000000
_cell_angle_gamma 90.000000
_cell_volume 2386.493579
_symmetry_space_group_name_H-M "P B C N"
_symmetry_group_IT_number 60
_symmetry_cell_setting 'orthorhombic'
loop_
_space_group_symop_operation_xyz
x,y,z
1/2-x,1/2-y,1/2+z
1/2+x,1/2-y,-z
-x,y,1/2-z
-x,-y,-z
1/2+x,1/2+y,1/2-z
1/2-x,1/2+y,z
x,-y,1/2+z
loop_
_atom_site_type_symbol
_atom_site_label
_atom_site_fract_x
_atom_site_fract_y
_atom_site_fract_z
Si Si1 0.918500 0.068469 0.492178
Si Si2 0.274461 0.850572 0.606026
Si Si3 0.500000 0.503475 0.750000
Si Si4 0.046776 0.777793 0.571831
Si Si5 0.046213 0.329533 0.071923
Si Si6 0.832626 0.141798 0.040827
O O1 0.800596 0.106846 0.478203
O O2 0.912250 0.037832 0.643605
O O3 0.065895 0.097203 0.477828
O O4 0.911576 0.031028 0.356165
O O5 0.433260 0.849549 0.548706
O O6 0.228466 0.855652 0.784652
O O7 0.196256 0.803156 0.554527
O O8 0.058653 0.724727 0.521651
O O9 0.930378 0.813118 0.504030
O O10 0.000000 0.776495 0.750000
O O11 0.000000 0.331040 0.250000
O O12 0.194805 0.355256 0.061321
#
# Coordination Sequence:
#
# PCOD9454615 Si02
#       6
#     8   8   4   8   8   8
#     4  10  20  37  62  88 104 132 177 225 275 321
#     4  10  19  36  56  78 112 147 181 218 270 322
#     4  10  20  36  64  88 104 126 176 232 272 330
#     4   8  17  34  54  77 107 147 193 225 251 305
#     4  11  22  32  50  81 116 150 182 223 261 309
#     4  10  19  36  56  78 112 147 181 218 270 322
#
# _framework density 18.437092
#
# number of rings (size 3 to 8) (size 9 to 14) (size 15 to 20)
#    0.000    2.182    1.818    2.727    2.545    0.000 
#    0.000    1.818    0.000    6.545    0.000    0.000 
#    0.000    0.000    0.000    0.000    0.000    0.000 
#
# Total GULP energy -245222.588939 kJ/mol
# GULP energy per Si atom -5573.240658 kJ/mol
# Density = 1.839513 g / cm^3
# Si number density = 18.437092 Si / 1000 Ang^3
#
#
#
# Elastic Constant Matrix: (Units=GPa)
#
#
# Indices 1 2 3 4 5 6 
#
# 1 76.7058 21.0124 11.4203 0.0000 0.0000 0.0000
# 2 21.0124 101.8080 31.9457 0.0000 0.0000 0.0000
# 3 11.4203 31.9457 38.4088 0.0000 0.0000 0.0000
# 4 0.0000 0.0000 0.0000 -24.1540 0.0000 0.0000
# 5 0.0000 0.0000 0.0000 0.0000 1.3974 0.0000
# 6 0.0000 0.0000 0.0000 0.0000 0.0000 10.0769
#
#
#
# Elastic Compliance Matrix: (Units=1/GPa)
#
#
# Indices 1 2 3 4 5 6 
#
# 1 0.013977 -0.002139 -0.002377 0.000000 0.000000 0.000000
# 2 -0.002139 0.013619 -0.010691 0.000000 0.000000 0.000000
# 3 -0.002377 -0.010691 0.035634 0.000000 0.000000 0.000000
# 4 0.000000 0.000000 0.000000 -0.041401 0.000000 0.000000
# 5 0.000000 0.000000 0.000000 0.000000 0.715618 0.000000
# 6 0.000000 0.000000 0.000000 0.000000 0.000000 0.099237
#
#
# Mechanical properties :
#
#
# Convention : Reuss Voigt Hill
#
# Bulk Modulus (GPa) = 30.47265 38.40883 34.44074
# Shear Modulus (GPa) = 5.69453 7.63367 6.66410
#
# Velocity S-wave (km/s) = 1.75936 2.03700 1.90325
# Velocity P-wave (km/s) = 4.54872 5.13908 4.85289
#
# Compressibility (1/GPa) = 0.03281631
#
# Stress axis : x y z
#
# Youngs Moduli (GPa) = 71.54820 73.42947 28.06276
#
# Poissons Ratio (x) = 0.15706 0.06670
# Poissons Ratio (y) = 0.15303 0.30002
# Poissons Ratio (z) = 0.17005 0.78503
#
# Static dielectric constant tensor:
#      x y z
#    x 1.617280 0.000000 0.000000 
#    y 0.000000 1.615130 0.000000 
#    z 0.000000 0.000000 1.696550 
# 
# From -- ./inp_files/4113.got.cif
#   From: 2010.05.17/outbox.cif.g08.bks.cpg/sg60_3_cif.got.tgz:4113.got - 2010.06.03 14:59:27.
