data_PCOD9454692
_publ_section_title
;
Structure prediction by ZEFSAII (Michael W. Deem and Ramdas Pophale) SiO2 
 PCOD9454692
Probable space group: P B C N
;
_chemical_formula_sum "Si O2"
_cell_formula_units_Z 40
_cell_length_a 13.840552
_cell_length_b 9.896687
_cell_length_c 15.122755
_cell_angle_alpha 90.000000
_cell_angle_beta 90.000000
_cell_angle_gamma 90.000000
_cell_volume 2071.448607
_symmetry_space_group_name_H-M "P B C N"
_symmetry_group_IT_number 60
_symmetry_cell_setting 'orthorhombic'
loop_
_space_group_symop_operation_xyz
x,y,z
1/2-x,1/2-y,1/2+z
1/2+x,1/2-y,-z
-x,y,1/2-z
-x,-y,-z
1/2+x,1/2+y,1/2-z
1/2-x,1/2+y,z
x,-y,1/2+z
loop_
_atom_site_type_symbol
_atom_site_label
_atom_site_fract_x
_atom_site_fract_y
_atom_site_fract_z
Si Si1 0.912667 0.923085 0.910143
Si Si2 0.698261 0.584484 0.229140
Si Si3 0.416647 0.908660 0.823383
Si Si4 0.910610 0.883294 0.103790
Si Si5 0.555108 0.205085 0.655416
O O1 0.839067 0.910626 0.829588
O O2 0.987227 0.796719 0.905651
O O3 0.869208 0.924076 0.007823
O O4 0.981966 0.051848 0.894091
O O5 0.812516 0.580942 0.223130
O O6 0.650278 0.455378 0.180848
O O7 0.653046 0.712653 0.176250
O O8 0.500000 0.893030 0.750000
O O9 0.414929 0.775844 0.882870
O O10 0.431129 0.051375 0.872946
O O11 0.500000 0.200928 0.750000
#
# Coordination Sequence:
#
# PCOD9454692 Si02
#       5
#     8   8   8   8   8
#     4   9  19  38  60  81 110 149 184 225 283 333
#     4  10  19  37  58  77 113 153 183 222 277 336
#     4  11  21  34  54  82 112 145 187 233 275 321
#     4  10  20  36  61  87 108 142 193 232 268 334
#     4   8  17  33  53  77 107 142 176 220 279 327
#
# _framework density 19.310158000000001
#
# number of rings (size 3 to 8) (size 9 to 14) (size 15 to 20)
#    0.000    2.400    0.000    4.200    0.000    0.800 
#    0.000   16.000    0.000    0.000    0.000    0.000 
#    0.000    0.000    0.000    0.000    0.000    0.000 
#
# Total GULP energy -223213.715481 kJ/mol
# GULP energy per Si atom -5580.342887 kJ/mol
# Density = 1.926621 g / cm^3
# Si number density = 19.310158 Si / 1000 Ang^3
#
#
#
# Elastic Constant Matrix: (Units=GPa)
#
#
# Indices 1 2 3 4 5 6 
#
# 1 68.0378 13.0597 15.9409 0.0000 0.0000 0.0000
# 2 13.0597 127.8141 5.6536 0.0000 0.0000 0.0000
# 3 15.9409 5.6536 61.7854 0.0000 0.0000 0.0000
# 4 0.0000 0.0000 0.0000 19.4202 0.0000 0.0000
# 5 0.0000 0.0000 0.0000 0.0000 12.0210 0.0000
# 6 0.0000 0.0000 0.0000 0.0000 0.0000 5.9792
#
#
#
# Elastic Compliance Matrix: (Units=1/GPa)
#
#
# Indices 1 2 3 4 5 6 
#
# 1 0.015906 -0.001450 -0.003971 0.000000 0.000000 0.000000
# 2 -0.001450 0.007988 -0.000357 0.000000 0.000000 0.000000
# 3 -0.003971 -0.000357 0.017242 0.000000 0.000000 0.000000
# 4 0.000000 0.000000 0.000000 0.051493 0.000000 0.000000
# 5 0.000000 0.000000 0.000000 0.000000 0.083188 0.000000
# 6 0.000000 0.000000 0.000000 0.000000 0.000000 0.167246
#
#
# Mechanical properties :
#
#
# Convention : Reuss Voigt Hill
#
# Bulk Modulus (GPa) = 33.80560 36.32731 35.06645
# Shear Modulus (GPa) = 13.71823 22.34962 18.03393
#
# Velocity S-wave (km/s) = 2.66825 3.40575 3.05931
# Velocity P-wave (km/s) = 5.19975 5.85823 5.53879
#
# Compressibility (1/GPa) = 0.02958090
#
# Stress axis : x y z
#
# Youngs Moduli (GPa) = 62.86775 125.19139 57.99681
#
# Poissons Ratio (x) = 0.18148 0.23032
# Poissons Ratio (y) = 0.09113 0.02070
# Poissons Ratio (z) = 0.24967 0.04468
#
# Static dielectric constant tensor:
#      x y z
#    x 1.657040 0.000000 0.000000 
#    y 0.000000 1.706000 0.000000 
#    z 0.000000 0.000000 1.653250 
# 
# From -- ./inp_files/16595.got.cif
#   From: 2010.05.17/outbox.cif.g08.bks.cpg/sg60_9_cif.got.tgz:16595.got - 2010.06.03 14:59:27.
