data_PCOD9454743
_publ_section_title
;
Structure prediction by ZEFSAII (Michael W. Deem and Ramdas Pophale) SiO2 
 PCOD9454743
Probable space group: P B C N
;
_chemical_formula_sum "Si O2"
_cell_formula_units_Z 52
_cell_length_a 8.452733
_cell_length_b 14.698827
_cell_length_c 22.832040
_cell_angle_alpha 90.000000
_cell_angle_beta 90.000000
_cell_angle_gamma 90.000000
_cell_volume 2836.772747
_symmetry_space_group_name_H-M "P B C N"
_symmetry_group_IT_number 60
_symmetry_cell_setting 'orthorhombic'
loop_
_space_group_symop_operation_xyz
x,y,z
1/2-x,1/2-y,1/2+z
1/2+x,1/2-y,-z
-x,y,1/2-z
-x,-y,-z
1/2+x,1/2+y,1/2-z
1/2-x,1/2+y,z
x,-y,1/2+z
loop_
_atom_site_type_symbol
_atom_site_label
_atom_site_fract_x
_atom_site_fract_y
_atom_site_fract_z
Si Si1 0.160931 0.791327 0.453673
Si Si2 0.000000 0.746098 0.750000
Si Si3 0.500000 0.542038 0.750000
Si Si4 0.500000 0.163332 0.250000
Si Si5 0.203528 0.187307 0.817596
Si Si6 0.333917 0.433005 0.550406
Si Si7 0.295510 0.603972 0.183344
Si Si8 0.352364 0.627192 0.502226
O O1 0.211019 0.808615 0.387352
O O2 0.228717 0.868018 0.498375
O O3 0.220590 0.692727 0.475100
O O4 0.972427 0.809542 0.459971
O O5 0.875817 0.690697 0.711499
O O6 0.895839 0.809331 0.793483
O O7 0.607933 0.602475 0.707723
O O8 0.608953 0.480885 0.791258
O O9 0.396081 0.226454 0.293250
O O10 0.624016 0.107339 0.287654
O O11 0.282803 0.400783 0.613839
O O12 0.297117 0.538725 0.538128
O O13 0.525372 0.416496 0.545505
#
# Coordination Sequence:
#
# PCOD9454743 Si02
#       8
#     8   4   4   4   8   8   8   8
#     4  10  20  36  61  85 116 155 191 239 295 344
#     4   9  20  36  58  81 112 152 196 235 292 330
#     4  10  22  34  60  82 110 156 192 236 304 328
#     4   9  22  36  56  83 110 156 194 241 288 334
#     4  10  20  38  57  84 114 147 200 241 283 353
#     4   9  20  36  60  82 120 151 191 232 301 345
#     4  10  19  38  57  82 114 154 191 240 287 355
#     4   9  20  36  56  89 111 154 191 230 298 348
#
# _framework density 18.330691000000002
#
# number of rings (size 3 to 8) (size 9 to 14) (size 15 to 20)
#    0.923    1.538    0.000    1.846    2.154    0.615 
#    2.769    2.308    0.000    0.000    0.000    0.000 
#    0.000    0.000    0.000    0.000    0.000    0.000 
#
# Total GULP energy -289698.177217 kJ/mol
# GULP energy per Si atom -5571.118793 kJ/mol
# Density = 1.828897 g / cm^3
# Si number density = 18.330691 Si / 1000 Ang^3
#
#
#
# Elastic Constant Matrix: (Units=GPa)
#
#
# Indices 1 2 3 4 5 6 
#
# 1 82.7836 31.5938 50.7194 0.0000 0.0000 0.0000
# 2 31.5938 80.7213 48.4247 0.0000 0.0000 0.0000
# 3 50.7194 48.4247 170.3339 0.0000 0.0000 0.0000
# 4 0.0000 0.0000 0.0000 -3.4925 0.0000 0.0000
# 5 0.0000 0.0000 0.0000 0.0000 11.1213 0.0000
# 6 0.0000 0.0000 0.0000 0.0000 0.0000 21.1225
#
#
#
# Elastic Compliance Matrix: (Units=1/GPa)
#
#
# Indices 1 2 3 4 5 6 
#
# 1 0.015804 -0.004054 -0.003553 0.000000 0.000000 0.000000
# 2 -0.004054 0.015975 -0.003335 0.000000 0.000000 0.000000
# 3 -0.003553 -0.003335 0.007877 0.000000 0.000000 0.000000
# 4 0.000000 0.000000 0.000000 -0.286325 0.000000 0.000000
# 5 0.000000 0.000000 0.000000 0.000000 0.089917 0.000000
# 6 0.000000 0.000000 0.000000 0.000000 0.000000 0.047343
#
#
# Mechanical properties :
#
#
# Convention : Reuss Voigt Hill
#
# Bulk Modulus (GPa) = 56.26666 66.14609 61.20638
# Shear Modulus (GPa) = -61.27410 19.29030 -20.99190
#
# Velocity S-wave (km/s) = -5.78789 3.24751 -3.38772
# Velocity P-wave (km/s) = 3.72883 7.08696 4.26150
#
# Compressibility (1/GPa) = 0.01777251
#
# Stress axis : x y z
#
# Youngs Moduli (GPa) = 63.27561 62.59630 126.95378
#
# Poissons Ratio (x) = 0.25376 0.45111
# Poissons Ratio (y) = 0.25651 0.42334
# Poissons Ratio (z) = 0.22484 0.20873
#
# Static dielectric constant tensor:
#      x y z
#    x 1.636070 0.000000 0.000000 
#    y 0.000000 1.633940 0.000000 
#    z 0.000000 0.000000 1.599350 
# 
# From -- ./inp_files/22173.got.cif
#   From: 2010.05.17/outbox.cif.g08.bks.cpg/sg60_12_cif.got.tgz:22173.got - 2010.06.03 14:59:27.
