data_PCOD9454550
_publ_section_title
;
Structure prediction by ZEFSAII (Michael W. Deem and Ramdas Pophale) SiO2 
 PCOD9454550
Probable space group: P B C N
;
_chemical_formula_sum "Si O2"
_cell_formula_units_Z 40
_cell_length_a 11.419250
_cell_length_b 18.858719
_cell_length_c 7.982530
_cell_angle_alpha 90.000000
_cell_angle_beta 90.000000
_cell_angle_gamma 90.000000
_cell_volume 1719.057209
_symmetry_space_group_name_H-M "P B C N"
_symmetry_group_IT_number 60
_symmetry_cell_setting 'orthorhombic'
loop_
_space_group_symop_operation_xyz
x,y,z
1/2-x,1/2-y,1/2+z
1/2+x,1/2-y,-z
-x,y,1/2-z
-x,-y,-z
1/2+x,1/2+y,1/2-z
1/2-x,1/2+y,z
x,-y,1/2+z
loop_
_atom_site_type_symbol
_atom_site_label
_atom_site_fract_x
_atom_site_fract_y
_atom_site_fract_z
Si Si1 0.734000 0.255848 0.044856
Si Si2 0.621752 0.333464 0.345518
Si Si3 0.046964 0.358389 0.066433
Si Si4 0.265995 0.039450 0.711471
Si Si5 0.196687 0.603486 0.075822
O O1 0.716385 0.296363 0.220173
O O2 0.734094 0.323122 0.918836
O O3 0.853943 0.212140 0.011900
O O4 0.630440 0.199945 0.016727
O O5 0.500000 0.326115 0.250000
O O6 0.656977 0.415719 0.362988
O O7 0.122519 0.428391 0.112004
O O8 0.000000 0.334738 0.250000
O O9 0.939395 0.376563 0.945057
O O10 0.273360 0.064071 0.902371
O O11 0.270133 0.955104 0.709447
#
# Coordination Sequence:
#
# PCOD9454550 Si02
#       5
#     8   8   8   8   8
#     4  10  21  36  58  87 114 151 200 244 295 359
#     4  10  21  39  59  84 121 158 196 249 300 350
#     4   9  18  35  57  80 111 148 192 249 300 345
#     4   9  20  35  54  81 112 149 191 235 291 357
#     4  10  19  35  56  82 115 148 189 243 296 351
#
# _framework density 23.26857
#
# number of rings (size 3 to 8) (size 9 to 14) (size 15 to 20)
#    0.000    2.400    0.000    3.000    0.000    3.200 
#    0.000   10.000    0.000    0.000    0.000    0.000 
#    0.000    0.000    0.000    0.000    0.000    0.000 
#
# Total GULP energy -223396.597163 kJ/mol
# GULP energy per Si atom -5584.914929 kJ/mol
# Density = 2.321561 g / cm^3
# Si number density = 23.268570 Si / 1000 Ang^3
#
#
#
# Elastic Constant Matrix: (Units=GPa)
#
#
# Indices 1 2 3 4 5 6 
#
# 1 57.0265 25.7719 5.2808 0.0000 0.0000 0.0000
# 2 25.7719 116.0932 9.0029 0.0000 0.0000 0.0000
# 3 5.2808 9.0029 36.1327 0.0000 0.0000 0.0000
# 4 0.0000 0.0000 0.0000 38.8896 0.0000 0.0000
# 5 0.0000 0.0000 0.0000 0.0000 25.1857 0.0000
# 6 0.0000 0.0000 0.0000 0.0000 0.0000 19.1487
#
#
#
# Elastic Compliance Matrix: (Units=1/GPa)
#
#
# Indices 1 2 3 4 5 6 
#
# 1 0.019607 -0.004212 -0.001816 0.000000 0.000000 0.000000
# 2 -0.004212 0.009688 -0.001798 0.000000 0.000000 0.000000
# 3 -0.001816 -0.001798 0.028389 0.000000 0.000000 0.000000
# 4 0.000000 0.000000 0.000000 0.025714 0.000000 0.000000
# 5 0.000000 0.000000 0.000000 0.000000 0.039705 0.000000
# 6 0.000000 0.000000 0.000000 0.000000 0.000000 0.052223
#
#
# Mechanical properties :
#
#
# Convention : Reuss Voigt Hill
#
# Bulk Modulus (GPa) = 23.79138 32.15150 27.97144
# Shear Modulus (GPa) = 24.39142 27.92459 26.15800
#
# Velocity S-wave (km/s) = 3.24119 3.46800 3.35651
# Velocity P-wave (km/s) = 4.92483 5.46659 5.20277
#
# Compressibility (1/GPa) = 0.04203203
#
# Stress axis : x y z
#
# Youngs Moduli (GPa) = 51.00128 103.21805 35.22461
#
# Poissons Ratio (x) = 0.43474 0.06397
# Poissons Ratio (y) = 0.21481 0.06335
# Poissons Ratio (z) = 0.09263 0.18562
#
# Static dielectric constant tensor:
#      x y z
#    x 1.901460 0.000000 0.000000 
#    y 0.000000 1.896940 0.000000 
#    z 0.000000 0.000000 1.983680 
# 
# From -- ./inp_files/4764.got.cif
#   From: 2010.05.17/outbox.cif.g08.bks.cpg/sg60_3_cif.got.tgz:4764.got - 2010.06.03 14:59:27.
