data_PCOD9454284
_publ_section_title
;
Structure prediction by ZEFSAII (Michael W. Deem and Ramdas Pophale) SiO2 
 PCOD9454284
Probable space group: P B C N
;
_chemical_formula_sum "Si O2"
_cell_formula_units_Z 60
_cell_length_a 19.415253
_cell_length_b 25.266695
_cell_length_c 5.482012
_cell_angle_alpha 90.000000
_cell_angle_beta 90.000000
_cell_angle_gamma 90.000000
_cell_volume 2689.251837
_symmetry_space_group_name_H-M "P B C N"
_symmetry_group_IT_number 60
_symmetry_cell_setting 'orthorhombic'
loop_
_space_group_symop_operation_xyz
x,y,z
1/2-x,1/2-y,1/2+z
1/2+x,1/2-y,-z
-x,y,1/2-z
-x,-y,-z
1/2+x,1/2+y,1/2-z
1/2-x,1/2+y,z
x,-y,1/2+z
loop_
_atom_site_type_symbol
_atom_site_label
_atom_site_fract_x
_atom_site_fract_y
_atom_site_fract_z
Si Si1 0.789590 0.473630 0.418469
Si Si2 0.643107 0.865382 0.268061
Si Si3 0.659650 0.252300 0.763696
Si Si4 0.919671 0.330852 0.769373
Si Si5 0.000000 0.783713 0.750000
Si Si6 0.624866 0.473202 0.496076
Si Si7 0.939331 0.130360 0.890340
Si Si8 0.656617 0.715844 0.758011
O O1 0.814542 0.487920 0.694982
O O2 0.809994 0.416162 0.313445
O O3 0.707442 0.476010 0.460283
O O4 0.680768 0.808680 0.252331
O O5 0.600631 0.860096 0.519889
O O6 0.600436 0.863735 0.013447
O O7 0.573856 0.253822 0.790715
O O8 0.680807 0.287727 0.535180
O O9 0.693339 0.276692 0.003250
O O10 0.882925 0.273162 0.781190
O O11 0.000000 0.319886 0.750000
O O12 0.977899 0.823023 0.535234
O O13 0.600719 0.506081 0.731037
O O14 0.601739 0.412930 0.540009
O O15 0.887436 0.162830 0.721214
O O16 0.000000 0.101441 0.750000
#
# Coordination Sequence:
#
# PCOD9454284 Si02
#       8
#     8   8   8   8   4   8   8   8
#     4  10  21  43  66  79 102 144 208 252 285 331
#     4  10  20  31  57  85 106 151 193 237 278 333
#     4   9  18  28  48  78 116 138 189 213 256 337
#     4  10  19  30  52  86 124 147 184 222 274 354
#     4  10  20  32  52  88 120 160 176 210 272 360
#     4  10  25  43  61  83 108 148 196 252 290 327
#     4  11  21  34  58  84 121 152 186 224 287 350
#     4   9  18  29  47  77 112 153 181 208 256 332
#
# _framework density 22.311039000000001
#
# number of rings (size 3 to 8) (size 9 to 14) (size 15 to 20)
#    0.000    2.133    1.333    1.600   11.200    0.533 
#    0.000    0.000    0.000   17.600    0.000    0.000 
#    0.000    0.000    0.000    0.000    0.000    0.000 
#
# Total GULP energy -334204.403921 kJ/mol
# GULP energy per Si atom -5570.073399 kJ/mol
# Density = 2.226026 g / cm^3
# Si number density = 22.311039 Si / 1000 Ang^3
#
#
#
# Elastic Constant Matrix: (Units=GPa)
#
#
# Indices 1 2 3 4 5 6 
#
# 1 45.5285 10.1574 18.5526 0.0000 0.0000 0.0000
# 2 10.1574 67.9350 13.4896 0.0000 0.0000 0.0000
# 3 18.5526 13.4896 162.3665 0.0000 0.0000 0.0000
# 4 0.0000 0.0000 0.0000 17.5354 0.0000 0.0000
# 5 0.0000 0.0000 0.0000 0.0000 -5.5348 0.0000
# 6 0.0000 0.0000 0.0000 0.0000 0.0000 12.9464
#
#
#
# Elastic Compliance Matrix: (Units=1/GPa)
#
#
# Indices 1 2 3 4 5 6 
#
# 1 0.023642 -0.003049 -0.002448 0.000000 0.000000 0.000000
# 2 -0.003049 0.015360 -0.000928 0.000000 0.000000 0.000000
# 3 -0.002448 -0.000928 0.006516 0.000000 0.000000 0.000000
# 4 0.000000 0.000000 0.000000 0.057027 0.000000 0.000000
# 5 0.000000 0.000000 0.000000 0.000000 -0.180674 0.000000
# 6 0.000000 0.000000 0.000000 0.000000 0.000000 0.077241
#
#
# Mechanical properties :
#
#
# Convention : Reuss Voigt Hill
#
# Bulk Modulus (GPa) = 30.61057 40.02547 35.31802
# Shear Modulus (GPa) = 218.80409 20.56477 119.68443
#
# Velocity S-wave (km/s) = 9.91377 3.03930 7.33212
# Velocity P-wave (km/s) = 12.03301 5.50410 9.35651
#
# Compressibility (1/GPa) = 0.03266845
#
# Stress axis : x y z
#
# Youngs Moduli (GPa) = 42.29756 65.10408 153.47501
#
# Poissons Ratio (x) = 0.19849 0.37573
# Poissons Ratio (y) = 0.12896 0.14239
# Poissons Ratio (z) = 0.10355 0.06040
#
# Static dielectric constant tensor:
#      x y z
#    x 1.932280 0.000000 0.000000 
#    y 0.000000 1.787150 0.000000 
#    z 0.000000 0.000000 1.950580 
# 
# From -- ./inp_files/2177.got.cif
#   From: 2010.05.17/outbox.cif.g08.bks.cpg/sg60_2_cif.got.tgz:2177.got - 2010.06.03 14:59:27.
