data_PCOD9454369
_publ_section_title
;
Structure prediction by ZEFSAII (Michael W. Deem and Ramdas Pophale) SiO2 
 PCOD9454369
Probable space group: P B C N
;
_chemical_formula_sum "Si O2"
_cell_formula_units_Z 36
_cell_length_a 5.304579
_cell_length_b 24.841022
_cell_length_c 14.399439
_cell_angle_alpha 90.000000
_cell_angle_beta 90.000000
_cell_angle_gamma 90.000000
_cell_volume 1897.430833
_symmetry_space_group_name_H-M "P B C N"
_symmetry_group_IT_number 60
_symmetry_cell_setting 'orthorhombic'
loop_
_space_group_symop_operation_xyz
x,y,z
1/2-x,1/2-y,1/2+z
1/2+x,1/2-y,-z
-x,y,1/2-z
-x,-y,-z
1/2+x,1/2+y,1/2-z
1/2-x,1/2+y,z
x,-y,1/2+z
loop_
_atom_site_type_symbol
_atom_site_label
_atom_site_fract_x
_atom_site_fract_y
_atom_site_fract_z
Si Si1 0.476231 0.059790 0.960583
Si Si2 0.183331 0.187517 0.681758
Si Si3 0.025838 0.236590 0.058492
Si Si4 0.977037 0.873070 0.499940
Si Si5 0.500000 0.907770 0.250000
O O1 0.219844 0.088948 0.993708
O O2 0.476621 0.060855 0.847278
O O3 0.717825 0.093548 0.996739
O O4 0.500000 0.000000 0.000000
O O5 0.409551 0.224076 0.643688
O O6 0.274620 0.134429 0.735325
O O7 0.000000 0.219220 0.750000
O O8 0.040896 0.163765 0.592437
O O9 0.275257 0.243607 0.993963
O O10 0.995161 0.173061 0.078444
#
# Coordination Sequence:
#
# PCOD9454369 Si02
#       5
#     8   8   8   8   4
#     4  11  22  37  61  84 110 154 199 245 295 332
#     4  10  19  32  57  86 113 140 190 236 290 345
#     4  10  20  33  54  83 117 153 175 224 293 356
#     4  10  20  37  54  85 115 145 188 238 285 345
#     4  10  20  36  56  86 116 140 200 254 280 340
#
# _framework density 18.973022
#
# number of rings (size 3 to 8) (size 9 to 14) (size 15 to 20)
#    0.000    1.778    2.222    4.667    3.111    0.000 
#    0.000    0.000    2.444    0.000    0.000    0.000 
#    0.000    0.000    0.000    0.000    0.000    0.000 
#
# Total GULP energy -200682.014102 kJ/mol
# GULP energy per Si atom -5574.500392 kJ/mol
# Density = 1.892984 g / cm^3
# Si number density = 18.973022 Si / 1000 Ang^3
#
#
#
# Elastic Constant Matrix: (Units=GPa)
#
#
# Indices 1 2 3 4 5 6 
#
# 1 140.7704 48.7375 22.4970 0.0000 0.0000 0.0000
# 2 48.7375 134.5392 53.3543 0.0000 0.0000 0.0000
# 3 22.4970 53.3543 57.0033 0.0000 0.0000 0.0000
# 4 0.0000 0.0000 0.0000 7.1599 0.0000 0.0000
# 5 0.0000 0.0000 0.0000 0.0000 23.2573 0.0000
# 6 0.0000 0.0000 0.0000 0.0000 0.0000 31.4217
#
#
#
# Elastic Compliance Matrix: (Units=1/GPa)
#
#
# Indices 1 2 3 4 5 6 
#
# 1 0.008141 -0.002664 -0.000720 0.000000 0.000000 0.000000
# 2 -0.002664 0.012692 -0.010828 0.000000 0.000000 0.000000
# 3 -0.000720 -0.010828 0.027962 0.000000 0.000000 0.000000
# 4 0.000000 0.000000 0.000000 0.139667 0.000000 0.000000
# 5 0.000000 0.000000 0.000000 0.000000 0.042997 0.000000
# 6 0.000000 0.000000 0.000000 0.000000 0.000000 0.031825
#
#
# Mechanical properties :
#
#
# Convention : Reuss Voigt Hill
#
# Bulk Modulus (GPa) = 49.08800 64.61004 56.84902
# Shear Modulus (GPa) = 16.75055 26.21605 21.48330
#
# Velocity S-wave (km/s) = 2.97452 3.72123 3.36863
# Velocity P-wave (km/s) = 6.14213 7.25196 6.72000
#
# Compressibility (1/GPa) = 0.02037158
#
# Stress axis : x y z
#
# Youngs Moduli (GPa) = 122.83480 78.79081 35.76294
#
# Poissons Ratio (x) = 0.20987 0.02574
# Poissons Ratio (y) = 0.32719 0.38725
# Poissons Ratio (z) = 0.08841 0.85316
#
# Static dielectric constant tensor:
#      x y z
#    x 1.702000 0.000000 0.000000 
#    y 0.000000 1.661900 0.000000 
#    z 0.000000 0.000000 1.659060 
# 
# From -- ./inp_files/13719.got.cif
#   From: 2010.05.17/outbox.cif.g08.bks.cpg/sg60_7_cif.got.tgz:13719.got - 2010.06.03 14:59:27.
