data_PCOD9454676
_publ_section_title
;
Structure prediction by ZEFSAII (Michael W. Deem and Ramdas Pophale) SiO2 
 PCOD9454676
Probable space group: P B C N
;
_chemical_formula_sum "Si O2"
_cell_formula_units_Z 52
_cell_length_a 7.248315
_cell_length_b 14.998006
_cell_length_c 21.972092
_cell_angle_alpha 90.000000
_cell_angle_beta 90.000000
_cell_angle_gamma 90.000000
_cell_volume 2388.592095
_symmetry_space_group_name_H-M "P B C N"
_symmetry_group_IT_number 60
_symmetry_cell_setting 'orthorhombic'
loop_
_space_group_symop_operation_xyz
x,y,z
1/2-x,1/2-y,1/2+z
1/2+x,1/2-y,-z
-x,y,1/2-z
-x,-y,-z
1/2+x,1/2+y,1/2-z
1/2-x,1/2+y,z
x,-y,1/2+z
loop_
_atom_site_type_symbol
_atom_site_label
_atom_site_fract_x
_atom_site_fract_y
_atom_site_fract_z
Si Si1 0.000000 0.385998 0.250000
Si Si2 0.344103 0.223533 0.056648
Si Si3 0.294530 0.365258 0.155603
Si Si4 0.278012 0.279172 0.919697
Si Si5 0.247342 0.474993 0.940869
Si Si6 0.213566 0.881296 0.343791
Si Si7 0.802861 0.475638 0.925244
O O1 0.848509 0.338339 0.292178
O O2 0.855353 0.430391 0.202015
O O3 0.262211 0.303103 0.096653
O O4 0.556626 0.219472 0.075364
O O5 0.255408 0.128864 0.073316
O O6 0.342698 0.241358 0.984722
O O7 0.506321 0.360515 0.177725
O O8 0.253808 0.465847 0.132517
O O9 0.327700 0.382883 0.915038
O O10 0.313353 0.209548 0.865944
O O11 0.318803 0.559140 0.903718
O O12 0.025388 0.478967 0.931875
O O13 0.279305 0.482306 0.012880
#
# Coordination Sequence:
#
# PCOD9454676 Si02
#       7
#     4   8   8   8   8   8   8
#     4  12  26  48  70  82 130 182 226 268 320 382
#     4  10  21  35  62  99 135 164 208 268 332 390
#     4  11  24  43  67  95 126 174 221 267 320 389
#     4  10  21  35  62  99 135 164 208 268 332 390
#     4  10  19  36  64  98 134 169 202 261 336 389
#     4  11  24  43  67  95 126 174 221 267 320 389
#     4  10  19  36  64  98 134 169 202 261 336 389
#
# _framework density 21.770149
#
# number of rings (size 3 to 8) (size 9 to 14) (size 15 to 20)
#    0.000    1.538    4.615    0.462    2.154    1.846 
#    0.000    1.538    0.000    0.000    0.000    0.000 
#    0.000    0.000    0.000    0.000    0.000    0.000 
#
# Total GULP energy -290226.859535 kJ/mol
# GULP energy per Si atom -5581.285760 kJ/mol
# Density = 2.172060 g / cm^3
# Si number density = 21.770149 Si / 1000 Ang^3
#
#
#
# Elastic Constant Matrix: (Units=GPa)
#
#
# Indices 1 2 3 4 5 6 
#
# 1 109.3561 -4.5379 24.9151 0.0000 0.0000 0.0000
# 2 -4.5379 86.8643 1.7958 0.0000 0.0000 0.0000
# 3 24.9151 1.7958 74.2831 0.0000 0.0000 0.0000
# 4 0.0000 0.0000 0.0000 2.9025 0.0000 0.0000
# 5 0.0000 0.0000 0.0000 0.0000 32.2869 0.0000
# 6 0.0000 0.0000 0.0000 0.0000 0.0000 13.2375
#
#
#
# Elastic Compliance Matrix: (Units=1/GPa)
#
#
# Indices 1 2 3 4 5 6 
#
# 1 0.009931 0.000588 -0.003345 0.000000 0.000000 0.000000
# 2 0.000588 0.011553 -0.000477 0.000000 0.000000 0.000000
# 3 -0.003345 -0.000477 0.014596 0.000000 0.000000 0.000000
# 4 0.000000 0.000000 0.000000 0.344525 0.000000 0.000000
# 5 0.000000 0.000000 0.000000 0.000000 0.030972 0.000000
# 6 0.000000 0.000000 0.000000 0.000000 0.000000 0.075543
#
#
# Mechanical properties :
#
#
# Convention : Reuss Voigt Hill
#
# Bulk Modulus (GPa) = 33.77019 34.98329 34.37674
# Shear Modulus (GPa) = 9.93133 26.24075 18.08604
#
# Velocity S-wave (km/s) = 2.13818 3.47559 2.88544
# Velocity P-wave (km/s) = 4.65205 5.67543 5.18903
#
# Compressibility (1/GPa) = 0.02961192
#
# Stress axis : x y z
#
# Youngs Moduli (GPa) = 100.69507 86.55925 68.51414
#
# Poissons Ratio (x) = -0.05089 0.22919
# Poissons Ratio (y) = -0.05921 0.03265
# Poissons Ratio (z) = 0.33684 0.04125
#
# Static dielectric constant tensor:
#      x y z
#    x 1.855730 0.000000 0.000000 
#    y 0.000000 1.859970 0.000000 
#    z 0.000000 0.000000 1.804780 
# 
# From -- ./inp_files/22147.got.cif
#   From: 2010.05.17/outbox.cif.g08.bks.cpg/sg60_12_cif.got.tgz:22147.got - 2010.06.03 14:59:27.
