data_PCOD9454157
_publ_section_title
;
Structure prediction by ZEFSAII (Michael W. Deem and Ramdas Pophale) SiO2 
 PCOD9454157
Probable space group: P B C N
;
_chemical_formula_sum "Si O2"
_cell_formula_units_Z 64
_cell_length_a 16.690378
_cell_length_b 10.999401
_cell_length_c 17.526496
_cell_angle_alpha 90.000000
_cell_angle_beta 90.000000
_cell_angle_gamma 90.000000
_cell_volume 3217.587054
_symmetry_space_group_name_H-M "P B C N"
_symmetry_group_IT_number 60
_symmetry_cell_setting 'orthorhombic'
loop_
_space_group_symop_operation_xyz
x,y,z
1/2-x,1/2-y,1/2+z
1/2+x,1/2-y,-z
-x,y,1/2-z
-x,-y,-z
1/2+x,1/2+y,1/2-z
1/2-x,1/2+y,z
x,-y,1/2+z
loop_
_atom_site_type_symbol
_atom_site_label
_atom_site_fract_x
_atom_site_fract_y
_atom_site_fract_z
Si Si1 0.929433 0.356967 0.940580
Si Si2 0.799527 0.504562 0.356788
Si Si3 0.090698 0.388141 0.270902
Si Si4 0.719598 0.818636 0.496995
Si Si5 0.143741 0.894727 0.596784
Si Si6 0.020493 0.135277 0.329253
Si Si7 0.403345 0.035760 0.415821
Si Si8 0.397361 0.386801 0.984483
O O1 0.856577 0.383075 0.882543
O O2 0.009946 0.406545 0.903420
O O3 0.912635 0.441072 0.014436
O O4 0.943174 0.221873 0.972034
O O5 0.847457 0.422294 0.296024
O O6 0.787788 0.418199 0.429917
O O7 0.709489 0.554319 0.342823
O O8 0.072613 0.250928 0.300506
O O9 0.122575 0.462252 0.342691
O O10 0.000000 0.429872 0.250000
O O11 0.692552 0.693744 0.459106
O O12 0.658157 0.860439 0.561068
O O13 0.809638 0.827129 0.526368
O O14 0.067255 0.830846 0.635953
O O15 0.110318 0.001794 0.542723
O O16 0.065968 0.080331 0.402275
O O17 0.000000 0.065214 0.250000
#
# Coordination Sequence:
#
# PCOD9454157 Si02
#       8
#     8   8   8   8   8   8   8   8
#     4  10  18  36  58  88 118 156 208 263 307 365
#     4  10  21  37  64  92 128 159 210 269 320 385
#     4  11  20  36  61  95 122 162 206 262 329 379
#     4  10  21  37  61  94 119 162 210 267 320 375
#     4  11  23  41  64  92 125 172 219 264 326 390
#     4  11  24  39  62  90 129 169 213 263 328 400
#     4  10  20  32  61  87 120 154 207 265 314 376
#     4  11  22  39  65  86 122 168 214 265 312 388
#
# _framework density 19.890682999999999
#
# number of rings (size 3 to 8) (size 9 to 14) (size 15 to 20)
#    0.000    1.500    3.750    2.625    1.750    1.000 
#    0.000    0.000    5.500    0.000    0.000    0.000 
#    0.000    0.000    0.000    0.000    0.000    0.000 
#
# Total GULP energy -356798.476229 kJ/mol
# GULP energy per Si atom -5574.976191 kJ/mol
# Density = 1.984541 g / cm^3
# Si number density = 19.890683 Si / 1000 Ang^3
#
#
#
# Elastic Constant Matrix: (Units=GPa)
#
#
# Indices 1 2 3 4 5 6 
#
# 1 79.6473 -0.5490 36.6004 0.0000 0.0000 0.0000
# 2 -0.5490 53.8508 0.5632 0.0000 0.0000 0.0000
# 3 36.6004 0.5632 62.8910 0.0000 0.0000 0.0000
# 4 0.0000 0.0000 0.0000 19.2011 0.0000 0.0000
# 5 0.0000 0.0000 0.0000 0.0000 33.0306 0.0000
# 6 0.0000 0.0000 0.0000 0.0000 0.0000 19.8354
#
#
#
# Elastic Compliance Matrix: (Units=1/GPa)
#
#
# Indices 1 2 3 4 5 6 
#
# 1 0.017143 0.000279 -0.009979 0.000000 0.000000 0.000000
# 2 0.000279 0.018576 -0.000329 0.000000 0.000000 0.000000
# 3 -0.009979 -0.000329 0.021711 0.000000 0.000000 0.000000
# 4 0.000000 0.000000 0.000000 0.052080 0.000000 0.000000
# 5 0.000000 0.000000 0.000000 0.000000 0.030275 0.000000
# 6 0.000000 0.000000 0.000000 0.000000 0.000000 0.050415
#
#
# Mechanical properties :
#
#
# Convention : Reuss Voigt Hill
#
# Bulk Modulus (GPa) = 26.75764 29.95758 28.35761
# Shear Modulus (GPa) = 22.45018 25.06506 23.75762
#
# Velocity S-wave (km/s) = 3.36323 3.55370 3.45977
# Velocity P-wave (km/s) = 5.34446 5.65086 5.49979
#
# Compressibility (1/GPa) = 0.03737251
#
# Stress axis : x y z
#
# Youngs Moduli (GPa) = 58.33285 53.83255 46.05964
#
# Poissons Ratio (x) = -0.01503 0.45964
# Poissons Ratio (y) = -0.01628 0.01514
# Poissons Ratio (z) = 0.58211 0.01770
#
# Static dielectric constant tensor:
#      x y z
#    x 1.747790 0.000000 0.000000 
#    y 0.000000 1.719340 0.000000 
#    z 0.000000 0.000000 1.695380 
# 
# From -- ./inp_files/20657.got.cif
#   From: 2010.05.17/outbox.cif.g08.bks.cpg/sg60_11_cif.got.tgz:20657.got - 2010.06.03 14:59:27.
