data_PCOD9454109
_publ_section_title
;
Structure prediction by ZEFSAII (Michael W. Deem and Ramdas Pophale) SiO2 
 PCOD9454109
Probable space group: P B C N
;
_chemical_formula_sum "Si O2"
_cell_formula_units_Z 52
_cell_length_a 10.588371
_cell_length_b 16.814011
_cell_length_c 14.859963
_cell_angle_alpha 90.000000
_cell_angle_beta 90.000000
_cell_angle_gamma 90.000000
_cell_volume 2645.563592
_symmetry_space_group_name_H-M "P B C N"
_symmetry_group_IT_number 60
_symmetry_cell_setting 'orthorhombic'
loop_
_space_group_symop_operation_xyz
x,y,z
1/2-x,1/2-y,1/2+z
1/2+x,1/2-y,-z
-x,y,1/2-z
-x,-y,-z
1/2+x,1/2+y,1/2-z
1/2-x,1/2+y,z
x,-y,1/2+z
loop_
_atom_site_type_symbol
_atom_site_label
_atom_site_fract_x
_atom_site_fract_y
_atom_site_fract_z
Si Si1 0.000000 0.456360 0.750000
Si Si2 0.155615 0.605434 0.592344
Si Si3 0.000000 0.694784 0.750000
Si Si4 0.500000 0.408409 0.250000
Si Si5 0.236419 0.014390 0.222739
Si Si6 0.115690 0.212710 0.620413
Si Si7 0.550198 0.148047 0.087068
Si Si8 0.765543 0.193965 0.224516
O O1 0.869540 0.498166 0.725818
O O2 0.023447 0.401840 0.663193
O O3 0.066822 0.642327 0.671469
O O4 0.225573 0.526117 0.627692
O O5 0.267365 0.669040 0.574251
O O6 0.079588 0.597675 0.500796
O O7 0.110247 0.752506 0.788924
O O8 0.622816 0.462711 0.239039
O O9 0.475760 0.352972 0.164023
O O10 0.203991 0.107364 0.232004
O O11 0.177718 0.257656 0.705921
O O12 0.035097 0.275563 0.564700
O O13 0.678499 0.176263 0.137663
#
# Coordination Sequence:
#
# PCOD9454109 Si02
#       8
#     4   8   4   4   8   8   8   8
#     4  10  20  38  62  82 122 158 206 236 312 360
#     4  10  24  34  60  89 124 145 205 253 302 338
#     4  10  22  40  57  93 120 152 192 262 292 350
#     4  10  18  34  63  81 118 154 200 246 298 340
#     4  10  20  37  57  89 114 160 196 251 287 363
#     4  10  18  38  57  84 112 160 194 242 295 369
#     4  11  19  37  61  87 113 164 196 244 290 378
#     4  10  19  37  64  80 118 160 200 230 308 362
#
# _framework density 19.655548
#
# number of rings (size 3 to 8) (size 9 to 14) (size 15 to 20)
#    0.000    1.846    4.615    0.923    2.154    0.615 
#    0.000    0.000   10.154    8.308    0.000    0.000 
#    0.000    0.000    0.000    0.000    0.000    0.000 
#
# Total GULP energy -289729.961802 kJ/mol
# GULP energy per Si atom -5571.730035 kJ/mol
# Density = 1.961081 g / cm^3
# Si number density = 19.655548 Si / 1000 Ang^3
#
#
#
# Elastic Constant Matrix: (Units=GPa)
#
#
# Indices 1 2 3 4 5 6 
#
# 1 97.0645 28.9919 3.6936 0.0000 0.0000 0.0000
# 2 28.9919 85.5344 18.3572 0.0000 0.0000 0.0000
# 3 3.6936 18.3572 55.0715 0.0000 0.0000 0.0000
# 4 0.0000 0.0000 0.0000 -3.4387 0.0000 0.0000
# 5 0.0000 0.0000 0.0000 0.0000 21.2376 0.0000
# 6 0.0000 0.0000 0.0000 0.0000 0.0000 15.5112
#
#
#
# Elastic Compliance Matrix: (Units=1/GPa)
#
#
# Indices 1 2 3 4 5 6 
#
# 1 0.011479 -0.004013 0.000568 0.000000 0.000000 0.000000
# 2 -0.004013 0.013995 -0.004396 0.000000 0.000000 0.000000
# 3 0.000568 -0.004396 0.019585 0.000000 0.000000 0.000000
# 4 0.000000 0.000000 0.000000 -0.290809 0.000000 0.000000
# 5 0.000000 0.000000 0.000000 0.000000 0.047086 0.000000
# 6 0.000000 0.000000 0.000000 0.000000 0.000000 0.064470
#
#
# Mechanical properties :
#
#
# Convention : Reuss Voigt Hill
#
# Bulk Modulus (GPa) = 34.03935 37.75065 35.89500
# Shear Modulus (GPa) = -45.99020 19.10386 -13.44317
#
# Velocity S-wave (km/s) = -4.84240 3.12096 -2.61806
# Velocity P-wave (km/s) = 3.72956 5.67759 3.02700
#
# Compressibility (1/GPa) = 0.02937776
#
# Stress axis : x y z
#
# Youngs Moduli (GPa) = 87.11269 71.45535 51.05840
#
# Poissons Ratio (x) = 0.28673 -0.02898
# Poissons Ratio (y) = 0.34956 0.22444
# Poissons Ratio (z) = -0.04945 0.31410
#
# Static dielectric constant tensor:
#      x y z
#    x 1.708210 0.000000 0.000000 
#    y 0.000000 1.755010 0.000000 
#    z 0.000000 0.000000 1.669920 
# 
# From -- ./inp_files/16317.got.cif
#   From: 2010.05.17/outbox.cif.g08.bks.cpg/sg60_9_cif.got.tgz:16317.got - 2010.06.03 14:59:27.
