data_PCOD9454474
_publ_section_title
;
Structure prediction by ZEFSAII (Michael W. Deem and Ramdas Pophale) SiO2 
 PCOD9454474
Probable space group: P B C N
;
_chemical_formula_sum "Si O2"
_cell_formula_units_Z 40
_cell_length_a 4.946094
_cell_length_b 16.190024
_cell_length_c 24.686251
_cell_angle_alpha 90.000000
_cell_angle_beta 90.000000
_cell_angle_gamma 90.000000
_cell_volume 1976.810316
_symmetry_space_group_name_H-M "P B C N"
_symmetry_group_IT_number 60
_symmetry_cell_setting 'orthorhombic'
loop_
_space_group_symop_operation_xyz
x,y,z
1/2-x,1/2-y,1/2+z
1/2+x,1/2-y,-z
-x,y,1/2-z
-x,-y,-z
1/2+x,1/2+y,1/2-z
1/2-x,1/2+y,z
x,-y,1/2+z
loop_
_atom_site_type_symbol
_atom_site_label
_atom_site_fract_x
_atom_site_fract_y
_atom_site_fract_z
Si Si1 0.518821 0.525955 0.315171
Si Si2 0.519439 0.927214 0.185126
Si Si3 0.178516 0.823063 0.613848
Si Si4 0.799541 0.306102 0.002090
Si Si5 0.179904 0.792795 0.382659
O O1 0.500000 0.534134 0.250000
O O2 0.214444 0.503356 0.331436
O O3 0.648889 0.606044 0.341946
O O4 0.715074 0.449621 0.331527
O O5 0.500000 0.920679 0.250000
O O6 0.674469 0.848421 0.161975
O O7 0.262315 0.854794 0.553893
O O8 0.390753 0.749462 0.627927
O O9 0.882290 0.783977 0.609214
O O10 0.696659 0.340427 0.059463
O O11 0.606965 0.225197 0.993829
#
# Coordination Sequence:
#
# PCOD9454474 Si02
#       5
#     8   8   8   8   8
#     4  10  21  37  53  73 107 144 173 213 270 316
#     4  10  21  37  53  73 107 144 173 213 270 316
#     4  10  19  34  56  80 104 136 180 222 260 314
#     4   8  16  30  50  76 106 134 164 216 276 310
#     4  10  19  34  56  80 104 136 180 222 260 314
#
# _framework density 20.234615000000002
#
# number of rings (size 3 to 8) (size 9 to 14) (size 15 to 20)
#    0.000    2.400    0.000    2.400    0.000    0.800 
#    0.000    4.000    0.000    0.000    0.000    0.000 
#    0.000    0.000    0.000    0.000    0.000    0.000 
#
# Total GULP energy -222678.382192 kJ/mol
# GULP energy per Si atom -5566.959555 kJ/mol
# Density = 2.018856 g / cm^3
# Si number density = 20.234615 Si / 1000 Ang^3
#
#
#
# Elastic Constant Matrix: (Units=GPa)
#
#
# Indices 1 2 3 4 5 6 
#
# 1 104.0264 8.0723 29.0506 0.0000 0.0000 0.0000
# 2 8.0723 37.4224 31.0753 0.0000 0.0000 0.0000
# 3 29.0506 31.0753 61.5057 0.0000 0.0000 0.0000
# 4 0.0000 0.0000 0.0000 422.8560 0.0000 0.0000
# 5 0.0000 0.0000 0.0000 0.0000 23.2903 0.0000
# 6 0.0000 0.0000 0.0000 0.0000 0.0000 17.6136
#
#
#
# Elastic Compliance Matrix: (Units=1/GPa)
#
#
# Indices 1 2 3 4 5 6 
#
# 1 0.011325 0.003444 -0.007089 0.000000 0.000000 0.000000
# 2 0.003444 0.047084 -0.025415 0.000000 0.000000 0.000000
# 3 -0.007089 -0.025415 0.032448 0.000000 0.000000 0.000000
# 4 0.000000 0.000000 0.000000 0.002365 0.000000 0.000000
# 5 0.000000 0.000000 0.000000 0.000000 0.042936 0.000000
# 6 0.000000 0.000000 0.000000 0.000000 0.000000 0.056774
#
#
# Mechanical properties :
#
#
# Convention : Reuss Voigt Hill
#
# Bulk Modulus (GPa) = 30.54761 37.70564 34.12662
# Shear Modulus (GPa) = 19.08642 101.73574 60.41108
#
# Velocity S-wave (km/s) = 3.07458 7.09840 5.46993
# Velocity P-wave (km/s) = 5.26626 9.26594 7.53628
#
# Compressibility (1/GPa) = 0.03273579
#
# Stress axis : x y z
#
# Youngs Moduli (GPa) = 88.29659 21.23871 30.81850
#
# Poissons Ratio (x) = -0.07314 0.21848
# Poissons Ratio (y) = -0.30409 0.78326
# Poissons Ratio (z) = 0.62596 0.53979
#
# Static dielectric constant tensor:
#      x y z
#    x 1.704860 0.000000 0.000000 
#    y 0.000000 1.693160 0.000000 
#    z 0.000000 0.000000 1.790370 
# 
# From -- ./inp_files/2301.got.cif
#   From: 2010.05.17/outbox.cif.g08.bks.cpg/sg60_2_cif.got.tgz:2301.got - 2010.06.03 14:59:27.
