data_PCOD9454658
_publ_section_title
;
Structure prediction by ZEFSAII (Michael W. Deem and Ramdas Pophale) SiO2 
 PCOD9454658
Probable space group: P B C N
;
_chemical_formula_sum "Si O2"
_cell_formula_units_Z 52
_cell_length_a 9.821351
_cell_length_b 8.999886
_cell_length_c 27.478680
_cell_angle_alpha 90.000000
_cell_angle_beta 90.000000
_cell_angle_gamma 90.000000
_cell_volume 2428.869086
_symmetry_space_group_name_H-M "P B C N"
_symmetry_group_IT_number 60
_symmetry_cell_setting 'orthorhombic'
loop_
_space_group_symop_operation_xyz
x,y,z
1/2-x,1/2-y,1/2+z
1/2+x,1/2-y,-z
-x,y,1/2-z
-x,-y,-z
1/2+x,1/2+y,1/2-z
1/2-x,1/2+y,z
x,-y,1/2+z
loop_
_atom_site_type_symbol
_atom_site_label
_atom_site_fract_x
_atom_site_fract_y
_atom_site_fract_z
Si Si1 0.500000 0.614643 0.250000
Si Si2 0.672697 0.366198 0.897510
Si Si3 0.126637 0.109746 0.992404
Si Si4 0.521119 0.916895 0.859683
Si Si5 0.344714 0.845187 0.191250
Si Si6 0.462235 0.408313 0.167327
Si Si7 0.894641 0.560481 0.040866
O O1 0.382510 0.723685 0.230906
O O2 0.542536 0.512344 0.204544
O O3 0.828207 0.400935 0.883651
O O4 0.634511 0.234246 0.861230
O O5 0.576277 0.503514 0.881950
O O6 0.663422 0.331255 0.953639
O O7 0.102310 0.259814 0.962148
O O8 0.250177 0.011414 0.972227
O O9 0.000000 0.000000 0.000000
O O10 0.478193 0.752299 0.843358
O O11 0.431101 0.979403 0.903467
O O12 0.551041 0.018499 0.812777
O O13 0.186931 0.889308 0.192839
O O14 0.000000 0.500000 0.000000
#
# Coordination Sequence:
#
# PCOD9454658 Si02
#       7
#     4   8   8   8   8   8   8
#     4  10  20  38  62  90 118 152 196 252 324 368
#     4   9  18  35  60  89 118 154 205 258 313 354
#     4  12  25  38  62  94 130 171 216 270 310 374
#     4  10  19  36  62  87 119 158 209 258 311 363
#     4   9  19  35  64  91 115 154 202 258 305 380
#     4   9  19  35  64  92 117 154 202 259 305 383
#     4  12  24  40  63  92 127 171 218 267 314 368
#
# _framework density 21.409143
#
# number of rings (size 3 to 8) (size 9 to 14) (size 15 to 20)
#    0.000    1.846    1.538    3.692    4.308    0.615 
#    0.000    0.000   23.692    0.000    0.000    0.000 
#    0.000    0.000    0.000    0.000    0.000    0.000 
#
# Total GULP energy -290369.112446 kJ/mol
# GULP energy per Si atom -5584.021393 kJ/mol
# Density = 2.136041 g / cm^3
# Si number density = 21.409143 Si / 1000 Ang^3
#
#
#
# Elastic Constant Matrix: (Units=GPa)
#
#
# Indices 1 2 3 4 5 6 
#
# 1 62.1814 27.4276 14.9066 0.0000 0.0000 0.0000
# 2 27.4276 95.6846 12.7300 0.0000 0.0000 0.0000
# 3 14.9066 12.7300 79.8673 0.0000 0.0000 0.0000
# 4 0.0000 0.0000 0.0000 34.7005 0.0000 0.0000
# 5 0.0000 0.0000 0.0000 0.0000 17.8454 0.0000
# 6 0.0000 0.0000 0.0000 0.0000 0.0000 24.1733
#
#
#
# Elastic Compliance Matrix: (Units=1/GPa)
#
#
# Indices 1 2 3 4 5 6 
#
# 1 0.018976 -0.005076 -0.002733 0.000000 0.000000 0.000000
# 2 -0.005076 0.012035 -0.000971 0.000000 0.000000 0.000000
# 3 -0.002733 -0.000971 0.013186 0.000000 0.000000 0.000000
# 4 0.000000 0.000000 0.000000 0.028818 0.000000 0.000000
# 5 0.000000 0.000000 0.000000 0.000000 0.056037 0.000000
# 6 0.000000 0.000000 0.000000 0.000000 0.000000 0.041368
#
#
# Mechanical properties :
#
#
# Convention : Reuss Voigt Hill
#
# Bulk Modulus (GPa) = 37.54058 38.65129 38.09594
# Shear Modulus (GPa) = 25.39908 27.52180 26.46044
#
# Velocity S-wave (km/s) = 3.44810 3.58930 3.51941
# Velocity P-wave (km/s) = 5.78148 5.93888 5.86070
#
# Compressibility (1/GPa) = 0.02663784
#
# Stress axis : x y z
#
# Youngs Moduli (GPa) = 52.69823 83.09006 75.84064
#
# Poissons Ratio (x) = 0.42175 0.20725
# Poissons Ratio (y) = 0.26749 0.07363
# Poissons Ratio (z) = 0.14401 0.08067
#
# Static dielectric constant tensor:
#      x y z
#    x 1.774410 0.000000 0.000000 
#    y 0.000000 1.839530 0.000000 
#    z 0.000000 0.000000 1.777990 
# 
# From -- ./inp_files/25301.got.cif
#   From: 2010.05.17/outbox.cif.g08.bks.cpg/sg60_13_cif.got.tgz:25301.got - 2010.06.03 14:59:27.
