data_PCOD9454150
_publ_section_title
;
Structure prediction by ZEFSAII (Michael W. Deem and Ramdas Pophale) SiO2 
 PCOD9454150
Probable space group: P B C N
;
_chemical_formula_sum "Si O2"
_cell_formula_units_Z 60
_cell_length_a 17.039413
_cell_length_b 18.635499
_cell_length_c 9.336030
_cell_angle_alpha 90.000000
_cell_angle_beta 90.000000
_cell_angle_gamma 90.000000
_cell_volume 2964.543957
_symmetry_space_group_name_H-M "P B C N"
_symmetry_group_IT_number 60
_symmetry_cell_setting 'orthorhombic'
loop_
_space_group_symop_operation_xyz
x,y,z
1/2-x,1/2-y,1/2+z
1/2+x,1/2-y,-z
-x,y,1/2-z
-x,-y,-z
1/2+x,1/2+y,1/2-z
1/2-x,1/2+y,z
x,-y,1/2+z
loop_
_atom_site_type_symbol
_atom_site_label
_atom_site_fract_x
_atom_site_fract_y
_atom_site_fract_z
Si Si1 0.000000 0.830063 0.750000
Si Si2 0.191625 0.669726 0.166638
Si Si3 0.240074 0.039291 0.315603
Si Si4 0.511580 0.399318 0.052429
Si Si5 0.216522 0.624193 0.843638
Si Si6 0.350332 0.760093 0.154495
Si Si7 0.130939 0.987313 0.065938
Si Si8 0.124876 0.784551 0.339987
O O1 0.013031 0.878364 0.890199
O O2 0.924944 0.780932 0.781677
O O3 0.199802 0.600522 0.268116
O O4 0.273974 0.711787 0.187829
O O5 0.126790 0.728160 0.211047
O O6 0.188093 0.645394 0.002470
O O7 0.194116 0.051723 0.464458
O O8 0.278250 0.960785 0.328394
O O9 0.175952 0.031362 0.187807
O O10 0.580457 0.457677 0.030849
O O11 0.434892 0.433172 0.124647
O O12 0.548131 0.329512 0.123410
O O13 0.163100 0.663510 0.727015
O O14 0.303656 0.658441 0.824981
O O15 0.356925 0.760927 0.983597
#
# Coordination Sequence:
#
# PCOD9454150 Si02
#       8
#     4   8   8   8   8   8   8   8
#     4  10  18  36  56  78 116 146 198 222 300 346
#     4  10  20  35  55  76 116 148 190 248 288 339
#     4  12  21  36  53  84 116 157 192 244 291 353
#     4  10  19  35  52  82 118 163 185 237 275 368
#     4  10  20  36  51  80 110 140 198 245 288 346
#     4   9  19  34  58  78 105 147 189 236 286 350
#     4  11  22  33  54  80 125 153 198 226 293 348
#     4   9  18  36  54  75 109 152 197 240 285 340
#
# _framework density 20.239198999999999
#
# number of rings (size 3 to 8) (size 9 to 14) (size 15 to 20)
#    0.000    1.867    2.667    3.200    1.867    1.600 
#    4.800    0.000    0.000    0.000    0.000    8.400 
#    0.000    0.000    0.000    0.000    0.000    0.000 
#
# Total GULP energy -335476.263874 kJ/mol
# GULP energy per Si atom -5591.271065 kJ/mol
# Density = 2.019313 g / cm^3
# Si number density = 20.239199 Si / 1000 Ang^3
#
#
#
# Elastic Constant Matrix: (Units=GPa)
#
#
# Indices 1 2 3 4 5 6 
#
# 1 26.6418 15.5030 7.8402 0.0000 0.0000 0.0000
# 2 15.5030 106.7461 24.2883 0.0000 0.0000 0.0000
# 3 7.8402 24.2883 46.7870 0.0000 0.0000 0.0000
# 4 0.0000 0.0000 0.0000 35.5098 0.0000 0.0000
# 5 0.0000 0.0000 0.0000 0.0000 27.2906 0.0000
# 6 0.0000 0.0000 0.0000 0.0000 0.0000 30.1276
#
#
#
# Elastic Compliance Matrix: (Units=1/GPa)
#
#
# Indices 1 2 3 4 5 6 
#
# 1 0.041772 -0.005073 -0.004366 0.000000 0.000000 0.000000
# 2 -0.005073 0.011239 -0.004984 0.000000 0.000000 0.000000
# 3 -0.004366 -0.004984 0.024693 0.000000 0.000000 0.000000
# 4 0.000000 0.000000 0.000000 0.028161 0.000000 0.000000
# 5 0.000000 0.000000 0.000000 0.000000 0.036643 0.000000
# 6 0.000000 0.000000 0.000000 0.000000 0.000000 0.033192
#
#
# Mechanical properties :
#
#
# Convention : Reuss Voigt Hill
#
# Bulk Modulus (GPa) = 20.46827 30.60422 25.53624
# Shear Modulus (GPa) = 22.64164 27.42185 25.03174
#
# Velocity S-wave (km/s) = 3.34833 3.68487 3.52063
# Velocity P-wave (km/s) = 5.00835 5.76702 5.40102
#
# Compressibility (1/GPa) = 0.04885611
#
# Stress axis : x y z
#
# Youngs Moduli (GPa) = 23.93949 88.97672 40.49806
#
# Poissons Ratio (x) = 0.45140 0.17682
# Poissons Ratio (y) = 0.12145 0.20185
# Poissons Ratio (z) = 0.10452 0.44348
#
# Static dielectric constant tensor:
#      x y z
#    x 1.715100 0.000000 0.000000 
#    y 0.000000 1.721910 0.000000 
#    z 0.000000 0.000000 1.767180 
# 
# From -- ./inp_files/6914.got.cif
#   From: 2010.05.17/outbox.cif.g08.bks.cpg/sg60_4_cif.got.tgz:6914.got - 2010.06.03 14:59:27.
