data_PCOD9454069
_publ_section_title
;
Structure prediction by ZEFSAII (Michael W. Deem and Ramdas Pophale) SiO2 
 PCOD9454069
Probable space group: P B C N
;
_chemical_formula_sum "Si O2"
_cell_formula_units_Z 52
_cell_length_a 18.030823
_cell_length_b 18.775358
_cell_length_c 8.318705
_cell_angle_alpha 90.000000
_cell_angle_beta 90.000000
_cell_angle_gamma 90.000000
_cell_volume 2816.174102
_symmetry_space_group_name_H-M "P B C N"
_symmetry_group_IT_number 60
_symmetry_cell_setting 'orthorhombic'
loop_
_space_group_symop_operation_xyz
x,y,z
1/2-x,1/2-y,1/2+z
1/2+x,1/2-y,-z
-x,y,1/2-z
-x,-y,-z
1/2+x,1/2+y,1/2-z
1/2-x,1/2+y,z
x,-y,1/2+z
loop_
_atom_site_type_symbol
_atom_site_label
_atom_site_fract_x
_atom_site_fract_y
_atom_site_fract_z
Si Si1 0.018669 0.666811 0.513968
Si Si2 0.292411 0.294395 0.393949
Si Si3 0.274261 0.092572 0.076325
Si Si4 0.335642 0.026610 0.755330
Si Si5 0.609807 0.795029 0.799789
Si Si6 0.000000 0.461208 0.250000
Si Si7 0.164573 0.683479 0.653718
O O1 0.068070 0.667331 0.350905
O O2 0.076632 0.699740 0.643462
O O3 0.945919 0.706870 0.450507
O O4 0.997285 0.591279 0.593644
O O5 0.295424 0.367622 0.495389
O O6 0.357133 0.279472 0.264783
O O7 0.298444 0.227101 0.510650
O O8 0.212636 0.296024 0.307943
O O9 0.321385 0.156398 0.151909
O O10 0.274060 0.030699 0.207737
O O11 0.319908 0.055096 0.932924
O O12 0.420915 0.999601 0.743680
O O13 0.331243 0.097643 0.644954
#
# Coordination Sequence:
#
# PCOD9454069 Si02
#       7
#     8   8   8   8   8   4   8
#     4   9  19  31  51  75 105 136 184 228 262 317
#     4  10  19  34  55  71 100 145 184 229 277 315
#     4  11  22  35  49  75 104 147 185 225 264 324
#     4  10  23  32  48  74 110 145 185 221 261 324
#     4  10  19  35  52  71 104 145 183 227 270 318
#     4  10  18  34  46  74 112 150 184 212 262 312
#     4   9  19  34  51  75 103 140 182 227 273 320
#
# _framework density 18.464767999999999
#
# number of rings (size 3 to 8) (size 9 to 14) (size 15 to 20)
#    0.000    2.154    3.077    0.000    6.462    1.846 
#    0.000    0.000    0.000    0.000    0.000    0.000 
#    0.000   99.692    0.000    0.000    0.000   15.769 
#
# Total GULP energy -289520.208225 kJ/mol
# GULP energy per Si atom -5567.696312 kJ/mol
# Density = 1.842274 g / cm^3
# Si number density = 18.464768 Si / 1000 Ang^3
#
#
#
# Elastic Constant Matrix: (Units=GPa)
#
#
# Indices 1 2 3 4 5 6 
#
# 1 44.0759 32.9401 11.2863 0.0000 0.0000 0.0000
# 2 32.9401 64.7851 13.3722 0.0000 0.0000 0.0000
# 3 11.2863 13.3722 42.1730 0.0000 0.0000 0.0000
# 4 0.0000 0.0000 0.0000 23.7278 0.0000 0.0000
# 5 0.0000 0.0000 0.0000 0.0000 39.6629 0.0000
# 6 0.0000 0.0000 0.0000 0.0000 0.0000 19.5997
#
#
#
# Elastic Compliance Matrix: (Units=1/GPa)
#
#
# Indices 1 2 3 4 5 6 
#
# 1 0.037290 -0.018084 -0.004246 0.000000 0.000000 0.000000
# 2 -0.018084 0.025287 -0.003178 0.000000 0.000000 0.000000
# 3 -0.004246 -0.003178 0.025856 0.000000 0.000000 0.000000
# 4 0.000000 0.000000 0.000000 0.042145 0.000000 0.000000
# 5 0.000000 0.000000 0.000000 0.000000 0.025213 0.000000
# 6 0.000000 0.000000 0.000000 0.000000 0.000000 0.051021
#
#
# Mechanical properties :
#
#
# Convention : Reuss Voigt Hill
#
# Bulk Modulus (GPa) = 26.72575 29.58124 28.15349
# Shear Modulus (GPa) = 18.49803 22.82710 20.66257
#
# Velocity S-wave (km/s) = 3.16856 3.51985 3.34881
# Velocity P-wave (km/s) = 5.28126 5.70739 5.49845
#
# Compressibility (1/GPa) = 0.03741710
#
# Stress axis : x y z
#
# Youngs Moduli (GPa) = 26.81654 39.54675 38.67608
#
# Poissons Ratio (x) = 0.71517 0.16420
# Poissons Ratio (y) = 0.48495 0.12292
# Poissons Ratio (z) = 0.11385 0.12569
#
# Static dielectric constant tensor:
#      x y z
#    x 1.673020 0.000000 0.000000 
#    y 0.000000 1.654720 0.000000 
#    z 0.000000 0.000000 1.769390 
# 
# From -- ./inp_files/6881.got.cif
#   From: 2010.05.17/outbox.cif.g08.bks.cpg/sg60_4_cif.got.tgz:6881.got - 2010.06.03 14:59:27.
