data_PCOD9454389
_publ_section_title
;
Structure prediction by ZEFSAII (Michael W. Deem and Ramdas Pophale) SiO2 
 PCOD9454389
Probable space group: P B C N
;
_chemical_formula_sum "Si O2"
_cell_formula_units_Z 60
_cell_length_a 6.505687
_cell_length_b 24.484512
_cell_length_c 21.146789
_cell_angle_alpha 90.000000
_cell_angle_beta 90.000000
_cell_angle_gamma 90.000000
_cell_volume 3368.441810
_symmetry_space_group_name_H-M "P B C N"
_symmetry_group_IT_number 60
_symmetry_cell_setting 'orthorhombic'
loop_
_space_group_symop_operation_xyz
x,y,z
1/2-x,1/2-y,1/2+z
1/2+x,1/2-y,-z
-x,y,1/2-z
-x,-y,-z
1/2+x,1/2+y,1/2-z
1/2-x,1/2+y,z
x,-y,1/2+z
loop_
_atom_site_type_symbol
_atom_site_label
_atom_site_fract_x
_atom_site_fract_y
_atom_site_fract_z
Si Si1 0.812951 0.591923 0.352878
Si Si2 0.000000 0.060149 0.250000
Si Si3 0.264478 0.372066 0.016896
Si Si4 0.094347 0.054116 0.027757
Si Si5 0.388198 0.906624 0.414356
Si Si6 0.131497 0.497865 0.811948
Si Si7 0.066777 0.306224 0.562532
Si Si8 0.147312 0.803273 0.440772
O O1 0.658579 0.594056 0.293458
O O2 0.704502 0.554373 0.405859
O O3 0.854006 0.650906 0.384911
O O4 0.015232 0.557093 0.335919
O O5 0.142623 0.021360 0.292559
O O6 0.397104 0.407026 0.968289
O O7 0.099589 0.337980 0.979046
O O8 0.436724 0.336449 0.050489
O O9 0.127754 0.405505 0.066586
O O10 0.258092 0.075815 0.976355
O O11 0.000000 0.000000 0.000000
O O12 0.302085 0.844449 0.403445
O O13 0.358340 0.952150 0.360988
O O14 0.000000 0.514949 0.750000
O O15 0.246106 0.292615 0.510295
O O16 0.938334 0.253743 0.586509
#
# Coordination Sequence:
#
# PCOD9454389 Si02
#       8
#     8   4   8   8   8   8   8   8
#     4  11  22  36  57  89 116 161 195 243 302 357
#     4  10  24  42  58  82 114 158 206 242 300 358
#     4  10  19  33  51  83 122 147 181 231 287 364
#     4  11  21  30  52  87 122 151 177 232 306 359
#     4  10  21  36  54  89 117 150 192 239 300 358
#     4  10  23  41  60  85 114 157 202 248 295 360
#     4  11  20  34  56  85 122 155 193 235 293 359
#     4  10  20  34  54  88 117 155 189 229 300 356
#
# _framework density 17.812391000000002
#
# number of rings (size 3 to 8) (size 9 to 14) (size 15 to 20)
#    0.000    1.600    5.333    1.600    3.733    4.267 
#    0.000    0.000    0.000    0.000   22.533    0.000 
#    0.000    0.000    0.000    0.000    0.000    0.000 
#
# Total GULP energy -334197.183224 kJ/mol
# GULP energy per Si atom -5569.953054 kJ/mol
# Density = 1.777185 g / cm^3
# Si number density = 17.812391 Si / 1000 Ang^3
#
#
#
# Elastic Constant Matrix: (Units=GPa)
#
#
# Indices 1 2 3 4 5 6 
#
# 1 106.2678 23.1139 28.8801 0.0000 0.0000 0.0000
# 2 23.1139 60.5499 25.1723 0.0000 0.0000 0.0000
# 3 28.8801 25.1723 62.1225 0.0000 0.0000 0.0000
# 4 0.0000 0.0000 0.0000 22.7275 0.0000 0.0000
# 5 0.0000 0.0000 0.0000 0.0000 28.3506 0.0000
# 6 0.0000 0.0000 0.0000 0.0000 0.0000 17.8002
#
#
#
# Elastic Compliance Matrix: (Units=1/GPa)
#
#
# Indices 1 2 3 4 5 6 
#
# 1 0.011080 -0.002511 -0.004133 0.000000 0.000000 0.000000
# 2 -0.002511 0.020430 -0.007111 0.000000 0.000000 0.000000
# 3 -0.004133 -0.007111 0.020900 0.000000 0.000000 0.000000
# 4 0.000000 0.000000 0.000000 0.043999 0.000000 0.000000
# 5 0.000000 0.000000 0.000000 0.000000 0.035273 0.000000
# 6 0.000000 0.000000 0.000000 0.000000 0.000000 0.056179
#
#
# Mechanical properties :
#
#
# Convention : Reuss Voigt Hill
#
# Bulk Modulus (GPa) = 40.16206 42.58587 41.37397
# Shear Modulus (GPa) = 22.35419 23.89394 23.12406
#
# Velocity S-wave (km/s) = 3.54641 3.66652 3.60696
# Velocity P-wave (km/s) = 6.27420 6.47181 6.37377
#
# Compressibility (1/GPa) = 0.02489912
#
# Stress axis : x y z
#
# Youngs Moduli (GPa) = 90.25541 48.94732 47.84658
#
# Poissons Ratio (x) = 0.12291 0.19776
# Poissons Ratio (y) = 0.22664 0.34024
# Poissons Ratio (z) = 0.37305 0.34806
#
# Static dielectric constant tensor:
#      x y z
#    x 1.584470 0.000000 0.000000 
#    y 0.000000 1.627960 0.000000 
#    z 0.000000 0.000000 1.615730 
# 
# From -- ./inp_files/21769.got.cif
#   From: 2010.05.17/outbox.cif.g08.bks.cpg/sg60_11_cif.got.tgz:21769.got - 2010.06.03 14:59:27.
