data_PCOD9454457
_publ_section_title
;
Structure prediction by ZEFSAII (Michael W. Deem and Ramdas Pophale) SiO2 
 PCOD9454457
Probable space group: P B C N
;
_chemical_formula_sum "Si O2"
_cell_formula_units_Z 56
_cell_length_a 5.126556
_cell_length_b 19.867162
_cell_length_c 25.638306
_cell_angle_alpha 90.000000
_cell_angle_beta 90.000000
_cell_angle_gamma 90.000000
_cell_volume 2611.264506
_symmetry_space_group_name_H-M "P B C N"
_symmetry_group_IT_number 60
_symmetry_cell_setting 'orthorhombic'
loop_
_space_group_symop_operation_xyz
x,y,z
1/2-x,1/2-y,1/2+z
1/2+x,1/2-y,-z
-x,y,1/2-z
-x,-y,-z
1/2+x,1/2+y,1/2-z
1/2-x,1/2+y,z
x,-y,1/2+z
loop_
_atom_site_type_symbol
_atom_site_label
_atom_site_fract_x
_atom_site_fract_y
_atom_site_fract_z
Si Si1 0.000000 0.882268 0.250000
Si Si2 0.218039 0.932647 0.441964
Si Si3 0.836645 0.257612 0.430149
Si Si4 0.627338 0.999436 0.863475
Si Si5 0.000000 0.478710 0.250000
Si Si6 0.410536 0.563573 0.052764
Si Si7 0.330389 0.176065 0.456832
Si Si8 0.576529 0.359021 0.361050
O O1 0.250314 0.930474 0.254472
O O2 0.991863 0.840307 0.196736
O O3 0.420354 0.972877 0.406117
O O4 0.270738 0.916865 0.502847
O O5 0.132953 0.869191 0.407481
O O6 0.976771 0.983899 0.449806
O O7 0.611165 0.200565 0.435814
O O8 0.820169 0.303514 0.482184
O O9 0.781211 0.306147 0.382282
O O10 0.116468 0.223852 0.429163
O O11 0.518725 0.983385 0.805771
O O12 0.809648 0.065210 0.854768
O O13 0.769657 0.936896 0.891236
O O14 0.680490 0.604769 0.049895
#
# Coordination Sequence:
#
# PCOD9454457 Si02
#       8
#     4   8   8   8   4   8   8   8
#     4  10  20  34  58  83 114 145 180 238 286 336
#     4  10  19  34  54  84 119 145 179 235 289 345
#     4  10  22  36  56  79 109 149 186 235 275 329
#     4  10  21  33  57  84 117 153 183 239 289 347
#     4  10  20  36  54  85 116 145 190 222 284 350
#     4  10  21  34  52  85 116 152 188 226 288 348
#     4  10  22  37  54  79 110 151 190 224 275 340
#     4  10  20  35  55  86 112 144 189 234 293 341
#
# _framework density 21.445547999999999
#
# number of rings (size 3 to 8) (size 9 to 14) (size 15 to 20)
#    0.000    2.000    2.857    0.429    4.000    1.143 
#    0.000    0.000    0.000    0.857    3.714    0.000 
#    0.000    0.000    0.000    0.000    0.000    0.000 
#
# Total GULP energy -312316.011807 kJ/mol
# GULP energy per Si atom -5577.071639 kJ/mol
# Density = 2.139674 g / cm^3
# Si number density = 21.445548 Si / 1000 Ang^3
#
#
#
# Elastic Constant Matrix: (Units=GPa)
#
#
# Indices 1 2 3 4 5 6 
#
# 1 63.5869 -2.9216 13.7263 0.0000 0.0000 0.0000
# 2 -2.9216 59.4814 23.1843 0.0000 0.0000 0.0000
# 3 13.7263 23.1843 132.2172 0.0000 0.0000 0.0000
# 4 0.0000 0.0000 0.0000 14.7767 0.0000 0.0000
# 5 0.0000 0.0000 0.0000 0.0000 18.5379 0.0000
# 6 0.0000 0.0000 0.0000 0.0000 0.0000 29.9952
#
#
#
# Elastic Compliance Matrix: (Units=1/GPa)
#
#
# Indices 1 2 3 4 5 6 
#
# 1 0.016221 0.001560 -0.001957 0.000000 0.000000 0.000000
# 2 0.001560 0.018195 -0.003352 0.000000 0.000000 0.000000
# 3 -0.001957 -0.003352 0.008354 0.000000 0.000000 0.000000
# 4 0.000000 0.000000 0.000000 0.067674 0.000000 0.000000
# 5 0.000000 0.000000 0.000000 0.000000 0.053944 0.000000
# 6 0.000000 0.000000 0.000000 0.000000 0.000000 0.033339
#
#
# Mechanical properties :
#
#
# Convention : Reuss Voigt Hill
#
# Bulk Modulus (GPa) = 28.35275 35.91816 32.13546
# Shear Modulus (GPa) = 23.04320 27.41507 25.22913
#
# Velocity S-wave (km/s) = 3.28151 3.57929 3.43363
# Velocity P-wave (km/s) = 5.25426 5.81951 5.54409
#
# Compressibility (1/GPa) = 0.03526995
#
# Stress axis : x y z
#
# Youngs Moduli (GPa) = 61.64948 54.95924 119.69763
#
# Poissons Ratio (x) = -0.08572 0.23430
# Poissons Ratio (y) = -0.09616 0.40128
# Poissons Ratio (z) = 0.12068 0.18425
#
# Static dielectric constant tensor:
#      x y z
#    x 1.886930 0.000000 0.000000 
#    y 0.000000 1.797450 0.000000 
#    z 0.000000 0.000000 1.870130 
# 
# From -- ./inp_files/25006.got.cif
#   From: 2010.05.17/outbox.cif.g08.bks.cpg/sg60_13_cif.got.tgz:25006.got - 2010.06.03 14:59:27.
