data_PCOD9454816
_publ_section_title
;
Structure prediction by ZEFSAII (Michael W. Deem and Ramdas Pophale) SiO2 
 PCOD9454816
Probable space group: P B C N
;
_chemical_formula_sum "Si O2"
_cell_formula_units_Z 60
_cell_length_a 19.869128
_cell_length_b 12.432840
_cell_length_c 11.933745
_cell_angle_alpha 90.000000
_cell_angle_beta 90.000000
_cell_angle_gamma 90.000000
_cell_volume 2947.989320
_symmetry_space_group_name_H-M "P B C N"
_symmetry_group_IT_number 60
_symmetry_cell_setting 'orthorhombic'
loop_
_space_group_symop_operation_xyz
x,y,z
1/2-x,1/2-y,1/2+z
1/2+x,1/2-y,-z
-x,y,1/2-z
-x,-y,-z
1/2+x,1/2+y,1/2-z
1/2-x,1/2+y,z
x,-y,1/2+z
loop_
_atom_site_type_symbol
_atom_site_label
_atom_site_fract_x
_atom_site_fract_y
_atom_site_fract_z
Si Si1 0.542587 0.841061 0.543091
Si Si2 0.689127 0.189481 0.496765
Si Si3 0.864254 0.337286 0.340601
Si Si4 0.072918 0.423247 0.374979
Si Si5 0.744788 0.294348 0.697724
Si Si6 0.355474 0.656509 0.690600
Si Si7 0.752275 0.482381 0.848696
Si Si8 0.000000 0.808958 0.250000
O O1 0.601791 0.803926 0.457895
O O2 0.482824 0.870794 0.456338
O O3 0.518117 0.760923 0.639627
O O4 0.563950 0.949549 0.609249
O O5 0.643426 0.114986 0.573323
O O6 0.722585 0.280888 0.571231
O O7 0.645292 0.250852 0.404203
O O8 0.742525 0.111570 0.439415
O O9 0.920788 0.380697 0.252479
O O10 0.816503 0.250790 0.276851
O O11 0.815026 0.438022 0.362641
O O12 0.808172 0.215452 0.717455
O O13 0.759570 0.415494 0.733402
O O14 0.314490 0.552669 0.651490
O O15 0.430789 0.629504 0.725242
#
# Coordination Sequence:
#
# PCOD9454816 Si02
#       8
#     8   8   8   8   8   8   8   4
#     4  11  23  35  59  89 127 170 196 261 312 390
#     4  10  19  40  62  93 123 160 209 271 321 378
#     4  10  21  39  59  93 122 164 209 259 325 378
#     4  10  21  33  58  91 125 161 200 252 328 382
#     4   9  22  38  65  90 121 159 216 270 317 371
#     4  10  23  40  61  90 124 168 213 259 322 377
#     4  10  21  40  63  92 124 159 211 267 319 379
#     4  12  26  40  62  90 134 174 220 260 312 398
#
# _framework density 20.352855000000002
#
# number of rings (size 3 to 8) (size 9 to 14) (size 15 to 20)
#    0.000    1.867    2.667    0.400    7.467    6.400 
#    0.000    0.000    5.867    2.400    0.000    0.000 
#    0.000    0.000    0.000    0.000    0.000    0.000 
#
# Total GULP energy -334877.752329 kJ/mol
# GULP energy per Si atom -5581.295872 kJ/mol
# Density = 2.030653 g / cm^3
# Si number density = 20.352855 Si / 1000 Ang^3
#
#
#
# Elastic Constant Matrix: (Units=GPa)
#
#
# Indices 1 2 3 4 5 6 
#
# 1 114.1243 24.3694 32.1776 0.0000 0.0000 0.0000
# 2 24.3694 46.9393 9.6396 0.0000 0.0000 0.0000
# 3 32.1776 9.6396 83.6460 0.0000 0.0000 0.0000
# 4 0.0000 0.0000 0.0000 9.4960 0.0000 0.0000
# 5 0.0000 0.0000 0.0000 0.0000 29.1368 0.0000
# 6 0.0000 0.0000 0.0000 0.0000 0.0000 17.0912
#
#
#
# Elastic Compliance Matrix: (Units=1/GPa)
#
#
# Indices 1 2 3 4 5 6 
#
# 1 0.010819 -0.004878 -0.003600 0.000000 0.000000 0.000000
# 2 -0.004878 0.024020 -0.000892 0.000000 0.000000 0.000000
# 3 -0.003600 -0.000892 0.013443 0.000000 0.000000 0.000000
# 4 0.000000 0.000000 0.000000 0.105307 0.000000 0.000000
# 5 0.000000 0.000000 0.000000 0.000000 0.034321 0.000000
# 6 0.000000 0.000000 0.000000 0.000000 0.000000 0.058510
#
#
# Mechanical properties :
#
#
# Convention : Reuss Voigt Hill
#
# Bulk Modulus (GPa) = 33.84904 41.89807 37.87356
# Shear Modulus (GPa) = 18.18151 23.04633 20.61392
#
# Velocity S-wave (km/s) = 2.99208 3.36868 3.18595
# Velocity P-wave (km/s) = 5.34826 5.98006 5.67297
#
# Compressibility (1/GPa) = 0.02954294
#
# Stress axis : x y z
#
# Youngs Moduli (GPa) = 92.43112 41.63282 74.38975
#
# Poissons Ratio (x) = 0.20307 0.26779
# Poissons Ratio (y) = 0.45084 0.06634
# Poissons Ratio (z) = 0.33273 0.03713
#
# Static dielectric constant tensor:
#      x y z
#    x 1.749330 0.000000 0.000000 
#    y 0.000000 1.677940 0.000000 
#    z 0.000000 0.000000 1.770930 
# 
# From -- ./inp_files/12862.got.cif
#   From: 2010.05.17/outbox.cif.g08.bks.cpg/sg60_7_cif.got.tgz:12862.got - 2010.06.03 14:59:27.
