data_PCOD9454405
_publ_section_title
;
Structure prediction by ZEFSAII (Michael W. Deem and Ramdas Pophale) SiO2 
 PCOD9454405
Probable space group: P B C N
;
_chemical_formula_sum "Si O2"
_cell_formula_units_Z 64
_cell_length_a 19.650103
_cell_length_b 8.494360
_cell_length_c 19.740478
_cell_angle_alpha 90.000000
_cell_angle_beta 90.000000
_cell_angle_gamma 90.000000
_cell_volume 3294.982851
_symmetry_space_group_name_H-M "P B C N"
_symmetry_group_IT_number 60
_symmetry_cell_setting 'orthorhombic'
loop_
_space_group_symop_operation_xyz
x,y,z
1/2-x,1/2-y,1/2+z
1/2+x,1/2-y,-z
-x,y,1/2-z
-x,-y,-z
1/2+x,1/2+y,1/2-z
1/2-x,1/2+y,z
x,-y,1/2+z
loop_
_atom_site_type_symbol
_atom_site_label
_atom_site_fract_x
_atom_site_fract_y
_atom_site_fract_z
Si Si1 0.568218 0.027219 0.956585
Si Si2 0.067207 0.452242 0.205029
Si Si3 0.171058 0.812560 0.541540
Si Si4 0.824591 0.175527 0.300668
Si Si5 0.283919 0.393518 0.968552
Si Si6 0.344430 0.098047 0.932598
Si Si7 0.653091 0.910553 0.685594
Si Si8 0.782397 0.881508 0.225546
O O1 0.559561 0.011863 0.875284
O O2 0.606868 0.195438 0.968016
O O3 0.500000 0.000000 0.000000
O O4 0.620248 0.907778 0.993978
O O5 0.113493 0.295404 0.211430
O O6 0.109775 0.584969 0.245569
O O7 0.000000 0.431373 0.250000
O O8 0.178378 0.852859 0.619893
O O9 0.239644 0.719102 0.518480
O O10 0.167926 0.977005 0.502142
O O11 0.755023 0.263382 0.277940
O O12 0.828947 0.012269 0.260522
O O13 0.324359 0.277553 0.918633
O O14 0.223871 0.495576 0.936835
O O15 0.385281 0.001758 0.875263
O O16 0.678000 0.732577 0.673831
O O17 0.718725 0.020986 0.697278
#
# Coordination Sequence:
#
# PCOD9454405 Si02
#       8
#     8   8   8   8   8   8   8   8
#     4  10  21  37  55  74 100 140 183 224 269 318
#     4  10  21  37  55  74  99 139 182 219 266 318
#     4   9  17  30  51  78 109 141 175 219 269 321
#     4   9  17  30  51  77 106 137 171 218 269 317
#     4   9  18  30  50  81 110 140 175 213 264 322
#     4  10  19  33  54  79 110 143 174 216 263 316
#     4  10  19  33  54  80 110 142 174 214 261 316
#     4   9  18  30  50  81 109 136 171 213 265 320
#
# _framework density 19.423469000000001
#
# number of rings (size 3 to 8) (size 9 to 14) (size 15 to 20)
#    0.000    2.500    0.000    2.250    0.000    7.000 
#    0.000    1.250    0.000    4.500    0.000    0.000 
#    0.000    0.000    0.000    0.000    0.000    0.000 
#
# Total GULP energy -356364.011861 kJ/mol
# GULP energy per Si atom -5568.187685 kJ/mol
# Density = 1.937926 g / cm^3
# Si number density = 19.423469 Si / 1000 Ang^3
#
#
#
# Elastic Constant Matrix: (Units=GPa)
#
#
# Indices 1 2 3 4 5 6 
#
# 1 68.9294 15.2667 37.1168 0.0000 0.0000 0.0000
# 2 15.2667 75.1440 17.1159 0.0000 0.0000 0.0000
# 3 37.1168 17.1159 97.5165 0.0000 0.0000 0.0000
# 4 0.0000 0.0000 0.0000 26.5640 0.0000 0.0000
# 5 0.0000 0.0000 0.0000 0.0000 23.9344 0.0000
# 6 0.0000 0.0000 0.0000 0.0000 0.0000 12.9151
#
#
#
# Elastic Compliance Matrix: (Units=1/GPa)
#
#
# Indices 1 2 3 4 5 6 
#
# 1 0.018608 -0.002258 -0.006686 0.000000 0.000000 0.000000
# 2 -0.002258 0.014136 -0.001622 0.000000 0.000000 0.000000
# 3 -0.006686 -0.001622 0.013084 0.000000 0.000000 0.000000
# 4 0.000000 0.000000 0.000000 0.037645 0.000000 0.000000
# 5 0.000000 0.000000 0.000000 0.000000 0.041781 0.000000
# 6 0.000000 0.000000 0.000000 0.000000 0.000000 0.077429
#
#
# Mechanical properties :
#
#
# Convention : Reuss Voigt Hill
#
# Bulk Modulus (GPa) = 40.49120 42.28764 41.38942
# Shear Modulus (GPa) = 21.54743 24.15542 22.85142
#
# Velocity S-wave (km/s) = 3.33430 3.53033 3.43371
# Velocity P-wave (km/s) = 5.97622 6.19970 6.08899
#
# Compressibility (1/GPa) = 0.02469672
#
# Stress axis : x y z
#
# Youngs Moduli (GPa) = 53.74018 70.74215 76.42748
#
# Poissons Ratio (x) = 0.15970 0.51102
# Poissons Ratio (y) = 0.12132 0.12395
# Poissons Ratio (z) = 0.35933 0.11473
#
# Static dielectric constant tensor:
#      x y z
#    x 1.714970 0.000000 0.000000 
#    y 0.000000 1.727440 0.000000 
#    z 0.000000 0.000000 1.776550 
# 
# From -- ./inp_files/23106.got.cif
#   From: 2010.05.17/outbox.cif.g08.bks.cpg/sg60_12_cif.got.tgz:23106.got - 2010.06.03 14:59:27.
