data_PCOD9454558
_publ_section_title
;
Structure prediction by ZEFSAII (Michael W. Deem and Ramdas Pophale) SiO2 
 PCOD9454558
Probable space group: P B C N
;
_chemical_formula_sum "Si O2"
_cell_formula_units_Z 40
_cell_length_a 8.936555
_cell_length_b 17.075096
_cell_length_c 12.415677
_cell_angle_alpha 90.000000
_cell_angle_beta 90.000000
_cell_angle_gamma 90.000000
_cell_volume 1894.539621
_symmetry_space_group_name_H-M "P B C N"
_symmetry_group_IT_number 60
_symmetry_cell_setting 'orthorhombic'
loop_
_space_group_symop_operation_xyz
x,y,z
1/2-x,1/2-y,1/2+z
1/2+x,1/2-y,-z
-x,y,1/2-z
-x,-y,-z
1/2+x,1/2+y,1/2-z
1/2-x,1/2+y,z
x,-y,1/2+z
loop_
_atom_site_type_symbol
_atom_site_label
_atom_site_fract_x
_atom_site_fract_y
_atom_site_fract_z
Si Si1 0.233851 0.509503 0.539736
Si Si2 0.339784 0.642226 0.975089
Si Si3 0.905034 0.253551 0.906323
Si Si4 0.957657 0.584794 0.128419
Si Si5 0.671807 0.382473 0.264293
O O1 0.359604 0.442499 0.530274
O O2 0.193906 0.556897 0.430449
O O3 0.253686 0.565929 0.642423
O O4 0.091291 0.453660 0.560637
O O5 0.498150 0.686142 0.964269
O O6 0.270145 0.620799 0.857452
O O7 0.227494 0.702914 0.031458
O O8 0.835547 0.206791 0.806232
O O9 0.021848 0.322023 0.877842
O O10 0.000000 0.561019 0.250000
O O11 0.500000 0.410059 0.250000
#
# Coordination Sequence:
#
# PCOD9454558 Si02
#       5
#     8   8   8   8   8
#     4  10  21  35  57  85 114 151 198 241 295 359
#     4  10  21  39  59  85 117 152 194 245 296 354
#     4  10  21  37  58  82 112 150 193 238 294 354
#     4  10  19  35  57  81 111 151 193 239 288 349
#     4  10  21  37  57  83 119 157 193 247 309 360
#
# _framework density 21.113308
#
# number of rings (size 3 to 8) (size 9 to 14) (size 15 to 20)
#    0.000    2.000    0.000    4.200    0.000    3.200 
#    0.000   13.000    0.000    0.000    0.000    0.000 
#    0.000    0.000    0.000    0.000    0.000    0.000 
#
# Total GULP energy -222848.383686 kJ/mol
# GULP energy per Si atom -5571.209592 kJ/mol
# Density = 2.106525 g / cm^3
# Si number density = 21.113308 Si / 1000 Ang^3
#
#
#
# Elastic Constant Matrix: (Units=GPa)
#
#
# Indices 1 2 3 4 5 6 
#
# 1 23.9338 2.6758 -8.6795 0.0000 0.0000 0.0000
# 2 2.6758 105.5159 13.6928 0.0000 0.0000 0.0000
# 3 -8.6795 13.6928 58.9449 0.0000 0.0000 0.0000
# 4 0.0000 0.0000 0.0000 27.6073 0.0000 0.0000
# 5 0.0000 0.0000 0.0000 0.0000 30.4837 0.0000
# 6 0.0000 0.0000 0.0000 0.0000 0.0000 29.8197
#
#
#
# Elastic Compliance Matrix: (Units=1/GPa)
#
#
# Indices 1 2 3 4 5 6 
#
# 1 0.044562 -0.002043 0.007036 0.000000 0.000000 0.000000
# 2 -0.002043 0.009866 -0.002593 0.000000 0.000000 0.000000
# 3 0.007036 -0.002593 0.018603 0.000000 0.000000 0.000000
# 4 0.000000 0.000000 0.000000 0.036222 0.000000 0.000000
# 5 0.000000 0.000000 0.000000 0.000000 0.032804 0.000000
# 6 0.000000 0.000000 0.000000 0.000000 0.000000 0.033535
#
#
# Mechanical properties :
#
#
# Convention : Reuss Voigt Hill
#
# Bulk Modulus (GPa) = 12.84820 22.64142 17.74481
# Shear Modulus (GPa) = 25.41485 29.62919 27.52202
#
# Velocity S-wave (km/s) = 3.47325 3.75018 3.61437
# Velocity P-wave (km/s) = 4.70991 5.43129 5.08341
#
# Compressibility (1/GPa) = 0.07783194
#
# Stress axis : x y z
#
# Youngs Moduli (GPa) = 22.44060 101.36331 53.75386
#
# Poissons Ratio (x) = 0.20710 -0.37823
# Poissons Ratio (y) = 0.04585 0.13936
# Poissons Ratio (z) = -0.15790 0.26279
#
# Static dielectric constant tensor:
#      x y z
#    x 1.798840 0.000000 0.000000 
#    y 0.000000 1.786840 0.000000 
#    z 0.000000 0.000000 1.808630 
# 
# From -- ./inp_files/10863.got.cif
#   From: 2010.05.17/outbox.cif.g08.bks.cpg/sg60_6_cif.got.tgz:10863.got - 2010.06.03 14:59:27.
