data_PCOD9454958
_publ_section_title
;
Structure prediction by ZEFSAII (Michael W. Deem and Ramdas Pophale) SiO2 
 PCOD9454958
Probable space group: P B C N
;
_chemical_formula_sum "Si O2"
_cell_formula_units_Z 48
_cell_length_a 14.803308
_cell_length_b 10.489040
_cell_length_c 13.334529
_cell_angle_alpha 90.000000
_cell_angle_beta 90.000000
_cell_angle_gamma 90.000000
_cell_volume 2070.485517
_symmetry_space_group_name_H-M "P B C N"
_symmetry_group_IT_number 60
_symmetry_cell_setting 'orthorhombic'
loop_
_space_group_symop_operation_xyz
x,y,z
1/2-x,1/2-y,1/2+z
1/2+x,1/2-y,-z
-x,y,1/2-z
-x,-y,-z
1/2+x,1/2+y,1/2-z
1/2-x,1/2+y,z
x,-y,1/2+z
loop_
_atom_site_type_symbol
_atom_site_label
_atom_site_fract_x
_atom_site_fract_y
_atom_site_fract_z
Si Si1 0.980374 0.290461 0.639370
Si Si2 0.335698 0.159755 0.052931
Si Si3 0.831769 0.940129 0.663972
Si Si4 0.221645 0.784708 0.353970
Si Si5 0.791962 0.943907 0.421962
Si Si6 0.020498 0.996694 0.617885
O O1 0.873816 0.282053 0.612897
O O2 0.006602 0.142389 0.648102
O O3 0.000000 0.348158 0.750000
O O4 0.055327 0.342167 0.561723
O O5 0.302577 0.293892 0.103359
O O6 0.297330 0.026527 0.095194
O O7 0.290142 0.175196 0.943385
O O8 0.774332 0.824158 0.705208
O O9 0.809796 0.943223 0.543226
O O10 0.804186 0.082023 0.697594
O O11 0.939270 0.920644 0.668402
O O12 0.873796 0.028516 0.375580
O O13 0.000000 0.000000 0.500000
#
# Coordination Sequence:
#
# PCOD9454958 Si02
#       6
#     8   8   8   8   8   8
#     4  10  20  34  52  78 112 146 176 220 281 332
#     4   9  17  31  50  75 103 138 178 216 260 323
#     4   8  14  26  46  72  98 128 171 216 253 301
#     4   9  17  31  50  75 103 138 178 216 260 323
#     4   8  14  26  46  72  98 128 171 216 253 301
#     4   8  14  28  51  74  99 134 177 218 260 324
#
# _framework density 23.182967000000001
#
# number of rings (size 3 to 8) (size 9 to 14) (size 15 to 20)
#    0.000    3.333    0.000    2.000    0.000    0.000 
#    0.000   15.833    0.000    0.000    0.000   10.500 
#    0.000    0.000    0.000    0.000    0.000    0.000 
#
# Total GULP energy -267303.795242 kJ/mol
# GULP energy per Si atom -5568.829068 kJ/mol
# Density = 2.313020 g / cm^3
# Si number density = 23.182967 Si / 1000 Ang^3
#
#
#
# Elastic Constant Matrix: (Units=GPa)
#
#
# Indices 1 2 3 4 5 6 
#
# 1 141.0142 37.9672 17.8986 0.0000 0.0000 0.0000
# 2 37.9672 93.2168 0.8722 0.0000 0.0000 0.0000
# 3 17.8986 0.8722 83.8329 0.0000 0.0000 0.0000
# 4 0.0000 0.0000 0.0000 21.0677 0.0000 0.0000
# 5 0.0000 0.0000 0.0000 0.0000 31.9927 0.0000
# 6 0.0000 0.0000 0.0000 0.0000 0.0000 34.7879
#
#
#
# Elastic Compliance Matrix: (Units=1/GPa)
#
#
# Indices 1 2 3 4 5 6 
#
# 1 0.008205 -0.003326 -0.001717 0.000000 0.000000 0.000000
# 2 -0.003326 0.012077 0.000584 0.000000 0.000000 0.000000
# 3 -0.001717 0.000584 0.012289 0.000000 0.000000 0.000000
# 4 0.000000 0.000000 0.000000 0.047466 0.000000 0.000000
# 5 0.000000 0.000000 0.000000 0.000000 0.031257 0.000000
# 6 0.000000 0.000000 0.000000 0.000000 0.000000 0.028746
#
#
# Mechanical properties :
#
#
# Convention : Reuss Voigt Hill
#
# Bulk Modulus (GPa) = 42.27674 47.94886 45.11280
# Shear Modulus (GPa) = 31.87938 34.99137 33.43537
#
# Velocity S-wave (km/s) = 3.71228 3.88926 3.80180
# Velocity P-wave (km/s) = 6.05396 6.39501 6.22682
#
# Compressibility (1/GPa) = 0.02365367
#
# Stress axis : x y z
#
# Youngs Moduli (GPa) = 121.87860 82.80335 81.37336
#
# Poissons Ratio (x) = 0.27539 0.13973
# Poissons Ratio (y) = 0.40534 -0.04756
# Poissons Ratio (z) = 0.20929 -0.04839
#
# Static dielectric constant tensor:
#      x y z
#    x 1.899290 0.000000 0.000000 
#    y 0.000000 1.878080 0.000000 
#    z 0.000000 0.000000 2.061970 
# 
# From -- ./inp_files/20573.got.cif
#   From: 2010.05.17/outbox.cif.g08.bks.cpg/sg60_11_cif.got.tgz:20573.got - 2010.06.03 14:59:27.
