data_PCOD9454686
_publ_section_title
;
Structure prediction by ZEFSAII (Michael W. Deem and Ramdas Pophale) SiO2 
 PCOD9454686
Probable space group: P B C N
;
_chemical_formula_sum "Si O2"
_cell_formula_units_Z 40
_cell_length_a 9.271496
_cell_length_b 19.109453
_cell_length_c 10.444885
_cell_angle_alpha 90.000000
_cell_angle_beta 90.000000
_cell_angle_gamma 90.000000
_cell_volume 1850.553877
_symmetry_space_group_name_H-M "P B C N"
_symmetry_group_IT_number 60
_symmetry_cell_setting 'orthorhombic'
loop_
_space_group_symop_operation_xyz
x,y,z
1/2-x,1/2-y,1/2+z
1/2+x,1/2-y,-z
-x,y,1/2-z
-x,-y,-z
1/2+x,1/2+y,1/2-z
1/2-x,1/2+y,z
x,-y,1/2+z
loop_
_atom_site_type_symbol
_atom_site_label
_atom_site_fract_x
_atom_site_fract_y
_atom_site_fract_z
Si Si1 0.000000 0.683908 0.250000
Si Si2 0.000000 0.811412 0.750000
Si Si3 0.249145 0.370201 0.594467
Si Si4 0.329880 0.923440 0.221947
Si Si5 0.252406 0.218966 0.856010
Si Si6 0.330388 0.992210 0.965024
O O1 0.091219 0.635566 0.155764
O O2 0.120375 0.732102 0.315554
O O3 0.118411 0.860986 0.687514
O O4 0.097916 0.760233 0.836422
O O5 0.260865 0.303793 0.501576
O O6 0.255026 0.441040 0.517575
O O7 0.500000 0.910220 0.250000
O O8 0.254236 0.853361 0.274968
O O9 0.306437 0.994252 0.311554
O O10 0.292149 0.932700 0.070983
O O11 0.500000 0.000000 0.000000
#
# Coordination Sequence:
#
# PCOD9454686 Si02
#       6
#     4   4   8   8   8   8
#     4  10  22  34  56  86 110 144 194 232 286 350
#     4  10  20  36  56  80 116 152 186 236 300 352
#     4  10  21  36  57  83 116 149 190 239 292 344
#     4   9  17  33  55  81 111 148 187 234 289 339
#     4  10  19  37  56  82 114 149 190 237 292 348
#     4   9  19  33  56  85 112 144 194 242 280 343
#
# _framework density 21.615151000000001
#
# number of rings (size 3 to 8) (size 9 to 14) (size 15 to 20)
#    0.000    2.400    1.000    1.200    4.200    0.000 
#    0.000    3.000    0.000    4.800    0.000    0.000 
#    0.000    0.000    0.000    0.000    0.000    0.000 
#
# Total GULP energy -222782.555886 kJ/mol
# GULP energy per Si atom -5569.563897 kJ/mol
# Density = 2.156595 g / cm^3
# Si number density = 21.615151 Si / 1000 Ang^3
#
#
#
# Elastic Constant Matrix: (Units=GPa)
#
#
# Indices 1 2 3 4 5 6 
#
# 1 69.3650 13.4160 8.1922 0.0000 0.0000 0.0000
# 2 13.4160 44.2804 -5.9323 0.0000 0.0000 0.0000
# 3 8.1922 -5.9323 24.8826 0.0000 0.0000 0.0000
# 4 0.0000 0.0000 0.0000 22.3140 0.0000 0.0000
# 5 0.0000 0.0000 0.0000 0.0000 6.7319 0.0000
# 6 0.0000 0.0000 0.0000 0.0000 0.0000 15.5612
#
#
#
# Elastic Compliance Matrix: (Units=1/GPa)
#
#
# Indices 1 2 3 4 5 6 
#
# 1 0.016351 -0.005863 -0.006781 0.000000 0.000000 0.000000
# 2 -0.005863 0.025430 0.007993 0.000000 0.000000 0.000000
# 3 -0.006781 0.007993 0.044327 0.000000 0.000000 0.000000
# 4 0.000000 0.000000 0.000000 0.044815 0.000000 0.000000
# 5 0.000000 0.000000 0.000000 0.000000 0.148546 0.000000
# 6 0.000000 0.000000 0.000000 0.000000 0.000000 0.064262
#
#
# Mechanical properties :
#
#
# Convention : Reuss Voigt Hill
#
# Bulk Modulus (GPa) = 13.01956 18.87552 15.94754
# Shear Modulus (GPa) = 13.20531 17.11157 15.15844
#
# Velocity S-wave (km/s) = 2.47438 2.81667 2.65106
# Velocity P-wave (km/s) = 3.76826 4.39656 4.09448
#
# Compressibility (1/GPa) = 0.07680753
#
# Stress axis : x y z
#
# Youngs Moduli (GPa) = 61.15744 39.32300 22.55961
#
# Poissons Ratio (x) = 0.23053 0.15298
# Poissons Ratio (y) = 0.35854 -0.18032
# Poissons Ratio (z) = 0.41471 -0.31431
#
# Static dielectric constant tensor:
#      x y z
#    x 1.685410 0.000000 0.000000 
#    y 0.000000 1.805170 0.000000 
#    z 0.000000 0.000000 1.871120 
# 
# From -- ./inp_files/9838.got.cif
#   From: 2010.05.17/outbox.cif.g08.bks.cpg/sg60_5_cif.got.tgz:9838.got - 2010.06.03 14:59:27.
