data_PCOD9454203
_publ_section_title
;
Structure prediction by ZEFSAII (Michael W. Deem and Ramdas Pophale) SiO2 
 PCOD9454203
Probable space group: P B C N
;
_chemical_formula_sum "Si O2"
_cell_formula_units_Z 36
_cell_length_a 16.276053
_cell_length_b 5.166814
_cell_length_c 19.433086
_cell_angle_alpha 90.000000
_cell_angle_beta 90.000000
_cell_angle_gamma 90.000000
_cell_volume 1634.231945
_symmetry_space_group_name_H-M "P B C N"
_symmetry_group_IT_number 60
_symmetry_cell_setting 'orthorhombic'
loop_
_space_group_symop_operation_xyz
x,y,z
1/2-x,1/2-y,1/2+z
1/2+x,1/2-y,-z
-x,y,1/2-z
-x,-y,-z
1/2+x,1/2+y,1/2-z
1/2-x,1/2+y,z
x,-y,1/2+z
loop_
_atom_site_type_symbol
_atom_site_label
_atom_site_fract_x
_atom_site_fract_y
_atom_site_fract_z
Si Si1 0.022612 0.516503 0.885491
Si Si2 0.202914 0.584147 0.438004
Si Si3 0.892354 0.165405 0.839878
Si Si4 0.354074 0.161111 0.588178
Si Si5 0.500000 0.634185 0.250000
O O1 0.113846 0.496418 0.911409
O O2 0.016967 0.678947 0.814603
O O3 0.981954 0.234742 0.872443
O O4 0.951663 0.645779 0.932517
O O5 0.268299 0.368031 0.416174
O O6 0.196186 0.593712 0.521019
O O7 0.848083 0.440001 0.852353
O O8 0.844575 0.944761 0.880890
O O9 0.920864 0.044272 0.767846
#
# Coordination Sequence:
#
# PCOD9454203 Si02
#       5
#     8   8   8   8   4
#     4   9  22  38  66  92 119 159 217 253 299 358
#     4  12  26  39  60  91 133 163 194 255 324 375
#     4   9  19  33  65  89 117 148 206 261 286 344
#     4   9  20  38  60  88 119 160 206 244 297 365
#     4  10  18  38  62 100 112 148 204 272 296 340
#
# _framework density 22.028694999999999
#
# number of rings (size 3 to 8) (size 9 to 14) (size 15 to 20)
#    1.333    0.889    0.000    2.667    6.222    0.889 
#    0.000    0.000    0.000   18.667    0.000    0.000 
#    0.000    0.000    0.000    0.000    0.000    0.000 
#
# Total GULP energy -200505.377692 kJ/mol
# GULP energy per Si atom -5569.593825 kJ/mol
# Density = 2.197856 g / cm^3
# Si number density = 22.028695 Si / 1000 Ang^3
#
#
#
# Elastic Constant Matrix: (Units=GPa)
#
#
# Indices 1 2 3 4 5 6 
#
# 1 66.7465 -1.9165 1.2582 0.0000 0.0000 0.0000
# 2 -1.9165 126.4022 13.9187 0.0000 0.0000 0.0000
# 3 1.2582 13.9187 30.4799 0.0000 0.0000 0.0000
# 4 0.0000 0.0000 0.0000 19.1820 0.0000 0.0000
# 5 0.0000 0.0000 0.0000 0.0000 30.4608 0.0000
# 6 0.0000 0.0000 0.0000 0.0000 0.0000 15.9545
#
#
#
# Elastic Compliance Matrix: (Units=1/GPa)
#
#
# Indices 1 2 3 4 5 6 
#
# 1 0.015005 0.000311 -0.000762 0.000000 0.000000 0.000000
# 2 0.000311 0.008337 -0.003820 0.000000 0.000000 0.000000
# 3 -0.000762 -0.003820 0.034584 0.000000 0.000000 0.000000
# 4 0.000000 0.000000 0.000000 0.052132 0.000000 0.000000
# 5 0.000000 0.000000 0.000000 0.000000 0.032829 0.000000
# 6 0.000000 0.000000 0.000000 0.000000 0.000000 0.062678
#
#
# Mechanical properties :
#
#
# Convention : Reuss Voigt Hill
#
# Bulk Modulus (GPa) = 20.24856 27.79437 24.02147
# Shear Modulus (GPa) = 21.68558 27.14399 24.41479
#
# Velocity S-wave (km/s) = 3.14096 3.51409 3.33275
# Velocity P-wave (km/s) = 4.72927 5.39536 5.07326
#
# Compressibility (1/GPa) = 0.04938622
#
# Stress axis : x y z
#
# Youngs Moduli (GPa) = 66.64285 119.95311 28.91490
#
# Poissons Ratio (x) = -0.03735 0.02202
# Poissons Ratio (y) = -0.02075 0.11045
# Poissons Ratio (z) = 0.05075 0.45819
#
# Static dielectric constant tensor:
#      x y z
#    x 1.855160 0.000000 0.000000 
#    y 0.000000 1.841180 0.000000 
#    z 0.000000 0.000000 1.827100 
# 
# From -- ./inp_files/22774.got.cif
#   From: 2010.05.17/outbox.cif.g08.bks.cpg/sg60_12_cif.got.tgz:22774.got - 2010.06.03 14:59:27.
