data_PCOD9454705
_publ_section_title
;
Structure prediction by ZEFSAII (Michael W. Deem and Ramdas Pophale) SiO2 
 PCOD9454705
Probable space group: P B C N
;
_chemical_formula_sum "Si O2"
_cell_formula_units_Z 60
_cell_length_a 11.842493
_cell_length_b 30.959439
_cell_length_c 8.168660
_cell_angle_alpha 90.000000
_cell_angle_beta 90.000000
_cell_angle_gamma 90.000000
_cell_volume 2994.932503
_symmetry_space_group_name_H-M "P B C N"
_symmetry_group_IT_number 60
_symmetry_cell_setting 'orthorhombic'
loop_
_space_group_symop_operation_xyz
x,y,z
1/2-x,1/2-y,1/2+z
1/2+x,1/2-y,-z
-x,y,1/2-z
-x,-y,-z
1/2+x,1/2+y,1/2-z
1/2-x,1/2+y,z
x,-y,1/2+z
loop_
_atom_site_type_symbol
_atom_site_label
_atom_site_fract_x
_atom_site_fract_y
_atom_site_fract_z
Si Si1 0.500000 0.510418 0.250000
Si Si2 0.976778 0.684589 0.945744
Si Si3 0.279944 0.159944 0.976222
Si Si4 0.399665 0.562061 0.522928
Si Si5 0.628407 0.294803 0.479188
Si Si6 0.716247 0.875051 0.374304
Si Si7 0.452130 0.639144 0.070856
Si Si8 0.816947 0.250761 0.649868
O O1 0.414588 0.541592 0.344846
O O2 0.569910 0.477969 0.362949
O O3 0.902006 0.641110 0.945473
O O4 0.000000 0.695495 0.750000
O O5 0.095334 0.673201 0.030425
O O6 0.904515 0.721843 0.037648
O O7 0.294106 0.128258 0.821007
O O8 0.221796 0.204462 0.918175
O O9 0.182498 0.139086 0.084089
O O10 0.279300 0.582867 0.562588
O O11 0.495043 0.600131 0.536328
O O12 0.700183 0.335940 0.421705
O O13 0.506179 0.315355 0.509065
O O14 0.697057 0.276772 0.636221
O O15 0.637713 0.260486 0.330988
O O16 0.500000 0.633755 0.250000
#
# Coordination Sequence:
#
# PCOD9454705 Si02
#       8
#     4   8   8   8   8   8   8   8
#     4  10  20  32  62 102 126 148 180 226 308 374
#     4   9  19  39  59  84 112 156 216 255 309 356
#     4  10  21  34  56  82 109 157 210 252 298 345
#     4  10  19  37  60  93 127 152 182 237 297 366
#     4   9  21  37  56  78 107 153 201 248 310 350
#     4   8  17  37  61  80 114 154 192 237 290 364
#     4  11  23  38  56  83 123 160 202 244 305 368
#     4  10  21  37  57  77 113 150 203 272 309 344
#
# _framework density 20.033840999999999
#
# number of rings (size 3 to 8) (size 9 to 14) (size 15 to 20)
#    0.000    2.400    0.667    1.600    3.733    4.800 
#    4.800    0.000    0.000    0.000    0.000   25.200 
#    0.000    0.000    0.000    0.000    0.000    0.000 
#
# Total GULP energy -334617.908721 kJ/mol
# GULP energy per Si atom -5576.965145 kJ/mol
# Density = 1.998824 g / cm^3
# Si number density = 20.033841 Si / 1000 Ang^3
#
#
#
# Elastic Constant Matrix: (Units=GPa)
#
#
# Indices 1 2 3 4 5 6 
#
# 1 154.1800 46.0595 25.6628 0.0000 0.0000 0.0000
# 2 46.0595 97.5436 37.2361 0.0000 0.0000 0.0000
# 3 25.6628 37.2361 50.9236 0.0000 0.0000 0.0000
# 4 0.0000 0.0000 0.0000 6.5754 0.0000 0.0000
# 5 0.0000 0.0000 0.0000 0.0000 25.7331 0.0000
# 6 0.0000 0.0000 0.0000 0.0000 0.0000 8.5318
#
#
#
# Elastic Compliance Matrix: (Units=1/GPa)
#
#
# Indices 1 2 3 4 5 6 
#
# 1 0.007654 -0.002971 -0.001685 0.000000 0.000000 0.000000
# 2 -0.002971 0.015375 -0.009745 0.000000 0.000000 0.000000
# 3 -0.001685 -0.009745 0.027612 0.000000 0.000000 0.000000
# 4 0.000000 0.000000 0.000000 0.152082 0.000000 0.000000
# 5 0.000000 0.000000 0.000000 0.000000 0.038860 0.000000
# 6 0.000000 0.000000 0.000000 0.000000 0.000000 0.117209
#
#
# Mechanical properties :
#
#
# Convention : Reuss Voigt Hill
#
# Bulk Modulus (GPa) = 45.78932 57.84043 51.81488
# Shear Modulus (GPa) = 12.66230 21.08065 16.87147
#
# Velocity S-wave (km/s) = 2.51678 3.24736 2.90513
# Velocity P-wave (km/s) = 5.59921 6.55702 6.09695
#
# Compressibility (1/GPa) = 0.02183915
#
# Stress axis : x y z
#
# Youngs Moduli (GPa) = 130.65243 65.04173 36.21616
#
# Poissons Ratio (x) = 0.19324 0.06101
# Poissons Ratio (y) = 0.38817 0.35293
# Poissons Ratio (z) = 0.22011 0.63383
#
# Static dielectric constant tensor:
#      x y z
#    x 1.761620 0.000000 0.000000 
#    y 0.000000 1.711620 0.000000 
#    z 0.000000 0.000000 1.800660 
# 
# From -- ./inp_files/5296.got.cif
#   From: 2010.05.17/outbox.cif.g08.bks.cpg/sg60_3_cif.got.tgz:5296.got - 2010.06.03 14:59:27.
