data_PCOD9454106
_publ_section_title
;
Structure prediction by ZEFSAII (Michael W. Deem and Ramdas Pophale) SiO2 
 PCOD9454106
Probable space group: P B C N
;
_chemical_formula_sum "Si O2"
_cell_formula_units_Z 60
_cell_length_a 12.084110
_cell_length_b 12.691566
_cell_length_c 19.980977
_cell_angle_alpha 90.000000
_cell_angle_beta 90.000000
_cell_angle_gamma 90.000000
_cell_volume 3064.408106
_symmetry_space_group_name_H-M "P B C N"
_symmetry_group_IT_number 60
_symmetry_cell_setting 'orthorhombic'
loop_
_space_group_symop_operation_xyz
x,y,z
1/2-x,1/2-y,1/2+z
1/2+x,1/2-y,-z
-x,y,1/2-z
-x,-y,-z
1/2+x,1/2+y,1/2-z
1/2-x,1/2+y,z
x,-y,1/2+z
loop_
_atom_site_type_symbol
_atom_site_label
_atom_site_fract_x
_atom_site_fract_y
_atom_site_fract_z
Si Si1 0.371186 0.017216 0.142378
Si Si2 0.945783 0.609058 0.976905
Si Si3 0.369050 0.588718 0.166030
Si Si4 0.044034 0.252936 0.374300
Si Si5 0.299166 0.585118 0.319681
Si Si6 0.000000 0.600770 0.750000
Si Si7 0.579070 0.830826 0.620537
Si Si8 0.041037 0.901510 0.325566
O O1 0.252665 0.069350 0.139841
O O2 0.466751 0.102449 0.129399
O O3 0.373026 0.925657 0.086549
O O4 0.404032 0.965943 0.213533
O O5 0.037300 0.684459 0.943401
O O6 0.890008 0.658173 0.042106
O O7 0.000000 0.500000 0.000000
O O8 0.430381 0.688473 0.135618
O O9 0.349867 0.606458 0.245670
O O10 0.447418 0.486965 0.152720
O O11 0.051086 0.330861 0.310541
O O12 0.138497 0.166205 0.368654
O O13 0.171888 0.613823 0.332772
O O14 0.343263 0.466394 0.331055
O O15 0.556254 0.709774 0.638641
O O16 0.000000 0.877781 0.250000
#
# Coordination Sequence:
#
# PCOD9454106 Si02
#       8
#     8   8   8   8   8   4   8   8
#     4  10  22  36  60  91 126 159 204 264 307 376
#     4   9  22  43  56  83 125 165 217 254 294 374
#     4  10  20  40  62  94 127 153 205 262 324 376
#     4  10  19  40  64  87 119 168 206 259 315 368
#     4  10  21  39  63  93 126 158 204 267 319 381
#     4  10  18  34  62  88 114 156 210 248 316 360
#     4  11  23  40  60  89 126 169 207 252 320 370
#     4   9  22  40  61  92 127 155 204 267 315 375
#
# _framework density 19.579637000000002
#
# number of rings (size 3 to 8) (size 9 to 14) (size 15 to 20)
#    0.000    2.133    1.333    1.600    2.800    7.467 
#    9.600    1.333    0.000    0.000    0.000    0.000 
#    0.000    0.000    0.000    0.000    0.000    0.000 
#
# Total GULP energy -334489.305234 kJ/mol
# GULP energy per Si atom -5574.821754 kJ/mol
# Density = 1.953507 g / cm^3
# Si number density = 19.579637 Si / 1000 Ang^3
#
#
#
# Elastic Constant Matrix: (Units=GPa)
#
#
# Indices 1 2 3 4 5 6 
#
# 1 99.3533 38.5369 20.8505 0.0000 0.0000 0.0000
# 2 38.5369 124.3369 59.6025 0.0000 0.0000 0.0000
# 3 20.8505 59.6025 78.3839 0.0000 0.0000 0.0000
# 4 0.0000 0.0000 0.0000 40.1969 0.0000 0.0000
# 5 0.0000 0.0000 0.0000 0.0000 12.7068 0.0000
# 6 0.0000 0.0000 0.0000 0.0000 0.0000 -3.8861
#
#
#
# Elastic Compliance Matrix: (Units=1/GPa)
#
#
# Indices 1 2 3 4 5 6 
#
# 1 0.011455 -0.003288 -0.000547 0.000000 0.000000 0.000000
# 2 -0.003288 0.013600 -0.009466 0.000000 0.000000 0.000000
# 3 -0.000547 -0.009466 0.020101 0.000000 0.000000 0.000000
# 4 0.000000 0.000000 0.000000 0.024878 0.000000 0.000000
# 5 0.000000 0.000000 0.000000 0.000000 0.078698 0.000000
# 6 0.000000 0.000000 0.000000 0.000000 0.000000 -0.257331
#
#
# Mechanical properties :
#
#
# Convention : Reuss Voigt Hill
#
# Bulk Modulus (GPa) = 53.89853 60.00600 56.95227
# Shear Modulus (GPa) = -65.95328 22.00914 -21.97207
#
# Velocity S-wave (km/s) = -5.81014 3.35637 -3.35354
# Velocity P-wave (km/s) = 4.17405 6.76269 3.76240
#
# Compressibility (1/GPa) = 0.01855338
#
# Stress axis : x y z
#
# Youngs Moduli (GPa) = 87.29578 73.53105 49.74794
#
# Poissons Ratio (x) = 0.24180 0.02720
# Poissons Ratio (y) = 0.28706 0.47093
# Poissons Ratio (z) = 0.04773 0.69607
#
# Static dielectric constant tensor:
#      x y z
#    x 1.551730 0.000000 0.000000 
#    y 0.000000 1.694240 0.000000 
#    z 0.000000 0.000000 1.732480 
# 
# From -- ./inp_files/22681.got.cif
#   From: 2010.05.17/outbox.cif.g08.bks.cpg/sg60_12_cif.got.tgz:22681.got - 2010.06.03 14:59:27.
