data_PCOD9454112
_publ_section_title
;
Structure prediction by ZEFSAII (Michael W. Deem and Ramdas Pophale) SiO2 
 PCOD9454112
Probable space group: P B C N
;
_chemical_formula_sum "Si O2"
_cell_formula_units_Z 64
_cell_length_a 11.364547
_cell_length_b 29.853190
_cell_length_c 9.286325
_cell_angle_alpha 90.000000
_cell_angle_beta 90.000000
_cell_angle_gamma 90.000000
_cell_volume 3150.552732
_symmetry_space_group_name_H-M "P B C N"
_symmetry_group_IT_number 60
_symmetry_cell_setting 'orthorhombic'
loop_
_space_group_symop_operation_xyz
x,y,z
1/2-x,1/2-y,1/2+z
1/2+x,1/2-y,-z
-x,y,1/2-z
-x,-y,-z
1/2+x,1/2+y,1/2-z
1/2-x,1/2+y,z
x,-y,1/2+z
loop_
_atom_site_type_symbol
_atom_site_label
_atom_site_fract_x
_atom_site_fract_y
_atom_site_fract_z
Si Si1 0.407011 0.364625 0.143456
Si Si2 0.232104 0.205198 0.091179
Si Si3 0.370335 0.731579 0.790858
Si Si4 0.081027 0.640199 0.968463
Si Si5 0.722935 0.942874 0.963202
Si Si6 0.631100 0.014535 0.759717
Si Si7 0.853254 0.611552 0.857051
Si Si8 0.927316 0.878154 0.886085
O O1 0.500000 0.388556 0.250000
O O2 0.373260 0.318404 0.223127
O O3 0.284136 0.387741 0.112090
O O4 0.479581 0.358530 0.999035
O O5 0.270608 0.239980 0.211616
O O6 0.157681 0.163411 0.151864
O O7 0.159472 0.227072 0.959259
O O8 0.351133 0.183422 0.024453
O O9 0.500000 0.749971 0.750000
O O10 0.125073 0.630644 0.804295
O O11 0.940078 0.639208 0.960157
O O12 0.127671 0.596998 0.054574
O O13 0.846449 0.916423 0.958520
O O14 0.713104 0.979029 0.837916
O O15 0.688356 0.967987 0.111419
O O16 0.500000 0.994470 0.750000
O O17 0.610336 0.059602 0.853819
O O18 0.000000 0.895114 0.750000
#
# Coordination Sequence:
#
# PCOD9454112 Si02
#       8
#     8   8   8   8   8   8   8   8
#     4  11  20  42  67  87 125 174 217 264 317 401
#     4  11  23  43  66  93 134 166 216 280 323 390
#     4  11  24  41  65  99 130 165 220 268 330 391
#     4   9  18  38  57  92 129 159 202 267 317 391
#     4  10  22  41  63  95 130 166 217 269 324 399
#     4  11  20  36  66  97 130 165 209 272 341 386
#     4  10  18  34  65  93 118 165 218 251 324 391
#     4  11  25  47  66  90 132 182 221 265 331 390
#
# _framework density 20.313897000000001
#
# number of rings (size 3 to 8) (size 9 to 14) (size 15 to 20)
#    0.000    1.500    6.250    1.875    1.750    2.000 
#    0.000    4.375    0.000    0.000    0.000    0.000 
#    0.000    0.000    0.000    0.000    0.000    0.000 
#
# Total GULP energy -357115.660716 kJ/mol
# GULP energy per Si atom -5579.932199 kJ/mol
# Density = 2.026766 g / cm^3
# Si number density = 20.313897 Si / 1000 Ang^3
#
#
#
# Elastic Constant Matrix: (Units=GPa)
#
#
# Indices 1 2 3 4 5 6 
#
# 1 124.6733 20.4977 24.7162 0.0000 0.0000 0.0000
# 2 20.4977 34.8569 16.7571 0.0000 0.0000 0.0000
# 3 24.7162 16.7571 46.8540 0.0000 0.0000 0.0000
# 4 0.0000 0.0000 0.0000 20.0862 0.0000 0.0000
# 5 0.0000 0.0000 0.0000 0.0000 29.3107 0.0000
# 6 0.0000 0.0000 0.0000 0.0000 0.0000 13.0055
#
#
#
# Elastic Compliance Matrix: (Units=1/GPa)
#
#
# Indices 1 2 3 4 5 6 
#
# 1 0.009352 -0.003777 -0.003582 0.000000 0.000000 0.000000
# 2 -0.003777 0.036171 -0.010944 0.000000 0.000000 0.000000
# 3 -0.003582 -0.010944 0.027147 0.000000 0.000000 0.000000
# 4 0.000000 0.000000 0.000000 0.049785 0.000000 0.000000
# 5 0.000000 0.000000 0.000000 0.000000 0.034117 0.000000
# 6 0.000000 0.000000 0.000000 0.000000 0.000000 0.076891
#
#
# Mechanical properties :
#
#
# Convention : Reuss Voigt Hill
#
# Bulk Modulus (GPa) = 27.72944 36.70291 32.21618
# Shear Modulus (GPa) = 17.72474 22.10803 19.91639
#
# Velocity S-wave (km/s) = 2.95709 3.30255 3.13458
# Velocity P-wave (km/s) = 5.03381 5.71398 5.38465
#
# Compressibility (1/GPa) = 0.03606275
#
# Stress axis : x y z
#
# Youngs Moduli (GPa) = 106.92647 27.64635 36.83683
#
# Poissons Ratio (x) = 0.10443 0.13197
# Poissons Ratio (y) = 0.40390 0.40314
# Poissons Ratio (z) = 0.38306 0.30256
#
# Static dielectric constant tensor:
#      x y z
#    x 1.772870 0.000000 0.000000 
#    y 0.000000 1.704550 0.000000 
#    z 0.000000 0.000000 1.733730 
# 
# From -- ./inp_files/5338.got.cif
#   From: 2010.05.17/outbox.cif.g08.bks.cpg/sg60_3_cif.got.tgz:5338.got - 2010.06.03 14:59:27.
