data_PCOD9454327
_publ_section_title
;
Structure prediction by ZEFSAII (Michael W. Deem and Ramdas Pophale) SiO2 
 PCOD9454327
Probable space group: P B C N
;
_chemical_formula_sum "Si O2"
_cell_formula_units_Z 64
_cell_length_a 23.707330
_cell_length_b 15.956901
_cell_length_c 7.943047
_cell_angle_alpha 90.000000
_cell_angle_beta 90.000000
_cell_angle_gamma 90.000000
_cell_volume 3004.819078
_symmetry_space_group_name_H-M "P B C N"
_symmetry_group_IT_number 60
_symmetry_cell_setting 'orthorhombic'
loop_
_space_group_symop_operation_xyz
x,y,z
1/2-x,1/2-y,1/2+z
1/2+x,1/2-y,-z
-x,y,1/2-z
-x,-y,-z
1/2+x,1/2+y,1/2-z
1/2-x,1/2+y,z
x,-y,1/2+z
loop_
_atom_site_type_symbol
_atom_site_label
_atom_site_fract_x
_atom_site_fract_y
_atom_site_fract_z
Si Si1 0.862560 0.696375 0.726235
Si Si2 0.299226 0.188063 0.303919
Si Si3 0.312139 0.377730 0.722854
Si Si4 0.916634 0.289364 0.596812
Si Si5 0.251796 0.857533 0.175207
Si Si6 0.160616 0.021686 0.551763
Si Si7 0.527604 0.772269 0.065120
Si Si8 0.058137 0.872618 0.183229
O O1 0.835251 0.788865 0.714121
O O2 0.809312 0.634753 0.718710
O O3 0.912956 0.682111 0.596355
O O4 0.890599 0.702234 0.910527
O O5 0.254741 0.133287 0.199015
O O6 0.365743 0.168825 0.296213
O O7 0.287568 0.283832 0.248758
O O8 0.275152 0.174658 0.493443
O O9 0.338053 0.421312 0.559306
O O10 0.331665 0.441332 0.866982
O O11 0.922614 0.196929 0.678673
O O12 0.981765 0.314708 0.559689
O O13 0.215532 0.939642 0.145391
O O14 0.105195 0.061372 0.633811
O O15 0.500000 0.761022 0.250000
O O16 0.543144 0.683863 0.980235
O O17 0.000000 0.911882 0.250000
#
# Coordination Sequence:
#
# PCOD9454327 Si02
#       8
#     8   8   8   8   8   8   8   8
#     4   9  17  33  49  74  95 128 159 210 255 303
#     4   9  17  32  47  76  92 127 161 213 256 302
#     4  10  22  32  49  67 104 130 171 205 254 294
#     4   9  17  28  53  73  98 122 163 208 257 294
#     4   9  18  29  51  69  96 122 165 203 259 299
#     4  11  21  35  46  69  97 137 167 211 242 304
#     4   9  17  31  50  73  99 128 163 211 250 293
#     4  10  19  32  48  71  95 129 170 206 241 289
#
# _framework density 21.299119000000001
#
# number of rings (size 3 to 8) (size 9 to 14) (size 15 to 20)
#    0.000    2.500    2.500    0.000    1.750    1.000 
#    0.000    2.500    0.000    0.000    0.000    0.875 
#    0.000    7.000    0.000    2.375    0.000    0.375 
#
# Total GULP energy -356475.366850 kJ/mol
# GULP energy per Si atom -5569.927607 kJ/mol
# Density = 2.125064 g / cm^3
# Si number density = 21.299119 Si / 1000 Ang^3
#
#
#
# Elastic Constant Matrix: (Units=GPa)
#
#
# Indices 1 2 3 4 5 6 
#
# 1 109.0418 10.0923 23.3087 0.0000 0.0000 0.0000
# 2 10.0923 8.6888 0.4895 0.0000 0.0000 0.0000
# 3 23.3087 0.4895 46.2971 0.0000 0.0000 0.0000
# 4 0.0000 0.0000 0.0000 11.9972 0.0000 0.0000
# 5 0.0000 0.0000 0.0000 0.0000 18.8154 0.0000
# 6 0.0000 0.0000 0.0000 0.0000 0.0000 22.0533
#
#
#
# Elastic Compliance Matrix: (Units=1/GPa)
#
#
# Indices 1 2 3 4 5 6 
#
# 1 0.011609 -0.013162 -0.005705 0.000000 0.000000 0.000000
# 2 -0.013162 0.130083 0.005251 0.000000 0.000000 0.000000
# 3 -0.005705 0.005251 0.024417 0.000000 0.000000 0.000000
# 4 0.000000 0.000000 0.000000 0.083353 0.000000 0.000000
# 5 0.000000 0.000000 0.000000 0.000000 0.053148 0.000000
# 6 0.000000 0.000000 0.000000 0.000000 0.000000 0.045345
#
#
# Mechanical properties :
#
#
# Convention : Reuss Voigt Hill
#
# Bulk Modulus (GPa) = 7.20068 25.75652 16.47860
# Shear Modulus (GPa) = 11.86300 19.24898 15.55599
#
# Velocity S-wave (km/s) = 2.36258 3.00950 2.70545
# Velocity P-wave (km/s) = 3.29097 4.91885 4.18483
#
# Compressibility (1/GPa) = 0.13887583
#
# Stress axis : x y z
#
# Youngs Moduli (GPa) = 86.14309 7.68738 40.95590
#
# Poissons Ratio (x) = 0.10118 0.23367
# Poissons Ratio (y) = 1.13384 -0.21507
# Poissons Ratio (z) = 0.49147 -0.04037
#
# Static dielectric constant tensor:
#      x y z
#    x 1.861210 0.000000 0.000000 
#    y 0.000000 1.711510 0.000000 
#    z 0.000000 0.000000 1.883250 
# 
# From -- ./inp_files/8023.got.cif
#   From: 2010.05.17/outbox.cif.g08.bks.cpg/sg60_5_cif.got.tgz:8023.got - 2010.06.03 14:59:27.
