data_PCOD9454538
_publ_section_title
;
Structure prediction by ZEFSAII (Michael W. Deem and Ramdas Pophale) SiO2 
 PCOD9454538
Probable space group: P B C N
;
_chemical_formula_sum "Si O2"
_cell_formula_units_Z 40
_cell_length_a 4.918973
_cell_length_b 20.562756
_cell_length_c 19.759997
_cell_angle_alpha 90.000000
_cell_angle_beta 90.000000
_cell_angle_gamma 90.000000
_cell_volume 1998.677094
_symmetry_space_group_name_H-M "P B C N"
_symmetry_group_IT_number 60
_symmetry_cell_setting 'orthorhombic'
loop_
_space_group_symop_operation_xyz
x,y,z
1/2-x,1/2-y,1/2+z
1/2+x,1/2-y,-z
-x,y,1/2-z
-x,-y,-z
1/2+x,1/2+y,1/2-z
1/2-x,1/2+y,z
x,-y,1/2+z
loop_
_atom_site_type_symbol
_atom_site_label
_atom_site_fract_x
_atom_site_fract_y
_atom_site_fract_z
Si Si1 0.520612 0.102757 0.670486
Si Si2 0.841794 0.728874 0.043631
Si Si3 0.521681 0.686884 0.831001
Si Si4 0.222053 0.000682 0.082703
Si Si5 0.254244 0.921720 0.950774
O O1 0.500000 0.093373 0.750000
O O2 0.826806 0.124425 0.655312
O O3 0.327292 0.164304 0.653949
O O4 0.390721 0.040183 0.636656
O O5 0.926796 0.759109 0.115915
O O6 0.741695 0.655198 0.053250
O O7 0.603025 0.768306 0.005853
O O8 0.500000 0.702613 0.750000
O O9 0.436496 0.054368 0.056379
O O10 0.947167 0.039322 0.099601
O O11 0.161186 0.947937 0.024106
#
# Coordination Sequence:
#
# PCOD9454538 Si02
#       5
#     8   8   8   8   8
#     4  10  20  36  60  84 108 147 193 235 282 337
#     4  12  23  37  59  87 116 150 197 239 282 343
#     4  10  21  37  58  84 115 150 190 239 291 340
#     4  10  19  35  53  77 112 141 183 234 282 337
#     4  10  21  33  53  80 109 148 181 228 291 334
#
# _framework density 20.013237
#
# number of rings (size 3 to 8) (size 9 to 14) (size 15 to 20)
#    0.000    1.600    0.000    6.000    0.000    3.200 
#    0.000    1.000    0.000    2.400    0.000    0.000 
#    0.000    0.000    0.000    0.000    0.000    0.000 
#
# Total GULP energy -223299.540619 kJ/mol
# GULP energy per Si atom -5582.488515 kJ/mol
# Density = 1.996769 g / cm^3
# Si number density = 20.013237 Si / 1000 Ang^3
#
#
#
# Elastic Constant Matrix: (Units=GPa)
#
#
# Indices 1 2 3 4 5 6 
#
# 1 78.9323 5.1088 34.6675 0.0000 0.0000 0.0000
# 2 5.1088 106.7215 51.4731 0.0000 0.0000 0.0000
# 3 34.6675 51.4731 70.5634 0.0000 0.0000 0.0000
# 4 0.0000 0.0000 0.0000 18.7132 0.0000 0.0000
# 5 0.0000 0.0000 0.0000 0.0000 26.3300 0.0000
# 6 0.0000 0.0000 0.0000 0.0000 0.0000 29.4372
#
#
#
# Elastic Compliance Matrix: (Units=1/GPa)
#
#
# Indices 1 2 3 4 5 6 
#
# 1 0.017853 0.005208 -0.012570 0.000000 0.000000 0.000000
# 2 0.005208 0.015976 -0.014212 0.000000 0.000000 0.000000
# 3 -0.012570 -0.014212 0.030715 0.000000 0.000000 0.000000
# 4 0.000000 0.000000 0.000000 0.053438 0.000000 0.000000
# 5 0.000000 0.000000 0.000000 0.000000 0.037980 0.000000
# 6 0.000000 0.000000 0.000000 0.000000 0.000000 0.033971
#
#
# Mechanical properties :
#
#
# Convention : Reuss Voigt Hill
#
# Bulk Modulus (GPa) = 46.74106 48.74621 47.74364
# Shear Modulus (GPa) = 20.81498 25.89393 23.35446
#
# Velocity S-wave (km/s) = 3.22850 3.60090 3.41977
# Velocity P-wave (km/s) = 6.10765 6.45744 6.28498
#
# Compressibility (1/GPa) = 0.02139446
#
# Stress axis : x y z
#
# Youngs Moduli (GPa) = 56.01336 62.59521 32.55779
#
# Poissons Ratio (x) = -0.32600 0.40926
# Poissons Ratio (y) = -0.29173 0.46272
# Poissons Ratio (z) = 0.70410 0.88962
#
# Static dielectric constant tensor:
#      x y z
#    x 1.749660 0.000000 0.000000 
#    y 0.000000 1.697220 0.000000 
#    z 0.000000 0.000000 1.734320 
# 
# From -- ./inp_files/18543.got.cif
#   From: 2010.05.17/outbox.cif.g08.bks.cpg/sg60_10_cif.got.tgz:18543.got - 2010.06.03 14:59:27.
