data_PCOD9454193
_publ_section_title
;
Structure prediction by ZEFSAII (Michael W. Deem and Ramdas Pophale) SiO2 
 PCOD9454193
Probable space group: P B C N
;
_chemical_formula_sum "Si O2"
_cell_formula_units_Z 48
_cell_length_a 10.684824
_cell_length_b 9.660657
_cell_length_c 18.152796
_cell_angle_alpha 90.000000
_cell_angle_beta 90.000000
_cell_angle_gamma 90.000000
_cell_volume 1873.775529
_symmetry_space_group_name_H-M "P B C N"
_symmetry_group_IT_number 60
_symmetry_cell_setting 'orthorhombic'
loop_
_space_group_symop_operation_xyz
x,y,z
1/2-x,1/2-y,1/2+z
1/2+x,1/2-y,-z
-x,y,1/2-z
-x,-y,-z
1/2+x,1/2+y,1/2-z
1/2-x,1/2+y,z
x,-y,1/2+z
loop_
_atom_site_type_symbol
_atom_site_label
_atom_site_fract_x
_atom_site_fract_y
_atom_site_fract_z
Si Si1 0.472484 0.096768 0.905740
Si Si2 0.424003 0.367825 0.531931
Si Si3 0.804337 0.527157 0.214148
Si Si4 0.240883 0.043624 0.635613
Si Si5 0.931870 0.239776 0.816147
Si Si6 0.339871 0.160285 0.417855
O O1 0.480999 0.248027 0.940911
O O2 0.617040 0.059211 0.888819
O O3 0.601434 0.078138 0.672412
O O4 0.393433 0.982410 0.952522
O O5 0.500000 0.500000 0.500000
O O6 0.336699 0.422219 0.597825
O O7 0.334362 0.287243 0.473047
O O8 0.728217 0.446162 0.275336
O O9 0.863842 0.637640 0.271399
O O10 0.741987 0.607110 0.144469
O O11 0.156618 0.177945 0.621003
O O12 0.000000 0.156708 0.750000
O O13 0.046753 0.297823 0.863911
#
# Coordination Sequence:
#
# PCOD9454193 Si02
#       6
#     8   8   8   8   8   8
#     4  10  22  41  77  98 137 195 237 290 370 442
#     4  12  25  40  69 111 151 194 238 304 373 439
#     4   9  20  42  73  97 132 189 246 292 358 438
#     4  12  21  39  74 107 135 187 254 300 366 436
#     4  10  18  37  66  86 140 183 230 299 363 406
#     4   9  19  43  68  95 145 196 226 296 371 427
#
# _framework density 25.616728999999999
#
# number of rings (size 3 to 8) (size 9 to 14) (size 15 to 20)
#    1.000    0.667    3.333    3.000    0.000    0.000 
#    0.000    6.667   11.000    0.000    0.000    0.000 
#    0.000    0.000    0.000    0.000    0.000    0.000 
#
# Total GULP energy -267243.911106 kJ/mol
# GULP energy per Si atom -5567.581481 kJ/mol
# Density = 2.555842 g / cm^3
# Si number density = 25.616729 Si / 1000 Ang^3
#
#
#
# Elastic Constant Matrix: (Units=GPa)
#
#
# Indices 1 2 3 4 5 6 
#
# 1 46.6487 25.2348 11.1429 0.0000 0.0000 0.0000
# 2 25.2348 128.0845 50.5555 0.0000 0.0000 0.0000
# 3 11.1429 50.5555 123.9032 0.0000 0.0000 0.0000
# 4 0.0000 0.0000 0.0000 42.2779 0.0000 0.0000
# 5 0.0000 0.0000 0.0000 0.0000 23.1142 0.0000
# 6 0.0000 0.0000 0.0000 0.0000 0.0000 22.1611
#
#
#
# Elastic Compliance Matrix: (Units=1/GPa)
#
#
# Indices 1 2 3 4 5 6 
#
# 1 0.024002 -0.004621 -0.000273 0.000000 0.000000 0.000000
# 2 -0.004621 0.010196 -0.003745 0.000000 0.000000 0.000000
# 3 -0.000273 -0.003745 0.009623 0.000000 0.000000 0.000000
# 4 0.000000 0.000000 0.000000 0.023653 0.000000 0.000000
# 5 0.000000 0.000000 0.000000 0.000000 0.043264 0.000000
# 6 0.000000 0.000000 0.000000 0.000000 0.000000 0.045124
#
#
# Mechanical properties :
#
#
# Convention : Reuss Voigt Hill
#
# Bulk Modulus (GPa) = 37.67384 52.50031 45.08707
# Shear Modulus (GPa) = 27.47458 31.62417 29.54937
#
# Velocity S-wave (km/s) = 3.27850 3.51737 3.40003
# Velocity P-wave (km/s) = 5.39166 6.08563 5.74913
#
# Compressibility (1/GPa) = 0.02654362
#
# Stress axis : x y z
#
# Youngs Moduli (GPa) = 41.66354 98.08016 103.91511
#
# Poissons Ratio (x) = 0.45323 0.02838
# Poissons Ratio (y) = 0.19253 0.38911
# Poissons Ratio (z) = 0.01138 0.36726
#
# Static dielectric constant tensor:
#      x y z
#    x 2.274560 0.000000 0.000000 
#    y 0.000000 2.245290 0.000000 
#    z 0.000000 0.000000 2.256520 
# 
# From -- ./inp_files/22811.got.cif
#   From: 2010.05.17/outbox.cif.g08.bks.cpg/sg60_12_cif.got.tgz:22811.got - 2010.06.03 14:59:27.
