data_PCOD9454532
_publ_section_title
;
Structure prediction by ZEFSAII (Michael W. Deem and Ramdas Pophale) SiO2 
 PCOD9454532
Probable space group: P B C N
;
_chemical_formula_sum "Si O2"
_cell_formula_units_Z 56
_cell_length_a 12.106518
_cell_length_b 22.998928
_cell_length_c 11.203728
_cell_angle_alpha 90.000000
_cell_angle_beta 90.000000
_cell_angle_gamma 90.000000
_cell_volume 3119.531694
_symmetry_space_group_name_H-M "P B C N"
_symmetry_group_IT_number 60
_symmetry_cell_setting 'orthorhombic'
loop_
_space_group_symop_operation_xyz
x,y,z
1/2-x,1/2-y,1/2+z
1/2+x,1/2-y,-z
-x,y,1/2-z
-x,-y,-z
1/2+x,1/2+y,1/2-z
1/2-x,1/2+y,z
x,-y,1/2+z
loop_
_atom_site_type_symbol
_atom_site_label
_atom_site_fract_x
_atom_site_fract_y
_atom_site_fract_z
Si Si1 0.116113 0.844311 0.911875
Si Si2 0.123534 0.187496 0.140098
Si Si3 0.701290 0.906285 0.466003
Si Si4 0.830992 0.714312 0.520933
Si Si5 0.991544 0.635367 0.383004
Si Si6 0.066668 0.508890 0.124665
Si Si7 0.881587 0.317689 0.279058
O O1 0.145362 0.838996 0.771100
O O2 0.156234 0.783888 0.973239
O O3 0.983154 0.843711 0.915781
O O4 0.181071 0.897290 0.971856
O O5 0.091926 0.255035 0.163837
O O6 0.230230 0.191832 0.058291
O O7 0.606973 0.888583 0.563853
O O8 0.686826 0.857746 0.365205
O O9 0.669745 0.966570 0.400687
O O10 0.939526 0.683126 0.468675
O O11 0.818765 0.693980 0.656657
O O12 0.914061 0.578081 0.371738
O O13 0.000000 0.659909 0.250000
O O14 0.000000 0.495529 0.250000
O O15 0.000000 0.500000 0.000000
O O16 0.000000 0.346412 0.250000
#
# Coordination Sequence:
#
# PCOD9454532 Si02
#       7
#     8   8   8   8   8   8   8
#     4  10  20  33  53  75 106 148 182 218 269 330
#     4  10  19  35  48  73 109 141 184 224 262 323
#     4  11  19  33  55  78 104 140 183 215 277 330
#     4  11  20  32  51  75 108 143 179 221 268 322
#     4  10  20  34  52  81 111 138 174 230 275 314
#     4   9  20  34  54  82 111 139 181 228 277 330
#     4  11  18  32  51  75 104 149 174 213 271 328
#
# _framework density 17.951412999999999
#
# number of rings (size 3 to 8) (size 9 to 14) (size 15 to 20)
#    0.000    1.714    5.714    1.286    2.000    0.000 
#    0.000    0.714    0.000    0.857    0.000    0.000 
#    0.000    0.000    0.000    0.000    0.000    0.000 
#
# Total GULP energy -312042.755617 kJ/mol
# GULP energy per Si atom -5572.192065 kJ/mol
# Density = 1.791055 g / cm^3
# Si number density = 17.951413 Si / 1000 Ang^3
#
#
#
# Elastic Constant Matrix: (Units=GPa)
#
#
# Indices 1 2 3 4 5 6 
#
# 1 57.6792 9.9128 14.8031 0.0000 0.0000 0.0000
# 2 9.9128 51.3154 21.2415 0.0000 0.0000 0.0000
# 3 14.8031 21.2415 72.4770 0.0000 0.0000 0.0000
# 4 0.0000 0.0000 0.0000 12.0291 0.0000 0.0000
# 5 0.0000 0.0000 0.0000 0.0000 30.6828 0.0000
# 6 0.0000 0.0000 0.0000 0.0000 0.0000 16.1703
#
#
#
# Elastic Compliance Matrix: (Units=1/GPa)
#
#
# Indices 1 2 3 4 5 6 
#
# 1 0.018530 -0.002291 -0.003113 0.000000 0.000000 0.000000
# 2 -0.002291 0.022461 -0.006115 0.000000 0.000000 0.000000
# 3 -0.003113 -0.006115 0.016226 0.000000 0.000000 0.000000
# 4 0.000000 0.000000 0.000000 0.083132 0.000000 0.000000
# 5 0.000000 0.000000 0.000000 0.000000 0.032592 0.000000
# 6 0.000000 0.000000 0.000000 0.000000 0.000000 0.061842
#
#
# Mechanical properties :
#
#
# Convention : Reuss Voigt Hill
#
# Bulk Modulus (GPa) = 29.25818 30.37626 29.81722
# Shear Modulus (GPa) = 18.57266 20.81071 19.69169
#
# Velocity S-wave (km/s) = 3.22002 3.40851 3.31561
# Velocity P-wave (km/s) = 5.49169 5.69638 5.59497
#
# Compressibility (1/GPa) = 0.03417847
#
# Stress axis : x y z
#
# Youngs Moduli (GPa) = 53.96658 44.52149 61.63128
#
# Poissons Ratio (x) = 0.10199 0.19188
# Poissons Ratio (y) = 0.12363 0.37687
# Poissons Ratio (z) = 0.16801 0.27225
#
# Static dielectric constant tensor:
#      x y z
#    x 1.755620 0.000000 0.000000 
#    y 0.000000 1.620260 0.000000 
#    z 0.000000 0.000000 1.665930 
# 
# From -- ./inp_files/11330.got.cif
#   From: 2010.05.17/outbox.cif.g08.bks.cpg/sg60_6_cif.got.tgz:11330.got - 2010.06.03 14:59:27.
