data_PCOD9454727
_publ_section_title
;
Structure prediction by ZEFSAII (Michael W. Deem and Ramdas Pophale) SiO2 
 PCOD9454727
Probable space group: P B C N
;
_chemical_formula_sum "Si O2"
_cell_formula_units_Z 64
_cell_length_a 19.155987
_cell_length_b 11.711218
_cell_length_c 13.886615
_cell_angle_alpha 90.000000
_cell_angle_beta 90.000000
_cell_angle_gamma 90.000000
_cell_volume 3115.322373
_symmetry_space_group_name_H-M "P B C N"
_symmetry_group_IT_number 60
_symmetry_cell_setting 'orthorhombic'
loop_
_space_group_symop_operation_xyz
x,y,z
1/2-x,1/2-y,1/2+z
1/2+x,1/2-y,-z
-x,y,1/2-z
-x,-y,-z
1/2+x,1/2+y,1/2-z
1/2-x,1/2+y,z
x,-y,1/2+z
loop_
_atom_site_type_symbol
_atom_site_label
_atom_site_fract_x
_atom_site_fract_y
_atom_site_fract_z
Si Si1 0.564347 0.978228 0.361955
Si Si2 0.590195 0.001230 0.584849
Si Si3 0.934846 0.240523 0.617327
Si Si4 0.691475 0.652779 0.969147
Si Si5 0.593021 0.222845 0.324622
Si Si6 0.784635 0.329346 0.129547
Si Si7 0.316914 0.799547 0.152805
Si Si8 0.842760 0.898227 0.990374
O O1 0.578154 0.020761 0.471362
O O2 0.609825 0.866780 0.341611
O O3 0.480909 0.962310 0.359498
O O4 0.591321 0.087372 0.302042
O O5 0.596460 0.864518 0.591822
O O6 0.655919 0.074336 0.617416
O O7 0.905616 0.211928 0.723197
O O8 0.912499 0.152454 0.536785
O O9 0.017650 0.253565 0.627961
O O10 0.652864 0.738419 0.896010
O O11 0.768294 0.634792 0.924493
O O12 0.694405 0.714778 0.071682
O O13 0.654359 0.531683 0.971873
O O14 0.780616 0.302505 0.242827
O O15 0.716739 0.372768 0.071295
O O16 0.325578 0.674864 0.105290
#
# Coordination Sequence:
#
# PCOD9454727 Si02
#       8
#     8   8   8   8   8   8   8   8
#     4  10  19  37  65  95 123 153 198 257 310 351
#     4  10  19  37  65  95 123 153 198 257 310 351
#     4  10  21  39  65  93 122 160 203 249 301 355
#     4  11  25  42  60  87 124 164 202 245 297 361
#     4  10  21  39  65  93 122 160 203 249 301 355
#     4  11  24  40  62  90 122 160 202 250 303 358
#     4  11  24  40  62  90 122 160 202 250 303 358
#     4  11  25  42  60  87 124 164 202 245 297 361
#
# _framework density 20.543620000000001
#
# number of rings (size 3 to 8) (size 9 to 14) (size 15 to 20)
#    0.000    1.500    2.500    2.250    3.500    4.000 
#    0.000    0.000    0.000    0.000    0.000    0.000 
#    0.000    0.000    0.000    0.000    0.000    0.000 
#
# Total GULP energy -357702.271530 kJ/mol
# GULP energy per Si atom -5589.097993 kJ/mol
# Density = 2.049686 g / cm^3
# Si number density = 20.543620 Si / 1000 Ang^3
#
#
#
# Elastic Constant Matrix: (Units=GPa)
#
#
# Indices 1 2 3 4 5 6 
#
# 1 60.9539 21.5413 6.0850 0.0000 0.0000 0.0000
# 2 21.5413 72.2903 -3.0699 0.0000 0.0000 0.0000
# 3 6.0850 -3.0699 73.9870 0.0000 0.0000 0.0000
# 4 0.0000 0.0000 0.0000 14.3371 0.0000 0.0000
# 5 0.0000 0.0000 0.0000 0.0000 27.6772 0.0000
# 6 0.0000 0.0000 0.0000 0.0000 0.0000 25.7530
#
#
#
# Elastic Compliance Matrix: (Units=1/GPa)
#
#
# Indices 1 2 3 4 5 6 
#
# 1 0.018563 -0.005606 -0.001759 0.000000 0.000000 0.000000
# 2 -0.005606 0.015551 0.001106 0.000000 0.000000 0.000000
# 3 -0.001759 0.001106 0.013706 0.000000 0.000000 0.000000
# 4 0.000000 0.000000 0.000000 0.069749 0.000000 0.000000
# 5 0.000000 0.000000 0.000000 0.000000 0.036131 0.000000
# 6 0.000000 0.000000 0.000000 0.000000 0.000000 0.038830
#
#
# Mechanical properties :
#
#
# Convention : Reuss Voigt Hill
#
# Bulk Modulus (GPa) = 28.32726 28.48264 28.40495
# Shear Modulus (GPa) = 23.06112 25.73181 24.39646
#
# Velocity S-wave (km/s) = 3.35407 3.54297 3.44982
# Velocity P-wave (km/s) = 5.36829 5.53457 5.45206
#
# Compressibility (1/GPa) = 0.03530168
#
# Stress axis : x y z
#
# Youngs Moduli (GPa) = 53.87153 64.30614 72.95820
#
# Poissons Ratio (x) = 0.36051 0.12835
# Poissons Ratio (y) = 0.30201 -0.08071
# Poissons Ratio (z) = 0.09477 -0.07114
#
# Static dielectric constant tensor:
#      x y z
#    x 1.743230 0.000000 0.000000 
#    y 0.000000 1.693690 0.000000 
#    z 0.000000 0.000000 1.777830 
# 
# From -- ./inp_files/17480.got.cif
#   From: 2010.05.17/outbox.cif.g08.bks.cpg/sg60_9_cif.got.tgz:17480.got - 2010.06.03 14:59:27.
