data_PCOD9454397
_publ_section_title
;
Structure prediction by ZEFSAII (Michael W. Deem and Ramdas Pophale) SiO2 
 PCOD9454397
Probable space group: P B C N
;
_chemical_formula_sum "Si O2"
_cell_formula_units_Z 56
_cell_length_a 18.579800
_cell_length_b 9.600261
_cell_length_c 16.849752
_cell_angle_alpha 90.000000
_cell_angle_beta 90.000000
_cell_angle_gamma 90.000000
_cell_volume 3005.505923
_symmetry_space_group_name_H-M "P B C N"
_symmetry_group_IT_number 60
_symmetry_cell_setting 'orthorhombic'
loop_
_space_group_symop_operation_xyz
x,y,z
1/2-x,1/2-y,1/2+z
1/2+x,1/2-y,-z
-x,y,1/2-z
-x,-y,-z
1/2+x,1/2+y,1/2-z
1/2-x,1/2+y,z
x,-y,1/2+z
loop_
_atom_site_type_symbol
_atom_site_label
_atom_site_fract_x
_atom_site_fract_y
_atom_site_fract_z
Si Si1 0.795039 0.455394 0.395079
Si Si2 0.861502 0.236685 0.509628
Si Si3 0.730702 0.697222 0.119125
Si Si4 0.642391 0.568061 0.975793
Si Si5 0.912522 0.353629 0.953477
Si Si6 0.950518 0.468841 0.602508
Si Si7 0.176182 0.463815 0.290539
O O1 0.834584 0.321147 0.432670
O O2 0.711442 0.448398 0.418059
O O3 0.832736 0.585856 0.439315
O O4 0.809640 0.467059 0.302492
O O5 0.791245 0.226228 0.565690
O O6 0.916187 0.335809 0.556745
O O7 0.889556 0.084444 0.489054
O O8 0.771904 0.576778 0.167214
O O9 0.694936 0.811914 0.174917
O O10 0.674851 0.627360 0.058340
O O11 0.590022 0.688638 0.945107
O O12 0.965826 0.431799 0.892675
O O13 0.937998 0.404327 0.040536
O O14 0.904362 0.497828 0.680518
#
# Coordination Sequence:
#
# PCOD9454397 Si02
#       7
#     8   8   8   8   8   8   8
#     4  10  22  33  54  83 117 146 184 232 292 339
#     4   9  19  35  53  81 111 147 186 235 278 340
#     4  10  19  33  53  80 110 147 187 233 284 329
#     4  11  19  34  56  82 115 145 183 239 288 326
#     4  10  20  37  57  80 108 151 187 232 272 345
#     4   9  20  38  57  78 107 149 199 219 276 340
#     4  11  21  34  55  83 113 148 189 238 284 339
#
# _framework density 18.632470000000001
#
# number of rings (size 3 to 8) (size 9 to 14) (size 15 to 20)
#    0.000    2.000    2.857    2.571    4.000    1.143 
#    0.000    0.000    0.000    0.000    0.000    0.000 
#    0.000    0.000    0.000    0.000    0.000    0.000 
#
# Total GULP energy -312592.680098 kJ/mol
# GULP energy per Si atom -5582.012145 kJ/mol
# Density = 1.859006 g / cm^3
# Si number density = 18.632470 Si / 1000 Ang^3
#
#
#
# Elastic Constant Matrix: (Units=GPa)
#
#
# Indices 1 2 3 4 5 6 
#
# 1 42.2269 1.5053 6.1909 0.0000 0.0000 0.0000
# 2 1.5053 98.1253 10.9902 0.0000 0.0000 0.0000
# 3 6.1909 10.9902 82.8543 0.0000 0.0000 0.0000
# 4 0.0000 0.0000 0.0000 10.7673 0.0000 0.0000
# 5 0.0000 0.0000 0.0000 0.0000 12.5514 0.0000
# 6 0.0000 0.0000 0.0000 0.0000 0.0000 14.3056
#
#
#
# Elastic Compliance Matrix: (Units=1/GPa)
#
#
# Indices 1 2 3 4 5 6 
#
# 1 0.023947 -0.000169 -0.001767 0.000000 0.000000 0.000000
# 2 -0.000169 0.010346 -0.001360 0.000000 0.000000 0.000000
# 3 -0.001767 -0.001360 0.012382 0.000000 0.000000 0.000000
# 4 0.000000 0.000000 0.000000 0.092874 0.000000 0.000000
# 5 0.000000 0.000000 0.000000 0.000000 0.079672 0.000000
# 6 0.000000 0.000000 0.000000 0.000000 0.000000 0.069903
#
#
# Mechanical properties :
#
#
# Convention : Reuss Voigt Hill
#
# Bulk Modulus (GPa) = 24.94858 28.95325 26.95091
# Shear Modulus (GPa) = 16.17726 21.15953 18.66840
#
# Velocity S-wave (km/s) = 2.94977 3.37356 3.16876
# Velocity P-wave (km/s) = 5.00204 5.54504 5.28052
#
# Compressibility (1/GPa) = 0.04008244
#
# Stress axis : x y z
#
# Youngs Moduli (GPa) = 41.75943 96.65633 80.76400
#
# Poissons Ratio (x) = 0.01638 0.14270
# Poissons Ratio (y) = 0.00708 0.10981
# Poissons Ratio (z) = 0.07378 0.13142
#
# Static dielectric constant tensor:
#      x y z
#    x 1.684670 0.000000 0.000000 
#    y 0.000000 1.658240 0.000000 
#    z 0.000000 0.000000 1.622020 
# 
# From -- ./inp_files/17724.got.cif
#   From: 2010.05.17/outbox.cif.g08.bks.cpg/sg60_9_cif.got.tgz:17724.got - 2010.06.03 14:59:27.
