data_PCOD9454551
_publ_section_title
;
Structure prediction by ZEFSAII (Michael W. Deem and Ramdas Pophale) SiO2 
 PCOD9454551
Probable space group: P B C N
;
_chemical_formula_sum "Si O2"
_cell_formula_units_Z 48
_cell_length_a 10.412669
_cell_length_b 29.196081
_cell_length_c 8.594958
_cell_angle_alpha 90.000000
_cell_angle_beta 90.000000
_cell_angle_gamma 90.000000
_cell_volume 2612.945683
_symmetry_space_group_name_H-M "P B C N"
_symmetry_group_IT_number 60
_symmetry_cell_setting 'orthorhombic'
loop_
_space_group_symop_operation_xyz
x,y,z
1/2-x,1/2-y,1/2+z
1/2+x,1/2-y,-z
-x,y,1/2-z
-x,-y,-z
1/2+x,1/2+y,1/2-z
1/2-x,1/2+y,z
x,-y,1/2+z
loop_
_atom_site_type_symbol
_atom_site_label
_atom_site_fract_x
_atom_site_fract_y
_atom_site_fract_z
Si Si1 0.600913 0.804365 0.459622
Si Si2 0.000000 0.625336 0.750000
Si Si3 0.224549 0.556194 0.818634
Si Si4 0.000000 0.255253 0.750000
Si Si5 0.500000 0.725100 0.250000
Si Si6 0.596834 0.975024 0.877824
Si Si7 0.000000 0.099140 0.750000
Si Si8 0.113800 0.823178 0.041488
O O1 0.497371 0.840576 0.397202
O O2 0.577253 0.786391 0.631215
O O3 0.590642 0.759697 0.348238
O O4 0.735288 0.829799 0.449325
O O5 0.875044 0.593900 0.746062
O O6 0.182450 0.510592 0.723049
O O7 0.372037 0.570254 0.789852
O O8 0.189055 0.551756 0.002441
O O9 0.913794 0.220968 0.850595
O O10 0.427357 0.693087 0.371488
O O11 0.500000 0.952109 0.750000
O O12 0.500000 0.000000 0.000000
O O13 0.962909 0.133625 0.891233
#
# Coordination Sequence:
#
# PCOD9454551 Si02
#       8
#     8   4   8   4   4   8   4   8
#     4  10  19  35  56  83 110 155 195 250 285 334
#     4  11  20  36  60  83 118 146 194 243 286 340
#     4  11  21  41  61  91 115 152 194 235 298 359
#     4   9  20  34  52  83 108 154 206 233 282 350
#     4   9  20  34  56  81 110 156 208 239 282 354
#     4   9  18  37  67  88 110 148 191 236 285 352
#     4  11  24  38  60  85 128 158 184 249 302 346
#     4  10  19  37  55  79 117 159 190 242 295 338
#
# _framework density 18.370072
#
# number of rings (size 3 to 8) (size 9 to 14) (size 15 to 20)
#    0.000    2.000    4.167    1.000    0.000    0.667 
#    7.500    3.333    0.000    0.000    0.000    0.000 
#    0.000    0.000    0.000    0.000    0.000    0.000 
#
# Total GULP energy -267335.312347 kJ/mol
# GULP energy per Si atom -5569.485674 kJ/mol
# Density = 1.832826 g / cm^3
# Si number density = 18.370072 Si / 1000 Ang^3
#
#
#
# Elastic Constant Matrix: (Units=GPa)
#
#
# Indices 1 2 3 4 5 6 
#
# 1 113.4912 32.6883 28.9980 0.0000 0.0000 0.0000
# 2 32.6883 57.3438 26.6210 0.0000 0.0000 0.0000
# 3 28.9980 26.6210 110.9333 0.0000 0.0000 0.0000
# 4 0.0000 0.0000 0.0000 37.3656 0.0000 0.0000
# 5 0.0000 0.0000 0.0000 0.0000 17.5616 0.0000
# 6 0.0000 0.0000 0.0000 0.0000 0.0000 30.5422
#
#
#
# Elastic Compliance Matrix: (Units=1/GPa)
#
#
# Indices 1 2 3 4 5 6 
#
# 1 0.010762 -0.005434 -0.001509 0.000000 0.000000 0.000000
# 2 -0.005434 0.022369 -0.003947 0.000000 0.000000 0.000000
# 3 -0.001509 -0.003947 0.010356 0.000000 0.000000 0.000000
# 4 0.000000 0.000000 0.000000 0.026763 0.000000 0.000000
# 5 0.000000 0.000000 0.000000 0.000000 0.056942 0.000000
# 6 0.000000 0.000000 0.000000 0.000000 0.000000 0.032742
#
#
# Mechanical properties :
#
#
# Convention : Reuss Voigt Hill
#
# Bulk Modulus (GPa) = 46.07105 50.93143 48.50124
# Shear Modulus (GPa) = 26.46197 29.99129 28.22663
#
# Velocity S-wave (km/s) = 3.79950 4.04495 3.92414
# Velocity P-wave (km/s) = 6.66199 7.04279 6.85504
#
# Compressibility (1/GPa) = 0.02170561
#
# Stress axis : x y z
#
# Youngs Moduli (GPa) = 92.91917 44.70487 96.56057
#
# Poissons Ratio (x) = 0.24294 0.14572
# Poissons Ratio (y) = 0.50494 0.38117
# Poissons Ratio (z) = 0.14023 0.17647
#
# Static dielectric constant tensor:
#      x y z
#    x 1.634760 0.000000 0.000000 
#    y 0.000000 1.624260 0.000000 
#    z 0.000000 0.000000 1.655480 
# 
# From -- ./inp_files/5184.got.cif
#   From: 2010.05.17/outbox.cif.g08.bks.cpg/sg60_3_cif.got.tgz:5184.got - 2010.06.03 14:59:27.
