data_PCOD9454906
_publ_section_title
;
Structure prediction by ZEFSAII (Michael W. Deem and Ramdas Pophale) SiO2 
 PCOD9454906
Probable space group: P B C N
;
_chemical_formula_sum "Si O2"
_cell_formula_units_Z 60
_cell_length_a 12.449884
_cell_length_b 19.695777
_cell_length_c 11.985680
_cell_angle_alpha 90.000000
_cell_angle_beta 90.000000
_cell_angle_gamma 90.000000
_cell_volume 2939.010258
_symmetry_space_group_name_H-M "P B C N"
_symmetry_group_IT_number 60
_symmetry_cell_setting 'orthorhombic'
loop_
_space_group_symop_operation_xyz
x,y,z
1/2-x,1/2-y,1/2+z
1/2+x,1/2-y,-z
-x,y,1/2-z
-x,-y,-z
1/2+x,1/2+y,1/2-z
1/2-x,1/2+y,z
x,-y,1/2+z
loop_
_atom_site_type_symbol
_atom_site_label
_atom_site_fract_x
_atom_site_fract_y
_atom_site_fract_z
Si Si1 0.443394 0.061982 0.141870
Si Si2 0.500000 0.655060 0.750000
Si Si3 0.794713 0.796300 0.662591
Si Si4 0.566005 0.259533 0.466799
Si Si5 0.753198 0.158705 0.399941
Si Si6 0.613018 0.909950 0.284697
Si Si7 0.890850 0.358322 0.514599
Si Si8 0.709606 0.358237 0.143513
O O1 0.500000 0.095718 0.250000
O O2 0.332587 0.098790 0.116631
O O3 0.533476 0.077627 0.048817
O O4 0.414522 0.985797 0.175932
O O5 0.473094 0.698623 0.639785
O O6 0.391261 0.618164 0.784260
O O7 0.897137 0.795895 0.580548
O O8 0.813923 0.824526 0.786345
O O9 0.701082 0.840500 0.603083
O O10 0.747836 0.719055 0.671418
O O11 0.675618 0.221965 0.429099
O O12 0.474263 0.204047 0.490440
O O13 0.816982 0.142526 0.512536
O O14 0.500000 0.876905 0.250000
O O15 0.658087 0.871622 0.392845
O O16 0.690641 0.904858 0.179258
#
# Coordination Sequence:
#
# PCOD9454906 Si02
#       8
#     8   4   8   8   8   8   8   8
#     4  10  20  36  61  89 123 167 198 258 323 377
#     4  12  20  40  58  84 126 162 214 242 308 390
#     4  11  20  35  60  89 122 162 209 250 327 381
#     4  10  20  32  57  84 119 162 197 252 309 369
#     4  10  20  38  56  86 122 159 204 256 315 373
#     4  11  23  39  57  94 131 159 215 256 319 379
#     4  11  20  35  57  87 125 164 197 258 312 380
#     4  11  24  37  61  87 127 169 203 269 313 374
#
# _framework density 20.415035
#
# number of rings (size 3 to 8) (size 9 to 14) (size 15 to 20)
#    0.000    1.333    4.000    3.600    3.733    1.067 
#    0.000    0.667    0.000    0.800    0.000    0.000 
#    0.000    0.000    0.000    0.000    0.000    0.000 
#
# Total GULP energy -334947.954205 kJ/mol
# GULP energy per Si atom -5582.465903 kJ/mol
# Density = 2.036857 g / cm^3
# Si number density = 20.415035 Si / 1000 Ang^3
#
#
#
# Elastic Constant Matrix: (Units=GPa)
#
#
# Indices 1 2 3 4 5 6 
#
# 1 67.3749 10.1505 33.6049 0.0000 0.0000 0.0000
# 2 10.1505 39.7417 25.7240 0.0000 0.0000 0.0000
# 3 33.6049 25.7240 148.2296 0.0000 0.0000 0.0000
# 4 0.0000 0.0000 0.0000 17.4831 0.0000 0.0000
# 5 0.0000 0.0000 0.0000 0.0000 45.3257 0.0000
# 6 0.0000 0.0000 0.0000 0.0000 0.0000 11.5973
#
#
#
# Elastic Compliance Matrix: (Units=1/GPa)
#
#
# Indices 1 2 3 4 5 6 
#
# 1 0.016884 -0.002067 -0.003469 0.000000 0.000000 0.000000
# 2 -0.002067 0.028600 -0.004495 0.000000 0.000000 0.000000
# 3 -0.003469 -0.004495 0.008313 0.000000 0.000000 0.000000
# 4 0.000000 0.000000 0.000000 0.057198 0.000000 0.000000
# 5 0.000000 0.000000 0.000000 0.000000 0.022063 0.000000
# 6 0.000000 0.000000 0.000000 0.000000 0.000000 0.086227
#
#
# Mechanical properties :
#
#
# Convention : Reuss Voigt Hill
#
# Bulk Modulus (GPa) = 29.64262 43.81167 36.72715
# Shear Modulus (GPa) = 19.95289 27.27234 23.61261
#
# Velocity S-wave (km/s) = 3.12967 3.65895 3.40461
# Velocity P-wave (km/s) = 5.25465 6.27357 5.78658
#
# Compressibility (1/GPa) = 0.03373521
#
# Stress axis : x y z
#
# Youngs Moduli (GPa) = 59.22772 34.96534 120.29695
#
# Poissons Ratio (x) = 0.07227 0.41731
# Poissons Ratio (y) = 0.12242 0.54069
# Poissons Ratio (z) = 0.20546 0.15716
#
# Static dielectric constant tensor:
#      x y z
#    x 1.729990 0.000000 0.000000 
#    y 0.000000 1.733670 0.000000 
#    z 0.000000 0.000000 1.821130 
# 
# From -- ./inp_files/11250.got.cif
#   From: 2010.05.17/outbox.cif.g08.bks.cpg/sg60_6_cif.got.tgz:11250.got - 2010.06.03 14:59:27.
