data_PCOD9454773
_publ_section_title
;
Structure prediction by ZEFSAII (Michael W. Deem and Ramdas Pophale) SiO2 
 PCOD9454773
Probable space group: P B C N
;
_chemical_formula_sum "Si O2"
_cell_formula_units_Z 56
_cell_length_a 31.390963
_cell_length_b 17.035597
_cell_length_c 5.329608
_cell_angle_alpha 90.000000
_cell_angle_beta 90.000000
_cell_angle_gamma 90.000000
_cell_volume 2850.081401
_symmetry_space_group_name_H-M "P B C N"
_symmetry_group_IT_number 60
_symmetry_cell_setting 'orthorhombic'
loop_
_space_group_symop_operation_xyz
x,y,z
1/2-x,1/2-y,1/2+z
1/2+x,1/2-y,-z
-x,y,1/2-z
-x,-y,-z
1/2+x,1/2+y,1/2-z
1/2-x,1/2+y,z
x,-y,1/2+z
loop_
_atom_site_type_symbol
_atom_site_label
_atom_site_fract_x
_atom_site_fract_y
_atom_site_fract_z
Si Si1 0.370116 0.287026 0.227704
Si Si2 0.500000 0.752506 0.250000
Si Si3 0.404909 0.203671 0.728463
Si Si4 0.500000 0.645154 0.750000
Si Si5 0.107633 0.524693 0.745334
Si Si6 0.587793 0.449740 0.217771
Si Si7 0.296753 0.957791 0.745234
Si Si8 0.775298 0.274039 0.775664
O O1 0.391225 0.244968 0.469580
O O2 0.379410 0.378803 0.248396
O O3 0.320462 0.269010 0.229688
O O4 0.389667 0.252853 0.969943
O O5 0.543870 0.800668 0.262482
O O6 0.498274 0.698234 0.499485
O O7 0.384301 0.117299 0.741636
O O8 0.458470 0.590930 0.763640
O O9 0.083983 0.499268 0.496024
O O10 0.151872 0.474243 0.746570
O O11 0.592184 0.509945 0.447525
O O12 0.285539 0.866875 0.731587
O O13 0.280413 0.003186 0.500550
O O14 0.748903 0.248872 0.530552
#
# Coordination Sequence:
#
# PCOD9454773 Si02
#       8
#     8   4   8   4   8   8   8   8
#     4  12  24  44  68  91 132 177 218 277 332 404
#     4  12  22  39  64 103 136 174 218 280 322 391
#     4  12  22  41  68  98 135 174 220 264 324 398
#     4  12  22  43  62  97 138 170 232 278 328 379
#     4  10  20  35  60  93 122 161 210 257 307 374
#     4  12  24  41  64  96 133 178 227 277 332 395
#     4  10  19  38  64  95 123 157 212 261 315 382
#     4  12  26  45  69 102 131 168 224 279 336 402
#
# _framework density 19.648562999999999
#
# number of rings (size 3 to 8) (size 9 to 14) (size 15 to 20)
#    0.000    0.571    2.857    8.143    0.000    0.000 
#    0.000    5.000    0.000    0.000    0.000    0.000 
#    0.000    0.000    0.000    0.000    0.000    0.000 
#
# Total GULP energy -313117.301670 kJ/mol
# GULP energy per Si atom -5591.380387 kJ/mol
# Density = 1.960384 g / cm^3
# Si number density = 19.648563 Si / 1000 Ang^3
#
#
#
# Elastic Constant Matrix: (Units=GPa)
#
#
# Indices 1 2 3 4 5 6 
#
# 1 117.9544 25.0022 9.8560 0.0000 0.0000 0.0000
# 2 25.0022 80.1817 -14.5414 0.0000 0.0000 0.0000
# 3 9.8560 -14.5414 117.1353 0.0000 0.0000 0.0000
# 4 0.0000 0.0000 0.0000 122.9144 0.0000 0.0000
# 5 0.0000 0.0000 0.0000 0.0000 12.6025 0.0000
# 6 0.0000 0.0000 0.0000 0.0000 0.0000 30.1597
#
#
#
# Elastic Compliance Matrix: (Units=1/GPa)
#
#
# Indices 1 2 3 4 5 6 
#
# 1 0.009229 -0.003088 -0.001160 0.000000 0.000000 0.000000
# 2 -0.003088 0.013792 0.001972 0.000000 0.000000 0.000000
# 3 -0.001160 0.001972 0.008880 0.000000 0.000000 0.000000
# 4 0.000000 0.000000 0.000000 0.008136 0.000000 0.000000
# 5 0.000000 0.000000 0.000000 0.000000 0.079350 0.000000
# 6 0.000000 0.000000 0.000000 0.000000 0.000000 0.033157
#
#
# Mechanical properties :
#
#
# Convention : Reuss Voigt Hill
#
# Bulk Modulus (GPa) = 36.56456 39.54500 38.05478
# Shear Modulus (GPa) = 30.08205 52.79894 41.44050
#
# Velocity S-wave (km/s) = 3.91705 5.18941 4.59746
# Velocity P-wave (km/s) = 6.25359 7.48842 6.89869
#
# Compressibility (1/GPa) = 0.02734889
#
# Stress axis : x y z
#
# Youngs Moduli (GPa) = 108.34965 72.50421 112.61831
#
# Poissons Ratio (x) = 0.22391 0.13063
# Poissons Ratio (y) = 0.33461 -0.22209
# Poissons Ratio (z) = 0.12568 -0.14298
#
# Static dielectric constant tensor:
#      x y z
#    x 1.674850 0.000000 0.000000 
#    y 0.000000 1.672810 0.000000 
#    z 0.000000 0.000000 1.748290 
# 
# From -- ./inp_files/2701.got.cif
#   From: 2010.05.17/outbox.cif.g08.bks.cpg/sg60_2_cif.got.tgz:2701.got - 2010.06.03 14:59:27.
