data_PCOD9454385
_publ_section_title
;
Structure prediction by ZEFSAII (Michael W. Deem and Ramdas Pophale) SiO2 
 PCOD9454385
Probable space group: P B C N
;
_chemical_formula_sum "Si O2"
_cell_formula_units_Z 48
_cell_length_a 15.937122
_cell_length_b 6.817034
_cell_length_c 15.331942
_cell_angle_alpha 90.000000
_cell_angle_beta 90.000000
_cell_angle_gamma 90.000000
_cell_volume 1665.722012
_symmetry_space_group_name_H-M "P B C N"
_symmetry_group_IT_number 60
_symmetry_cell_setting 'orthorhombic'
loop_
_space_group_symop_operation_xyz
x,y,z
1/2-x,1/2-y,1/2+z
1/2+x,1/2-y,-z
-x,y,1/2-z
-x,-y,-z
1/2+x,1/2+y,1/2-z
1/2-x,1/2+y,z
x,-y,1/2+z
loop_
_atom_site_type_symbol
_atom_site_label
_atom_site_fract_x
_atom_site_fract_y
_atom_site_fract_z
Si Si1 0.680833 0.094530 0.975351
Si Si2 0.857946 0.543572 0.169145
Si Si3 0.680838 0.369773 0.726059
Si Si4 0.141535 0.986748 0.080016
Si Si5 0.522618 0.018731 0.898100
Si Si6 0.977588 0.972231 0.648926
O O1 0.643081 0.313157 0.975660
O O2 0.623130 0.987255 0.902128
O O3 0.778076 0.127257 0.954593
O O4 0.668946 0.998387 0.069342
O O5 0.856759 0.347390 0.225514
O O6 0.778543 0.660489 0.205038
O O7 0.954943 0.605187 0.158620
O O8 0.667260 0.461866 0.820423
O O9 0.623899 0.479381 0.652358
O O10 0.045156 0.917283 0.086852
O O11 0.501536 0.243554 0.871029
O O12 0.500000 0.000000 0.000000
O O13 0.000000 0.007146 0.750000
#
# Coordination Sequence:
#
# PCOD9454385 Si02
#       6
#     8   8   8   8   8   8
#     4  10  19  33  52  75 100 129 163 202 244 290
#     4  10  19  33  52  75 100 129 163 202 244 290
#     4  10  19  33  51  72  97 129 165 202 242 290
#     4  10  19  33  51  72  97 129 165 202 242 290
#     4   8  16  30  49  70  95 126 162 198 238 288
#     4   8  16  30  48  66  92 130 164 190 236 300
#
# _framework density 28.816331999999999
#
# number of rings (size 3 to 8) (size 9 to 14) (size 15 to 20)
#    0.000    2.667    0.000    2.000    0.000    1.333 
#    0.000    2.500    0.000    0.000    0.000    0.000 
#    0.000    0.000    0.000    0.000    0.000    0.000 
#
# Total GULP energy -268446.649967 kJ/mol
# GULP energy per Si atom -5592.638541 kJ/mol
# Density = 2.875074 g / cm^3
# Si number density = 28.816332 Si / 1000 Ang^3
#
#
#
# Elastic Constant Matrix: (Units=GPa)
#
#
# Indices 1 2 3 4 5 6 
#
# 1 157.8703 39.5748 57.6905 0.0000 0.0000 0.0000
# 2 39.5748 42.9331 27.9070 0.0000 0.0000 0.0000
# 3 57.6905 27.9070 131.7207 0.0000 0.0000 0.0000
# 4 0.0000 0.0000 0.0000 34.5925 0.0000 0.0000
# 5 0.0000 0.0000 0.0000 0.0000 37.0708 0.0000
# 6 0.0000 0.0000 0.0000 0.0000 0.0000 58.6001
#
#
#
# Elastic Compliance Matrix: (Units=1/GPa)
#
#
# Indices 1 2 3 4 5 6 
#
# 1 0.008897 -0.006574 -0.002504 0.000000 0.000000 0.000000
# 2 -0.006574 0.031869 -0.003873 0.000000 0.000000 0.000000
# 3 -0.002504 -0.003873 0.009509 0.000000 0.000000 0.000000
# 4 0.000000 0.000000 0.000000 0.028908 0.000000 0.000000
# 5 0.000000 0.000000 0.000000 0.000000 0.026975 0.000000
# 6 0.000000 0.000000 0.000000 0.000000 0.000000 0.017065
#
#
# Mechanical properties :
#
#
# Convention : Reuss Voigt Hill
#
# Bulk Modulus (GPa) = 41.02703 64.76318 52.89511
# Shear Modulus (GPa) = 31.79668 39.87613 35.83641
#
# Velocity S-wave (km/s) = 3.32539 3.72399 3.53032
# Velocity P-wave (km/s) = 5.38634 6.40422 5.91721
#
# Compressibility (1/GPa) = 0.02437418
#
# Stress axis : x y z
#
# Youngs Moduli (GPa) = 112.39438 31.37858 105.16295
#
# Poissons Ratio (x) = 0.20627 0.26333
# Poissons Ratio (y) = 0.73884 0.40728
# Poissons Ratio (z) = 0.28144 0.12152
#
# Static dielectric constant tensor:
#      x y z
#    x 2.355630 0.000000 0.000000 
#    y 0.000000 2.401370 0.000000 
#    z 0.000000 0.000000 2.122800 
# 
# From -- ./inp_files/16758.got.cif
#   From: 2010.05.17/outbox.cif.g08.bks.cpg/sg60_9_cif.got.tgz:16758.got - 2010.06.03 14:59:27.
