data_PCOD9454111
_publ_section_title
;
Structure prediction by ZEFSAII (Michael W. Deem and Ramdas Pophale) SiO2 
 PCOD9454111
Probable space group: P B C N
;
_chemical_formula_sum "Si O2"
_cell_formula_units_Z 60
_cell_length_a 11.012890
_cell_length_b 8.427429
_cell_length_c 31.280675
_cell_angle_alpha 90.000000
_cell_angle_beta 90.000000
_cell_angle_gamma 90.000000
_cell_volume 2903.170350
_symmetry_space_group_name_H-M "P B C N"
_symmetry_group_IT_number 60
_symmetry_cell_setting 'orthorhombic'
loop_
_space_group_symop_operation_xyz
x,y,z
1/2-x,1/2-y,1/2+z
1/2+x,1/2-y,-z
-x,y,1/2-z
-x,-y,-z
1/2+x,1/2+y,1/2-z
1/2-x,1/2+y,z
x,-y,1/2+z
loop_
_atom_site_type_symbol
_atom_site_label
_atom_site_fract_x
_atom_site_fract_y
_atom_site_fract_z
Si Si1 0.500000 0.087825 0.750000
Si Si2 0.525346 0.098211 0.126209
Si Si3 0.408921 0.559010 0.639265
Si Si4 0.079856 0.983362 0.791705
Si Si5 0.570777 0.984653 0.455572
Si Si6 0.803854 0.828247 0.920204
Si Si7 0.825939 0.657799 0.200802
Si Si8 0.660703 0.143487 0.830187
O O1 0.583795 0.175073 0.786645
O O2 0.595127 0.966032 0.728064
O O3 0.470498 0.273156 0.129900
O O4 0.530844 0.026591 0.079620
O O5 0.649187 0.102185 0.152332
O O6 0.424730 0.989907 0.149281
O O7 0.507263 0.455629 0.664452
O O8 0.370741 0.491204 0.593161
O O9 0.298096 0.576658 0.673949
O O10 0.187042 0.859290 0.788346
O O11 0.000000 0.979089 0.750000
O O12 0.131326 0.162798 0.793661
O O13 0.680420 0.110056 0.443282
O O14 0.500000 0.000000 0.500000
O O15 0.627750 0.808832 0.446871
O O16 0.807063 0.759601 0.870729
#
# Coordination Sequence:
#
# PCOD9454111 Si02
#       8
#     4   8   8   8   8   8   8   8
#     4  10  20  36  58  92 126 178 220 286 316 380
#     4   9  19  38  64  88 124 171 206 272 340 395
#     4  11  19  38  66  89 127 175 223 266 335 412
#     4  11  24  42  59  91 126 175 225 282 321 382
#     4  11  22  42  71 101 130 167 223 279 345 421
#     4  11  21  41  66  98 130 170 221 272 346 420
#     4  10  22  41  59  84 131 165 220 270 334 385
#     4  10  18  34  64  91 127 170 225 265 327 399
#
# _framework density 20.667062000000001
#
# number of rings (size 3 to 8) (size 9 to 14) (size 15 to 20)
#    0.000    1.600    4.667    0.800    0.000    3.200 
#    9.600    6.667    0.000    0.000    0.000    0.000 
#    0.000    0.000    0.000    0.000    0.000    0.000 
#
# Total GULP energy -334249.555682 kJ/mol
# GULP energy per Si atom -5570.825928 kJ/mol
# Density = 2.062002 g / cm^3
# Si number density = 20.667062 Si / 1000 Ang^3
#
#
#
# Elastic Constant Matrix: (Units=GPa)
#
#
# Indices 1 2 3 4 5 6 
#
# 1 97.9621 15.8306 60.3295 0.0000 0.0000 0.0000
# 2 15.8306 63.9536 49.2971 0.0000 0.0000 0.0000
# 3 60.3295 49.2971 134.9532 0.0000 0.0000 0.0000
# 4 0.0000 0.0000 0.0000 7.3560 0.0000 0.0000
# 5 0.0000 0.0000 0.0000 0.0000 40.1805 0.0000
# 6 0.0000 0.0000 0.0000 0.0000 0.0000 13.5984
#
#
#
# Elastic Compliance Matrix: (Units=1/GPa)
#
#
# Indices 1 2 3 4 5 6 
#
# 1 0.014254 0.001926 -0.007076 0.000000 0.000000 0.000000
# 2 0.001926 0.022025 -0.008906 0.000000 0.000000 0.000000
# 3 -0.007076 -0.008906 0.013827 0.000000 0.000000 0.000000
# 4 0.000000 0.000000 0.000000 0.135944 0.000000 0.000000
# 5 0.000000 0.000000 0.000000 0.000000 0.024888 0.000000
# 6 0.000000 0.000000 0.000000 0.000000 0.000000 0.073538
#
#
# Mechanical properties :
#
#
# Convention : Reuss Voigt Hill
#
# Bulk Modulus (GPa) = 45.46887 60.86483 53.16685
# Shear Modulus (GPa) = 15.62892 23.65442 19.64167
#
# Velocity S-wave (km/s) = 2.75294 3.38679 3.08618
# Velocity P-wave (km/s) = 5.67039 6.69387 6.20327
#
# Compressibility (1/GPa) = 0.02199307
#
# Stress axis : x y z
#
# Youngs Moduli (GPa) = 70.15387 45.40314 72.32481
#
# Poissons Ratio (x) = -0.08743 0.51175
# Poissons Ratio (y) = -0.13510 0.64415
# Poissons Ratio (z) = 0.49639 0.40438
#
# Static dielectric constant tensor:
#      x y z
#    x 1.793130 0.000000 0.000000 
#    y 0.000000 1.868640 0.000000 
#    z 0.000000 0.000000 1.778780 
# 
# From -- ./inp_files/26085.got.cif
#   From: 2010.05.17/outbox.cif.g08.bks.cpg/sg60_14_cif.got.tgz:26085.got - 2010.06.03 14:59:27.
