data_PCOD9454936
_publ_section_title
;
Structure prediction by ZEFSAII (Michael W. Deem and Ramdas Pophale) SiO2 
 PCOD9454936
Probable space group: P B C N
;
_chemical_formula_sum "Si O2"
_cell_formula_units_Z 64
_cell_length_a 16.130865
_cell_length_b 15.723688
_cell_length_c 11.992471
_cell_angle_alpha 90.000000
_cell_angle_beta 90.000000
_cell_angle_gamma 90.000000
_cell_volume 3041.730631
_symmetry_space_group_name_H-M "P B C N"
_symmetry_group_IT_number 60
_symmetry_cell_setting 'orthorhombic'
loop_
_space_group_symop_operation_xyz
x,y,z
1/2-x,1/2-y,1/2+z
1/2+x,1/2-y,-z
-x,y,1/2-z
-x,-y,-z
1/2+x,1/2+y,1/2-z
1/2-x,1/2+y,z
x,-y,1/2+z
loop_
_atom_site_type_symbol
_atom_site_label
_atom_site_fract_x
_atom_site_fract_y
_atom_site_fract_z
Si Si1 0.211790 0.133411 0.693334
Si Si2 0.554473 0.752365 0.553354
Si Si3 0.940594 0.917487 0.153557
Si Si4 0.678969 0.482511 0.976669
Si Si5 0.101411 0.658656 0.986788
Si Si6 0.228671 0.793320 0.556457
Si Si7 0.585942 0.118403 0.254171
Si Si8 0.823822 0.470915 0.153938
O O1 0.138373 0.126584 0.784372
O O2 0.236546 0.226170 0.647463
O O3 0.291829 0.092681 0.751670
O O4 0.182636 0.065281 0.599905
O O5 0.517241 0.662410 0.593401
O O6 0.484404 0.791961 0.473372
O O7 0.644022 0.743330 0.496237
O O8 0.568626 0.807502 0.665219
O O9 0.000000 0.954742 0.250000
O O10 0.903014 0.974420 0.054214
O O11 0.699675 0.391253 0.915894
O O12 0.752831 0.488027 0.064615
O O13 0.193178 0.699767 0.969952
O O14 0.103605 0.642948 0.119767
O O15 0.102776 0.573322 0.914945
O O16 0.500000 0.066449 0.250000
O O17 0.656595 0.059380 0.209272
#
# Coordination Sequence:
#
# PCOD9454936 Si02
#       8
#     8   8   8   8   8   8   8   8
#     4  11  21  36  60  82 111 155 194 238 295 353
#     4  10  20  35  57  83 112 151 197 238 286 353
#     4  10  20  36  57  82 113 151 200 249 294 344
#     4   9  21  37  55  86 114 144 197 243 284 354
#     4  10  21  36  54  82 113 146 193 238 284 350
#     4  10  20  36  59  82 113 153 189 238 293 341
#     4  10  20  33  55  81 111 147 183 232 289 351
#     4  10  20  34  52  80 115 144 183 236 292 355
#
# _framework density 21.040652000000001
#
# number of rings (size 3 to 8) (size 9 to 14) (size 15 to 20)
#    0.000    2.000    0.000    5.625    0.000    3.500 
#    0.000    6.250    0.000    0.000    0.000    3.500 
#    0.000    0.000    0.000    0.000    0.000    0.000 
#
# Total GULP energy -356661.917782 kJ/mol
# GULP energy per Si atom -5572.842465 kJ/mol
# Density = 2.099276 g / cm^3
# Si number density = 21.040652 Si / 1000 Ang^3
#
#
#
# Elastic Constant Matrix: (Units=GPa)
#
#
# Indices 1 2 3 4 5 6 
#
# 1 88.0820 21.9623 22.8279 0.0000 0.0000 0.0000
# 2 21.9623 50.0828 14.0055 0.0000 0.0000 0.0000
# 3 22.8279 14.0055 41.6649 0.0000 0.0000 0.0000
# 4 0.0000 0.0000 0.0000 25.5395 0.0000 0.0000
# 5 0.0000 0.0000 0.0000 0.0000 32.1267 0.0000
# 6 0.0000 0.0000 0.0000 0.0000 0.0000 21.9563
#
#
#
# Elastic Compliance Matrix: (Units=1/GPa)
#
#
# Indices 1 2 3 4 5 6 
#
# 1 0.014070 -0.004431 -0.006219 0.000000 0.000000 0.000000
# 2 -0.004431 0.023434 -0.005450 0.000000 0.000000 0.000000
# 3 -0.006219 -0.005450 0.029240 0.000000 0.000000 0.000000
# 4 0.000000 0.000000 0.000000 0.039155 0.000000 0.000000
# 5 0.000000 0.000000 0.000000 0.000000 0.031127 0.000000
# 6 0.000000 0.000000 0.000000 0.000000 0.000000 0.045545
#
#
# Mechanical properties :
#
#
# Convention : Reuss Voigt Hill
#
# Bulk Modulus (GPa) = 28.94804 33.04678 30.99741
# Shear Modulus (GPa) = 22.09606 23.99344 23.04475
#
# Velocity S-wave (km/s) = 3.24413 3.38055 3.31304
# Velocity P-wave (km/s) = 5.27452 5.56577 5.42210
#
# Compressibility (1/GPa) = 0.03454466
#
# Stress axis : x y z
#
# Youngs Moduli (GPa) = 71.07521 42.67332 34.19926
#
# Poissons Ratio (x) = 0.18907 0.21270
# Poissons Ratio (y) = 0.31491 0.18638
# Poissons Ratio (z) = 0.44204 0.23256
#
# Static dielectric constant tensor:
#      x y z
#    x 1.835830 0.000000 0.000000 
#    y 0.000000 1.784990 0.000000 
#    z 0.000000 0.000000 1.772340 
# 
# From -- ./inp_files/12547.got.cif
#   From: 2010.05.17/outbox.cif.g08.bks.cpg/sg60_7_cif.got.tgz:12547.got - 2010.06.03 14:59:27.
