data_PCOD9454266
_publ_section_title
;
Structure prediction by ZEFSAII (Michael W. Deem and Ramdas Pophale) SiO2 
 PCOD9454266
Probable space group: P B C N
;
_chemical_formula_sum "Si O2"
_cell_formula_units_Z 56
_cell_length_a 19.639257
_cell_length_b 7.187309
_cell_length_c 16.112027
_cell_angle_alpha 90.000000
_cell_angle_beta 90.000000
_cell_angle_gamma 90.000000
_cell_volume 2274.267530
_symmetry_space_group_name_H-M "P B C N"
_symmetry_group_IT_number 60
_symmetry_cell_setting 'orthorhombic'
loop_
_space_group_symop_operation_xyz
x,y,z
1/2-x,1/2-y,1/2+z
1/2+x,1/2-y,-z
-x,y,1/2-z
-x,-y,-z
1/2+x,1/2+y,1/2-z
1/2-x,1/2+y,z
x,-y,1/2+z
loop_
_atom_site_type_symbol
_atom_site_label
_atom_site_fract_x
_atom_site_fract_y
_atom_site_fract_z
Si Si1 0.318682 0.393220 0.784244
Si Si2 0.141974 0.356871 0.937014
Si Si3 0.118436 0.776432 0.089835
Si Si4 0.556966 0.365846 0.815641
Si Si5 0.004148 0.775546 0.516987
Si Si6 0.165896 0.670802 0.253410
Si Si7 0.216662 0.961420 0.968503
O O1 0.378648 0.287491 0.735966
O O2 0.339009 0.608873 0.774413
O O3 0.245626 0.369127 0.742504
O O4 0.303709 0.358581 0.881483
O O5 0.066374 0.316305 0.967856
O O6 0.140657 0.413540 0.839977
O O7 0.201961 0.483188 0.975826
O O8 0.178840 0.157505 0.956444
O O9 0.130271 0.637453 0.165888
O O10 0.067535 0.706564 0.018779
O O11 0.083797 0.956128 0.133548
O O12 0.185726 0.858585 0.047540
O O13 0.500000 0.423651 0.750000
O O14 0.519974 0.244722 0.886281
O O15 0.000000 0.000000 0.500000
#
# Coordination Sequence:
#
# PCOD9454266 Si02
#       7
#     8   8   8   8   8   8   8
#     4   9  19  34  50  78 107 138 173 212 264 316
#     4  10  20  35  53  79 109 140 173 220 266 320
#     4  10  20  29  53  76 107 135 174 223 266 305
#     4  10  19  29  51  79 108 134 174 224 265 306
#     4  10  19  31  50  78 105 133 178 221 266 301
#     4   9  20  32  52  78 106 137 174 215 264 312
#     4  10  19  34  52  79 109 140 174 218 265 318
#
# _framework density 24.623311999999999
#
# number of rings (size 3 to 8) (size 9 to 14) (size 15 to 20)
#    0.000    2.286    2.857    0.857   12.000    0.000 
#    0.000    0.000    0.000    0.857   14.857    0.000 
#    0.000    0.000    0.000    0.000    0.000    0.000 
#
# Total GULP energy -312779.281818 kJ/mol
# GULP energy per Si atom -5585.344318 kJ/mol
# Density = 2.456727 g / cm^3
# Si number density = 24.623312 Si / 1000 Ang^3
#
#
#
# Elastic Constant Matrix: (Units=GPa)
#
#
# Indices 1 2 3 4 5 6 
#
# 1 95.2944 -12.4505 24.4606 0.0000 0.0000 0.0000
# 2 -12.4505 61.4332 -2.7704 0.0000 0.0000 0.0000
# 3 24.4606 -2.7704 74.3818 0.0000 0.0000 0.0000
# 4 0.0000 0.0000 0.0000 11.4200 0.0000 0.0000
# 5 0.0000 0.0000 0.0000 0.0000 77.5440 0.0000
# 6 0.0000 0.0000 0.0000 0.0000 0.0000 22.1147
#
#
#
# Elastic Compliance Matrix: (Units=1/GPa)
#
#
# Indices 1 2 3 4 5 6 
#
# 1 0.011754 0.002212 -0.003783 0.000000 0.000000 0.000000
# 2 0.002212 0.016721 -0.000104 0.000000 0.000000 0.000000
# 3 -0.003783 -0.000104 0.014684 0.000000 0.000000 0.000000
# 4 0.000000 0.000000 0.000000 0.087566 0.000000 0.000000
# 5 0.000000 0.000000 0.000000 0.000000 0.012896 0.000000
# 6 0.000000 0.000000 0.000000 0.000000 0.000000 0.045219
#
#
# Mechanical properties :
#
#
# Convention : Reuss Voigt Hill
#
# Bulk Modulus (GPa) = 25.12080 27.73210 26.42645
# Shear Modulus (GPa) = 24.33558 37.00707 30.67132
#
# Velocity S-wave (km/s) = 3.14716 3.88097 3.53316
# Velocity P-wave (km/s) = 4.84049 5.60085 5.23449
#
# Compressibility (1/GPa) = 0.03980766
#
# Stress axis : x y z
#
# Youngs Moduli (GPa) = 85.07929 59.80388 68.10012
#
# Poissons Ratio (x) = -0.13226 0.25761
# Poissons Ratio (y) = -0.18815 0.00711
# Poissons Ratio (z) = 0.32184 0.00625
#
# Static dielectric constant tensor:
#      x y z
#    x 1.943670 0.000000 0.000000 
#    y 0.000000 2.044150 0.000000 
#    z 0.000000 0.000000 1.976520 
# 
# From -- ./inp_files/20917.got.cif
#   From: 2010.05.17/outbox.cif.g08.bks.cpg/sg60_11_cif.got.tgz:20917.got - 2010.06.03 14:59:27.
