data_PCOD9454725
_publ_section_title
;
Structure prediction by ZEFSAII (Michael W. Deem and Ramdas Pophale) SiO2 
 PCOD9454725
Probable space group: P B C N
;
_chemical_formula_sum "Si O2"
_cell_formula_units_Z 32
_cell_length_a 7.205881
_cell_length_b 33.690655
_cell_length_c 5.308643
_cell_angle_alpha 90.000000
_cell_angle_beta 90.000000
_cell_angle_gamma 90.000000
_cell_volume 1288.783777
_symmetry_space_group_name_H-M "P B C N"
_symmetry_group_IT_number 60
_symmetry_cell_setting 'orthorhombic'
loop_
_space_group_symop_operation_xyz
x,y,z
1/2-x,1/2-y,1/2+z
1/2+x,1/2-y,-z
-x,y,1/2-z
-x,-y,-z
1/2+x,1/2+y,1/2-z
1/2-x,1/2+y,z
x,-y,1/2+z
loop_
_atom_site_type_symbol
_atom_site_label
_atom_site_fract_x
_atom_site_fract_y
_atom_site_fract_z
Si Si1 0.775463 0.022140 0.740365
Si Si2 0.692987 0.893026 0.027132
Si Si3 0.768383 0.638270 0.025779
Si Si4 0.207119 0.727024 0.347631
O O1 0.690523 0.062713 0.634574
O O2 0.000000 0.026252 0.750000
O O3 0.723921 0.989850 0.525284
O O4 0.797945 0.869196 0.244419
O O5 0.786858 0.890287 0.754781
O O6 0.490572 0.872252 0.999077
O O7 0.721584 0.682778 0.104573
O O8 0.200425 0.749983 0.613914
O O9 0.000000 0.721617 0.250000
#
# Coordination Sequence:
#
# PCOD9454725 Si02
#       4
#     8   8   8   8
#     4  10  21  38  58  88 128 166 210 265 324 393
#     4  10  19  37  65  85 119 172 206 260 333 380
#     4  10  21  39  62  85 123 158 214 268 322 389
#     4  12  25  44  71  98 135 178 221 284 357 411
#
# _framework density 24.829612999999998
#
# number of rings (size 3 to 8) (size 9 to 14) (size 15 to 20)
#    0.000    1.500    2.500    3.750    3.500    0.000 
#    0.000   22.500    0.000    0.000    0.000    0.000 
#    0.000    0.000    0.000    0.000    0.000    0.000 
#
# Total GULP energy -178842.574797 kJ/mol
# GULP energy per Si atom -5588.830462 kJ/mol
# Density = 2.477310 g / cm^3
# Si number density = 24.829613 Si / 1000 Ang^3
#
#
#
# Elastic Constant Matrix: (Units=GPa)
#
#
# Indices 1 2 3 4 5 6 
#
# 1 75.0255 -1.2862 9.9675 0.0000 0.0000 0.0000
# 2 -1.2862 148.8843 52.0877 0.0000 0.0000 0.0000
# 3 9.9675 52.0877 219.8065 0.0000 0.0000 0.0000
# 4 0.0000 0.0000 0.0000 53.7239 0.0000 0.0000
# 5 0.0000 0.0000 0.0000 0.0000 -2.0534 0.0000
# 6 0.0000 0.0000 0.0000 0.0000 0.0000 37.6669
#
#
#
# Elastic Compliance Matrix: (Units=1/GPa)
#
#
# Indices 1 2 3 4 5 6 
#
# 1 0.013427 0.000359 -0.000694 0.000000 0.000000 0.000000
# 2 0.000359 0.007333 -0.001754 0.000000 0.000000 0.000000
# 3 -0.000694 -0.001754 0.004997 0.000000 0.000000 0.000000
# 4 0.000000 0.000000 0.000000 0.018614 0.000000 0.000000
# 5 0.000000 0.000000 0.000000 0.000000 -0.486991 0.000000
# 6 0.000000 0.000000 0.000000 0.000000 0.000000 0.026549
#
#
# Mechanical properties :
#
#
# Convention : Reuss Voigt Hill
#
# Bulk Modulus (GPa) = 46.34198 62.80604 54.57401
# Shear Modulus (GPa) = -12.35481 43.39729 15.52124
#
# Velocity S-wave (km/s) = -2.23308 4.18521 2.50293
# Velocity P-wave (km/s) = 3.47213 6.97885 5.51181
#
# Compressibility (1/GPa) = 0.02157871
#
# Stress axis : x y z
#
# Youngs Moduli (GPa) = 74.47604 136.36257 200.13670
#
# Poissons Ratio (x) = -0.04892 0.13887
# Poissons Ratio (y) = -0.02672 0.35105
# Poissons Ratio (z) = 0.05168 0.23919
#
# Static dielectric constant tensor:
#      x y z
#    x 1.705910 0.000000 0.000000 
#    y 0.000000 1.972130 0.000000 
#    z 0.000000 0.000000 1.997870 
# 
# From -- ./inp_files/701.got.cif
#   From: 2010.05.17/outbox.cif.g08.bks.cpg/sg60_1_cif.got.tgz:701.got - 2010.06.03 14:59:27.
