data_PCOD9454186
_publ_section_title
;
Structure prediction by ZEFSAII (Michael W. Deem and Ramdas Pophale) SiO2 
 PCOD9454186
Probable space group: P B C N
;
_chemical_formula_sum "Si O2"
_cell_formula_units_Z 52
_cell_length_a 9.563379
_cell_length_b 20.640960
_cell_length_c 11.445813
_cell_angle_alpha 90.000000
_cell_angle_beta 90.000000
_cell_angle_gamma 90.000000
_cell_volume 2259.372850
_symmetry_space_group_name_H-M "P B C N"
_symmetry_group_IT_number 60
_symmetry_cell_setting 'orthorhombic'
loop_
_space_group_symop_operation_xyz
x,y,z
1/2-x,1/2-y,1/2+z
1/2+x,1/2-y,-z
-x,y,1/2-z
-x,-y,-z
1/2+x,1/2+y,1/2-z
1/2-x,1/2+y,z
x,-y,1/2+z
loop_
_atom_site_type_symbol
_atom_site_label
_atom_site_fract_x
_atom_site_fract_y
_atom_site_fract_z
Si Si1 0.848483 0.979724 0.796935
Si Si2 0.205646 0.907081 0.048450
Si Si3 0.567626 0.333058 0.038371
Si Si4 0.494979 0.922035 0.499589
Si Si5 0.000000 0.739378 0.250000
Si Si6 0.712264 0.909034 0.193005
Si Si7 0.731031 0.152540 0.344462
O O1 0.828033 0.903876 0.794186
O O2 0.000000 0.998436 0.750000
O O3 0.828057 0.017213 0.920823
O O4 0.733586 0.014567 0.715954
O O5 0.347613 0.899672 0.978471
O O6 0.247476 0.881234 0.179366
O O7 0.070669 0.871693 0.999553
O O8 0.517780 0.280626 0.131984
O O9 0.667540 0.382676 0.108251
O O10 0.667476 0.309290 0.934075
O O11 0.433753 0.900178 0.372907
O O12 0.387775 0.889972 0.588775
O O13 0.500000 0.000000 0.500000
O O14 0.141891 0.698381 0.237264
#
# Coordination Sequence:
#
# PCOD9454186 Si02
#       7
#     8   8   8   8   4   8   8
#     4  10  19  38  62 101 138 172 215 277 356 406
#     4  10  18  36  69  95 134 176 208 280 336 408
#     4  11  22  48  73  94 126 193 247 267 348 414
#     4  11  21  34  59 105 144 169 217 279 347 436
#     4  12  26  54  70  86 152 182 232 316 336 388
#     4   9  18  35  66  97 131 181 213 267 345 411
#     4  11  28  41  69 102 129 185 232 283 357 422
#
# _framework density 23.015235000000001
#
# number of rings (size 3 to 8) (size 9 to 14) (size 15 to 20)
#    0.923    0.615    4.615    0.462    2.154    3.077 
#    2.769    0.000    0.000    0.000    0.000    0.000 
#    0.000    0.000    0.000    0.000    0.000    0.000 
#
# Total GULP energy -290287.951592 kJ/mol
# GULP energy per Si atom -5582.460608 kJ/mol
# Density = 2.296285 g / cm^3
# Si number density = 23.015235 Si / 1000 Ang^3
#
#
#
# Elastic Constant Matrix: (Units=GPa)
#
#
# Indices 1 2 3 4 5 6 
#
# 1 142.9133 21.0451 15.7942 0.0000 0.0000 0.0000
# 2 21.0451 52.9837 8.4957 0.0000 0.0000 0.0000
# 3 15.7942 8.4957 29.2794 0.0000 0.0000 0.0000
# 4 0.0000 0.0000 0.0000 16.2666 0.0000 0.0000
# 5 0.0000 0.0000 0.0000 0.0000 32.8727 0.0000
# 6 0.0000 0.0000 0.0000 0.0000 0.0000 27.7224
#
#
#
# Elastic Compliance Matrix: (Units=1/GPa)
#
#
# Indices 1 2 3 4 5 6 
#
# 1 0.007750 -0.002526 -0.003448 0.000000 0.000000 0.000000
# 2 -0.002526 0.020618 -0.004620 0.000000 0.000000 0.000000
# 3 -0.003448 -0.004620 0.037354 0.000000 0.000000 0.000000
# 4 0.000000 0.000000 0.000000 0.061476 0.000000 0.000000
# 5 0.000000 0.000000 0.000000 0.000000 0.030420 0.000000
# 6 0.000000 0.000000 0.000000 0.000000 0.000000 0.036072
#
#
# Mechanical properties :
#
#
# Convention : Reuss Voigt Hill
#
# Bulk Modulus (GPa) = 22.45420 35.09404 28.77412
# Shear Modulus (GPa) = 21.76547 27.36180 24.56363
#
# Velocity S-wave (km/s) = 3.07856 3.45172 3.27046
# Velocity P-wave (km/s) = 4.73435 5.58275 5.17596
#
# Compressibility (1/GPa) = 0.04453509
#
# Stress axis : x y z
#
# Youngs Moduli (GPa) = 129.02901 48.50213 26.77078
#
# Poissons Ratio (x) = 0.12249 0.09230
# Poissons Ratio (y) = 0.32587 0.12368
# Poissons Ratio (z) = 0.44488 0.22408
#
# Static dielectric constant tensor:
#      x y z
#    x 1.861240 0.000000 0.000000 
#    y 0.000000 1.863840 0.000000 
#    z 0.000000 0.000000 1.949570 
# 
# From -- ./inp_files/15193.got.cif
#   From: 2010.05.17/outbox.cif.g08.bks.cpg/sg60_8_cif.got.tgz:15193.got - 2010.06.03 14:59:27.
