data_PCOD9454491
_publ_section_title
;
Structure prediction by ZEFSAII (Michael W. Deem and Ramdas Pophale) SiO2 
 PCOD9454491
Probable space group: P B C N
;
_chemical_formula_sum "Si O2"
_cell_formula_units_Z 48
_cell_length_a 15.933018
_cell_length_b 9.461404
_cell_length_c 14.628631
_cell_angle_alpha 90.000000
_cell_angle_beta 90.000000
_cell_angle_gamma 90.000000
_cell_volume 2205.247402
_symmetry_space_group_name_H-M "P B C N"
_symmetry_group_IT_number 60
_symmetry_cell_setting 'orthorhombic'
loop_
_space_group_symop_operation_xyz
x,y,z
1/2-x,1/2-y,1/2+z
1/2+x,1/2-y,-z
-x,y,1/2-z
-x,-y,-z
1/2+x,1/2+y,1/2-z
1/2-x,1/2+y,z
x,-y,1/2+z
loop_
_atom_site_type_symbol
_atom_site_label
_atom_site_fract_x
_atom_site_fract_y
_atom_site_fract_z
Si Si1 0.483104 0.375983 0.148795
Si Si2 0.337622 0.435336 0.408560
Si Si3 0.497069 0.064054 0.100728
Si Si4 0.336862 0.898566 0.124455
Si Si5 0.174737 0.073722 0.128531
Si Si6 0.680546 0.116230 0.099547
O O1 0.500000 0.320658 0.250000
O O2 0.564984 0.460682 0.114265
O O3 0.473108 0.230761 0.092413
O O4 0.403993 0.477677 0.155218
O O5 0.328692 0.428131 0.517888
O O6 0.317762 0.279176 0.372545
O O7 0.266911 0.541698 0.374617
O O8 0.592592 0.054884 0.136371
O O9 0.424027 0.975084 0.148244
O O10 0.500000 0.000000 0.000000
O O11 0.331146 0.736970 0.157534
O O12 0.260141 0.996011 0.156513
O O13 0.328095 0.891422 0.012260
#
# Coordination Sequence:
#
# PCOD9454491 Si02
#       6
#     8   8   8   8   8   8
#     4  11  23  38  54  81 120 155 188 236 289 338
#     4   9  18  33  54  79 107 145 185 227 276 332
#     4   9  18  35  58  84 112 149 191 235 287 341
#     4   9  17  31  56  84 108 142 191 237 279 332
#     4  10  19  34  57  85 114 148 190 235 281 339
#     4   8  16  29  51  83 110 135 181 234 277 324
#
# _framework density 21.766266000000002
#
# number of rings (size 3 to 8) (size 9 to 14) (size 15 to 20)
#    0.000    2.667    0.000    2.500    0.000    5.333 
#    0.000    7.500    0.000    0.000    0.000    0.000 
#    0.000    0.000    0.000    0.000    0.000    0.000 
#
# Total GULP energy -267952.182535 kJ/mol
# GULP energy per Si atom -5582.337136 kJ/mol
# Density = 2.171673 g / cm^3
# Si number density = 21.766266 Si / 1000 Ang^3
#
#
#
# Elastic Constant Matrix: (Units=GPa)
#
#
# Indices 1 2 3 4 5 6 
#
# 1 113.3883 82.5276 -10.2527 0.0000 0.0000 0.0000
# 2 82.5276 124.3894 9.8931 0.0000 0.0000 0.0000
# 3 -10.2527 9.8931 39.7503 0.0000 0.0000 0.0000
# 4 0.0000 0.0000 0.0000 -2.4641 0.0000 0.0000
# 5 0.0000 0.0000 0.0000 0.0000 -6.7464 0.0000
# 6 0.0000 0.0000 0.0000 0.0000 0.0000 43.4681
#
#
#
# Elastic Compliance Matrix: (Units=1/GPa)
#
#
# Indices 1 2 3 4 5 6 
#
# 1 0.019464 -0.013582 0.008401 0.000000 0.000000 0.000000
# 2 -0.013582 0.017679 -0.007903 0.000000 0.000000 0.000000
# 3 0.008401 -0.007903 0.029291 0.000000 0.000000 0.000000
# 4 0.000000 0.000000 0.000000 -0.405824 0.000000 0.000000
# 5 0.000000 0.000000 0.000000 0.000000 -0.148227 0.000000
# 6 0.000000 0.000000 0.000000 0.000000 0.000000 0.023005
#
#
# Mechanical properties :
#
#
# Convention : Reuss Voigt Hill
#
# Bulk Modulus (GPa) = 24.83538 49.09599 36.96568
# Shear Modulus (GPa) = -11.76412 19.87551 4.05570
#
# Velocity S-wave (km/s) = -2.32733 3.02509 1.36651
# Velocity P-wave (km/s) = 2.05252 5.89970 4.41698
#
# Compressibility (1/GPa) = 0.04026514
#
# Stress axis : x y z
#
# Youngs Moduli (GPa) = 51.37665 56.56488 34.14049
#
# Poissons Ratio (x) = 0.76825 -0.28680
# Poissons Ratio (y) = 0.69779 0.26981
# Poissons Ratio (z) = -0.43159 0.44703
#
# Static dielectric constant tensor:
#      x y z
#    x 1.799970 0.000000 0.000000 
#    y 0.000000 1.761070 0.000000 
#    z 0.000000 0.000000 1.857240 
# 
# From -- ./inp_files/20513.got.cif
#   From: 2010.05.17/outbox.cif.g08.bks.cpg/sg60_11_cif.got.tgz:20513.got - 2010.06.03 14:59:27.
