data_PCOD9454473
_publ_section_title
;
Structure prediction by ZEFSAII (Michael W. Deem and Ramdas Pophale) SiO2 
 PCOD9454473
Probable space group: P B C N
;
_chemical_formula_sum "Si O2"
_cell_formula_units_Z 64
_cell_length_a 22.499617
_cell_length_b 5.432610
_cell_length_c 24.474609
_cell_angle_alpha 90.000000
_cell_angle_beta 90.000000
_cell_angle_gamma 90.000000
_cell_volume 2991.571702
_symmetry_space_group_name_H-M "P B C N"
_symmetry_group_IT_number 60
_symmetry_cell_setting 'orthorhombic'
loop_
_space_group_symop_operation_xyz
x,y,z
1/2-x,1/2-y,1/2+z
1/2+x,1/2-y,-z
-x,y,1/2-z
-x,-y,-z
1/2+x,1/2+y,1/2-z
1/2-x,1/2+y,z
x,-y,1/2+z
loop_
_atom_site_type_symbol
_atom_site_label
_atom_site_fract_x
_atom_site_fract_y
_atom_site_fract_z
Si Si1 0.050164 0.725913 0.448008
Si Si2 0.266308 0.713140 0.359804
Si Si3 0.402952 0.731149 0.398051
Si Si4 0.604502 0.721990 0.447502
Si Si5 0.929472 0.816821 0.263274
Si Si6 0.063726 0.682185 0.779779
Si Si7 0.422157 0.218013 0.108687
Si Si8 0.719360 0.802533 0.518565
O O1 0.084588 0.471544 0.434411
O O2 0.046270 0.754856 0.513573
O O3 0.988244 0.713035 0.416335
O O4 0.081381 0.974153 0.426075
O O5 0.252100 0.460672 0.329781
O O6 0.334552 0.723462 0.378769
O O7 0.225542 0.703976 0.415368
O O8 0.442570 0.761956 0.343544
O O9 0.606781 0.460815 0.417935
O O10 0.657346 0.742315 0.491054
O O11 0.605986 0.956681 0.407934
O O12 0.904015 0.082243 0.246610
O O13 0.000000 0.841416 0.250000
O O14 0.906572 0.583856 0.228623
O O15 0.923246 0.754935 0.326580
O O16 0.000000 0.659123 0.750000
O O17 0.761658 0.576122 0.501229
#
# Coordination Sequence:
#
# PCOD9454473 Si02
#       8
#     8   8   8   8   8   8   8   8
#     4  12  22  37  55  84 130 170 196 230 289 371
#     4  10  20  35  55  85 118 150 196 254 299 350
#     4  12  22  36  63  93 122 164 207 249 309 368
#     4  12  24  38  57  86 124 166 198 241 301 363
#     4  10  20  37  58  80 112 151 198 249 288 333
#     4  10  19  34  55  87 118 152 199 249 301 361
#     4  12  24  39  57  87 125 163 204 242 289 365
#     4  10  19  36  57  80 110 150 199 250 290 341
#
# _framework density 21.393438
#
# number of rings (size 3 to 8) (size 9 to 14) (size 15 to 20)
#    0.000    1.000    0.000   11.250    0.000    0.000 
#    0.000    0.000    0.000    0.000    0.000   17.500 
#    0.000    0.000    0.000    0.000    0.000    0.000 
#
# Total GULP energy -357752.341074 kJ/mol
# GULP energy per Si atom -5589.880329 kJ/mol
# Density = 2.134475 g / cm^3
# Si number density = 21.393438 Si / 1000 Ang^3
#
#
#
# Elastic Constant Matrix: (Units=GPa)
#
#
# Indices 1 2 3 4 5 6 
#
# 1 26.4505 10.9817 -7.6795 0.0000 0.0000 0.0000
# 2 10.9817 148.3413 -15.6991 0.0000 0.0000 0.0000
# 3 -7.6795 -15.6991 51.9714 0.0000 0.0000 0.0000
# 4 0.0000 0.0000 0.0000 33.1234 0.0000 0.0000
# 5 0.0000 0.0000 0.0000 0.0000 12.8124 0.0000
# 6 0.0000 0.0000 0.0000 0.0000 0.0000 24.0420
#
#
#
# Elastic Compliance Matrix: (Units=1/GPa)
#
#
# Indices 1 2 3 4 5 6 
#
# 1 0.040334 -0.002433 0.005225 0.000000 0.000000 0.000000
# 2 -0.002433 0.007111 0.001788 0.000000 0.000000 0.000000
# 3 0.005225 0.001788 0.020554 0.000000 0.000000 0.000000
# 4 0.000000 0.000000 0.000000 0.030190 0.000000 0.000000
# 5 0.000000 0.000000 0.000000 0.000000 0.078049 0.000000
# 6 0.000000 0.000000 0.000000 0.000000 0.000000 0.041594
#
#
# Mechanical properties :
#
#
# Convention : Reuss Voigt Hill
#
# Bulk Modulus (GPa) = 12.96030 22.44101 17.70065
# Shear Modulus (GPa) = 21.33199 29.93958 25.63579
#
# Velocity S-wave (km/s) = 3.16116 3.74501 3.46540
# Velocity P-wave (km/s) = 4.40399 5.40487 4.92990
#
# Compressibility (1/GPa) = 0.07715874
#
# Stress axis : x y z
#
# Youngs Moduli (GPa) = 24.79323 140.63525 48.65315
#
# Poissons Ratio (x) = 0.34216 -0.25421
# Poissons Ratio (y) = 0.06032 -0.08701
# Poissons Ratio (z) = -0.12954 -0.25151
#
# Static dielectric constant tensor:
#      x y z
#    x 1.805710 0.000000 0.000000 
#    y 0.000000 1.882740 0.000000 
#    z 0.000000 0.000000 1.743490 
# 
# From -- ./inp_files/24634.got.cif
#   From: 2010.05.17/outbox.cif.g08.bks.cpg/sg60_13_cif.got.tgz:24634.got - 2010.06.03 14:59:27.
