data_PCOD9454332
_publ_section_title
;
Structure prediction by ZEFSAII (Michael W. Deem and Ramdas Pophale) SiO2 
 PCOD9454332
Probable space group: P B C N
;
_chemical_formula_sum "Si O2"
_cell_formula_units_Z 64
_cell_length_a 23.981083
_cell_length_b 27.279630
_cell_length_c 5.504913
_cell_angle_alpha 90.000000
_cell_angle_beta 90.000000
_cell_angle_gamma 90.000000
_cell_volume 3601.286952
_symmetry_space_group_name_H-M "P B C N"
_symmetry_group_IT_number 60
_symmetry_cell_setting 'orthorhombic'
loop_
_space_group_symop_operation_xyz
x,y,z
1/2-x,1/2-y,1/2+z
1/2+x,1/2-y,-z
-x,y,1/2-z
-x,-y,-z
1/2+x,1/2+y,1/2-z
1/2-x,1/2+y,z
x,-y,1/2+z
loop_
_atom_site_type_symbol
_atom_site_label
_atom_site_fract_x
_atom_site_fract_y
_atom_site_fract_z
Si Si1 0.261742 0.620460 0.957733
Si Si2 0.765025 0.700234 0.161577
Si Si3 0.794084 0.015835 0.478126
Si Si4 0.564774 0.756801 0.742559
Si Si5 0.935217 0.681856 0.740505
Si Si6 0.166174 0.378084 0.117974
Si Si7 0.825885 0.200968 0.811109
Si Si8 0.667646 0.021862 0.071008
O O1 0.287336 0.573295 0.086425
O O2 0.211104 0.598987 0.800514
O O3 0.307602 0.649360 0.800952
O O4 0.233992 0.663459 0.114200
O O5 0.790749 0.753541 0.196067
O O6 0.802477 0.671353 0.966537
O O7 0.700454 0.702115 0.080632
O O8 0.821115 0.989357 0.246113
O O9 0.733379 0.991606 0.538359
O O10 0.500000 0.741357 0.750000
O O11 0.573464 0.784044 0.482440
O O12 0.610219 0.714295 0.775080
O O13 0.574113 0.791349 0.980772
O O14 0.891769 0.637869 0.767829
O O15 0.000000 0.666903 0.750000
O O16 0.159880 0.419572 0.914754
O O17 0.643888 0.002778 0.813821
#
# Coordination Sequence:
#
# PCOD9454332 Si02
#       8
#     8   8   8   8   8   8   8   8
#     4  11  22  32  51  77 108 146 174 214 273 326
#     4  11  21  32  47  77 113 144 169 210 269 330
#     4  10  19  35  50  70 103 136 182 216 253 318
#     4  10  22  40  57  73 105 149 187 221 254 307
#     4  10  22  37  55  76  98 136 190 230 260 307
#     4  11  21  32  55  73 103 143 181 224 268 322
#     4  11  22  32  49  79 114 143 175 212 270 325
#     4  10  19  32  50  74  97 132 179 219 267 319
#
# _framework density 17.771424
#
# number of rings (size 3 to 8) (size 9 to 14) (size 15 to 20)
#    0.000    1.500    5.000    2.250    5.250    0.000 
#    0.000    0.000    0.000    0.750    0.000    0.000 
#    0.000    1.000    0.000    0.125    0.000    0.000 
#
# Total GULP energy -356511.844484 kJ/mol
# GULP energy per Si atom -5570.497570 kJ/mol
# Density = 1.773098 g / cm^3
# Si number density = 17.771424 Si / 1000 Ang^3
#
#
#
# Elastic Constant Matrix: (Units=GPa)
#
#
# Indices 1 2 3 4 5 6 
#
# 1 61.5642 20.5710 0.9713 0.0000 0.0000 0.0000
# 2 20.5710 79.2559 11.0255 0.0000 0.0000 0.0000
# 3 0.9713 11.0255 81.3528 0.0000 0.0000 0.0000
# 4 0.0000 0.0000 0.0000 10.7641 0.0000 0.0000
# 5 0.0000 0.0000 0.0000 0.0000 7.0431 0.0000
# 6 0.0000 0.0000 0.0000 0.0000 0.0000 6.7077
#
#
#
# Elastic Compliance Matrix: (Units=1/GPa)
#
#
# Indices 1 2 3 4 5 6 
#
# 1 0.017800 -0.004679 0.000422 0.000000 0.000000 0.000000
# 2 -0.004679 0.014090 -0.001854 0.000000 0.000000 0.000000
# 3 0.000422 -0.001854 0.012538 0.000000 0.000000 0.000000
# 4 0.000000 0.000000 0.000000 0.092901 0.000000 0.000000
# 5 0.000000 0.000000 0.000000 0.000000 0.141982 0.000000
# 6 0.000000 0.000000 0.000000 0.000000 0.000000 0.149083
#
#
# Mechanical properties :
#
#
# Convention : Reuss Voigt Hill
#
# Bulk Modulus (GPa) = 31.04981 31.92316 31.48649
# Shear Modulus (GPa) = 11.07785 17.54333 14.31059
#
# Velocity S-wave (km/s) = 2.49941 3.14533 2.84079
# Velocity P-wave (km/s) = 5.08322 5.58507 5.34004
#
# Compressibility (1/GPa) = 0.03220632
#
# Stress axis : x y z
#
# Youngs Moduli (GPa) = 56.18021 70.97448 79.75544
#
# Poissons Ratio (x) = 0.33206 -0.03362
# Poissons Ratio (y) = 0.26285 0.14784
# Poissons Ratio (z) = -0.02368 0.13156
#
# Static dielectric constant tensor:
#      x y z
#    x 1.588550 0.000000 0.000000 
#    y 0.000000 1.610090 0.000000 
#    z 0.000000 0.000000 1.760990 
# 
# From -- ./inp_files/2231.got.cif
#   From: 2010.05.17/outbox.cif.g08.bks.cpg/sg60_2_cif.got.tgz:2231.got - 2010.06.03 14:59:27.
