data_PCOD9454149
_publ_section_title
;
Structure prediction by ZEFSAII (Michael W. Deem and Ramdas Pophale) SiO2 
 PCOD9454149
Probable space group: P B C N
;
_chemical_formula_sum "Si O2"
_cell_formula_units_Z 48
_cell_length_a 12.040900
_cell_length_b 13.688521
_cell_length_c 11.695747
_cell_angle_alpha 90.000000
_cell_angle_beta 90.000000
_cell_angle_gamma 90.000000
_cell_volume 1927.717728
_symmetry_space_group_name_H-M "P B C N"
_symmetry_group_IT_number 60
_symmetry_cell_setting 'orthorhombic'
loop_
_space_group_symop_operation_xyz
x,y,z
1/2-x,1/2-y,1/2+z
1/2+x,1/2-y,-z
-x,y,1/2-z
-x,-y,-z
1/2+x,1/2+y,1/2-z
1/2-x,1/2+y,z
x,-y,1/2+z
loop_
_atom_site_type_symbol
_atom_site_label
_atom_site_fract_x
_atom_site_fract_y
_atom_site_fract_z
Si Si1 0.726061 0.334519 0.798420
Si Si2 0.291561 0.128611 0.736650
Si Si3 0.463620 0.208902 0.117055
Si Si4 0.068804 0.902707 0.365474
Si Si5 0.630934 0.043322 0.126161
Si Si6 0.693907 0.504908 0.956038
O O1 0.659428 0.235896 0.776339
O O2 0.780974 0.381058 0.684632
O O3 0.832557 0.305527 0.877376
O O4 0.666539 0.419668 0.866648
O O5 0.189447 0.136997 0.826022
O O6 0.373343 0.042249 0.777885
O O7 0.225615 0.096295 0.622454
O O8 0.500000 0.218545 0.250000
O O9 0.507488 0.312518 0.070178
O O10 0.528902 0.109802 0.085173
O O11 0.102685 0.994004 0.444785
O O12 0.000000 0.927615 0.250000
O O13 0.689419 0.992165 0.020554
#
# Coordination Sequence:
#
# PCOD9454149 Si02
#       6
#     8   8   8   8   8   8
#     4  10  19  36  56  78 114 150 191 237 294 352
#     4  10  19  34  53  84 108 146 194 239 287 345
#     4   9  16  33  57  72 104 152 188 223 290 353
#     4  10  18  36  56  74 109 155 186 228 292 353
#     4   9  19  34  53  80 110 146 192 238 284 350
#     4  10  23  31  54  88 110 143 196 245 281 340
#
# _framework density 24.899912
#
# number of rings (size 3 to 8) (size 9 to 14) (size 15 to 20)
#    0.000    2.333    5.000    0.000    2.333    1.333 
#    0.000    0.000    0.000    0.000    0.000    9.333 
#    0.000    0.000    0.000    0.000    0.000    0.000 
#
# Total GULP energy -267562.527117 kJ/mol
# GULP energy per Si atom -5574.219315 kJ/mol
# Density = 2.484324 g / cm^3
# Si number density = 24.899912 Si / 1000 Ang^3
#
#
#
# Elastic Constant Matrix: (Units=GPa)
#
#
# Indices 1 2 3 4 5 6 
#
# 1 63.3009 8.2714 2.4183 0.0000 0.0000 0.0000
# 2 8.2714 126.6532 22.9287 0.0000 0.0000 0.0000
# 3 2.4183 22.9287 35.1740 0.0000 0.0000 0.0000
# 4 0.0000 0.0000 0.0000 7.0389 0.0000 0.0000
# 5 0.0000 0.0000 0.0000 0.0000 2.4640 0.0000
# 6 0.0000 0.0000 0.0000 0.0000 0.0000 25.4457
#
#
#
# Elastic Compliance Matrix: (Units=1/GPa)
#
#
# Indices 1 2 3 4 5 6 
#
# 1 0.015940 -0.000955 -0.000473 0.000000 0.000000 0.000000
# 2 -0.000955 0.009009 -0.005807 0.000000 0.000000 0.000000
# 3 -0.000473 -0.005807 0.032248 0.000000 0.000000 0.000000
# 4 0.000000 0.000000 0.000000 0.142067 0.000000 0.000000
# 5 0.000000 0.000000 0.000000 0.000000 0.405839 0.000000
# 6 0.000000 0.000000 0.000000 0.000000 0.000000 0.039299
#
#
# Mechanical properties :
#
#
# Convention : Reuss Voigt Hill
#
# Bulk Modulus (GPa) = 23.40468 32.48499 27.94483
# Shear Modulus (GPa) = 7.42813 19.75704 13.59259
#
# Velocity S-wave (km/s) = 1.72907 2.81989 2.33896
# Velocity P-wave (km/s) = 3.66144 4.86590 4.30599
#
# Compressibility (1/GPa) = 0.04272650
#
# Stress axis : x y z
#
# Youngs Moduli (GPa) = 62.73337 110.99682 31.00957
#
# Poissons Ratio (x) = 0.10604 0.01467
# Poissons Ratio (y) = 0.05993 0.18008
# Poissons Ratio (z) = 0.02968 0.64457
#
# Static dielectric constant tensor:
#      x y z
#    x 2.032110 0.000000 0.000000 
#    y 0.000000 2.098280 0.000000 
#    z 0.000000 0.000000 2.017320 
# 
# From -- ./inp_files/11867.got.cif
#   From: 2010.05.17/outbox.cif.g08.bks.cpg/sg60_6_cif.got.tgz:11867.got - 2010.06.03 14:59:27.
