data_PCOD9454271
_publ_section_title
;
Structure prediction by ZEFSAII (Michael W. Deem and Ramdas Pophale) SiO2 
 PCOD9454271
Probable space group: P B C N
;
_chemical_formula_sum "Si O2"
_cell_formula_units_Z 48
_cell_length_a 17.852450
_cell_length_b 13.517553
_cell_length_c 7.441483
_cell_angle_alpha 90.000000
_cell_angle_beta 90.000000
_cell_angle_gamma 90.000000
_cell_volume 1795.789386
_symmetry_space_group_name_H-M "P B C N"
_symmetry_group_IT_number 60
_symmetry_cell_setting 'orthorhombic'
loop_
_space_group_symop_operation_xyz
x,y,z
1/2-x,1/2-y,1/2+z
1/2+x,1/2-y,-z
-x,y,1/2-z
-x,-y,-z
1/2+x,1/2+y,1/2-z
1/2-x,1/2+y,z
x,-y,1/2+z
loop_
_atom_site_type_symbol
_atom_site_label
_atom_site_fract_x
_atom_site_fract_y
_atom_site_fract_z
Si Si1 0.592087 0.123525 0.953797
Si Si2 0.753951 0.157681 0.841602
Si Si3 0.911418 0.185898 0.918695
Si Si4 0.603656 0.909290 0.850833
Si Si5 0.770469 0.117217 0.422270
Si Si6 0.567825 0.341888 0.982439
O O1 0.573009 0.122003 0.160373
O O2 0.570309 0.232814 0.889975
O O3 0.681362 0.123218 0.942482
O O4 0.568467 0.016862 0.884266
O O5 0.829767 0.140609 0.952408
O O6 0.758910 0.120085 0.638364
O O7 0.741917 0.275052 0.836231
O O8 0.908343 0.305681 0.960840
O O9 0.918492 0.172383 0.699859
O O10 0.979833 0.131878 0.018606
O O11 0.693631 0.930933 0.850978
O O12 0.860512 0.097667 0.406082
#
# Coordination Sequence:
#
# PCOD9454271 Si02
#       6
#     8   8   8   8   8   8
#     4  10  19  30  46  67  93 122 152 187 224 266
#     4   9  16  28  47  67  89 118 152 187 220 262
#     4   8  15  28  46  68  92 118 147 181 224 270
#     4  10  19  30  46  67  93 122 152 187 224 266
#     4   9  16  28  47  67  89 118 152 187 220 262
#     4   8  15  28  46  68  92 118 147 181 224 270
#
# _framework density 26.729191
#
# number of rings (size 3 to 8) (size 9 to 14) (size 15 to 20)
#    0.000    3.000    0.000    4.000    0.000    0.667 
#    0.000    0.000    0.000   36.000    0.000    0.000 
#    0.000    0.000    0.000    0.000    0.000    0.000 
#
# Total GULP energy -267513.450460 kJ/mol
# GULP energy per Si atom -5573.196885 kJ/mol
# Density = 2.666835 g / cm^3
# Si number density = 26.729191 Si / 1000 Ang^3
#
#
#
# Elastic Constant Matrix: (Units=GPa)
#
#
# Indices 1 2 3 4 5 6 
#
# 1 199.2798 -10.0114 12.4882 0.0000 0.0000 0.0000
# 2 -10.0114 49.6234 -2.7124 0.0000 0.0000 0.0000
# 3 12.4882 -2.7124 53.3823 0.0000 0.0000 0.0000
# 4 0.0000 0.0000 0.0000 -2.1401 0.0000 0.0000
# 5 0.0000 0.0000 0.0000 0.0000 34.6988 0.0000
# 6 0.0000 0.0000 0.0000 0.0000 0.0000 0.4387
#
#
#
# Elastic Compliance Matrix: (Units=1/GPa)
#
#
# Indices 1 2 3 4 5 6 
#
# 1 0.005139 0.000974 -0.001153 0.000000 0.000000 0.000000
# 2 0.000974 0.020392 0.000808 0.000000 0.000000 0.000000
# 3 -0.001153 0.000808 0.019044 0.000000 0.000000 0.000000
# 4 0.000000 0.000000 0.000000 -0.467269 0.000000 0.000000
# 5 0.000000 0.000000 0.000000 0.000000 0.028819 0.000000
# 6 0.000000 0.000000 0.000000 0.000000 0.000000 2.279229
#
#
# Mechanical properties :
#
#
# Convention : Reuss Voigt Hill
#
# Bulk Modulus (GPa) = 21.81790 33.53495 27.67643
# Shear Modulus (GPa) = 2.63245 26.76756 14.70001
#
# Velocity S-wave (km/s) = 0.99348 3.16798 2.34767
# Velocity P-wave (km/s) = 3.08161 5.09459 4.21018
#
# Compressibility (1/GPa) = 0.04583392
#
# Stress axis : x y z
#
# Youngs Moduli (GPa) = 194.58157 49.03785 52.51119
#
# Poissons Ratio (x) = -0.04775 0.06053
# Poissons Ratio (y) = -0.18949 -0.04245
# Poissons Ratio (z) = 0.22431 -0.03964
#
# Static dielectric constant tensor:
#      x y z
#    x 2.174460 0.000000 0.000000 
#    y 0.000000 2.224340 0.000000 
#    z 0.000000 0.000000 2.057330 
# 
# From -- ./inp_files/6744.got.cif
#   From: 2010.05.17/outbox.cif.g08.bks.cpg/sg60_4_cif.got.tgz:6744.got - 2010.06.03 14:59:27.
