data_PCOD9454040
_publ_section_title
;
Structure prediction by ZEFSAII (Michael W. Deem and Ramdas Pophale) SiO2 
 PCOD9454040
Probable space group: P B C N
;
_chemical_formula_sum "Si O2"
_cell_formula_units_Z 52
_cell_length_a 17.216070
_cell_length_b 27.590124
_cell_length_c 5.550800
_cell_angle_alpha 90.000000
_cell_angle_beta 90.000000
_cell_angle_gamma 90.000000
_cell_volume 2636.593954
_symmetry_space_group_name_H-M "P B C N"
_symmetry_group_IT_number 60
_symmetry_cell_setting 'orthorhombic'
loop_
_space_group_symop_operation_xyz
x,y,z
1/2-x,1/2-y,1/2+z
1/2+x,1/2-y,-z
-x,y,1/2-z
-x,-y,-z
1/2+x,1/2+y,1/2-z
1/2-x,1/2+y,z
x,-y,1/2+z
loop_
_atom_site_type_symbol
_atom_site_label
_atom_site_fract_x
_atom_site_fract_y
_atom_site_fract_z
Si Si1 0.845798 0.223547 0.986428
Si Si2 0.214225 0.330575 0.527402
Si Si3 0.055739 0.955077 0.062199
Si Si4 0.720704 0.863846 0.469035
Si Si5 0.108786 0.190697 0.009777
Si Si6 0.000000 0.120098 0.250000
Si Si7 0.768447 0.025783 0.861481
O O1 0.797488 0.272799 0.956206
O O2 0.790156 0.176215 0.987044
O O3 0.895892 0.217897 0.744021
O O4 0.886780 0.222943 0.246425
O O5 0.177742 0.348072 0.276254
O O6 0.307893 0.337793 0.507511
O O7 0.183644 0.356807 0.767057
O O8 0.137521 0.973332 0.152482
O O9 0.000000 0.928135 0.250000
O O10 0.065289 0.916485 0.849795
O O11 0.000000 0.000000 0.000000
O O12 0.745355 0.918986 0.421401
O O13 0.039158 0.154310 0.055600
O O14 0.744041 0.006200 0.596403
#
# Coordination Sequence:
#
# PCOD9454040 Si02
#       7
#     8   8   8   8   8   4   8
#     4  10  19  34  53  71  91 112 152 206 253 293
#     4  10  18  33  53  74  89 111 151 208 251 295
#     4  12  23  35  47  59  83 127 177 224 255 281
#     4  10  19  30  50  69  89 113 147 197 257 289
#     4  10  21  32  47  68  91 120 142 192 252 298
#     4  12  26  34  48  66  96 126 168 212 260 314
#     4  12  24  37  48  65  93 128 170 212 253 296
#
# _framework density 19.722415999999999
#
# number of rings (size 3 to 8) (size 9 to 14) (size 15 to 20)
#    0.000    1.231    2.308    7.385    6.462    0.000 
#    0.000    0.000    0.000    0.000    0.000    0.000 
#    0.000    0.000    0.000    0.000    0.000    0.000 
#
# Total GULP energy -289834.908256 kJ/mol
# GULP energy per Si atom -5573.748236 kJ/mol
# Density = 1.967753 g / cm^3
# Si number density = 19.722416 Si / 1000 Ang^3
#
#
#
# Elastic Constant Matrix: (Units=GPa)
#
#
# Indices 1 2 3 4 5 6 
#
# 1 8.2738 10.3436 1.7467 0.0000 0.0000 0.0000
# 2 10.3436 102.0176 23.5224 0.0000 0.0000 0.0000
# 3 1.7467 23.5224 162.1295 0.0000 0.0000 0.0000
# 4 0.0000 0.0000 0.0000 37.6801 0.0000 0.0000
# 5 0.0000 0.0000 0.0000 0.0000 13.4678 0.0000
# 6 0.0000 0.0000 0.0000 0.0000 0.0000 13.0971
#
#
#
# Elastic Compliance Matrix: (Units=1/GPa)
#
#
# Indices 1 2 3 4 5 6 
#
# 1 0.138457 -0.014168 0.000564 0.000000 0.000000 0.000000
# 2 -0.014168 0.011591 -0.001529 0.000000 0.000000 0.000000
# 3 0.000564 -0.001529 0.006384 0.000000 0.000000 0.000000
# 4 0.000000 0.000000 0.000000 0.026539 0.000000 0.000000
# 5 0.000000 0.000000 0.000000 0.000000 0.074251 0.000000
# 6 0.000000 0.000000 0.000000 0.000000 0.000000 0.076353
#
#
# Mechanical properties :
#
#
# Convention : Reuss Voigt Hill
#
# Bulk Modulus (GPa) = 7.92611 38.18291 23.05451
# Shear Modulus (GPa) = 12.31840 28.63623 20.47731
#
# Velocity S-wave (km/s) = 2.50189 3.81460 3.22572
# Velocity P-wave (km/s) = 3.51760 6.22926 5.05852
#
# Compressibility (1/GPa) = 0.12616534
#
# Stress axis : x y z
#
# Youngs Moduli (GPa) = 7.22246 86.27161 156.64947
#
# Poissons Ratio (x) = 1.22231 -0.08834
# Poissons Ratio (y) = 0.10233 0.23953
# Poissons Ratio (z) = -0.00407 0.13192
#
# Static dielectric constant tensor:
#      x y z
#    x 1.602520 0.000000 0.000000 
#    y 0.000000 1.707360 0.000000 
#    z 0.000000 0.000000 3.266740 
# 
# From -- ./inp_files/1830.got.cif
#   From: 2010.05.17/outbox.cif.g08.bks.cpg/sg60_1_cif.got.tgz:1830.got - 2010.06.03 14:59:27.
