data_PCOD9454010
_publ_section_title
;
Structure prediction by ZEFSAII (Michael W. Deem and Ramdas Pophale) SiO2 
 PCOD9454010
Probable space group: P B C N
;
_chemical_formula_sum "Si O2"
_cell_formula_units_Z 60
_cell_length_a 11.470141
_cell_length_b 12.396619
_cell_length_c 16.207667
_cell_angle_alpha 90.000000
_cell_angle_beta 90.000000
_cell_angle_gamma 90.000000
_cell_volume 2304.583857
_symmetry_space_group_name_H-M "P B C N"
_symmetry_group_IT_number 60
_symmetry_cell_setting 'orthorhombic'
loop_
_space_group_symop_operation_xyz
x,y,z
1/2-x,1/2-y,1/2+z
1/2+x,1/2-y,-z
-x,y,1/2-z
-x,-y,-z
1/2+x,1/2+y,1/2-z
1/2-x,1/2+y,z
x,-y,1/2+z
loop_
_atom_site_type_symbol
_atom_site_label
_atom_site_fract_x
_atom_site_fract_y
_atom_site_fract_z
Si Si1 0.556267 0.515927 0.590825
Si Si2 0.056110 0.776673 0.170011
Si Si3 0.544431 0.115238 0.921822
Si Si4 0.872970 0.145346 0.369504
Si Si5 0.000000 0.393574 0.250000
Si Si6 0.733275 0.755398 0.227385
Si Si7 0.835053 0.329934 0.976587
Si Si8 0.767056 0.626459 0.062708
O O1 0.500000 0.500000 0.500000
O O2 0.522664 0.631185 0.628259
O O3 0.480897 0.431183 0.642599
O O4 0.688492 0.474779 0.590434
O O5 0.176330 0.820290 0.212783
O O6 0.085372 0.689542 0.102496
O O7 0.000000 0.724993 0.250000
O O8 0.579782 0.236813 0.894607
O O9 0.544768 0.051561 0.834891
O O10 0.414155 0.116133 0.955830
O O11 0.629489 0.095424 0.999673
O O12 0.801414 0.155657 0.285995
O O13 0.783788 0.117194 0.443762
O O14 0.886892 0.322999 0.219972
O O15 0.784140 0.704182 0.143121
O O16 0.809139 0.207905 0.006204
#
# Coordination Sequence:
#
# PCOD9454010 Si02
#       8
#     8   8   8   8   4   8   8   8
#     4  12  23  39  59  95 140 170 208 278 361 404
#     4  11  24  38  60  96 135 163 214 281 342 399
#     4  10  18  33  58  86 118 160 224 267 318 379
#     4   9  20  33  59  86 122 168 214 262 324 403
#     4  10  18  32  56  86 116 154 220 276 304 374
#     4  10  20  37  61  90 121 170 228 269 320 405
#     4  10  18  38  58  88 120 168 222 267 312 395
#     4  11  20  34  60  88 126 173 218 271 336 403
#
# _framework density 26.035069
#
# number of rings (size 3 to 8) (size 9 to 14) (size 15 to 20)
#    0.000    1.600    4.000    2.400    1.867    1.067 
#    0.000    0.000    0.000    2.400    1.733    0.000 
#    0.000    0.000    0.000    0.000    0.000    0.000 
#
# Total GULP energy -335271.610114 kJ/mol
# GULP energy per Si atom -5587.860169 kJ/mol
# Density = 2.597581 g / cm^3
# Si number density = 26.035069 Si / 1000 Ang^3
#
#
#
# Elastic Constant Matrix: (Units=GPa)
#
#
# Indices 1 2 3 4 5 6 
#
# 1 129.4964 26.6613 55.4122 0.0000 0.0000 0.0000
# 2 26.6613 65.2466 30.3960 0.0000 0.0000 0.0000
# 3 55.4122 30.3960 180.2048 0.0000 0.0000 0.0000
# 4 0.0000 0.0000 0.0000 15.1636 0.0000 0.0000
# 5 0.0000 0.0000 0.0000 0.0000 51.3096 0.0000
# 6 0.0000 0.0000 0.0000 0.0000 0.0000 29.7024
#
#
#
# Elastic Compliance Matrix: (Units=1/GPa)
#
#
# Indices 1 2 3 4 5 6 
#
# 1 0.009305 -0.002680 -0.002409 0.000000 0.000000 0.000000
# 2 -0.002680 0.017405 -0.002112 0.000000 0.000000 0.000000
# 3 -0.002409 -0.002112 0.006646 0.000000 0.000000 0.000000
# 4 0.000000 0.000000 0.000000 0.065947 0.000000 0.000000
# 5 0.000000 0.000000 0.000000 0.000000 0.019490 0.000000
# 6 0.000000 0.000000 0.000000 0.000000 0.000000 0.033667
#
#
# Mechanical properties :
#
#
# Convention : Reuss Voigt Hill
#
# Bulk Modulus (GPa) = 52.75706 66.65408 59.70557
# Shear Modulus (GPa) = 28.87158 36.73367 32.80263
#
# Velocity S-wave (km/s) = 3.33370 3.76031 3.55341
# Velocity P-wave (km/s) = 5.92671 6.67162 6.31017
#
# Compressibility (1/GPa) = 0.01895481
#
# Stress axis : x y z
#
# Youngs Moduli (GPa) = 107.47068 57.45370 150.46048
#
# Poissons Ratio (x) = 0.15397 0.36249
# Poissons Ratio (y) = 0.28800 0.31774
# Poissons Ratio (z) = 0.25892 0.12133
#
# Static dielectric constant tensor:
#      x y z
#    x 2.153770 0.000000 0.000000 
#    y 0.000000 2.032800 0.000000 
#    z 0.000000 0.000000 2.095660 
# 
# From -- ./inp_files/20181.got.cif
#   From: 2010.05.17/outbox.cif.g08.bks.cpg/sg60_11_cif.got.tgz:20181.got - 2010.06.03 14:59:27.
