data_PCOD9454552
_publ_section_title
;
Structure prediction by ZEFSAII (Michael W. Deem and Ramdas Pophale) SiO2 
 PCOD9454552
Probable space group: P B C N
;
_chemical_formula_sum "Si O2"
_cell_formula_units_Z 48
_cell_length_a 12.961156
_cell_length_b 14.647027
_cell_length_c 9.746999
_cell_angle_alpha 90.000000
_cell_angle_beta 90.000000
_cell_angle_gamma 90.000000
_cell_volume 1850.393701
_symmetry_space_group_name_H-M "P B C N"
_symmetry_group_IT_number 60
_symmetry_cell_setting 'orthorhombic'
loop_
_space_group_symop_operation_xyz
x,y,z
1/2-x,1/2-y,1/2+z
1/2+x,1/2-y,-z
-x,y,1/2-z
-x,-y,-z
1/2+x,1/2+y,1/2-z
1/2-x,1/2+y,z
x,-y,1/2+z
loop_
_atom_site_type_symbol
_atom_site_label
_atom_site_fract_x
_atom_site_fract_y
_atom_site_fract_z
Si Si1 0.385753 0.873804 0.757639
Si Si2 0.457222 0.408432 0.068729
Si Si3 0.242817 0.015367 0.643834
Si Si4 0.616095 0.226177 0.535796
Si Si5 0.392125 0.820174 0.069147
Si Si6 0.323352 0.349493 0.463094
O O1 0.500000 0.918380 0.750000
O O2 0.379327 0.809050 0.623325
O O3 0.382627 0.826053 0.903321
O O4 0.296339 0.948096 0.750171
O O5 0.368566 0.441545 0.172220
O O6 0.399565 0.334871 0.971103
O O7 0.563579 0.357119 0.104102
O O8 0.500000 0.500000 0.000000
O O9 0.324483 0.095673 0.618431
O O10 0.217340 0.947491 0.516374
O O11 0.513974 0.180524 0.598763
O O12 0.721546 0.193710 0.605439
O O13 0.347356 0.718603 0.093161
#
# Coordination Sequence:
#
# PCOD9454552 Si02
#       6
#     8   8   8   8   8   8
#     4   9  20  34  53  82 117 146 191 240 286 349
#     4   9  17  31  55  80 107 147 192 235 284 351
#     4  10  19  35  58  81 111 150 189 240 296 341
#     4   9  17  33  55  77 109 150 184 237 299 338
#     4  10  19  35  56  83 113 146 194 242 286 353
#     4   9  18  32  55  80 105 149 191 231 293 345
#
# _framework density 25.940424
#
# number of rings (size 3 to 8) (size 9 to 14) (size 15 to 20)
#    0.000    2.667    1.667    0.000    0.000    6.000 
#    3.000    0.000    3.667    8.000    0.000    0.000 
#    0.000    0.000    0.000    0.000    0.000    0.000 
#
# Total GULP energy -268014.975100 kJ/mol
# GULP energy per Si atom -5583.645315 kJ/mol
# Density = 2.588138 g / cm^3
# Si number density = 25.940424 Si / 1000 Ang^3
#
#
#
# Elastic Constant Matrix: (Units=GPa)
#
#
# Indices 1 2 3 4 5 6 
#
# 1 254.6941 73.1510 8.3972 0.0000 0.0000 0.0000
# 2 73.1510 151.3289 14.4828 0.0000 0.0000 0.0000
# 3 8.3972 14.4828 55.5709 0.0000 0.0000 0.0000
# 4 0.0000 0.0000 0.0000 11.7740 0.0000 0.0000
# 5 0.0000 0.0000 0.0000 0.0000 6.1226 0.0000
# 6 0.0000 0.0000 0.0000 0.0000 0.0000 68.6226
#
#
#
# Elastic Compliance Matrix: (Units=1/GPa)
#
#
# Indices 1 2 3 4 5 6 
#
# 1 0.004560 -0.002193 -0.000118 0.000000 0.000000 0.000000
# 2 -0.002193 0.007832 -0.001710 0.000000 0.000000 0.000000
# 3 -0.000118 -0.001710 0.018458 0.000000 0.000000 0.000000
# 4 0.000000 0.000000 0.000000 0.084933 0.000000 0.000000
# 5 0.000000 0.000000 0.000000 0.000000 0.163328 0.000000
# 6 0.000000 0.000000 0.000000 0.000000 0.000000 0.014572
#
#
# Mechanical properties :
#
#
# Convention : Reuss Voigt Hill
#
# Bulk Modulus (GPa) = 43.84104 72.62844 58.23474
# Shear Modulus (GPa) = 16.16408 41.67470 28.91939
#
# Velocity S-wave (km/s) = 2.49895 4.01253 3.34254
# Velocity P-wave (km/s) = 5.02630 7.03748 6.11514
#
# Compressibility (1/GPa) = 0.02280968
#
# Stress axis : x y z
#
# Youngs Moduli (GPa) = 219.29755 127.68395 54.17597
#
# Poissons Ratio (x) = 0.28001 0.00637
# Poissons Ratio (y) = 0.48092 0.09263
# Poissons Ratio (z) = 0.02577 0.21831
#
# Static dielectric constant tensor:
#      x y z
#    x 2.115030 0.000000 0.000000 
#    y 0.000000 2.065040 0.000000 
#    z 0.000000 0.000000 2.052040 
# 
# From -- ./inp_files/16066.got.cif
#   From: 2010.05.17/outbox.cif.g08.bks.cpg/sg60_9_cif.got.tgz:16066.got - 2010.06.03 14:59:27.
