data_PCOD9454927
_publ_section_title
;
Structure prediction by ZEFSAII (Michael W. Deem and Ramdas Pophale) SiO2 
 PCOD9454927
Probable space group: P B C N
;
_chemical_formula_sum "Si O2"
_cell_formula_units_Z 64
_cell_length_a 8.447894
_cell_length_b 17.159292
_cell_length_c 18.746395
_cell_angle_alpha 90.000000
_cell_angle_beta 90.000000
_cell_angle_gamma 90.000000
_cell_volume 2717.475168
_symmetry_space_group_name_H-M "P B C N"
_symmetry_group_IT_number 60
_symmetry_cell_setting 'orthorhombic'
loop_
_space_group_symop_operation_xyz
x,y,z
1/2-x,1/2-y,1/2+z
1/2+x,1/2-y,-z
-x,y,1/2-z
-x,-y,-z
1/2+x,1/2+y,1/2-z
1/2-x,1/2+y,z
x,-y,1/2+z
loop_
_atom_site_type_symbol
_atom_site_label
_atom_site_fract_x
_atom_site_fract_y
_atom_site_fract_z
Si Si1 0.100013 0.568490 0.578275
Si Si2 0.347500 0.325983 0.703317
Si Si3 0.273819 0.332576 0.960696
Si Si4 0.815854 0.594893 0.179213
Si Si5 0.003300 0.232701 0.570509
Si Si6 0.786258 0.164667 0.813059
Si Si7 0.650071 0.922320 0.196304
Si Si8 0.142415 0.397628 0.597875
O O1 0.152187 0.623459 0.513872
O O2 0.225504 0.592054 0.639976
O O3 0.129882 0.478646 0.556442
O O4 0.929998 0.583005 0.617336
O O5 0.500000 0.342409 0.750000
O O6 0.208971 0.340629 0.760962
O O7 0.337670 0.236892 0.678089
O O8 0.305795 0.383909 0.639388
O O9 0.287411 0.382321 0.889413
O O10 0.179323 0.255095 0.936204
O O11 0.431706 0.317691 0.004835
O O12 0.776523 0.508190 0.203783
O O13 0.997229 0.591993 0.153852
O O14 0.059921 0.196138 0.645458
O O15 0.101554 0.314152 0.564567
O O16 0.771905 0.139001 0.730837
O O17 0.500000 0.917352 0.250000
#
# Coordination Sequence:
#
# PCOD9454927 Si02
#       8
#     8   8   8   8   8   8   8   8
#     4   9  17  33  58  80 102 137 191 236 266 318
#     4  11  20  31  52  81 110 140 177 220 277 341
#     4  10  21  36  57  83 112 145 183 227 280 338
#     4  10  20  33  53  80 107 139 180 226 270 322
#     4   9  20  35  54  81 113 147 184 227 280 337
#     4   9  18  32  51  78 108 140 178 227 281 323
#     4   9  16  30  54  77 100 136 184 230 268 311
#     4   9  19  36  58  78 103 141 184 234 278 315
#
# _framework density 23.551273999999999
#
# number of rings (size 3 to 8) (size 9 to 14) (size 15 to 20)
#    0.000    2.500    0.000    3.750    0.000    8.500 
#    0.000    0.000    0.000   41.250    0.000    0.000 
#    0.000    0.000    0.000    0.000    0.000    0.000 
#
# Total GULP energy -356940.570417 kJ/mol
# GULP energy per Si atom -5577.196413 kJ/mol
# Density = 2.349767 g / cm^3
# Si number density = 23.551274 Si / 1000 Ang^3
#
#
#
# Elastic Constant Matrix: (Units=GPa)
#
#
# Indices 1 2 3 4 5 6 
#
# 1 39.2201 8.3318 5.1870 0.0000 0.0000 0.0000
# 2 8.3318 79.6260 18.1398 0.0000 0.0000 0.0000
# 3 5.1870 18.1398 71.6226 0.0000 0.0000 0.0000
# 4 0.0000 0.0000 0.0000 36.3845 0.0000 0.0000
# 5 0.0000 0.0000 0.0000 0.0000 16.0537 0.0000
# 6 0.0000 0.0000 0.0000 0.0000 0.0000 18.3600
#
#
#
# Elastic Compliance Matrix: (Units=1/GPa)
#
#
# Indices 1 2 3 4 5 6 
#
# 1 0.026186 -0.002449 -0.001276 0.000000 0.000000 0.000000
# 2 -0.002449 0.013557 -0.003256 0.000000 0.000000 0.000000
# 3 -0.001276 -0.003256 0.014879 0.000000 0.000000 0.000000
# 4 0.000000 0.000000 0.000000 0.027484 0.000000 0.000000
# 5 0.000000 0.000000 0.000000 0.000000 0.062291 0.000000
# 6 0.000000 0.000000 0.000000 0.000000 0.000000 0.054466
#
#
# Mechanical properties :
#
#
# Convention : Reuss Voigt Hill
#
# Bulk Modulus (GPa) = 24.59476 28.19844 26.39660
# Shear Modulus (GPa) = 22.08675 24.74696 23.41685
#
# Velocity S-wave (km/s) = 3.06570 3.24507 3.15666
# Velocity P-wave (km/s) = 4.79553 5.10293 4.95161
#
# Compressibility (1/GPa) = 0.04065907
#
# Stress axis : x y z
#
# Youngs Moduli (GPa) = 38.18800 73.76373 67.20810
#
# Poissons Ratio (x) = 0.18067 0.08576
# Poissons Ratio (y) = 0.09354 0.21884
# Poissons Ratio (z) = 0.04873 0.24018
#
# Static dielectric constant tensor:
#      x y z
#    x 1.930200 0.000000 0.000000 
#    y 0.000000 1.939940 0.000000 
#    z 0.000000 0.000000 1.941920 
# 
# From -- ./inp_files/22386.got.cif
#   From: 2010.05.17/outbox.cif.g08.bks.cpg/sg60_12_cif.got.tgz:22386.got - 2010.06.03 14:59:27.
