data_PCOD9454436
_publ_section_title
;
Structure prediction by ZEFSAII (Michael W. Deem and Ramdas Pophale) SiO2 
 PCOD9454436
Probable space group: P B C N
;
_chemical_formula_sum "Si O2"
_cell_formula_units_Z 52
_cell_length_a 17.841174
_cell_length_b 9.117360
_cell_length_c 16.625470
_cell_angle_alpha 90.000000
_cell_angle_beta 90.000000
_cell_angle_gamma 90.000000
_cell_volume 2704.372205
_symmetry_space_group_name_H-M "P B C N"
_symmetry_group_IT_number 60
_symmetry_cell_setting 'orthorhombic'
loop_
_space_group_symop_operation_xyz
x,y,z
1/2-x,1/2-y,1/2+z
1/2+x,1/2-y,-z
-x,y,1/2-z
-x,-y,-z
1/2+x,1/2+y,1/2-z
1/2-x,1/2+y,z
x,-y,1/2+z
loop_
_atom_site_type_symbol
_atom_site_label
_atom_site_fract_x
_atom_site_fract_y
_atom_site_fract_z
Si Si1 0.188447 0.105463 0.485745
Si Si2 0.254975 0.855221 0.592326
Si Si3 0.500000 0.291277 0.250000
Si Si4 0.716345 0.236927 0.158673
Si Si5 0.626159 0.056723 0.276729
Si Si6 0.097577 0.004316 0.850963
Si Si7 0.146097 0.240773 0.226117
O O1 0.194970 0.221951 0.558056
O O2 0.241540 0.177464 0.418490
O O3 0.226382 0.960427 0.521842
O O4 0.110433 0.073518 0.437857
O O5 0.309839 0.935677 0.655038
O O6 0.179775 0.807374 0.640410
O O7 0.563660 0.182383 0.284377
O O8 0.471699 0.395951 0.322541
O O9 0.666523 0.105132 0.194249
O O10 0.665519 0.378886 0.148133
O O11 0.778357 0.277712 0.224482
O O12 0.598555 0.889660 0.276739
O O13 0.108925 0.887350 0.778896
#
# Coordination Sequence:
#
# PCOD9454436 Si02
#       7
#     8   8   4   8   8   8   8
#     4  11  20  33  58  92 122 143 179 247 310 344
#     4  11  21  33  59  94 122 141 181 247 314 345
#     4  10  24  42  58  74 116 166 216 224 268 348
#     4   9  18  33  55  87 115 144 187 240 303 342
#     4  10  21  37  57  79 114 158 193 238 278 351
#     4  10  21  37  58  83 116 159 197 236 277 358
#     4  10  19  33  59  87 114 144 196 246 297 336
#
# _framework density 19.228123
#
# number of rings (size 3 to 8) (size 9 to 14) (size 15 to 20)
#    0.000    1.846    3.077    2.769    6.462    0.615 
#    0.000    0.769    0.000    4.615    0.000    0.000 
#    0.000    0.000    0.000    0.000    0.000    0.000 
#
# Total GULP energy -289665.405447 kJ/mol
# GULP energy per Si atom -5570.488566 kJ/mol
# Density = 1.918436 g / cm^3
# Si number density = 19.228123 Si / 1000 Ang^3
#
#
#
# Elastic Constant Matrix: (Units=GPa)
#
#
# Indices 1 2 3 4 5 6 
#
# 1 19.0619 7.0104 1.0121 0.0000 0.0000 0.0000
# 2 7.0104 112.0814 28.2057 0.0000 0.0000 0.0000
# 3 1.0121 28.2057 64.8227 0.0000 0.0000 0.0000
# 4 0.0000 0.0000 0.0000 14.5399 0.0000 0.0000
# 5 0.0000 0.0000 0.0000 0.0000 13.6409 0.0000
# 6 0.0000 0.0000 0.0000 0.0000 0.0000 29.5166
#
#
#
# Elastic Compliance Matrix: (Units=1/GPa)
#
#
# Indices 1 2 3 4 5 6 
#
# 1 0.053724 -0.003536 0.000700 0.000000 0.000000 0.000000
# 2 -0.003536 0.010252 -0.004406 0.000000 0.000000 0.000000
# 3 0.000700 -0.004406 0.017333 0.000000 0.000000 0.000000
# 4 0.000000 0.000000 0.000000 0.068776 0.000000 0.000000
# 5 0.000000 0.000000 0.000000 0.000000 0.073309 0.000000
# 6 0.000000 0.000000 0.000000 0.000000 0.000000 0.033879
#
#
# Mechanical properties :
#
#
# Convention : Reuss Voigt Hill
#
# Bulk Modulus (GPa) = 14.96453 29.82470 22.39462
# Shear Modulus (GPa) = 17.00490 22.18865 19.59677
#
# Velocity S-wave (km/s) = 2.97707 3.40070 3.19591
# Velocity P-wave (km/s) = 4.42909 5.56456 5.02897
#
# Compressibility (1/GPa) = 0.06682469
#
# Stress axis : x y z
#
# Youngs Moduli (GPa) = 18.61358 97.54215 57.69425
#
# Poissons Ratio (x) = 0.34495 -0.04038
# Poissons Ratio (y) = 0.06583 0.25418
# Poissons Ratio (z) = -0.01303 0.42973
#
# Static dielectric constant tensor:
#      x y z
#    x 1.676830 0.000000 0.000000 
#    y 0.000000 1.727210 0.000000 
#    z 0.000000 0.000000 1.707510 
# 
# From -- ./inp_files/17666.got.cif
#   From: 2010.05.17/outbox.cif.g08.bks.cpg/sg60_9_cif.got.tgz:17666.got - 2010.06.03 14:59:27.
