data_PCOD9454892
_publ_section_title
;
Structure prediction by ZEFSAII (Michael W. Deem and Ramdas Pophale) SiO2 
 PCOD9454892
Probable space group: P B C N
;
_chemical_formula_sum "Si O2"
_cell_formula_units_Z 40
_cell_length_a 12.676194
_cell_length_b 16.130334
_cell_length_c 9.821781
_cell_angle_alpha 90.000000
_cell_angle_beta 90.000000
_cell_angle_gamma 90.000000
_cell_volume 2008.271770
_symmetry_space_group_name_H-M "P B C N"
_symmetry_group_IT_number 60
_symmetry_cell_setting 'orthorhombic'
loop_
_space_group_symop_operation_xyz
x,y,z
1/2-x,1/2-y,1/2+z
1/2+x,1/2-y,-z
-x,y,1/2-z
-x,-y,-z
1/2+x,1/2+y,1/2-z
1/2-x,1/2+y,z
x,-y,1/2+z
loop_
_atom_site_type_symbol
_atom_site_label
_atom_site_fract_x
_atom_site_fract_y
_atom_site_fract_z
Si Si1 0.871560 0.203156 0.042452
Si Si2 0.094335 0.324658 0.677615
Si Si3 0.119221 0.071814 0.695717
Si Si4 0.161137 0.122077 0.174708
Si Si5 0.164165 0.195152 0.899495
O O1 0.931717 0.279515 0.966496
O O2 0.870475 0.124198 0.942461
O O3 0.885810 0.169609 0.194836
O O4 0.755973 0.244949 0.049532
O O5 0.210605 0.365604 0.670187
O O6 0.107203 0.249966 0.786267
O O7 0.000000 0.375877 0.750000
O O8 0.193802 0.113969 0.810552
O O9 0.000000 0.081413 0.750000
O O10 0.139844 0.975181 0.679008
O O11 0.112565 0.160497 0.036707
#
# Coordination Sequence:
#
# PCOD9454892 Si02
#       5
#     8   8   8   8   8
#     4   9  18  33  53  76 103 137 174 210 254 310
#     4   9  18  35  55  73 104 147 180 209 254 311
#     4  11  22  35  53  79 110 139 167 212 273 317
#     4  10  20  32  52  82 110 136 173 219 263 306
#     4   9  18  33  53  76 103 137 174 210 254 310
#
# _framework density 19.917622000000001
#
# number of rings (size 3 to 8) (size 9 to 14) (size 15 to 20)
#    0.000    2.400    0.000    4.800    0.000    4.800 
#    0.000    0.000    0.000   21.600    0.000    2.800 
#    0.000    0.000    0.000    0.000    0.000    0.000 
#
# Total GULP energy -222693.728634 kJ/mol
# GULP energy per Si atom -5567.343216 kJ/mol
# Density = 1.987229 g / cm^3
# Si number density = 19.917622 Si / 1000 Ang^3
#
#
#
# Elastic Constant Matrix: (Units=GPa)
#
#
# Indices 1 2 3 4 5 6 
#
# 1 62.9361 26.4834 2.2574 0.0000 0.0000 0.0000
# 2 26.4834 94.0103 30.8360 0.0000 0.0000 0.0000
# 3 2.2574 30.8360 125.8199 0.0000 0.0000 0.0000
# 4 0.0000 0.0000 0.0000 24.4942 0.0000 0.0000
# 5 0.0000 0.0000 0.0000 0.0000 29.2368 0.0000
# 6 0.0000 0.0000 0.0000 0.0000 0.0000 143.3946
#
#
#
# Elastic Compliance Matrix: (Units=1/GPa)
#
#
# Indices 1 2 3 4 5 6 
#
# 1 0.018143 -0.005442 0.001008 0.000000 0.000000 0.000000
# 2 -0.005442 0.013199 -0.003137 0.000000 0.000000 0.000000
# 3 0.001008 -0.003137 0.008699 0.000000 0.000000 0.000000
# 4 0.000000 0.000000 0.000000 0.040826 0.000000 0.000000
# 5 0.000000 0.000000 0.000000 0.000000 0.034203 0.000000
# 6 0.000000 0.000000 0.000000 0.000000 0.000000 0.006974
#
#
# Mechanical properties :
#
#
# Convention : Reuss Voigt Hill
#
# Bulk Modulus (GPa) = 40.16203 44.65775 42.40989
# Shear Modulus (GPa) = 34.36780 54.30441 44.33611
#
# Velocity S-wave (km/s) = 4.15842 5.22721 4.72314
# Velocity P-wave (km/s) = 6.57757 7.67473 7.14723
#
# Compressibility (1/GPa) = 0.02489914
#
# Stress axis : x y z
#
# Youngs Moduli (GPa) = 55.11821 75.76270 114.96036
#
# Poissons Ratio (x) = 0.41227 -0.11590
# Poissons Ratio (y) = 0.29993 0.36065
# Poissons Ratio (z) = -0.05557 0.23768
#
# Static dielectric constant tensor:
#      x y z
#    x 1.816590 0.000000 0.000000 
#    y 0.000000 1.674680 0.000000 
#    z 0.000000 0.000000 1.758400 
# 
# From -- ./inp_files/5649.got.cif
#   From: 2010.05.17/outbox.cif.g08.bks.cpg/sg60_3_cif.got.tgz:5649.got - 2010.06.03 14:59:27.
