data_PCOD9454986
_publ_section_title
;
Structure prediction by ZEFSAII (Michael W. Deem and Ramdas Pophale) SiO2 
 PCOD9454986
Probable space group: P B C N
;
_chemical_formula_sum "Si O2"
_cell_formula_units_Z 60
_cell_length_a 14.856431
_cell_length_b 9.323241
_cell_length_c 20.804219
_cell_angle_alpha 90.000000
_cell_angle_beta 90.000000
_cell_angle_gamma 90.000000
_cell_volume 2881.594176
_symmetry_space_group_name_H-M "P B C N"
_symmetry_group_IT_number 60
_symmetry_cell_setting 'orthorhombic'
loop_
_space_group_symop_operation_xyz
x,y,z
1/2-x,1/2-y,1/2+z
1/2+x,1/2-y,-z
-x,y,1/2-z
-x,-y,-z
1/2+x,1/2+y,1/2-z
1/2-x,1/2+y,z
x,-y,1/2+z
loop_
_atom_site_type_symbol
_atom_site_label
_atom_site_fract_x
_atom_site_fract_y
_atom_site_fract_z
Si Si1 0.370643 0.344643 0.070613
Si Si2 0.500000 0.000822 0.250000
Si Si3 0.140175 0.579301 0.483042
Si Si4 0.214825 0.542262 0.103413
Si Si5 0.033872 0.700990 0.372057
Si Si6 0.194067 0.416800 0.243537
Si Si7 0.809398 0.262066 0.053653
Si Si8 0.730364 0.812431 0.680785
O O1 0.312872 0.488872 0.079104
O O2 0.462977 0.324710 0.109803
O O3 0.309244 0.209068 0.094819
O O4 0.380495 0.312663 0.994337
O O5 0.496708 0.101015 0.185925
O O6 0.587862 0.904717 0.248269
O O7 0.141543 0.541297 0.558391
O O8 0.054410 0.619958 0.439935
O O9 0.179330 0.431874 0.452800
O O10 0.213525 0.704428 0.472961
O O11 0.210369 0.489017 0.175631
O O12 0.133480 0.739555 0.345852
O O13 0.223921 0.522627 0.300760
O O14 0.246394 0.271641 0.254695
O O15 0.805756 0.216330 0.127422
#
# Coordination Sequence:
#
# PCOD9454986 Si02
#       8
#     8   4   8   8   8   8   8   8
#     4  10  20  36  60  82 114 144 199 239 291 341
#     4  10  20  34  56  84 118 140 194 240 278 348
#     4   9  19  34  57  82 116 144 199 235 288 342
#     4  10  20  35  57  85 114 154 188 241 293 348
#     4  10  20  36  57  90 109 153 195 247 277 355
#     4  11  21  37  59  85 115 157 188 238 291 348
#     4   9  17  33  54  83 108 151 185 237 285 347
#     4  10  21  36  62  82 118 153 196 233 300 355
#
# _framework density 20.821808999999998
#
# number of rings (size 3 to 8) (size 9 to 14) (size 15 to 20)
#    0.000    2.133    1.333    3.200    1.867    2.133 
#    2.400    0.000    5.867   49.600    0.000    0.000 
#    0.000    0.000    0.000    0.000    0.000    0.000 
#
# Total GULP energy -334434.761719 kJ/mol
# GULP energy per Si atom -5573.912695 kJ/mol
# Density = 2.077442 g / cm^3
# Si number density = 20.821809 Si / 1000 Ang^3
#
#
#
# Elastic Constant Matrix: (Units=GPa)
#
#
# Indices 1 2 3 4 5 6 
#
# 1 39.9360 2.0816 11.1593 0.0000 0.0000 0.0000
# 2 2.0816 23.2635 -3.3440 0.0000 0.0000 0.0000
# 3 11.1593 -3.3440 104.8916 0.0000 0.0000 0.0000
# 4 0.0000 0.0000 0.0000 13.2770 0.0000 0.0000
# 5 0.0000 0.0000 0.0000 0.0000 33.7111 0.0000
# 6 0.0000 0.0000 0.0000 0.0000 0.0000 18.8386
#
#
#
# Elastic Compliance Matrix: (Units=1/GPa)
#
#
# Indices 1 2 3 4 5 6 
#
# 1 0.025979 -0.002734 -0.002851 0.000000 0.000000 0.000000
# 2 -0.002734 0.043471 0.001677 0.000000 0.000000 0.000000
# 3 -0.002851 0.001677 0.009890 0.000000 0.000000 0.000000
# 4 0.000000 0.000000 0.000000 0.075318 0.000000 0.000000
# 5 0.000000 0.000000 0.000000 0.000000 0.029664 0.000000
# 6 0.000000 0.000000 0.000000 0.000000 0.000000 0.053082
#
#
# Mechanical properties :
#
#
# Convention : Reuss Voigt Hill
#
# Bulk Modulus (GPa) = 13.98139 20.87612 17.42875
# Shear Modulus (GPa) = 18.58294 23.71163 21.14728
#
# Velocity S-wave (km/s) = 2.99067 3.37825 3.19035
# Velocity P-wave (km/s) = 4.31913 5.02640 4.68612
#
# Compressibility (1/GPa) = 0.07152365
#
# Stress axis : x y z
#
# Youngs Moduli (GPa) = 38.49225 23.00362 101.10774
#
# Poissons Ratio (x) = 0.06290 0.28827
# Poissons Ratio (y) = 0.10526 -0.16954
# Poissons Ratio (z) = 0.10974 -0.03857
#
# Static dielectric constant tensor:
#      x y z
#    x 1.765160 0.000000 0.000000 
#    y 0.000000 1.723880 0.000000 
#    z 0.000000 0.000000 1.820160 
# 
# From -- ./inp_files/24412.got.cif
#   From: 2010.05.17/outbox.cif.g08.bks.cpg/sg60_13_cif.got.tgz:24412.got - 2010.06.03 14:59:27.
