data_PCOD9454048
_publ_section_title
;
Structure prediction by ZEFSAII (Michael W. Deem and Ramdas Pophale) SiO2 
 PCOD9454048
Probable space group: P B C N
;
_chemical_formula_sum "Si O2"
_cell_formula_units_Z 56
_cell_length_a 14.910807
_cell_length_b 21.926419
_cell_length_c 8.796362
_cell_angle_alpha 90.000000
_cell_angle_beta 90.000000
_cell_angle_gamma 90.000000
_cell_volume 2875.887887
_symmetry_space_group_name_H-M "P B C N"
_symmetry_group_IT_number 60
_symmetry_cell_setting 'orthorhombic'
loop_
_space_group_symop_operation_xyz
x,y,z
1/2-x,1/2-y,1/2+z
1/2+x,1/2-y,-z
-x,y,1/2-z
-x,-y,-z
1/2+x,1/2+y,1/2-z
1/2-x,1/2+y,z
x,-y,1/2+z
loop_
_atom_site_type_symbol
_atom_site_label
_atom_site_fract_x
_atom_site_fract_y
_atom_site_fract_z
Si Si1 0.892017 0.392773 0.866050
Si Si2 0.571444 0.412999 0.972482
Si Si3 0.066948 0.526755 0.625345
Si Si4 0.254575 0.335698 0.448786
Si Si5 0.000000 0.184523 0.250000
Si Si6 0.329564 0.761639 0.178000
Si Si7 0.902502 0.638366 0.045635
Si Si8 0.500000 0.506128 0.750000
O O1 0.888164 0.464274 0.819587
O O2 0.861405 0.358296 0.713336
O O3 0.992121 0.372651 0.915519
O O4 0.829376 0.377204 0.005235
O O5 0.512204 0.358543 0.898360
O O6 0.573548 0.461358 0.830902
O O7 0.660170 0.379956 0.034422
O O8 0.533364 0.450940 0.113988
O O9 0.126267 0.578369 0.549155
O O10 0.000000 0.554487 0.750000
O O11 0.000000 0.500000 0.500000
O O12 0.230641 0.301377 0.292761
O O13 0.270955 0.284290 0.577029
O O14 0.909499 0.224559 0.238243
O O15 0.380801 0.804866 0.057933
#
# Coordination Sequence:
#
# PCOD9454048 Si02
#       8
#     8   8   8   8   4   8   8   4
#     4  10  20  38  56  83 121 154 194 251 283 348
#     4   9  20  40  63  90 113 146 197 246 304 353
#     4  10  18  33  54  82 112 146 194 233 271 341
#     4  11  24  39  57  87 125 150 196 253 299 345
#     4   9  20  38  62  84 110 156 201 238 284 364
#     4  11  23  39  58  84 119 160 198 242 296 355
#     4  10  21  36  59  82 113 167 205 223 288 356
#     4   9  18  42  70  84 112 148 193 248 296 372
#
# _framework density 19.472246999999999
#
# number of rings (size 3 to 8) (size 9 to 14) (size 15 to 20)
#    0.000    2.000    2.857    1.714    5.000    1.143 
#    5.143    7.143    0.000    0.000    0.000    0.000 
#    0.000    0.000    0.000    0.000    0.000    0.000 
#
# Total GULP energy -311876.535050 kJ/mol
# GULP energy per Si atom -5569.223840 kJ/mol
# Density = 1.942793 g / cm^3
# Si number density = 19.472247 Si / 1000 Ang^3
#
#
#
# Elastic Constant Matrix: (Units=GPa)
#
#
# Indices 1 2 3 4 5 6 
#
# 1 40.8009 33.8864 28.4672 0.0000 0.0000 0.0000
# 2 33.8864 97.2563 38.9758 0.0000 0.0000 0.0000
# 3 28.4672 38.9758 96.9860 0.0000 0.0000 0.0000
# 4 0.0000 0.0000 0.0000 34.5315 0.0000 0.0000
# 5 0.0000 0.0000 0.0000 0.0000 19.2528 0.0000
# 6 0.0000 0.0000 0.0000 0.0000 0.0000 16.6482
#
#
#
# Elastic Compliance Matrix: (Units=1/GPa)
#
#
# Indices 1 2 3 4 5 6 
#
# 1 0.038066 -0.010472 -0.006965 0.000000 0.000000 0.000000
# 2 -0.010472 0.015137 -0.003009 0.000000 0.000000 0.000000
# 3 -0.006965 -0.003009 0.013564 0.000000 0.000000 0.000000
# 4 0.000000 0.000000 0.000000 0.028959 0.000000 0.000000
# 5 0.000000 0.000000 0.000000 0.000000 0.051941 0.000000
# 6 0.000000 0.000000 0.000000 0.000000 0.000000 0.060066
#
#
# Mechanical properties :
#
#
# Convention : Reuss Voigt Hill
#
# Bulk Modulus (GPa) = 38.64710 48.63355 43.64033
# Shear Modulus (GPa) = 19.43635 23.00077 21.21856
#
# Velocity S-wave (km/s) = 3.16279 3.44060 3.30461
# Velocity P-wave (km/s) = 5.76437 6.38856 6.08448
#
# Compressibility (1/GPa) = 0.02587516
#
# Stress axis : x y z
#
# Youngs Moduli (GPa) = 26.27026 66.06439 73.72243
#
# Poissons Ratio (x) = 0.69182 0.51346
# Poissons Ratio (y) = 0.27510 0.22185
# Poissons Ratio (z) = 0.18296 0.19881
#
# Static dielectric constant tensor:
#      x y z
#    x 1.804170 0.000000 0.000000 
#    y 0.000000 1.734700 0.000000 
#    z 0.000000 0.000000 1.749940 
# 
# From -- ./inp_files/6185.got.cif
#   From: 2010.05.17/outbox.cif.g08.bks.cpg/sg60_4_cif.got.tgz:6185.got - 2010.06.03 14:59:27.
