data_PCOD9454406
_publ_section_title
;
Structure prediction by ZEFSAII (Michael W. Deem and Ramdas Pophale) SiO2 
 PCOD9454406
Probable space group: P B C N
;
_chemical_formula_sum "Si O2"
_cell_formula_units_Z 32
_cell_length_a 12.423886
_cell_length_b 18.215506
_cell_length_c 4.887646
_cell_angle_alpha 90.000000
_cell_angle_beta 90.000000
_cell_angle_gamma 90.000000
_cell_volume 1106.110312
_symmetry_space_group_name_H-M "P B C N"
_symmetry_group_IT_number 60
_symmetry_cell_setting 'orthorhombic'
loop_
_space_group_symop_operation_xyz
x,y,z
1/2-x,1/2-y,1/2+z
1/2+x,1/2-y,-z
-x,y,1/2-z
-x,-y,-z
1/2+x,1/2+y,1/2-z
1/2-x,1/2+y,z
x,-y,1/2+z
loop_
_atom_site_type_symbol
_atom_site_label
_atom_site_fract_x
_atom_site_fract_y
_atom_site_fract_z
Si Si1 0.382815 0.450306 0.713511
Si Si2 0.147423 0.681824 0.791153
Si Si3 0.612546 0.722831 0.696316
Si Si4 0.648433 0.051658 0.095507
O O1 0.500000 0.415348 0.750000
O O2 0.380760 0.475270 0.399219
O O3 0.270468 0.419719 0.825905
O O4 0.114069 0.752023 0.615247
O O5 0.276923 0.679578 0.775384
O O6 0.104798 0.615636 0.601924
O O7 0.117015 0.705581 0.099314
O O8 0.500000 0.684665 0.750000
O O9 0.625021 0.019229 0.397534
#
# Coordination Sequence:
#
# PCOD9454406 Si02
#       4
#     8   8   8   8
#     4   8  14  25  40  62  96 139 181 213 255 323
#     4  10  21  38  62  91 117 152 202 243 296 363
#     4  10  21  40  64  87 115 152 199 257 301 338
#     4  10  19  33  54  81 118 158 189 234 297 356
#
# _framework density 28.930208
#
# number of rings (size 3 to 8) (size 9 to 14) (size 15 to 20)
#    0.000    2.500    0.000    2.250    0.000    0.000 
#    0.000   20.000    0.000   15.000    0.000    0.000 
#    0.000    0.000    0.000    0.000    0.000    0.000 
#
# Total GULP energy -178467.024348 kJ/mol
# GULP energy per Si atom -5577.094511 kJ/mol
# Density = 2.886436 g / cm^3
# Si number density = 28.930208 Si / 1000 Ang^3
#
#
#
# Elastic Constant Matrix: (Units=GPa)
#
#
# Indices 1 2 3 4 5 6 
#
# 1 158.1617 14.9581 33.6914 0.0000 0.0000 0.0000
# 2 14.9581 68.7500 46.2363 0.0000 0.0000 0.0000
# 3 33.6914 46.2363 209.1668 0.0000 0.0000 0.0000
# 4 0.0000 0.0000 0.0000 66.0602 0.0000 0.0000
# 5 0.0000 0.0000 0.0000 0.0000 33.8212 0.0000
# 6 0.0000 0.0000 0.0000 0.0000 0.0000 2.5125
#
#
#
# Elastic Compliance Matrix: (Units=1/GPa)
#
#
# Indices 1 2 3 4 5 6 
#
# 1 0.006589 -0.000845 -0.000874 0.000000 0.000000 0.000000
# 2 -0.000845 0.017194 -0.003665 0.000000 0.000000 0.000000
# 3 -0.000874 -0.003665 0.005732 0.000000 0.000000 0.000000
# 4 0.000000 0.000000 0.000000 0.015138 0.000000 0.000000
# 5 0.000000 0.000000 0.000000 0.000000 0.029567 0.000000
# 6 0.000000 0.000000 0.000000 0.000000 0.000000 0.398018
#
#
# Mechanical properties :
#
#
# Convention : Reuss Voigt Hill
#
# Bulk Modulus (GPa) = 53.34557 69.53887 61.44222
# Shear Modulus (GPa) = 10.21963 43.22497 26.72230
#
# Velocity S-wave (km/s) = 1.88154 3.86957 3.04251
# Velocity P-wave (km/s) = 4.81660 6.63730 5.79885
#
# Compressibility (1/GPa) = 0.01874570
#
# Stress axis : x y z
#
# Youngs Moduli (GPa) = 151.77111 58.16016 174.46653
#
# Poissons Ratio (x) = 0.04917 0.15255
# Poissons Ratio (y) = 0.12832 0.63934
# Poissons Ratio (z) = 0.13271 0.21313
#
# Static dielectric constant tensor:
#      x y z
#    x 2.429290 0.000000 0.000000 
#    y 0.000000 2.262480 0.000000 
#    z 0.000000 0.000000 2.167100 
# 
# From -- ./inp_files/1106.got.cif
#   From: 2010.05.17/outbox.cif.g08.bks.cpg/sg60_1_cif.got.tgz:1106.got - 2010.06.03 14:59:27.
