data_PCOD9454820
_publ_section_title
;
Structure prediction by ZEFSAII (Michael W. Deem and Ramdas Pophale) SiO2 
 PCOD9454820
Probable space group: P B C N
;
_chemical_formula_sum "Si O2"
_cell_formula_units_Z 64
_cell_length_a 13.806110
_cell_length_b 25.240756
_cell_length_c 8.259853
_cell_angle_alpha 90.000000
_cell_angle_beta 90.000000
_cell_angle_gamma 90.000000
_cell_volume 2878.365934
_symmetry_space_group_name_H-M "P B C N"
_symmetry_group_IT_number 60
_symmetry_cell_setting 'orthorhombic'
loop_
_space_group_symop_operation_xyz
x,y,z
1/2-x,1/2-y,1/2+z
1/2+x,1/2-y,-z
-x,y,1/2-z
-x,-y,-z
1/2+x,1/2+y,1/2-z
1/2-x,1/2+y,z
x,-y,1/2+z
loop_
_atom_site_type_symbol
_atom_site_label
_atom_site_fract_x
_atom_site_fract_y
_atom_site_fract_z
Si Si1 0.735196 0.332044 0.737912
Si Si2 0.436728 0.840095 0.906713
Si Si3 0.605870 0.658170 0.663942
Si Si4 0.027231 0.761081 0.565897
Si Si5 0.710521 0.556673 0.125770
Si Si6 0.944219 0.548882 0.079748
Si Si7 0.116213 0.047214 0.727321
Si Si8 0.179904 0.763619 0.075770
O O1 0.838926 0.353583 0.684593
O O2 0.683713 0.389551 0.728814
O O3 0.760150 0.289043 0.878557
O O4 0.703715 0.295970 0.586013
O O5 0.500000 0.826401 0.750000
O O6 0.466317 0.893406 0.999652
O O7 0.414148 0.791903 0.026785
O O8 0.500000 0.655547 0.750000
O O9 0.579649 0.686600 0.496934
O O10 0.643652 0.598642 0.664085
O O11 0.673841 0.696736 0.770517
O O12 0.000000 0.766431 0.750000
O O13 0.931437 0.749696 0.461770
O O14 0.826386 0.544015 0.092297
O O15 0.668902 0.505757 0.217329
O O16 0.653261 0.561145 0.953953
O O17 0.000000 0.554296 0.250000
O O18 0.000000 0.500000 0.000000
O O19 0.000000 0.039912 0.750000
#
# Coordination Sequence:
#
# PCOD9454820 Si02
#       8
#     8   8   8   8   8   8   8   8
#     4  11  23  40  65  95 132 181 223 285 349 417
#     4  10  19  40  64  85 126 179 214 268 343 416
#     4   9  19  41  68  90 130 182 222 283 358 418
#     4  11  22  39  66 100 131 172 229 283 350 436
#     4  11  24  45  69 103 140 180 243 291 352 435
#     4  10  22  40  68  95 132 179 225 284 351 412
#     4  11  23  46  71 100 139 191 236 303 361 418
#     4  11  22  41  65  93 138 171 223 282 352 420
#
# _framework density 22.234839000000001
#
# number of rings (size 3 to 8) (size 9 to 14) (size 15 to 20)
#    0.000    1.500    3.750    1.500    1.750    0.500 
#    4.500    0.000    0.000    0.000    0.000    0.000 
#    0.000    0.000    0.000    0.000    0.000    0.000 
#
# Total GULP energy -356463.845181 kJ/mol
# GULP energy per Si atom -5569.747581 kJ/mol
# Density = 2.218423 g / cm^3
# Si number density = 22.234839 Si / 1000 Ang^3
#
#
#
# Elastic Constant Matrix: (Units=GPa)
#
#
# Indices 1 2 3 4 5 6 
#
# 1 87.8085 25.0646 6.2705 0.0000 0.0000 0.0000
# 2 25.0646 209.1455 52.6133 0.0000 0.0000 0.0000
# 3 6.2705 52.6133 30.8032 0.0000 0.0000 0.0000
# 4 0.0000 0.0000 0.0000 39.9864 0.0000 0.0000
# 5 0.0000 0.0000 0.0000 0.0000 33.4173 0.0000
# 6 0.0000 0.0000 0.0000 0.0000 0.0000 42.3952
#
#
#
# Elastic Compliance Matrix: (Units=1/GPa)
#
#
# Indices 1 2 3 4 5 6 
#
# 1 0.011792 -0.001419 0.000023 0.000000 0.000000 0.000000
# 2 -0.001419 0.008554 -0.014322 0.000000 0.000000 0.000000
# 3 0.000023 -0.014322 0.056923 0.000000 0.000000 0.000000
# 4 0.000000 0.000000 0.000000 0.025009 0.000000 0.000000
# 5 0.000000 0.000000 0.000000 0.000000 0.029925 0.000000
# 6 0.000000 0.000000 0.000000 0.000000 0.000000 0.023588
#
#
# Mechanical properties :
#
#
# Convention : Reuss Voigt Hill
#
# Bulk Modulus (GPa) = 21.81845 55.07267 38.44556
# Shear Modulus (GPa) = 24.69091 39.41371 32.05231
#
# Velocity S-wave (km/s) = 3.33597 4.21481 3.80087
# Velocity P-wave (km/s) = 4.96712 6.96481 6.04900
#
# Compressibility (1/GPa) = 0.04583278
#
# Stress axis : x y z
#
# Youngs Moduli (GPa) = 84.80462 116.89842 17.56763
#
# Poissons Ratio (x) = 0.16588 -0.00041
# Poissons Ratio (y) = 0.12034 0.25161
# Poissons Ratio (z) = -0.00198 1.67428
#
# Static dielectric constant tensor:
#      x y z
#    x 1.725060 0.000000 0.000000 
#    y 0.000000 1.890800 0.000000 
#    z 0.000000 0.000000 1.849230 
# 
# From -- ./inp_files/6294.got.cif
#   From: 2010.05.17/outbox.cif.g08.bks.cpg/sg60_4_cif.got.tgz:6294.got - 2010.06.03 14:59:27.
