data_PCOD9454979
_publ_section_title
;
Structure prediction by ZEFSAII (Michael W. Deem and Ramdas Pophale) SiO2 
 PCOD9454979
Probable space group: P B C N
;
_chemical_formula_sum "Si O2"
_cell_formula_units_Z 64
_cell_length_a 30.149582
_cell_length_b 5.233044
_cell_length_c 19.718822
_cell_angle_alpha 90.000000
_cell_angle_beta 90.000000
_cell_angle_gamma 90.000000
_cell_volume 3111.119181
_symmetry_space_group_name_H-M "P B C N"
_symmetry_group_IT_number 60
_symmetry_cell_setting 'orthorhombic'
loop_
_space_group_symop_operation_xyz
x,y,z
1/2-x,1/2-y,1/2+z
1/2+x,1/2-y,-z
-x,y,1/2-z
-x,-y,-z
1/2+x,1/2+y,1/2-z
1/2-x,1/2+y,z
x,-y,1/2+z
loop_
_atom_site_type_symbol
_atom_site_label
_atom_site_fract_x
_atom_site_fract_y
_atom_site_fract_z
Si Si1 0.597583 0.530348 0.870342
Si Si2 0.457835 0.638610 0.910645
Si Si3 0.653979 0.962567 0.395093
Si Si4 0.637398 0.146047 0.681064
Si Si5 0.083615 0.852716 0.278327
Si Si6 0.539679 0.757017 0.980779
Si Si7 0.620962 0.932872 0.535366
Si Si8 0.778868 0.553240 0.775508
O O1 0.619951 0.253795 0.868435
O O2 0.574465 0.598103 0.799836
O O3 0.562535 0.549507 0.930677
O O4 0.634743 0.751814 0.882585
O O5 0.457103 0.630417 0.830296
O O6 0.494463 0.830043 0.942287
O O7 0.406659 0.699421 0.931639
O O8 0.469489 0.377970 0.947987
O O9 0.657094 0.903334 0.476002
O O10 0.697209 0.930833 0.348840
O O11 0.617863 0.422927 0.699378
O O12 0.684108 0.103238 0.717988
O O13 0.605362 0.925311 0.711221
O O14 0.637399 0.096068 0.599803
O O15 0.580243 0.943762 0.993584
O O16 0.757703 0.273805 0.768999
#
# Coordination Sequence:
#
# PCOD9454979 Si02
#       8
#     8   8   8   8   8   8   8   8
#     4  11  20  37  59  86 120 162 206 244 292 348
#     4  10  20  34  55  87 122 161 205 253 291 333
#     4  11  22  39  63  90 116 157 199 243 291 375
#     4  11  22  39  63  90 116 157 199 243 291 375
#     4  11  20  37  59  86 120 162 206 244 292 348
#     4  10  20  34  55  87 122 161 205 253 291 333
#     4  10  21  38  62  86 120 168 206 244 292 360
#     4  12  24  42  64  94 119 150 189 248 312 366
#
# _framework density 20.571375
#
# number of rings (size 3 to 8) (size 9 to 14) (size 15 to 20)
#    0.000    1.250    5.000    1.875    0.000    0.500 
#    0.000    1.250    0.000    3.000    0.000    0.000 
#    0.000    0.000    0.000    0.000    0.000    0.000 
#
# Total GULP energy -357011.980926 kJ/mol
# GULP energy per Si atom -5578.312202 kJ/mol
# Density = 2.052455 g / cm^3
# Si number density = 20.571375 Si / 1000 Ang^3
#
#
#
# Elastic Constant Matrix: (Units=GPa)
#
#
# Indices 1 2 3 4 5 6 
#
# 1 43.7301 -3.0209 -0.1417 0.0000 0.0000 0.0000
# 2 -3.0209 64.8735 -1.8707 0.0000 0.0000 0.0000
# 3 -0.1417 -1.8707 68.1029 0.0000 0.0000 0.0000
# 4 0.0000 0.0000 0.0000 26.8862 0.0000 0.0000
# 5 0.0000 0.0000 0.0000 0.0000 40.0033 0.0000
# 6 0.0000 0.0000 0.0000 0.0000 0.0000 27.0240
#
#
#
# Elastic Compliance Matrix: (Units=1/GPa)
#
#
# Indices 1 2 3 4 5 6 
#
# 1 0.022942 0.001071 0.000077 0.000000 0.000000 0.000000
# 2 0.001071 0.015477 0.000427 0.000000 0.000000 0.000000
# 3 0.000077 0.000427 0.014696 0.000000 0.000000 0.000000
# 4 0.000000 0.000000 0.000000 0.037194 0.000000 0.000000
# 5 0.000000 0.000000 0.000000 0.000000 0.024998 0.000000
# 6 0.000000 0.000000 0.000000 0.000000 0.000000 0.037004
#
#
# Mechanical properties :
#
#
# Convention : Reuss Voigt Hill
#
# Bulk Modulus (GPa) = 17.77331 18.51555 18.14443
# Shear Modulus (GPa) = 29.77705 30.89870 30.33787
#
# Velocity S-wave (km/s) = 3.80873 3.87980 3.84443
# Velocity P-wave (km/s) = 5.29155 5.39357 5.34280
#
# Compressibility (1/GPa) = 0.05626413
#
# Stress axis : x y z
#
# Youngs Moduli (GPa) = 43.58869 64.61290 68.04774
#
# Poissons Ratio (x) = -0.06917 -0.00525
# Poissons Ratio (y) = -0.04666 -0.02908
# Poissons Ratio (z) = -0.00336 -0.02761
#
# Static dielectric constant tensor:
#      x y z
#    x 1.751730 0.000000 0.000000 
#    y 0.000000 1.815890 0.000000 
#    z 0.000000 0.000000 1.786410 
# 
# From -- ./inp_files/21305.got.cif
#   From: 2010.05.17/outbox.cif.g08.bks.cpg/sg60_11_cif.got.tgz:21305.got - 2010.06.03 14:59:27.
