data_PCOD9454537
_publ_section_title
;
Structure prediction by ZEFSAII (Michael W. Deem and Ramdas Pophale) SiO2 
 PCOD9454537
Probable space group: P B C N
;
_chemical_formula_sum "Si O2"
_cell_formula_units_Z 48
_cell_length_a 7.739708
_cell_length_b 11.410907
_cell_length_c 20.954012
_cell_angle_alpha 90.000000
_cell_angle_beta 90.000000
_cell_angle_gamma 90.000000
_cell_volume 1850.597326
_symmetry_space_group_name_H-M "P B C N"
_symmetry_group_IT_number 60
_symmetry_cell_setting 'orthorhombic'
loop_
_space_group_symop_operation_xyz
x,y,z
1/2-x,1/2-y,1/2+z
1/2+x,1/2-y,-z
-x,y,1/2-z
-x,-y,-z
1/2+x,1/2+y,1/2-z
1/2-x,1/2+y,z
x,-y,1/2+z
loop_
_atom_site_type_symbol
_atom_site_label
_atom_site_fract_x
_atom_site_fract_y
_atom_site_fract_z
Si Si1 0.000000 0.970144 0.750000
Si Si2 0.049893 0.922165 0.607826
Si Si3 0.434026 0.026734 0.630256
Si Si4 0.500000 0.121577 0.250000
Si Si5 0.471951 0.329561 0.077907
Si Si6 0.710520 0.320947 0.291481
Si Si7 0.084555 0.688697 0.529171
O O1 0.160273 0.062414 0.746668
O O2 0.997734 0.907490 0.681792
O O3 0.031318 0.809332 0.564498
O O4 0.254863 0.958306 0.612545
O O5 0.958622 0.037312 0.577305
O O6 0.520227 0.950063 0.684582
O O7 0.381324 0.144679 0.670666
O O8 0.509155 0.079968 0.564646
O O9 0.672244 0.202825 0.254995
O O10 0.431895 0.310205 0.151946
O O11 0.285132 0.329814 0.044157
O O12 0.565772 0.221394 0.044696
#
# Coordination Sequence:
#
# PCOD9454537 Si02
#       7
#     4   8   8   4   8   8   8
#     4   7  14  29  52  76  94 123 178 213 258 324
#     4   9  17  34  56  75 101 143 176 220 275 316
#     4   9  19  32  52  81 104 136 181 220 274 336
#     4  11  18  35  58  74 102 147 176 211 284 338
#     4   9  19  35  55  77 105 142 182 217 267 325
#     4   8  17  34  53  74 105 140 173 224 271 319
#     4  10  19  35  53  76 110 139 177 225 264 318
#
# _framework density 25.937571999999999
#
# number of rings (size 3 to 8) (size 9 to 14) (size 15 to 20)
#    0.000    3.667    0.000    2.500    0.000    0.667 
#    0.000   19.167    0.000    0.000    0.000    0.000 
#    0.000    0.000    0.000    0.000    0.000    0.000 
#
# Total GULP energy -267843.013465 kJ/mol
# GULP energy per Si atom -5580.062781 kJ/mol
# Density = 2.587854 g / cm^3
# Si number density = 25.937572 Si / 1000 Ang^3
#
#
#
# Elastic Constant Matrix: (Units=GPa)
#
#
# Indices 1 2 3 4 5 6 
#
# 1 25.3592 1.6441 7.1968 0.0000 0.0000 0.0000
# 2 1.6441 109.1265 43.4212 0.0000 0.0000 0.0000
# 3 7.1968 43.4212 102.4264 0.0000 0.0000 0.0000
# 4 0.0000 0.0000 0.0000 47.7305 0.0000 0.0000
# 5 0.0000 0.0000 0.0000 0.0000 38.4891 0.0000
# 6 0.0000 0.0000 0.0000 0.0000 0.0000 12.9446
#
#
#
# Elastic Compliance Matrix: (Units=1/GPa)
#
#
# Indices 1 2 3 4 5 6 
#
# 1 0.040271 0.000624 -0.003094 0.000000 0.000000 0.000000
# 2 0.000624 0.011033 -0.004721 0.000000 0.000000 0.000000
# 3 -0.003094 -0.004721 0.011982 0.000000 0.000000 0.000000
# 4 0.000000 0.000000 0.000000 0.020951 0.000000 0.000000
# 5 0.000000 0.000000 0.000000 0.000000 0.025981 0.000000
# 6 0.000000 0.000000 0.000000 0.000000 0.000000 0.077252
#
#
# Mechanical properties :
#
#
# Convention : Reuss Voigt Hill
#
# Bulk Modulus (GPa) = 20.44817 37.93736 29.19276
# Shear Modulus (GPa) = 22.91970 32.14284 27.53127
#
# Velocity S-wave (km/s) = 2.97585 3.52410 3.26151
# Velocity P-wave (km/s) = 4.43940 5.58724 5.04606
#
# Compressibility (1/GPa) = 0.04890414
#
# Stress axis : x y z
#
# Youngs Moduli (GPa) = 24.83174 90.63946 83.45962
#
# Poissons Ratio (x) = -0.05660 0.25825
# Poissons Ratio (y) = -0.01551 0.39401
# Poissons Ratio (z) = 0.07684 0.42790
#
# Static dielectric constant tensor:
#      x y z
#    x 2.154340 0.000000 0.000000 
#    y 0.000000 2.167550 0.000000 
#    z 0.000000 0.000000 2.094150 
# 
# From -- ./inp_files/22591.got.cif
#   From: 2010.05.17/outbox.cif.g08.bks.cpg/sg60_12_cif.got.tgz:22591.got - 2010.06.03 14:59:27.
