data_PCOD9454110
_publ_section_title
;
Structure prediction by ZEFSAII (Michael W. Deem and Ramdas Pophale) SiO2 
 PCOD9454110
Probable space group: P B C N
;
_chemical_formula_sum "Si O2"
_cell_formula_units_Z 48
_cell_length_a 13.633630
_cell_length_b 17.874411
_cell_length_c 8.825150
_cell_angle_alpha 90.000000
_cell_angle_beta 90.000000
_cell_angle_gamma 90.000000
_cell_volume 2150.628215
_symmetry_space_group_name_H-M "P B C N"
_symmetry_group_IT_number 60
_symmetry_cell_setting 'orthorhombic'
loop_
_space_group_symop_operation_xyz
x,y,z
1/2-x,1/2-y,1/2+z
1/2+x,1/2-y,-z
-x,y,1/2-z
-x,-y,-z
1/2+x,1/2+y,1/2-z
1/2-x,1/2+y,z
x,-y,1/2+z
loop_
_atom_site_type_symbol
_atom_site_label
_atom_site_fract_x
_atom_site_fract_y
_atom_site_fract_z
Si Si1 0.773798 0.045634 0.200020
Si Si2 0.897218 0.961472 0.973955
Si Si3 0.488531 0.090113 0.990743
Si Si4 0.164652 0.682443 0.178924
Si Si5 0.690092 0.315490 0.111219
Si Si6 0.843991 0.405483 0.290550
O O1 0.872591 0.042568 0.298252
O O2 0.732556 0.127318 0.222117
O O3 0.808457 0.012076 0.042174
O O4 0.692437 0.990498 0.271200
O O5 0.882779 0.879455 0.047155
O O6 0.000000 0.000000 0.000000
O O7 0.429366 0.135142 0.118900
O O8 0.598658 0.113722 0.943872
O O9 0.420413 0.104527 0.845808
O O10 0.500000 0.000000 0.000000
O O11 0.140276 0.748791 0.295394
O O12 0.233850 0.702203 0.029627
O O13 0.753565 0.354757 0.244020
#
# Coordination Sequence:
#
# PCOD9454110 Si02
#       6
#     8   8   8   8   8   8
#     4  10  20  36  65  91 119 167 207 265 326 379
#     4  10  21  39  66  93 120 161 228 273 307 379
#     4  10  18  34  63  93 126 153 215 272 313 387
#     4  10  20  38  62  92 128 171 210 260 338 394
#     4   9  21  39  63  86 131 173 211 260 334 398
#     4   9  19  35  60  91 122 162 208 262 319 388
#
# _framework density 22.319057999999998
#
# number of rings (size 3 to 8) (size 9 to 14) (size 15 to 20)
#    0.000    2.333    1.667    1.500    0.000    2.667 
#    0.000    0.000   58.667    2.000    0.000    0.000 
#    0.000    0.000    0.000    0.000    0.000    0.000 
#
# Total GULP energy -267697.918160 kJ/mol
# GULP energy per Si atom -5577.039962 kJ/mol
# Density = 2.226826 g / cm^3
# Si number density = 22.319058 Si / 1000 Ang^3
#
#
#
# Elastic Constant Matrix: (Units=GPa)
#
#
# Indices 1 2 3 4 5 6 
#
# 1 72.6318 8.8397 23.7440 0.0000 0.0000 0.0000
# 2 8.8397 66.3260 35.1812 0.0000 0.0000 0.0000
# 3 23.7440 35.1812 85.8260 0.0000 0.0000 0.0000
# 4 0.0000 0.0000 0.0000 27.2123 0.0000 0.0000
# 5 0.0000 0.0000 0.0000 0.0000 33.8022 0.0000
# 6 0.0000 0.0000 0.0000 0.0000 0.0000 26.9598
#
#
#
# Elastic Compliance Matrix: (Units=1/GPa)
#
#
# Indices 1 2 3 4 5 6 
#
# 1 0.015141 0.000261 -0.004296 0.000000 0.000000 0.000000
# 2 0.000261 0.019271 -0.007971 0.000000 0.000000 0.000000
# 3 -0.004296 -0.007971 0.016107 0.000000 0.000000 0.000000
# 4 0.000000 0.000000 0.000000 0.036748 0.000000 0.000000
# 5 0.000000 0.000000 0.000000 0.000000 0.029584 0.000000
# 6 0.000000 0.000000 0.000000 0.000000 0.000000 0.037092
#
#
# Mechanical properties :
#
#
# Convention : Reuss Voigt Hill
#
# Bulk Modulus (GPa) = 37.72729 40.03485 38.88107
# Shear Modulus (GPa) = 26.76793 28.06278 27.41535
#
# Velocity S-wave (km/s) = 3.46689 3.54975 3.50857
# Velocity P-wave (km/s) = 5.74161 5.89724 5.81995
#
# Compressibility (1/GPa) = 0.02650601
#
# Stress axis : x y z
#
# Youngs Moduli (GPa) = 66.04757 51.89265 62.08327
#
# Poissons Ratio (x) = -0.01352 0.26668
# Poissons Ratio (y) = -0.01721 0.49489
# Poissons Ratio (z) = 0.28371 0.41365
#
# Static dielectric constant tensor:
#      x y z
#    x 1.842530 0.000000 0.000000 
#    y 0.000000 1.913300 0.000000 
#    z 0.000000 0.000000 1.090500 
# 
# From -- ./inp_files/5900.got.cif
#   From: 2010.05.17/outbox.cif.g08.bks.cpg/sg60_3_cif.got.tgz:5900.got - 2010.06.03 14:59:27.
