data_PCOD9454293
_publ_section_title
;
Structure prediction by ZEFSAII (Michael W. Deem and Ramdas Pophale) SiO2 
 PCOD9454293
Probable space group: P B C N
;
_chemical_formula_sum "Si O2"
_cell_formula_units_Z 64
_cell_length_a 25.858693
_cell_length_b 16.209718
_cell_length_c 9.190606
_cell_angle_alpha 90.000000
_cell_angle_beta 90.000000
_cell_angle_gamma 90.000000
_cell_volume 3852.353908
_symmetry_space_group_name_H-M "P B C N"
_symmetry_group_IT_number 60
_symmetry_cell_setting 'orthorhombic'
loop_
_space_group_symop_operation_xyz
x,y,z
1/2-x,1/2-y,1/2+z
1/2+x,1/2-y,-z
-x,y,1/2-z
-x,-y,-z
1/2+x,1/2+y,1/2-z
1/2-x,1/2+y,z
x,-y,1/2+z
loop_
_atom_site_type_symbol
_atom_site_label
_atom_site_fract_x
_atom_site_fract_y
_atom_site_fract_z
Si Si1 0.647130 0.844324 0.228016
Si Si2 0.546179 0.060498 0.636108
Si Si3 0.713904 0.243852 0.508672
Si Si4 0.300859 0.669674 0.801230
Si Si5 0.773851 0.606996 0.127944
Si Si6 0.527078 0.123687 0.095768
Si Si7 0.738732 0.033143 0.829878
Si Si8 0.370250 0.219350 0.459957
O O1 0.595978 0.897520 0.203534
O O2 0.663762 0.796827 0.081454
O O3 0.692623 0.907834 0.271188
O O4 0.640545 0.783652 0.366555
O O5 0.500000 0.051655 0.750000
O O6 0.520967 0.117666 0.513726
O O7 0.554813 0.966749 0.583124
O O8 0.710996 0.269470 0.338975
O O9 0.761192 0.186848 0.565088
O O10 0.729077 0.327667 0.593705
O O11 0.289437 0.579535 0.734783
O O12 0.354785 0.697960 0.872531
O O13 0.768933 0.559161 0.276941
O O14 0.828689 0.652337 0.103654
O O15 0.766144 0.539004 0.002364
O O16 0.500000 0.135042 0.250000
O O17 0.571531 0.189540 0.065177
#
# Coordination Sequence:
#
# PCOD9454293 Si02
#       8
#     8   8   8   8   8   8   8   8
#     4  10  19  31  47  64  90 123 155 184 229 262
#     4  10  19  34  46  63  93 124 154 197 222 259
#     4   9  18  31  45  65  88 117 148 186 223 269
#     4   9  18  31  45  64  90 115 149 186 224 266
#     4   9  18  30  45  65  91 115 149 183 221 266
#     4  10  21  32  46  65  91 122 160 191 227 256
#     4   9  18  30  44  66  90 117 147 184 220 270
#     4  10  19  32  45  65  91 121 155 190 219 269
#
# _framework density 16.613219000000001
#
# number of rings (size 3 to 8) (size 9 to 14) (size 15 to 20)
#    0.000    2.500    1.250    3.000    1.750    5.000 
#    0.000    0.000    0.000    0.000    0.000    0.000 
#    0.000    2.000    0.000    0.125    0.000    0.125 
#
# Total GULP energy -356369.509604 kJ/mol
# GULP energy per Si atom -5568.273588 kJ/mol
# Density = 1.657541 g / cm^3
# Si number density = 16.613219 Si / 1000 Ang^3
#
#
#
# Elastic Constant Matrix: (Units=GPa)
#
#
# Indices 1 2 3 4 5 6 
#
# 1 56.8442 4.8259 8.6868 0.0000 0.0000 0.0000
# 2 4.8259 6.9538 -0.1870 0.0000 0.0000 0.0000
# 3 8.6868 -0.1870 47.4492 0.0000 0.0000 0.0000
# 4 0.0000 0.0000 0.0000 26.9723 0.0000 0.0000
# 5 0.0000 0.0000 0.0000 0.0000 20.0034 0.0000
# 6 0.0000 0.0000 0.0000 0.0000 0.0000 20.6601
#
#
#
# Elastic Compliance Matrix: (Units=1/GPa)
#
#
# Indices 1 2 3 4 5 6 
#
# 1 0.019284 -0.013479 -0.003584 0.000000 0.000000 0.000000
# 2 -0.013479 0.153242 0.003072 0.000000 0.000000 0.000000
# 3 -0.003584 0.003072 0.021743 0.000000 0.000000 0.000000
# 4 0.000000 0.000000 0.000000 0.037075 0.000000 0.000000
# 5 0.000000 0.000000 0.000000 0.000000 0.049992 0.000000
# 6 0.000000 0.000000 0.000000 0.000000 0.000000 0.048402
#
#
# Mechanical properties :
#
#
# Convention : Reuss Voigt Hill
#
# Bulk Modulus (GPa) = 6.01370 15.32209 10.66789
# Shear Modulus (GPa) = 12.10213 20.05525 16.07869
#
# Velocity S-wave (km/s) = 2.70194 3.47823 3.11436
# Velocity P-wave (km/s) = 3.65536 5.03722 4.40087
#
# Compressibility (1/GPa) = 0.16628710
#
# Stress axis : x y z
#
# Youngs Moduli (GPa) = 51.85665 6.52561 45.99107
#
# Poissons Ratio (x) = 0.08796 0.16481
# Poissons Ratio (y) = 0.69899 -0.14126
# Poissons Ratio (z) = 0.18583 -0.02004
#
# Static dielectric constant tensor:
#      x y z
#    x 1.546930 0.000000 0.000000 
#    y 0.000000 1.584710 0.000000 
#    z 0.000000 0.000000 3.274140 
# 
# From -- ./inp_files/8017.got.cif
#   From: 2010.05.17/outbox.cif.g08.bks.cpg/sg60_5_cif.got.tgz:8017.got - 2010.06.03 14:59:27.
