data_PCOD9454306
_publ_section_title
;
Structure prediction by ZEFSAII (Michael W. Deem and Ramdas Pophale) SiO2 
 PCOD9454306
Probable space group: P B C N
;
_chemical_formula_sum "Si O2"
_cell_formula_units_Z 56
_cell_length_a 18.857799
_cell_length_b 19.214827
_cell_length_c 8.288782
_cell_angle_alpha 90.000000
_cell_angle_beta 90.000000
_cell_angle_gamma 90.000000
_cell_volume 3003.434732
_symmetry_space_group_name_H-M "P B C N"
_symmetry_group_IT_number 60
_symmetry_cell_setting 'orthorhombic'
loop_
_space_group_symop_operation_xyz
x,y,z
1/2-x,1/2-y,1/2+z
1/2+x,1/2-y,-z
-x,y,1/2-z
-x,-y,-z
1/2+x,1/2+y,1/2-z
1/2-x,1/2+y,z
x,-y,1/2+z
loop_
_atom_site_type_symbol
_atom_site_label
_atom_site_fract_x
_atom_site_fract_y
_atom_site_fract_z
Si Si1 0.284087 0.209327 0.656649
Si Si2 0.643051 0.597526 0.115496
Si Si3 0.945273 0.034430 0.624116
Si Si4 0.648609 0.358265 0.242213
Si Si5 0.578204 0.250964 0.679503
Si Si6 0.780758 0.655269 0.207097
Si Si7 0.079244 0.291144 0.689640
O O1 0.231608 0.161244 0.763246
O O2 0.364375 0.210415 0.714049
O O3 0.252512 0.286682 0.675266
O O4 0.278442 0.187292 0.472564
O O5 0.598807 0.532700 0.179548
O O6 0.606488 0.669782 0.167382
O O7 0.722696 0.594766 0.187623
O O8 0.641604 0.603000 0.918228
O O9 0.886122 0.094111 0.603502
O O10 0.000000 0.067944 0.750000
O O11 0.000000 0.000000 0.500000
O O12 0.607678 0.284183 0.245816
O O13 0.500000 0.249988 0.750000
O O14 0.578940 0.218665 0.501883
O O15 0.862664 0.651330 0.257350
O O16 0.000000 0.304182 0.750000
#
# Coordination Sequence:
#
# PCOD9454306 Si02
#       7
#     8   8   8   8   8   8   8
#     4   9  17  32  49  67  95 129 167 208 251 305
#     4   9  19  34  48  67 100 134 170 206 240 295
#     4  12  22  35  49  71 101 136 176 205 241 291
#     4   9  19  34  48  66  99 136 167 204 248 290
#     4  10  19  32  50  75 101 126 167 208 255 302
#     4   9  17  32  49  69  95 130 167 206 255 300
#     4  10  19  31  51  73 100 130 163 208 257 303
#
# _framework density 18.645319000000001
#
# number of rings (size 3 to 8) (size 9 to 14) (size 15 to 20)
#    0.000    2.286    1.429    4.286    2.000    0.000 
#   12.857    0.000    0.000    0.000    0.000    1.000 
#    0.000    6.857    0.000    0.000    0.000    0.000 
#
# Total GULP energy -311981.516284 kJ/mol
# GULP energy per Si atom -5571.098505 kJ/mol
# Density = 1.860288 g / cm^3
# Si number density = 18.645319 Si / 1000 Ang^3
#
#
#
# Elastic Constant Matrix: (Units=GPa)
#
#
# Indices 1 2 3 4 5 6 
#
# 1 154.6555 22.4685 20.2409 0.0000 0.0000 0.0000
# 2 22.4685 28.7622 5.7058 0.0000 0.0000 0.0000
# 3 20.2409 5.7058 30.3997 0.0000 0.0000 0.0000
# 4 0.0000 0.0000 0.0000 11.2240 0.0000 0.0000
# 5 0.0000 0.0000 0.0000 0.0000 29.4667 0.0000
# 6 0.0000 0.0000 0.0000 0.0000 0.0000 26.7624
#
#
#
# Elastic Compliance Matrix: (Units=1/GPa)
#
#
# Indices 1 2 3 4 5 6 
#
# 1 0.007777 -0.005243 -0.004194 0.000000 0.000000 0.000000
# 2 -0.005243 0.039647 -0.003951 0.000000 0.000000 0.000000
# 3 -0.004194 -0.003951 0.036429 0.000000 0.000000 0.000000
# 4 0.000000 0.000000 0.000000 0.089094 0.000000 0.000000
# 5 0.000000 0.000000 0.000000 0.000000 0.033937 0.000000
# 6 0.000000 0.000000 0.000000 0.000000 0.000000 0.037366
#
#
# Mechanical properties :
#
#
# Convention : Reuss Voigt Hill
#
# Bulk Modulus (GPa) = 17.51988 34.51642 26.01815
# Shear Modulus (GPa) = 17.23840 24.51745 20.87793
#
# Velocity S-wave (km/s) = 3.04393 3.63014 3.34988
# Velocity P-wave (km/s) = 4.66592 6.01023 5.38023
#
# Compressibility (1/GPa) = 0.05707802
#
# Stress axis : x y z
#
# Youngs Moduli (GPa) = 128.59178 25.22245 27.45080
#
# Poissons Ratio (x) = 0.13224 0.11512
# Poissons Ratio (y) = 0.67420 0.10845
# Poissons Ratio (z) = 0.53928 0.09964
#
# Static dielectric constant tensor:
#      x y z
#    x 1.701650 0.000000 0.000000 
#    y 0.000000 1.635410 0.000000 
#    z 0.000000 0.000000 1.724360 
# 
# From -- ./inp_files/6972.got.cif
#   From: 2010.05.17/outbox.cif.g08.bks.cpg/sg60_4_cif.got.tgz:6972.got - 2010.06.03 14:59:27.
