data_PCOD9454730
_publ_section_title
;
Structure prediction by ZEFSAII (Michael W. Deem and Ramdas Pophale) SiO2 
 PCOD9454730
Probable space group: P B C N
;
_chemical_formula_sum "Si O2"
_cell_formula_units_Z 40
_cell_length_a 5.565216
_cell_length_b 13.786506
_cell_length_c 20.264392
_cell_angle_alpha 90.000000
_cell_angle_beta 90.000000
_cell_angle_gamma 90.000000
_cell_volume 1554.783121
_symmetry_space_group_name_H-M "P B C N"
_symmetry_group_IT_number 60
_symmetry_cell_setting 'orthorhombic'
loop_
_space_group_symop_operation_xyz
x,y,z
1/2-x,1/2-y,1/2+z
1/2+x,1/2-y,-z
-x,y,1/2-z
-x,-y,-z
1/2+x,1/2+y,1/2-z
1/2-x,1/2+y,z
x,-y,1/2+z
loop_
_atom_site_type_symbol
_atom_site_label
_atom_site_fract_x
_atom_site_fract_y
_atom_site_fract_z
Si Si1 0.022016 0.741171 0.418420
Si Si2 0.246277 0.023593 0.738882
Si Si3 0.750082 0.810359 0.713120
Si Si4 0.277952 0.401790 0.008019
Si Si5 0.686094 0.566849 0.404724
O O1 0.215284 0.733388 0.359688
O O2 0.108701 0.684493 0.483767
O O3 0.953292 0.848945 0.438932
O O4 0.796023 0.674046 0.397805
O O5 0.500000 0.073942 0.750000
O O6 0.000000 0.080256 0.750000
O O7 0.249483 0.929068 0.787068
O O8 0.219368 0.980797 0.666037
O O9 0.500000 0.788017 0.750000
O O10 0.000000 0.786248 0.750000
O O11 0.174089 0.493885 0.046268
O O12 0.432066 0.429489 0.942982
#
# Coordination Sequence:
#
# PCOD9454730 Si02
#       5
#     8   8   8   8   8
#     4  12  22  42  68  99 143 178 238 294 350 437
#     4  10  19  37  66  95 125 178 218 273 349 408
#     4  10  20  36  67 100 127 184 222 278 354 416
#     4  11  25  40  67 100 135 184 233 286 364 419
#     4  11  23  43  65  97 137 181 234 289 355 435
#
# _framework density 25.727060999999999
#
# number of rings (size 3 to 8) (size 9 to 14) (size 15 to 20)
#    0.000    1.200    6.000    3.000    0.000    0.000 
#    0.000    1.000    0.000    3.600    0.000    0.000 
#    0.000    0.000    0.000    0.000    0.000    0.000 
#
# Total GULP energy -223599.303512 kJ/mol
# GULP energy per Si atom -5589.982588 kJ/mol
# Density = 2.566850 g / cm^3
# Si number density = 25.727061 Si / 1000 Ang^3
#
#
#
# Elastic Constant Matrix: (Units=GPa)
#
#
# Indices 1 2 3 4 5 6 
#
# 1 149.2141 8.1128 35.6825 0.0000 0.0000 0.0000
# 2 8.1128 94.6902 2.0060 0.0000 0.0000 0.0000
# 3 35.6825 2.0060 105.0901 0.0000 0.0000 0.0000
# 4 0.0000 0.0000 0.0000 10.2048 0.0000 0.0000
# 5 0.0000 0.0000 0.0000 0.0000 41.3159 0.0000
# 6 0.0000 0.0000 0.0000 0.0000 0.0000 -9.8993
#
#
#
# Elastic Compliance Matrix: (Units=1/GPa)
#
#
# Indices 1 2 3 4 5 6 
#
# 1 0.007325 -0.000575 -0.002476 0.000000 0.000000 0.000000
# 2 -0.000575 0.010610 -0.000007 0.000000 0.000000 0.000000
# 3 -0.002476 -0.000007 0.010357 0.000000 0.000000 0.000000
# 4 0.000000 0.000000 0.000000 0.097993 0.000000 0.000000
# 5 0.000000 0.000000 0.000000 0.000000 0.024204 0.000000
# 6 0.000000 0.000000 0.000000 0.000000 0.000000 -0.101017
#
#
# Mechanical properties :
#
#
# Convention : Reuss Voigt Hill
#
# Bulk Modulus (GPa) = 45.09643 48.95522 47.02583
# Shear Modulus (GPa) = 79.38977 28.53715 53.96346
#
# Velocity S-wave (km/s) = 5.56107 3.33412 4.58486
# Velocity P-wave (km/s) = 7.66817 5.82167 6.80781
#
# Compressibility (1/GPa) = 0.02217470
#
# Stress axis : x y z
#
# Youngs Moduli (GPa) = 136.51486 94.24910 96.55703
#
# Poissons Ratio (x) = 0.05421 0.23910
# Poissons Ratio (y) = 0.07852 0.00070
# Poissons Ratio (z) = 0.33804 0.00068
#
# Static dielectric constant tensor:
#      x y z
#    x 2.178110 0.000000 0.000000 
#    y 0.000000 1.982880 0.000000 
#    z 0.000000 0.000000 2.013520 
# 
# From -- ./inp_files/18529.got.cif
#   From: 2010.05.17/outbox.cif.g08.bks.cpg/sg60_10_cif.got.tgz:18529.got - 2010.06.03 14:59:27.
