data_PCOD9454919
_publ_section_title
;
Structure prediction by ZEFSAII (Michael W. Deem and Ramdas Pophale) SiO2 
 PCOD9454919
Probable space group: P B C N
;
_chemical_formula_sum "Si O2"
_cell_formula_units_Z 48
_cell_length_a 7.013237
_cell_length_b 23.739272
_cell_length_c 12.408818
_cell_angle_alpha 90.000000
_cell_angle_beta 90.000000
_cell_angle_gamma 90.000000
_cell_volume 2065.933446
_symmetry_space_group_name_H-M "P B C N"
_symmetry_group_IT_number 60
_symmetry_cell_setting 'orthorhombic'
loop_
_space_group_symop_operation_xyz
x,y,z
1/2-x,1/2-y,1/2+z
1/2+x,1/2-y,-z
-x,y,1/2-z
-x,-y,-z
1/2+x,1/2+y,1/2-z
1/2-x,1/2+y,z
x,-y,1/2+z
loop_
_atom_site_type_symbol
_atom_site_label
_atom_site_fract_x
_atom_site_fract_y
_atom_site_fract_z
Si Si1 0.804338 0.529429 0.551116
Si Si2 0.854840 0.293295 0.019110
Si Si3 0.291956 0.669887 0.555445
Si Si4 0.784418 0.361345 0.210791
Si Si5 0.254318 0.088375 0.367879
Si Si6 0.784934 0.608750 0.370662
O O1 0.799391 0.580909 0.639095
O O2 0.713883 0.476698 0.610368
O O3 0.712527 0.558683 0.447248
O O4 0.000000 0.500000 0.500000
O O5 0.743363 0.309713 0.128814
O O6 0.065819 0.317231 0.041839
O O7 0.875246 0.229988 0.979251
O O8 0.762162 0.330947 0.925702
O O9 0.328395 0.644658 0.675266
O O10 0.334485 0.624495 0.463643
O O11 0.000000 0.354230 0.250000
O O12 0.204949 0.106350 0.247955
O O13 0.485040 0.098304 0.369554
#
# Coordination Sequence:
#
# PCOD9454919 Si02
#       6
#     8   8   8   8   8   8
#     4   9  16  25  44  68  99 131 154 198 262 305
#     4   9  19  34  48  70  99 134 164 210 244 292
#     4  10  20  33  50  72 103 131 171 203 249 297
#     4   9  18  30  47  70 101 132 163 204 252 303
#     4   9  17  25  44  68  96 126 158 198 250 300
#     4   8  16  28  40  66  95 125 160 197 243 294
#
# _framework density 23.23405
#
# number of rings (size 3 to 8) (size 9 to 14) (size 15 to 20)
#    0.000    3.000    0.000    3.000    9.333    0.000 
#    0.000    0.000    0.000    0.000    0.000    4.667 
#   10.000    0.000    0.000    0.000    0.000    0.000 
#
# Total GULP energy -267531.485734 kJ/mol
# GULP energy per Si atom -5573.572619 kJ/mol
# Density = 2.318117 g / cm^3
# Si number density = 23.234050 Si / 1000 Ang^3
#
#
#
# Elastic Constant Matrix: (Units=GPa)
#
#
# Indices 1 2 3 4 5 6 
#
# 1 75.0731 17.9125 21.4022 0.0000 0.0000 0.0000
# 2 17.9125 156.2723 107.8489 0.0000 0.0000 0.0000
# 3 21.4022 107.8489 247.5132 0.0000 0.0000 0.0000
# 4 0.0000 0.0000 0.0000 19.5654 0.0000 0.0000
# 5 0.0000 0.0000 0.0000 0.0000 0.0523 0.0000
# 6 0.0000 0.0000 0.0000 0.0000 0.0000 -3.7813
#
#
#
# Elastic Compliance Matrix: (Units=1/GPa)
#
#
# Indices 1 2 3 4 5 6 
#
# 1 0.013784 -0.001083 -0.000720 0.000000 0.000000 0.000000
# 2 -0.001083 0.009236 -0.003931 0.000000 0.000000 0.000000
# 3 -0.000720 -0.003931 0.005815 0.000000 0.000000 0.000000
# 4 0.000000 0.000000 0.000000 0.051111 0.000000 0.000000
# 5 0.000000 0.000000 0.000000 0.000000 19.111342 0.000000
# 6 0.000000 0.000000 0.000000 0.000000 0.000000 -0.264457
#
#
# Mechanical properties :
#
#
# Convention : Reuss Voigt Hill
#
# Bulk Modulus (GPa) = 57.57852 85.90953 71.74402
# Shear Modulus (GPa) = 0.26393 25.28028 12.77211
#
# Velocity S-wave (km/s) = 0.33741 3.30217 2.34714
# Velocity P-wave (km/s) = 4.99875 7.18297 6.18800
#
# Compressibility (1/GPa) = 0.01736759
#
# Stress axis : x y z
#
# Youngs Moduli (GPa) = 72.54778 108.27224 171.96365
#
# Poissons Ratio (x) = 0.11727 0.12380
# Poissons Ratio (y) = 0.07858 0.67594
# Poissons Ratio (z) = 0.05223 0.42559
#
# Static dielectric constant tensor:
#      x y z
#    x 2.016320 0.000000 0.000000 
#    y 0.000000 1.837610 0.000000 
#    z 0.000000 0.000000 1.892090 
# 
# From -- ./inp_files/10070.got.cif
#   From: 2010.05.17/outbox.cif.g08.bks.cpg/sg60_6_cif.got.tgz:10070.got - 2010.06.03 14:59:27.
