data_PCOD9454492
_publ_section_title
;
Structure prediction by ZEFSAII (Michael W. Deem and Ramdas Pophale) SiO2 
 PCOD9454492
Probable space group: P B C N
;
_chemical_formula_sum "Si O2"
_cell_formula_units_Z 56
_cell_length_a 19.084779
_cell_length_b 9.650585
_cell_length_c 17.020406
_cell_angle_alpha 90.000000
_cell_angle_beta 90.000000
_cell_angle_gamma 90.000000
_cell_volume 3134.806156
_symmetry_space_group_name_H-M "P B C N"
_symmetry_group_IT_number 60
_symmetry_cell_setting 'orthorhombic'
loop_
_space_group_symop_operation_xyz
x,y,z
1/2-x,1/2-y,1/2+z
1/2+x,1/2-y,-z
-x,y,1/2-z
-x,-y,-z
1/2+x,1/2+y,1/2-z
1/2-x,1/2+y,z
x,-y,1/2+z
loop_
_atom_site_type_symbol
_atom_site_label
_atom_site_fract_x
_atom_site_fract_y
_atom_site_fract_z
Si Si1 0.771311 0.849019 0.969121
Si Si2 0.151929 0.039879 0.179371
Si Si3 0.303535 0.024014 0.261874
Si Si4 0.860925 0.732002 0.362964
Si Si5 0.075458 0.310639 0.208692
Si Si6 0.696734 0.081598 0.054240
Si Si7 0.433741 0.009393 0.554787
O O1 0.824462 0.878942 0.899145
O O2 0.703201 0.785279 0.924842
O O3 0.794059 0.741807 0.035029
O O4 0.756446 0.993520 0.011093
O O5 0.224114 0.008761 0.228117
O O6 0.098702 0.149972 0.217466
O O7 0.122006 0.890547 0.154968
O O8 0.334254 0.156705 0.215969
O O9 0.304039 0.047724 0.354496
O O10 0.357487 0.899226 0.241084
O O11 0.921222 0.634100 0.398256
O O12 0.066029 0.369112 0.119892
O O13 0.000000 0.335066 0.250000
O O14 0.629179 0.033606 0.005805
O O15 0.500000 0.000000 0.500000
#
# Coordination Sequence:
#
# PCOD9454492 Si02
#       7
#     8   8   8   8   8   8   8
#     4  10  19  34  57  85 120 148 196 246 304 349
#     4  11  20  39  60  88 123 163 198 253 314 362
#     4  10  22  36  62  91 123 161 211 245 300 380
#     4   9  20  37  59  84 115 162 195 244 301 364
#     4  11  23  41  61  88 124 165 201 254 311 374
#     4  11  21  34  58  92 119 150 198 259 300 350
#     4  10  21  41  62  82 114 162 207 243 301 374
#
# _framework density 17.863942999999999
#
# number of rings (size 3 to 8) (size 9 to 14) (size 15 to 20)
#    0.000    1.714    2.857    3.429    4.000    0.000 
#    0.000    5.000    0.000    0.000    0.000    0.000 
#    0.000    0.000    0.000    0.000    0.000    0.000 
#
# Total GULP energy -312107.011059 kJ/mol
# GULP energy per Si atom -5573.339483 kJ/mol
# Density = 1.782328 g / cm^3
# Si number density = 17.863943 Si / 1000 Ang^3
#
#
#
# Elastic Constant Matrix: (Units=GPa)
#
#
# Indices 1 2 3 4 5 6 
#
# 1 63.1066 29.3143 28.3546 0.0000 0.0000 0.0000
# 2 29.3143 111.2609 8.4678 0.0000 0.0000 0.0000
# 3 28.3546 8.4678 103.7121 0.0000 0.0000 0.0000
# 4 0.0000 0.0000 0.0000 3.7891 0.0000 0.0000
# 5 0.0000 0.0000 0.0000 0.0000 28.4227 0.0000
# 6 0.0000 0.0000 0.0000 0.0000 0.0000 15.1447
#
#
#
# Elastic Compliance Matrix: (Units=1/GPa)
#
#
# Indices 1 2 3 4 5 6 
#
# 1 0.020508 -0.005008 -0.005198 0.000000 0.000000 0.000000
# 2 -0.005008 0.010267 0.000531 0.000000 0.000000 0.000000
# 3 -0.005198 0.000531 0.011020 0.000000 0.000000 0.000000
# 4 0.000000 0.000000 0.000000 0.263914 0.000000 0.000000
# 5 0.000000 0.000000 0.000000 0.000000 0.035183 0.000000
# 6 0.000000 0.000000 0.000000 0.000000 0.000000 0.066030
#
#
# Mechanical properties :
#
#
# Convention : Reuss Voigt Hill
#
# Bulk Modulus (GPa) = 44.55334 45.59479 45.07407
# Shear Modulus (GPa) = 11.52731 23.60082 17.56407
#
# Velocity S-wave (km/s) = 2.54300 3.63870 3.13903
# Velocity P-wave (km/s) = 5.79802 6.57512 6.19876
#
# Compressibility (1/GPa) = 0.02244500
#
# Stress axis : x y z
#
# Youngs Moduli (GPa) = 48.76173 97.40063 90.74550
#
# Poissons Ratio (x) = 0.48775 0.47169
# Poissons Ratio (y) = 0.24418 -0.04817
# Poissons Ratio (z) = 0.25346 -0.05170
#
# Static dielectric constant tensor:
#      x y z
#    x 1.601990 0.000000 0.000000 
#    y 0.000000 1.619940 0.000000 
#    z 0.000000 0.000000 1.592890 
# 
# From -- ./inp_files/17705.got.cif
#   From: 2010.05.17/outbox.cif.g08.bks.cpg/sg60_9_cif.got.tgz:17705.got - 2010.06.03 14:59:27.
