data_PCOD9454704
_publ_section_title
;
Structure prediction by ZEFSAII (Michael W. Deem and Ramdas Pophale) SiO2 
 PCOD9454704
Probable space group: P B C N
;
_chemical_formula_sum "Si O2"
_cell_formula_units_Z 40
_cell_length_a 6.450027
_cell_length_b 21.581294
_cell_length_c 14.357260
_cell_angle_alpha 90.000000
_cell_angle_beta 90.000000
_cell_angle_gamma 90.000000
_cell_volume 1998.529573
_symmetry_space_group_name_H-M "P B C N"
_symmetry_group_IT_number 60
_symmetry_cell_setting 'orthorhombic'
loop_
_space_group_symop_operation_xyz
x,y,z
1/2-x,1/2-y,1/2+z
1/2+x,1/2-y,-z
-x,y,1/2-z
-x,-y,-z
1/2+x,1/2+y,1/2-z
1/2-x,1/2+y,z
x,-y,1/2+z
loop_
_atom_site_type_symbol
_atom_site_label
_atom_site_fract_x
_atom_site_fract_y
_atom_site_fract_z
Si Si1 0.311608 0.546901 0.011785
Si Si2 0.040618 0.750033 0.852824
Si Si3 0.137167 0.357643 0.842270
Si Si4 0.043519 0.495278 0.852994
Si Si5 0.723414 0.818367 0.976321
O O1 0.162828 0.540569 0.921765
O O2 0.500000 0.500000 0.000000
O O3 0.171810 0.524867 0.098712
O O4 0.361620 0.619287 0.021511
O O5 0.165971 0.813895 0.837080
O O6 0.000000 0.723371 0.750000
O O7 0.834596 0.768110 0.910493
O O8 0.177898 0.708107 0.921664
O O9 0.000000 0.347525 0.750000
O O10 0.174999 0.431238 0.846452
O O11 0.993292 0.338532 0.929249
O O12 0.000000 0.519149 0.750000
#
# Coordination Sequence:
#
# PCOD9454704 Si02
#       5
#     8   8   8   8   8
#     4  10  21  39  60  87 118 158 200 245 304 359
#     4  12  23  37  62  90 119 164 204 246 308 366
#     4  10  19  37  60  89 116 152 205 250 295 357
#     4   9  20  37  61  85 117 152 196 252 298 351
#     4  11  23  38  60  88 125 157 199 256 298 360
#
# _framework density 20.014716
#
# number of rings (size 3 to 8) (size 9 to 14) (size 15 to 20)
#    0.000    1.600    4.000    1.200    0.000    1.600 
#    0.000    0.000    8.800    0.000    0.000    0.000 
#    0.000    0.000    0.000    0.000    0.000    0.000 
#
# Total GULP energy -223384.262349 kJ/mol
# GULP energy per Si atom -5584.606559 kJ/mol
# Density = 1.996916 g / cm^3
# Si number density = 20.014716 Si / 1000 Ang^3
#
#
#
# Elastic Constant Matrix: (Units=GPa)
#
#
# Indices 1 2 3 4 5 6 
#
# 1 25.0548 4.8424 17.9591 0.0000 0.0000 0.0000
# 2 4.8424 39.1652 23.7066 0.0000 0.0000 0.0000
# 3 17.9591 23.7066 162.4194 0.0000 0.0000 0.0000
# 4 0.0000 0.0000 0.0000 20.4069 0.0000 0.0000
# 5 0.0000 0.0000 0.0000 0.0000 26.6016 0.0000
# 6 0.0000 0.0000 0.0000 0.0000 0.0000 32.9369
#
#
#
# Elastic Compliance Matrix: (Units=1/GPa)
#
#
# Indices 1 2 3 4 5 6 
#
# 1 0.043609 -0.002713 -0.004426 0.000000 0.000000 0.000000
# 2 -0.002713 0.028176 -0.003813 0.000000 0.000000 0.000000
# 3 -0.004426 -0.003813 0.007203 0.000000 0.000000 0.000000
# 4 0.000000 0.000000 0.000000 0.049003 0.000000 0.000000
# 5 0.000000 0.000000 0.000000 0.000000 0.037592 0.000000
# 6 0.000000 0.000000 0.000000 0.000000 0.000000 0.030361
#
#
# Mechanical properties :
#
#
# Convention : Reuss Voigt Hill
#
# Bulk Modulus (GPa) = 17.51764 35.51729 26.51746
# Shear Modulus (GPa) = 21.10812 27.99781 24.55297
#
# Velocity S-wave (km/s) = 3.25103 3.74419 3.50629
# Velocity P-wave (km/s) = 4.78159 6.03954 5.44700
#
# Compressibility (1/GPa) = 0.05708532
#
# Stress axis : x y z
#
# Youngs Moduli (GPa) = 22.93082 35.49112 138.83533
#
# Poissons Ratio (x) = 0.09628 0.61449
# Poissons Ratio (y) = 0.06221 0.52932
# Poissons Ratio (z) = 0.10149 0.13531
#
# Static dielectric constant tensor:
#      x y z
#    x 1.710380 0.000000 0.000000 
#    y 0.000000 1.705210 0.000000 
#    z 0.000000 0.000000 1.711140 
# 
# From -- ./inp_files/13806.got.cif
#   From: 2010.05.17/outbox.cif.g08.bks.cpg/sg60_7_cif.got.tgz:13806.got - 2010.06.03 14:59:27.
