data_PCOD9454335
_publ_section_title
;
Structure prediction by ZEFSAII (Michael W. Deem and Ramdas Pophale) SiO2 
 PCOD9454335
Probable space group: P B C N
;
_chemical_formula_sum "Si O2"
_cell_formula_units_Z 60
_cell_length_a 16.695765
_cell_length_b 19.896125
_cell_length_c 10.395556
_cell_angle_alpha 90.000000
_cell_angle_beta 90.000000
_cell_angle_gamma 90.000000
_cell_volume 3453.206473
_symmetry_space_group_name_H-M "P B C N"
_symmetry_group_IT_number 60
_symmetry_cell_setting 'orthorhombic'
loop_
_space_group_symop_operation_xyz
x,y,z
1/2-x,1/2-y,1/2+z
1/2+x,1/2-y,-z
-x,y,1/2-z
-x,-y,-z
1/2+x,1/2+y,1/2-z
1/2-x,1/2+y,z
x,-y,1/2+z
loop_
_atom_site_type_symbol
_atom_site_label
_atom_site_fract_x
_atom_site_fract_y
_atom_site_fract_z
Si Si1 0.500000 0.100883 0.750000
Si Si2 0.650067 0.822902 0.203436
Si Si3 0.794554 0.381123 0.475173
Si Si4 0.782195 0.395858 0.959291
Si Si5 0.845275 0.985187 0.437859
Si Si6 0.913068 0.491257 0.438957
Si Si7 0.586146 0.447171 0.698310
Si Si8 0.213321 0.173690 0.284486
O O1 0.440904 0.151744 0.825371
O O2 0.564464 0.049313 0.810300
O O3 0.672921 0.844326 0.348951
O O4 0.667885 0.743970 0.202338
O O5 0.702557 0.860189 0.095154
O O6 0.715320 0.422560 0.436032
O O7 0.858380 0.438320 0.516882
O O8 0.773015 0.334640 0.594839
O O9 0.709624 0.449433 0.967290
O O10 0.860548 0.441615 0.924641
O O11 0.760623 0.342174 0.848014
O O12 0.907759 0.974073 0.553182
O O13 0.884214 0.996984 0.299735
O O14 0.000000 0.500000 0.500000
O O15 0.500000 0.425490 0.750000
O O16 0.648522 0.386006 0.705785
#
# Coordination Sequence:
#
# PCOD9454335 Si02
#       8
#     4   8   8   8   8   8   8   8
#     4  10  22  32  54  84 110 146 170 238 272 328
#     4  11  20  36  53  74 108 142 185 204 267 316
#     4   9  20  34  53  77 105 137 172 222 260 317
#     4  10  20  34  57  79 104 141 175 225 262 320
#     4   9  18  33  52  78 102 125 175 214 272 306
#     4  10  19  33  54  84 113 133 175 225 289 320
#     4  10  19  32  51  76 101 134 165 221 262 305
#     4  10  22  35  52  76 105 144 184 212 252 319
#
# _framework density 17.375154999999999
#
# number of rings (size 3 to 8) (size 9 to 14) (size 15 to 20)
#    0.000    2.133    1.333    2.000    2.800    3.200 
#    0.000    0.000    0.000    0.000    0.000    0.000 
#    0.000    0.000    0.000    0.000    0.000    0.000 
#
# Total GULP energy -334020.248744 kJ/mol
# GULP energy per Si atom -5567.004146 kJ/mol
# Density = 1.733561 g / cm^3
# Si number density = 17.375155 Si / 1000 Ang^3
#
#
#
# Elastic Constant Matrix: (Units=GPa)
#
#
# Indices 1 2 3 4 5 6 
#
# 1 55.4409 2.6203 7.0627 0.0000 0.0000 0.0000
# 2 2.6203 62.8173 17.6590 0.0000 0.0000 0.0000
# 3 7.0627 17.6590 49.8833 0.0000 0.0000 0.0000
# 4 0.0000 0.0000 0.0000 23.3509 0.0000 0.0000
# 5 0.0000 0.0000 0.0000 0.0000 26.8622 0.0000
# 6 0.0000 0.0000 0.0000 0.0000 0.0000 21.5793
#
#
#
# Elastic Compliance Matrix: (Units=1/GPa)
#
#
# Indices 1 2 3 4 5 6 
#
# 1 0.018369 -0.000039 -0.002587 0.000000 0.000000 0.000000
# 2 -0.000039 0.017679 -0.006253 0.000000 0.000000 0.000000
# 3 -0.002587 -0.006253 0.022627 0.000000 0.000000 0.000000
# 4 0.000000 0.000000 0.000000 0.042825 0.000000 0.000000
# 5 0.000000 0.000000 0.000000 0.000000 0.037227 0.000000
# 6 0.000000 0.000000 0.000000 0.000000 0.000000 0.046341
#
#
# Mechanical properties :
#
#
# Convention : Reuss Voigt Hill
#
# Bulk Modulus (GPa) = 24.44011 24.75841 24.59926
# Shear Modulus (GPa) = 23.09866 23.74510 23.42188
#
# Velocity S-wave (km/s) = 3.65006 3.70078 3.67551
# Velocity P-wave (km/s) = 5.64452 5.70450 5.67459
#
# Compressibility (1/GPa) = 0.04091634
#
# Stress axis : x y z
#
# Youngs Moduli (GPa) = 54.44070 56.56556 44.19574
#
# Poissons Ratio (x) = 0.00220 0.11433
# Poissons Ratio (y) = 0.00212 0.27635
# Poissons Ratio (z) = 0.14083 0.35369
#
# Static dielectric constant tensor:
#      x y z
#    x 1.616350 0.000000 0.000000 
#    y 0.000000 1.595310 0.000000 
#    z 0.000000 0.000000 1.226390 
# 
# From -- ./inp_files/12100.got.cif
#   From: 2010.05.17/outbox.cif.g08.bks.cpg/sg60_7_cif.got.tgz:12100.got - 2010.06.03 14:59:27.
