data_PCOD9454414
_publ_section_title
;
Structure prediction by ZEFSAII (Michael W. Deem and Ramdas Pophale) SiO2 
 PCOD9454414
Probable space group: P B C N
;
_chemical_formula_sum "Si O2"
_cell_formula_units_Z 40
_cell_length_a 4.922960
_cell_length_b 26.795861
_cell_length_c 13.921306
_cell_angle_alpha 90.000000
_cell_angle_beta 90.000000
_cell_angle_gamma 90.000000
_cell_volume 1836.428411
_symmetry_space_group_name_H-M "P B C N"
_symmetry_group_IT_number 60
_symmetry_cell_setting 'orthorhombic'
loop_
_space_group_symop_operation_xyz
x,y,z
1/2-x,1/2-y,1/2+z
1/2+x,1/2-y,-z
-x,y,1/2-z
-x,-y,-z
1/2+x,1/2+y,1/2-z
1/2-x,1/2+y,z
x,-y,1/2+z
loop_
_atom_site_type_symbol
_atom_site_label
_atom_site_fract_x
_atom_site_fract_y
_atom_site_fract_z
Si Si1 0.203493 0.742021 0.433042
Si Si2 0.161526 0.139480 0.473503
Si Si3 0.746329 0.475991 0.557283
Si Si4 0.000000 0.982051 0.250000
Si Si5 0.500000 0.077324 0.750000
Si Si6 0.341522 0.844673 0.399133
O O1 0.402644 0.754550 0.523726
O O2 0.280364 0.686027 0.402017
O O3 0.258148 0.789332 0.365066
O O4 0.245339 0.084096 0.444893
O O5 0.351511 0.154459 0.563388
O O6 0.855350 0.141357 0.512282
O O7 0.500000 0.500000 0.500000
O O8 0.674975 0.490458 0.667561
O O9 0.000000 0.500000 0.500000
O O10 0.747764 0.952483 0.299771
O O11 0.667661 0.112279 0.678291
#
# Coordination Sequence:
#
# PCOD9454414 Si02
#       6
#     8   8   8   4   4   8
#     4   8  16  30  51  77 104 134 180 230 277 341
#     4  10  19  35  56  78 109 148 189 232 282 345
#     4  12  24  40  61  85 117 160 202 243 295 354
#     4  12  26  40  57  88 119 152 202 250 292 352
#     4  12  22  36  55  80 119 148 184 250 298 340
#     4  10  19  33  55  83 108 144 186 230 290 349
#
# _framework density 21.781407999999999
#
# number of rings (size 3 to 8) (size 9 to 14) (size 15 to 20)
#    0.000    1.600    0.000    7.200    0.000    0.000 
#    0.000    1.000    0.000    0.000    0.000   16.800 
#    0.000    0.000    0.000    0.000    0.000    0.000 
#
# Total GULP energy -222902.922399 kJ/mol
# GULP energy per Si atom -5572.573060 kJ/mol
# Density = 2.173183 g / cm^3
# Si number density = 21.781408 Si / 1000 Ang^3
#
#
#
# Elastic Constant Matrix: (Units=GPa)
#
#
# Indices 1 2 3 4 5 6 
#
# 1 129.1629 45.4724 17.2717 0.0000 0.0000 0.0000
# 2 45.4724 193.6619 35.6135 0.0000 0.0000 0.0000
# 3 17.2717 35.6135 49.6201 0.0000 0.0000 0.0000
# 4 0.0000 0.0000 0.0000 11.4634 0.0000 0.0000
# 5 0.0000 0.0000 0.0000 0.0000 21.9798 0.0000
# 6 0.0000 0.0000 0.0000 0.0000 0.0000 32.1983
#
#
#
# Elastic Compliance Matrix: (Units=1/GPa)
#
#
# Indices 1 2 3 4 5 6 
#
# 1 0.008573 -0.001687 -0.001773 0.000000 0.000000 0.000000
# 2 -0.001687 0.006281 -0.003921 0.000000 0.000000 0.000000
# 3 -0.001773 -0.003921 0.023584 0.000000 0.000000 0.000000
# 4 0.000000 0.000000 0.000000 0.087234 0.000000 0.000000
# 5 0.000000 0.000000 0.000000 0.000000 0.045496 0.000000
# 6 0.000000 0.000000 0.000000 0.000000 0.000000 0.031058
#
#
# Mechanical properties :
#
#
# Convention : Reuss Voigt Hill
#
# Bulk Modulus (GPa) = 42.23630 63.24002 52.73816
# Shear Modulus (GPa) = 22.23404 31.40079 26.81742
#
# Velocity S-wave (km/s) = 3.19843 3.80100 3.51266
# Velocity P-wave (km/s) = 5.75092 6.95417 6.38097
#
# Compressibility (1/GPa) = 0.02367632
#
# Stress axis : x y z
#
# Youngs Moduli (GPa) = 116.64279 159.21769 42.40103
#
# Poissons Ratio (x) = 0.26858 0.07520
# Poissons Ratio (y) = 0.19676 0.16624
# Poissons Ratio (z) = 0.20686 0.62424
#
# Static dielectric constant tensor:
#      x y z
#    x 1.866310 0.000000 0.000000 
#    y 0.000000 1.927970 0.000000 
#    z 0.000000 0.000000 1.827330 
# 
# From -- ./inp_files/13863.got.cif
#   From: 2010.05.17/outbox.cif.g08.bks.cpg/sg60_7_cif.got.tgz:13863.got - 2010.06.03 14:59:27.
