data_PCOD9454129
_publ_section_title
;
Structure prediction by ZEFSAII (Michael W. Deem and Ramdas Pophale) SiO2 
 PCOD9454129
Probable space group: P B C N
;
_chemical_formula_sum "Si O2"
_cell_formula_units_Z 64
_cell_length_a 18.874851
_cell_length_b 11.784974
_cell_length_c 12.450810
_cell_angle_alpha 90.000000
_cell_angle_beta 90.000000
_cell_angle_gamma 90.000000
_cell_volume 2769.553548
_symmetry_space_group_name_H-M "P B C N"
_symmetry_group_IT_number 60
_symmetry_cell_setting 'orthorhombic'
loop_
_space_group_symop_operation_xyz
x,y,z
1/2-x,1/2-y,1/2+z
1/2+x,1/2-y,-z
-x,y,1/2-z
-x,-y,-z
1/2+x,1/2+y,1/2-z
1/2-x,1/2+y,z
x,-y,1/2+z
loop_
_atom_site_type_symbol
_atom_site_label
_atom_site_fract_x
_atom_site_fract_y
_atom_site_fract_z
Si Si1 0.087249 0.710440 0.456921
Si Si2 0.324575 0.561721 0.902258
Si Si3 0.070812 0.712639 0.695472
Si Si4 0.775635 0.298058 0.245885
Si Si5 0.047905 0.201801 0.644201
Si Si6 0.250054 0.025470 0.604969
Si Si7 0.341641 0.130223 0.245835
Si Si8 0.896166 0.966078 0.796805
O O1 0.134830 0.825910 0.447572
O O2 0.088634 0.664385 0.577752
O O3 0.113471 0.628169 0.358577
O O4 0.005162 0.747883 0.442529
O O5 0.264493 0.609220 0.823591
O O6 0.383551 0.498334 0.828666
O O7 0.276641 0.490362 0.984107
O O8 0.140969 0.702928 0.768317
O O9 0.064403 0.849286 0.683047
O O10 0.000000 0.666233 0.750000
O O11 0.757145 0.341991 0.365921
O O12 0.732817 0.185766 0.220292
O O13 0.114726 0.279491 0.673332
O O14 0.000000 0.205292 0.750000
O O15 0.070375 0.071075 0.637848
O O16 0.318564 0.969042 0.663553
O O17 0.183091 0.961600 0.658698
#
# Coordination Sequence:
#
# PCOD9454129 Si02
#       8
#     8   8   8   8   8   8   8   8
#     4  10  21  38  63  88 126 161 203 256 309 373
#     4  10  20  38  62  90 122 159 200 257 315 365
#     4  12  26  40  56  89 130 167 202 252 314 373
#     4  10  22  42  58  85 129 157 203 265 293 369
#     4  10  18  35  60  90 125 158 198 251 308 368
#     4  11  21  38  64  93 118 158 214 256 306 361
#     4  10  19  38  64  89 119 158 208 253 303 369
#     4  11  20  36  58  90 126 158 193 256 315 367
#
# _framework density 23.108416999999999
#
# number of rings (size 3 to 8) (size 9 to 14) (size 15 to 20)
#    0.000    1.500    7.500    0.375    0.000    4.500 
#    2.250    1.875    0.000    2.250    0.000    0.000 
#    0.000    0.000    0.000    0.000    0.000    0.000 
#
# Total GULP energy -356586.094316 kJ/mol
# GULP energy per Si atom -5571.657724 kJ/mol
# Density = 2.305582 g / cm^3
# Si number density = 23.108417 Si / 1000 Ang^3
#
#
#
# Elastic Constant Matrix: (Units=GPa)
#
#
# Indices 1 2 3 4 5 6 
#
# 1 129.0547 5.0813 28.6473 0.0000 0.0000 0.0000
# 2 5.0813 27.0960 8.9492 0.0000 0.0000 0.0000
# 3 28.6473 8.9492 88.2744 0.0000 0.0000 0.0000
# 4 0.0000 0.0000 0.0000 -0.2111 0.0000 0.0000
# 5 0.0000 0.0000 0.0000 0.0000 26.2555 0.0000
# 6 0.0000 0.0000 0.0000 0.0000 0.0000 20.0666
#
#
#
# Elastic Compliance Matrix: (Units=1/GPa)
#
#
# Indices 1 2 3 4 5 6 
#
# 1 0.008363 -0.000695 -0.002643 0.000000 0.000000 0.000000
# 2 -0.000695 0.038242 -0.003651 0.000000 0.000000 0.000000
# 3 -0.002643 -0.003651 0.012556 0.000000 0.000000 0.000000
# 4 0.000000 0.000000 0.000000 -4.737874 0.000000 0.000000
# 5 0.000000 0.000000 0.000000 0.000000 0.038087 0.000000
# 6 0.000000 0.000000 0.000000 0.000000 0.000000 0.049834
#
#
# Mechanical properties :
#
#
# Convention : Reuss Voigt Hill
#
# Bulk Modulus (GPa) = 22.13303 36.64230 29.38766
# Shear Modulus (GPa) = -1.09607 22.67203 10.78798
#
# Velocity S-wave (km/s) = -0.68945 3.13567 2.16300
# Velocity P-wave (km/s) = 2.99415 5.38526 4.35695
#
# Compressibility (1/GPa) = 0.04518134
#
# Stress axis : x y z
#
# Youngs Moduli (GPa) = 119.57689 26.14912 79.64095
#
# Poissons Ratio (x) = 0.01818 0.21053
# Poissons Ratio (y) = 0.08313 0.29080
# Poissons Ratio (z) = 0.31610 0.09548
#
# Static dielectric constant tensor:
#      x y z
#    x 1.919200 0.000000 0.000000 
#    y 0.000000 1.978760 0.000000 
#    z 0.000000 0.000000 2.003220 
# 
# From -- ./inp_files/12552.got.cif
#   From: 2010.05.17/outbox.cif.g08.bks.cpg/sg60_7_cif.got.tgz:12552.got - 2010.06.03 14:59:27.
