data_PCOD9454982
_publ_section_title
;
Structure prediction by ZEFSAII (Michael W. Deem and Ramdas Pophale) SiO2 
 PCOD9454982
Probable space group: P B C N
;
_chemical_formula_sum "Si O2"
_cell_formula_units_Z 44
_cell_length_a 22.466324
_cell_length_b 5.390820
_cell_length_c 13.414422
_cell_angle_alpha 90.000000
_cell_angle_beta 90.000000
_cell_angle_gamma 90.000000
_cell_volume 1624.646253
_symmetry_space_group_name_H-M "P B C N"
_symmetry_group_IT_number 60
_symmetry_cell_setting 'orthorhombic'
loop_
_space_group_symop_operation_xyz
x,y,z
1/2-x,1/2-y,1/2+z
1/2+x,1/2-y,-z
-x,y,1/2-z
-x,-y,-z
1/2+x,1/2+y,1/2-z
1/2-x,1/2+y,z
x,-y,1/2+z
loop_
_atom_site_type_symbol
_atom_site_label
_atom_site_fract_x
_atom_site_fract_y
_atom_site_fract_z
Si Si1 0.609790 0.979236 0.824026
Si Si2 0.278185 0.338770 0.159241
Si Si3 0.715362 0.314090 0.583526
Si Si4 0.541378 0.644047 0.403874
Si Si5 0.583436 0.751275 0.041924
Si Si6 0.500000 0.747279 0.750000
O O1 0.666459 0.818004 0.800716
O O2 0.596093 0.911169 0.941620
O O3 0.559751 0.900359 0.746809
O O4 0.595617 0.267698 0.834527
O O5 0.272799 0.630934 0.184592
O O6 0.281809 0.330017 0.038105
O O7 0.743615 0.579311 0.615556
O O8 0.645153 0.257397 0.603875
O O9 0.483168 0.816174 0.419383
O O10 0.571945 0.528010 0.500416
O O11 0.510995 0.422328 0.344101
#
# Coordination Sequence:
#
# PCOD9454982 Si02
#       6
#     8   8   8   8   8   4
#     4  10  20  34  56  81 112 146 189 230 288 341
#     4   9  19  31  53  82 111 145 184 237 284 334
#     4   9  18  31  51  80 115 146 182 227 284 339
#     4  10  20  36  55  80 115 143 187 233 288 333
#     4   9  20  33  55  85 109 143 185 235 284 337
#     4  10  22  36  52  82 106 152 190 232 280 340
#
# _framework density 27.082816999999999
#
# number of rings (size 3 to 8) (size 9 to 14) (size 15 to 20)
#    0.000    2.545    0.000    1.091   15.273    0.000 
#    0.000    0.000    0.000    2.182    0.000    0.000 
#    0.000    0.000    0.000    0.000    0.000    0.000 
#
# Total GULP energy -245383.664171 kJ/mol
# GULP energy per Si atom -5576.901458 kJ/mol
# Density = 2.702118 g / cm^3
# Si number density = 27.082817 Si / 1000 Ang^3
#
#
#
# Elastic Constant Matrix: (Units=GPa)
#
#
# Indices 1 2 3 4 5 6 
#
# 1 180.3831 27.7773 0.3903 0.0000 0.0000 0.0000
# 2 27.7773 95.0225 8.7142 0.0000 0.0000 0.0000
# 3 0.3903 8.7142 27.6408 0.0000 0.0000 0.0000
# 4 0.0000 0.0000 0.0000 39.4926 0.0000 0.0000
# 5 0.0000 0.0000 0.0000 0.0000 35.2311 0.0000
# 6 0.0000 0.0000 0.0000 0.0000 0.0000 3.8840
#
#
#
# Elastic Compliance Matrix: (Units=1/GPa)
#
#
# Indices 1 2 3 4 5 6 
#
# 1 0.005811 -0.001741 0.000467 0.000000 0.000000 0.000000
# 2 -0.001741 0.011359 -0.003557 0.000000 0.000000 0.000000
# 3 0.000467 -0.003557 0.037293 0.000000 0.000000 0.000000
# 4 0.000000 0.000000 0.000000 0.025321 0.000000 0.000000
# 5 0.000000 0.000000 0.000000 0.000000 0.028384 0.000000
# 6 0.000000 0.000000 0.000000 0.000000 0.000000 0.257468
#
#
# Mechanical properties :
#
#
# Convention : Reuss Voigt Hill
#
# Bulk Modulus (GPa) = 22.32096 41.86778 32.09437
# Shear Modulus (GPa) = 12.81289 33.46585 23.13937
#
# Velocity S-wave (km/s) = 2.17745 3.51905 2.92617
# Velocity P-wave (km/s) = 3.81855 5.65723 4.82626
#
# Compressibility (1/GPa) = 0.04480094
#
# Stress axis : x y z
#
# Youngs Moduli (GPa) = 172.08984 88.03550 26.81466
#
# Poissons Ratio (x) = 0.15331 -0.01252
# Poissons Ratio (y) = 0.29969 0.09537
# Poissons Ratio (z) = -0.08036 0.31310
#
# Static dielectric constant tensor:
#      x y z
#    x 2.253540 0.000000 0.000000 
#    y 0.000000 2.256920 0.000000 
#    z 0.000000 0.000000 2.177120 
# 
# From -- ./inp_files/21090.got.cif
#   From: 2010.05.17/outbox.cif.g08.bks.cpg/sg60_11_cif.got.tgz:21090.got - 2010.06.03 14:59:27.
