data_PCOD9454116
_publ_section_title
;
Structure prediction by ZEFSAII (Michael W. Deem and Ramdas Pophale) SiO2 
 PCOD9454116
Probable space group: P B C N
;
_chemical_formula_sum "Si O2"
_cell_formula_units_Z 52
_cell_length_a 9.229238
_cell_length_b 9.233955
_cell_length_c 21.368805
_cell_angle_alpha 90.000000
_cell_angle_beta 90.000000
_cell_angle_gamma 90.000000
_cell_volume 1821.100171
_symmetry_space_group_name_H-M "P B C N"
_symmetry_group_IT_number 60
_symmetry_cell_setting 'orthorhombic'
loop_
_space_group_symop_operation_xyz
x,y,z
1/2-x,1/2-y,1/2+z
1/2+x,1/2-y,-z
-x,y,1/2-z
-x,-y,-z
1/2+x,1/2+y,1/2-z
1/2-x,1/2+y,z
x,-y,1/2+z
loop_
_atom_site_type_symbol
_atom_site_label
_atom_site_fract_x
_atom_site_fract_y
_atom_site_fract_z
Si Si1 0.596805 0.788821 0.371611
Si Si2 0.815532 0.287083 0.230429
Si Si3 0.000000 0.832118 0.250000
Si Si4 0.026170 0.698921 0.041470
Si Si5 0.861366 0.513009 0.128156
Si Si6 0.563751 0.541650 0.137366
Si Si7 0.749139 0.932343 0.467600
O O1 0.604564 0.786307 0.296451
O O2 0.567928 0.626108 0.393382
O O3 0.733852 0.870582 0.396451
O O4 0.465234 0.886545 0.396471
O O5 0.650683 0.251557 0.248616
O O6 0.830650 0.444027 0.197245
O O7 0.856319 0.168812 0.178377
O O8 0.992763 0.932229 0.188530
O O9 0.091746 0.855996 0.022412
O O10 0.163303 0.588047 0.031651
O O11 0.956167 0.655525 0.111100
O O12 0.877287 0.661066 0.004407
O O13 0.702150 0.498348 0.096118
#
# Coordination Sequence:
#
# PCOD9454116 Si02
#       7
#     8   8   4   8   8   8   8
#     4  10  20  39  59  87 129 167 208 279 333 391
#     4  10  20  37  57  88 127 163 215 263 331 402
#     4  10  20  34  52  84 116 166 208 252 316 392
#     4  10  23  46  67 103 133 180 232 287 349 409
#     4   9  20  36  61  86 125 165 213 266 332 393
#     4  10  18  35  55  85 118 167 205 259 321 390
#     4  10  24  43  70  97 139 174 234 289 346 407
#
# _framework density 28.554168000000001
#
# number of rings (size 3 to 8) (size 9 to 14) (size 15 to 20)
#    0.000    2.154    1.538    1.385    2.154    4.308 
#    8.308    3.077    0.000    0.000    0.000    0.000 
#    0.000    0.000    0.000    0.000    0.000    0.000 
#
# Total GULP energy -289753.480724 kJ/mol
# GULP energy per Si atom -5572.182322 kJ/mol
# Density = 2.848918 g / cm^3
# Si number density = 28.554168 Si / 1000 Ang^3
#
#
#
# Elastic Constant Matrix: (Units=GPa)
#
#
# Indices 1 2 3 4 5 6 
#
# 1 130.6361 19.6337 15.4772 0.0000 0.0000 0.0000
# 2 19.6337 123.9830 6.3129 0.0000 0.0000 0.0000
# 3 15.4772 6.3129 45.6788 0.0000 0.0000 0.0000
# 4 0.0000 0.0000 0.0000 16.5919 0.0000 0.0000
# 5 0.0000 0.0000 0.0000 0.0000 52.1368 0.0000
# 6 0.0000 0.0000 0.0000 0.0000 0.0000 53.0361
#
#
#
# Elastic Compliance Matrix: (Units=1/GPa)
#
#
# Indices 1 2 3 4 5 6 
#
# 1 0.008136 -0.001156 -0.002597 0.000000 0.000000 0.000000
# 2 -0.001156 0.008287 -0.000754 0.000000 0.000000 0.000000
# 3 -0.002597 -0.000754 0.022876 0.000000 0.000000 0.000000
# 4 0.000000 0.000000 0.000000 0.060270 0.000000 0.000000
# 5 0.000000 0.000000 0.000000 0.000000 0.019180 0.000000
# 6 0.000000 0.000000 0.000000 0.000000 0.000000 0.018855
#
#
# Mechanical properties :
#
#
# Convention : Reuss Voigt Hill
#
# Bulk Modulus (GPa) = 33.01861 42.57171 37.79516
# Shear Modulus (GPa) = 31.90527 41.61125 36.75826
#
# Velocity S-wave (km/s) = 3.34632 3.82157 3.59181
# Velocity P-wave (km/s) = 5.14967 5.86634 5.51965
#
# Compressibility (1/GPa) = 0.03028595
#
# Stress axis : x y z
#
# Youngs Moduli (GPa) = 122.90586 120.66967 43.71379
#
# Poissons Ratio (x) = 0.13952 0.11353
# Poissons Ratio (y) = 0.14211 0.03294
# Poissons Ratio (z) = 0.31919 0.09093
#
# Static dielectric constant tensor:
#      x y z
#    x 2.533650 0.000000 0.000000 
#    y 0.000000 2.303880 0.000000 
#    z 0.000000 0.000000 2.434040 
# 
# From -- ./inp_files/25164.got.cif
#   From: 2010.05.17/outbox.cif.g08.bks.cpg/sg60_13_cif.got.tgz:25164.got - 2010.06.03 14:59:27.
