data_PCOD9454664
_publ_section_title
;
Structure prediction by ZEFSAII (Michael W. Deem and Ramdas Pophale) SiO2 
 PCOD9454664
Probable space group: P B C N
;
_chemical_formula_sum "Si O2"
_cell_formula_units_Z 52
_cell_length_a 14.040162
_cell_length_b 9.016144
_cell_length_c 16.338176
_cell_angle_alpha 90.000000
_cell_angle_beta 90.000000
_cell_angle_gamma 90.000000
_cell_volume 2068.219023
_symmetry_space_group_name_H-M "P B C N"
_symmetry_group_IT_number 60
_symmetry_cell_setting 'orthorhombic'
loop_
_space_group_symop_operation_xyz
x,y,z
1/2-x,1/2-y,1/2+z
1/2+x,1/2-y,-z
-x,y,1/2-z
-x,-y,-z
1/2+x,1/2+y,1/2-z
1/2-x,1/2+y,z
x,-y,1/2+z
loop_
_atom_site_type_symbol
_atom_site_label
_atom_site_fract_x
_atom_site_fract_y
_atom_site_fract_z
Si Si1 0.847934 0.511553 0.846254
Si Si2 0.298127 0.546770 0.905231
Si Si3 0.500000 0.215116 0.750000
Si Si4 0.817799 0.329360 0.697679
Si Si5 0.652913 0.258888 0.965188
Si Si6 0.498560 0.547067 0.378984
Si Si7 0.997988 0.708220 0.110811
O O1 0.917577 0.616429 0.790861
O O2 0.791277 0.403439 0.783959
O O3 0.804245 0.627439 0.910709
O O4 0.914612 0.400193 0.897047
O O5 0.231885 0.418757 0.875083
O O6 0.304496 0.657009 0.825827
O O7 0.401843 0.481708 0.930272
O O8 0.271496 0.649647 0.981359
O O9 0.542367 0.334674 0.686256
O O10 0.929544 0.351116 0.682393
O O11 0.592200 0.371046 0.909528
O O12 0.569793 0.208536 0.030221
O O13 0.525567 0.375679 0.362444
#
# Coordination Sequence:
#
# PCOD9454664 Si02
#       7
#     8   8   4   8   8   8   8
#     4  11  20  36  59  92 120 153 207 256 296 362
#     4  10  22  39  60  83 124 162 203 243 313 376
#     4  10  20  30  58  90 120 148 194 262 296 348
#     4  10  22  37  57  85 122 164 198 244 311 376
#     4   9  20  39  60  93 117 157 207 259 304 364
#     4   9  20  35  62  91 118 153 207 252 306 355
#     4  10  19  36  62  89 123 150 206 256 307 360
#
# _framework density 25.142406000000001
#
# number of rings (size 3 to 8) (size 9 to 14) (size 15 to 20)
#    0.000    2.462    1.538    2.308    6.462    0.000 
#    0.000    6.154    0.000    0.000    0.000    0.000 
#    0.000    0.000    0.000    0.000    0.000    0.000 
#
# Total GULP energy -290004.217301 kJ/mol
# GULP energy per Si atom -5577.004179 kJ/mol
# Density = 2.508518 g / cm^3
# Si number density = 25.142406 Si / 1000 Ang^3
#
#
#
# Elastic Constant Matrix: (Units=GPa)
#
#
# Indices 1 2 3 4 5 6 
#
# 1 32.4406 14.8209 2.9691 0.0000 0.0000 0.0000
# 2 14.8209 78.9277 12.4852 0.0000 0.0000 0.0000
# 3 2.9691 12.4852 42.2490 0.0000 0.0000 0.0000
# 4 0.0000 0.0000 0.0000 27.5655 0.0000 0.0000
# 5 0.0000 0.0000 0.0000 0.0000 32.2343 0.0000
# 6 0.0000 0.0000 0.0000 0.0000 0.0000 36.0284
#
#
#
# Elastic Compliance Matrix: (Units=1/GPa)
#
#
# Indices 1 2 3 4 5 6 
#
# 1 0.033729 -0.006251 -0.000523 0.000000 0.000000 0.000000
# 2 -0.006251 0.014450 -0.003831 0.000000 0.000000 0.000000
# 3 -0.000523 -0.003831 0.024838 0.000000 0.000000 0.000000
# 4 0.000000 0.000000 0.000000 0.036277 0.000000 0.000000
# 5 0.000000 0.000000 0.000000 0.000000 0.031023 0.000000
# 6 0.000000 0.000000 0.000000 0.000000 0.000000 0.027756
#
#
# Mechanical properties :
#
#
# Convention : Reuss Voigt Hill
#
# Bulk Modulus (GPa) = 19.30228 23.79639 21.54934
# Shear Modulus (GPa) = 24.20703 27.38844 25.79774
#
# Velocity S-wave (km/s) = 3.10626 3.30408 3.20670
# Velocity P-wave (km/s) = 4.53420 4.90318 4.72230
#
# Compressibility (1/GPa) = 0.05180735
#
# Stress axis : x y z
#
# Youngs Moduli (GPa) = 29.64784 69.20613 40.26083
#
# Poissons Ratio (x) = 0.43260 0.02106
# Poissons Ratio (y) = 0.18533 0.15423
# Poissons Ratio (z) = 0.01551 0.26511
#
# Static dielectric constant tensor:
#      x y z
#    x 1.980500 0.000000 0.000000 
#    y 0.000000 1.999510 0.000000 
#    z 0.000000 0.000000 2.136350 
# 
# From -- ./inp_files/20838.got.cif
#   From: 2010.05.17/outbox.cif.g08.bks.cpg/sg60_11_cif.got.tgz:20838.got - 2010.06.03 14:59:27.
