data_PCOD9454765
_publ_section_title
;
Structure prediction by ZEFSAII (Michael W. Deem and Ramdas Pophale) SiO2 
 PCOD9454765
Probable space group: P B C N
;
_chemical_formula_sum "Si O2"
_cell_formula_units_Z 52
_cell_length_a 7.652076
_cell_length_b 19.248372
_cell_length_c 17.061854
_cell_angle_alpha 90.000000
_cell_angle_beta 90.000000
_cell_angle_gamma 90.000000
_cell_volume 2513.040568
_symmetry_space_group_name_H-M "P B C N"
_symmetry_group_IT_number 60
_symmetry_cell_setting 'orthorhombic'
loop_
_space_group_symop_operation_xyz
x,y,z
1/2-x,1/2-y,1/2+z
1/2+x,1/2-y,-z
-x,y,1/2-z
-x,-y,-z
1/2+x,1/2+y,1/2-z
1/2-x,1/2+y,z
x,-y,1/2+z
loop_
_atom_site_type_symbol
_atom_site_label
_atom_site_fract_x
_atom_site_fract_y
_atom_site_fract_z
Si Si1 0.500000 0.047539 0.750000
Si Si2 0.817388 0.842882 0.476354
Si Si3 0.812386 0.249285 0.351718
Si Si4 0.805361 0.843779 0.222829
Si Si5 0.819145 0.711733 0.569298
Si Si6 0.679834 0.381159 0.940950
Si Si7 0.880554 0.518212 0.924524
O O1 0.327154 0.094550 0.757787
O O2 0.473718 0.014842 0.661818
O O3 0.832419 0.789937 0.403272
O O4 0.748264 0.786724 0.540934
O O5 0.703063 0.906689 0.444312
O O6 0.994742 0.871770 0.515022
O O7 0.775428 0.276147 0.265744
O O8 0.816277 0.167248 0.363961
O O9 0.993155 0.276131 0.390618
O O10 0.797346 0.826863 0.132287
O O11 0.000000 0.858992 0.250000
O O12 0.819278 0.658397 0.496929
O O13 0.731127 0.459372 0.924664
O O14 0.000000 0.500000 0.000000
#
# Coordination Sequence:
#
# PCOD9454765 Si02
#       7
#     4   8   8   8   8   8   8
#     4  12  26  48  68  98 144 182 234 288 336 424
#     4  10  20  39  66  95 126 171 228 280 334 418
#     4  10  19  38  62  94 133 164 218 284 334 398
#     4  12  22  38  68  97 129 173 226 282 341 400
#     4  10  20  37  66  97 128 169 218 287 341 403
#     4  10  22  38  64  94 130 173 227 272 343 408
#     4  12  25  44  66  92 137 187 224 282 351 408
#
# _framework density 20.692067000000002
#
# number of rings (size 3 to 8) (size 9 to 14) (size 15 to 20)
#    0.000    1.231    3.077    3.231    0.000    3.692 
#    6.923    0.000    0.000    0.000    0.000    0.000 
#    0.000    0.000    0.000    0.000    0.000    0.000 
#
# Total GULP energy -289917.459534 kJ/mol
# GULP energy per Si atom -5575.335760 kJ/mol
# Density = 2.064497 g / cm^3
# Si number density = 20.692067 Si / 1000 Ang^3
#
#
#
# Elastic Constant Matrix: (Units=GPa)
#
#
# Indices 1 2 3 4 5 6 
#
# 1 77.4641 9.5135 8.3776 0.0000 0.0000 0.0000
# 2 9.5135 101.6873 18.1476 0.0000 0.0000 0.0000
# 3 8.3776 18.1476 98.0481 0.0000 0.0000 0.0000
# 4 0.0000 0.0000 0.0000 21.2698 0.0000 0.0000
# 5 0.0000 0.0000 0.0000 0.0000 28.7480 0.0000
# 6 0.0000 0.0000 0.0000 0.0000 0.0000 21.0442
#
#
#
# Elastic Compliance Matrix: (Units=1/GPa)
#
#
# Indices 1 2 3 4 5 6 
#
# 1 0.013140 -0.001064 -0.000926 0.000000 0.000000 0.000000
# 2 -0.001064 0.010256 -0.001807 0.000000 0.000000 0.000000
# 3 -0.000926 -0.001807 0.010613 0.000000 0.000000 0.000000
# 4 0.000000 0.000000 0.000000 0.047015 0.000000 0.000000
# 5 0.000000 0.000000 0.000000 0.000000 0.034785 0.000000
# 6 0.000000 0.000000 0.000000 0.000000 0.000000 0.047519
#
#
# Mechanical properties :
#
#
# Convention : Reuss Voigt Hill
#
# Bulk Modulus (GPa) = 37.85820 38.80854 38.33337
# Shear Modulus (GPa) = 27.81992 30.28979 29.05485
#
# Velocity S-wave (km/s) = 3.67068 3.83016 3.75127
# Velocity P-wave (km/s) = 6.02503 6.19324 6.10971
#
# Compressibility (1/GPa) = 0.02641435
#
# Stress axis : x y z
#
# Youngs Moduli (GPa) = 76.10346 97.50219 94.22670
#
# Poissons Ratio (x) = 0.10375 0.08723
# Poissons Ratio (y) = 0.08098 0.17030
# Poissons Ratio (z) = 0.07045 0.17622
#
# Static dielectric constant tensor:
#      x y z
#    x 1.806660 0.000000 0.000000 
#    y 0.000000 1.715320 0.000000 
#    z 0.000000 0.000000 1.803410 
# 
# From -- ./inp_files/19494.got.cif
#   From: 2010.05.17/outbox.cif.g08.bks.cpg/sg60_10_cif.got.tgz:19494.got - 2010.06.03 14:59:27.
