data_PCOD9454510
_publ_section_title
;
Structure prediction by ZEFSAII (Michael W. Deem and Ramdas Pophale) SiO2 
 PCOD9454510
Probable space group: P B C N
;
_chemical_formula_sum "Si O2"
_cell_formula_units_Z 40
_cell_length_a 6.240917
_cell_length_b 19.257409
_cell_length_c 18.827759
_cell_angle_alpha 90.000000
_cell_angle_beta 90.000000
_cell_angle_gamma 90.000000
_cell_volume 2262.793339
_symmetry_space_group_name_H-M "P B C N"
_symmetry_group_IT_number 60
_symmetry_cell_setting 'orthorhombic'
loop_
_space_group_symop_operation_xyz
x,y,z
1/2-x,1/2-y,1/2+z
1/2+x,1/2-y,-z
-x,y,1/2-z
-x,-y,-z
1/2+x,1/2+y,1/2-z
1/2-x,1/2+y,z
x,-y,1/2+z
loop_
_atom_site_type_symbol
_atom_site_label
_atom_site_fract_x
_atom_site_fract_y
_atom_site_fract_z
Si Si1 0.112836 0.605234 0.825952
Si Si2 0.121859 0.494351 0.575510
Si Si3 0.611740 0.793418 0.424755
Si Si4 0.504887 0.599484 0.912963
Si Si5 0.297813 0.849717 0.539747
O O1 0.366109 0.597588 0.840663
O O2 0.000000 0.604666 0.750000
O O3 0.009769 0.541149 0.869543
O O4 0.045769 0.677234 0.864547
O O5 0.354488 0.530800 0.574217
O O6 0.137063 0.412647 0.590753
O O7 0.000000 0.500000 0.500000
O O8 0.501149 0.815874 0.499182
O O9 0.664152 0.712542 0.425949
O O10 0.827789 0.837229 0.413679
O O11 0.343433 0.614033 0.977845
#
# Coordination Sequence:
#
# PCOD9454510 Si02
#       5
#     8   8   8   8   8
#     4  10  23  40  57  79 117 157 204 237 298 372
#     4  11  20  33  57  90 111 146 199 245 298 355
#     4  10  20  32  57  84 114 148 187 237 298 360
#     4  10  19  34  59  83 113 148 186 249 288 345
#     4  11  19  32  54  88 116 139 189 240 300 346
#
# _framework density 17.677267000000001
#
# number of rings (size 3 to 8) (size 9 to 14) (size 15 to 20)
#    0.000    1.600    8.000    0.600    0.000    3.200 
#    0.000    0.000    8.800    0.000    0.000    0.000 
#    0.000    0.000    0.000    0.000    0.000    0.000 
#
# Total GULP energy -222923.229351 kJ/mol
# GULP energy per Si atom -5573.080734 kJ/mol
# Density = 1.763703 g / cm^3
# Si number density = 17.677267 Si / 1000 Ang^3
#
#
#
# Elastic Constant Matrix: (Units=GPa)
#
#
# Indices 1 2 3 4 5 6 
#
# 1 92.2168 30.9010 20.9278 0.0000 0.0000 0.0000
# 2 30.9010 150.6408 30.2690 0.0000 0.0000 0.0000
# 3 20.9278 30.2690 71.8252 0.0000 0.0000 0.0000
# 4 0.0000 0.0000 0.0000 16.7549 0.0000 0.0000
# 5 0.0000 0.0000 0.0000 0.0000 16.4957 0.0000
# 6 0.0000 0.0000 0.0000 0.0000 0.0000 30.7729
#
#
#
# Elastic Compliance Matrix: (Units=1/GPa)
#
#
# Indices 1 2 3 4 5 6 
#
# 1 0.012109 -0.001939 -0.002711 0.000000 0.000000 0.000000
# 2 -0.001939 0.007563 -0.002622 0.000000 0.000000 0.000000
# 3 -0.002711 -0.002622 0.015818 0.000000 0.000000 0.000000
# 4 0.000000 0.000000 0.000000 0.059684 0.000000 0.000000
# 5 0.000000 0.000000 0.000000 0.000000 0.060622 0.000000
# 6 0.000000 0.000000 0.000000 0.000000 0.000000 0.032496
#
#
# Mechanical properties :
#
#
# Convention : Reuss Voigt Hill
#
# Bulk Modulus (GPa) = 47.74433 53.20869 50.47651
# Shear Modulus (GPa) = 23.83016 28.31037 26.07026
#
# Velocity S-wave (km/s) = 3.67559 4.00623 3.84447
# Velocity P-wave (km/s) = 6.71422 7.18090 6.95148
#
# Compressibility (1/GPa) = 0.02094489
#
# Stress axis : x y z
#
# Youngs Moduli (GPa) = 82.58277 132.22281 63.22049
#
# Poissons Ratio (x) = 0.25641 0.17139
# Poissons Ratio (y) = 0.16015 0.16578
# Poissons Ratio (z) = 0.22388 0.34672
#
# Static dielectric constant tensor:
#      x y z
#    x 1.673010 0.000000 0.000000 
#    y 0.000000 1.607570 0.000000 
#    z 0.000000 0.000000 1.610990 
# 
# From -- ./inp_files/18519.got.cif
#   From: 2010.05.17/outbox.cif.g08.bks.cpg/sg60_10_cif.got.tgz:18519.got - 2010.06.03 14:59:27.
