data_PCOD9454715
_publ_section_title
;
Structure prediction by ZEFSAII (Michael W. Deem and Ramdas Pophale) SiO2 
 PCOD9454715
Probable space group: P B C N
;
_chemical_formula_sum "Si O2"
_cell_formula_units_Z 60
_cell_length_a 6.522686
_cell_length_b 16.922510
_cell_length_c 27.427691
_cell_angle_alpha 90.000000
_cell_angle_beta 90.000000
_cell_angle_gamma 90.000000
_cell_volume 3027.474541
_symmetry_space_group_name_H-M "P B C N"
_symmetry_group_IT_number 60
_symmetry_cell_setting 'orthorhombic'
loop_
_space_group_symop_operation_xyz
x,y,z
1/2-x,1/2-y,1/2+z
1/2+x,1/2-y,-z
-x,y,1/2-z
-x,-y,-z
1/2+x,1/2+y,1/2-z
1/2-x,1/2+y,z
x,-y,1/2+z
loop_
_atom_site_type_symbol
_atom_site_label
_atom_site_fract_x
_atom_site_fract_y
_atom_site_fract_z
Si Si1 0.026250 0.646895 0.008596
Si Si2 0.889730 0.041361 0.453588
Si Si3 0.244008 0.262028 0.162856
Si Si4 0.500000 0.235426 0.750000
Si Si5 0.316950 0.621964 0.573837
Si Si6 0.086888 0.843735 0.876410
Si Si7 0.376352 0.167931 0.295903
Si Si8 0.693964 0.730623 0.563343
O O1 0.156778 0.714759 0.981600
O O2 0.845503 0.625716 0.970837
O O3 0.181998 0.579972 0.025621
O O4 0.935689 0.690367 0.055119
O O5 0.027147 0.105081 0.424123
O O6 0.839423 0.970646 0.416216
O O7 0.000000 0.000000 0.500000
O O8 0.114897 0.305430 0.205289
O O9 0.253132 0.320312 0.117245
O O10 0.465645 0.232167 0.181278
O O11 0.124994 0.180415 0.149769
O O12 0.317147 0.287896 0.772008
O O13 0.543135 0.656661 0.562947
O O14 0.261327 0.878211 0.840190
O O15 0.170002 0.756123 0.891368
O O16 0.500000 0.129645 0.250000
#
# Coordination Sequence:
#
# PCOD9454715 Si02
#       8
#     8   8   8   4   8   8   8   8
#     4  12  23  40  58  83 124 165 220 262 304 364
#     4  12  26  42  54  88 134 178 215 255 322 375
#     4  10  19  37  62  97 115 156 209 257 327 380
#     4   8  18  34  62 100 120 136 192 282 320 384
#     4  12  23  37  59  88 120 166 210 257 313 380
#     4  11  22  38  61  92 125 161 217 269 314 391
#     4   9  18  35  65  99 119 148 202 271 329 383
#     4  12  21  37  62  85 113 160 218 266 304 361
#
# _framework density 19.8185
#
# number of rings (size 3 to 8) (size 9 to 14) (size 15 to 20)
#    0.000    1.067    5.333    2.800    0.000    0.000 
#    0.000    0.000    0.000    0.000   41.600    0.000 
#    0.000    0.000    0.000    0.000    0.000    0.000 
#
# Total GULP energy -334137.701299 kJ/mol
# GULP energy per Si atom -5568.961688 kJ/mol
# Density = 1.977339 g / cm^3
# Si number density = 19.818500 Si / 1000 Ang^3
#
#
#
# Elastic Constant Matrix: (Units=GPa)
#
#
# Indices 1 2 3 4 5 6 
#
# 1 112.4571 26.5758 32.7964 0.0000 0.0000 0.0000
# 2 26.5758 60.2895 13.2081 0.0000 0.0000 0.0000
# 3 32.7964 13.2081 83.5412 0.0000 0.0000 0.0000
# 4 0.0000 0.0000 0.0000 10.3968 0.0000 0.0000
# 5 0.0000 0.0000 0.0000 0.0000 50.6689 0.0000
# 6 0.0000 0.0000 0.0000 0.0000 0.0000 27.4592
#
#
#
# Elastic Compliance Matrix: (Units=1/GPa)
#
#
# Indices 1 2 3 4 5 6 
#
# 1 0.010903 -0.004007 -0.003647 0.000000 0.000000 0.000000
# 2 -0.004007 0.018654 -0.001376 0.000000 0.000000 0.000000
# 3 -0.003647 -0.001376 0.013619 0.000000 0.000000 0.000000
# 4 0.000000 0.000000 0.000000 0.096183 0.000000 0.000000
# 5 0.000000 0.000000 0.000000 0.000000 0.019736 0.000000
# 6 0.000000 0.000000 0.000000 0.000000 0.000000 0.036418
#
#
# Mechanical properties :
#
#
# Convention : Reuss Voigt Hill
#
# Bulk Modulus (GPa) = 39.81429 44.60540 42.20984
# Shear Modulus (GPa) = 22.52806 29.95216 26.24011
#
# Velocity S-wave (km/s) = 3.37518 3.89179 3.64266
# Velocity P-wave (km/s) = 5.94325 6.53839 6.24791
#
# Compressibility (1/GPa) = 0.02511661
#
# Stress axis : x y z
#
# Youngs Moduli (GPa) = 91.72032 53.60650 73.42507
#
# Poissons Ratio (x) = 0.21480 0.26775
# Poissons Ratio (y) = 0.36753 0.10105
# Poissons Ratio (z) = 0.33447 0.07378
#
# Static dielectric constant tensor:
#      x y z
#    x 1.780520 0.000000 0.000000 
#    y 0.000000 1.669030 0.000000 
#    z 0.000000 0.000000 1.818650 
# 
# From -- ./inp_files/25775.got.cif
#   From: 2010.05.17/outbox.cif.g08.bks.cpg/sg60_13_cif.got.tgz:25775.got - 2010.06.03 14:59:27.
