data_PCOD9454350
_publ_section_title
;
Structure prediction by ZEFSAII (Michael W. Deem and Ramdas Pophale) SiO2 
 PCOD9454350
Probable space group: P B C N
;
_chemical_formula_sum "Si O2"
_cell_formula_units_Z 40
_cell_length_a 16.503742
_cell_length_b 20.253540
_cell_length_c 5.240950
_cell_angle_alpha 90.000000
_cell_angle_beta 90.000000
_cell_angle_gamma 90.000000
_cell_volume 1751.835748
_symmetry_space_group_name_H-M "P B C N"
_symmetry_group_IT_number 60
_symmetry_cell_setting 'orthorhombic'
loop_
_space_group_symop_operation_xyz
x,y,z
1/2-x,1/2-y,1/2+z
1/2+x,1/2-y,-z
-x,y,1/2-z
-x,-y,-z
1/2+x,1/2+y,1/2-z
1/2-x,1/2+y,z
x,-y,1/2+z
loop_
_atom_site_type_symbol
_atom_site_label
_atom_site_fract_x
_atom_site_fract_y
_atom_site_fract_z
Si Si1 0.950976 0.143732 0.485099
Si Si2 0.661938 0.978556 0.744850
Si Si3 0.145642 0.256253 0.279738
Si Si4 0.313771 0.824713 0.784490
Si Si5 0.842002 0.966924 0.187813
O O1 0.920898 0.209753 0.347274
O O2 0.873016 0.101882 0.578839
O O3 0.000000 0.109740 0.250000
O O4 0.000000 0.153118 0.750000
O O5 0.685571 0.902226 0.769344
O O6 0.616494 0.993034 0.485393
O O7 0.745570 0.021646 0.712289
O O8 0.136622 0.285798 0.563196
O O9 0.225628 0.209728 0.280539
O O10 0.157082 0.313839 0.073224
O O11 0.872240 0.981579 0.472442
#
# Coordination Sequence:
#
# PCOD9454350 Si02
#       5
#     8   8   8   8   8
#     4  12  25  39  56  80 117 162 203 235 269 330
#     4  10  19  32  53  80 112 143 175 223 288 342
#     4  10  21  37  55  79 108 144 197 243 284 329
#     4  10  20  35  58  80 107 147 186 240 296 335
#     4  10  21  35  52  75 112 155 195 230 269 319
#
# _framework density 22.833189999999998
#
# number of rings (size 3 to 8) (size 9 to 14) (size 15 to 20)
#    0.000    1.600    0.000    6.000    0.000   12.000 
#    0.000    0.000    0.000    0.000    0.000    0.000 
#    0.000   56.000    0.000    0.000    0.000    0.000 
#
# Total GULP energy -223190.466695 kJ/mol
# GULP energy per Si atom -5579.761667 kJ/mol
# Density = 2.278122 g / cm^3
# Si number density = 22.833190 Si / 1000 Ang^3
#
#
#
# Elastic Constant Matrix: (Units=GPa)
#
#
# Indices 1 2 3 4 5 6 
#
# 1 14.8284 -10.6845 -4.3597 0.0000 0.0000 0.0000
# 2 -10.6845 49.9946 -17.1270 0.0000 0.0000 0.0000
# 3 -4.3597 -17.1270 145.3812 0.0000 0.0000 0.0000
# 4 0.0000 0.0000 0.0000 38.0436 0.0000 0.0000
# 5 0.0000 0.0000 0.0000 0.0000 12.9071 0.0000
# 6 0.0000 0.0000 0.0000 0.0000 0.0000 14.5007
#
#
#
# Elastic Compliance Matrix: (Units=1/GPa)
#
#
# Indices 1 2 3 4 5 6 
#
# 1 0.082754 0.019315 0.004757 0.000000 0.000000 0.000000
# 2 0.019315 0.025352 0.003566 0.000000 0.000000 0.000000
# 3 0.004757 0.003566 0.007441 0.000000 0.000000 0.000000
# 4 0.000000 0.000000 0.000000 0.026286 0.000000 0.000000
# 5 0.000000 0.000000 0.000000 0.000000 0.077477 0.000000
# 6 0.000000 0.000000 0.000000 0.000000 0.000000 0.068962
#
#
# Mechanical properties :
#
#
# Convention : Reuss Voigt Hill
#
# Bulk Modulus (GPa) = 5.85398 16.20686 11.03042
# Shear Modulus (GPa) = 17.24516 29.24864 23.24690
#
# Velocity S-wave (km/s) = 2.75119 3.58295 3.19426
# Velocity P-wave (km/s) = 3.55829 4.92240 4.29485
#
# Compressibility (1/GPa) = 0.17082401
#
# Stress axis : x y z
#
# Youngs Moduli (GPa) = 12.08395 39.44512 134.38673
#
# Poissons Ratio (x) = -0.76190 -0.63930
# Poissons Ratio (y) = -0.23341 -0.47920
# Poissons Ratio (z) = -0.05749 -0.14066
#
# Static dielectric constant tensor:
#      x y z
#    x 1.923760 0.000000 0.000000 
#    y 0.000000 1.842790 0.000000 
#    z 0.000000 0.000000 1.960390 
# 
# From -- ./inp_files/1619.got.cif
#   From: 2010.05.17/outbox.cif.g08.bks.cpg/sg60_1_cif.got.tgz:1619.got - 2010.06.03 14:59:27.
