data_PCOD9454590
_publ_section_title
;
Structure prediction by ZEFSAII (Michael W. Deem and Ramdas Pophale) SiO2 
 PCOD9454590
Probable space group: P B C N
;
_chemical_formula_sum "Si O2"
_cell_formula_units_Z 64
_cell_length_a 6.176739
_cell_length_b 17.568250
_cell_length_c 26.052663
_cell_angle_alpha 90.000000
_cell_angle_beta 90.000000
_cell_angle_gamma 90.000000
_cell_volume 2827.091567
_symmetry_space_group_name_H-M "P B C N"
_symmetry_group_IT_number 60
_symmetry_cell_setting 'orthorhombic'
loop_
_space_group_symop_operation_xyz
x,y,z
1/2-x,1/2-y,1/2+z
1/2+x,1/2-y,-z
-x,y,1/2-z
-x,-y,-z
1/2+x,1/2+y,1/2-z
1/2-x,1/2+y,z
x,-y,1/2+z
loop_
_atom_site_type_symbol
_atom_site_label
_atom_site_fract_x
_atom_site_fract_y
_atom_site_fract_z
Si Si1 0.058567 0.998428 0.567810
Si Si2 0.665445 0.995665 0.132940
Si Si3 0.147150 0.369962 0.097438
Si Si4 0.727676 0.242392 0.566531
Si Si5 0.283908 0.920663 0.665050
Si Si6 0.123415 0.273244 0.626212
Si Si7 0.744575 0.455354 0.245212
Si Si8 0.113455 0.843581 0.530324
O O1 0.131045 0.954440 0.620729
O O2 0.120405 0.934881 0.526048
O O3 0.810103 0.011230 0.582594
O O4 0.193802 0.076302 0.564451
O O5 0.523725 0.070661 0.139793
O O6 0.777437 0.983680 0.186953
O O7 0.488014 0.929338 0.129914
O O8 0.281557 0.311203 0.131081
O O9 0.972116 0.316323 0.070431
O O10 0.864960 0.204100 0.521486
O O11 0.622435 0.322300 0.551698
O O12 0.870924 0.256539 0.616614
O O13 0.277360 0.829580 0.668812
O O14 0.257501 0.972558 0.715249
O O15 0.214197 0.310931 0.572233
O O16 0.500000 0.416874 0.250000
O O17 0.000000 0.423097 0.250000
#
# Coordination Sequence:
#
# PCOD9454590 Si02
#       8
#     8   8   8   8   8   8   8   8
#     4  10  19  36  56  86 117 153 203 251 302 374
#     4  10  19  36  59  89 120 151 200 251 312 381
#     4  10  23  36  55  85 120 165 199 246 320 382
#     4  11  20  38  57  84 118 163 206 260 317 371
#     4   9  19  34  60  93 110 150 203 251 308 362
#     4  10  20  38  58  83 121 158 201 258 307 375
#     4  10  19  35  62  98 119 153 200 266 312 375
#     4  10  21  34  60  84 112 157 211 258 307 365
#
# _framework density 22.638104999999999
#
# number of rings (size 3 to 8) (size 9 to 14) (size 15 to 20)
#    0.000    2.000    2.500    1.500    0.000    0.500 
#    0.000    2.500    0.000    3.750   13.000    0.000 
#    0.000    0.000    0.000    0.000    0.000    0.000 
#
# Total GULP energy -356315.376629 kJ/mol
# GULP energy per Si atom -5567.427760 kJ/mol
# Density = 2.258658 g / cm^3
# Si number density = 22.638105 Si / 1000 Ang^3
#
#
#
# Elastic Constant Matrix: (Units=GPa)
#
#
# Indices 1 2 3 4 5 6 
#
# 1 104.2272 16.4689 2.0571 0.0000 0.0000 0.0000
# 2 16.4689 98.6996 -8.8924 0.0000 0.0000 0.0000
# 3 2.0571 -8.8924 55.2728 0.0000 0.0000 0.0000
# 4 0.0000 0.0000 0.0000 16.7701 0.0000 0.0000
# 5 0.0000 0.0000 0.0000 0.0000 22.4436 0.0000
# 6 0.0000 0.0000 0.0000 0.0000 0.0000 27.0638
#
#
#
# Elastic Compliance Matrix: (Units=1/GPa)
#
#
# Indices 1 2 3 4 5 6 
#
# 1 0.009877 -0.001706 -0.000642 0.000000 0.000000 0.000000
# 2 -0.001706 0.010575 0.001765 0.000000 0.000000 0.000000
# 3 -0.000642 0.001765 0.018400 0.000000 0.000000 0.000000
# 4 0.000000 0.000000 0.000000 0.059630 0.000000 0.000000
# 5 0.000000 0.000000 0.000000 0.000000 0.044556 0.000000
# 6 0.000000 0.000000 0.000000 0.000000 0.000000 0.036950
#
#
# Mechanical properties :
#
#
# Convention : Reuss Voigt Hill
#
# Bulk Modulus (GPa) = 26.53507 30.82964 28.68235
# Shear Modulus (GPa) = 25.81101 29.82656 27.81878
#
# Velocity S-wave (km/s) = 3.38029 3.63373 3.50930
# Velocity P-wave (km/s) = 5.19442 5.59047 5.39608
#
# Compressibility (1/GPa) = 0.03768598
#
# Stress axis : x y z
#
# Youngs Moduli (GPa) = 101.24908 94.55906 54.34806
#
# Poissons Ratio (x) = 0.16130 0.03489
# Poissons Ratio (y) = 0.17272 -0.09592
# Poissons Ratio (z) = 0.06500 -0.16689
#
# Static dielectric constant tensor:
#      x y z
#    x 1.988200 0.000000 0.000000 
#    y 0.000000 1.908650 0.000000 
#    z 0.000000 0.000000 1.860550 
# 
# From -- ./inp_files/25807.got.cif
#   From: 2010.05.17/outbox.cif.g08.bks.cpg/sg60_13_cif.got.tgz:25807.got - 2010.06.03 14:59:27.
