data_PCOD9454240
_publ_section_title
;
Structure prediction by ZEFSAII (Michael W. Deem and Ramdas Pophale) SiO2 
 PCOD9454240
Probable space group: P B C N
;
_chemical_formula_sum "Si O2"
_cell_formula_units_Z 44
_cell_length_a 5.197815
_cell_length_b 13.958435
_cell_length_c 23.723500
_cell_angle_alpha 90.000000
_cell_angle_beta 90.000000
_cell_angle_gamma 90.000000
_cell_volume 1721.219703
_symmetry_space_group_name_H-M "P B C N"
_symmetry_group_IT_number 60
_symmetry_cell_setting 'orthorhombic'
loop_
_space_group_symop_operation_xyz
x,y,z
1/2-x,1/2-y,1/2+z
1/2+x,1/2-y,-z
-x,y,1/2-z
-x,-y,-z
1/2+x,1/2+y,1/2-z
1/2-x,1/2+y,z
x,-y,1/2+z
loop_
_atom_site_type_symbol
_atom_site_label
_atom_site_fract_x
_atom_site_fract_y
_atom_site_fract_z
Si Si1 0.047700 0.685742 0.445028
Si Si2 0.113083 0.177231 0.193745
Si Si3 0.500000 0.326013 0.250000
Si Si4 0.387829 0.923776 0.046122
Si Si5 0.751971 0.337423 0.137742
Si Si6 0.945313 0.923550 0.911363
O O1 0.124054 0.674572 0.510636
O O2 0.073233 0.781420 0.407909
O O3 0.265559 0.613096 0.418724
O O4 0.759365 0.645932 0.441539
O O5 0.326775 0.251078 0.214668
O O6 0.158551 0.090672 0.151774
O O7 0.000000 0.134376 0.250000
O O8 0.920192 0.249510 0.162402
O O9 0.634591 0.379494 0.196593
O O10 0.564381 0.905627 0.100729
O O11 0.120296 0.971747 0.065427
O O12 0.500000 0.000000 0.000000
#
# Coordination Sequence:
#
# PCOD9454240 Si02
#       6
#     8   8   4   8   8   8
#     4  10  21  40  63  98 130 180 225 273 339 419
#     4   9  19  36  67  92 123 172 231 284 331 410
#     4  10  18  40  68  92 126 172 242 288 332 404
#     4  10  23  41  63  96 142 176 220 284 353 422
#     4  10  21  39  67  98 133 178 236 286 345 410
#     4  10  20  41  63  96 134 174 219 281 351 402
#
# _framework density 25.563265999999999
#
# number of rings (size 3 to 8) (size 9 to 14) (size 15 to 20)
#    0.000    2.182    1.818    0.545    0.000    5.818 
#   13.091    0.000    8.000    0.000    0.000    0.000 
#    0.000    0.000    0.000    0.000    0.000    0.000 
#
# Total GULP energy -245448.282747 kJ/mol
# GULP energy per Si atom -5578.370062 kJ/mol
# Density = 2.550508 g / cm^3
# Si number density = 25.563266 Si / 1000 Ang^3
#
#
#
# Elastic Constant Matrix: (Units=GPa)
#
#
# Indices 1 2 3 4 5 6 
#
# 1 21.5881 32.7426 25.1719 0.0000 0.0000 0.0000
# 2 32.7426 105.9670 57.0634 0.0000 0.0000 0.0000
# 3 25.1719 57.0634 192.5113 0.0000 0.0000 0.0000
# 4 0.0000 0.0000 0.0000 28.9175 0.0000 0.0000
# 5 0.0000 0.0000 0.0000 0.0000 59.8999 0.0000
# 6 0.0000 0.0000 0.0000 0.0000 0.0000 -6.4677
#
#
#
# Elastic Compliance Matrix: (Units=1/GPa)
#
#
# Indices 1 2 3 4 5 6 
#
# 1 0.089931 -0.025531 -0.004191 0.000000 0.000000 0.000000
# 2 -0.025531 0.018477 -0.002139 0.000000 0.000000 0.000000
# 3 -0.004191 -0.002139 0.006376 0.000000 0.000000 0.000000
# 4 0.000000 0.000000 0.000000 0.034581 0.000000 0.000000
# 5 0.000000 0.000000 0.000000 0.000000 0.016695 0.000000
# 6 0.000000 0.000000 0.000000 0.000000 0.000000 -0.154614
#
#
# Mechanical properties :
#
#
# Convention : Reuss Voigt Hill
#
# Bulk Modulus (GPa) = 19.58339 61.11357 40.34848
# Shear Modulus (GPa) = 54.23611 30.14252 42.18931
#
# Velocity S-wave (km/s) = 4.61113 3.43758 4.06690
# Velocity P-wave (km/s) = 6.00228 6.30195 6.15394
#
# Compressibility (1/GPa) = 0.05106367
#
# Stress axis : x y z
#
# Youngs Moduli (GPa) = 11.11960 54.12052 156.82662
#
# Poissons Ratio (x) = 1.38174 0.65730
# Poissons Ratio (y) = 0.28389 0.33540
# Poissons Ratio (z) = 0.04661 0.11575
#
# Static dielectric constant tensor:
#      x y z
#    x 2.217150 0.000000 0.000000 
#    y 0.000000 2.087440 0.000000 
#    z 0.000000 0.000000 2.294720 
# 
# From -- ./inp_files/23591.got.cif
#   From: 2010.05.17/outbox.cif.g08.bks.cpg/sg60_12_cif.got.tgz:23591.got - 2010.06.03 14:59:27.
