data_PCOD9454026
_publ_section_title
;
Structure prediction by ZEFSAII (Michael W. Deem and Ramdas Pophale) SiO2 
 PCOD9454026
Probable space group: P B C N
;
_chemical_formula_sum "Si O2"
_cell_formula_units_Z 52
_cell_length_a 9.037648
_cell_length_b 16.985127
_cell_length_c 14.741231
_cell_angle_alpha 90.000000
_cell_angle_beta 90.000000
_cell_angle_gamma 90.000000
_cell_volume 2262.861496
_symmetry_space_group_name_H-M "P B C N"
_symmetry_group_IT_number 60
_symmetry_cell_setting 'orthorhombic'
loop_
_space_group_symop_operation_xyz
x,y,z
1/2-x,1/2-y,1/2+z
1/2+x,1/2-y,-z
-x,y,1/2-z
-x,-y,-z
1/2+x,1/2+y,1/2-z
1/2-x,1/2+y,z
x,-y,1/2+z
loop_
_atom_site_type_symbol
_atom_site_label
_atom_site_fract_x
_atom_site_fract_y
_atom_site_fract_z
Si Si1 0.519201 0.880188 0.467244
Si Si2 0.048160 0.812038 0.409111
Si Si3 0.749685 0.836675 0.338198
Si Si4 0.349964 0.719863 0.426367
Si Si5 0.064654 0.467359 0.850673
Si Si6 0.500000 0.728329 0.250000
Si Si7 0.647339 0.464196 0.200666
O O1 0.685486 0.856975 0.437381
O O2 0.411277 0.808451 0.448079
O O3 0.512974 0.908252 0.570671
O O4 0.478302 0.948889 0.396123
O O5 0.175621 0.745648 0.415157
O O6 0.108215 0.895322 0.371490
O O7 0.907580 0.793729 0.343725
O O8 0.960468 0.824225 0.502945
O O9 0.625069 0.783023 0.294954
O O10 0.768260 0.915075 0.279472
O O11 0.410486 0.688387 0.330436
O O12 0.241761 0.472789 0.840640
O O13 0.000000 0.455307 0.750000
O O14 0.500000 0.494594 0.250000
#
# Coordination Sequence:
#
# PCOD9454026 Si02
#       7
#     8   8   8   8   8   4   8
#     4  10  21  35  63  90 117 162 202 254 309 367
#     4  11  22  36  61  87 125 154 201 256 306 357
#     4  10  18  36  59  88 113 156 205 246 291 362
#     4  11  21  37  57  90 122 159 202 251 303 374
#     4  11  20  38  62  89 121 158 205 255 313 369
#     4  10  18  32  60  82 118 154 198 242 294 352
#     4  10  19  35  60  88 114 154 203 253 296 360
#
# _framework density 22.979752999999999
#
# number of rings (size 3 to 8) (size 9 to 14) (size 15 to 20)
#    0.000    1.538    4.615    2.769    1.077    0.000 
#    0.000    6.923    3.385    0.000    0.000    0.000 
#    0.000    0.000    0.000    0.000    0.000    0.000 
#
# Total GULP energy -289887.300773 kJ/mol
# GULP energy per Si atom -5574.755784 kJ/mol
# Density = 2.292745 g / cm^3
# Si number density = 22.979753 Si / 1000 Ang^3
#
#
#
# Elastic Constant Matrix: (Units=GPa)
#
#
# Indices 1 2 3 4 5 6 
#
# 1 146.9239 10.0719 26.0159 0.0000 0.0000 0.0000
# 2 10.0719 40.4014 4.5477 0.0000 0.0000 0.0000
# 3 26.0159 4.5477 120.9461 0.0000 0.0000 0.0000
# 4 0.0000 0.0000 0.0000 13.9820 0.0000 0.0000
# 5 0.0000 0.0000 0.0000 0.0000 23.6448 0.0000
# 6 0.0000 0.0000 0.0000 0.0000 0.0000 2.0553
#
#
#
# Elastic Compliance Matrix: (Units=1/GPa)
#
#
# Indices 1 2 3 4 5 6 
#
# 1 0.007180 -0.001623 -0.001483 0.000000 0.000000 0.000000
# 2 -0.001623 0.025224 -0.000599 0.000000 0.000000 0.000000
# 3 -0.001483 -0.000599 0.008610 0.000000 0.000000 0.000000
# 4 0.000000 0.000000 0.000000 0.071521 0.000000 0.000000
# 5 0.000000 0.000000 0.000000 0.000000 0.042293 0.000000
# 6 0.000000 0.000000 0.000000 0.000000 0.000000 0.486545
#
#
# Mechanical properties :
#
#
# Convention : Reuss Voigt Hill
#
# Bulk Modulus (GPa) = 29.76007 43.28248 36.52128
# Shear Modulus (GPa) = 7.57594 25.77883 16.67738
#
# Velocity S-wave (km/s) = 1.81768 3.35297 2.69688
# Velocity P-wave (km/s) = 4.16940 5.81944 5.06210
#
# Compressibility (1/GPa) = 0.03360207
#
# Stress axis : x y z
#
# Youngs Moduli (GPa) = 139.27231 39.64532 116.14707
#
# Poissons Ratio (x) = 0.06434 0.17230
# Poissons Ratio (y) = 0.22604 0.06961
# Poissons Ratio (z) = 0.20660 0.02376
#
# Static dielectric constant tensor:
#      x y z
#    x 1.948540 0.000000 0.000000 
#    y 0.000000 1.887680 0.000000 
#    z 0.000000 0.000000 2.064960 
# 
# From -- ./inp_files/15187.got.cif
#   From: 2010.05.17/outbox.cif.g08.bks.cpg/sg60_8_cif.got.tgz:15187.got - 2010.06.03 14:59:27.
