data_PCOD9454162
_publ_section_title
;
Structure prediction by ZEFSAII (Michael W. Deem and Ramdas Pophale) SiO2 
 PCOD9454162
Probable space group: P B C N
;
_chemical_formula_sum "Si O2"
_cell_formula_units_Z 64
_cell_length_a 9.883938
_cell_length_b 18.867032
_cell_length_c 16.433985
_cell_angle_alpha 90.000000
_cell_angle_beta 90.000000
_cell_angle_gamma 90.000000
_cell_volume 3064.618965
_symmetry_space_group_name_H-M "P B C N"
_symmetry_group_IT_number 60
_symmetry_cell_setting 'orthorhombic'
loop_
_space_group_symop_operation_xyz
x,y,z
1/2-x,1/2-y,1/2+z
1/2+x,1/2-y,-z
-x,y,1/2-z
-x,-y,-z
1/2+x,1/2+y,1/2-z
1/2-x,1/2+y,z
x,-y,1/2+z
loop_
_atom_site_type_symbol
_atom_site_label
_atom_site_fract_x
_atom_site_fract_y
_atom_site_fract_z
Si Si1 0.299095 0.204909 0.100806
Si Si2 0.062026 0.854613 0.120334
Si Si3 0.966505 0.081269 0.161919
Si Si4 0.365690 0.603017 0.013454
Si Si5 0.792501 0.208767 0.213394
Si Si6 0.782071 0.865611 0.220750
Si Si7 0.286009 0.988880 0.392119
Si Si8 0.542039 0.885985 0.657480
O O1 0.370951 0.280790 0.092423
O O2 0.197672 0.180828 0.029815
O O3 0.226680 0.200220 0.189195
O O4 0.419539 0.148679 0.109408
O O5 0.172073 0.881680 0.186447
O O6 0.922985 0.849618 0.172588
O O7 0.002047 0.894812 0.041630
O O8 0.912603 0.161369 0.176854
O O9 0.000000 0.051016 0.250000
O O10 0.090929 0.076392 0.101577
O O11 0.844924 0.036549 0.126152
O O12 0.252695 0.554972 0.971815
O O13 0.800351 0.293174 0.206108
O O14 0.658698 0.173867 0.171977
O O15 0.707722 0.931091 0.179619
O O16 0.405668 0.044747 0.388586
O O17 0.500000 0.905255 0.750000
#
# Coordination Sequence:
#
# PCOD9454162 Si02
#       8
#     8   8   8   8   8   8   8   8
#     4  10  18  36  60  85 117 154 199 244 288 349
#     4   9  19  34  58  85 116 147 196 242 288 345
#     4  11  22  38  58  84 118 154 196 245 290 351
#     4  11  23  36  56  90 122 155 191 247 304 355
#     4   9  17  35  64  86 104 151 206 242 278 347
#     4   9  17  36  62  86 109 154 195 236 291 350
#     4  10  23  37  58  88 119 154 191 242 300 353
#     4   9  18  36  61  86 109 155 208 234 283 355
#
# _framework density 20.883510000000001
#
# number of rings (size 3 to 8) (size 9 to 14) (size 15 to 20)
#    0.000    2.250    2.500    0.375    3.500    2.500 
#    0.000    0.625    5.500    0.000    0.000    0.000 
#    0.000    0.000    0.000    0.000    0.000    0.000 
#
# Total GULP energy -356873.349843 kJ/mol
# GULP energy per Si atom -5576.146091 kJ/mol
# Density = 2.083598 g / cm^3
# Si number density = 20.883510 Si / 1000 Ang^3
#
#
#
# Elastic Constant Matrix: (Units=GPa)
#
#
# Indices 1 2 3 4 5 6 
#
# 1 31.4825 10.1770 6.4215 0.0000 0.0000 0.0000
# 2 10.1770 76.3384 9.7414 0.0000 0.0000 0.0000
# 3 6.4215 9.7414 67.6403 0.0000 0.0000 0.0000
# 4 0.0000 0.0000 0.0000 -7.7098 0.0000 0.0000
# 5 0.0000 0.0000 0.0000 0.0000 11.9125 0.0000
# 6 0.0000 0.0000 0.0000 0.0000 0.0000 23.1315
#
#
#
# Elastic Compliance Matrix: (Units=1/GPa)
#
#
# Indices 1 2 3 4 5 6 
#
# 1 0.033635 -0.004153 -0.002595 0.000000 0.000000 0.000000
# 2 -0.004153 0.013858 -0.001601 0.000000 0.000000 0.000000
# 3 -0.002595 -0.001601 0.015261 0.000000 0.000000 0.000000
# 4 0.000000 0.000000 0.000000 -0.129704 0.000000 0.000000
# 5 0.000000 0.000000 0.000000 0.000000 0.083945 0.000000
# 6 0.000000 0.000000 0.000000 0.000000 0.000000 0.043231
#
#
# Mechanical properties :
#
#
# Convention : Reuss Voigt Hill
#
# Bulk Modulus (GPa) = 21.71313 25.34900 23.53107
# Shear Modulus (GPa) = 54.18490 15.40827 34.79658
#
# Velocity S-wave (km/s) = 5.09927 2.71923 4.08637
# Velocity P-wave (km/s) = 6.71490 4.69293 5.79282
#
# Compressibility (1/GPa) = 0.04605508
#
# Stress axis : x y z
#
# Youngs Moduli (GPa) = 29.73056 72.16273 65.52611
#
# Poissons Ratio (x) = 0.29969 0.17005
# Poissons Ratio (y) = 0.12347 0.10494
# Poissons Ratio (z) = 0.07715 0.11557
#
# Static dielectric constant tensor:
#      x y z
#    x 1.768980 0.000000 0.000000 
#    y 0.000000 1.763120 0.000000 
#    z 0.000000 0.000000 1.792650 
# 
# From -- ./inp_files/16387.got.cif
#   From: 2010.05.17/outbox.cif.g08.bks.cpg/sg60_9_cif.got.tgz:16387.got - 2010.06.03 14:59:27.
