data_PCOD9454495
_publ_section_title
;
Structure prediction by ZEFSAII (Michael W. Deem and Ramdas Pophale) SiO2 
 PCOD9454495
Probable space group: P B C N
;
_chemical_formula_sum "Si O2"
_cell_formula_units_Z 64
_cell_length_a 27.619871
_cell_length_b 5.528257
_cell_length_c 22.039785
_cell_angle_alpha 90.000000
_cell_angle_beta 90.000000
_cell_angle_gamma 90.000000
_cell_volume 3365.249156
_symmetry_space_group_name_H-M "P B C N"
_symmetry_group_IT_number 60
_symmetry_cell_setting 'orthorhombic'
loop_
_space_group_symop_operation_xyz
x,y,z
1/2-x,1/2-y,1/2+z
1/2+x,1/2-y,-z
-x,y,1/2-z
-x,-y,-z
1/2+x,1/2+y,1/2-z
1/2-x,1/2+y,z
x,-y,1/2+z
loop_
_atom_site_type_symbol
_atom_site_label
_atom_site_fract_x
_atom_site_fract_y
_atom_site_fract_z
Si Si1 0.455095 0.185995 0.001253
Si Si2 0.440172 0.454037 0.599146
Si Si3 0.620157 0.242159 0.312531
Si Si4 0.739054 0.053616 0.973257
Si Si5 0.034742 0.749174 0.864673
Si Si6 0.223977 0.056649 0.663004
Si Si7 0.369486 0.924701 0.073550
Si Si8 0.451818 0.754424 0.792425
O O1 0.443825 0.259177 0.932505
O O2 0.467657 0.402992 0.046860
O O3 0.500000 0.000000 0.000000
O O4 0.407718 0.074623 0.033582
O O5 0.423227 0.623966 0.652535
O O6 0.476454 0.256946 0.625698
O O7 0.391513 0.341724 0.572301
O O8 0.669297 0.398255 0.315512
O O9 0.597124 0.208793 0.246935
O O10 0.630762 0.013691 0.356396
O O11 0.749879 0.303841 0.006271
O O12 0.771296 0.055143 0.910920
O O13 0.683758 0.054032 0.952010
O O14 0.045960 0.491036 0.835085
O O15 0.047677 0.992893 0.826768
O O16 0.254383 0.296601 0.682208
O O17 0.500000 0.760924 0.750000
#
# Coordination Sequence:
#
# PCOD9454495 Si02
#       8
#     8   8   8   8   8   8   8   8
#     4  11  24  40  59  91 120 171 216 258 306 364
#     4  11  22  37  62  85 122 164 208 257 305 369
#     4  11  23  37  59  94 124 165 203 248 322 378
#     4  10  19  35  54  89 128 149 184 248 326 378
#     4  12  25  43  58  82 128 164 213 257 288 366
#     4  10  19  34  57  86 128 148 189 253 316 380
#     4  11  22  35  64  90 125 161 201 255 317 387
#     4  12  26  41  60  85 122 173 208 256 300 364
#
# _framework density 19.017907000000001
#
# number of rings (size 3 to 8) (size 9 to 14) (size 15 to 20)
#    0.000    1.000    5.000    3.750    5.250    0.000 
#    0.000    0.000    0.000    0.000    0.000    5.250 
#    0.000    0.000    0.000    0.000    0.000    0.000 
#
# Total GULP energy -357120.130083 kJ/mol
# GULP energy per Si atom -5580.002033 kJ/mol
# Density = 1.897462 g / cm^3
# Si number density = 19.017907 Si / 1000 Ang^3
#
#
#
# Elastic Constant Matrix: (Units=GPa)
#
#
# Indices 1 2 3 4 5 6 
#
# 1 82.7949 22.5630 26.3165 0.0000 0.0000 0.0000
# 2 22.5630 124.5827 36.8867 0.0000 0.0000 0.0000
# 3 26.3165 36.8867 73.8219 0.0000 0.0000 0.0000
# 4 0.0000 0.0000 0.0000 22.5492 0.0000 0.0000
# 5 0.0000 0.0000 0.0000 0.0000 16.2642 0.0000
# 6 0.0000 0.0000 0.0000 0.0000 0.0000 30.4492
#
#
#
# Elastic Compliance Matrix: (Units=1/GPa)
#
#
# Indices 1 2 3 4 5 6 
#
# 1 0.013778 -0.001222 -0.004301 0.000000 0.000000 0.000000
# 2 -0.001222 0.009529 -0.004326 0.000000 0.000000 0.000000
# 3 -0.004301 -0.004326 0.017241 0.000000 0.000000 0.000000
# 4 0.000000 0.000000 0.000000 0.044347 0.000000 0.000000
# 5 0.000000 0.000000 0.000000 0.000000 0.061485 0.000000
# 6 0.000000 0.000000 0.000000 0.000000 0.000000 0.032842
#
#
# Mechanical properties :
#
#
# Convention : Reuss Voigt Hill
#
# Bulk Modulus (GPa) = 47.96085 50.30356 49.13220
# Shear Modulus (GPa) = 24.28727 26.88142 25.58434
#
# Velocity S-wave (km/s) = 3.57749 3.76371 3.67178
# Velocity P-wave (km/s) = 6.50678 6.73761 6.62320
#
# Compressibility (1/GPa) = 0.02085034
#
# Stress axis : x y z
#
# Youngs Moduli (GPa) = 72.57865 104.94440 58.00172
#
# Poissons Ratio (x) = 0.12823 0.24948
# Poissons Ratio (y) = 0.08868 0.25090
# Poissons Ratio (z) = 0.31218 0.45396
#
# Static dielectric constant tensor:
#      x y z
#    x 1.664830 0.000000 0.000000 
#    y 0.000000 1.777970 0.000000 
#    z 0.000000 0.000000 1.649670 
# 
# From -- ./inp_files/23348.got.cif
#   From: 2010.05.17/outbox.cif.g08.bks.cpg/sg60_12_cif.got.tgz:23348.got - 2010.06.03 14:59:27.
