data_PCOD9454470
_publ_section_title
;
Structure prediction by ZEFSAII (Michael W. Deem and Ramdas Pophale) SiO2 
 PCOD9454470
Probable space group: P B C N
;
_chemical_formula_sum "Si O2"
_cell_formula_units_Z 60
_cell_length_a 17.313679
_cell_length_b 26.138051
_cell_length_c 5.677197
_cell_angle_alpha 90.000000
_cell_angle_beta 90.000000
_cell_angle_gamma 90.000000
_cell_volume 2569.191798
_symmetry_space_group_name_H-M "P B C N"
_symmetry_group_IT_number 60
_symmetry_cell_setting 'orthorhombic'
loop_
_space_group_symop_operation_xyz
x,y,z
1/2-x,1/2-y,1/2+z
1/2+x,1/2-y,-z
-x,y,1/2-z
-x,-y,-z
1/2+x,1/2+y,1/2-z
1/2-x,1/2+y,z
x,-y,1/2+z
loop_
_atom_site_type_symbol
_atom_site_label
_atom_site_fract_x
_atom_site_fract_y
_atom_site_fract_z
Si Si1 0.769009 0.986241 0.926699
Si Si2 0.297739 0.207536 0.807244
Si Si3 0.137413 0.822813 0.806600
Si Si4 0.285944 0.877203 0.684687
Si Si5 0.886683 0.201444 0.710926
Si Si6 0.500000 0.795118 0.750000
Si Si7 0.903837 0.476039 0.354801
Si Si8 0.411673 0.134043 0.538002
O O1 0.743410 0.927057 0.952426
O O2 0.807857 0.994187 0.668353
O O3 0.689037 0.017062 0.884659
O O4 0.332069 0.263991 0.806169
O O5 0.205876 0.209292 0.768883
O O6 0.348566 0.174171 0.630192
O O7 0.303848 0.173678 0.039715
O O8 0.209996 0.860781 0.830394
O O9 0.101359 0.825689 0.543142
O O10 0.089338 0.827466 0.047969
O O11 0.365959 0.888931 0.812221
O O12 0.929414 0.255767 0.729569
O O13 0.512737 0.833839 0.532477
O O14 0.929563 0.504311 0.114325
O O15 0.920750 0.416388 0.310758
#
# Coordination Sequence:
#
# PCOD9454470 Si02
#       8
#     8   8   8   8   8   4   8   8
#     4  10  19  34  55  85 120 156 197 262 326 349
#     4  11  21  37  61  88 116 161 209 259 311 391
#     4  11  22  38  60  86 116 155 203 257 310 385
#     4  11  22  34  64  88 118 162 218 258 316 377
#     4  11  23  41  58  83 124 156 201 256 314 365
#     4  12  26  44  58  96 126 170 216 276 308 372
#     4  10  20  37  58  82 115 157 207 268 316 353
#     4  12  22  39  62  87 119 169 215 262 315 379
#
# _framework density 23.353646999999999
#
# number of rings (size 3 to 8) (size 9 to 14) (size 15 to 20)
#    0.000    1.067    5.333    4.800    0.000    0.533 
#    2.400    0.667    0.000    0.000    0.000    0.000 
#    0.000    0.000    0.000  150.000    0.000    0.000 
#
# Total GULP energy -334882.540829 kJ/mol
# GULP energy per Si atom -5581.375680 kJ/mol
# Density = 2.330049 g / cm^3
# Si number density = 23.353647 Si / 1000 Ang^3
#
#
#
# Elastic Constant Matrix: (Units=GPa)
#
#
# Indices 1 2 3 4 5 6 
#
# 1 43.9438 26.1943 8.0520 0.0000 0.0000 0.0000
# 2 26.1943 80.1820 9.9930 0.0000 0.0000 0.0000
# 3 8.0520 9.9930 159.6874 0.0000 0.0000 0.0000
# 4 0.0000 0.0000 0.0000 169.1769 0.0000 0.0000
# 5 0.0000 0.0000 0.0000 0.0000 10.8877 0.0000
# 6 0.0000 0.0000 0.0000 0.0000 0.0000 -87.0906
#
#
#
# Elastic Compliance Matrix: (Units=1/GPa)
#
#
# Indices 1 2 3 4 5 6 
#
# 1 0.028375 -0.009163 -0.000857 0.000000 0.000000 0.000000
# 2 -0.009163 0.015529 -0.000510 0.000000 0.000000 0.000000
# 3 -0.000857 -0.000510 0.006337 0.000000 0.000000 0.000000
# 4 0.000000 0.000000 0.000000 0.005911 0.000000 0.000000
# 5 0.000000 0.000000 0.000000 0.000000 0.091847 0.000000
# 6 0.000000 0.000000 0.000000 0.000000 0.000000 -0.011482
#
#
# Mechanical properties :
#
#
# Convention : Reuss Voigt Hill
#
# Bulk Modulus (GPa) = 34.26871 41.36576 37.81723
# Shear Modulus (GPa) = 29.88565 34.56639 32.22602
#
# Velocity S-wave (km/s) = 3.58117 3.85142 3.71875
# Velocity P-wave (km/s) = 5.63962 6.12610 5.88789
#
# Compressibility (1/GPa) = 0.02918114
#
# Stress axis : x y z
#
# Youngs Moduli (GPa) = 35.24180 64.39741 157.79429
#
# Poissons Ratio (x) = 0.59007 0.13529
# Poissons Ratio (y) = 0.32292 0.08043
# Poissons Ratio (z) = 0.03022 0.03282
#
# Static dielectric constant tensor:
#      x y z
#    x 1.956960 0.000000 0.000000 
#    y 0.000000 1.877450 0.000000 
#    z 0.000000 0.000000 2.101640 
# 
# From -- ./inp_files/1846.got.cif
#   From: 2010.05.17/outbox.cif.g08.bks.cpg/sg60_1_cif.got.tgz:1846.got - 2010.06.03 14:59:27.
