data_PCOD9454637
_publ_section_title
;
Structure prediction by ZEFSAII (Michael W. Deem and Ramdas Pophale) SiO2 
 PCOD9454637
Probable space group: P B C N
;
_chemical_formula_sum "Si O2"
_cell_formula_units_Z 52
_cell_length_a 8.282620
_cell_length_b 18.203034
_cell_length_c 17.598241
_cell_angle_alpha 90.000000
_cell_angle_beta 90.000000
_cell_angle_gamma 90.000000
_cell_volume 2653.265915
_symmetry_space_group_name_H-M "P B C N"
_symmetry_group_IT_number 60
_symmetry_cell_setting 'orthorhombic'
loop_
_space_group_symop_operation_xyz
x,y,z
1/2-x,1/2-y,1/2+z
1/2+x,1/2-y,-z
-x,y,1/2-z
-x,-y,-z
1/2+x,1/2+y,1/2-z
1/2-x,1/2+y,z
x,-y,1/2+z
loop_
_atom_site_type_symbol
_atom_site_label
_atom_site_fract_x
_atom_site_fract_y
_atom_site_fract_z
Si Si1 0.953701 0.778180 0.021339
Si Si2 0.500000 0.409838 0.750000
Si Si3 0.209379 0.570542 0.348755
Si Si4 0.038455 0.722431 0.328668
Si Si5 0.219321 0.141520 0.115213
Si Si6 0.419898 0.996011 0.084525
Si Si7 0.285387 0.137378 0.515075
O O1 0.883647 0.772862 0.106698
O O2 0.130777 0.812007 0.027015
O O3 0.860737 0.826689 0.960363
O O4 0.935736 0.693041 0.995697
O O5 0.640120 0.451919 0.703076
O O6 0.408957 0.364353 0.683811
O O7 0.248023 0.593244 0.436252
O O8 0.142064 0.648139 0.315754
O O9 0.065008 0.511930 0.356613
O O10 0.868845 0.692238 0.360655
O O11 0.000000 0.760714 0.250000
O O12 0.294142 0.061628 0.097885
O O13 0.327283 0.919055 0.081644
O O14 0.500000 0.000000 0.000000
#
# Coordination Sequence:
#
# PCOD9454637 Si02
#       7
#     8   4   8   8   8   8   8
#     4  11  21  35  62  96 125 162 222 259 316 393
#     4  12  20  34  62  98 124 154 234 276 308 378
#     4   9  19  34  58  89 119 164 207 261 321 368
#     4  10  19  36  59  87 128 171 211 266 328 388
#     4  11  22  37  63  94 121 169 217 274 315 390
#     4   9  21  40  60  84 121 164 207 255 333 374
#     4  10  20  37  58  90 125 160 208 264 314 384
#
# _framework density 19.598488
#
# number of rings (size 3 to 8) (size 9 to 14) (size 15 to 20)
#    0.000    1.846    4.615    0.923    0.000    0.615 
#    0.000    0.000    1.692    3.692    0.000    0.000 
#    0.000    0.000    0.000    0.000    0.000    0.000 
#
# Total GULP energy -289737.273131 kJ/mol
# GULP energy per Si atom -5571.870637 kJ/mol
# Density = 1.955388 g / cm^3
# Si number density = 19.598488 Si / 1000 Ang^3
#
#
#
# Elastic Constant Matrix: (Units=GPa)
#
#
# Indices 1 2 3 4 5 6 
#
# 1 99.7943 46.8389 46.3187 0.0000 0.0000 0.0000
# 2 46.8389 73.4370 49.3358 0.0000 0.0000 0.0000
# 3 46.3187 49.3358 104.6742 0.0000 0.0000 0.0000
# 4 0.0000 0.0000 0.0000 14.2941 0.0000 0.0000
# 5 0.0000 0.0000 0.0000 0.0000 43.4953 0.0000
# 6 0.0000 0.0000 0.0000 0.0000 0.0000 18.2991
#
#
#
# Elastic Compliance Matrix: (Units=1/GPa)
#
#
# Indices 1 2 3 4 5 6 
#
# 1 0.014962 -0.007456 -0.003107 0.000000 0.000000 0.000000
# 2 -0.007456 0.023642 -0.007844 0.000000 0.000000 0.000000
# 3 -0.003107 -0.007844 0.014625 0.000000 0.000000 0.000000
# 4 0.000000 0.000000 0.000000 0.069959 0.000000 0.000000
# 5 0.000000 0.000000 0.000000 0.000000 0.022991 0.000000
# 6 0.000000 0.000000 0.000000 0.000000 0.000000 0.054647
#
#
# Mechanical properties :
#
#
# Convention : Reuss Voigt Hill
#
# Bulk Modulus (GPa) = 60.91411 62.54359 61.72885
# Shear Modulus (GPa) = 20.56667 24.24517 22.40592
#
# Velocity S-wave (km/s) = 3.24296 3.52105 3.38486
# Velocity P-wave (km/s) = 6.72093 6.96506 6.84409
#
# Compressibility (1/GPa) = 0.01641656
#
# Stress axis : x y z
#
# Youngs Moduli (GPa) = 66.83619 42.29722 68.37516
#
# Poissons Ratio (x) = 0.31536 0.21241
# Poissons Ratio (y) = 0.49832 0.53633
# Poissons Ratio (z) = 0.20763 0.33178
#
# Static dielectric constant tensor:
#      x y z
#    x 1.754090 0.000000 0.000000 
#    y 0.000000 1.685880 0.000000 
#    z 0.000000 0.000000 1.749350 
# 
# From -- ./inp_files/19529.got.cif
#   From: 2010.05.17/outbox.cif.g08.bks.cpg/sg60_10_cif.got.tgz:19529.got - 2010.06.03 14:59:27.
