data_PCOD9454933
_publ_section_title
;
Structure prediction by ZEFSAII (Michael W. Deem and Ramdas Pophale) SiO2 
 PCOD9454933
Probable space group: P B C N
;
_chemical_formula_sum "Si O2"
_cell_formula_units_Z 60
_cell_length_a 4.849035
_cell_length_b 24.376519
_cell_length_c 18.343356
_cell_angle_alpha 90.000000
_cell_angle_beta 90.000000
_cell_angle_gamma 90.000000
_cell_volume 2168.232258
_symmetry_space_group_name_H-M "P B C N"
_symmetry_group_IT_number 60
_symmetry_cell_setting 'orthorhombic'
loop_
_space_group_symop_operation_xyz
x,y,z
1/2-x,1/2-y,1/2+z
1/2+x,1/2-y,-z
-x,y,1/2-z
-x,-y,-z
1/2+x,1/2+y,1/2-z
1/2-x,1/2+y,z
x,-y,1/2+z
loop_
_atom_site_type_symbol
_atom_site_label
_atom_site_fract_x
_atom_site_fract_y
_atom_site_fract_z
Si Si1 0.000000 0.500000 0.500000
Si Si2 0.654567 0.378792 0.512163
Si Si3 0.764860 0.373156 0.799334
Si Si4 0.263668 0.750227 0.697889
Si Si5 0.247520 0.565542 0.703315
Si Si6 0.630210 0.104246 0.584613
Si Si7 0.973855 0.031497 0.395532
Si Si8 0.980048 0.236392 0.452671
O O1 0.081298 0.460350 0.427858
O O2 0.723380 0.519200 0.461155
O O3 0.947975 0.366289 0.477293
O O4 0.718420 0.435298 0.558755
O O5 0.551220 0.327967 0.559808
O O6 0.443071 0.385259 0.443066
O O7 0.500000 0.363280 0.750000
O O8 0.869625 0.312698 0.820601
O O9 0.667839 0.416580 0.857088
O O10 0.000000 0.399517 0.750000
O O11 0.500000 0.725019 0.750000
O O12 0.152550 0.734586 0.617712
O O13 0.000000 0.749939 0.750000
O O14 0.500000 0.591914 0.750000
O O15 0.052504 0.609253 0.658759
O O16 0.428145 0.519277 0.659563
O O17 0.000000 0.537684 0.750000
O O18 0.767814 0.239511 0.519625
#
# Coordination Sequence:
#
# PCOD9454933 Si02
#       8
#     4   8   8   8   8   8   8   8
#     4   8  20  34  54  84 116 168 200 264 288 366
#     4  11  23  41  64  93 124 169 213 266 326 393
#     4  10  20  33  54  84 120 158 194 238 302 385
#     4  10  21  40  65  96 132 169 202 255 337 414
#     4  11  23  38  59  89 126 167 214 266 313 368
#     4  10  22  39  62  85 125 167 215 258 314 373
#     4  10  20  36  56  87 125 160 214 246 320 368
#     4  12  25  44  71 104 135 171 223 288 344 403
#
# _framework density 27.672312999999999
#
# number of rings (size 3 to 8) (size 9 to 14) (size 15 to 20)
#    0.000    1.600    1.333    3.200    0.000   10.133 
#    0.000    0.000    0.000   16.000    0.000    0.000 
#    0.000    0.000    0.000    0.000    0.000    0.000 
#
# Total GULP energy -334158.410826 kJ/mol
# GULP energy per Si atom -5569.306847 kJ/mol
# Density = 2.760933 g / cm^3
# Si number density = 27.672313 Si / 1000 Ang^3
#
#
#
# Elastic Constant Matrix: (Units=GPa)
#
#
# Indices 1 2 3 4 5 6 
#
# 1 141.4649 -5.5796 21.8484 0.0000 0.0000 0.0000
# 2 -5.5796 108.0967 14.1770 0.0000 0.0000 0.0000
# 3 21.8484 14.1770 93.7912 0.0000 0.0000 0.0000
# 4 0.0000 0.0000 0.0000 2.1980 0.0000 0.0000
# 5 0.0000 0.0000 0.0000 0.0000 45.8133 0.0000
# 6 0.0000 0.0000 0.0000 0.0000 0.0000 15.3345
#
#
#
# Elastic Compliance Matrix: (Units=1/GPa)
#
#
# Indices 1 2 3 4 5 6 
#
# 1 0.007373 0.000618 -0.001811 0.000000 0.000000 0.000000
# 2 0.000618 0.009490 -0.001578 0.000000 0.000000 0.000000
# 3 -0.001811 -0.001578 0.011322 0.000000 0.000000 0.000000
# 4 0.000000 0.000000 0.000000 0.454968 0.000000 0.000000
# 5 0.000000 0.000000 0.000000 0.000000 0.021828 0.000000
# 6 0.000000 0.000000 0.000000 0.000000 0.000000 0.065212
#
#
# Mechanical properties :
#
#
# Convention : Reuss Voigt Hill
#
# Bulk Modulus (GPa) = 44.16433 44.91604 44.54018
# Shear Modulus (GPa) = 8.57216 33.52960 21.05088
#
# Velocity S-wave (km/s) = 1.76195 3.48468 2.76111
# Velocity P-wave (km/s) = 4.48706 5.69713 5.12791
#
# Compressibility (1/GPa) = 0.02264271
#
# Stress axis : x y z
#
# Youngs Moduli (GPa) = 135.63076 105.37524 88.32032
#
# Poissons Ratio (x) = -0.06513 0.15994
# Poissons Ratio (y) = -0.08383 0.13941
# Poissons Ratio (z) = 0.24562 0.16633
#
# Static dielectric constant tensor:
#      x y z
#    x 2.120050 0.000000 0.000000 
#    y 0.000000 2.259850 0.000000 
#    z 0.000000 0.000000 2.308840 
# 
# From -- ./inp_files/18813.got.cif
#   From: 2010.05.17/outbox.cif.g08.bks.cpg/sg60_10_cif.got.tgz:18813.got - 2010.06.03 14:59:27.
