data_PCOD9454827
_publ_section_title
;
Structure prediction by ZEFSAII (Michael W. Deem and Ramdas Pophale) SiO2 
 PCOD9454827
Probable space group: P B C N
;
_chemical_formula_sum "Si O2"
_cell_formula_units_Z 60
_cell_length_a 10.881969
_cell_length_b 16.190617
_cell_length_c 17.372647
_cell_angle_alpha 90.000000
_cell_angle_beta 90.000000
_cell_angle_gamma 90.000000
_cell_volume 3060.813576
_symmetry_space_group_name_H-M "P B C N"
_symmetry_group_IT_number 60
_symmetry_cell_setting 'orthorhombic'
loop_
_space_group_symop_operation_xyz
x,y,z
1/2-x,1/2-y,1/2+z
1/2+x,1/2-y,-z
-x,y,1/2-z
-x,-y,-z
1/2+x,1/2+y,1/2-z
1/2-x,1/2+y,z
x,-y,1/2+z
loop_
_atom_site_type_symbol
_atom_site_label
_atom_site_fract_x
_atom_site_fract_y
_atom_site_fract_z
Si Si1 0.422279 0.673872 0.849852
Si Si2 0.913662 0.415091 0.822772
Si Si3 0.500000 0.473602 0.250000
Si Si4 0.721775 0.164251 0.921656
Si Si5 0.684499 0.744509 0.789389
Si Si6 0.986613 0.402626 0.992278
Si Si7 0.777132 0.842209 0.997233
Si Si8 0.187874 0.006994 0.119013
O O1 0.421232 0.585781 0.806481
O O2 0.557050 0.710822 0.829749
O O3 0.327846 0.728339 0.800444
O O4 0.378460 0.668486 0.936628
O O5 0.819610 0.341255 0.803023
O O6 0.984823 0.387108 0.900034
O O7 0.825979 0.489840 0.846367
O O8 0.000000 0.428463 0.750000
O O9 0.591503 0.515424 0.311110
O O10 0.712701 0.192433 0.832580
O O11 0.812808 0.083730 0.922167
O O12 0.597774 0.139017 0.963820
O O13 0.754501 0.252756 0.960455
O O14 0.855074 0.375192 0.025364
O O15 0.000000 0.500000 0.000000
O O16 0.820690 0.915137 0.938815
#
# Coordination Sequence:
#
# PCOD9454827 Si02
#       8
#     8   8   4   8   8   8   8   8
#     4  10  20  39  68  93 120 169 229 262 317 402
#     4  11  21  40  66  93 125 171 222 265 328 392
#     4  10  22  42  66  88 130 170 226 264 330 396
#     4  12  21  42  68  88 136 174 211 272 335 385
#     4  10  19  40  67  89 122 176 218 262 321 394
#     4  11  23  42  63  98 131 165 220 274 323 400
#     4  11  25  40  68  98 132 170 222 274 339 388
#     4  11  23  43  63  96 130 175 213 279 324 398
#
# _framework density 19.602632
#
# number of rings (size 3 to 8) (size 9 to 14) (size 15 to 20)
#    0.000    1.333    9.333    0.800    0.000    1.600 
#    0.000    2.000    1.467    0.000    0.000    0.000 
#    0.000    0.000    0.000    0.000    0.000    0.000 
#
# Total GULP energy -334106.670765 kJ/mol
# GULP energy per Si atom -5568.444513 kJ/mol
# Density = 1.955802 g / cm^3
# Si number density = 19.602632 Si / 1000 Ang^3
#
#
#
# Elastic Constant Matrix: (Units=GPa)
#
#
# Indices 1 2 3 4 5 6 
#
# 1 48.1004 17.0920 22.7566 0.0000 0.0000 0.0000
# 2 17.0920 115.2014 25.8960 0.0000 0.0000 0.0000
# 3 22.7566 25.8960 93.0583 0.0000 0.0000 0.0000
# 4 0.0000 0.0000 0.0000 26.0051 0.0000 0.0000
# 5 0.0000 0.0000 0.0000 0.0000 48.1189 0.0000
# 6 0.0000 0.0000 0.0000 0.0000 0.0000 20.8168
#
#
#
# Elastic Compliance Matrix: (Units=1/GPa)
#
#
# Indices 1 2 3 4 5 6 
#
# 1 0.024118 -0.002403 -0.005229 0.000000 0.000000 0.000000
# 2 -0.002403 0.009499 -0.002056 0.000000 0.000000 0.000000
# 3 -0.005229 -0.002056 0.012597 0.000000 0.000000 0.000000
# 4 0.000000 0.000000 0.000000 0.038454 0.000000 0.000000
# 5 0.000000 0.000000 0.000000 0.000000 0.020782 0.000000
# 6 0.000000 0.000000 0.000000 0.000000 0.000000 0.048038
#
#
# Mechanical properties :
#
#
# Convention : Reuss Voigt Hill
#
# Bulk Modulus (GPa) = 37.26056 43.09438 40.17747
# Shear Modulus (GPa) = 27.50143 31.69587 29.59865
#
# Velocity S-wave (km/s) = 3.74966 4.02546 3.89000
# Velocity P-wave (km/s) = 6.14783 6.60586 6.38096
#
# Compressibility (1/GPa) = 0.02683803
#
# Stress axis : x y z
#
# Youngs Moduli (GPa) = 41.46352 105.27350 79.38549
#
# Poissons Ratio (x) = 0.25295 0.41511
# Poissons Ratio (y) = 0.09963 0.16320
# Poissons Ratio (z) = 0.21682 0.21642
#
# Static dielectric constant tensor:
#      x y z
#    x 1.703410 0.000000 0.000000 
#    y 0.000000 1.742340 0.000000 
#    z 0.000000 0.000000 1.732980 
# 
# From -- ./inp_files/20173.got.cif
#   From: 2010.05.17/outbox.cif.g08.bks.cpg/sg60_11_cif.got.tgz:20173.got - 2010.06.03 14:59:27.
