data_PCOD9454937
_publ_section_title
;
Structure prediction by ZEFSAII (Michael W. Deem and Ramdas Pophale) SiO2 
 PCOD9454937
Probable space group: P B C N
;
_chemical_formula_sum "Si O2"
_cell_formula_units_Z 56
_cell_length_a 10.152260
_cell_length_b 18.916066
_cell_length_c 12.668823
_cell_angle_alpha 90.000000
_cell_angle_beta 90.000000
_cell_angle_gamma 90.000000
_cell_volume 2432.931160
_symmetry_space_group_name_H-M "P B C N"
_symmetry_group_IT_number 60
_symmetry_cell_setting 'orthorhombic'
loop_
_space_group_symop_operation_xyz
x,y,z
1/2-x,1/2-y,1/2+z
1/2+x,1/2-y,-z
-x,y,1/2-z
-x,-y,-z
1/2+x,1/2+y,1/2-z
1/2-x,1/2+y,z
x,-y,1/2+z
loop_
_atom_site_type_symbol
_atom_site_label
_atom_site_fract_x
_atom_site_fract_y
_atom_site_fract_z
Si Si1 0.707581 0.663585 0.921832
Si Si2 0.121018 0.213449 0.372811
Si Si3 0.457591 0.094064 0.494815
Si Si4 0.150319 0.956453 0.250563
Si Si5 0.095856 0.484411 0.666281
Si Si6 0.322705 0.301970 0.650707
Si Si7 0.760472 0.360905 0.065271
O O1 0.670327 0.603591 0.839516
O O2 0.718418 0.738801 0.864327
O O3 0.612111 0.668664 0.020490
O O4 0.846308 0.650974 0.982284
O O5 0.176263 0.172170 0.271209
O O6 0.215724 0.281318 0.390558
O O7 0.968253 0.232606 0.356186
O O8 0.394307 0.026695 0.555544
O O9 0.590696 0.112352 0.554988
O O10 0.506916 0.081187 0.375143
O O11 0.262115 0.014054 0.220929
O O12 0.183563 0.914381 0.358709
O O13 0.000000 0.982226 0.250000
O O14 0.000000 0.522660 0.750000
O O15 0.297480 0.354224 0.553217
#
# Coordination Sequence:
#
# PCOD9454937 Si02
#       7
#     8   8   8   8   8   8   8
#     4  10  20  35  56  88 119 157 201 243 301 358
#     4  10  20  35  54  84 125 161 195 238 287 369
#     4  10  21  37  62  88 112 155 207 261 291 359
#     4  11  22  38  63  89 119 155 201 256 313 367
#     4  10  21  39  65  87 111 151 213 253 310 359
#     4  10  20  33  55  84 121 165 199 232 292 367
#     4  11  20  35  59  87 119 159 197 241 303 357
#
# _framework density 23.017503999999999
#
# number of rings (size 3 to 8) (size 9 to 14) (size 15 to 20)
#    0.000    1.714    4.286    0.857    0.000    1.143 
#    0.000    0.714    6.286    0.000    0.000    0.000 
#    0.000    0.000    0.000    0.000    0.000    0.000 
#
# Total GULP energy -312059.029374 kJ/mol
# GULP energy per Si atom -5572.482667 kJ/mol
# Density = 2.296511 g / cm^3
# Si number density = 23.017504 Si / 1000 Ang^3
#
#
#
# Elastic Constant Matrix: (Units=GPa)
#
#
# Indices 1 2 3 4 5 6 
#
# 1 92.4011 -3.3469 -4.9336 0.0000 0.0000 0.0000
# 2 -3.3469 35.4988 10.8153 0.0000 0.0000 0.0000
# 3 -4.9336 10.8153 102.9255 0.0000 0.0000 0.0000
# 4 0.0000 0.0000 0.0000 3.8443 0.0000 0.0000
# 5 0.0000 0.0000 0.0000 0.0000 31.3610 0.0000
# 6 0.0000 0.0000 0.0000 0.0000 0.0000 7.9011
#
#
#
# Elastic Compliance Matrix: (Units=1/GPa)
#
#
# Indices 1 2 3 4 5 6 
#
# 1 0.010878 0.000895 0.000427 0.000000 0.000000 0.000000
# 2 0.000895 0.029175 -0.003023 0.000000 0.000000 0.000000
# 3 0.000427 -0.003023 0.010054 0.000000 0.000000 0.000000
# 4 0.000000 0.000000 0.000000 0.260128 0.000000 0.000000
# 5 0.000000 0.000000 0.000000 0.000000 0.031887 0.000000
# 6 0.000000 0.000000 0.000000 0.000000 0.000000 0.126564
#
#
# Mechanical properties :
#
#
# Convention : Reuss Voigt Hill
#
# Bulk Modulus (GPa) = 21.41025 26.21057 23.81041
# Shear Modulus (GPa) = 10.25315 23.84065 17.04690
#
# Velocity S-wave (km/s) = 2.11286 3.22182 2.72436
# Velocity P-wave (km/s) = 3.90822 5.02515 4.50146
#
# Compressibility (1/GPa) = 0.04670660
#
# Stress axis : x y z
#
# Youngs Moduli (GPa) = 91.93180 34.27556 99.46408
#
# Poissons Ratio (x) = -0.03069 -0.04250
# Poissons Ratio (y) = -0.08231 0.30066
# Poissons Ratio (z) = -0.03928 0.10361
#
# Static dielectric constant tensor:
#      x y z
#    x 1.876920 0.000000 0.000000 
#    y 0.000000 1.932690 0.000000 
#    z 0.000000 0.000000 1.943820 
# 
# From -- ./inp_files/11321.got.cif
#   From: 2010.05.17/outbox.cif.g08.bks.cpg/sg60_6_cif.got.tgz:11321.got - 2010.06.03 14:59:27.
