data_PCOD9454251
_publ_section_title
;
Structure prediction by ZEFSAII (Michael W. Deem and Ramdas Pophale) SiO2 
 PCOD9454251
Probable space group: P B C N
;
_chemical_formula_sum "Si O2"
_cell_formula_units_Z 44
_cell_length_a 5.319906
_cell_length_b 17.027335
_cell_length_c 20.850517
_cell_angle_alpha 90.000000
_cell_angle_beta 90.000000
_cell_angle_gamma 90.000000
_cell_volume 1888.719513
_symmetry_space_group_name_H-M "P B C N"
_symmetry_group_IT_number 60
_symmetry_cell_setting 'orthorhombic'
loop_
_space_group_symop_operation_xyz
x,y,z
1/2-x,1/2-y,1/2+z
1/2+x,1/2-y,-z
-x,y,1/2-z
-x,-y,-z
1/2+x,1/2+y,1/2-z
1/2-x,1/2+y,z
x,-y,1/2+z
loop_
_atom_site_type_symbol
_atom_site_label
_atom_site_fract_x
_atom_site_fract_y
_atom_site_fract_z
Si Si1 0.973017 0.847001 0.540668
Si Si2 0.087636 0.876025 0.175852
Si Si3 0.000000 0.164396 0.250000
Si Si4 0.899599 0.716038 0.642969
Si Si5 0.700795 0.443928 0.855026
Si Si6 0.520159 0.911839 0.975471
O O1 0.953368 0.767177 0.579699
O O2 0.722566 0.864709 0.502731
O O3 0.230288 0.864861 0.504385
O O4 0.986330 0.915003 0.595475
O O5 0.342667 0.827619 0.162804
O O6 0.158992 0.965186 0.157849
O O7 0.000000 0.875110 0.250000
O O8 0.845356 0.838977 0.140185
O O9 0.856415 0.220227 0.199938
O O10 0.821073 0.107949 0.291602
O O11 0.940229 0.419821 0.898263
O O12 0.500000 0.000000 0.000000
#
# Coordination Sequence:
#
# PCOD9454251 Si02
#       6
#     8   8   4   8   8   8
#     4   9  21  38  61  90 109 159 200 253 296 351
#     4  12  22  37  53  87 123 166 189 241 303 367
#     4  10  18  42  52  92 118 166 202 244 286 378
#     4  11  23  37  58  83 126 162 203 233 299 375
#     4   9  23  35  61  86 125 152 200 249 302 353
#     4  10  20  38  65  91 112 148 209 261 309 348
#
# _framework density 23.296208
#
# number of rings (size 3 to 8) (size 9 to 14) (size 15 to 20)
#    1.091    0.727    2.727    1.636    2.545    0.000 
#    0.000    0.000    0.000    4.364    0.000    0.000 
#    0.000    0.000    0.000    0.000    0.000    0.000 
#
# Total GULP energy -245706.184681 kJ/mol
# GULP energy per Si atom -5584.231470 kJ/mol
# Density = 2.324318 g / cm^3
# Si number density = 23.296208 Si / 1000 Ang^3
#
#
#
# Elastic Constant Matrix: (Units=GPa)
#
#
# Indices 1 2 3 4 5 6 
#
# 1 162.6021 22.1293 -1.6104 0.0000 0.0000 0.0000
# 2 22.1293 96.8329 17.6425 0.0000 0.0000 0.0000
# 3 -1.6104 17.6425 51.1720 0.0000 0.0000 0.0000
# 4 0.0000 0.0000 0.0000 -38.2998 0.0000 0.0000
# 5 0.0000 0.0000 0.0000 0.0000 12.1883 0.0000
# 6 0.0000 0.0000 0.0000 0.0000 0.0000 6.0375
#
#
#
# Elastic Compliance Matrix: (Units=1/GPa)
#
#
# Indices 1 2 3 4 5 6 
#
# 1 0.006374 -0.001593 0.000750 0.000000 0.000000 0.000000
# 2 -0.001593 0.011418 -0.003987 0.000000 0.000000 0.000000
# 3 0.000750 -0.003987 0.020940 0.000000 0.000000 0.000000
# 4 0.000000 0.000000 0.000000 -0.026110 0.000000 0.000000
# 5 0.000000 0.000000 0.000000 0.000000 0.082046 0.000000
# 6 0.000000 0.000000 0.000000 0.000000 0.000000 0.165630
#
#
# Mechanical properties :
#
#
# Convention : Reuss Voigt Hill
#
# Bulk Modulus (GPa) = 34.39754 42.99219 38.69487
# Shear Modulus (GPa) = 17.87957 14.14824 16.01391
#
# Velocity S-wave (km/s) = 2.77336 2.46706 2.62468
# Velocity P-wave (km/s) = 5.00527 5.15847 5.08245
#
# Compressibility (1/GPa) = 0.02907184
#
# Stress axis : x y z
#
# Youngs Moduli (GPa) = 156.88105 87.58462 47.75556
#
# Poissons Ratio (x) = 0.13955 -0.03581
# Poissons Ratio (y) = 0.24997 0.19038
# Poissons Ratio (z) = -0.11765 0.34916
#
# Static dielectric constant tensor:
#      x y z
#    x 2.671160 0.000000 0.000000 
#    y 0.000000 1.833200 0.000000 
#    z 0.000000 0.000000 1.894030 
# 
# From -- ./inp_files/25650.got.cif
#   From: 2010.05.17/outbox.cif.g08.bks.cpg/sg60_13_cif.got.tgz:25650.got - 2010.06.03 14:59:27.
