data_PCOD9454604
_publ_section_title
;
Structure prediction by ZEFSAII (Michael W. Deem and Ramdas Pophale) SiO2 
 PCOD9454604
Probable space group: P B C N
;
_chemical_formula_sum "Si O2"
_cell_formula_units_Z 56
_cell_length_a 20.250062
_cell_length_b 11.915523
_cell_length_c 8.854901
_cell_angle_alpha 90.000000
_cell_angle_beta 90.000000
_cell_angle_gamma 90.000000
_cell_volume 2136.599766
_symmetry_space_group_name_H-M "P B C N"
_symmetry_group_IT_number 60
_symmetry_cell_setting 'orthorhombic'
loop_
_space_group_symop_operation_xyz
x,y,z
1/2-x,1/2-y,1/2+z
1/2+x,1/2-y,-z
-x,y,1/2-z
-x,-y,-z
1/2+x,1/2+y,1/2-z
1/2-x,1/2+y,z
x,-y,1/2+z
loop_
_atom_site_type_symbol
_atom_site_label
_atom_site_fract_x
_atom_site_fract_y
_atom_site_fract_z
Si Si1 0.141496 0.151113 0.493654
Si Si2 0.904909 0.403513 0.990435
Si Si3 0.625352 0.523722 0.298902
Si Si4 0.219415 0.723904 0.387682
Si Si5 0.000000 0.309421 0.750000
Si Si6 0.500000 0.905539 0.250000
Si Si7 0.921204 0.239705 0.470955
Si Si8 0.766600 0.592922 0.417323
O O1 0.115632 0.275965 0.462506
O O2 0.115991 0.060986 0.371826
O O3 0.220317 0.154861 0.462875
O O4 0.114885 0.103892 0.651692
O O5 0.836078 0.464754 0.953405
O O6 0.947141 0.385703 0.839879
O O7 0.949564 0.453179 0.122175
O O8 0.587032 0.619154 0.392767
O O9 0.702454 0.537656 0.346165
O O10 0.150457 0.718450 0.473732
O O11 0.243090 0.850593 0.425418
O O12 0.215416 0.685946 0.213801
O O13 0.966865 0.238911 0.617459
O O14 0.453148 0.826850 0.145709
#
# Coordination Sequence:
#
# PCOD9454604 Si02
#       8
#     8   8   8   8   4   4   8   8
#     4  10  21  35  51  74 105 135 166 209 255 300
#     4  10  19  36  52  77 104 131 173 212 249 298
#     4  10  21  35  51  74 105 135 166 209 255 300
#     4   9  18  32  53  76  99 127 166 217 261 293
#     4  10  20  30  57  76  97 136 176 204 246 306
#     4  10  20  34  53  72 107 138 170 210 246 294
#     4  10  19  36  52  77 104 131 173 212 249 298
#     4   9  18  32  53  76  99 127 166 217 261 293
#
# _framework density 26.209869999999999
#
# number of rings (size 3 to 8) (size 9 to 14) (size 15 to 20)
#    0.000    2.286    2.857    0.000    4.000    1.143 
#    0.000    4.286    0.000    0.000    0.000    6.000 
#    0.000    0.000    0.000    0.000    0.000    0.000 
#
# Total GULP energy -313342.131928 kJ/mol
# GULP energy per Si atom -5595.395213 kJ/mol
# Density = 2.615022 g / cm^3
# Si number density = 26.209870 Si / 1000 Ang^3
#
#
#
# Elastic Constant Matrix: (Units=GPa)
#
#
# Indices 1 2 3 4 5 6 
#
# 1 127.3210 -2.8917 45.3734 0.0000 0.0000 0.0000
# 2 -2.8917 37.5316 2.2984 0.0000 0.0000 0.0000
# 3 45.3734 2.2984 92.3084 0.0000 0.0000 0.0000
# 4 0.0000 0.0000 0.0000 44.4179 0.0000 0.0000
# 5 0.0000 0.0000 0.0000 0.0000 42.8013 0.0000
# 6 0.0000 0.0000 0.0000 0.0000 0.0000 15.8114
#
#
#
# Elastic Compliance Matrix: (Units=1/GPa)
#
#
# Indices 1 2 3 4 5 6 
#
# 1 0.009561 0.001026 -0.004725 0.000000 0.000000 0.000000
# 2 0.001026 0.026795 -0.001172 0.000000 0.000000 0.000000
# 3 -0.004725 -0.001172 0.013185 0.000000 0.000000 0.000000
# 4 0.000000 0.000000 0.000000 0.022513 0.000000 0.000000
# 5 0.000000 0.000000 0.000000 0.000000 0.023364 0.000000
# 6 0.000000 0.000000 0.000000 0.000000 0.000000 0.063246
#
#
# Mechanical properties :
#
#
# Convention : Reuss Voigt Hill
#
# Bulk Modulus (GPa) = 25.12567 38.52458 31.82512
# Shear Modulus (GPa) = 27.52199 34.76483 31.14341
#
# Velocity S-wave (km/s) = 3.24398 3.64593 3.45081
# Velocity P-wave (km/s) = 4.86193 5.69686 5.29587
#
# Compressibility (1/GPa) = 0.03979993
#
# Stress axis : x y z
#
# Youngs Moduli (GPa) = 104.58652 37.32034 75.84285
#
# Poissons Ratio (x) = -0.03829 0.35839
# Poissons Ratio (y) = -0.10731 0.08885
# Poissons Ratio (z) = 0.49421 0.04372
#
# Static dielectric constant tensor:
#      x y z
#    x 2.076170 0.000000 0.000000 
#    y 0.000000 2.190120 0.000000 
#    z 0.000000 0.000000 1.997870 
# 
# From -- ./inp_files/7460.got.cif
#   From: 2010.05.17/outbox.cif.g08.bks.cpg/sg60_4_cif.got.tgz:7460.got - 2010.06.03 14:59:27.
