data_PCOD9454647
_publ_section_title
;
Structure prediction by ZEFSAII (Michael W. Deem and Ramdas Pophale) SiO2 
 PCOD9454647
Probable space group: P B C N
;
_chemical_formula_sum "Si O2"
_cell_formula_units_Z 64
_cell_length_a 14.819168
_cell_length_b 5.604358
_cell_length_c 30.978704
_cell_angle_alpha 90.000000
_cell_angle_beta 90.000000
_cell_angle_gamma 90.000000
_cell_volume 2572.840931
_symmetry_space_group_name_H-M "P B C N"
_symmetry_group_IT_number 60
_symmetry_cell_setting 'orthorhombic'
loop_
_space_group_symop_operation_xyz
x,y,z
1/2-x,1/2-y,1/2+z
1/2+x,1/2-y,-z
-x,y,1/2-z
-x,-y,-z
1/2+x,1/2+y,1/2-z
1/2-x,1/2+y,z
x,-y,1/2+z
loop_
_atom_site_type_symbol
_atom_site_label
_atom_site_fract_x
_atom_site_fract_y
_atom_site_fract_z
Si Si1 0.999714 0.596555 0.382401
Si Si2 0.231713 0.173244 0.182362
Si Si3 0.279074 0.214150 0.485225
Si Si4 0.034403 0.160064 0.961298
Si Si5 0.702815 0.850478 0.725758
Si Si6 0.149852 0.784606 0.905339
Si Si7 0.036297 0.328725 0.205327
Si Si8 0.408806 0.451296 0.329822
O O1 0.970402 0.675662 0.430954
O O2 0.092665 0.449571 0.392211
O O3 0.956618 0.453089 0.342404
O O4 0.014182 0.853097 0.360885
O O5 0.256219 0.420414 0.158946
O O6 0.303558 0.159934 0.222336
O O7 0.133657 0.194404 0.205525
O O8 0.262877 0.475808 0.505801
O O9 0.385177 0.175237 0.479609
O O10 0.232672 0.255342 0.437667
O O11 0.085396 0.960789 0.932401
O O12 0.000000 0.000000 0.000000
O O13 0.762809 0.614006 0.716314
O O14 0.620715 0.780661 0.695977
O O15 0.166102 0.927197 0.860648
O O16 0.000000 0.452483 0.250000
O O17 0.955142 0.139439 0.200669
#
# Coordination Sequence:
#
# PCOD9454647 Si02
#       8
#     8   8   8   8   8   8   8   8
#     4  10  22  40  61  93 128 168 226 273 340 404
#     4  10  23  41  61  87 122 169 225 277 335 391
#     4  10  19  36  60  93 135 169 209 254 328 403
#     4  10  21  39  64  96 132 177 212 266 332 403
#     4  10  22  37  56  85 126 164 213 265 329 400
#     4   9  20  38  58  94 129 170 204 265 329 403
#     4  11  24  40  64  91 128 174 226 281 338 402
#     4  10  23  37  61  90 130 168 216 271 338 404
#
# _framework density 24.875226999999999
#
# number of rings (size 3 to 8) (size 9 to 14) (size 15 to 20)
#    0.000    2.000    1.250    1.500    8.750    4.000 
#    0.000    0.000    0.000    3.000    0.000    0.000 
#    0.000    0.000    0.000    0.000    0.000    0.000 
#
# Total GULP energy -356427.891198 kJ/mol
# GULP energy per Si atom -5569.185800 kJ/mol
# Density = 2.481861 g / cm^3
# Si number density = 24.875227 Si / 1000 Ang^3
#
#
#
# Elastic Constant Matrix: (Units=GPa)
#
#
# Indices 1 2 3 4 5 6 
#
# 1 26.5043 2.3688 5.4318 0.0000 0.0000 0.0000
# 2 2.3688 124.0980 16.8595 0.0000 0.0000 0.0000
# 3 5.4318 16.8595 47.1317 0.0000 0.0000 0.0000
# 4 0.0000 0.0000 0.0000 26.4939 0.0000 0.0000
# 5 0.0000 0.0000 0.0000 0.0000 26.7324 0.0000
# 6 0.0000 0.0000 0.0000 0.0000 0.0000 19.6430
#
#
#
# Elastic Compliance Matrix: (Units=1/GPa)
#
#
# Indices 1 2 3 4 5 6 
#
# 1 0.038645 -0.000139 -0.004404 0.000000 0.000000 0.000000
# 2 -0.000139 0.008470 -0.003014 0.000000 0.000000 0.000000
# 3 -0.004404 -0.003014 0.022803 0.000000 0.000000 0.000000
# 4 0.000000 0.000000 0.000000 0.037745 0.000000 0.000000
# 5 0.000000 0.000000 0.000000 0.000000 0.037408 0.000000
# 6 0.000000 0.000000 0.000000 0.000000 0.000000 0.050909
#
#
# Mechanical properties :
#
#
# Convention : Reuss Voigt Hill
#
# Bulk Modulus (GPa) = 18.24695 27.45044 22.84870
# Shear Modulus (GPa) = 21.79972 26.11212 23.95592
#
# Velocity S-wave (km/s) = 2.96355 3.24346 3.10666
# Velocity P-wave (km/s) = 4.36595 5.00858 4.69827
#
# Compressibility (1/GPa) = 0.05480367
#
# Stress axis : x y z
#
# Youngs Moduli (GPa) = 25.87676 118.06015 43.85436
#
# Poissons Ratio (x) = 0.01645 0.19313
# Poissons Ratio (y) = 0.00361 0.13217
# Poissons Ratio (z) = 0.11396 0.35581
#
# Static dielectric constant tensor:
#      x y z
#    x 2.170150 0.000000 0.000000 
#    y 0.000000 2.042590 0.000000 
#    z 0.000000 0.000000 2.111280 
# 
# From -- ./inp_files/26217.got.cif
#   From: 2010.05.17/outbox.cif.g08.bks.cpg/sg60_14_cif.got.tgz:26217.got - 2010.06.03 14:59:27.
