data_PCOD9454437
_publ_section_title
;
Structure prediction by ZEFSAII (Michael W. Deem and Ramdas Pophale) SiO2 
 PCOD9454437
Probable space group: P B C N
;
_chemical_formula_sum "Si O2"
_cell_formula_units_Z 32
_cell_length_a 5.045727
_cell_length_b 19.034883
_cell_length_c 17.915779
_cell_angle_alpha 90.000000
_cell_angle_beta 90.000000
_cell_angle_gamma 90.000000
_cell_volume 1720.717825
_symmetry_space_group_name_H-M "P B C N"
_symmetry_group_IT_number 60
_symmetry_cell_setting 'orthorhombic'
loop_
_space_group_symop_operation_xyz
x,y,z
1/2-x,1/2-y,1/2+z
1/2+x,1/2-y,-z
-x,y,1/2-z
-x,-y,-z
1/2+x,1/2+y,1/2-z
1/2-x,1/2+y,z
x,-y,1/2+z
loop_
_atom_site_type_symbol
_atom_site_label
_atom_site_fract_x
_atom_site_fract_y
_atom_site_fract_z
Si Si1 0.960052 0.705565 0.016927
Si Si2 0.548289 0.130037 0.167713
Si Si3 0.707610 0.059124 0.969531
Si Si4 0.029990 0.048434 0.117182
O O1 0.887696 0.685005 0.102368
O O2 0.250156 0.738051 0.012379
O O3 0.934647 0.634022 0.968707
O O4 0.500000 0.159114 0.250000
O O5 0.778295 0.070006 0.167312
O O6 0.276058 0.094609 0.141771
O O7 0.929115 0.067033 0.033900
O O8 0.851840 0.029688 0.895706
O O9 0.500000 0.000000 0.000000
#
# Coordination Sequence:
#
# PCOD9454437 Si02
#       4
#     8   8   8   8
#     4  11  23  36  58  93 120 156 208 247 301 369
#     4  11  22  38  59  88 121 158 208 255 303 369
#     4  10  19  35  61  86 123 143 194 252 309 342
#     4  10  19  33  59  88 110 149 195 243 306 345
#
# _framework density 18.596890999999999
#
# number of rings (size 3 to 8) (size 9 to 14) (size 15 to 20)
#    0.000    1.500    5.000    3.750    3.500    0.000 
#    0.000    0.000    0.000    6.000    0.000    0.000 
#    0.000    0.000    0.000    0.000    0.000    0.000 
#
# Total GULP energy -178289.213989 kJ/mol
# GULP energy per Si atom -5571.537937 kJ/mol
# Density = 1.855456 g / cm^3
# Si number density = 18.596891 Si / 1000 Ang^3
#
#
#
# Elastic Constant Matrix: (Units=GPa)
#
#
# Indices 1 2 3 4 5 6 
#
# 1 101.0680 17.6993 -5.8203 0.0000 0.0000 0.0000
# 2 17.6993 68.4250 21.3847 0.0000 0.0000 0.0000
# 3 -5.8203 21.3847 64.9259 0.0000 0.0000 0.0000
# 4 0.0000 0.0000 0.0000 19.2744 0.0000 0.0000
# 5 0.0000 0.0000 0.0000 0.0000 19.1973 0.0000
# 6 0.0000 0.0000 0.0000 0.0000 0.0000 33.7328
#
#
#
# Elastic Compliance Matrix: (Units=1/GPa)
#
#
# Indices 1 2 3 4 5 6 
#
# 1 0.010607 -0.003390 0.002067 0.000000 0.000000 0.000000
# 2 -0.003390 0.017375 -0.006027 0.000000 0.000000 0.000000
# 3 0.002067 -0.006027 0.017573 0.000000 0.000000 0.000000
# 4 0.000000 0.000000 0.000000 0.051882 0.000000 0.000000
# 5 0.000000 0.000000 0.000000 0.000000 0.052091 0.000000
# 6 0.000000 0.000000 0.000000 0.000000 0.000000 0.029645
#
#
# Mechanical properties :
#
#
# Convention : Reuss Voigt Hill
#
# Bulk Modulus (GPa) = 32.40835 33.43846 32.92340
# Shear Modulus (GPa) = 24.49112 27.85125 26.17118
#
# Velocity S-wave (km/s) = 3.63291 3.87412 3.75545
# Velocity P-wave (km/s) = 5.92132 6.16696 6.04539
#
# Compressibility (1/GPa) = 0.03085624
#
# Stress axis : x y z
#
# Youngs Moduli (GPa) = 94.27722 57.55437 56.90703
#
# Poissons Ratio (x) = 0.19510 -0.11765
# Poissons Ratio (y) = 0.31958 0.34296
# Poissons Ratio (z) = -0.19491 0.34686
#
# Static dielectric constant tensor:
#      x y z
#    x 1.692190 0.000000 0.000000 
#    y 0.000000 1.686270 0.000000 
#    z 0.000000 0.000000 1.673390 
# 
# From -- ./inp_files/18485.got.cif
#   From: 2010.05.17/outbox.cif.g08.bks.cpg/sg60_10_cif.got.tgz:18485.got - 2010.06.03 14:59:27.
