data_PCOD9454190
_publ_section_title
;
Structure prediction by ZEFSAII (Michael W. Deem and Ramdas Pophale) SiO2 
 PCOD9454190
Probable space group: P B C N
;
_chemical_formula_sum "Si O2"
_cell_formula_units_Z 48
_cell_length_a 8.621923
_cell_length_b 9.146277
_cell_length_c 34.379563
_cell_angle_alpha 90.000000
_cell_angle_beta 90.000000
_cell_angle_gamma 90.000000
_cell_volume 2711.120632
_symmetry_space_group_name_H-M "P B C N"
_symmetry_group_IT_number 60
_symmetry_cell_setting 'orthorhombic'
loop_
_space_group_symop_operation_xyz
x,y,z
1/2-x,1/2-y,1/2+z
1/2+x,1/2-y,-z
-x,y,1/2-z
-x,-y,-z
1/2+x,1/2+y,1/2-z
1/2-x,1/2+y,z
x,-y,1/2+z
loop_
_atom_site_type_symbol
_atom_site_label
_atom_site_fract_x
_atom_site_fract_y
_atom_site_fract_z
Si Si1 0.693170 0.487991 0.134924
Si Si2 0.263258 0.737106 0.419278
Si Si3 0.959010 0.996057 0.295080
Si Si4 0.255229 0.249310 0.669383
Si Si5 0.065582 0.496293 0.625533
Si Si6 0.451899 0.996380 0.455612
O O1 0.643091 0.628836 0.109497
O O2 0.664205 0.342781 0.109265
O O3 0.606539 0.485349 0.175798
O O4 0.881523 0.499338 0.136262
O O5 0.364936 0.845568 0.444996
O O6 0.161732 0.631437 0.445915
O O7 0.850162 0.857117 0.304470
O O8 0.000000 0.997767 0.250000
O O9 0.866756 0.143476 0.306420
O O10 0.146551 0.356612 0.644462
O O11 0.354078 0.140331 0.642499
O O12 0.078729 0.491677 0.578743
O O13 0.500000 0.000000 0.500000
#
# Coordination Sequence:
#
# PCOD9454190 Si02
#       6
#     8   8   8   8   8   8
#     4  10  18  37  60  76 102 150 190 210 258 339
#     4   8  18  34  54  76 100 140 186 216 254 328
#     4  11  23  37  57  83 110 140 178 229 273 311
#     4  10  22  38  54  82 114 140 178 224 272 318
#     4   9  20  37  58  79 108 148 182 215 264 329
#     4  10  19  33  52  78 107 136 178 228 269 309
#
# _framework density 17.704854999999998
#
# number of rings (size 3 to 8) (size 9 to 14) (size 15 to 20)
#    0.000    2.667    0.000    4.000    0.000    5.333 
#    0.000    6.667    0.000    0.000    0.000    0.000 
#    0.000    0.000    0.000    0.000    0.000    0.000 
#
# Total GULP energy -267573.336376 kJ/mol
# GULP energy per Si atom -5574.444508 kJ/mol
# Density = 1.766456 g / cm^3
# Si number density = 17.704855 Si / 1000 Ang^3
#
#
#
# Elastic Constant Matrix: (Units=GPa)
#
#
# Indices 1 2 3 4 5 6 
#
# 1 45.1593 -10.8718 19.5834 0.0000 0.0000 0.0000
# 2 -10.8718 64.1438 0.3978 0.0000 0.0000 0.0000
# 3 19.5834 0.3978 135.0146 0.0000 0.0000 0.0000
# 4 0.0000 0.0000 0.0000 16.8019 0.0000 0.0000
# 5 0.0000 0.0000 0.0000 0.0000 31.2532 0.0000
# 6 0.0000 0.0000 0.0000 0.0000 0.0000 22.2068
#
#
#
# Elastic Compliance Matrix: (Units=1/GPa)
#
#
# Indices 1 2 3 4 5 6 
#
# 1 0.024718 0.004212 -0.003598 0.000000 0.000000 0.000000
# 2 0.004212 0.016308 -0.000659 0.000000 0.000000 0.000000
# 3 -0.003598 -0.000659 0.007930 0.000000 0.000000 0.000000
# 4 0.000000 0.000000 0.000000 0.059517 0.000000 0.000000
# 5 0.000000 0.000000 0.000000 0.000000 0.031997 0.000000
# 6 0.000000 0.000000 0.000000 0.000000 0.000000 0.045031
#
#
# Mechanical properties :
#
#
# Convention : Reuss Voigt Hill
#
# Bulk Modulus (GPa) = 20.46389 29.17072 24.81731
# Shear Modulus (GPa) = 24.76719 29.73292 27.25006
#
# Velocity S-wave (km/s) = 3.74423 4.10245 3.92743
# Velocity P-wave (km/s) = 5.50235 6.24116 5.88336
#
# Compressibility (1/GPa) = 0.04886657
#
# Stress axis : x y z
#
# Youngs Moduli (GPa) = 40.45645 61.31987 126.09744
#
# Poissons Ratio (x) = -0.25827 0.45366
# Poissons Ratio (y) = -0.17039 0.08309
# Poissons Ratio (z) = 0.14555 0.04041
#
# Static dielectric constant tensor:
#      x y z
#    x 1.625140 0.000000 0.000000 
#    y 0.000000 1.617190 0.000000 
#    z 0.000000 0.000000 1.577490 
# 
# From -- ./inp_files/25917.got.cif
#   From: 2010.05.17/outbox.cif.g08.bks.cpg/sg60_13_cif.got.tgz:25917.got - 2010.06.03 14:59:27.
