data_PCOD9454452
_publ_section_title
;
Structure prediction by ZEFSAII (Michael W. Deem and Ramdas Pophale) SiO2 
 PCOD9454452
Probable space group: P B C N
;
_chemical_formula_sum "Si O2"
_cell_formula_units_Z 40
_cell_length_a 14.177636
_cell_length_b 31.009900
_cell_length_c 5.232799
_cell_angle_alpha 90.000000
_cell_angle_beta 90.000000
_cell_angle_gamma 90.000000
_cell_volume 2300.584772
_symmetry_space_group_name_H-M "P B C N"
_symmetry_group_IT_number 60
_symmetry_cell_setting 'orthorhombic'
loop_
_space_group_symop_operation_xyz
x,y,z
1/2-x,1/2-y,1/2+z
1/2+x,1/2-y,-z
-x,y,1/2-z
-x,-y,-z
1/2+x,1/2+y,1/2-z
1/2-x,1/2+y,z
x,-y,1/2+z
loop_
_atom_site_type_symbol
_atom_site_label
_atom_site_fract_x
_atom_site_fract_y
_atom_site_fract_z
Si Si1 0.610503 0.195827 0.244160
Si Si2 0.109094 0.884239 0.235880
Si Si3 0.889271 0.247067 0.245536
Si Si4 0.297106 0.345607 0.733893
Si Si5 0.106786 0.017138 0.556014
O O1 0.500000 0.183600 0.250000
O O2 0.627439 0.229526 0.475582
O O3 0.684055 0.157029 0.273555
O O4 0.628800 0.219684 0.975531
O O5 0.158335 0.873033 0.503436
O O6 0.107078 0.934837 0.164962
O O7 0.000000 0.869458 0.250000
O O8 0.163261 0.861621 0.004049
O O9 0.831022 0.203913 0.289448
O O10 0.000000 0.235258 0.250000
O O11 0.151129 0.012762 0.275631
O O12 0.000000 0.000000 0.500000
#
# Coordination Sequence:
#
# PCOD9454452 Si02
#       5
#     8   8   8   8   8
#     4  10  21  37  56  71  99 147 192 226 263 314
#     4  12  23  34  52  80 113 143 165 214 267 318
#     4  10  19  34  53  73 102 145 182 218 272 325
#     4  12  23  34  51  81 111 134 182 229 274 304
#     4  10  19  34  55  71 103 149 176 187 242 330
#
# _framework density 17.386883000000001
#
# number of rings (size 3 to 8) (size 9 to 14) (size 15 to 20)
#    0.000    1.200    2.000    6.600    2.800    1.600 
#    0.000    0.000    0.000    0.000    0.000    0.000 
#    0.000   16.000    0.000    0.000    0.000    0.000 
#
# Total GULP energy -223318.309432 kJ/mol
# GULP energy per Si atom -5582.957736 kJ/mol
# Density = 1.734731 g / cm^3
# Si number density = 17.386883 Si / 1000 Ang^3
#
#
#
# Elastic Constant Matrix: (Units=GPa)
#
#
# Indices 1 2 3 4 5 6 
#
# 1 68.4620 39.7742 20.8529 0.0000 0.0000 0.0000
# 2 39.7742 41.4478 10.1496 0.0000 0.0000 0.0000
# 3 20.8529 10.1496 115.1000 0.0000 0.0000 0.0000
# 4 0.0000 0.0000 0.0000 8.4789 0.0000 0.0000
# 5 0.0000 0.0000 0.0000 0.0000 17.7600 0.0000
# 6 0.0000 0.0000 0.0000 0.0000 0.0000 10.3832
#
#
#
# Elastic Compliance Matrix: (Units=1/GPa)
#
#
# Indices 1 2 3 4 5 6 
#
# 1 0.034250 -0.032039 -0.003380 0.000000 0.000000 0.000000
# 2 -0.032039 0.054631 0.000987 0.000000 0.000000 0.000000
# 3 -0.003380 0.000987 0.009213 0.000000 0.000000 0.000000
# 4 0.000000 0.000000 0.000000 0.117940 0.000000 0.000000
# 5 0.000000 0.000000 0.000000 0.000000 0.056306 0.000000
# 6 0.000000 0.000000 0.000000 0.000000 0.000000 0.096310
#
#
# Mechanical properties :
#
#
# Convention : Reuss Voigt Hill
#
# Bulk Modulus (GPa) = 34.21138 40.72925 37.47032
# Shear Modulus (GPa) = 11.17926 17.60662 14.39294
#
# Velocity S-wave (km/s) = 2.53844 3.18565 2.88028
# Velocity P-wave (km/s) = 5.32079 6.08336 5.71481
#
# Compressibility (1/GPa) = 0.02923004
#
# Stress axis : x y z
#
# Youngs Moduli (GPa) = 29.19716 18.30477 108.53774
#
# Poissons Ratio (x) = 0.58647 0.36685
# Poissons Ratio (y) = 0.93546 -0.10716
# Poissons Ratio (z) = 0.09868 -0.01807
#
# Static dielectric constant tensor:
#      x y z
#    x 1.642800 0.000000 0.000000 
#    y 0.000000 1.588130 0.000000 
#    z 0.000000 0.000000 1.662630 
# 
# From -- ./inp_files/1210.got.cif
#   From: 2010.05.17/outbox.cif.g08.bks.cpg/sg60_1_cif.got.tgz:1210.got - 2010.06.03 14:59:27.
