data_PCOD9454544
_publ_section_title
;
Structure prediction by ZEFSAII (Michael W. Deem and Ramdas Pophale) SiO2 
 PCOD9454544
Probable space group: P B C N
;
_chemical_formula_sum "Si O2"
_cell_formula_units_Z 56
_cell_length_a 5.298731
_cell_length_b 19.916020
_cell_length_c 25.699842
_cell_angle_alpha 90.000000
_cell_angle_beta 90.000000
_cell_angle_gamma 90.000000
_cell_volume 2712.094883
_symmetry_space_group_name_H-M "P B C N"
_symmetry_group_IT_number 60
_symmetry_cell_setting 'orthorhombic'
loop_
_space_group_symop_operation_xyz
x,y,z
1/2-x,1/2-y,1/2+z
1/2+x,1/2-y,-z
-x,y,1/2-z
-x,-y,-z
1/2+x,1/2+y,1/2-z
1/2-x,1/2+y,z
x,-y,1/2+z
loop_
_atom_site_type_symbol
_atom_site_label
_atom_site_fract_x
_atom_site_fract_y
_atom_site_fract_z
Si Si1 0.253123 0.932883 0.963943
Si Si2 0.968652 0.733490 0.361803
Si Si3 0.500000 0.237292 0.250000
Si Si4 0.749398 0.345519 0.952066
Si Si5 0.536718 0.553513 0.926662
Si Si6 0.289557 0.187851 0.935685
Si Si7 0.318861 0.869397 0.144063
Si Si8 0.500000 0.171016 0.750000
O O1 0.523489 0.900150 0.953850
O O2 0.023145 0.880189 0.955691
O O3 0.175201 0.996736 0.929328
O O4 0.221132 0.956614 0.023973
O O5 0.200372 0.749971 0.400465
O O6 0.998437 0.699272 0.305665
O O7 0.776147 0.695245 0.398971
O O8 0.875327 0.808282 0.347123
O O9 0.245713 0.281844 0.254862
O O10 0.808606 0.299090 0.002798
O O11 0.408957 0.626267 0.934217
O O12 0.686257 0.562142 0.873126
O O13 0.526907 0.156059 0.906299
O O14 0.477690 0.871288 0.196857
#
# Coordination Sequence:
#
# PCOD9454544 Si02
#       8
#     8   8   4   8   8   8   8   4
#     4  10  22  37  55  80 112 149 192 226 267 344
#     4  10  23  35  56  82 117 149 188 233 282 348
#     4  10  20  38  54  81 106 155 192 226 270 334
#     4  11  24  35  55  85 116 151 184 226 286 335
#     4   9  20  35  55  80 110 148 188 229 280 332
#     4  10  20  33  55  83 116 144 175 231 290 342
#     4  10  19  35  54  84 110 149 178 238 285 339
#     4  10  20  34  56  81 114 137 192 230 284 340
#
# _framework density 20.648244999999999
#
# number of rings (size 3 to 8) (size 9 to 14) (size 15 to 20)
#    0.000    2.000    2.857    0.000    6.000    1.714 
#    0.000    0.000    0.000    0.857    3.714    0.000 
#    0.000    0.000    0.000    0.000    0.000    0.000 
#
# Total GULP energy -312276.963066 kJ/mol
# GULP energy per Si atom -5576.374340 kJ/mol
# Density = 2.060125 g / cm^3
# Si number density = 20.648245 Si / 1000 Ang^3
#
#
#
# Elastic Constant Matrix: (Units=GPa)
#
#
# Indices 1 2 3 4 5 6 
#
# 1 84.9977 19.6633 15.4317 0.0000 0.0000 0.0000
# 2 19.6633 38.7487 24.1546 0.0000 0.0000 0.0000
# 3 15.4317 24.1546 149.3263 0.0000 0.0000 0.0000
# 4 0.0000 0.0000 0.0000 15.6814 0.0000 0.0000
# 5 0.0000 0.0000 0.0000 0.0000 26.5853 0.0000
# 6 0.0000 0.0000 0.0000 0.0000 0.0000 28.2225
#
#
#
# Elastic Compliance Matrix: (Units=1/GPa)
#
#
# Indices 1 2 3 4 5 6 
#
# 1 0.013343 -0.006574 -0.000315 0.000000 0.000000 0.000000
# 2 -0.006574 0.031941 -0.004487 0.000000 0.000000 0.000000
# 3 -0.000315 -0.004487 0.007455 0.000000 0.000000 0.000000
# 4 0.000000 0.000000 0.000000 0.063770 0.000000 0.000000
# 5 0.000000 0.000000 0.000000 0.000000 0.037615 0.000000
# 6 0.000000 0.000000 0.000000 0.000000 0.000000 0.035433
#
#
# Mechanical properties :
#
#
# Convention : Reuss Voigt Hill
#
# Bulk Modulus (GPa) = 33.35015 43.50799 38.42907
# Shear Modulus (GPa) = 22.49154 28.35270 25.42212
#
# Velocity S-wave (km/s) = 3.30399 3.70960 3.51265
# Velocity P-wave (km/s) = 5.54453 6.28211 5.92481
#
# Compressibility (1/GPa) = 0.02998487
#
# Stress axis : x y z
#
# Youngs Moduli (GPa) = 74.94438 31.30794 134.13481
#
# Poissons Ratio (x) = 0.20583 0.04231
# Poissons Ratio (y) = 0.49272 0.60189
# Poissons Ratio (z) = 0.02364 0.14049
#
# Static dielectric constant tensor:
#      x y z
#    x 1.825270 0.000000 0.000000 
#    y 0.000000 1.757290 0.000000 
#    z 0.000000 0.000000 1.834120 
# 
# From -- ./inp_files/23747.got.cif
#   From: 2010.05.17/outbox.cif.g08.bks.cpg/sg60_12_cif.got.tgz:23747.got - 2010.06.03 14:59:27.
