data_PCOD9454889
_publ_section_title
;
Structure prediction by ZEFSAII (Michael W. Deem and Ramdas Pophale) SiO2 
 PCOD9454889
Probable space group: P B C N
;
_chemical_formula_sum "Si O2"
_cell_formula_units_Z 64
_cell_length_a 9.313173
_cell_length_b 14.822804
_cell_length_c 22.287169
_cell_angle_alpha 90.000000
_cell_angle_beta 90.000000
_cell_angle_gamma 90.000000
_cell_volume 3076.684352
_symmetry_space_group_name_H-M "P B C N"
_symmetry_group_IT_number 60
_symmetry_cell_setting 'orthorhombic'
loop_
_space_group_symop_operation_xyz
x,y,z
1/2-x,1/2-y,1/2+z
1/2+x,1/2-y,-z
-x,y,1/2-z
-x,-y,-z
1/2+x,1/2+y,1/2-z
1/2-x,1/2+y,z
x,-y,1/2+z
loop_
_atom_site_type_symbol
_atom_site_label
_atom_site_fract_x
_atom_site_fract_y
_atom_site_fract_z
Si Si1 0.664638 0.251032 0.858321
Si Si2 0.345998 0.754445 0.523146
Si Si3 0.684852 0.458589 0.870122
Si Si4 0.623481 0.484395 0.581941
Si Si5 0.369392 0.633221 0.702694
Si Si6 0.079396 0.809471 0.393012
Si Si7 0.657271 0.699985 0.114782
Si Si8 0.342486 0.029296 0.018822
O O1 0.729008 0.227218 0.925479
O O2 0.708392 0.356531 0.849090
O O3 0.717911 0.186890 0.803540
O O4 0.491958 0.257920 0.863768
O O5 0.506197 0.729348 0.546952
O O6 0.334196 0.710429 0.457845
O O7 0.330765 0.862006 0.514403
O O8 0.547065 0.460865 0.916303
O O9 0.655358 0.530508 0.818429
O O10 0.813879 0.492293 0.911698
O O11 0.630516 0.587949 0.601073
O O12 0.675159 0.406347 0.626899
O O13 0.721532 0.483273 0.522833
O O14 0.500000 0.632540 0.750000
O O15 0.445832 0.689190 0.650331
O O16 0.205227 0.753176 0.363946
O O17 0.500000 0.000000 0.000000
#
# Coordination Sequence:
#
# PCOD9454889 Si02
#       8
#     8   8   8   8   8   8   8   8
#     4   9  21  37  56  86 115 153 194 245 293 350
#     4  10  20  32  50  80 123 156 190 220 288 357
#     4   9  21  37  58  82 114 151 194 242 288 361
#     4  10  21  33  52  79 116 160 194 222 284 355
#     4  10  22  42  65  81 108 153 204 247 305 344
#     4  10  21  37  53  81 116 154 192 247 287 352
#     4  11  20  32  55  82 119 154 191 234 285 353
#     4  11  21  31  50  85 120 157 187 228 287 351
#
# _framework density 20.801613
#
# number of rings (size 3 to 8) (size 9 to 14) (size 15 to 20)
#    0.000    2.000    1.250    1.875   10.500    0.000 
#    0.000    4.375    0.000    0.000    0.000    0.000 
#    0.000    0.000    0.000    0.000    0.000    0.000 
#
# Total GULP energy -356273.559521 kJ/mol
# GULP energy per Si atom -5566.774368 kJ/mol
# Density = 2.075427 g / cm^3
# Si number density = 20.801613 Si / 1000 Ang^3
#
#
#
# Elastic Constant Matrix: (Units=GPa)
#
#
# Indices 1 2 3 4 5 6 
#
# 1 -109.6499 27.2765 -40.3338 0.0000 0.0000 0.0000
# 2 27.2765 77.8699 7.0927 0.0000 0.0000 0.0000
# 3 -40.3338 7.0927 9.0591 0.0000 0.0000 0.0000
# 4 0.0000 0.0000 0.0000 1.0754 0.0000 0.0000
# 5 0.0000 0.0000 0.0000 0.0000 23.1214 0.0000
# 6 0.0000 0.0000 0.0000 0.0000 0.0000 25.1243
#
#
#
# Elastic Compliance Matrix: (Units=1/GPa)
#
#
# Indices 1 2 3 4 5 6 
#
# 1 -0.002966 0.002414 -0.015097 0.000000 0.000000 0.000000
# 2 0.002414 0.011863 0.001460 0.000000 0.000000 0.000000
# 3 -0.015097 0.001460 0.042029 0.000000 0.000000 0.000000
# 4 0.000000 0.000000 0.000000 0.929899 0.000000 0.000000
# 5 0.000000 0.000000 0.000000 0.000000 0.043250 0.000000
# 6 0.000000 0.000000 0.000000 0.000000 0.000000 0.039802
#
#
# Mechanical properties :
#
#
# Convention : Reuss Voigt Hill
#
# Bulk Modulus (GPa) = 35.11190 -3.85001 15.63094
# Shear Modulus (GPa) = 4.56281 8.74714 6.65498
#
# Velocity S-wave (km/s) = 1.48265 2.05284 1.79059
# Velocity P-wave (km/s) = 4.45500 1.94011 3.43592
#
# Compressibility (1/GPa) = 0.02848038
#
# Stress axis : x y z
#
# Youngs Moduli (GPa) = -337.12823 84.29328 23.79337
#
# Poissons Ratio (x) = -0.20349 0.35920
# Poissons Ratio (y) = 0.81386 -0.03474
# Poissons Ratio (z) = -5.08951 -0.12306
#
# Static dielectric constant tensor:
#      x y z
#    x 1.874840 0.000000 0.000000 
#    y 0.000000 1.815910 0.000000 
#    z 0.000000 0.000000 1.827910 
# 
# From -- ./inp_files/24110.got.cif
#   From: 2010.05.17/outbox.cif.g08.bks.cpg/sg60_13_cif.got.tgz:24110.got - 2010.06.03 14:59:27.
