data_PCOD9454282
_publ_section_title
;
Structure prediction by ZEFSAII (Michael W. Deem and Ramdas Pophale) SiO2 
 PCOD9454282
Probable space group: P B C N
;
_chemical_formula_sum "Si O2"
_cell_formula_units_Z 40
_cell_length_a 21.405571
_cell_length_b 21.928818
_cell_length_c 5.026415
_cell_angle_alpha 90.000000
_cell_angle_beta 90.000000
_cell_angle_gamma 90.000000
_cell_volume 2359.393524
_symmetry_space_group_name_H-M "P B C N"
_symmetry_group_IT_number 60
_symmetry_cell_setting 'orthorhombic'
loop_
_space_group_symop_operation_xyz
x,y,z
1/2-x,1/2-y,1/2+z
1/2+x,1/2-y,-z
-x,y,1/2-z
-x,-y,-z
1/2+x,1/2+y,1/2-z
1/2-x,1/2+y,z
x,-y,1/2+z
loop_
_atom_site_type_symbol
_atom_site_label
_atom_site_fract_x
_atom_site_fract_y
_atom_site_fract_z
Si Si1 0.251284 0.831840 0.035806
Si Si2 0.675043 0.788365 0.964993
Si Si3 0.755316 0.462976 0.263330
Si Si4 0.093631 0.536777 0.741410
Si Si5 0.459190 0.161482 0.987145
O O1 0.196772 0.781660 0.059413
O O2 0.303932 0.810293 0.244524
O O3 0.231435 0.899008 0.123889
O O4 0.283878 0.826760 0.747920
O O5 0.602295 0.800846 0.932887
O O6 0.737639 0.516545 0.468564
O O7 0.831085 0.457569 0.260763
O O8 0.075850 0.517549 0.444154
O O9 0.065248 0.598334 0.856621
O O10 0.500000 0.151438 0.250000
O O11 0.500000 0.191028 0.750000
#
# Coordination Sequence:
#
# PCOD9454282 Si02
#       5
#     8   8   8   8   8
#     4  10  19  35  56  73  98 126 165 213 248 313
#     4  10  21  35  53  74  95 130 172 205 259 289
#     4  10  19  30  51  75 101 127 159 206 254 293
#     4  10  21  33  48  65  96 135 173 208 235 275
#     4  12  24  35  50  68 100 133 174 214 237 287
#
# _framework density 16.953512
#
# number of rings (size 3 to 8) (size 9 to 14) (size 15 to 20)
#    0.000    1.600    2.000    3.600    5.600    2.400 
#    0.000    0.000    0.000    0.000    0.000    0.000 
#    0.000    4.800    0.000    0.000    0.000    0.000 
#
# Total GULP energy -223393.322118 kJ/mol
# GULP energy per Si atom -5584.833053 kJ/mol
# Density = 1.691492 g / cm^3
# Si number density = 16.953512 Si / 1000 Ang^3
#
#
#
# Elastic Constant Matrix: (Units=GPa)
#
#
# Indices 1 2 3 4 5 6 
#
# 1 57.6456 32.3859 12.2838 0.0000 0.0000 0.0000
# 2 32.3859 71.9854 4.3443 0.0000 0.0000 0.0000
# 3 12.2838 4.3443 66.6603 0.0000 0.0000 0.0000
# 4 0.0000 0.0000 0.0000 18.6668 0.0000 0.0000
# 5 0.0000 0.0000 0.0000 0.0000 17.5703 0.0000
# 6 0.0000 0.0000 0.0000 0.0000 0.0000 15.1313
#
#
#
# Elastic Compliance Matrix: (Units=1/GPa)
#
#
# Indices 1 2 3 4 5 6 
#
# 1 0.024115 -0.010623 -0.003751 0.000000 0.000000 0.000000
# 2 -0.010623 0.018626 0.000744 0.000000 0.000000 0.000000
# 3 -0.003751 0.000744 0.015644 0.000000 0.000000 0.000000
# 4 0.000000 0.000000 0.000000 0.053571 0.000000 0.000000
# 5 0.000000 0.000000 0.000000 0.000000 0.056914 0.000000
# 6 0.000000 0.000000 0.000000 0.000000 0.000000 0.066088
#
#
# Mechanical properties :
#
#
# Convention : Reuss Voigt Hill
#
# Bulk Modulus (GPa) = 32.12963 32.70211 32.41587
# Shear Modulus (GPa) = 18.34229 20.09216 19.21723
#
# Velocity S-wave (km/s) = 3.29282 3.44631 3.37044
# Velocity P-wave (km/s) = 5.78356 5.93020 5.85734
#
# Compressibility (1/GPa) = 0.03112392
#
# Stress axis : x y z
#
# Youngs Moduli (GPa) = 41.46848 53.68860 63.92121
#
# Poissons Ratio (x) = 0.57032 0.23980
# Poissons Ratio (y) = 0.44051 -0.04753
# Poissons Ratio (z) = 0.15557 -0.03992
#
# Static dielectric constant tensor:
#      x y z
#    x 1.573700 0.000000 0.000000 
#    y 0.000000 1.598860 0.000000 
#    z 0.000000 0.000000 1.588720 
# 
# From -- ./inp_files/2008.got.cif
#   From: 2010.05.17/outbox.cif.g08.bks.cpg/sg60_2_cif.got.tgz:2008.got - 2010.06.03 14:59:27.
