data_PCOD9454576
_publ_section_title
;
Structure prediction by ZEFSAII (Michael W. Deem and Ramdas Pophale) SiO2 
 PCOD9454576
Probable space group: P B C N
;
_chemical_formula_sum "Si O2"
_cell_formula_units_Z 52
_cell_length_a 6.382075
_cell_length_b 17.370286
_cell_length_c 26.357912
_cell_angle_alpha 90.000000
_cell_angle_beta 90.000000
_cell_angle_gamma 90.000000
_cell_volume 2921.997745
_symmetry_space_group_name_H-M "P B C N"
_symmetry_group_IT_number 60
_symmetry_cell_setting 'orthorhombic'
loop_
_space_group_symop_operation_xyz
x,y,z
1/2-x,1/2-y,1/2+z
1/2+x,1/2-y,-z
-x,y,1/2-z
-x,-y,-z
1/2+x,1/2+y,1/2-z
1/2-x,1/2+y,z
x,-y,1/2+z
loop_
_atom_site_type_symbol
_atom_site_label
_atom_site_fract_x
_atom_site_fract_y
_atom_site_fract_z
Si Si1 0.282946 0.598993 0.347926
Si Si2 0.983818 0.851353 0.040100
Si Si3 0.111097 0.029662 0.616931
Si Si4 0.500000 0.611004 0.250000
Si Si5 0.163429 0.558549 0.025101
Si Si6 0.112535 0.516170 0.201931
Si Si7 0.819605 0.319252 0.548378
O O1 0.417589 0.522033 0.362224
O O2 0.397287 0.644178 0.301594
O O3 0.272007 0.649655 0.398604
O O4 0.056189 0.570049 0.327528
O O5 0.866980 0.770986 0.048213
O O6 0.055684 0.888991 0.092510
O O7 0.831869 0.914873 0.015757
O O8 0.168725 0.838535 0.999105
O O9 0.220970 0.980402 0.572292
O O10 0.279592 0.038415 0.661420
O O11 0.303555 0.563768 0.226980
O O12 0.034463 0.633597 0.041520
O O13 0.000000 0.500000 0.000000
O O14 0.000000 0.478105 0.250000
#
# Coordination Sequence:
#
# PCOD9454576 Si02
#       7
#     8   8   8   4   8   8   8
#     4  10  19  35  60  90 111 150 197 248 296 353
#     4  12  25  38  53  87 128 160 198 238 296 369
#     4  11  21  34  59  88 112 155 200 245 294 359
#     4   8  18  34  58  92 110 136 200 258 294 344
#     4  12  22  36  59  83 118 158 200 240 284 354
#     4   9  18  34  58  91 111 139 195 260 301 343
#     4  12  23  38  56  85 125 162 194 238 301 356
#
# _framework density 17.796044999999999
#
# number of rings (size 3 to 8) (size 9 to 14) (size 15 to 20)
#    0.000    1.231    6.154    1.385    0.000    0.000 
#    0.000    0.000    0.000    0.000   48.000    0.000 
#    0.000    0.000    0.000    0.000    0.000    0.000 
#
# Total GULP energy -289888.584240 kJ/mol
# GULP energy per Si atom -5574.780466 kJ/mol
# Density = 1.775554 g / cm^3
# Si number density = 17.796045 Si / 1000 Ang^3
#
#
#
# Elastic Constant Matrix: (Units=GPa)
#
#
# Indices 1 2 3 4 5 6 
#
# 1 82.8226 20.8418 27.0205 0.0000 0.0000 0.0000
# 2 20.8418 58.9927 21.3541 0.0000 0.0000 0.0000
# 3 27.0205 21.3541 98.5650 0.0000 0.0000 0.0000
# 4 0.0000 0.0000 0.0000 11.6195 0.0000 0.0000
# 5 0.0000 0.0000 0.0000 0.0000 50.6921 0.0000
# 6 0.0000 0.0000 0.0000 0.0000 0.0000 29.2472
#
#
#
# Elastic Compliance Matrix: (Units=1/GPa)
#
#
# Indices 1 2 3 4 5 6 
#
# 1 0.014029 -0.003867 -0.003008 0.000000 0.000000 0.000000
# 2 -0.003867 0.019460 -0.003156 0.000000 0.000000 0.000000
# 3 -0.003008 -0.003156 0.011654 0.000000 0.000000 0.000000
# 4 0.000000 0.000000 0.000000 0.086062 0.000000 0.000000
# 5 0.000000 0.000000 0.000000 0.000000 0.019727 0.000000
# 6 0.000000 0.000000 0.000000 0.000000 0.000000 0.034191
#
#
# Mechanical properties :
#
#
# Convention : Reuss Voigt Hill
#
# Bulk Modulus (GPa) = 39.87220 42.09037 40.98129
# Shear Modulus (GPa) = 23.41425 29.72268 26.56847
#
# Velocity S-wave (km/s) = 3.63119 4.09122 3.86805
# Velocity P-wave (km/s) = 6.32728 6.78383 6.55953
#
# Compressibility (1/GPa) = 0.02508013
#
# Stress axis : x y z
#
# Youngs Moduli (GPa) = 71.28329 51.38768 85.80842
#
# Poissons Ratio (x) = 0.19874 0.25810
# Poissons Ratio (y) = 0.27568 0.27079
# Poissons Ratio (z) = 0.21441 0.16217
#
# Static dielectric constant tensor:
#      x y z
#    x 1.647210 0.000000 0.000000 
#    y 0.000000 1.567400 0.000000 
#    z 0.000000 0.000000 1.641580 
# 
# From -- ./inp_files/24944.got.cif
#   From: 2010.05.17/outbox.cif.g08.bks.cpg/sg60_13_cif.got.tgz:24944.got - 2010.06.03 14:59:27.
