data_PCOD9454921
_publ_section_title
;
Structure prediction by ZEFSAII (Michael W. Deem and Ramdas Pophale) SiO2 
 PCOD9454921
Probable space group: P B C N
;
_chemical_formula_sum "Si O2"
_cell_formula_units_Z 64
_cell_length_a 26.706007
_cell_length_b 10.594282
_cell_length_c 12.223450
_cell_angle_alpha 90.000000
_cell_angle_beta 90.000000
_cell_angle_gamma 90.000000
_cell_volume 3458.392556
_symmetry_space_group_name_H-M "P B C N"
_symmetry_group_IT_number 60
_symmetry_cell_setting 'orthorhombic'
loop_
_space_group_symop_operation_xyz
x,y,z
1/2-x,1/2-y,1/2+z
1/2+x,1/2-y,-z
-x,y,1/2-z
-x,-y,-z
1/2+x,1/2+y,1/2-z
1/2-x,1/2+y,z
x,-y,1/2+z
loop_
_atom_site_type_symbol
_atom_site_label
_atom_site_fract_x
_atom_site_fract_y
_atom_site_fract_z
Si Si1 0.126196 0.007418 0.997947
Si Si2 0.596788 0.738689 0.371320
Si Si3 0.200418 0.149573 0.628055
Si Si4 0.790715 0.844988 0.124475
Si Si5 0.680857 0.131832 0.547280
Si Si6 0.914089 0.222978 0.129752
Si Si7 0.495957 0.920433 0.116878
Si Si8 0.309313 0.872143 0.051445
O O1 0.092255 0.897095 0.948747
O O2 0.170125 0.048069 0.913625
O O3 0.158004 0.951956 0.099359
O O4 0.097039 0.131559 0.035951
O O5 0.584286 0.678540 0.254736
O O6 0.557176 0.849718 0.389272
O O7 0.652136 0.799316 0.371284
O O8 0.198221 0.190524 0.752195
O O9 0.192229 0.267555 0.548303
O O10 0.255873 0.095945 0.604584
O O11 0.733095 0.886910 0.111145
O O12 0.798692 0.725443 0.046432
O O13 0.635771 0.192354 0.614442
O O14 0.666552 0.998661 0.495185
O O15 0.960929 0.313876 0.109020
O O16 0.500000 0.968346 0.250000
O O17 0.500000 0.000000 0.000000
#
# Coordination Sequence:
#
# PCOD9454921 Si02
#       8
#     8   8   8   8   8   8   8   8
#     4  10  20  37  54  82 116 145 190 226 280 342
#     4  10  21  37  60  83 113 152 191 239 293 345
#     4  10  20  33  51  75 110 148 182 228 278 331
#     4  10  20  33  51  75 110 148 182 228 278 331
#     4  10  20  35  50  79 107 143 193 230 278 341
#     4  10  21  37  60  83 113 152 191 239 293 345
#     4  10  22  43  66  92 118 151 195 246 299 348
#     4  10  20  35  50  79 107 143 193 230 278 341
#
# _framework density 18.505706
#
# number of rings (size 3 to 8) (size 9 to 14) (size 15 to 20)
#    0.000    2.000    1.250    2.250    0.000    2.500 
#    0.000    8.750    0.000    0.000    0.000    0.000 
#    0.000    0.000    0.000    0.000    0.000    0.000 
#
# Total GULP energy -356608.027549 kJ/mol
# GULP energy per Si atom -5572.000430 kJ/mol
# Density = 1.846359 g / cm^3
# Si number density = 18.505706 Si / 1000 Ang^3
#
#
#
# Elastic Constant Matrix: (Units=GPa)
#
#
# Indices 1 2 3 4 5 6 
#
# 1 39.7207 -6.1195 12.5689 0.0000 0.0000 0.0000
# 2 -6.1195 38.0397 -10.1748 0.0000 0.0000 0.0000
# 3 12.5689 -10.1748 62.4668 0.0000 0.0000 0.0000
# 4 0.0000 0.0000 0.0000 13.2261 0.0000 0.0000
# 5 0.0000 0.0000 0.0000 0.0000 18.7893 0.0000
# 6 0.0000 0.0000 0.0000 0.0000 0.0000 25.5068
#
#
#
# Elastic Compliance Matrix: (Units=1/GPa)
#
#
# Indices 1 2 3 4 5 6 
#
# 1 0.027221 0.003047 -0.004981 0.000000 0.000000 0.000000
# 2 0.003047 0.027827 0.003919 0.000000 0.000000 0.000000
# 3 -0.004981 0.003919 0.017649 0.000000 0.000000 0.000000
# 4 0.000000 0.000000 0.000000 0.075608 0.000000 0.000000
# 5 0.000000 0.000000 0.000000 0.000000 0.053222 0.000000
# 6 0.000000 0.000000 0.000000 0.000000 0.000000 0.039205
#
#
# Mechanical properties :
#
#
# Convention : Reuss Voigt Hill
#
# Bulk Modulus (GPa) = 13.04322 14.75293 13.89808
# Shear Modulus (GPa) = 19.06087 21.10128 20.08107
#
# Velocity S-wave (km/s) = 3.21284 3.38043 3.29770
# Velocity P-wave (km/s) = 4.56362 4.81932 4.69321
#
# Compressibility (1/GPa) = 0.07666819
#
# Stress axis : x y z
#
# Youngs Moduli (GPa) = 36.73586 35.93649 56.65998
#
# Poissons Ratio (x) = -0.10949 0.28222
# Poissons Ratio (y) = -0.11193 -0.22208
# Poissons Ratio (z) = 0.18298 -0.14085
#
# Static dielectric constant tensor:
#      x y z
#    x 1.651610 0.000000 0.000000 
#    y 0.000000 1.635840 0.000000 
#    z 0.000000 0.000000 1.678490 
# 
# From -- ./inp_files/13146.got.cif
#   From: 2010.05.17/outbox.cif.g08.bks.cpg/sg60_7_cif.got.tgz:13146.got - 2010.06.03 14:59:27.
