data_PCOD9454804
_publ_section_title
;
Structure prediction by ZEFSAII (Michael W. Deem and Ramdas Pophale) SiO2 
 PCOD9454804
Probable space group: P B C N
;
_chemical_formula_sum "Si O2"
_cell_formula_units_Z 56
_cell_length_a 8.502249
_cell_length_b 20.466701
_cell_length_c 14.344751
_cell_angle_alpha 90.000000
_cell_angle_beta 90.000000
_cell_angle_gamma 90.000000
_cell_volume 2496.172985
_symmetry_space_group_name_H-M "P B C N"
_symmetry_group_IT_number 60
_symmetry_cell_setting 'orthorhombic'
loop_
_space_group_symop_operation_xyz
x,y,z
1/2-x,1/2-y,1/2+z
1/2+x,1/2-y,-z
-x,y,1/2-z
-x,-y,-z
1/2+x,1/2+y,1/2-z
1/2-x,1/2+y,z
x,-y,1/2+z
loop_
_atom_site_type_symbol
_atom_site_label
_atom_site_fract_x
_atom_site_fract_y
_atom_site_fract_z
Si Si1 0.217865 0.351198 0.176358
Si Si2 0.711450 0.279374 0.020764
Si Si3 0.264793 0.909783 0.865321
Si Si4 0.035595 0.349048 0.012804
Si Si5 0.685378 0.772306 0.725150
Si Si6 0.018572 0.109803 0.526818
Si Si7 0.156822 0.956163 0.312740
O O1 0.063196 0.372399 0.118147
O O2 0.224436 0.274087 0.201946
O O3 0.365945 0.369146 0.110352
O O4 0.251075 0.396288 0.265652
O O5 0.702628 0.269790 0.131387
O O6 0.575397 0.327814 0.990183
O O7 0.874917 0.311894 0.993734
O O8 0.670559 0.206751 0.990286
O O9 0.255619 0.845472 0.799119
O O10 0.257956 0.977823 0.812352
O O11 0.417551 0.898577 0.931326
O O12 0.121174 0.913789 0.939803
O O13 0.500000 0.776011 0.750000
O O14 0.896154 0.063147 0.581659
O O15 0.000000 0.967719 0.250000
#
# Coordination Sequence:
#
# PCOD9454804 Si02
#       7
#     8   8   8   8   8   8   8
#     4  10  19  39  68  92 124 167 223 258 316 382
#     4  11  20  39  61  97 125 165 212 261 318 384
#     4  10  23  39  61  96 132 163 212 267 325 378
#     4  10  23  37  63  95 130 166 213 262 322 383
#     4  11  20  37  64  94 126 163 206 269 332 369
#     4  10  19  40  69  91 121 171 220 259 309 389
#     4  10  20  41  68  91 126 176 222 261 309 385
#
# _framework density 22.434342999999998
#
# number of rings (size 3 to 8) (size 9 to 14) (size 15 to 20)
#    0.000    1.714    2.857    3.429    2.000    0.571 
#    7.714    2.143    0.000    1.714    0.000    0.000 
#    0.000    0.000    0.000    0.000    0.000    0.000 
#
# Total GULP energy -312559.195597 kJ/mol
# GULP energy per Si atom -5581.414207 kJ/mol
# Density = 2.238328 g / cm^3
# Si number density = 22.434343 Si / 1000 Ang^3
#
#
#
# Elastic Constant Matrix: (Units=GPa)
#
#
# Indices 1 2 3 4 5 6 
#
# 1 54.3359 17.2394 -2.0500 0.0000 0.0000 0.0000
# 2 17.2394 128.9996 24.9297 0.0000 0.0000 0.0000
# 3 -2.0500 24.9297 50.0947 0.0000 0.0000 0.0000
# 4 0.0000 0.0000 0.0000 -33.1444 0.0000 0.0000
# 5 0.0000 0.0000 0.0000 0.0000 22.9404 0.0000
# 6 0.0000 0.0000 0.0000 0.0000 0.0000 36.7858
#
#
#
# Elastic Compliance Matrix: (Units=1/GPa)
#
#
# Indices 1 2 3 4 5 6 
#
# 1 0.019458 -0.003047 0.002313 0.000000 0.000000 0.000000
# 2 -0.003047 0.009054 -0.004630 0.000000 0.000000 0.000000
# 3 0.002313 -0.004630 0.022361 0.000000 0.000000 0.000000
# 4 0.000000 0.000000 0.000000 -0.030171 0.000000 0.000000
# 5 0.000000 0.000000 0.000000 0.000000 0.043591 0.000000
# 6 0.000000 0.000000 0.000000 0.000000 0.000000 0.027184
#
#
# Mechanical properties :
#
#
# Convention : Reuss Voigt Hill
#
# Bulk Modulus (GPa) = 24.91073 34.85206 29.88139
# Shear Modulus (GPa) = 43.25665 18.20375 30.73020
#
# Velocity S-wave (km/s) = 4.39583 2.85164 3.70507
# Velocity P-wave (km/s) = 6.07391 5.13920 5.62600
#
# Compressibility (1/GPa) = 0.04014334
#
# Stress axis : x y z
#
# Youngs Moduli (GPa) = 51.39243 110.44772 44.72032
#
# Poissons Ratio (x) = 0.33657 -0.10343
# Poissons Ratio (y) = 0.15661 0.20708
# Poissons Ratio (z) = -0.11886 0.51142
#
# Static dielectric constant tensor:
#      x y z
#    x 1.857840 0.000000 0.000000 
#    y 0.000000 1.823530 0.000000 
#    z 0.000000 0.000000 2.003170 
# 
# From -- ./inp_files/15262.got.cif
#   From: 2010.05.17/outbox.cif.g08.bks.cpg/sg60_8_cif.got.tgz:15262.got - 2010.06.03 14:59:27.
