data_PCOD9454045
_publ_section_title
;
Structure prediction by ZEFSAII (Michael W. Deem and Ramdas Pophale) SiO2 
 PCOD9454045
Probable space group: P B C N
;
_chemical_formula_sum "Si O2"
_cell_formula_units_Z 56
_cell_length_a 13.547594
_cell_length_b 21.017430
_cell_length_c 9.326994
_cell_angle_alpha 90.000000
_cell_angle_beta 90.000000
_cell_angle_gamma 90.000000
_cell_volume 2655.727313
_symmetry_space_group_name_H-M "P B C N"
_symmetry_group_IT_number 60
_symmetry_cell_setting 'orthorhombic'
loop_
_space_group_symop_operation_xyz
x,y,z
1/2-x,1/2-y,1/2+z
1/2+x,1/2-y,-z
-x,y,1/2-z
-x,-y,-z
1/2+x,1/2+y,1/2-z
1/2-x,1/2+y,z
x,-y,1/2+z
loop_
_atom_site_type_symbol
_atom_site_label
_atom_site_fract_x
_atom_site_fract_y
_atom_site_fract_z
Si Si1 0.000000 0.026518 0.750000
Si Si2 0.852791 0.694675 0.239497
Si Si3 0.264177 0.857443 0.014134
Si Si4 0.500000 0.673231 0.250000
Si Si5 0.134598 0.028851 0.504906
Si Si6 0.743400 0.173049 0.673665
Si Si7 0.313383 0.389411 0.605873
Si Si8 0.092873 0.251193 0.487909
O O1 0.934123 0.988580 0.631506
O O2 0.071798 0.061425 0.635882
O O3 0.791905 0.759874 0.216566
O O4 0.782032 0.642880 0.319946
O O5 0.930961 0.718657 0.358180
O O6 0.857180 0.665655 0.079687
O O7 0.279272 0.865095 0.182893
O O8 0.219090 0.923188 0.958488
O O9 0.178661 0.803240 0.001071
O O10 0.594312 0.632358 0.297153
O O11 0.513895 0.717230 0.110652
O O12 0.177407 0.964440 0.575402
O O13 0.812200 0.140146 0.555112
O O14 0.641069 0.191861 0.600886
#
# Coordination Sequence:
#
# PCOD9454045 Si02
#       8
#     4   8   8   4   8   8   8   8
#     4  10  23  32  42  60 120 150 190 209 266 292
#     4   9  18  36  55  70  98 149 183 240 282 323
#     4  10  18  33  54  70 101 145 194 225 273 314
#     4  12  21  34  56  84 110 160 184 237 274 338
#     4  11  22  33  46  74 104 159 183 229 254 333
#     4   9  18  35  52  74  97 147 182 245 276 324
#     4  11  21  33  52  75 115 144 194 219 276 326
#     4   9  20  33  54  75 102 141 192 222 292 320
#
# _framework density 21.086501999999999
#
# number of rings (size 3 to 8) (size 9 to 14) (size 15 to 20)
#    0.000    2.000    2.857    3.000    4.000    0.000 
#    0.000    0.000    0.000    0.000    0.000    0.000 
#    0.000   18.286    0.571    0.000    0.000    0.000 
#
# Total GULP energy -311929.618355 kJ/mol
# GULP energy per Si atom -5570.171756 kJ/mol
# Density = 2.103851 g / cm^3
# Si number density = 21.086502 Si / 1000 Ang^3
#
#
#
# Elastic Constant Matrix: (Units=GPa)
#
#
# Indices 1 2 3 4 5 6 
#
# 1 17.1314 20.2216 15.9314 0.0000 0.0000 0.0000
# 2 20.2216 74.0745 24.9069 0.0000 0.0000 0.0000
# 3 15.9314 24.9069 135.2646 0.0000 0.0000 0.0000
# 4 0.0000 0.0000 0.0000 54.2942 0.0000 0.0000
# 5 0.0000 0.0000 0.0000 0.0000 79.0226 0.0000
# 6 0.0000 0.0000 0.0000 0.0000 0.0000 13.8374
#
#
#
# Elastic Compliance Matrix: (Units=1/GPa)
#
#
# Indices 1 2 3 4 5 6 
#
# 1 0.091292 -0.022713 -0.006570 0.000000 0.000000 0.000000
# 2 -0.022713 0.020042 -0.001015 0.000000 0.000000 0.000000
# 3 -0.006570 -0.001015 0.008354 0.000000 0.000000 0.000000
# 4 0.000000 0.000000 0.000000 0.018418 0.000000 0.000000
# 5 0.000000 0.000000 0.000000 0.000000 0.012655 0.000000
# 6 0.000000 0.000000 0.000000 0.000000 0.000000 0.072268
#
#
# Mechanical properties :
#
#
# Convention : Reuss Voigt Hill
#
# Bulk Modulus (GPa) = 16.92300 38.73225 27.82762
# Shear Modulus (GPa) = 16.48418 40.45822 28.47120
#
# Velocity S-wave (km/s) = 2.79900 4.38502 3.67851
# Velocity P-wave (km/s) = 4.29986 6.63672 5.59173
#
# Compressibility (1/GPa) = 0.05909119
#
# Stress axis : x y z
#
# Youngs Moduli (GPa) = 10.95386 49.89613 119.70757
#
# Poissons Ratio (x) = 1.13328 0.78650
# Poissons Ratio (y) = 0.24879 0.12154
# Poissons Ratio (z) = 0.07197 0.05066
#
# Static dielectric constant tensor:
#      x y z
#    x 1.800810 0.000000 0.000000 
#    y 0.000000 1.739700 0.000000 
#    z 0.000000 0.000000 1.871340 
# 
# From -- ./inp_files/6192.got.cif
#   From: 2010.05.17/outbox.cif.g08.bks.cpg/sg60_4_cif.got.tgz:6192.got - 2010.06.03 14:59:27.
