data_PCOD9454431
_publ_section_title
;
Structure prediction by ZEFSAII (Michael W. Deem and Ramdas Pophale) SiO2 
 PCOD9454431
Probable space group: P B C N
;
_chemical_formula_sum "Si O2"
_cell_formula_units_Z 56
_cell_length_a 13.286637
_cell_length_b 13.095138
_cell_length_c 14.085233
_cell_angle_alpha 90.000000
_cell_angle_beta 90.000000
_cell_angle_gamma 90.000000
_cell_volume 2450.694550
_symmetry_space_group_name_H-M "P B C N"
_symmetry_group_IT_number 60
_symmetry_cell_setting 'orthorhombic'
loop_
_space_group_symop_operation_xyz
x,y,z
1/2-x,1/2-y,1/2+z
1/2+x,1/2-y,-z
-x,y,1/2-z
-x,-y,-z
1/2+x,1/2+y,1/2-z
1/2-x,1/2+y,z
x,-y,1/2+z
loop_
_atom_site_type_symbol
_atom_site_label
_atom_site_fract_x
_atom_site_fract_y
_atom_site_fract_z
Si Si1 0.897795 0.188805 0.205407
Si Si2 0.387280 0.547949 0.740537
Si Si3 0.778816 0.532094 0.614072
Si Si4 0.619405 0.219386 0.505903
Si Si5 0.819088 0.252375 0.392205
Si Si6 0.608919 0.469718 0.961412
Si Si7 0.565357 0.100067 0.027769
O O1 0.899696 0.068382 0.222427
O O2 0.894354 0.204186 0.093457
O O3 0.817889 0.236925 0.278640
O O4 0.000000 0.234227 0.250000
O O5 0.500000 0.596622 0.750000
O O6 0.284383 0.573783 0.796115
O O7 0.368385 0.537800 0.629795
O O8 0.842511 0.622458 0.567472
O O9 0.691887 0.509197 0.539219
O O10 0.855537 0.435191 0.609623
O O11 0.708071 0.247494 0.435300
O O12 0.518207 0.186671 0.451226
O O13 0.876809 0.149408 0.430999
O O14 0.874471 0.350717 0.438093
O O15 0.500000 0.500000 0.000000
O O16 0.500000 0.000000 0.000000
#
# Coordination Sequence:
#
# PCOD9454431 Si02
#       7
#     8   8   8   8   8   8   8
#     4  10  19  35  61  87 111 152 211 250 299 374
#     4  10  19  33  58  87 118 157 205 254 314 371
#     4  10  21  36  56  85 124 164 199 263 316 374
#     4  10  21  38  59  86 126 157 210 259 311 385
#     4  10  21  36  61  90 118 163 205 256 322 372
#     4  10  20  35  57  88 123 157 210 260 313 376
#     4  10  21  38  60  88 121 165 209 260 327 382
#
# _framework density 22.850664999999999
#
# number of rings (size 3 to 8) (size 9 to 14) (size 15 to 20)
#    0.000    2.000    2.857    0.857    0.000    2.286 
#    0.000    0.000    0.000    6.857    0.000    0.000 
#    0.000    0.000    0.000    0.000    0.000    0.000 
#
# Total GULP energy -312256.009659 kJ/mol
# GULP energy per Si atom -5576.000172 kJ/mol
# Density = 2.279866 g / cm^3
# Si number density = 22.850665 Si / 1000 Ang^3
#
#
#
# Elastic Constant Matrix: (Units=GPa)
#
#
# Indices 1 2 3 4 5 6 
#
# 1 105.5457 30.8663 28.4734 0.0000 0.0000 0.0000
# 2 30.8663 74.2148 5.3970 0.0000 0.0000 0.0000
# 3 28.4734 5.3970 74.6292 0.0000 0.0000 0.0000
# 4 0.0000 0.0000 0.0000 22.1024 0.0000 0.0000
# 5 0.0000 0.0000 0.0000 0.0000 33.7159 0.0000
# 6 0.0000 0.0000 0.0000 0.0000 0.0000 31.1487
#
#
#
# Elastic Compliance Matrix: (Units=1/GPa)
#
#
# Indices 1 2 3 4 5 6 
#
# 1 0.011984 -0.004676 -0.004234 0.000000 0.000000 0.000000
# 2 -0.004676 0.015370 0.000673 0.000000 0.000000 0.000000
# 3 -0.004234 0.000673 0.014966 0.000000 0.000000 0.000000
# 4 0.000000 0.000000 0.000000 0.045244 0.000000 0.000000
# 5 0.000000 0.000000 0.000000 0.000000 0.029660 0.000000
# 6 0.000000 0.000000 0.000000 0.000000 0.000000 0.032104
#
#
# Mechanical properties :
#
#
# Convention : Reuss Voigt Hill
#
# Bulk Modulus (GPa) = 38.69185 42.65143 40.67164
# Shear Modulus (GPa) = 28.66639 30.03692 29.35165
#
# Velocity S-wave (km/s) = 3.54575 3.62952 3.58788
# Velocity P-wave (km/s) = 5.80796 6.02249 5.91619
#
# Compressibility (1/GPa) = 0.02584524
#
# Stress axis : x y z
#
# Youngs Moduli (GPa) = 83.44131 65.05988 66.81614
#
# Poissons Ratio (x) = 0.30425 0.28292
# Poissons Ratio (y) = 0.39021 -0.04495
# Poissons Ratio (z) = 0.35331 -0.04376
#
# Static dielectric constant tensor:
#      x y z
#    x 1.916660 0.000000 0.000000 
#    y 0.000000 2.022190 0.000000 
#    z 0.000000 0.000000 0.984020 
# 
# From -- ./inp_files/16167.got.cif
#   From: 2010.05.17/outbox.cif.g08.bks.cpg/sg60_9_cif.got.tgz:16167.got - 2010.06.03 14:59:27.
