data_PCOD9454274
_publ_section_title
;
Structure prediction by ZEFSAII (Michael W. Deem and Ramdas Pophale) SiO2 
 PCOD9454274
Probable space group: P B C N
;
_chemical_formula_sum "Si O2"
_cell_formula_units_Z 48
_cell_length_a 20.132333
_cell_length_b 5.316212
_cell_length_c 23.397397
_cell_angle_alpha 90.000000
_cell_angle_beta 90.000000
_cell_angle_gamma 90.000000
_cell_volume 2504.170763
_symmetry_space_group_name_H-M "P B C N"
_symmetry_group_IT_number 60
_symmetry_cell_setting 'orthorhombic'
loop_
_space_group_symop_operation_xyz
x,y,z
1/2-x,1/2-y,1/2+z
1/2+x,1/2-y,-z
-x,y,1/2-z
-x,-y,-z
1/2+x,1/2+y,1/2-z
1/2-x,1/2+y,z
x,-y,1/2+z
loop_
_atom_site_type_symbol
_atom_site_label
_atom_site_fract_x
_atom_site_fract_y
_atom_site_fract_z
Si Si1 0.429754 0.212802 0.456747
Si Si2 0.510516 0.287531 0.928271
Si Si3 0.571070 0.639304 0.718345
Si Si4 0.289379 0.279640 0.259155
Si Si5 0.528592 0.144127 0.686280
Si Si6 0.289390 0.703683 0.897772
O O1 0.431783 0.252026 0.525566
O O2 0.479726 0.433953 0.434792
O O3 0.358684 0.256057 0.429292
O O4 0.457111 0.931524 0.444557
O O5 0.523476 0.225853 0.861811
O O6 0.500000 0.611812 0.750000
O O7 0.633360 0.698815 0.758616
O O8 0.581667 0.370300 0.688350
O O9 0.560801 0.873686 0.676134
O O10 0.246261 0.521703 0.242106
O O11 0.295147 0.284950 0.328544
O O12 0.500000 0.119272 0.750000
O O13 0.258948 0.434073 0.913059
#
# Coordination Sequence:
#
# PCOD9454274 Si02
#       6
#     8   8   8   8   8   8
#     4  10  20  32  49  73 102 131 165 203 251 309
#     4  10  19  32  50  73 101 133 163 207 256 296
#     4  10  20  33  50  74 102 134 172 215 264 308
#     4  10  19  30  47  71  99 131 165 207 263 319
#     4  10  19  31  50  75 102 130 167 211 255 300
#     4  10  19  30  46  70 100 131 162 199 251 312
#
# _framework density 19.168022000000001
#
# number of rings (size 3 to 8) (size 9 to 14) (size 15 to 20)
#    0.000    2.000    0.000    5.000    0.000    2.667 
#    0.000    0.000    0.000    0.000    0.000   28.000 
#    0.000    0.000    0.000    0.000    0.000    0.000 
#
# Total GULP energy -267541.539062 kJ/mol
# GULP energy per Si atom -5573.782064 kJ/mol
# Density = 1.912439 g / cm^3
# Si number density = 19.168022 Si / 1000 Ang^3
#
#
#
# Elastic Constant Matrix: (Units=GPa)
#
#
# Indices 1 2 3 4 5 6 
#
# 1 83.1888 12.3184 1.1899 0.0000 0.0000 0.0000
# 2 12.3184 130.8911 -7.0642 0.0000 0.0000 0.0000
# 3 1.1899 -7.0642 70.0402 0.0000 0.0000 0.0000
# 4 0.0000 0.0000 0.0000 13.2781 0.0000 0.0000
# 5 0.0000 0.0000 0.0000 0.0000 24.6321 0.0000
# 6 0.0000 0.0000 0.0000 0.0000 0.0000 20.6766
#
#
#
# Elastic Compliance Matrix: (Units=1/GPa)
#
#
# Indices 1 2 3 4 5 6 
#
# 1 0.012198 -0.001166 -0.000325 0.000000 0.000000 0.000000
# 2 -0.001166 0.007793 0.000806 0.000000 0.000000 0.000000
# 3 -0.000325 0.000806 0.014364 0.000000 0.000000 0.000000
# 4 0.000000 0.000000 0.000000 0.075312 0.000000 0.000000
# 5 0.000000 0.000000 0.000000 0.000000 0.040597 0.000000
# 6 0.000000 0.000000 0.000000 0.000000 0.000000 0.048364
#
#
# Mechanical properties :
#
#
# Convention : Reuss Voigt Hill
#
# Bulk Modulus (GPa) = 30.31541 33.00092 31.65817
# Shear Modulus (GPa) = 23.69747 30.22911 26.96329
#
# Velocity S-wave (km/s) = 3.51992 3.97553 3.75464
# Velocity P-wave (km/s) = 5.68944 6.19089 5.94546
#
# Compressibility (1/GPa) = 0.03298653
#
# Stress axis : x y z
#
# Youngs Moduli (GPa) = 81.98013 128.31836 69.61703
#
# Poissons Ratio (x) = 0.14956 0.02261
# Poissons Ratio (y) = 0.09555 -0.05610
# Poissons Ratio (z) = 0.02663 -0.10340
#
# Static dielectric constant tensor:
#      x y z
#    x 1.743010 0.000000 0.000000 
#    y 0.000000 1.750410 0.000000 
#    z 0.000000 0.000000 1.864780 
# 
# From -- ./inp_files/23170.got.cif
#   From: 2010.05.17/outbox.cif.g08.bks.cpg/sg60_12_cif.got.tgz:23170.got - 2010.06.03 14:59:27.
