data_PCOD9454923
_publ_section_title
;
Structure prediction by ZEFSAII (Michael W. Deem and Ramdas Pophale) SiO2 
 PCOD9454923
Probable space group: P B C N
;
_chemical_formula_sum "Si O2"
_cell_formula_units_Z 64
_cell_length_a 28.692061
_cell_length_b 14.333375
_cell_length_c 8.925367
_cell_angle_alpha 90.000000
_cell_angle_beta 90.000000
_cell_angle_gamma 90.000000
_cell_volume 3670.593504
_symmetry_space_group_name_H-M "P B C N"
_symmetry_group_IT_number 60
_symmetry_cell_setting 'orthorhombic'
loop_
_space_group_symop_operation_xyz
x,y,z
1/2-x,1/2-y,1/2+z
1/2+x,1/2-y,-z
-x,y,1/2-z
-x,-y,-z
1/2+x,1/2+y,1/2-z
1/2-x,1/2+y,z
x,-y,1/2+z
loop_
_atom_site_type_symbol
_atom_site_label
_atom_site_fract_x
_atom_site_fract_y
_atom_site_fract_z
Si Si1 0.725999 0.554371 0.059046
Si Si2 0.553281 0.973068 0.966073
Si Si3 0.373984 0.118421 0.201023
Si Si4 0.214172 0.128708 0.104510
Si Si5 0.692206 0.748771 0.951694
Si Si6 0.165645 0.552940 0.516198
Si Si7 0.852329 0.274979 0.277727
Si Si8 0.055507 0.640858 0.738490
O O1 0.719781 0.581061 0.232393
O O2 0.780764 0.547172 0.028753
O O3 0.707058 0.453154 0.014643
O O4 0.705253 0.639125 0.958406
O O5 0.571317 0.898888 0.839547
O O6 0.567708 0.073835 0.901332
O O7 0.568176 0.922977 0.118526
O O8 0.500000 0.000000 0.000000
O O9 0.347643 0.215078 0.163204
O O10 0.361287 0.086495 0.367404
O O11 0.351145 0.045198 0.083028
O O12 0.260349 0.191676 0.074393
O O13 0.169948 0.196093 0.118438
O O14 0.671389 0.768516 0.116096
O O15 0.161697 0.627600 0.648362
O O16 0.908329 0.274576 0.264544
O O17 0.000000 0.661451 0.750000
#
# Coordination Sequence:
#
# PCOD9454923 Si02
#       8
#     8   8   8   8   8   8   8   8
#     4  11  23  36  51  77 108 145 184 228 268 318
#     4  10  20  33  51  78 112 145 182 229 274 326
#     4  12  21  33  51  79 109 155 189 222 275 332
#     4  11  24  37  55  77 109 148 188 228 274 332
#     4  11  22  36  54  78 107 150 187 224 274 333
#     4  12  21  31  52  76 109 149 186 222 268 323
#     4  11  23  37  54  79 113 148 188 229 273 335
#     4  10  20  35  55  80 113 147 189 230 282 336
#
# _framework density 17.435870999999999
#
# number of rings (size 3 to 8) (size 9 to 14) (size 15 to 20)
#    0.000    1.000    6.250    1.500    1.750    1.000 
#    0.000    0.000    0.000    0.000    0.000    3.500 
#    0.000    0.000    0.000    0.000    0.000    0.000 
#
# Total GULP energy -356760.766827 kJ/mol
# GULP energy per Si atom -5574.386982 kJ/mol
# Density = 1.739619 g / cm^3
# Si number density = 17.435871 Si / 1000 Ang^3
#
#
#
# Elastic Constant Matrix: (Units=GPa)
#
#
# Indices 1 2 3 4 5 6 
#
# 1 99.8902 31.8927 14.9680 0.0000 0.0000 0.0000
# 2 31.8927 53.5999 -2.6698 0.0000 0.0000 0.0000
# 3 14.9680 -2.6698 40.8567 0.0000 0.0000 0.0000
# 4 0.0000 0.0000 0.0000 25.9041 0.0000 0.0000
# 5 0.0000 0.0000 0.0000 0.0000 25.1385 0.0000
# 6 0.0000 0.0000 0.0000 0.0000 0.0000 32.0717
#
#
#
# Elastic Compliance Matrix: (Units=1/GPa)
#
#
# Indices 1 2 3 4 5 6 
#
# 1 0.013480 -0.008294 -0.005481 0.000000 0.000000 0.000000
# 2 -0.008294 0.023821 0.004595 0.000000 0.000000 0.000000
# 3 -0.005481 0.004595 0.026784 0.000000 0.000000 0.000000
# 4 0.000000 0.000000 0.000000 0.038604 0.000000 0.000000
# 5 0.000000 0.000000 0.000000 0.000000 0.039780 0.000000
# 6 0.000000 0.000000 0.000000 0.000000 0.000000 0.031180
#
#
# Mechanical properties :
#
#
# Convention : Reuss Voigt Hill
#
# Bulk Modulus (GPa) = 21.86939 31.41430 26.64185
# Shear Modulus (GPa) = 24.12553 26.63325 25.37939
#
# Velocity S-wave (km/s) = 3.72381 3.91256 3.81935
# Velocity P-wave (km/s) = 5.57306 6.20218 5.89602
#
# Compressibility (1/GPa) = 0.04572601
#
# Stress axis : x y z
#
# Youngs Moduli (GPa) = 74.18228 41.98032 37.33593
#
# Poissons Ratio (x) = 0.34818 0.20462
# Poissons Ratio (y) = 0.61527 -0.17156
# Poissons Ratio (z) = 0.40656 -0.19290
#
# Static dielectric constant tensor:
#      x y z
#    x 1.697320 0.000000 0.000000 
#    y 0.000000 1.628720 0.000000 
#    z 0.000000 0.000000 1.624640 
# 
# From -- ./inp_files/8550.got.cif
#   From: 2010.05.17/outbox.cif.g08.bks.cpg/sg60_5_cif.got.tgz:8550.got - 2010.06.03 14:59:27.
