data_PCOD9454781
_publ_section_title
;
Structure prediction by ZEFSAII (Michael W. Deem and Ramdas Pophale) SiO2 
 PCOD9454781
Probable space group: P B C N
;
_chemical_formula_sum "Si O2"
_cell_formula_units_Z 32
_cell_length_a 5.108193
_cell_length_b 13.249923
_cell_length_c 18.326369
_cell_angle_alpha 90.000000
_cell_angle_beta 90.000000
_cell_angle_gamma 90.000000
_cell_volume 1240.386637
_symmetry_space_group_name_H-M "P B C N"
_symmetry_group_IT_number 60
_symmetry_cell_setting 'orthorhombic'
loop_
_space_group_symop_operation_xyz
x,y,z
1/2-x,1/2-y,1/2+z
1/2+x,1/2-y,-z
-x,y,1/2-z
-x,-y,-z
1/2+x,1/2+y,1/2-z
1/2-x,1/2+y,z
x,-y,1/2+z
loop_
_atom_site_type_symbol
_atom_site_label
_atom_site_fract_x
_atom_site_fract_y
_atom_site_fract_z
Si Si1 0.033371 0.315747 0.330339
Si Si2 0.021463 0.187111 0.571003
Si Si3 0.152391 0.413604 0.957679
Si Si4 0.232413 0.909992 0.795251
O O1 0.112827 0.199899 0.314081
O O2 0.764841 0.321553 0.373918
O O3 0.000000 0.365290 0.250000
O O4 0.267280 0.344156 0.384203
O O5 0.995093 0.304474 0.546961
O O6 0.086873 0.117778 0.501819
O O7 0.199160 0.448328 0.875230
O O8 0.000000 0.500000 0.000000
O O9 0.500000 0.898829 0.750000
O O10 0.000000 0.963522 0.750000
#
# Coordination Sequence:
#
# PCOD9454781 Si02
#       4
#     8   8   8   8
#     4  10  19  38  67  98 137 186 231 289 356 416
#     4  11  23  41  66 104 143 180 242 292 345 435
#     4  11  24  45  73 106 145 193 240 303 367 424
#     4  10  20  38  64  96 133 179 231 282 349 427
#
# _framework density 25.798410000000001
#
# number of rings (size 3 to 8) (size 9 to 14) (size 15 to 20)
#    0.000    1.500    0.000    9.750    0.000    2.000 
#    0.000   32.500    0.000   13.500    0.000    0.000 
#    0.000    0.000    0.000    0.000    0.000    0.000 
#
# Total GULP energy -179437.636829 kJ/mol
# GULP energy per Si atom -5607.426151 kJ/mol
# Density = 2.573969 g / cm^3
# Si number density = 25.798410 Si / 1000 Ang^3
#
#
#
# Elastic Constant Matrix: (Units=GPa)
#
#
# Indices 1 2 3 4 5 6 
#
# 1 127.3311 15.6333 68.1001 0.0000 0.0000 0.0000
# 2 15.6333 116.2069 22.4514 0.0000 0.0000 0.0000
# 3 68.1001 22.4514 227.2357 0.0000 0.0000 0.0000
# 4 0.0000 0.0000 0.0000 170.5355 0.0000 0.0000
# 5 0.0000 0.0000 0.0000 0.0000 66.9937 0.0000
# 6 0.0000 0.0000 0.0000 0.0000 0.0000 -182.2354
#
#
#
# Elastic Compliance Matrix: (Units=1/GPa)
#
#
# Indices 1 2 3 4 5 6 
#
# 1 0.009414 -0.000735 -0.002749 0.000000 0.000000 0.000000
# 2 -0.000735 0.008830 -0.000652 0.000000 0.000000 0.000000
# 3 -0.002749 -0.000652 0.005289 0.000000 0.000000 0.000000
# 4 0.000000 0.000000 0.000000 0.005864 0.000000 0.000000
# 5 0.000000 0.000000 0.000000 0.000000 0.014927 0.000000
# 6 0.000000 0.000000 0.000000 0.000000 0.000000 -0.005487
#
#
# Mechanical properties :
#
#
# Convention : Reuss Voigt Hill
#
# Bulk Modulus (GPa) = 65.52701 75.90482 70.71591
# Shear Modulus (GPa) = 95.79421 35.36469 65.57945
#
# Velocity S-wave (km/s) = 6.10020 3.70646 5.04729
# Velocity P-wave (km/s) = 8.66437 6.91399 7.83820
#
# Compressibility (1/GPa) = 0.01526088
#
# Stress axis : x y z
#
# Youngs Moduli (GPa) = 106.22660 113.24701 189.07676
#
# Poissons Ratio (x) = 0.08328 0.51969
# Poissons Ratio (y) = 0.07812 0.12329
# Poissons Ratio (z) = 0.29197 0.07384
#
# Static dielectric constant tensor:
#      x y z
#    x 2.014560 0.000000 0.000000 
#    y 0.000000 2.062850 0.000000 
#    z 0.000000 0.000000 2.082430 
# 
# From -- ./inp_files/13646.got.cif
#   From: 2010.05.17/outbox.cif.g08.bks.cpg/sg60_7_cif.got.tgz:13646.got - 2010.06.03 14:59:27.
