data_PCOD9454840
_publ_section_title
;
Structure prediction by ZEFSAII (Michael W. Deem and Ramdas Pophale) SiO2 
 PCOD9454840
Probable space group: P B C N
;
_chemical_formula_sum "Si O2"
_cell_formula_units_Z 40
_cell_length_a 10.282336
_cell_length_b 12.085706
_cell_length_c 13.171576
_cell_angle_alpha 90.000000
_cell_angle_beta 90.000000
_cell_angle_gamma 90.000000
_cell_volume 1636.822396
_symmetry_space_group_name_H-M "P B C N"
_symmetry_group_IT_number 60
_symmetry_cell_setting 'orthorhombic'
loop_
_space_group_symop_operation_xyz
x,y,z
1/2-x,1/2-y,1/2+z
1/2+x,1/2-y,-z
-x,y,1/2-z
-x,-y,-z
1/2+x,1/2+y,1/2-z
1/2-x,1/2+y,z
x,-y,1/2+z
loop_
_atom_site_type_symbol
_atom_site_label
_atom_site_fract_x
_atom_site_fract_y
_atom_site_fract_z
Si Si1 0.000000 0.259034 0.250000
Si Si2 0.710358 0.930943 0.476073
Si Si3 0.500000 0.400236 0.250000
Si Si4 0.434893 0.086920 0.903581
Si Si5 0.825553 0.083304 0.330265
Si Si6 0.119736 0.735839 0.096777
O O1 0.900175 0.336131 0.189965
O O2 0.934598 0.177389 0.329530
O O3 0.588535 0.938318 0.397565
O O4 0.775306 0.813506 0.461529
O O5 0.651076 0.978405 0.579790
O O6 0.813044 0.021376 0.437291
O O7 0.376909 0.485914 0.244688
O O8 0.521241 0.317883 0.345419
O O9 0.431430 0.158164 0.007267
O O10 0.694307 0.156527 0.322219
#
# Coordination Sequence:
#
# PCOD9454840 Si02
#       6
#     4   8   4   8   8   8
#     4  11  20  40  61  94 128 165 210 268 305 380
#     4   9  19  41  62  89 125 170 208 268 320 376
#     4   9  20  38  67  94 124 171 216 262 321 386
#     4  10  21  38  64  91 128 169 217 258 318 386
#     4   9  19  38  65  88 127 167 208 267 316 375
#     4  10  19  41  66  90 134 168 209 270 318 381
#
# _framework density 24.437594000000001
#
# number of rings (size 3 to 8) (size 9 to 14) (size 15 to 20)
#    0.000    2.400    2.000    0.000    0.000    0.000 
#    7.200   16.000    0.000    0.000    0.000    0.000 
#    0.000    0.000    0.000    0.000    0.000    0.000 
#
# Total GULP energy -222820.516767 kJ/mol
# GULP energy per Si atom -5570.512919 kJ/mol
# Density = 2.438197 g / cm^3
# Si number density = 24.437594 Si / 1000 Ang^3
#
#
#
# Elastic Constant Matrix: (Units=GPa)
#
#
# Indices 1 2 3 4 5 6 
#
# 1 50.8075 43.1580 30.3840 0.0000 0.0000 0.0000
# 2 43.1580 151.5611 49.3678 0.0000 0.0000 0.0000
# 3 30.3840 49.3678 62.5984 0.0000 0.0000 0.0000
# 4 0.0000 0.0000 0.0000 9.2336 0.0000 0.0000
# 5 0.0000 0.0000 0.0000 0.0000 24.6237 0.0000
# 6 0.0000 0.0000 0.0000 0.0000 0.0000 22.7353
#
#
#
# Elastic Compliance Matrix: (Units=1/GPa)
#
#
# Indices 1 2 3 4 5 6 
#
# 1 0.030499 -0.005198 -0.010704 0.000000 0.000000 0.000000
# 2 -0.005198 0.009765 -0.005178 0.000000 0.000000 0.000000
# 3 -0.010704 -0.005178 0.025254 0.000000 0.000000 0.000000
# 4 0.000000 0.000000 0.000000 0.108301 0.000000 0.000000
# 5 0.000000 0.000000 0.000000 0.000000 0.040611 0.000000
# 6 0.000000 0.000000 0.000000 0.000000 0.000000 0.043984
#
#
# Mechanical properties :
#
#
# Convention : Reuss Voigt Hill
#
# Bulk Modulus (GPa) = 42.81292 56.75406 49.78349
# Shear Modulus (GPa) = 16.21483 20.78900 18.50191
#
# Velocity S-wave (km/s) = 2.57868 2.91984 2.75455
# Velocity P-wave (km/s) = 5.14038 5.88572 5.52563
#
# Compressibility (1/GPa) = 0.02335743
#
# Stress axis : x y z
#
# Youngs Moduli (GPa) = 32.78806 102.40880 39.59788
#
# Poissons Ratio (x) = 0.53234 0.42386
# Poissons Ratio (y) = 0.17044 0.20503
# Poissons Ratio (z) = 0.35097 0.53026
#
# Static dielectric constant tensor:
#      x y z
#    x 1.992880 0.000000 0.000000 
#    y 0.000000 1.949500 0.000000 
#    z 0.000000 0.000000 1.964920 
# 
# From -- ./inp_files/15883.got.cif
#   From: 2010.05.17/outbox.cif.g08.bks.cpg/sg60_8_cif.got.tgz:15883.got - 2010.06.03 14:59:27.
