data_PCOD9454905
_publ_section_title
;
Structure prediction by ZEFSAII (Michael W. Deem and Ramdas Pophale) SiO2 
 PCOD9454905
Probable space group: P B C N
;
_chemical_formula_sum "Si O2"
_cell_formula_units_Z 52
_cell_length_a 21.743549
_cell_length_b 20.370585
_cell_length_c 5.961244
_cell_angle_alpha 90.000000
_cell_angle_beta 90.000000
_cell_angle_gamma 90.000000
_cell_volume 2640.406730
_symmetry_space_group_name_H-M "P B C N"
_symmetry_group_IT_number 60
_symmetry_cell_setting 'orthorhombic'
loop_
_space_group_symop_operation_xyz
x,y,z
1/2-x,1/2-y,1/2+z
1/2+x,1/2-y,-z
-x,y,1/2-z
-x,-y,-z
1/2+x,1/2+y,1/2-z
1/2-x,1/2+y,z
x,-y,1/2+z
loop_
_atom_site_type_symbol
_atom_site_label
_atom_site_fract_x
_atom_site_fract_y
_atom_site_fract_z
Si Si1 0.192461 0.239980 0.699966
Si Si2 0.225518 0.031338 0.843023
Si Si3 0.413371 0.489108 0.857667
Si Si4 0.402052 0.662677 0.442891
Si Si5 0.000000 0.770284 0.250000
Si Si6 0.193753 0.337377 0.342001
Si Si7 0.902125 0.730656 0.926738
O O1 0.163649 0.186204 0.534127
O O2 0.182989 0.311812 0.593913
O O3 0.261107 0.219823 0.751126
O O4 0.150778 0.239025 0.917733
O O5 0.265837 0.097552 0.834453
O O6 0.239350 0.998419 0.595428
O O7 0.150382 0.031869 0.847400
O O8 0.441546 0.497760 0.607064
O O9 0.399543 0.411641 0.869141
O O10 0.452054 0.680925 0.630380
O O11 0.418795 0.712598 0.246647
O O12 0.038323 0.723798 0.417935
O O13 0.130314 0.329809 0.203701
#
# Coordination Sequence:
#
# PCOD9454905 Si02
#       7
#     8   8   8   8   4   8   8
#     4  10  20  32  56  91 120 155 195 267 334 390
#     4  10  23  36  57  85 130 178 211 251 310 394
#     4  10  22  37  57  87 119 171 219 257 311 375
#     4  10  22  38  63  84 123 162 215 269 320 381
#     4  10  22  42  64  88 118 164 220 272 334 380
#     4  11  21  34  57  91 129 160 212 262 332 400
#     4  10  22  37  61  89 121 161 204 271 338 380
#
# _framework density 19.693936000000001
#
# number of rings (size 3 to 8) (size 9 to 14) (size 15 to 20)
#    0.000    1.846    1.538    2.308   10.769    0.000 
#    0.000    0.769    0.000    0.000    0.000    1.077 
#    0.000    0.000    0.000    0.000    0.000    0.000 
#
# Total GULP energy -289531.387740 kJ/mol
# GULP energy per Si atom -5567.911303 kJ/mol
# Density = 1.964911 g / cm^3
# Si number density = 19.693936 Si / 1000 Ang^3
#
#
#
# Elastic Constant Matrix: (Units=GPa)
#
#
# Indices 1 2 3 4 5 6 
#
# 1 56.9824 21.8901 19.1942 0.0000 0.0000 0.0000
# 2 21.8901 50.2353 39.7173 0.0000 0.0000 0.0000
# 3 19.1942 39.7173 117.1590 0.0000 0.0000 0.0000
# 4 0.0000 0.0000 0.0000 0.7298 0.0000 0.0000
# 5 0.0000 0.0000 0.0000 0.0000 41.5033 0.0000
# 6 0.0000 0.0000 0.0000 0.0000 0.0000 -6.2839
#
#
#
# Elastic Compliance Matrix: (Units=1/GPa)
#
#
# Indices 1 2 3 4 5 6 
#
# 1 0.021096 -0.008826 -0.000464 0.000000 0.000000 0.000000
# 2 -0.008826 0.030888 -0.009025 0.000000 0.000000 0.000000
# 3 -0.000464 -0.009025 0.011671 0.000000 0.000000 0.000000
# 4 0.000000 0.000000 0.000000 1.370232 0.000000 0.000000
# 5 0.000000 0.000000 0.000000 0.000000 0.024094 0.000000
# 6 0.000000 0.000000 0.000000 0.000000 0.000000 -0.159136
#
#
# Mechanical properties :
#
#
# Convention : Reuss Voigt Hill
#
# Bulk Modulus (GPa) = 37.00311 42.88665 39.94488
# Shear Modulus (GPa) = 3.71890 16.76151 10.24020
#
# Velocity S-wave (km/s) = 1.37566 2.92053 2.28275
# Velocity P-wave (km/s) = 4.62095 5.76164 5.22253
#
# Compressibility (1/GPa) = 0.02702476
#
# Stress axis : x y z
#
# Youngs Moduli (GPa) = 47.40222 32.37554 85.68240
#
# Poissons Ratio (x) = 0.28573 0.03978
# Poissons Ratio (y) = 0.41835 0.77329
# Poissons Ratio (z) = 0.02201 0.29219
#
# Static dielectric constant tensor:
#      x y z
#    x 1.717890 0.000000 0.000000 
#    y 0.000000 1.674710 0.000000 
#    z 0.000000 0.000000 1.851700 
# 
# From -- ./inp_files/2083.got.cif
#   From: 2010.05.17/outbox.cif.g08.bks.cpg/sg60_2_cif.got.tgz:2083.got - 2010.06.03 14:59:27.
