data_PCOD9454644
_publ_section_title
;
Structure prediction by ZEFSAII (Michael W. Deem and Ramdas Pophale) SiO2 
 PCOD9454644
Probable space group: P B C N
;
_chemical_formula_sum "Si O2"
_cell_formula_units_Z 40
_cell_length_a 8.440586
_cell_length_b 8.865480
_cell_length_c 20.265637
_cell_angle_alpha 90.000000
_cell_angle_beta 90.000000
_cell_angle_gamma 90.000000
_cell_volume 1516.474503
_symmetry_space_group_name_H-M "P B C N"
_symmetry_group_IT_number 60
_symmetry_cell_setting 'orthorhombic'
loop_
_space_group_symop_operation_xyz
x,y,z
1/2-x,1/2-y,1/2+z
1/2+x,1/2-y,-z
-x,y,1/2-z
-x,-y,-z
1/2+x,1/2+y,1/2-z
1/2-x,1/2+y,z
x,-y,1/2+z
loop_
_atom_site_type_symbol
_atom_site_label
_atom_site_fract_x
_atom_site_fract_y
_atom_site_fract_z
Si Si1 0.736626 0.019706 0.312448
Si Si2 0.815643 0.121138 0.022387
Si Si3 0.981991 0.732198 0.862635
Si Si4 0.690331 0.729971 0.714562
Si Si5 0.553663 0.695288 0.571854
O O1 0.856087 0.133253 0.349265
O O2 0.661952 0.117640 0.253698
O O3 0.608621 0.927481 0.355644
O O4 0.828631 0.896343 0.269561
O O5 0.636862 0.160618 0.039225
O O6 0.925976 0.223044 0.070698
O O7 0.856791 0.950027 0.040629
O O8 0.873838 0.168348 0.949870
O O9 0.125368 0.732765 0.809379
O O10 0.590903 0.705307 0.648545
#
# Coordination Sequence:
#
# PCOD9454644 Si02
#       5
#     8   8   8   8   8
#     4  10  19  36  60  85 120 162 203 253 304 366
#     4  10  23  44  65  94 128 165 214 264 319 376
#     4  10  22  39  58  87 126 160 207 260 310 373
#     4  10  20  39  60  87 123 164 206 252 313 374
#     4  10  22  42  68  93 127 168 210 265 317 379
#
# _framework density 26.37697
#
# number of rings (size 3 to 8) (size 9 to 14) (size 15 to 20)
#    0.000    2.000    0.000    4.800    0.000    4.000 
#    0.000   38.000    0.000    0.000    0.000    0.000 
#    0.000    0.000    0.000    0.000    0.000    0.000 
#
# Total GULP energy -224219.755419 kJ/mol
# GULP energy per Si atom -5605.493885 kJ/mol
# Density = 2.631694 g / cm^3
# Si number density = 26.376970 Si / 1000 Ang^3
#
#
#
# Elastic Constant Matrix: (Units=GPa)
#
#
# Indices 1 2 3 4 5 6 
#
# 1 109.2419 25.8140 37.1290 0.0000 0.0000 0.0000
# 2 25.8140 109.0311 13.7358 0.0000 0.0000 0.0000
# 3 37.1290 13.7358 47.9860 0.0000 0.0000 0.0000
# 4 0.0000 0.0000 0.0000 26.5219 0.0000 0.0000
# 5 0.0000 0.0000 0.0000 0.0000 60.3838 0.0000
# 6 0.0000 0.0000 0.0000 0.0000 0.0000 29.7330
#
#
#
# Elastic Compliance Matrix: (Units=1/GPa)
#
#
# Indices 1 2 3 4 5 6 
#
# 1 0.012768 -0.001845 -0.009351 0.000000 0.000000 0.000000
# 2 -0.001845 0.009781 -0.001372 0.000000 0.000000 0.000000
# 3 -0.009351 -0.001372 0.028468 0.000000 0.000000 0.000000
# 4 0.000000 0.000000 0.000000 0.037705 0.000000 0.000000
# 5 0.000000 0.000000 0.000000 0.000000 0.016561 0.000000
# 6 0.000000 0.000000 0.000000 0.000000 0.000000 0.033633
#
#
# Mechanical properties :
#
#
# Convention : Reuss Voigt Hill
#
# Bulk Modulus (GPa) = 38.63951 46.62405 42.63178
# Shear Modulus (GPa) = 28.95539 35.96643 32.46091
#
# Velocity S-wave (km/s) = 3.31683 3.69664 3.51187
# Velocity P-wave (km/s) = 5.41749 5.99455 5.71331
#
# Compressibility (1/GPa) = 0.02588025
#
# Stress axis : x y z
#
# Youngs Moduli (GPa) = 78.31928 102.23502 35.12743
#
# Poissons Ratio (x) = 0.18861 0.32849
# Poissons Ratio (y) = 0.14449 0.04821
# Poissons Ratio (z) = 0.73239 0.14031
#
# Static dielectric constant tensor:
#      x y z
#    x 2.095230 0.000000 0.000000 
#    y 0.000000 2.055860 0.000000 
#    z 0.000000 0.000000 2.069870 
# 
# From -- ./inp_files/23833.got.cif
#   From: 2010.05.17/outbox.cif.g08.bks.cpg/sg60_12_cif.got.tgz:23833.got - 2010.06.03 14:59:27.
