data_PCOD9454121
_publ_section_title
;
Structure prediction by ZEFSAII (Michael W. Deem and Ramdas Pophale) SiO2 
 PCOD9454121
Probable space group: P B C N
;
_chemical_formula_sum "Si O2"
_cell_formula_units_Z 40
_cell_length_a 13.100748
_cell_length_b 12.235726
_cell_length_c 8.836972
_cell_angle_alpha 90.000000
_cell_angle_beta 90.000000
_cell_angle_gamma 90.000000
_cell_volume 1416.541540
_symmetry_space_group_name_H-M "P B C N"
_symmetry_group_IT_number 60
_symmetry_cell_setting 'orthorhombic'
loop_
_space_group_symop_operation_xyz
x,y,z
1/2-x,1/2-y,1/2+z
1/2+x,1/2-y,-z
-x,y,1/2-z
-x,-y,-z
1/2+x,1/2+y,1/2-z
1/2-x,1/2+y,z
x,-y,1/2+z
loop_
_atom_site_type_symbol
_atom_site_label
_atom_site_fract_x
_atom_site_fract_y
_atom_site_fract_z
Si Si1 0.126183 0.454281 0.274046
Si Si2 0.194455 0.243173 0.449426
Si Si3 0.037660 0.110467 0.924948
Si Si4 0.076708 0.654443 0.468466
Si Si5 0.286621 0.626396 0.172416
O O1 0.163142 0.361894 0.388738
O O2 0.066628 0.549964 0.362071
O O3 0.224933 0.516103 0.203109
O O4 0.075052 0.388680 0.137768
O O5 0.307787 0.190072 0.432213
O O6 0.146713 0.161294 0.320171
O O7 0.208768 0.273209 0.628152
O O8 0.005350 0.238757 0.952250
O O9 0.000000 0.097544 0.750000
O O10 0.144719 0.113845 0.021163
O O11 0.000000 0.000000 0.000000
#
# Coordination Sequence:
#
# PCOD9454121 Si02
#       5
#     8   8   8   8   8
#     4  11  19  37  65 101 133 160 215 299 353 402
#     4  10  18  35  58 100 136 159 206 284 358 410
#     4  11  26  47  62  91 137 189 237 268 322 424
#     4  10  23  39  65 102 130 173 219 281 358 401
#     4  10  22  36  65  98 128 171 219 276 357 404
#
# _framework density 28.237788999999999
#
# number of rings (size 3 to 8) (size 9 to 14) (size 15 to 20)
#    0.000    1.600    6.000    0.000    5.600    0.000 
#    0.000    3.000    0.000    0.000    0.000    0.000 
#    0.000    0.000    0.000    0.000    0.000    0.000 
#
# Total GULP energy -222734.903003 kJ/mol
# GULP energy per Si atom -5568.372575 kJ/mol
# Density = 2.817352 g / cm^3
# Si number density = 28.237789 Si / 1000 Ang^3
#
#
#
# Elastic Constant Matrix: (Units=GPa)
#
#
# Indices 1 2 3 4 5 6 
#
# 1 27.0407 37.1045 7.1653 0.0000 0.0000 0.0000
# 2 37.1045 208.9059 100.5929 0.0000 0.0000 0.0000
# 3 7.1653 100.5929 217.2807 0.0000 0.0000 0.0000
# 4 0.0000 0.0000 0.0000 75.1478 0.0000 0.0000
# 5 0.0000 0.0000 0.0000 0.0000 46.1145 0.0000
# 6 0.0000 0.0000 0.0000 0.0000 0.0000 54.9411
#
#
#
# Elastic Compliance Matrix: (Units=1/GPa)
#
#
# Indices 1 2 3 4 5 6 
#
# 1 0.050576 -0.010527 0.003206 0.000000 0.000000 0.000000
# 2 -0.010527 0.008351 -0.003519 0.000000 0.000000 0.000000
# 3 0.003206 -0.003519 0.006126 0.000000 0.000000 0.000000
# 4 0.000000 0.000000 0.000000 0.013307 0.000000 0.000000
# 5 0.000000 0.000000 0.000000 0.000000 0.021685 0.000000
# 6 0.000000 0.000000 0.000000 0.000000 0.000000 0.018201
#
#
# Mechanical properties :
#
#
# Convention : Reuss Voigt Hill
#
# Bulk Modulus (GPa) = 23.05597 82.55033 52.80315
# Shear Modulus (GPa) = 32.38676 55.79833 44.09254
#
# Velocity S-wave (km/s) = 3.39031 4.45006 3.95583
# Velocity P-wave (km/s) = 4.84853 7.46335 6.29324
#
# Compressibility (1/GPa) = 0.04337272
#
# Stress axis : x y z
#
# Youngs Moduli (GPa) = 19.77223 119.74607 163.24317
#
# Poissons Ratio (x) = 1.26051 -0.52328
# Poissons Ratio (y) = 0.20813 0.57446
# Poissons Ratio (z) = -0.06338 0.42139
#
# Static dielectric constant tensor:
#      x y z
#    x 2.550870 0.000000 0.000000 
#    y 0.000000 2.216000 0.000000 
#    z 0.000000 0.000000 2.448140 
# 
# From -- ./inp_files/6537.got.cif
#   From: 2010.05.17/outbox.cif.g08.bks.cpg/sg60_4_cif.got.tgz:6537.got - 2010.06.03 14:59:27.
