data_PCOD9454608
_publ_section_title
;
Structure prediction by ZEFSAII (Michael W. Deem and Ramdas Pophale) SiO2 
 PCOD9454608
Probable space group: P B C N
;
_chemical_formula_sum "Si O2"
_cell_formula_units_Z 56
_cell_length_a 15.958434
_cell_length_b 8.632712
_cell_length_c 16.372753
_cell_angle_alpha 90.000000
_cell_angle_beta 90.000000
_cell_angle_gamma 90.000000
_cell_volume 2255.585190
_symmetry_space_group_name_H-M "P B C N"
_symmetry_group_IT_number 60
_symmetry_cell_setting 'orthorhombic'
loop_
_space_group_symop_operation_xyz
x,y,z
1/2-x,1/2-y,1/2+z
1/2+x,1/2-y,-z
-x,y,1/2-z
-x,-y,-z
1/2+x,1/2+y,1/2-z
1/2-x,1/2+y,z
x,-y,1/2+z
loop_
_atom_site_type_symbol
_atom_site_label
_atom_site_fract_x
_atom_site_fract_y
_atom_site_fract_z
Si Si1 0.354511 0.011982 0.544483
Si Si2 0.364101 0.582895 0.407176
Si Si3 0.288343 0.702963 0.872348
Si Si4 0.140274 0.501709 0.848498
Si Si5 0.640219 0.578513 0.287161
Si Si6 0.996351 0.714690 0.877415
Si Si7 0.215602 0.219044 0.633747
O O1 0.337951 0.845536 0.584759
O O2 0.359388 0.000066 0.447180
O O3 0.438538 0.093706 0.575527
O O4 0.278938 0.120467 0.576790
O O5 0.282013 0.689463 0.414089
O O6 0.340016 0.409338 0.433099
O O7 0.377452 0.566125 0.309085
O O8 0.445120 0.676126 0.434833
O O9 0.226105 0.587995 0.822753
O O10 0.350419 0.821488 0.827012
O O11 0.061995 0.607855 0.825742
O O12 0.564268 0.670255 0.329095
O O13 0.656809 0.409692 0.324908
O O14 0.722874 0.680804 0.307670
#
# Coordination Sequence:
#
# PCOD9454608 Si02
#       7
#     8   8   8   8   8   8   8
#     4  10  19  36  55  79 111 142 174 222 267 314
#     4  10  19  36  54  75 104 136 173 225 268 309
#     4   9  20  34  57  81 100 136 187 218 261 325
#     4  10  19  36  55  79 111 142 174 222 267 314
#     4  10  19  36  54  75 104 136 173 225 268 309
#     4  10  22  34  51  78 108 140 176 210 263 326
#     4   9  20  34  57  81 100 136 187 218 261 325
#
# _framework density 24.827262000000001
#
# number of rings (size 3 to 8) (size 9 to 14) (size 15 to 20)
#    0.000    2.286    0.000    2.571    0.000    1.143 
#    0.000    5.714    0.000    0.000    0.000    0.000 
#    0.000    0.000    0.000    0.000    0.000    0.000 
#
# Total GULP energy -313152.282117 kJ/mol
# GULP energy per Si atom -5592.005038 kJ/mol
# Density = 2.477075 g / cm^3
# Si number density = 24.827262 Si / 1000 Ang^3
#
#
#
# Elastic Constant Matrix: (Units=GPa)
#
#
# Indices 1 2 3 4 5 6 
#
# 1 143.1240 78.5115 20.1252 0.0000 0.0000 0.0000
# 2 78.5115 217.8466 30.5116 0.0000 0.0000 0.0000
# 3 20.1252 30.5116 68.7026 0.0000 0.0000 0.0000
# 4 0.0000 0.0000 0.0000 29.6226 0.0000 0.0000
# 5 0.0000 0.0000 0.0000 0.0000 24.2460 0.0000
# 6 0.0000 0.0000 0.0000 0.0000 0.0000 53.5780
#
#
#
# Elastic Compliance Matrix: (Units=1/GPa)
#
#
# Indices 1 2 3 4 5 6 
#
# 1 0.008808 -0.003000 -0.001248 0.000000 0.000000 0.000000
# 2 -0.003000 0.005916 -0.001749 0.000000 0.000000 0.000000
# 3 -0.001248 -0.001749 0.015698 0.000000 0.000000 0.000000
# 4 0.000000 0.000000 0.000000 0.033758 0.000000 0.000000
# 5 0.000000 0.000000 0.000000 0.000000 0.041244 0.000000
# 6 0.000000 0.000000 0.000000 0.000000 0.000000 0.018664
#
#
# Mechanical properties :
#
#
# Convention : Reuss Voigt Hill
#
# Bulk Modulus (GPa) = 54.26171 76.44109 65.35140
# Shear Modulus (GPa) = 35.15580 41.52432 38.34006
#
# Velocity S-wave (km/s) = 3.76708 4.09409 3.93399
# Velocity P-wave (km/s) = 6.38939 7.29416 6.85672
#
# Compressibility (1/GPa) = 0.01842920
#
# Stress axis : x y z
#
# Youngs Moduli (GPa) = 113.53515 169.02281 63.70344
#
# Poissons Ratio (x) = 0.50699 0.07950
# Poissons Ratio (y) = 0.34055 0.11141
# Poissons Ratio (z) = 0.14169 0.29560
#
# Static dielectric constant tensor:
#      x y z
#    x 1.982050 0.000000 0.000000 
#    y 0.000000 2.066250 0.000000 
#    z 0.000000 0.000000 2.055230 
# 
# From -- ./inp_files/22888.got.cif
#   From: 2010.05.17/outbox.cif.g08.bks.cpg/sg60_12_cif.got.tgz:22888.got - 2010.06.03 14:59:27.
