data_PCOD9454097
_publ_section_title
;
Structure prediction by ZEFSAII (Michael W. Deem and Ramdas Pophale) SiO2 
 PCOD9454097
Probable space group: P B C N
;
_chemical_formula_sum "Si O2"
_cell_formula_units_Z 36
_cell_length_a 13.283009
_cell_length_b 11.885468
_cell_length_c 9.060828
_cell_angle_alpha 90.000000
_cell_angle_beta 90.000000
_cell_angle_gamma 90.000000
_cell_volume 1430.476213
_symmetry_space_group_name_H-M "P B C N"
_symmetry_group_IT_number 60
_symmetry_cell_setting 'orthorhombic'
loop_
_space_group_symop_operation_xyz
x,y,z
1/2-x,1/2-y,1/2+z
1/2+x,1/2-y,-z
-x,y,1/2-z
-x,-y,-z
1/2+x,1/2+y,1/2-z
1/2-x,1/2+y,z
x,-y,1/2+z
loop_
_atom_site_type_symbol
_atom_site_label
_atom_site_fract_x
_atom_site_fract_y
_atom_site_fract_z
Si Si1 0.000000 0.456524 0.750000
Si Si2 0.205004 0.855972 0.358826
Si Si3 0.583340 0.852428 0.043147
Si Si4 0.500000 0.320419 0.250000
Si Si5 0.500000 0.676106 0.250000
Si Si6 0.861149 0.994041 0.377403
O O1 0.067802 0.537244 0.854124
O O2 0.057555 0.382618 0.625502
O O3 0.304432 0.805875 0.429566
O O4 0.173028 0.953635 0.471794
O O5 0.106142 0.781554 0.324294
O O6 0.224598 0.922250 0.205428
O O7 0.511351 0.759493 0.112551
O O8 0.452633 0.404843 0.125028
O O9 0.404372 0.597174 0.219554
#
# Coordination Sequence:
#
# PCOD9454097 Si02
#       6
#     4   8   8   4   4   8
#     4   9  20  39  59  81 114 162 206 239 290 371
#     4  10  18  34  60  86 108 155 207 235 293 373
#     4  10  20  38  61  83 114 158 202 248 297 365
#     4   7  18  29  57  82 107 140 194 251 280 351
#     4  10  22  38  56  85 131 152 180 252 314 334
#     4   9  19  36  58  84 119 152 195 254 297 357
#
# _framework density 25.166443000000001
#
# number of rings (size 3 to 8) (size 9 to 14) (size 15 to 20)
#    1.333    1.333    0.000    2.000    0.000    0.000 
#    0.000   16.667    0.000    0.000    0.000    0.000 
#    0.000    0.000    0.000    0.000    0.000    0.000 
#
# Total GULP energy -200700.249709 kJ/mol
# GULP energy per Si atom -5575.006936 kJ/mol
# Density = 2.510916 g / cm^3
# Si number density = 25.166443 Si / 1000 Ang^3
#
#
#
# Elastic Constant Matrix: (Units=GPa)
#
#
# Indices 1 2 3 4 5 6 
#
# 1 98.4709 9.2824 37.8986 0.0000 0.0000 0.0000
# 2 9.2824 53.9989 51.9657 0.0000 0.0000 0.0000
# 3 37.8986 51.9657 153.4321 0.0000 0.0000 0.0000
# 4 0.0000 0.0000 0.0000 50.1466 0.0000 0.0000
# 5 0.0000 0.0000 0.0000 0.0000 28.9512 0.0000
# 6 0.0000 0.0000 0.0000 0.0000 0.0000 6.2569
#
#
#
# Elastic Compliance Matrix: (Units=1/GPa)
#
#
# Indices 1 2 3 4 5 6 
#
# 1 0.011266 0.001100 -0.003155 0.000000 0.000000 0.000000
# 2 0.001100 0.027581 -0.009613 0.000000 0.000000 0.000000
# 3 -0.003155 -0.009613 0.010553 0.000000 0.000000 0.000000
# 4 0.000000 0.000000 0.000000 0.019942 0.000000 0.000000
# 5 0.000000 0.000000 0.000000 0.000000 0.034541 0.000000
# 6 0.000000 0.000000 0.000000 0.000000 0.000000 0.159822
#
#
# Mechanical properties :
#
#
# Convention : Reuss Voigt Hill
#
# Bulk Modulus (GPa) = 38.36899 56.02169 47.19534
# Shear Modulus (GPa) = 16.90739 30.85463 23.88101
#
# Velocity S-wave (km/s) = 2.59477 3.50526 3.08380
# Velocity P-wave (km/s) = 4.92507 6.22023 5.61015
#
# Compressibility (1/GPa) = 0.02606272
#
# Stress axis : x y z
#
# Youngs Moduli (GPa) = 88.76281 36.25705 94.76237
#
# Poissons Ratio (x) = -0.03988 0.29900
# Poissons Ratio (y) = -0.09762 0.91095
# Poissons Ratio (z) = 0.28007 0.34854
#
# Static dielectric constant tensor:
#      x y z
#    x 2.002610 0.000000 0.000000 
#    y 0.000000 2.039030 0.000000 
#    z 0.000000 0.000000 2.002550 
# 
# From -- ./inp_files/5629.got.cif
#   From: 2010.05.17/outbox.cif.g08.bks.cpg/sg60_3_cif.got.tgz:5629.got - 2010.06.03 14:59:27.
