data_PCOD9454992
_publ_section_title
;
Structure prediction by ZEFSAII (Michael W. Deem and Ramdas Pophale) SiO2 
 PCOD9454992
Probable space group: P B C N
;
_chemical_formula_sum "Si O2"
_cell_formula_units_Z 44
_cell_length_a 21.480407
_cell_length_b 21.827394
_cell_length_c 5.311520
_cell_angle_alpha 90.000000
_cell_angle_beta 90.000000
_cell_angle_gamma 90.000000
_cell_volume 2490.366209
_symmetry_space_group_name_H-M "P B C N"
_symmetry_group_IT_number 60
_symmetry_cell_setting 'orthorhombic'
loop_
_space_group_symop_operation_xyz
x,y,z
1/2-x,1/2-y,1/2+z
1/2+x,1/2-y,-z
-x,y,1/2-z
-x,-y,-z
1/2+x,1/2+y,1/2-z
1/2-x,1/2+y,z
x,-y,1/2+z
loop_
_atom_site_type_symbol
_atom_site_label
_atom_site_fract_x
_atom_site_fract_y
_atom_site_fract_z
Si Si1 0.522107 0.740268 0.503079
Si Si2 0.667953 0.735587 0.506422
Si Si3 0.092107 0.537630 0.395811
Si Si4 0.500000 0.856516 0.750000
Si Si5 0.780801 0.826566 0.507419
Si Si6 0.758539 0.537091 0.103333
O O1 0.500000 0.704817 0.750000
O O2 0.595376 0.750870 0.514343
O O3 0.487115 0.806454 0.531300
O O4 0.500000 0.709864 0.250000
O O5 0.712418 0.794992 0.512608
O O6 0.682995 0.701147 0.246205
O O7 0.687400 0.694611 0.747198
O O8 0.075904 0.509240 0.667980
O O9 0.055707 0.599627 0.332612
O O10 0.166452 0.546657 0.396048
O O11 0.773355 0.898693 0.541249
O O12 0.743434 0.510191 0.378259
#
# Coordination Sequence:
#
# PCOD9454992 Si02
#       6
#     8   8   8   4   8   8
#     4  10  22  34  51  74 104 139 169 223 255 325
#     4  10  20  36  53  80 107 137 188 212 280 320
#     4  10  21  32  47  67 100 139 183 222 246 292
#     4  10  22  32  50  68 100 142 184 210 262 286
#     4  10  20  34  57  77 106 144 171 234 263 329
#     4  10  20  35  51  77 107 138 178 219 267 309
#
# _framework density 17.668082999999999
#
# number of rings (size 3 to 8) (size 9 to 14) (size 15 to 20)
#    0.545    1.455    0.000    3.818    2.545    0.000 
#    3.273    0.000    0.000    0.000    0.000    0.000 
#    0.000   50.909    0.000    0.000    0.000    0.000 
#
# Total GULP energy -245312.610371 kJ/mol
# GULP energy per Si atom -5575.286599 kJ/mol
# Density = 1.762787 g / cm^3
# Si number density = 17.668083 Si / 1000 Ang^3
#
#
#
# Elastic Constant Matrix: (Units=GPa)
#
#
# Indices 1 2 3 4 5 6 
#
# 1 56.0132 3.5313 17.9916 0.0000 0.0000 0.0000
# 2 3.5313 49.5008 -2.2284 0.0000 0.0000 0.0000
# 3 17.9916 -2.2284 109.0985 0.0000 0.0000 0.0000
# 4 0.0000 0.0000 0.0000 10.3297 0.0000 0.0000
# 5 0.0000 0.0000 0.0000 0.0000 14.8008 0.0000
# 6 0.0000 0.0000 0.0000 0.0000 0.0000 12.3524
#
#
#
# Elastic Compliance Matrix: (Units=1/GPa)
#
#
# Indices 1 2 3 4 5 6 
#
# 1 0.018961 -0.001495 -0.003157 0.000000 0.000000 0.000000
# 2 -0.001495 0.020338 0.000662 0.000000 0.000000 0.000000
# 3 -0.003157 0.000662 0.009700 0.000000 0.000000 0.000000
# 4 0.000000 0.000000 0.000000 0.096808 0.000000 0.000000
# 5 0.000000 0.000000 0.000000 0.000000 0.067564 0.000000
# 6 0.000000 0.000000 0.000000 0.000000 0.000000 0.080956
#
#
# Mechanical properties :
#
#
# Convention : Reuss Voigt Hill
#
# Bulk Modulus (GPa) = 24.37893 28.13350 26.25622
# Shear Modulus (GPa) = 15.82371 20.51778 18.17074
#
# Velocity S-wave (km/s) = 2.99592 3.41147 3.21042
# Velocity P-wave (km/s) = 5.07894 5.61029 5.35122
#
# Compressibility (1/GPa) = 0.04101903
#
# Stress axis : x y z
#
# Youngs Moduli (GPa) = 52.73879 49.16871 103.09008
#
# Poissons Ratio (x) = 0.07350 0.32551
# Poissons Ratio (y) = 0.07883 -0.06824
# Poissons Ratio (z) = 0.16652 -0.03255
#
# Static dielectric constant tensor:
#      x y z
#    x 1.596080 0.000000 0.000000 
#    y 0.000000 1.568270 0.000000 
#    z 0.000000 0.000000 1.666160 
# 
# From -- ./inp_files/2325.got.cif
#   From: 2010.05.17/outbox.cif.g08.bks.cpg/sg60_2_cif.got.tgz:2325.got - 2010.06.03 14:59:27.
