data_PCOD9454328
_publ_section_title
;
Structure prediction by ZEFSAII (Michael W. Deem and Ramdas Pophale) SiO2 
 PCOD9454328
Probable space group: P B C N
;
_chemical_formula_sum "Si O2"
_cell_formula_units_Z 64
_cell_length_a 10.656028
_cell_length_b 36.933206
_cell_length_c 7.536792
_cell_angle_alpha 90.000000
_cell_angle_beta 90.000000
_cell_angle_gamma 90.000000
_cell_volume 2966.189486
_symmetry_space_group_name_H-M "P B C N"
_symmetry_group_IT_number 60
_symmetry_cell_setting 'orthorhombic'
loop_
_space_group_symop_operation_xyz
x,y,z
1/2-x,1/2-y,1/2+z
1/2+x,1/2-y,-z
-x,y,1/2-z
-x,-y,-z
1/2+x,1/2+y,1/2-z
1/2-x,1/2+y,z
x,-y,1/2+z
loop_
_atom_site_type_symbol
_atom_site_label
_atom_site_fract_x
_atom_site_fract_y
_atom_site_fract_z
Si Si1 0.257893 0.665782 0.039949
Si Si2 0.749924 0.416861 0.531923
Si Si3 0.500000 0.957434 0.537551
Si Si4 0.749924 0.416861 0.968077
Si Si5 1.000000 0.957506 0.537744
Si Si6 0.500000 0.710293 0.468020
Si Si7 0.742107 0.334218 0.539948
Si Si8 0.500000 0.206749 0.961625
O O1 0.252290 0.624757 0.971405
O O2 0.374942 0.689293 0.971819
O O3 0.279824 0.662422 0.250000
O O4 0.125908 0.685873 0.015721
O O5 0.874574 0.437700 0.471958
O O6 0.751161 0.416917 0.750000
O O7 0.625791 0.437995 0.472634
O O8 0.747710 0.375243 0.471404
O O9 0.500000 0.953365 0.750000
O O10 0.374574 0.937700 0.471958
O O11 0.500000 0.000000 0.500000
O O12 0.625791 0.437995 0.027366
O O13 0.000000 0.953204 0.750000
O O14 0.000000 0.000000 0.500000
O O15 0.500000 0.710878 0.250000
O O16 0.374943 0.689292 0.528181
O O17 0.500000 0.751917 0.528043
O O18 0.874091 0.314127 0.515719
O O19 0.500000 0.208205 0.750000
#
# Coordination Sequence:
#
# PCOD9454328 Si02
#       8
#     8   8   8   8   8   8   8   8
#     4  10  19  36  59  79 100 138 184 221 257 308
#     4   9  18  32  53  76  98 125 168 215 249 287
#     4  10  19  32  48  71  99 128 160 200 244 292
#     4   9  18  32  53  76  98 125 168 215 249 287
#     4  10  19  33  52  76 103 132 164 208 258 306
#     4   9  19  34  56  82 106 133 175 222 263 309
#     4  10  19  36  59  79 100 138 184 221 257 308
#     4  11  22  35  50  79 116 141 166 214 270 319
#
# _framework density 21.576502999999999
#
# number of rings (size 3 to 8) (size 9 to 14) (size 15 to 20)
#    0.000    2.250    0.000    3.375    0.000    5.000 
#    0.000    5.625    0.000    0.000    0.000    0.000 
#    0.000    0.000    0.000    0.000    0.000    0.000 
#
# Total GULP energy -357751.118128 kJ/mol
# GULP energy per Si atom -5589.861221 kJ/mol
# Density = 2.152739 g / cm^3
# Si number density = 21.576503 Si / 1000 Ang^3
#
#
#
# Elastic Constant Matrix: (Units=GPa)
#
#
# Indices 1 2 3 4 5 6 
#
# 1 251.7778 159.2960 -5.4549 0.0000 0.0000 0.0000
# 2 159.2960 263.0176 -3.2668 0.0000 0.0000 0.0000
# 3 -5.4549 -3.2668 48.7895 0.0000 0.0000 0.0000
# 4 0.0000 0.0000 0.0000 17.2245 0.0000 0.0000
# 5 0.0000 0.0000 0.0000 0.0000 -67.2856 0.0000
# 6 0.0000 0.0000 0.0000 0.0000 0.0000 51.8095
#
#
#
# Elastic Compliance Matrix: (Units=1/GPa)
#
#
# Indices 1 2 3 4 5 6 
#
# 1 0.006449 -0.003900 0.000460 0.000000 0.000000 0.000000
# 2 -0.003900 0.006164 -0.000023 0.000000 0.000000 0.000000
# 3 0.000460 -0.000023 0.020546 0.000000 0.000000 0.000000
# 4 0.000000 0.000000 0.000000 0.058057 0.000000 0.000000
# 5 0.000000 0.000000 0.000000 0.000000 -0.014862 0.000000
# 6 0.000000 0.000000 0.000000 0.000000 0.000000 0.019301
#
#
# Mechanical properties :
#
#
# Convention : Reuss Voigt Hill
#
# Bulk Modulus (GPa) = 38.12156 96.08151 67.10153
# Shear Modulus (GPa) = 44.91258 27.88371 36.39814
#
# Velocity S-wave (km/s) = 4.56735 3.59878 4.11169
# Velocity P-wave (km/s) = 6.74690 7.86738 7.32858
#
# Compressibility (1/GPa) = 0.02623188
#
# Stress axis : x y z
#
# Youngs Moduli (GPa) = 155.05257 162.23270 48.67109
#
# Poissons Ratio (x) = 0.63277 -0.02238
# Poissons Ratio (y) = 0.60476 0.00114
# Poissons Ratio (z) = -0.07131 0.00379
#
# Static dielectric constant tensor:
#      x y z
#    x 1.726080 0.000000 0.000000 
#    y 0.000000 1.739110 0.000000 
#    z 0.000000 0.000000 1.836250 
# 
# From -- ./inp_files/11422.got.cif
#   From: 2010.05.17/outbox.cif.g08.bks.cpg/sg60_6_cif.got.tgz:11422.got - 2010.06.03 14:59:27.
