data_PCOD9454903
_publ_section_title
;
Structure prediction by ZEFSAII (Michael W. Deem and Ramdas Pophale) SiO2 
 PCOD9454903
Probable space group: P B C N
;
_chemical_formula_sum "Si O2"
_cell_formula_units_Z 48
_cell_length_a 15.725948
_cell_length_b 15.218498
_cell_length_c 8.796213
_cell_angle_alpha 90.000000
_cell_angle_beta 90.000000
_cell_angle_gamma 90.000000
_cell_volume 2105.156387
_symmetry_space_group_name_H-M "P B C N"
_symmetry_group_IT_number 60
_symmetry_cell_setting 'orthorhombic'
loop_
_space_group_symop_operation_xyz
x,y,z
1/2-x,1/2-y,1/2+z
1/2+x,1/2-y,-z
-x,y,1/2-z
-x,-y,-z
1/2+x,1/2+y,1/2-z
1/2-x,1/2+y,z
x,-y,1/2+z
loop_
_atom_site_type_symbol
_atom_site_label
_atom_site_fract_x
_atom_site_fract_y
_atom_site_fract_z
Si Si1 0.383013 0.377649 0.807074
Si Si2 0.243955 0.116639 0.821247
Si Si3 0.596039 0.191433 0.563465
Si Si4 0.039476 0.585825 0.417659
Si Si5 0.809764 0.683470 0.231808
Si Si6 0.846392 0.000760 0.430940
O O1 0.282481 0.361047 0.771524
O O2 0.408740 0.436238 0.664181
O O3 0.413525 0.282031 0.849003
O O4 0.393487 0.436162 0.955600
O O5 0.205072 0.215603 0.822688
O O6 0.209577 0.061439 0.678957
O O7 0.345678 0.127761 0.832924
O O8 0.212422 0.061816 0.965008
O O9 0.503569 0.160469 0.518765
O O10 0.648050 0.193274 0.400693
O O11 0.133906 0.620925 0.378622
O O12 0.000000 0.582480 0.250000
O O13 0.000000 0.500000 0.500000
#
# Coordination Sequence:
#
# PCOD9454903 Si02
#       6
#     8   8   8   8   8   8
#     4  10  20  34  57  83 115 143 191 231 281 323
#     4  10  20  34  57  83 115 143 191 231 281 323
#     4  10  20  37  56  83 114 154 184 227 284 328
#     4  10  24  40  58  81 115 152 186 223 279 336
#     4  10  20  37  56  83 114 154 184 227 284 328
#     4  10  20  32  56  86 108 144 182 250 268 328
#
# _framework density 22.801155999999999
#
# number of rings (size 3 to 8) (size 9 to 14) (size 15 to 20)
#    0.000    2.000    3.333    0.000    4.667    0.000 
#    3.000    0.000    0.000    6.000    0.000    0.000 
#    0.000    0.000    0.000    0.000    0.000    0.000 
#
# Total GULP energy -267918.271109 kJ/mol
# GULP energy per Si atom -5581.630648 kJ/mol
# Density = 2.274926 g / cm^3
# Si number density = 22.801156 Si / 1000 Ang^3
#
#
#
# Elastic Constant Matrix: (Units=GPa)
#
#
# Indices 1 2 3 4 5 6 
#
# 1 63.1065 25.6108 23.3016 0.0000 0.0000 0.0000
# 2 25.6108 82.1043 42.6550 0.0000 0.0000 0.0000
# 3 23.3016 42.6550 96.2165 0.0000 0.0000 0.0000
# 4 0.0000 0.0000 0.0000 10.3525 0.0000 0.0000
# 5 0.0000 0.0000 0.0000 0.0000 19.9457 0.0000
# 6 0.0000 0.0000 0.0000 0.0000 0.0000 4.8319
#
#
#
# Elastic Compliance Matrix: (Units=1/GPa)
#
#
# Indices 1 2 3 4 5 6 
#
# 1 0.018598 -0.004497 -0.002510 0.000000 0.000000 0.000000
# 2 -0.004497 0.016912 -0.006408 0.000000 0.000000 0.000000
# 3 -0.002510 -0.006408 0.013842 0.000000 0.000000 0.000000
# 4 0.000000 0.000000 0.000000 0.096595 0.000000 0.000000
# 5 0.000000 0.000000 0.000000 0.000000 0.050136 0.000000
# 6 0.000000 0.000000 0.000000 0.000000 0.000000 0.206959
#
#
# Mechanical properties :
#
#
# Convention : Reuss Voigt Hill
#
# Bulk Modulus (GPa) = 44.40403 47.17356 45.78880
# Shear Modulus (GPa) = 11.43169 17.01666 14.22418
#
# Velocity S-wave (km/s) = 2.24155 2.73483 2.50038
# Velocity P-wave (km/s) = 5.12017 5.54133 5.33491
#
# Compressibility (1/GPa) = 0.02252048
#
# Stress axis : x y z
#
# Youngs Moduli (GPa) = 53.76835 59.13088 72.24334
#
# Poissons Ratio (x) = 0.26592 0.18136
# Poissons Ratio (y) = 0.24180 0.46295
# Poissons Ratio (z) = 0.13498 0.37892
#
# Static dielectric constant tensor:
#      x y z
#    x 1.902710 0.000000 0.000000 
#    y 0.000000 1.905790 0.000000 
#    z 0.000000 0.000000 1.861040 
# 
# From -- ./inp_files/6717.got.cif
#   From: 2010.05.17/outbox.cif.g08.bks.cpg/sg60_4_cif.got.tgz:6717.got - 2010.06.03 14:59:27.
