data_PCOD9454430
_publ_section_title
;
Structure prediction by ZEFSAII (Michael W. Deem and Ramdas Pophale) SiO2 
 PCOD9454430
Probable space group: P B C N
;
_chemical_formula_sum "Si O2"
_cell_formula_units_Z 52
_cell_length_a 15.726435
_cell_length_b 8.669509
_cell_length_c 17.461007
_cell_angle_alpha 90.000000
_cell_angle_beta 90.000000
_cell_angle_gamma 90.000000
_cell_volume 2380.641897
_symmetry_space_group_name_H-M "P B C N"
_symmetry_group_IT_number 60
_symmetry_cell_setting 'orthorhombic'
loop_
_space_group_symop_operation_xyz
x,y,z
1/2-x,1/2-y,1/2+z
1/2+x,1/2-y,-z
-x,y,1/2-z
-x,-y,-z
1/2+x,1/2+y,1/2-z
1/2-x,1/2+y,z
x,-y,1/2+z
loop_
_atom_site_type_symbol
_atom_site_label
_atom_site_fract_x
_atom_site_fract_y
_atom_site_fract_z
Si Si1 0.819624 0.263753 0.791937
Si Si2 0.500000 0.684438 0.750000
Si Si3 0.327274 0.072726 0.463479
Si Si4 0.288565 0.477298 0.605895
Si Si5 0.557785 0.288400 0.962275
Si Si6 0.739492 0.361326 0.134647
Si Si7 0.932936 0.008549 0.109544
O O1 0.776075 0.406355 0.832765
O O2 0.763897 0.204764 0.720034
O O3 0.915339 0.284334 0.761986
O O4 0.824791 0.131284 0.856413
O O5 0.518287 0.571354 0.679238
O O6 0.413899 0.121833 0.506403
O O7 0.293140 0.227634 0.422301
O O8 0.261418 0.018668 0.528631
O O9 0.323516 0.940998 0.398795
O O10 0.362722 0.355688 0.586676
O O11 0.473299 0.328165 0.914382
O O12 0.552950 0.395791 0.037454
O O13 0.666227 0.495046 0.130556
#
# Coordination Sequence:
#
# PCOD9454430 Si02
#       7
#     8   4   8   8   8   8   8
#     4  11  23  37  61  92 123 163 209 259 317 385
#     4  10  20  36  60  86 124 166 206 250 318 384
#     4  11  19  37  58  89 118 157 206 260 313 371
#     4  12  20  36  60  92 118 157 210 261 316 374
#     4  10  19  33  58  86 119 151 207 262 298 362
#     4  10  21  36  59  86 121 160 204 259 314 381
#     4   9  18  34  56  86 117 159 207 252 302 375
#
# _framework density 21.842848
#
# number of rings (size 3 to 8) (size 9 to 14) (size 15 to 20)
#    0.000    1.538    6.154    0.923    0.000    0.000 
#    0.000    0.000    0.000   22.154    0.000    0.000 
#    0.000    0.000    0.000    0.000    0.000    0.000 
#
# Total GULP energy -290303.645382 kJ/mol
# GULP energy per Si atom -5582.762411 kJ/mol
# Density = 2.179313 g / cm^3
# Si number density = 21.842848 Si / 1000 Ang^3
#
#
#
# Elastic Constant Matrix: (Units=GPa)
#
#
# Indices 1 2 3 4 5 6 
#
# 1 60.3710 32.3624 18.6791 0.0000 0.0000 0.0000
# 2 32.3624 32.0559 4.0321 0.0000 0.0000 0.0000
# 3 18.6791 4.0321 71.1009 0.0000 0.0000 0.0000
# 4 0.0000 0.0000 0.0000 37.1326 0.0000 0.0000
# 5 0.0000 0.0000 0.0000 0.0000 26.6521 0.0000
# 6 0.0000 0.0000 0.0000 0.0000 0.0000 44.3499
#
#
#
# Elastic Compliance Matrix: (Units=1/GPa)
#
#
# Indices 1 2 3 4 5 6 
#
# 1 0.040525 -0.039858 -0.008386 0.000000 0.000000 0.000000
# 2 -0.039858 0.070621 0.006466 0.000000 0.000000 0.000000
# 3 -0.008386 0.006466 0.015901 0.000000 0.000000 0.000000
# 4 0.000000 0.000000 0.000000 0.026931 0.000000 0.000000
# 5 0.000000 0.000000 0.000000 0.000000 0.037521 0.000000
# 6 0.000000 0.000000 0.000000 0.000000 0.000000 0.022548
#
#
# Mechanical properties :
#
#
# Convention : Reuss Voigt Hill
#
# Bulk Modulus (GPa) = 22.99284 30.40835 26.70059
# Shear Modulus (GPa) = 16.02060 28.85719 22.43890
#
# Velocity S-wave (km/s) = 2.71116 3.63868 3.20861
# Velocity P-wave (km/s) = 4.51108 5.62183 5.09680
#
# Compressibility (1/GPa) = 0.04349180
#
# Stress axis : x y z
#
# Youngs Moduli (GPa) = 24.67613 14.16012 62.88922
#
# Poissons Ratio (x) = 0.56439 0.52740
# Poissons Ratio (y) = 0.98353 -0.40666
# Poissons Ratio (z) = 0.20694 -0.09156
#
# Static dielectric constant tensor:
#      x y z
#    x 1.866600 0.000000 0.000000 
#    y 0.000000 1.792630 0.000000 
#    z 0.000000 0.000000 1.796720 
# 
# From -- ./inp_files/20850.got.cif
#   From: 2010.05.17/outbox.cif.g08.bks.cpg/sg60_11_cif.got.tgz:20850.got - 2010.06.03 14:59:27.
