data_PCOD9454856
_publ_section_title
;
Structure prediction by ZEFSAII (Michael W. Deem and Ramdas Pophale) SiO2 
 PCOD9454856
Probable space group: P B C N
;
_chemical_formula_sum "Si O2"
_cell_formula_units_Z 48
_cell_length_a 5.659545
_cell_length_b 27.945279
_cell_length_c 13.169854
_cell_angle_alpha 90.000000
_cell_angle_beta 90.000000
_cell_angle_gamma 90.000000
_cell_volume 2082.912027
_symmetry_space_group_name_H-M "P B C N"
_symmetry_group_IT_number 60
_symmetry_cell_setting 'orthorhombic'
loop_
_space_group_symop_operation_xyz
x,y,z
1/2-x,1/2-y,1/2+z
1/2+x,1/2-y,-z
-x,y,1/2-z
-x,-y,-z
1/2+x,1/2+y,1/2-z
1/2-x,1/2+y,z
x,-y,1/2+z
loop_
_atom_site_type_symbol
_atom_site_label
_atom_site_fract_x
_atom_site_fract_y
_atom_site_fract_z
Si Si1 0.000000 0.839938 0.250000
Si Si2 0.000000 0.971787 0.750000
Si Si3 0.866380 0.392766 0.104009
Si Si4 0.000000 0.339939 0.750000
Si Si5 0.866380 0.892768 0.895990
Si Si6 0.000000 0.528214 0.750000
Si Si7 0.609361 0.797970 0.364039
Si Si8 0.890639 0.202029 0.135961
O O1 0.820237 0.873960 0.188846
O O2 0.881462 0.805809 0.335260
O O3 0.004019 0.936379 0.846492
O O4 0.750000 0.000001 0.750000
O O5 0.004022 0.436377 0.153508
O O6 0.023527 0.345893 0.082103
O O7 0.750001 0.408104 1.000000
O O8 0.179764 0.373961 0.688847
O O9 0.118537 0.305810 0.835260
O O10 0.023529 0.845895 0.917896
O O11 0.500000 0.799105 0.250000
O O12 0.500000 0.749999 0.411488
O O13 0.000000 0.200894 0.250000
#
# Coordination Sequence:
#
# PCOD9454856 Si02
#       8
#     4   4   8   4   8   4   8   8
#     4  10  19  43  69  94 148 189 232 297 345 430
#     4  12  27  50  76 106 143 185 252 321 378 444
#     4  11  24  44  69 103 140 187 235 297 372 436
#     4  10  19  43  69  94 148 189 232 297 345 430
#     4  11  24  44  69 103 140 187 235 297 372 436
#     4  12  27  50  76 106 143 185 252 321 378 444
#     4   9  19  37  65 102 137 187 235 281 355 427
#     4   9  19  37  65 102 137 187 235 281 355 427
#
# _framework density 23.044661000000001
#
# number of rings (size 3 to 8) (size 9 to 14) (size 15 to 20)
#    0.000    1.667    5.000    1.000    0.000   13.333 
#    6.000    0.000    0.000    0.000    0.000    0.000 
#    0.000    0.000    0.000    0.000    0.000    0.000 
#
# Total GULP energy -267950.183865 kJ/mol
# GULP energy per Si atom -5582.295497 kJ/mol
# Density = 2.299221 g / cm^3
# Si number density = 23.044661 Si / 1000 Ang^3
#
#
#
# Elastic Constant Matrix: (Units=GPa)
#
#
# Indices 1 2 3 4 5 6 
#
# 1 118.6739 78.1656 26.3990 0.0000 0.0000 0.0000
# 2 78.1656 169.6883 50.1958 0.0000 0.0000 0.0000
# 3 26.3990 50.1958 91.0632 0.0000 0.0000 0.0000
# 4 0.0000 0.0000 0.0000 -11.8730 0.0000 0.0000
# 5 0.0000 0.0000 0.0000 0.0000 34.2807 0.0000
# 6 0.0000 0.0000 0.0000 0.0000 0.0000 18.8362
#
#
#
# Elastic Compliance Matrix: (Units=1/GPa)
#
#
# Indices 1 2 3 4 5 6 
#
# 1 0.012117 -0.005428 -0.000521 0.000000 0.000000 0.000000
# 2 -0.005428 0.009472 -0.003648 0.000000 0.000000 0.000000
# 3 -0.000521 -0.003648 0.013143 0.000000 0.000000 0.000000
# 4 0.000000 0.000000 0.000000 -0.084225 0.000000 0.000000
# 5 0.000000 0.000000 0.000000 0.000000 0.029171 0.000000
# 6 0.000000 0.000000 0.000000 0.000000 0.000000 0.053089
#
#
# Mechanical properties :
#
#
# Convention : Reuss Voigt Hill
#
# Bulk Modulus (GPa) = 64.35044 76.54957 70.45001
# Shear Modulus (GPa) = 87.50243 23.22646 55.36444
#
# Velocity S-wave (km/s) = 6.16873 3.17817 4.90683
# Velocity P-wave (km/s) = 8.87257 6.83796 7.92087
#
# Compressibility (1/GPa) = 0.01553991
#
# Stress axis : x y z
#
# Youngs Moduli (GPa) = 82.52663 105.56920 76.08480
#
# Poissons Ratio (x) = 0.57299 0.03964
# Poissons Ratio (y) = 0.44792 0.27755
# Poissons Ratio (z) = 0.04299 0.38511
#
# Static dielectric constant tensor:
#      x y z
#    x 2.026210 0.000000 0.000000 
#    y 0.000000 1.894080 0.000000 
#    z 0.000000 0.000000 1.870530 
# 
# From -- ./inp_files/14000.got.cif
#   From: 2010.05.17/outbox.cif.g08.bks.cpg/sg60_7_cif.got.tgz:14000.got - 2010.06.03 14:59:27.
