data_PCOD9454665
_publ_section_title
;
Structure prediction by ZEFSAII (Michael W. Deem and Ramdas Pophale) SiO2 
 PCOD9454665
Probable space group: P B C N
;
_chemical_formula_sum "Si O2"
_cell_formula_units_Z 48
_cell_length_a 4.923969
_cell_length_b 16.900806
_cell_length_c 26.884423
_cell_angle_alpha 90.000000
_cell_angle_beta 90.000000
_cell_angle_gamma 90.000000
_cell_volume 2237.296003
_symmetry_space_group_name_H-M "P B C N"
_symmetry_group_IT_number 60
_symmetry_cell_setting 'orthorhombic'
loop_
_space_group_symop_operation_xyz
x,y,z
1/2-x,1/2-y,1/2+z
1/2+x,1/2-y,-z
-x,y,1/2-z
-x,-y,-z
1/2+x,1/2+y,1/2-z
1/2-x,1/2+y,z
x,-y,1/2+z
loop_
_atom_site_type_symbol
_atom_site_label
_atom_site_fract_x
_atom_site_fract_y
_atom_site_fract_z
Si Si1 0.061715 0.905476 0.195273
Si Si2 0.061205 0.295836 0.304712
Si Si3 0.409950 0.491036 0.404048
Si Si4 0.345616 0.147329 0.439284
Si Si5 0.109197 0.409968 0.050571
Si Si6 0.366561 0.258713 0.592481
O O1 0.368103 0.873740 0.192690
O O2 0.000000 0.938706 0.250000
O O3 0.867131 0.827909 0.190855
O O4 0.991805 0.963793 0.150857
O O5 0.000000 0.261292 0.250000
O O6 0.978960 0.242879 0.351369
O O7 0.290944 0.578500 0.406776
O O8 0.674804 0.478834 0.438239
O O9 0.176835 0.434033 0.425930
O O10 0.407962 0.109709 0.492732
O O11 0.613065 0.184523 0.415671
O O12 0.114410 0.214661 0.442962
O O13 0.212426 0.330658 0.077988
#
# Coordination Sequence:
#
# PCOD9454665 Si02
#       6
#     8   8   8   8   8   8
#     4  10  19  36  62  90 112 150 206 259 300 363
#     4  10  20  37  64  90 114 153 208 256 302 365
#     4  12  22  41  62  91 123 165 210 263 312 373
#     4  12  26  38  59  93 132 166 201 265 320 374
#     4  12  23  41  64  86 123 173 223 246 303 378
#     4  12  22  41  61  90 126 161 210 261 317 369
#
# _framework density 21.454469
#
# number of rings (size 3 to 8) (size 9 to 14) (size 15 to 20)
#    0.000    0.667    3.333    6.000    0.000    0.000 
#    0.000    0.833    0.000    2.000    0.000    0.000 
#    0.000    0.000    0.000    0.000    0.000    0.000 
#
# Total GULP energy -268763.793627 kJ/mol
# GULP energy per Si atom -5599.245701 kJ/mol
# Density = 2.140564 g / cm^3
# Si number density = 21.454469 Si / 1000 Ang^3
#
#
#
# Elastic Constant Matrix: (Units=GPa)
#
#
# Indices 1 2 3 4 5 6 
#
# 1 93.1569 10.1416 17.6352 0.0000 0.0000 0.0000
# 2 10.1416 44.6631 22.9051 0.0000 0.0000 0.0000
# 3 17.6352 22.9051 104.4264 0.0000 0.0000 0.0000
# 4 0.0000 0.0000 0.0000 13.2851 0.0000 0.0000
# 5 0.0000 0.0000 0.0000 0.0000 31.1282 0.0000
# 6 0.0000 0.0000 0.0000 0.0000 0.0000 39.3158
#
#
#
# Elastic Compliance Matrix: (Units=1/GPa)
#
#
# Indices 1 2 3 4 5 6 
#
# 1 0.011213 -0.001775 -0.001504 0.000000 0.000000 0.000000
# 2 -0.001775 0.025508 -0.005295 0.000000 0.000000 0.000000
# 3 -0.001504 -0.005295 0.010992 0.000000 0.000000 0.000000
# 4 0.000000 0.000000 0.000000 0.075272 0.000000 0.000000
# 5 0.000000 0.000000 0.000000 0.000000 0.032125 0.000000
# 6 0.000000 0.000000 0.000000 0.000000 0.000000 0.025435
#
#
# Mechanical properties :
#
#
# Convention : Reuss Voigt Hill
#
# Bulk Modulus (GPa) = 32.71805 38.17893 35.44849
# Shear Modulus (GPa) = 24.05213 29.51678 26.78445
#
# Velocity S-wave (km/s) = 3.35188 3.71318 3.53715
# Velocity P-wave (km/s) = 5.50120 6.01811 5.76545
#
# Compressibility (1/GPa) = 0.03056417
#
# Stress axis : x y z
#
# Youngs Moduli (GPa) = 89.18584 39.20264 90.97800
#
# Poissons Ratio (x) = 0.06957 0.13686
# Poissons Ratio (y) = 0.15827 0.48176
# Poissons Ratio (z) = 0.13416 0.20759
#
# Static dielectric constant tensor:
#      x y z
#    x 1.772860 0.000000 0.000000 
#    y 0.000000 1.781890 0.000000 
#    z 0.000000 0.000000 1.794340 
# 
# From -- ./inp_files/24853.got.cif
#   From: 2010.05.17/outbox.cif.g08.bks.cpg/sg60_13_cif.got.tgz:24853.got - 2010.06.03 14:59:27.
