data_PCOD9454596
_publ_section_title
;
Structure prediction by ZEFSAII (Michael W. Deem and Ramdas Pophale) SiO2 
 PCOD9454596
Probable space group: P B C N
;
_chemical_formula_sum "Si O2"
_cell_formula_units_Z 56
_cell_length_a 15.467958
_cell_length_b 18.949445
_cell_length_c 9.351993
_cell_angle_alpha 90.000000
_cell_angle_beta 90.000000
_cell_angle_gamma 90.000000
_cell_volume 2741.155368
_symmetry_space_group_name_H-M "P B C N"
_symmetry_group_IT_number 60
_symmetry_cell_setting 'orthorhombic'
loop_
_space_group_symop_operation_xyz
x,y,z
1/2-x,1/2-y,1/2+z
1/2+x,1/2-y,-z
-x,y,1/2-z
-x,-y,-z
1/2+x,1/2+y,1/2-z
1/2-x,1/2+y,z
x,-y,1/2+z
loop_
_atom_site_type_symbol
_atom_site_label
_atom_site_fract_x
_atom_site_fract_y
_atom_site_fract_z
Si Si1 0.500000 0.521104 0.750000
Si Si2 0.783700 0.793347 0.189050
Si Si3 0.640998 0.597039 0.223775
Si Si4 0.868981 0.105312 0.915513
Si Si5 0.717340 0.994369 0.854386
Si Si6 0.143479 0.590300 0.886674
Si Si7 0.856813 0.228415 0.389804
Si Si8 0.500000 0.172204 0.750000
O O1 0.422480 0.469590 0.794877
O O2 0.459631 0.569619 0.626414
O O3 0.844554 0.839390 0.292778
O O4 0.715681 0.848140 0.118361
O O5 0.728178 0.742768 0.292066
O O6 0.834297 0.760504 0.055515
O O7 0.733942 0.564965 0.260994
O O8 0.615314 0.648376 0.353113
O O9 0.634498 0.637491 0.073464
O O10 0.794908 0.044146 0.914736
O O11 0.660839 0.043314 0.753248
O O12 0.662574 0.957425 0.977043
O O13 0.050943 0.625483 0.865824
O O14 0.929900 0.280340 0.331643
#
# Coordination Sequence:
#
# PCOD9454596 Si02
#       8
#     4   8   8   8   8   8   8   4
#     4  10  23  32  56  92 135 158 194 252 324 374
#     4  10  22  39  64  86 120 162 212 252 301 374
#     4  11  20  35  60  90 122 167 202 255 312 377
#     4  10  21  36  57  93 123 162 203 256 309 380
#     4  10  19  35  64  88 121 158 209 252 316 370
#     4  10  20  40  61  92 123 158 205 262 312 377
#     4  11  22  41  63  90 122 167 212 258 307 372
#     4  10  25  40  62  90 129 172 212 258 322 362
#
# _framework density 20.429342999999999
#
# number of rings (size 3 to 8) (size 9 to 14) (size 15 to 20)
#    0.000    1.714    2.857    1.714    0.000    2.857 
#    0.000    0.000    0.000    1.714    0.000    0.000 
#    0.000    0.000    0.000    0.000    0.000    0.000 
#
# Total GULP energy -312857.098268 kJ/mol
# GULP energy per Si atom -5586.733898 kJ/mol
# Density = 2.038285 g / cm^3
# Si number density = 20.429343 Si / 1000 Ang^3
#
#
#
# Elastic Constant Matrix: (Units=GPa)
#
#
# Indices 1 2 3 4 5 6 
#
# 1 67.9005 18.1888 18.7519 0.0000 0.0000 0.0000
# 2 18.1888 38.8132 -4.0182 0.0000 0.0000 0.0000
# 3 18.7519 -4.0182 76.8461 0.0000 0.0000 0.0000
# 4 0.0000 0.0000 0.0000 24.9787 0.0000 0.0000
# 5 0.0000 0.0000 0.0000 0.0000 17.2727 0.0000
# 6 0.0000 0.0000 0.0000 0.0000 0.0000 14.3693
#
#
#
# Elastic Compliance Matrix: (Units=1/GPa)
#
#
# Indices 1 2 3 4 5 6 
#
# 1 0.018585 -0.009229 -0.005018 0.000000 0.000000 0.000000
# 2 -0.009229 0.030488 0.003846 0.000000 0.000000 0.000000
# 3 -0.005018 0.003846 0.014439 0.000000 0.000000 0.000000
# 4 0.000000 0.000000 0.000000 0.040034 0.000000 0.000000
# 5 0.000000 0.000000 0.000000 0.000000 0.057895 0.000000
# 6 0.000000 0.000000 0.000000 0.000000 0.000000 0.069593
#
#
# Mechanical properties :
#
#
# Convention : Reuss Voigt Hill
#
# Bulk Modulus (GPa) = 23.41351 27.71166 25.56258
# Shear Modulus (GPa) = 18.79195 21.36662 20.07928
#
# Velocity S-wave (km/s) = 3.03619 3.23751 3.13847
# Velocity P-wave (km/s) = 4.87616 5.25066 5.06687
#
# Compressibility (1/GPa) = 0.04271038
#
# Stress axis : x y z
#
# Youngs Moduli (GPa) = 53.80568 32.80022 69.25895
#
# Poissons Ratio (x) = 0.30271 0.34753
# Poissons Ratio (y) = 0.49657 -0.26639
# Poissons Ratio (z) = 0.26998 -0.12616
#
# Static dielectric constant tensor:
#      x y z
#    x 1.719750 0.000000 0.000000 
#    y 0.000000 1.746310 0.000000 
#    z 0.000000 0.000000 1.723580 
# 
# From -- ./inp_files/6201.got.cif
#   From: 2010.05.17/outbox.cif.g08.bks.cpg/sg60_4_cif.got.tgz:6201.got - 2010.06.03 14:59:27.
