data_PCOD9454854
_publ_section_title
;
Structure prediction by ZEFSAII (Michael W. Deem and Ramdas Pophale) SiO2 
 PCOD9454854
Probable space group: P B C N
;
_chemical_formula_sum "Si O2"
_cell_formula_units_Z 56
_cell_length_a 21.365046
_cell_length_b 7.805838
_cell_length_c 14.591217
_cell_angle_alpha 90.000000
_cell_angle_beta 90.000000
_cell_angle_gamma 90.000000
_cell_volume 2433.407725
_symmetry_space_group_name_H-M "P B C N"
_symmetry_group_IT_number 60
_symmetry_cell_setting 'orthorhombic'
loop_
_space_group_symop_operation_xyz
x,y,z
1/2-x,1/2-y,1/2+z
1/2+x,1/2-y,-z
-x,y,1/2-z
-x,-y,-z
1/2+x,1/2+y,1/2-z
1/2-x,1/2+y,z
x,-y,1/2+z
loop_
_atom_site_type_symbol
_atom_site_label
_atom_site_fract_x
_atom_site_fract_y
_atom_site_fract_z
Si Si1 0.500812 0.782201 0.443593
Si Si2 0.838648 0.984739 0.738195
Si Si3 0.788034 0.380395 0.520635
Si Si4 0.402309 0.041362 0.064880
Si Si5 0.435242 0.550544 0.910404
Si Si6 0.652259 0.592985 0.928481
Si Si7 0.228326 0.342515 0.341044
O O1 0.439413 0.886418 0.475443
O O2 0.531967 0.711609 0.539823
O O3 0.483755 0.605537 0.393093
O O4 0.545550 0.916244 0.391877
O O5 0.816897 0.809518 0.688528
O O6 0.893433 0.073029 0.679601
O O7 0.855872 0.967235 0.843228
O O8 0.774816 0.097267 0.737674
O O9 0.845263 0.414251 0.455345
O O10 0.723359 0.400138 0.464623
O O11 0.775118 0.208350 0.575674
O O12 0.804357 0.502039 0.608091
O O13 0.371854 0.217337 0.102535
O O14 0.389886 0.472958 0.988499
#
# Coordination Sequence:
#
# PCOD9454854 Si02
#       7
#     8   8   8   8   8   8   8
#     4   9  20  37  66  89 120 170 225 258 319 382
#     4  11  23  38  59  94 128 166 206 266 329 404
#     4  11  19  37  61  90 128 165 202 265 326 396
#     4  10  20  36  59  96 123 163 214 270 314 385
#     4  10  19  43  65  89 125 171 216 273 323 383
#     4  11  23  37  62  97 125 166 210 266 338 404
#     4  10  20  36  57  87 127 164 204 248 330 397
#
# _framework density 23.012995
#
# number of rings (size 3 to 8) (size 9 to 14) (size 15 to 20)
#    0.000    1.714    4.286    1.714    2.000    0.000 
#    0.000    6.429    0.000    5.143    0.000    0.000 
#    0.000    0.000    0.000    0.000    0.000    0.000 
#
# Total GULP energy -312190.655437 kJ/mol
# GULP energy per Si atom -5574.833133 kJ/mol
# Density = 2.296062 g / cm^3
# Si number density = 23.012995 Si / 1000 Ang^3
#
#
#
# Elastic Constant Matrix: (Units=GPa)
#
#
# Indices 1 2 3 4 5 6 
#
# 1 99.5942 16.1479 11.7531 0.0000 0.0000 0.0000
# 2 16.1479 60.1169 16.8953 0.0000 0.0000 0.0000
# 3 11.7531 16.8953 55.5914 0.0000 0.0000 0.0000
# 4 0.0000 0.0000 0.0000 3.2863 0.0000 0.0000
# 5 0.0000 0.0000 0.0000 0.0000 2.9649 0.0000
# 6 0.0000 0.0000 0.0000 0.0000 0.0000 29.8561
#
#
#
# Elastic Compliance Matrix: (Units=1/GPa)
#
#
# Indices 1 2 3 4 5 6 
#
# 1 0.010612 -0.002427 -0.001506 0.000000 0.000000 0.000000
# 2 -0.002427 0.018743 -0.005183 0.000000 0.000000 0.000000
# 3 -0.001506 -0.005183 0.019882 0.000000 0.000000 0.000000
# 4 0.000000 0.000000 0.000000 0.304296 0.000000 0.000000
# 5 0.000000 0.000000 0.000000 0.000000 0.337274 0.000000
# 6 0.000000 0.000000 0.000000 0.000000 0.000000 0.033494
#
#
# Mechanical properties :
#
#
# Convention : Reuss Voigt Hill
#
# Bulk Modulus (GPa) = 32.25358 33.87724 33.06541
# Shear Modulus (GPa) = 6.64126 18.58854 12.61490
#
# Velocity S-wave (km/s) = 1.70063 2.84516 2.34383
# Velocity P-wave (km/s) = 4.23107 5.05432 4.66091
#
# Compressibility (1/GPa) = 0.03100431
#
# Stress axis : x y z
#
# Youngs Moduli (GPa) = 94.23297 53.35351 50.29670
#
# Poissons Ratio (x) = 0.12950 0.07574
# Poissons Ratio (y) = 0.22873 0.26070
# Poissons Ratio (z) = 0.14191 0.27654
#
# Static dielectric constant tensor:
#      x y z
#    x 1.972970 0.000000 0.000000 
#    y 0.000000 1.926620 0.000000 
#    z 0.000000 0.000000 1.842580 
# 
# From -- ./inp_files/21034.got.cif
#   From: 2010.05.17/outbox.cif.g08.bks.cpg/sg60_11_cif.got.tgz:21034.got - 2010.06.03 14:59:27.
