data_PCOD9454772
_publ_section_title
;
Structure prediction by ZEFSAII (Michael W. Deem and Ramdas Pophale) SiO2 
 PCOD9454772
Probable space group: P B C N
;
_chemical_formula_sum "Si O2"
_cell_formula_units_Z 64
_cell_length_a 7.896765
_cell_length_b 26.870918
_cell_length_c 13.823786
_cell_angle_alpha 90.000000
_cell_angle_beta 90.000000
_cell_angle_gamma 90.000000
_cell_volume 2933.315112
_symmetry_space_group_name_H-M "P B C N"
_symmetry_group_IT_number 60
_symmetry_cell_setting 'orthorhombic'
loop_
_space_group_symop_operation_xyz
x,y,z
1/2-x,1/2-y,1/2+z
1/2+x,1/2-y,-z
-x,y,1/2-z
-x,-y,-z
1/2+x,1/2+y,1/2-z
1/2-x,1/2+y,z
x,-y,1/2+z
loop_
_atom_site_type_symbol
_atom_site_label
_atom_site_fract_x
_atom_site_fract_y
_atom_site_fract_z
Si Si1 0.069143 0.585713 0.043147
Si Si2 0.554638 0.853915 0.138181
Si Si3 0.066219 0.945848 0.524473
Si Si4 0.723530 0.604124 0.133366
Si Si5 0.113958 0.241118 0.620279
Si Si6 0.949535 0.135138 0.647432
Si Si7 0.323144 0.837354 0.693992
Si Si8 0.338030 0.200890 0.479337
O O1 0.143908 0.637476 0.089759
O O2 0.899261 0.574714 0.105015
O O3 0.028424 0.597264 0.930903
O O4 0.233648 0.551307 0.048475
O O5 0.500000 0.858205 0.250000
O O6 0.756314 0.845758 0.142076
O O7 0.445104 0.814474 0.075468
O O8 0.038703 0.905677 0.437385
O O9 0.943247 0.925416 0.607363
O O10 0.000000 0.000000 0.500000
O O11 0.712215 0.626536 0.240582
O O12 0.748529 0.652451 0.064299
O O13 0.221973 0.279158 0.685872
O O14 0.201732 0.239182 0.517134
O O15 0.069425 0.184349 0.643925
O O16 0.943989 0.271931 0.602746
O O17 0.000000 0.111148 0.750000
O O18 0.500000 0.841605 0.750000
#
# Coordination Sequence:
#
# PCOD9454772 Si02
#       8
#     8   8   8   8   8   8   8   8
#     4   9  21  41  66  96 132 167 216 281 332 411
#     4  10  20  38  58  88 125 175 217 268 321 399
#     4  11  25  47  69  98 129 171 228 290 347 399
#     4  10  21  43  69  92 131 179 218 271 343 403
#     4  12  21  36  63  93 135 184 215 267 327 416
#     4  11  24  40  65  90 131 171 221 276 339 402
#     4  10  19  38  64  94 132 176 215 264 338 410
#     4  11  22  36  57  92 136 176 226 256 328 405
#
# _framework density 21.818318999999999
#
# number of rings (size 3 to 8) (size 9 to 14) (size 15 to 20)
#    0.000    1.500    5.000    1.875    3.500    1.000 
#    4.500    0.000    2.750    0.750    0.000    0.000 
#    0.000    0.000    0.000    0.000    0.000    0.000 
#
# Total GULP energy -356694.965080 kJ/mol
# GULP energy per Si atom -5573.358829 kJ/mol
# Density = 2.176866 g / cm^3
# Si number density = 21.818319 Si / 1000 Ang^3
#
#
#
# Elastic Constant Matrix: (Units=GPa)
#
#
# Indices 1 2 3 4 5 6 
#
# 1 52.4782 19.0426 12.0767 0.0000 0.0000 0.0000
# 2 19.0426 76.2846 20.9303 0.0000 0.0000 0.0000
# 3 12.0767 20.9303 100.7449 0.0000 0.0000 0.0000
# 4 0.0000 0.0000 0.0000 10.6955 0.0000 0.0000
# 5 0.0000 0.0000 0.0000 0.0000 30.8756 0.0000
# 6 0.0000 0.0000 0.0000 0.0000 0.0000 24.6934
#
#
#
# Elastic Compliance Matrix: (Units=1/GPa)
#
#
# Indices 1 2 3 4 5 6 
#
# 1 0.021173 -0.004866 -0.001527 0.000000 0.000000 0.000000
# 2 -0.004866 0.015020 -0.002537 0.000000 0.000000 0.000000
# 3 -0.001527 -0.002537 0.010636 0.000000 0.000000 0.000000
# 4 0.000000 0.000000 0.000000 0.093497 0.000000 0.000000
# 5 0.000000 0.000000 0.000000 0.000000 0.032388 0.000000
# 6 0.000000 0.000000 0.000000 0.000000 0.000000 0.040497
#
#
# Mechanical properties :
#
#
# Convention : Reuss Voigt Hill
#
# Bulk Modulus (GPa) = 34.52112 37.06744 35.79428
# Shear Modulus (GPa) = 20.77038 25.08343 22.92691
#
# Velocity S-wave (km/s) = 3.08875 3.39433 3.24514
# Velocity P-wave (km/s) = 5.34574 5.69104 5.52109
#
# Compressibility (1/GPa) = 0.02896777
#
# Stress axis : x y z
#
# Youngs Moduli (GPa) = 47.23049 66.57942 94.01846
#
# Poissons Ratio (x) = 0.32399 0.14357
# Poissons Ratio (y) = 0.22984 0.23853
# Poissons Ratio (z) = 0.07212 0.16892
#
# Static dielectric constant tensor:
#      x y z
#    x 1.909740 0.000000 0.000000 
#    y 0.000000 1.798810 0.000000 
#    z 0.000000 0.000000 1.894800 
# 
# From -- ./inp_files/15415.got.cif
#   From: 2010.05.17/outbox.cif.g08.bks.cpg/sg60_8_cif.got.tgz:15415.got - 2010.06.03 14:59:27.
