data_PCOD9454946
_publ_section_title
;
Structure prediction by ZEFSAII (Michael W. Deem and Ramdas Pophale) SiO2 
 PCOD9454946
Probable space group: P B C N
;
_chemical_formula_sum "Si O2"
_cell_formula_units_Z 48
_cell_length_a 11.819589
_cell_length_b 11.762198
_cell_length_c 18.182715
_cell_angle_alpha 90.000000
_cell_angle_beta 90.000000
_cell_angle_gamma 90.000000
_cell_volume 2527.840063
_symmetry_space_group_name_H-M "P B C N"
_symmetry_group_IT_number 60
_symmetry_cell_setting 'orthorhombic'
loop_
_space_group_symop_operation_xyz
x,y,z
1/2-x,1/2-y,1/2+z
1/2+x,1/2-y,-z
-x,y,1/2-z
-x,-y,-z
1/2+x,1/2+y,1/2-z
1/2-x,1/2+y,z
x,-y,1/2+z
loop_
_atom_site_type_symbol
_atom_site_label
_atom_site_fract_x
_atom_site_fract_y
_atom_site_fract_z
Si Si1 0.554617 0.758791 0.949002
Si Si2 0.199718 0.521209 0.078393
Si Si3 0.609452 0.313021 0.615966
Si Si4 0.457509 0.511040 0.585556
Si Si5 0.504715 0.081032 0.665315
Si Si6 0.159547 0.594575 0.423431
O O1 0.639694 0.856047 0.921705
O O2 0.546180 0.645598 0.900555
O O3 0.431444 0.814653 0.951813
O O4 0.592643 0.723538 0.030517
O O5 0.330208 0.530873 0.099410
O O6 0.117307 0.439589 0.126308
O O7 0.203963 0.470489 0.995681
O O8 0.542002 0.429847 0.629128
O O9 0.554919 0.208116 0.659116
O O10 0.741504 0.343317 0.621299
O O11 0.500000 0.500000 0.500000
O O12 0.500000 0.047786 0.750000
O O13 0.591372 0.997967 0.623349
#
# Coordination Sequence:
#
# PCOD9454946 Si02
#       6
#     8   8   8   8   8   8
#     4  10  20  33  58  94 122 150 194 261 313 362
#     4  11  20  38  64  89 125 161 206 258 317 369
#     4  11  22  35  64  89 127 154 203 263 317 367
#     4  10  22  31  57  99 124 145 195 262 316 363
#     4  11  25  45  61  86 127 176 214 251 319 395
#     4  11  21  38  65  91 119 163 207 262 313 365
#
# _framework density 18.988543
#
# number of rings (size 3 to 8) (size 9 to 14) (size 15 to 20)
#    0.000    1.333    6.667    1.000    9.333    0.000 
#    3.000    0.000    0.000    4.000    0.000    0.000 
#    0.000    0.000    0.000    0.000    0.000    0.000 
#
# Total GULP energy -267765.644546 kJ/mol
# GULP energy per Si atom -5578.450928 kJ/mol
# Density = 1.894532 g / cm^3
# Si number density = 18.988543 Si / 1000 Ang^3
#
#
#
# Elastic Constant Matrix: (Units=GPa)
#
#
# Indices 1 2 3 4 5 6 
#
# 1 100.9179 14.4609 -15.2578 0.0000 0.0000 0.0000
# 2 14.4609 83.5585 -21.7088 0.0000 0.0000 0.0000
# 3 -15.2578 -21.7088 35.3024 0.0000 0.0000 0.0000
# 4 0.0000 0.0000 0.0000 3.1870 0.0000 0.0000
# 5 0.0000 0.0000 0.0000 0.0000 -1.7575 0.0000
# 6 0.0000 0.0000 0.0000 0.0000 0.0000 15.5281
#
#
#
# Elastic Compliance Matrix: (Units=1/GPa)
#
#
# Indices 1 2 3 4 5 6 
#
# 1 0.010643 -0.000770 0.004127 0.000000 0.000000 0.000000
# 2 -0.000770 0.014299 0.008460 0.000000 0.000000 0.000000
# 3 0.004127 0.008460 0.035313 0.000000 0.000000 0.000000
# 4 0.000000 0.000000 0.000000 0.313774 0.000000 0.000000
# 5 0.000000 0.000000 0.000000 0.000000 -0.568987 0.000000
# 6 0.000000 0.000000 0.000000 0.000000 0.000000 0.064399
#
#
# Mechanical properties :
#
#
# Convention : Reuss Voigt Hill
#
# Bulk Modulus (GPa) = 11.92054 19.41862 15.66958
# Shear Modulus (GPa) = -39.61032 19.54381 -10.03326
#
# Velocity S-wave (km/s) = -4.57224 3.21166 -2.30116
# Velocity P-wave (km/s) = 4.64570 4.89915 1.09982
#
# Compressibility (1/GPa) = 0.08388884
#
# Stress axis : x y z
#
# Youngs Moduli (GPa) = 93.95612 69.93557 28.31839
#
# Poissons Ratio (x) = 0.05384 -0.11686
# Poissons Ratio (y) = 0.07233 -0.23958
# Poissons Ratio (z) = -0.38772 -0.59167
#
# Static dielectric constant tensor:
#      x y z
#    x 1.707220 0.000000 0.000000 
#    y 0.000000 1.697890 0.000000 
#    z 0.000000 0.000000 1.645110 
# 
# From -- ./inp_files/20008.got.cif
#   From: 2010.05.17/outbox.cif.g08.bks.cpg/sg60_11_cif.got.tgz:20008.got - 2010.06.03 14:59:27.
