data_PCOD9454673
_publ_section_title
;
Structure prediction by ZEFSAII (Michael W. Deem and Ramdas Pophale) SiO2 
 PCOD9454673
Probable space group: P B C N
;
_chemical_formula_sum "Si O2"
_cell_formula_units_Z 64
_cell_length_a 21.242795
_cell_length_b 9.558107
_cell_length_c 15.623001
_cell_angle_alpha 90.000000
_cell_angle_beta 90.000000
_cell_angle_gamma 90.000000
_cell_volume 3172.108302
_symmetry_space_group_name_H-M "P B C N"
_symmetry_group_IT_number 60
_symmetry_cell_setting 'orthorhombic'
loop_
_space_group_symop_operation_xyz
x,y,z
1/2-x,1/2-y,1/2+z
1/2+x,1/2-y,-z
-x,y,1/2-z
-x,-y,-z
1/2+x,1/2+y,1/2-z
1/2-x,1/2+y,z
x,-y,1/2+z
loop_
_atom_site_type_symbol
_atom_site_label
_atom_site_fract_x
_atom_site_fract_y
_atom_site_fract_z
Si Si1 0.679937 0.270983 0.550330
Si Si2 0.881660 0.254412 0.686906
Si Si3 0.069362 0.896813 0.646738
Si Si4 0.924459 0.053966 0.149152
Si Si5 0.879382 0.822318 0.377180
Si Si6 0.196294 0.548308 0.436116
Si Si7 0.000975 0.355445 0.613578
Si Si8 0.082190 0.390953 0.057584
O O1 0.621115 0.338196 0.600981
O O2 0.659142 0.252526 0.452176
O O3 0.736053 0.382827 0.550451
O O4 0.698213 0.117052 0.584873
O O5 0.858841 0.218387 0.781910
O O6 0.834499 0.354521 0.637134
O O7 0.947783 0.338609 0.685417
O O8 0.898452 0.105421 0.641698
O O9 0.074088 0.913449 0.749221
O O10 0.087794 0.745382 0.614679
O O11 0.996825 0.927311 0.620383
O O12 0.116806 0.011965 0.609414
O O13 0.951689 0.773187 0.382677
O O14 0.148794 0.565322 0.516767
O O15 0.962213 0.358707 0.524569
O O16 0.045921 0.490138 0.610971
#
# Coordination Sequence:
#
# PCOD9454673 Si02
#       8
#     8   8   8   8   8   8   8   8
#     4  12  26  45  67  91 127 176 223 269 324 383
#     4  10  22  42  66  96 133 169 212 268 331 391
#     4  10  22  38  64 101 131 163 214 263 331 394
#     4  10  22  41  64  96 134 169 212 264 331 396
#     4  11  22  40  66 101 126 167 214 266 324 395
#     4  11  26  46  63  90 127 172 227 265 320 385
#     4  10  19  36  64  94 135 164 201 267 331 392
#     4  10  22  38  59  97 130 166 218 266 323 387
#
# _framework density 20.175856
#
# number of rings (size 3 to 8) (size 9 to 14) (size 15 to 20)
#    0.000    1.500    2.500    1.875    8.750    2.000 
#    4.500    0.000    0.000    0.000    0.000    0.000 
#    0.000    0.000    0.000    0.000    0.000    0.000 
#
# Total GULP energy -357411.635840 kJ/mol
# GULP energy per Si atom -5584.556810 kJ/mol
# Density = 2.012994 g / cm^3
# Si number density = 20.175856 Si / 1000 Ang^3
#
#
#
# Elastic Constant Matrix: (Units=GPa)
#
#
# Indices 1 2 3 4 5 6 
#
# 1 66.9895 27.8367 32.0748 0.0000 0.0000 0.0000
# 2 27.8367 137.6340 41.8518 0.0000 0.0000 0.0000
# 3 32.0748 41.8518 39.6382 0.0000 0.0000 0.0000
# 4 0.0000 0.0000 0.0000 10.8746 0.0000 0.0000
# 5 0.0000 0.0000 0.0000 0.0000 4.6147 0.0000
# 6 0.0000 0.0000 0.0000 0.0000 0.0000 25.0539
#
#
#
# Elastic Compliance Matrix: (Units=1/GPa)
#
#
# Indices 1 2 3 4 5 6 
#
# 1 0.024603 0.001587 -0.021584 0.000000 0.000000 0.000000
# 2 0.001587 0.010804 -0.012692 0.000000 0.000000 0.000000
# 3 -0.021584 -0.012692 0.056094 0.000000 0.000000 0.000000
# 4 0.000000 0.000000 0.000000 0.091957 0.000000 0.000000
# 5 0.000000 0.000000 0.000000 0.000000 0.216701 0.000000
# 6 0.000000 0.000000 0.000000 0.000000 0.000000 0.039914
#
#
# Mechanical properties :
#
#
# Convention : Reuss Voigt Hill
#
# Bulk Modulus (GPa) = 38.27929 49.75425 44.01677
# Shear Modulus (GPa) = 9.72464 17.60853 13.66658
#
# Velocity S-wave (km/s) = 2.19782 2.95744 2.60546
# Velocity P-wave (km/s) = 5.04525 6.03123 5.56014
#
# Compressibility (1/GPa) = 0.02612379
#
# Stress axis : x y z
#
# Youngs Moduli (GPa) = 40.64597 92.55922 17.82712
#
# Poissons Ratio (x) = -0.14693 0.38478
# Poissons Ratio (y) = -0.06452 0.22626
# Poissons Ratio (z) = 0.87731 1.17474
#
# Static dielectric constant tensor:
#      x y z
#    x 1.695950 0.000000 0.000000 
#    y 0.000000 1.725220 0.000000 
#    z 0.000000 0.000000 1.741960 
# 
# From -- ./inp_files/21058.got.cif
#   From: 2010.05.17/outbox.cif.g08.bks.cpg/sg60_11_cif.got.tgz:21058.got - 2010.06.03 14:59:27.
