data_PCOD9454485
_publ_section_title
;
Structure prediction by ZEFSAII (Michael W. Deem and Ramdas Pophale) SiO2 
 PCOD9454485
Probable space group: P B C N
;
_chemical_formula_sum "Si O2"
_cell_formula_units_Z 48
_cell_length_a 7.111090
_cell_length_b 15.462389
_cell_length_c 20.227770
_cell_angle_alpha 90.000000
_cell_angle_beta 90.000000
_cell_angle_gamma 90.000000
_cell_volume 2224.133119
_symmetry_space_group_name_H-M "P B C N"
_symmetry_group_IT_number 60
_symmetry_cell_setting 'orthorhombic'
loop_
_space_group_symop_operation_xyz
x,y,z
1/2-x,1/2-y,1/2+z
1/2+x,1/2-y,-z
-x,y,1/2-z
-x,-y,-z
1/2+x,1/2+y,1/2-z
1/2-x,1/2+y,z
x,-y,1/2+z
loop_
_atom_site_type_symbol
_atom_site_label
_atom_site_fract_x
_atom_site_fract_y
_atom_site_fract_z
Si Si1 0.126349 0.200199 0.025266
Si Si2 0.333207 0.468873 0.452671
Si Si3 0.796153 0.644647 0.064722
Si Si4 0.019138 0.091917 0.678061
Si Si5 0.320130 0.228000 0.663464
Si Si6 0.745133 0.241472 0.192524
O O1 0.224063 0.226091 0.094191
O O2 0.921440 0.165709 0.046138
O O3 0.220487 0.125367 0.980661
O O4 0.100924 0.285683 0.981048
O O5 0.500000 0.500000 0.500000
O O6 0.177334 0.543728 0.450097
O O7 0.431616 0.461746 0.381157
O O8 0.815753 0.667452 0.141852
O O9 0.225018 0.132782 0.664493
O O10 0.000000 0.048800 0.750000
O O11 0.891421 0.177881 0.682261
O O12 0.545124 0.227220 0.672369
O O13 0.248085 0.277359 0.729273
#
# Coordination Sequence:
#
# PCOD9454485 Si02
#       6
#     8   8   8   8   8   8
#     4  10  19  34  57  79 110 147 184 233 288 331
#     4  10  20  35  55  85 113 145 193 235 282 344
#     4  10  20  35  58  78 115 149 185 241 283 337
#     4  10  19  36  61  84 113 152 189 231 288 335
#     4   9  18  32  57  86 106 149 190 227 283 340
#     4   9  18  34  56  83 109 147 189 230 280 340
#
# _framework density 21.581441999999999
#
# number of rings (size 3 to 8) (size 9 to 14) (size 15 to 20)
#    0.000    2.333    1.667    2.000    0.000    0.000 
#    9.000    0.833    7.333    0.000   13.000    0.000 
#    0.000    0.000    0.000    0.000    0.000    0.000 
#
# Total GULP energy -267807.539635 kJ/mol
# GULP energy per Si atom -5579.323742 kJ/mol
# Density = 2.153232 g / cm^3
# Si number density = 21.581442 Si / 1000 Ang^3
#
#
#
# Elastic Constant Matrix: (Units=GPa)
#
#
# Indices 1 2 3 4 5 6 
#
# 1 40.6631 15.0483 19.7156 0.0000 0.0000 0.0000
# 2 15.0483 70.9237 57.5772 0.0000 0.0000 0.0000
# 3 19.7156 57.5772 167.1046 0.0000 0.0000 0.0000
# 4 0.0000 0.0000 0.0000 28.0992 0.0000 0.0000
# 5 0.0000 0.0000 0.0000 0.0000 20.6229 0.0000
# 6 0.0000 0.0000 0.0000 0.0000 0.0000 15.2476
#
#
#
# Elastic Compliance Matrix: (Units=1/GPa)
#
#
# Indices 1 2 3 4 5 6 
#
# 1 0.027025 -0.004367 -0.001684 0.000000 0.000000 0.000000
# 2 -0.004367 0.020281 -0.006473 0.000000 0.000000 0.000000
# 3 -0.001684 -0.006473 0.008413 0.000000 0.000000 0.000000
# 4 0.000000 0.000000 0.000000 0.035588 0.000000 0.000000
# 5 0.000000 0.000000 0.000000 0.000000 0.048490 0.000000
# 6 0.000000 0.000000 0.000000 0.000000 0.000000 0.065584
#
#
# Mechanical properties :
#
#
# Convention : Reuss Voigt Hill
#
# Bulk Modulus (GPa) = 32.60327 51.48594 42.04460
# Shear Modulus (GPa) = 20.77688 25.21730 22.99709
#
# Velocity S-wave (km/s) = 3.10614 3.42200 3.26789
# Velocity P-wave (km/s) = 5.29188 6.28664 5.81059
#
# Compressibility (1/GPa) = 0.03067177
#
# Stress axis : x y z
#
# Youngs Moduli (GPa) = 37.00298 49.30743 118.86162
#
# Poissons Ratio (x) = 0.21533 0.20013
# Poissons Ratio (y) = 0.16160 0.76935
# Poissons Ratio (z) = 0.06230 0.31915
#
# Static dielectric constant tensor:
#      x y z
#    x 1.861870 0.000000 0.000000 
#    y 0.000000 1.790920 0.000000 
#    z 0.000000 0.000000 1.807890 
# 
# From -- ./inp_files/22059.got.cif
#   From: 2010.05.17/outbox.cif.g08.bks.cpg/sg60_12_cif.got.tgz:22059.got - 2010.06.03 14:59:27.
