data_PCOD9454659
_publ_section_title
;
Structure prediction by ZEFSAII (Michael W. Deem and Ramdas Pophale) SiO2 
 PCOD9454659
Probable space group: P B C N
;
_chemical_formula_sum "Si O2"
_cell_formula_units_Z 56
_cell_length_a 9.553917
_cell_length_b 15.488975
_cell_length_c 19.579705
_cell_angle_alpha 90.000000
_cell_angle_beta 90.000000
_cell_angle_gamma 90.000000
_cell_volume 2897.412217
_symmetry_space_group_name_H-M "P B C N"
_symmetry_group_IT_number 60
_symmetry_cell_setting 'orthorhombic'
loop_
_space_group_symop_operation_xyz
x,y,z
1/2-x,1/2-y,1/2+z
1/2+x,1/2-y,-z
-x,y,1/2-z
-x,-y,-z
1/2+x,1/2+y,1/2-z
1/2-x,1/2+y,z
x,-y,1/2+z
loop_
_atom_site_type_symbol
_atom_site_label
_atom_site_fract_x
_atom_site_fract_y
_atom_site_fract_z
Si Si1 0.341220 0.095508 0.641340
Si Si2 0.613929 0.503610 0.086199
Si Si3 0.838458 0.078735 0.731620
Si Si4 0.787327 0.772244 0.932120
Si Si5 0.208269 0.037548 0.055641
Si Si6 0.597260 0.805680 0.190206
Si Si7 0.392740 0.298944 0.945705
O O1 0.248426 0.050614 0.700874
O O2 0.287810 0.192615 0.621575
O O3 0.499593 0.113493 0.665839
O O4 0.321488 0.034055 0.576363
O O5 0.659785 0.478512 0.162466
O O6 0.444018 0.500119 0.079432
O O7 0.644944 0.601605 0.064523
O O8 0.687865 0.449029 0.025952
O O9 0.747294 0.163018 0.714767
O O10 0.000000 0.093424 0.750000
O O11 0.755673 0.870558 0.909583
O O12 0.944119 0.784106 0.960150
O O13 0.690740 0.743715 0.993727
O O14 0.500000 0.765788 0.250000
O O15 0.623706 0.744768 0.127296
#
# Coordination Sequence:
#
# PCOD9454659 Si02
#       7
#     8   8   8   8   8   8   8
#     4  10  20  40  59  84 122 157 191 244 308 360
#     4  10  20  34  59  92 113 151 198 255 290 348
#     4  11  21  37  61  84 113 154 204 245 295 353
#     4  10  21  36  59  88 117 158 192 243 300 352
#     4  10  19  36  62  87 121 150 198 244 300 356
#     4   9  21  38  57  82 121 164 194 243 308 370
#     4  10  20  38  59  88 123 150 202 248 300 367
#
# _framework density 19.327591999999999
#
# number of rings (size 3 to 8) (size 9 to 14) (size 15 to 20)
#    0.000    2.000    2.857    0.857    0.000    1.714 
#    7.714    2.143    0.000    0.000    0.000    0.000 
#    0.000    0.000    0.000    0.000    0.000    0.000 
#
# Total GULP energy -311862.790612 kJ/mol
# GULP energy per Si atom -5568.978404 kJ/mol
# Density = 1.928360 g / cm^3
# Si number density = 19.327592 Si / 1000 Ang^3
#
#
#
# Elastic Constant Matrix: (Units=GPa)
#
#
# Indices 1 2 3 4 5 6 
#
# 1 26.4935 10.5921 17.6516 0.0000 0.0000 0.0000
# 2 10.5921 54.8813 17.4148 0.0000 0.0000 0.0000
# 3 17.6516 17.4148 86.0289 0.0000 0.0000 0.0000
# 4 0.0000 0.0000 0.0000 32.6976 0.0000 0.0000
# 5 0.0000 0.0000 0.0000 0.0000 25.1146 0.0000
# 6 0.0000 0.0000 0.0000 0.0000 0.0000 11.9690
#
#
#
# Elastic Compliance Matrix: (Units=1/GPa)
#
#
# Indices 1 2 3 4 5 6 
#
# 1 0.045636 -0.006237 -0.008101 0.000000 0.000000 0.000000
# 2 -0.006237 0.020324 -0.002835 0.000000 0.000000 0.000000
# 3 -0.008101 -0.002835 0.013860 0.000000 0.000000 0.000000
# 4 0.000000 0.000000 0.000000 0.030583 0.000000 0.000000
# 5 0.000000 0.000000 0.000000 0.000000 0.039817 0.000000
# 6 0.000000 0.000000 0.000000 0.000000 0.000000 0.083549
#
#
# Mechanical properties :
#
#
# Convention : Reuss Voigt Hill
#
# Bulk Modulus (GPa) = 21.99015 28.74676 25.36845
# Shear Modulus (GPa) = 17.65075 22.07260 19.86167
#
# Velocity S-wave (km/s) = 3.02527 3.38305 3.20915
# Velocity P-wave (km/s) = 4.85853 5.49234 5.18513
#
# Compressibility (1/GPa) = 0.04547492
#
# Stress axis : x y z
#
# Youngs Moduli (GPa) = 21.91243 49.20199 72.15011
#
# Poissons Ratio (x) = 0.30688 0.58450
# Poissons Ratio (y) = 0.13667 0.20451
# Poissons Ratio (z) = 0.17752 0.13946
#
# Static dielectric constant tensor:
#      x y z
#    x 1.674100 0.000000 0.000000 
#    y 0.000000 1.710160 0.000000 
#    z 0.000000 0.000000 1.774910 
# 
# From -- ./inp_files/22211.got.cif
#   From: 2010.05.17/outbox.cif.g08.bks.cpg/sg60_12_cif.got.tgz:22211.got - 2010.06.03 14:59:27.
