data_PCOD9454011
_publ_section_title
;
Structure prediction by ZEFSAII (Michael W. Deem and Ramdas Pophale) SiO2 
 PCOD9454011
Probable space group: P B C N
;
_chemical_formula_sum "Si O2"
_cell_formula_units_Z 48
_cell_length_a 17.543086
_cell_length_b 14.178031
_cell_length_c 8.478880
_cell_angle_alpha 90.000000
_cell_angle_beta 90.000000
_cell_angle_gamma 90.000000
_cell_volume 2108.921444
_symmetry_space_group_name_H-M "P B C N"
_symmetry_group_IT_number 60
_symmetry_cell_setting 'orthorhombic'
loop_
_space_group_symop_operation_xyz
x,y,z
1/2-x,1/2-y,1/2+z
1/2+x,1/2-y,-z
-x,y,1/2-z
-x,-y,-z
1/2+x,1/2+y,1/2-z
1/2-x,1/2+y,z
x,-y,1/2+z
loop_
_atom_site_type_symbol
_atom_site_label
_atom_site_fract_x
_atom_site_fract_y
_atom_site_fract_z
Si Si1 0.877771 0.046326 0.929115
Si Si2 0.260067 0.929592 0.427420
Si Si3 0.645371 0.698820 0.652963
Si Si4 0.523615 0.363697 0.908229
Si Si5 0.630941 0.039736 0.850992
Si Si6 0.573131 0.876179 0.657408
O O1 0.857473 0.120339 0.790748
O O2 0.920757 0.952152 0.865409
O O3 0.944760 0.096910 0.024595
O O4 0.806851 0.008369 0.035388
O O5 0.217032 0.831202 0.452813
O O6 0.301500 0.919500 0.257959
O O7 0.326291 0.962626 0.541428
O O8 0.569890 0.688180 0.545021
O O9 0.642724 0.806609 0.703066
O O10 0.500000 0.309421 0.750000
O O11 0.581165 0.979076 0.732578
O O12 0.583621 0.106223 0.969539
O O13 0.500000 0.835960 0.750000
#
# Coordination Sequence:
#
# PCOD9454011 Si02
#       6
#     8   8   8   8   8   8
#     4  10  18  32  56  86 134 174 201 242 313 397
#     4  10  20  38  63  95 132 171 204 255 332 402
#     4  11  22  37  63  94 134 168 214 267 322 394
#     4  10  19  30  52  90 133 178 205 241 305 386
#     4  10  23  43  65  90 125 170 223 267 334 396
#     4  11  24  45  69  89 119 168 228 289 331 380
#
# _framework density 22.760449999999999
#
# number of rings (size 3 to 8) (size 9 to 14) (size 15 to 20)
#    0.000    1.667    1.667    5.000    2.333    1.333 
#    0.000    7.500    0.000    0.000    0.000    0.000 
#    0.000    0.000    0.000    0.000    0.000    0.000 
#
# Total GULP energy -267262.159645 kJ/mol
# GULP energy per Si atom -5567.961659 kJ/mol
# Density = 2.270865 g / cm^3
# Si number density = 22.760450 Si / 1000 Ang^3
#
#
#
# Elastic Constant Matrix: (Units=GPa)
#
#
# Indices 1 2 3 4 5 6 
#
# 1 66.0214 -3.8822 27.5852 0.0000 0.0000 0.0000
# 2 -3.8822 51.7522 5.4151 0.0000 0.0000 0.0000
# 3 27.5852 5.4151 95.5426 0.0000 0.0000 0.0000
# 4 0.0000 0.0000 0.0000 26.8277 0.0000 0.0000
# 5 0.0000 0.0000 0.0000 0.0000 30.3490 0.0000
# 6 0.0000 0.0000 0.0000 0.0000 0.0000 20.4937
#
#
#
# Elastic Compliance Matrix: (Units=1/GPa)
#
#
# Indices 1 2 3 4 5 6 
#
# 1 0.017397 0.001842 -0.005127 0.000000 0.000000 0.000000
# 2 0.001842 0.019633 -0.001644 0.000000 0.000000 0.000000
# 3 -0.005127 -0.001644 0.012040 0.000000 0.000000 0.000000
# 4 0.000000 0.000000 0.000000 0.037275 0.000000 0.000000
# 5 0.000000 0.000000 0.000000 0.000000 0.032950 0.000000
# 6 0.000000 0.000000 0.000000 0.000000 0.000000 0.048796
#
#
# Mechanical properties :
#
#
# Convention : Reuss Voigt Hill
#
# Bulk Modulus (GPa) = 25.50372 30.17246 27.83809
# Shear Modulus (GPa) = 26.17510 27.81395 26.99452
#
# Velocity S-wave (km/s) = 3.39488 3.49955 3.44761
# Velocity P-wave (km/s) = 5.15719 5.44191 5.30146
#
# Compressibility (1/GPa) = 0.03920997
#
# Stress axis : x y z
#
# Youngs Moduli (GPa) = 57.48049 50.93447 83.05574
#
# Poissons Ratio (x) = -0.09380 0.42585
# Poissons Ratio (y) = -0.10585 0.13658
# Poissons Ratio (z) = 0.29472 0.08376
#
# Static dielectric constant tensor:
#      x y z
#    x 1.894260 0.000000 0.000000 
#    y 0.000000 1.886200 0.000000 
#    z 0.000000 0.000000 1.949770 
# 
# From -- ./inp_files/6706.got.cif
#   From: 2010.05.17/outbox.cif.g08.bks.cpg/sg60_4_cif.got.tgz:6706.got - 2010.06.03 14:59:27.
