data_PCOD9454236
_publ_section_title
;
Structure prediction by ZEFSAII (Michael W. Deem and Ramdas Pophale) SiO2 
 PCOD9454236
Probable space group: P B C N
;
_chemical_formula_sum "Si O2"
_cell_formula_units_Z 36
_cell_length_a 8.322718
_cell_length_b 18.756503
_cell_length_c 11.184206
_cell_angle_alpha 90.000000
_cell_angle_beta 90.000000
_cell_angle_gamma 90.000000
_cell_volume 1745.911430
_symmetry_space_group_name_H-M "P B C N"
_symmetry_group_IT_number 60
_symmetry_cell_setting 'orthorhombic'
loop_
_space_group_symop_operation_xyz
x,y,z
1/2-x,1/2-y,1/2+z
1/2+x,1/2-y,-z
-x,y,1/2-z
-x,-y,-z
1/2+x,1/2+y,1/2-z
1/2-x,1/2+y,z
x,-y,1/2+z
loop_
_atom_site_type_symbol
_atom_site_label
_atom_site_fract_x
_atom_site_fract_y
_atom_site_fract_z
Si Si1 0.037057 0.586738 0.118079
Si Si2 0.041152 0.165057 0.610052
Si Si3 0.500000 0.167556 0.750000
Si Si4 0.803967 0.287301 0.029284
Si Si5 0.705249 0.059285 0.915122
O O1 0.111938 0.649651 0.042580
O O2 0.158372 0.519897 0.125802
O O3 0.000000 0.612257 0.250000
O O4 0.876784 0.564390 0.045839
O O5 0.173723 0.216688 0.549323
O O6 0.111495 0.085938 0.588064
O O7 0.000000 0.174142 0.750000
O O8 0.878569 0.189342 0.546199
O O9 0.606495 0.213730 0.657965
O O10 0.614464 0.114096 0.825269
#
# Coordination Sequence:
#
# PCOD9454236 Si02
#       5
#     8   8   4   8   8
#     4  10  21  41  68  95 128 171 219 268 320 389
#     4  12  25  43  65  97 135 175 217 271 328 392
#     4  10  18  40  64  90 126 170 210 270 330 390
#     4  11  24  40  65  96 130 172 222 267 323 389
#     4  10  21  39  66  93 128 174 213 262 336 383
#
# _framework density 20.619603999999999
#
# number of rings (size 3 to 8) (size 9 to 14) (size 15 to 20)
#    0.000    1.333    3.333    3.333    0.000    0.889 
#    0.000    0.000    0.000    0.000    0.000    0.000 
#    0.000    0.000    0.000    0.000    0.000    0.000 
#
# Total GULP energy -201057.791021 kJ/mol
# GULP energy per Si atom -5584.938639 kJ/mol
# Density = 2.057267 g / cm^3
# Si number density = 20.619604 Si / 1000 Ang^3
#
#
#
# Elastic Constant Matrix: (Units=GPa)
#
#
# Indices 1 2 3 4 5 6 
#
# 1 80.9054 14.8231 36.8724 0.0000 0.0000 0.0000
# 2 14.8231 60.8085 23.7781 0.0000 0.0000 0.0000
# 3 36.8724 23.7781 114.2928 0.0000 0.0000 0.0000
# 4 0.0000 0.0000 0.0000 13.0198 0.0000 0.0000
# 5 0.0000 0.0000 0.0000 0.0000 19.2288 0.0000
# 6 0.0000 0.0000 0.0000 0.0000 0.0000 37.1657
#
#
#
# Elastic Compliance Matrix: (Units=1/GPa)
#
#
# Indices 1 2 3 4 5 6 
#
# 1 0.014686 -0.001880 -0.004347 0.000000 0.000000 0.000000
# 2 -0.001880 0.018142 -0.003168 0.000000 0.000000 0.000000
# 3 -0.004347 -0.003168 0.010811 0.000000 0.000000 0.000000
# 4 0.000000 0.000000 0.000000 0.076806 0.000000 0.000000
# 5 0.000000 0.000000 0.000000 0.000000 0.052005 0.000000
# 6 0.000000 0.000000 0.000000 0.000000 0.000000 0.026907
#
#
# Mechanical properties :
#
#
# Convention : Reuss Voigt Hill
#
# Bulk Modulus (GPa) = 40.24265 45.21709 42.72987
# Shear Modulus (GPa) = 22.08199 25.91838 24.00019
#
# Velocity S-wave (km/s) = 3.27605 3.54923 3.41537
# Velocity P-wave (km/s) = 5.81971 6.22679 6.02669
#
# Compressibility (1/GPa) = 0.02484926
#
# Stress axis : x y z
#
# Youngs Moduli (GPa) = 68.09420 55.12031 92.50024
#
# Poissons Ratio (x) = 0.10364 0.40206
# Poissons Ratio (y) = 0.12803 0.29302
# Poissons Ratio (z) = 0.29598 0.17461
#
# Static dielectric constant tensor:
#      x y z
#    x 1.814360 0.000000 0.000000 
#    y 0.000000 1.744280 0.000000 
#    z 0.000000 0.000000 1.745300 
# 
# From -- ./inp_files/3701.got.cif
#   From: 2010.05.17/outbox.cif.g08.bks.cpg/sg60_2_cif.got.tgz:3701.got - 2010.06.03 14:59:27.
