data_PCOD9454202
_publ_section_title
;
Structure prediction by ZEFSAII (Michael W. Deem and Ramdas Pophale) SiO2 
 PCOD9454202
Probable space group: P B C N
;
_chemical_formula_sum "Si O2"
_cell_formula_units_Z 48
_cell_length_a 7.803328
_cell_length_b 27.801780
_cell_length_c 10.710799
_cell_angle_alpha 90.000000
_cell_angle_beta 90.000000
_cell_angle_gamma 90.000000
_cell_volume 2323.669373
_symmetry_space_group_name_H-M "P B C N"
_symmetry_group_IT_number 60
_symmetry_cell_setting 'orthorhombic'
loop_
_space_group_symop_operation_xyz
x,y,z
1/2-x,1/2-y,1/2+z
1/2+x,1/2-y,-z
-x,y,1/2-z
-x,-y,-z
1/2+x,1/2+y,1/2-z
1/2-x,1/2+y,z
x,-y,1/2+z
loop_
_atom_site_type_symbol
_atom_site_label
_atom_site_fract_x
_atom_site_fract_y
_atom_site_fract_z
Si Si1 0.500000 0.328950 0.750000
Si Si2 0.325008 0.827982 0.310636
Si Si3 0.500000 0.266900 0.250000
Si Si4 0.323041 0.413135 0.904788
Si Si5 0.670300 0.810795 0.897839
Si Si6 0.684046 0.582330 0.800159
Si Si7 0.500000 0.510234 0.250000
Si Si8 0.500000 0.103483 0.250000
O O1 0.404568 0.364021 0.849663
O O2 0.349551 0.301700 0.675304
O O3 0.500000 0.810261 0.250000
O O4 0.312359 0.817365 0.456262
O O5 0.311092 0.884717 0.278288
O O6 0.165530 0.799930 0.253036
O O7 0.467874 0.230171 0.135622
O O8 0.454328 0.455355 0.865608
O O9 0.145811 0.422736 0.830449
O O10 0.296322 0.409681 0.052325
O O11 0.600232 0.861073 0.843685
O O12 0.500000 0.600270 0.750000
O O13 0.660424 0.525369 0.775576
#
# Coordination Sequence:
#
# PCOD9454202 Si02
#       8
#     4   8   4   8   8   8   4   4
#     4   9  20  34  69  88 122 176 213 266 332 381
#     4  12  26  44  67  96 130 179 211 270 342 396
#     4  11  27  42  63  98 126 162 215 278 321 393
#     4  10  18  38  61  93 127 170 223 264 326 391
#     4  10  23  43  64  96 128 165 226 269 330 401
#     4  10  21  39  62  90 132 168 216 267 329 390
#     4   9  21  36  63  98 124 176 219 276 327 377
#     4   9  20  40  63  90 128 170 213 278 318 387
#
# _framework density 20.656984999999999
#
# number of rings (size 3 to 8) (size 9 to 14) (size 15 to 20)
#    0.500    1.333    0.833    2.500    3.500    0.000 
#    1.500    0.833    0.000    0.000    0.000    0.000 
#    0.000    0.000    0.000    0.000    0.000    0.000 
#
# Total GULP energy -267694.134977 kJ/mol
# GULP energy per Si atom -5576.961145 kJ/mol
# Density = 2.060997 g / cm^3
# Si number density = 20.656985 Si / 1000 Ang^3
#
#
#
# Elastic Constant Matrix: (Units=GPa)
#
#
# Indices 1 2 3 4 5 6 
#
# 1 105.4525 22.3470 6.3568 0.0000 0.0000 0.0000
# 2 22.3470 66.6755 8.0168 0.0000 0.0000 0.0000
# 3 6.3568 8.0168 70.4695 0.0000 0.0000 0.0000
# 4 0.0000 0.0000 0.0000 23.7204 0.0000 0.0000
# 5 0.0000 0.0000 0.0000 0.0000 23.1450 0.0000
# 6 0.0000 0.0000 0.0000 0.0000 0.0000 26.4726
#
#
#
# Elastic Compliance Matrix: (Units=1/GPa)
#
#
# Indices 1 2 3 4 5 6 
#
# 1 0.010228 -0.003363 -0.000540 0.000000 0.000000 0.000000
# 2 -0.003363 0.016312 -0.001552 0.000000 0.000000 0.000000
# 3 -0.000540 -0.001552 0.014416 0.000000 0.000000 0.000000
# 4 0.000000 0.000000 0.000000 0.042158 0.000000 0.000000
# 5 0.000000 0.000000 0.000000 0.000000 0.043206 0.000000
# 6 0.000000 0.000000 0.000000 0.000000 0.000000 0.037775
#
#
# Mechanical properties :
#
#
# Convention : Reuss Voigt Hill
#
# Bulk Modulus (GPa) = 33.28353 35.11540 34.19947
# Shear Modulus (GPa) = 27.02403 28.39272 27.70838
#
# Velocity S-wave (km/s) = 3.62087 3.71143 3.66643
# Velocity P-wave (km/s) = 5.79900 5.95000 5.87498
#
# Compressibility (1/GPa) = 0.03004489
#
# Stress axis : x y z
#
# Youngs Moduli (GPa) = 97.76885 61.30506 69.36806
#
# Poissons Ratio (x) = 0.20618 0.03746
# Poissons Ratio (y) = 0.32881 0.10768
# Poissons Ratio (z) = 0.05280 0.09516
#
# Static dielectric constant tensor:
#      x y z
#    x 1.734910 0.000000 0.000000 
#    y 0.000000 1.756130 0.000000 
#    z 0.000000 0.000000 1.672980 
# 
# From -- ./inp_files/4310.got.cif
#   From: 2010.05.17/outbox.cif.g08.bks.cpg/sg60_3_cif.got.tgz:4310.got - 2010.06.03 14:59:27.
