data_PCOD9454723
_publ_section_title
;
Structure prediction by ZEFSAII (Michael W. Deem and Ramdas Pophale) SiO2 
 PCOD9454723
Probable space group: P B C N
;
_chemical_formula_sum "Si O2"
_cell_formula_units_Z 32
_cell_length_a 11.852839
_cell_length_b 14.955800
_cell_length_c 8.701786
_cell_angle_alpha 90.000000
_cell_angle_beta 90.000000
_cell_angle_gamma 90.000000
_cell_volume 1542.554201
_symmetry_space_group_name_H-M "P B C N"
_symmetry_group_IT_number 60
_symmetry_cell_setting 'orthorhombic'
loop_
_space_group_symop_operation_xyz
x,y,z
1/2-x,1/2-y,1/2+z
1/2+x,1/2-y,-z
-x,y,1/2-z
-x,-y,-z
1/2+x,1/2+y,1/2-z
1/2-x,1/2+y,z
x,-y,1/2+z
loop_
_atom_site_type_symbol
_atom_site_label
_atom_site_fract_x
_atom_site_fract_y
_atom_site_fract_z
Si Si1 0.895974 0.562607 0.927076
Si Si2 0.977537 0.283335 0.932953
Si Si3 0.463839 0.407676 0.423408
Si Si4 0.798331 0.588721 0.584989
O O1 0.865467 0.573313 0.746879
O O2 0.795120 0.507609 0.001304
O O3 0.000000 0.500000 0.000000
O O4 0.921873 0.660032 0.989946
O O5 0.000000 0.285996 0.750000
O O6 0.976324 0.181429 0.988360
O O7 0.867216 0.338511 0.985155
O O8 0.500000 0.417929 0.250000
O O9 0.500000 0.500000 0.500000
O O10 0.331237 0.384618 0.410365
#
# Coordination Sequence:
#
# PCOD9454723 Si02
#       4
#     8   8   8   8
#     4  10  19  37  64  95 123 158 206 252 305 372
#     4  10  22  40  61  92 124 160 209 253 299 370
#     4  11  26  44  62  90 126 163 209 255 310 376
#     4  11  22  39  65  93 126 165 200 258 315 358
#
# _framework density 20.744814000000002
#
# number of rings (size 3 to 8) (size 9 to 14) (size 15 to 20)
#    0.000    1.500    0.000    7.500    0.000    8.000 
#    0.000    0.000    0.000    0.000    0.000    0.000 
#    0.000    0.000    0.000    0.000    0.000    0.000 
#
# Total GULP energy -178209.042349 kJ/mol
# GULP energy per Si atom -5569.032573 kJ/mol
# Density = 2.069760 g / cm^3
# Si number density = 20.744814 Si / 1000 Ang^3
#
#
#
# Elastic Constant Matrix: (Units=GPa)
#
#
# Indices 1 2 3 4 5 6 
#
# 1 103.8580 33.3004 35.1221 0.0000 0.0000 0.0000
# 2 33.3004 189.2217 63.3598 0.0000 0.0000 0.0000
# 3 35.1221 63.3598 108.5107 0.0000 0.0000 0.0000
# 4 0.0000 0.0000 0.0000 34.6024 0.0000 0.0000
# 5 0.0000 0.0000 0.0000 0.0000 24.1374 0.0000
# 6 0.0000 0.0000 0.0000 0.0000 0.0000 13.8894
#
#
#
# Elastic Compliance Matrix: (Units=1/GPa)
#
#
# Indices 1 2 3 4 5 6 
#
# 1 0.010939 -0.000919 -0.003004 0.000000 0.000000 0.000000
# 2 -0.000919 0.006646 -0.003583 0.000000 0.000000 0.000000
# 3 -0.003004 -0.003583 0.012280 0.000000 0.000000 0.000000
# 4 0.000000 0.000000 0.000000 0.028900 0.000000 0.000000
# 5 0.000000 0.000000 0.000000 0.000000 0.041430 0.000000
# 6 0.000000 0.000000 0.000000 0.000000 0.000000 0.071997
#
#
# Mechanical properties :
#
#
# Convention : Reuss Voigt Hill
#
# Bulk Modulus (GPa) = 67.32754 73.90611 70.61682
# Shear Modulus (GPa) = 26.02046 32.51305 29.26676
#
# Velocity S-wave (km/s) = 3.54547 3.96319 3.76013
# Velocity P-wave (km/s) = 7.02040 7.52636 7.27778
#
# Compressibility (1/GPa) = 0.01485276
#
# Stress axis : x y z
#
# Youngs Moduli (GPa) = 91.41484 150.45640 81.43127
#
# Poissons Ratio (x) = 0.13831 0.24461
# Poissons Ratio (y) = 0.08404 0.29180
# Poissons Ratio (z) = 0.27460 0.53914
#
# Static dielectric constant tensor:
#      x y z
#    x 1.604050 0.000000 0.000000 
#    y 0.000000 1.786670 0.000000 
#    z 0.000000 0.000000 1.763120 
# 
# From -- ./inp_files/4551.got.cif
#   From: 2010.05.17/outbox.cif.g08.bks.cpg/sg60_3_cif.got.tgz:4551.got - 2010.06.03 14:59:27.
