data_PCOD9454707
_publ_section_title
;
Structure prediction by ZEFSAII (Michael W. Deem and Ramdas Pophale) SiO2 
 PCOD9454707
Probable space group: P B C N
;
_chemical_formula_sum "Si O2"
_cell_formula_units_Z 44
_cell_length_a 12.581438
_cell_length_b 5.627920
_cell_length_c 24.338746
_cell_angle_alpha 90.000000
_cell_angle_beta 90.000000
_cell_angle_gamma 90.000000
_cell_volume 1723.361536
_symmetry_space_group_name_H-M "P B C N"
_symmetry_group_IT_number 60
_symmetry_cell_setting 'orthorhombic'
loop_
_space_group_symop_operation_xyz
x,y,z
1/2-x,1/2-y,1/2+z
1/2+x,1/2-y,-z
-x,y,1/2-z
-x,-y,-z
1/2+x,1/2+y,1/2-z
1/2-x,1/2+y,z
x,-y,1/2+z
loop_
_atom_site_type_symbol
_atom_site_label
_atom_site_fract_x
_atom_site_fract_y
_atom_site_fract_z
Si Si1 0.619279 0.301429 0.448451
Si Si2 0.089098 0.148138 0.317261
Si Si3 0.686443 0.688261 0.063076
Si Si4 0.364900 0.872894 0.210290
Si Si5 0.645830 0.197718 0.907755
Si Si6 0.500000 0.253231 0.250000
O O1 0.600589 0.313729 0.513543
O O2 0.748444 0.293895 0.444640
O O3 0.590477 0.546515 0.417185
O O4 0.584878 0.047328 0.422962
O O5 0.142931 0.180616 0.374892
O O6 0.158568 0.211115 0.262987
O O7 0.986756 0.316584 0.310223
O O8 0.037104 0.897661 0.303383
O O9 0.751722 0.440196 0.057637
O O10 0.306534 0.829071 0.153872
O O11 0.389608 0.131241 0.232300
#
# Coordination Sequence:
#
# PCOD9454707 Si02
#       6
#     8   8   8   8   8   4
#     4  10  20  39  58  84 121 160 192 244 291 353
#     4   9  22  39  60  89 115 161 198 246 300 349
#     4  12  23  42  63  85 123 159 199 244 294 356
#     4   9  20  39  62  86 119 157 195 253 293 357
#     4  10  19  37  61  84 115 159 195 237 299 340
#     4   8  18  40  60  80 118 152 198 242 306 346
#
# _framework density 25.531500000000001
#
# number of rings (size 3 to 8) (size 9 to 14) (size 15 to 20)
#    0.000    2.545    3.636    0.000   10.182    0.000 
#    6.545    1.818    0.000    0.000    0.000    0.000 
#    0.000    0.000    0.000    0.000    0.000    0.000 
#
# Total GULP energy -245437.557812 kJ/mol
# GULP energy per Si atom -5578.126314 kJ/mol
# Density = 2.547339 g / cm^3
# Si number density = 25.531500 Si / 1000 Ang^3
#
#
#
# Elastic Constant Matrix: (Units=GPa)
#
#
# Indices 1 2 3 4 5 6 
#
# 1 41.8861 18.3968 11.3865 0.0000 0.0000 0.0000
# 2 18.3968 181.8749 52.5635 0.0000 0.0000 0.0000
# 3 11.3865 52.5635 189.5606 0.0000 0.0000 0.0000
# 4 0.0000 0.0000 0.0000 93.7263 0.0000 0.0000
# 5 0.0000 0.0000 0.0000 0.0000 32.9007 0.0000
# 6 0.0000 0.0000 0.0000 0.0000 0.0000 -5.9661
#
#
#
# Elastic Compliance Matrix: (Units=1/GPa)
#
#
# Indices 1 2 3 4 5 6 
#
# 1 0.025117 -0.002288 -0.000874 0.000000 0.000000 0.000000
# 2 -0.002288 0.006186 -0.001578 0.000000 0.000000 0.000000
# 3 -0.000874 -0.001578 0.005765 0.000000 0.000000 0.000000
# 4 0.000000 0.000000 0.000000 0.010669 0.000000 0.000000
# 5 0.000000 0.000000 0.000000 0.000000 0.030394 0.000000
# 6 0.000000 0.000000 0.000000 0.000000 0.000000 -0.167613
#
#
# Mechanical properties :
#
#
# Convention : Reuss Voigt Hill
#
# Bulk Modulus (GPa) = 36.24781 64.22390 50.23585
# Shear Modulus (GPa) = -70.61615 46.19716 -12.20950
#
# Velocity S-wave (km/s) = -5.26483 4.25834 -2.18918
# Velocity P-wave (km/s) = 4.76759 7.02761 3.65085
#
# Compressibility (1/GPa) = 0.02758788
#
# Stress axis : x y z
#
# Youngs Moduli (GPa) = 39.81398 161.66289 173.44889
#
# Poissons Ratio (x) = 0.36987 0.15164
# Poissons Ratio (y) = 0.09109 0.27367
# Poissons Ratio (z) = 0.03481 0.25507
#
# Static dielectric constant tensor:
#      x y z
#    x 2.093710 0.000000 0.000000 
#    y 0.000000 2.138310 0.000000 
#    z 0.000000 0.000000 2.045160 
# 
# From -- ./inp_files/24490.got.cif
#   From: 2010.05.17/outbox.cif.g08.bks.cpg/sg60_13_cif.got.tgz:24490.got - 2010.06.03 14:59:27.
