data_PCOD9454427
_publ_section_title
;
Structure prediction by ZEFSAII (Michael W. Deem and Ramdas Pophale) SiO2 
 PCOD9454427
Probable space group: P B C N
;
_chemical_formula_sum "Si O2"
_cell_formula_units_Z 48
_cell_length_a 16.124272
_cell_length_b 8.670261
_cell_length_c 17.087812
_cell_angle_alpha 90.000000
_cell_angle_beta 90.000000
_cell_angle_gamma 90.000000
_cell_volume 2388.904256
_symmetry_space_group_name_H-M "P B C N"
_symmetry_group_IT_number 60
_symmetry_cell_setting 'orthorhombic'
loop_
_space_group_symop_operation_xyz
x,y,z
1/2-x,1/2-y,1/2+z
1/2+x,1/2-y,-z
-x,y,1/2-z
-x,-y,-z
1/2+x,1/2+y,1/2-z
1/2-x,1/2+y,z
x,-y,1/2+z
loop_
_atom_site_type_symbol
_atom_site_label
_atom_site_fract_x
_atom_site_fract_y
_atom_site_fract_z
Si Si1 0.421246 0.940063 0.905645
Si Si2 0.418297 0.210001 0.023939
Si Si3 0.373202 0.623642 0.376501
Si Si4 0.000000 0.974221 0.750000
Si Si5 0.500000 0.975416 0.750000
Si Si6 0.287979 0.700292 0.840799
Si Si7 0.874071 0.776846 0.313354
O O1 0.492232 0.822715 0.937132
O O2 0.462784 0.035210 0.832756
O O3 0.346286 0.836059 0.874919
O O4 0.399096 0.053200 0.976532
O O5 0.357651 0.248962 0.095846
O O6 0.414796 0.343890 0.959875
O O7 0.441526 0.617472 0.308581
O O8 0.304927 0.756110 0.362214
O O9 0.324199 0.460839 0.372079
O O10 0.938751 0.083325 0.800336
O O11 0.575687 0.870160 0.780810
O O12 0.299281 0.696855 0.746604
#
# Coordination Sequence:
#
# PCOD9454427 Si02
#       7
#     8   8   8   4   4   8   8
#     4   9  18  33  55  85 116 151 189 238 295 352
#     4  10  19  33  57  88 117 145 193 245 295 351
#     4  11  22  38  60  86 117 154 200 249 298 355
#     4   9  20  37  58  82 112 158 204 236 294 370
#     4   7  12  27  52  74 108 150 182 220 286 358
#     4  10  21  39  59  79 115 158 196 239 298 356
#     4   8  16  34  56  79 109 151 193 237 290 352
#
# _framework density 20.092893
#
# number of rings (size 3 to 8) (size 9 to 14) (size 15 to 20)
#    0.000    2.667    0.000    4.000    0.000    3.333 
#    0.000   11.667    0.000    1.000    0.000    0.000 
#    0.000    0.000    0.000    0.000    0.000    0.000 
#
# Total GULP energy -267533.782892 kJ/mol
# GULP energy per Si atom -5573.620477 kJ/mol
# Density = 2.004716 g / cm^3
# Si number density = 20.092893 Si / 1000 Ang^3
#
#
#
# Elastic Constant Matrix: (Units=GPa)
#
#
# Indices 1 2 3 4 5 6 
#
# 1 73.1399 8.9239 34.5108 0.0000 0.0000 0.0000
# 2 8.9239 48.9453 29.4026 0.0000 0.0000 0.0000
# 3 34.5108 29.4026 156.7460 0.0000 0.0000 0.0000
# 4 0.0000 0.0000 0.0000 134.9596 0.0000 0.0000
# 5 0.0000 0.0000 0.0000 0.0000 17.9384 0.0000
# 6 0.0000 0.0000 0.0000 0.0000 0.0000 820.5420
#
#
#
# Elastic Compliance Matrix: (Units=1/GPa)
#
#
# Indices 1 2 3 4 5 6 
#
# 1 0.015290 -0.000863 -0.003205 0.000000 0.000000 0.000000
# 2 -0.000863 0.023074 -0.004138 0.000000 0.000000 0.000000
# 3 -0.003205 -0.004138 0.007862 0.000000 0.000000 0.000000
# 4 0.000000 0.000000 0.000000 0.007410 0.000000 0.000000
# 5 0.000000 0.000000 0.000000 0.000000 0.055746 0.000000
# 6 0.000000 0.000000 0.000000 0.000000 0.000000 0.001219
#
#
# Mechanical properties :
#
#
# Convention : Reuss Voigt Hill
#
# Bulk Modulus (GPa) = 33.54077 47.16732 40.35404
# Shear Modulus (GPa) = 36.50986 208.42095 122.46541
#
# Velocity S-wave (km/s) = 4.26732 10.19578 7.81549
# Velocity P-wave (km/s) = 6.40383 12.73306 10.07819
#
# Compressibility (1/GPa) = 0.02981447
#
# Stress axis : x y z
#
# Youngs Moduli (GPa) = 65.40341 43.33835 127.20101
#
# Poissons Ratio (x) = 0.03739 0.40762
# Poissons Ratio (y) = 0.05642 0.52640
# Poissons Ratio (z) = 0.20959 0.17935
#
# Static dielectric constant tensor:
#      x y z
#    x 1.710980 0.000000 0.000000 
#    y 0.000000 1.755050 0.000000 
#    z 0.000000 0.000000 1.728310 
# 
# From -- ./inp_files/17376.got.cif
#   From: 2010.05.17/outbox.cif.g08.bks.cpg/sg60_9_cif.got.tgz:17376.got - 2010.06.03 14:59:27.
