data_PCOD9454082
_publ_section_title
;
Structure prediction by ZEFSAII (Michael W. Deem and Ramdas Pophale) SiO2 
 PCOD9454082
Probable space group: P B C N
;
_chemical_formula_sum "Si O2"
_cell_formula_units_Z 40
_cell_length_a 7.174745
_cell_length_b 9.475354
_cell_length_c 22.205327
_cell_angle_alpha 90.000000
_cell_angle_beta 90.000000
_cell_angle_gamma 90.000000
_cell_volume 1509.590269
_symmetry_space_group_name_H-M "P B C N"
_symmetry_group_IT_number 60
_symmetry_cell_setting 'orthorhombic'
loop_
_space_group_symop_operation_xyz
x,y,z
1/2-x,1/2-y,1/2+z
1/2+x,1/2-y,-z
-x,y,1/2-z
-x,-y,-z
1/2+x,1/2+y,1/2-z
1/2-x,1/2+y,z
x,-y,1/2+z
loop_
_atom_site_type_symbol
_atom_site_label
_atom_site_fract_x
_atom_site_fract_y
_atom_site_fract_z
Si Si1 0.783942 0.411756 0.448766
Si Si2 0.182151 0.149894 0.844200
Si Si3 0.244577 0.399468 0.765634
Si Si4 0.625266 0.151205 0.820447
Si Si5 0.713047 0.841665 0.025467
O O1 0.751720 0.364426 0.380532
O O2 0.726808 0.568692 0.467064
O O3 0.701393 0.315905 0.501531
O O4 0.008308 0.395815 0.456615
O O5 0.124675 0.294975 0.810242
O O6 0.408177 0.157374 0.837083
O O7 0.156261 0.147263 0.915966
O O8 0.134792 0.003495 0.810007
O O9 0.327791 0.285916 0.719446
O O10 0.161987 0.515379 0.720379
#
# Coordination Sequence:
#
# PCOD9454082 Si02
#       5
#     8   8   8   8   8
#     4  10  21  38  59  84 115 151 191 235 285 338
#     4  10  21  37  55  80 114 145 182 235 282 330
#     4  10  18  34  56  76 106 146 182 218 278 336
#     4  10  21  37  55  80 114 145 182 235 282 330
#     4  10  21  38  59  84 115 151 191 235 285 338
#
# _framework density 26.497257999999999
#
# number of rings (size 3 to 8) (size 9 to 14) (size 15 to 20)
#    0.000    2.000    0.000    4.800    0.000    0.800 
#    0.000   22.000    0.000    0.000    0.000    0.000 
#    0.000    0.000    0.000    0.000    0.000    0.000 
#
# Total GULP energy -223732.054938 kJ/mol
# GULP energy per Si atom -5593.301373 kJ/mol
# Density = 2.643695 g / cm^3
# Si number density = 26.497258 Si / 1000 Ang^3
#
#
#
# Elastic Constant Matrix: (Units=GPa)
#
#
# Indices 1 2 3 4 5 6 
#
# 1 66.1665 13.2821 21.9920 0.0000 0.0000 0.0000
# 2 13.2821 169.1317 41.4804 0.0000 0.0000 0.0000
# 3 21.9920 41.4804 183.7142 0.0000 0.0000 0.0000
# 4 0.0000 0.0000 0.0000 37.4330 0.0000 0.0000
# 5 0.0000 0.0000 0.0000 0.0000 -126.0252 0.0000
# 6 0.0000 0.0000 0.0000 0.0000 0.0000 33.1429
#
#
#
# Elastic Compliance Matrix: (Units=1/GPa)
#
#
# Indices 1 2 3 4 5 6 
#
# 1 0.015848 -0.000825 -0.001711 0.000000 0.000000 0.000000
# 2 -0.000825 0.006302 -0.001324 0.000000 0.000000 0.000000
# 3 -0.001711 -0.001324 0.005947 0.000000 0.000000 0.000000
# 4 0.000000 0.000000 0.000000 0.026714 0.000000 0.000000
# 5 0.000000 0.000000 0.000000 0.000000 -0.007935 0.000000
# 6 0.000000 0.000000 0.000000 0.000000 0.000000 0.030172
#
#
# Mechanical properties :
#
#
# Convention : Reuss Voigt Hill
#
# Bulk Modulus (GPa) = 49.07531 63.61349 56.34440
# Shear Modulus (GPa) = 54.60857 11.72735 33.16796
#
# Velocity S-wave (km/s) = 4.54465 2.10606 3.54185
# Velocity P-wave (km/s) = 6.78967 5.47482 6.16739
#
# Compressibility (1/GPa) = 0.02037684
#
# Stress axis : x y z
#
# Youngs Moduli (GPa) = 63.10091 158.67730 168.15148
#
# Poissons Ratio (x) = 0.13090 0.28768
# Poissons Ratio (y) = 0.05205 0.22266
# Poissons Ratio (z) = 0.10795 0.21012
#
# Static dielectric constant tensor:
#      x y z
#    x 2.318010 0.000000 0.000000 
#    y 0.000000 1.081870 0.000000 
#    z 0.000000 0.000000 2.060710 
# 
# From -- ./inp_files/22532.got.cif
#   From: 2010.05.17/outbox.cif.g08.bks.cpg/sg60_12_cif.got.tgz:22532.got - 2010.06.03 14:59:27.
