data_PCOD9454918
_publ_section_title
;
Structure prediction by ZEFSAII (Michael W. Deem and Ramdas Pophale) SiO2 
 PCOD9454918
Probable space group: P B C N
;
_chemical_formula_sum "Si O2"
_cell_formula_units_Z 48
_cell_length_a 17.613192
_cell_length_b 12.201888
_cell_length_c 8.516905
_cell_angle_alpha 90.000000
_cell_angle_beta 90.000000
_cell_angle_gamma 90.000000
_cell_volume 1830.403791
_symmetry_space_group_name_H-M "P B C N"
_symmetry_group_IT_number 60
_symmetry_cell_setting 'orthorhombic'
loop_
_space_group_symop_operation_xyz
x,y,z
1/2-x,1/2-y,1/2+z
1/2+x,1/2-y,-z
-x,y,1/2-z
-x,-y,-z
1/2+x,1/2+y,1/2-z
1/2-x,1/2+y,z
x,-y,1/2+z
loop_
_atom_site_type_symbol
_atom_site_label
_atom_site_fract_x
_atom_site_fract_y
_atom_site_fract_z
Si Si1 0.779356 0.284966 0.654092
Si Si2 0.766811 0.408367 0.332322
Si Si3 0.391718 0.461398 0.024091
Si Si4 0.926768 0.283574 0.855535
Si Si5 0.116733 0.147649 0.210266
Si Si6 0.078603 0.610692 0.802720
O O1 0.785043 0.324386 0.476279
O O2 0.765052 0.156052 0.680191
O O3 0.853470 0.309121 0.751512
O O4 0.704450 0.336495 0.733692
O O5 0.696227 0.469504 0.412357
O O6 0.846822 0.450440 0.264560
O O7 0.419409 0.346152 0.099289
O O8 0.414206 0.586235 0.058259
O O9 0.407988 0.438110 0.843827
O O10 0.000000 0.300775 0.750000
O O11 0.921958 0.357316 0.013594
O O12 0.083000 0.268539 0.222746
O O13 0.000000 0.557585 0.750000
#
# Coordination Sequence:
#
# PCOD9454918 Si02
#       6
#     8   8   8   8   8   8
#     4   9  17  31  49  70  94 124 162 200 235 280
#     4   9  17  31  49  70  94 124 162 200 235 280
#     4   9  19  32  48  71  98 127 160 194 236 284
#     4  10  20  33  49  72  98 128 162 198 240 286
#     4   9  19  32  48  71  98 127 160 194 236 284
#     4  10  20  33  49  72  98 128 162 198 240 286
#
# _framework density 26.223721000000001
#
# number of rings (size 3 to 8) (size 9 to 14) (size 15 to 20)
#    0.000    2.667    0.000    4.000    0.000    8.667 
#    0.000    3.333    0.000    1.000    0.000    7.000 
#    0.000    0.000    0.000    0.000    0.000    0.000 
#
# Total GULP energy -268138.403010 kJ/mol
# GULP energy per Si atom -5586.216729 kJ/mol
# Density = 2.616403 g / cm^3
# Si number density = 26.223721 Si / 1000 Ang^3
#
#
#
# Elastic Constant Matrix: (Units=GPa)
#
#
# Indices 1 2 3 4 5 6 
#
# 1 174.8927 -2.4408 20.6294 0.0000 0.0000 0.0000
# 2 -2.4408 63.3237 26.0201 0.0000 0.0000 0.0000
# 3 20.6294 26.0201 71.7098 0.0000 0.0000 0.0000
# 4 0.0000 0.0000 0.0000 10.1633 0.0000 0.0000
# 5 0.0000 0.0000 0.0000 0.0000 35.0048 0.0000
# 6 0.0000 0.0000 0.0000 0.0000 0.0000 28.4225
#
#
#
# Elastic Compliance Matrix: (Units=1/GPa)
#
#
# Indices 1 2 3 4 5 6 
#
# 1 0.005983 0.001102 -0.002121 0.000000 0.000000 0.000000
# 2 0.001102 0.018762 -0.007125 0.000000 0.000000 0.000000
# 3 -0.002121 -0.007125 0.017141 0.000000 0.000000 0.000000
# 4 0.000000 0.000000 0.000000 0.098393 0.000000 0.000000
# 5 0.000000 0.000000 0.000000 0.000000 0.028568 0.000000
# 6 0.000000 0.000000 0.000000 0.000000 0.000000 0.035183
#
#
# Mechanical properties :
#
#
# Convention : Reuss Voigt Hill
#
# Bulk Modulus (GPa) = 39.06527 44.26039 41.66283
# Shear Modulus (GPa) = 21.84832 32.43262 27.14047
#
# Velocity S-wave (km/s) = 2.88957 3.52058 3.22057
# Velocity P-wave (km/s) = 5.10510 5.78279 5.45448
#
# Compressibility (1/GPa) = 0.02559819
#
# Stress axis : x y z
#
# Youngs Moduli (GPa) = 167.12943 53.29908 58.34081
#
# Poissons Ratio (x) = -0.05875 0.12376
# Poissons Ratio (y) = -0.18422 0.41568
# Poissons Ratio (z) = 0.35452 0.37975
#
# Static dielectric constant tensor:
#      x y z
#    x 2.301800 0.000000 0.000000 
#    y 0.000000 2.146440 0.000000 
#    z 0.000000 0.000000 1.928120 
# 
# From -- ./inp_files/6704.got.cif
#   From: 2010.05.17/outbox.cif.g08.bks.cpg/sg60_4_cif.got.tgz:6704.got - 2010.06.03 14:59:27.
