data_PCOD9454249
_publ_section_title
;
Structure prediction by ZEFSAII (Michael W. Deem and Ramdas Pophale) SiO2 
 PCOD9454249
Probable space group: P B C N
;
_chemical_formula_sum "Si O2"
_cell_formula_units_Z 28
_cell_length_a 21.164743
_cell_length_b 4.850865
_cell_length_c 12.276035
_cell_angle_alpha 90.000000
_cell_angle_beta 90.000000
_cell_angle_gamma 90.000000
_cell_volume 1260.347504
_symmetry_space_group_name_H-M "P B C N"
_symmetry_group_IT_number 60
_symmetry_cell_setting 'orthorhombic'
loop_
_space_group_symop_operation_xyz
x,y,z
1/2-x,1/2-y,1/2+z
1/2+x,1/2-y,-z
-x,y,1/2-z
-x,-y,-z
1/2+x,1/2+y,1/2-z
1/2-x,1/2+y,z
x,-y,1/2+z
loop_
_atom_site_type_symbol
_atom_site_label
_atom_site_fract_x
_atom_site_fract_y
_atom_site_fract_z
Si Si1 0.417274 0.525123 0.079888
Si Si2 0.500000 0.802912 0.750000
Si Si3 0.584871 0.010549 0.066753
Si Si4 0.297210 0.721432 0.012796
O O1 0.456625 0.391858 0.175271
O O2 0.349575 0.333697 0.608352
O O3 0.450835 0.776012 0.015970
O O4 0.404412 0.278791 0.992938
O O5 0.453310 0.987016 0.822464
O O6 0.652422 0.170027 0.077818
O O7 0.257168 0.445951 0.012144
#
# Coordination Sequence:
#
# PCOD9454249 Si02
#       4
#     8   4   8   8
#     4  10  23  40  64  94 124 167 201 264 308 366
#     4  12  24  42  64  96 128 162 216 248 324 372
#     4  10  23  40  64  94 124 167 201 264 308 366
#     4  10  18  41  68  83 124 164 208 254 312 360
#
# _framework density 22.216094999999999
#
# number of rings (size 3 to 8) (size 9 to 14) (size 15 to 20)
#    1.714    0.000    2.857    1.714    0.000    4.571 
#    0.000    2.857    0.000    0.000    0.000    0.000 
#    0.000    0.000    0.000    0.000    0.000    0.000 
#
# Total GULP energy -155884.001218 kJ/mol
# GULP energy per Si atom -5567.285758 kJ/mol
# Density = 2.216553 g / cm^3
# Si number density = 22.216095 Si / 1000 Ang^3
#
#
#
# Elastic Constant Matrix: (Units=GPa)
#
#
# Indices 1 2 3 4 5 6 
#
# 1 143.8891 2.8166 44.4782 0.0000 0.0000 0.0000
# 2 2.8166 112.8072 19.7605 0.0000 0.0000 0.0000
# 3 44.4782 19.7605 55.7261 0.0000 0.0000 0.0000
# 4 0.0000 0.0000 0.0000 25.5101 0.0000 0.0000
# 5 0.0000 0.0000 0.0000 0.0000 26.5762 0.0000
# 6 0.0000 0.0000 0.0000 0.0000 0.0000 44.1262
#
#
#
# Elastic Compliance Matrix: (Units=1/GPa)
#
#
# Indices 1 2 3 4 5 6 
#
# 1 0.009363 0.001147 -0.007880 0.000000 0.000000 0.000000
# 2 0.001147 0.009592 -0.004316 0.000000 0.000000 0.000000
# 3 -0.007880 -0.004316 0.025765 0.000000 0.000000 0.000000
# 4 0.000000 0.000000 0.000000 0.039200 0.000000 0.000000
# 5 0.000000 0.000000 0.000000 0.000000 0.037628 0.000000
# 6 0.000000 0.000000 0.000000 0.000000 0.000000 0.022662
#
#
# Mechanical properties :
#
#
# Convention : Reuss Voigt Hill
#
# Bulk Modulus (GPa) = 44.20743 49.61475 46.91109
# Shear Modulus (GPa) = 28.76043 35.60031 32.18037
#
# Velocity S-wave (km/s) = 3.60193 4.00741 3.81007
# Velocity P-wave (km/s) = 6.10250 6.61768 6.36531
#
# Compressibility (1/GPa) = 0.02262063
#
# Stress axis : x y z
#
# Youngs Moduli (GPa) = 106.80197 104.25160 38.81251
#
# Poissons Ratio (x) = -0.11953 0.30584
# Poissons Ratio (y) = -0.12245 0.16753
# Poissons Ratio (z) = 0.84158 0.45000
#
# Static dielectric constant tensor:
#      x y z
#    x 1.963730 0.000000 0.000000 
#    y 0.000000 1.859100 0.000000 
#    z 0.000000 0.000000 1.887620 
# 
# From -- ./inp_files/12948.got.cif
#   From: 2010.05.17/outbox.cif.g08.bks.cpg/sg60_7_cif.got.tgz:12948.got - 2010.06.03 14:59:27.
