data_PCOD9454887
_publ_section_title
;
Structure prediction by ZEFSAII (Michael W. Deem and Ramdas Pophale) SiO2 
 PCOD9454887
Probable space group: P B C N
;
_chemical_formula_sum "Si O2"
_cell_formula_units_Z 64
_cell_length_a 14.957286
_cell_length_b 25.920700
_cell_length_c 8.526119
_cell_angle_alpha 90.000000
_cell_angle_beta 90.000000
_cell_angle_gamma 90.000000
_cell_volume 3305.604670
_symmetry_space_group_name_H-M "P B C N"
_symmetry_group_IT_number 60
_symmetry_cell_setting 'orthorhombic'
loop_
_space_group_symop_operation_xyz
x,y,z
1/2-x,1/2-y,1/2+z
1/2+x,1/2-y,-z
-x,y,1/2-z
-x,-y,-z
1/2+x,1/2+y,1/2-z
1/2-x,1/2+y,z
x,-y,1/2+z
loop_
_atom_site_type_symbol
_atom_site_label
_atom_site_fract_x
_atom_site_fract_y
_atom_site_fract_z
Si Si1 0.598757 0.214628 0.692397
Si Si2 0.405151 0.656834 0.680129
Si Si3 0.597006 0.776838 0.814740
Si Si4 0.571532 0.046353 0.872570
Si Si5 0.286173 0.875657 0.157448
Si Si6 0.066710 0.567442 0.103832
Si Si7 0.213727 0.632588 0.280373
Si Si8 0.097213 0.164806 0.303987
O O1 0.500000 0.199433 0.750000
O O2 0.602389 0.214319 0.502458
O O3 0.668157 0.176167 0.775015
O O4 0.610579 0.274776 0.738924
O O5 0.500000 0.638913 0.750000
O O6 0.393217 0.716736 0.729058
O O7 0.315749 0.624854 0.716364
O O8 0.405904 0.660004 0.491750
O O9 0.500000 0.793784 0.750000
O O10 0.673547 0.810258 0.735542
O O11 0.500000 0.027894 0.750000
O O12 0.652872 0.076140 0.795130
O O13 0.597385 0.990872 0.945916
O O14 0.506426 0.083895 0.972977
O O15 0.291206 0.879900 0.966528
O O16 0.152981 0.598727 0.162902
O O17 0.000000 0.570975 0.250000
O O18 0.318305 0.633708 0.239315
O O19 0.000000 0.147855 0.250000
#
# Coordination Sequence:
#
# PCOD9454887 Si02
#       8
#     8   8   8   8   8   8   8   8
#     4  10  20  32  49  76 110 142 176 221 265 311
#     4   9  20  37  53  73 106 145 183 222 268 309
#     4  10  20  32  50  77 108 143 180 218 261 320
#     4  10  22  36  55  80 112 137 170 214 274 330
#     4  11  21  34  54  79 107 141 179 223 267 322
#     4  10  20  38  56  79 109 141 168 215 272 334
#     4  11  21  33  55  78 104 142 182 217 269 325
#     4   9  20  37  52  73 106 143 182 227 264 306
#
# _framework density 19.361056000000001
#
# number of rings (size 3 to 8) (size 9 to 14) (size 15 to 20)
#    0.000    2.000    1.250    2.250    3.500    2.000 
#    0.000    0.000    0.000    0.750    0.000    3.500 
#    0.000    0.000    0.000    0.000    0.000    0.000 
#
# Total GULP energy -356431.388866 kJ/mol
# GULP energy per Si atom -5569.240451 kJ/mol
# Density = 1.931699 g / cm^3
# Si number density = 19.361056 Si / 1000 Ang^3
#
#
#
# Elastic Constant Matrix: (Units=GPa)
#
#
# Indices 1 2 3 4 5 6 
#
# 1 176.1792 56.7092 3.3296 0.0000 0.0000 0.0000
# 2 56.7092 51.6376 9.3478 0.0000 0.0000 0.0000
# 3 3.3296 9.3478 4.4321 0.0000 0.0000 0.0000
# 4 0.0000 0.0000 0.0000 17.5079 0.0000 0.0000
# 5 0.0000 0.0000 0.0000 0.0000 27.6597 0.0000
# 6 0.0000 0.0000 0.0000 0.0000 0.0000 36.9986
#
#
#
# Elastic Compliance Matrix: (Units=1/GPa)
#
#
# Indices 1 2 3 4 5 6 
#
# 1 0.010380 -0.016157 0.026278 0.000000 0.000000 0.000000
# 2 -0.016157 0.056475 -0.106975 0.000000 0.000000 0.000000
# 3 0.026278 -0.106975 0.431511 0.000000 0.000000 0.000000
# 4 0.000000 0.000000 0.000000 0.057117 0.000000 0.000000
# 5 0.000000 0.000000 0.000000 0.000000 0.036154 0.000000
# 6 0.000000 0.000000 0.000000 0.000000 0.000000 0.027028
#
#
# Mechanical properties :
#
#
# Convention : Reuss Voigt Hill
#
# Bulk Modulus (GPa) = 3.28236 41.22467 22.25351
# Shear Modulus (GPa) = 5.47092 27.29071 16.38081
#
# Velocity S-wave (km/s) = 1.68282 3.75849 2.91188
# Velocity P-wave (km/s) = 2.33984 6.33828 4.77748
#
# Compressibility (1/GPa) = 0.30465926
#
# Stress axis : x y z
#
# Youngs Moduli (GPa) = 96.33968 17.70710 2.31744
#
# Poissons Ratio (x) = 0.28609 -0.06090
# Poissons Ratio (y) = 1.55652 0.24791
# Poissons Ratio (z) = -2.53166 1.89421
#
# Static dielectric constant tensor:
#      x y z
#    x 1.743490 0.000000 0.000000 
#    y 0.000000 1.700110 0.000000 
#    z 0.000000 0.000000 2.165050 
# 
# From -- ./inp_files/6337.got.cif
#   From: 2010.05.17/outbox.cif.g08.bks.cpg/sg60_4_cif.got.tgz:6337.got - 2010.06.03 14:59:27.
