data_PCOD9454442
_publ_section_title
;
Structure prediction by ZEFSAII (Michael W. Deem and Ramdas Pophale) SiO2 
 PCOD9454442
Probable space group: P B C N
;
_chemical_formula_sum "Si O2"
_cell_formula_units_Z 48
_cell_length_a 8.281469
_cell_length_b 29.681424
_cell_length_c 9.175771
_cell_angle_alpha 90.000000
_cell_angle_beta 90.000000
_cell_angle_gamma 90.000000
_cell_volume 2255.457665
_symmetry_space_group_name_H-M "P B C N"
_symmetry_group_IT_number 60
_symmetry_cell_setting 'orthorhombic'
loop_
_space_group_symop_operation_xyz
x,y,z
1/2-x,1/2-y,1/2+z
1/2+x,1/2-y,-z
-x,y,1/2-z
-x,-y,-z
1/2+x,1/2+y,1/2-z
1/2-x,1/2+y,z
x,-y,1/2+z
loop_
_atom_site_type_symbol
_atom_site_label
_atom_site_fract_x
_atom_site_fract_y
_atom_site_fract_z
Si Si1 0.116923 0.981809 0.625766
Si Si2 0.592253 0.756142 0.404570
Si Si3 0.287916 0.074863 0.655919
Si Si4 0.890962 0.417149 0.006858
Si Si5 0.678362 0.670734 0.806555
Si Si6 0.826123 0.682702 0.493532
O O1 0.262309 0.949687 0.571562
O O2 0.000000 0.961491 0.750000
O O3 0.195474 0.028470 0.676694
O O4 0.000000 0.000000 0.500000
O O5 0.500000 0.753254 0.250000
O O6 0.743579 0.790700 0.403922
O O7 0.665859 0.707259 0.436624
O O8 0.470713 0.781286 0.514794
O O9 0.420410 0.069414 0.526231
O O10 0.349481 0.083226 0.820697
O O11 0.188889 0.120794 0.625132
O O12 0.872415 0.367049 0.939580
O O13 0.500000 0.679633 0.750000
O O14 0.791641 0.673920 0.664095
#
# Coordination Sequence:
#
# PCOD9454442 Si02
#       6
#     8   8   8   8   8   8
#     4  12  24  41  63  96 128 162 213 266 326 390
#     4  10  20  36  58  87 124 160 207 257 316 381
#     4  10  20  39  63  90 121 164 216 263 317 389
#     4  10  21  39  64  88 127 167 212 265 321 387
#     4  10  19  33  60  89 114 155 213 259 308 375
#     4  10  20  36  57  88 121 162 203 256 312 373
#
# _framework density 21.281714000000001
#
# number of rings (size 3 to 8) (size 9 to 14) (size 15 to 20)
#    0.000    1.667    3.333    2.000    2.333    0.667 
#    0.000    0.000    0.000    4.000    0.000    0.000 
#    0.000    0.000    0.000    0.000    0.000    0.000 
#
# Total GULP energy -267275.697746 kJ/mol
# GULP energy per Si atom -5568.243703 kJ/mol
# Density = 2.123328 g / cm^3
# Si number density = 21.281714 Si / 1000 Ang^3
#
#
#
# Elastic Constant Matrix: (Units=GPa)
#
#
# Indices 1 2 3 4 5 6 
#
# 1 105.9259 47.3489 21.7350 0.0000 0.0000 0.0000
# 2 47.3489 107.1674 18.8895 0.0000 0.0000 0.0000
# 3 21.7350 18.8895 30.3969 0.0000 0.0000 0.0000
# 4 0.0000 0.0000 0.0000 25.9260 0.0000 0.0000
# 5 0.0000 0.0000 0.0000 0.0000 33.3090 0.0000
# 6 0.0000 0.0000 0.0000 0.0000 0.0000 25.6837
#
#
#
# Elastic Compliance Matrix: (Units=1/GPa)
#
#
# Indices 1 2 3 4 5 6 
#
# 1 0.012758 -0.004524 -0.006311 0.000000 0.000000 0.000000
# 2 -0.004524 0.012083 -0.004274 0.000000 0.000000 0.000000
# 3 -0.006311 -0.004274 0.040066 0.000000 0.000000 0.000000
# 4 0.000000 0.000000 0.000000 0.038571 0.000000 0.000000
# 5 0.000000 0.000000 0.000000 0.000000 0.030022 0.000000
# 6 0.000000 0.000000 0.000000 0.000000 0.000000 0.038935
#
#
# Mechanical properties :
#
#
# Convention : Reuss Voigt Hill
#
# Bulk Modulus (GPa) = 28.82706 46.60412 37.71559
# Shear Modulus (GPa) = 23.34074 27.35152 25.34613
#
# Velocity S-wave (km/s) = 3.31532 3.58888 3.45480
# Velocity P-wave (km/s) = 5.31319 6.25456 5.80300
#
# Compressibility (1/GPa) = 0.03468962
#
# Stress axis : x y z
#
# Youngs Moduli (GPa) = 78.38301 82.75763 24.95852
#
# Poissons Ratio (x) = 0.37442 0.15751
# Poissons Ratio (y) = 0.35463 0.10667
# Poissons Ratio (z) = 0.49466 0.35370
#
# Static dielectric constant tensor:
#      x y z
#    x 1.796420 0.000000 0.000000 
#    y 0.000000 1.830310 0.000000 
#    z 0.000000 0.000000 1.781250 
# 
# From -- ./inp_files/4179.got.cif
#   From: 2010.05.17/outbox.cif.g08.bks.cpg/sg60_3_cif.got.tgz:4179.got - 2010.06.03 14:59:27.
