data_PCOD9454429
_publ_section_title
;
Structure prediction by ZEFSAII (Michael W. Deem and Ramdas Pophale) SiO2 
 PCOD9454429
Probable space group: P B C N
;
_chemical_formula_sum "Si O2"
_cell_formula_units_Z 40
_cell_length_a 4.894418
_cell_length_b 22.968834
_cell_length_c 17.655904
_cell_angle_alpha 90.000000
_cell_angle_beta 90.000000
_cell_angle_gamma 90.000000
_cell_volume 1984.860388
_symmetry_space_group_name_H-M "P B C N"
_symmetry_group_IT_number 60
_symmetry_cell_setting 'orthorhombic'
loop_
_space_group_symop_operation_xyz
x,y,z
1/2-x,1/2-y,1/2+z
1/2+x,1/2-y,-z
-x,y,1/2-z
-x,-y,-z
1/2+x,1/2+y,1/2-z
1/2-x,1/2+y,z
x,-y,1/2+z
loop_
_atom_site_type_symbol
_atom_site_label
_atom_site_fract_x
_atom_site_fract_y
_atom_site_fract_z
Si Si1 0.246755 0.062025 0.562129
Si Si2 0.397187 0.689556 0.069229
Si Si3 0.903797 0.766041 0.100663
Si Si4 0.260471 0.930679 0.540645
Si Si5 0.228645 0.143837 0.701583
O O1 0.442393 0.082977 0.493609
O O2 0.311188 0.103766 0.631455
O O3 0.936428 0.063245 0.532674
O O4 0.293725 0.993703 0.578484
O O5 0.606697 0.736070 0.106271
O O6 0.383425 0.621151 0.086899
O O7 0.099194 0.711698 0.089142
O O8 0.424711 0.697521 0.977903
O O9 0.041217 0.804156 0.166470
O O10 0.500000 0.159068 0.750000
O O11 0.000000 0.109979 0.750000
#
# Coordination Sequence:
#
# PCOD9454429 Si02
#       5
#     8   8   8   8   8
#     4  10  21  35  56  88 118 149 197 233 313 353
#     4  10  19  33  58  82 118 143 186 262 298 344
#     4  10  21  33  53  86 113 151 198 235 301 350
#     4  10  19  35  60  86 119 145 182 266 300 353
#     4  12  24  38  58  81 126 165 197 241 283 374
#
# _framework density 20.152550999999999
#
# number of rings (size 3 to 8) (size 9 to 14) (size 15 to 20)
#    0.000    1.600    2.000    3.600    5.600    0.000 
#    0.000    0.000    0.000    4.800    0.000    0.000 
#    0.000    0.000    0.000    0.000    0.000    0.000 
#
# Total GULP energy -222817.692825 kJ/mol
# GULP energy per Si atom -5570.442321 kJ/mol
# Density = 2.010668 g / cm^3
# Si number density = 20.152551 Si / 1000 Ang^3
#
#
#
# Elastic Constant Matrix: (Units=GPa)
#
#
# Indices 1 2 3 4 5 6 
#
# 1 82.4679 5.3756 -7.0034 0.0000 0.0000 0.0000
# 2 5.3756 112.0887 19.3149 0.0000 0.0000 0.0000
# 3 -7.0034 19.3149 25.7057 0.0000 0.0000 0.0000
# 4 0.0000 0.0000 0.0000 8.0459 0.0000 0.0000
# 5 0.0000 0.0000 0.0000 0.0000 26.9965 0.0000
# 6 0.0000 0.0000 0.0000 0.0000 0.0000 11.6695
#
#
#
# Elastic Compliance Matrix: (Units=1/GPa)
#
#
# Indices 1 2 3 4 5 6 
#
# 1 0.012594 -0.001373 0.004463 0.000000 0.000000 0.000000
# 2 -0.001373 0.010398 -0.008187 0.000000 0.000000 0.000000
# 3 0.004463 -0.008187 0.046270 0.000000 0.000000 0.000000
# 4 0.000000 0.000000 0.000000 0.124286 0.000000 0.000000
# 5 0.000000 0.000000 0.000000 0.000000 0.037042 0.000000
# 6 0.000000 0.000000 0.000000 0.000000 0.000000 0.085694
#
#
# Mechanical properties :
#
#
# Convention : Reuss Voigt Hill
#
# Bulk Modulus (GPa) = 16.92969 28.40406 22.66687
# Shear Modulus (GPa) = 14.44386 22.84740 18.64563
#
# Velocity S-wave (km/s) = 2.68008 3.37073 3.04505
# Velocity P-wave (km/s) = 4.24218 5.41057 4.86160
#
# Compressibility (1/GPa) = 0.05906784
#
# Stress axis : x y z
#
# Youngs Moduli (GPa) = 79.40003 96.17097 21.61247
#
# Poissons Ratio (x) = 0.13205 -0.09646
# Poissons Ratio (y) = 0.10902 0.17694
# Poissons Ratio (z) = -0.35437 0.78736
#
# Static dielectric constant tensor:
#      x y z
#    x 1.713100 0.000000 0.000000 
#    y 0.000000 1.781160 0.000000 
#    z 0.000000 0.000000 1.821660 
# 
# From -- ./inp_files/18617.got.cif
#   From: 2010.05.17/outbox.cif.g08.bks.cpg/sg60_10_cif.got.tgz:18617.got - 2010.06.03 14:59:27.
