data_PCOD9454461
_publ_section_title
;
Structure prediction by ZEFSAII (Michael W. Deem and Ramdas Pophale) SiO2 
 PCOD9454461
Probable space group: P B C N
;
_chemical_formula_sum "Si O2"
_cell_formula_units_Z 52
_cell_length_a 15.507847
_cell_length_b 13.151297
_cell_length_c 9.523545
_cell_angle_alpha 90.000000
_cell_angle_beta 90.000000
_cell_angle_gamma 90.000000
_cell_volume 1942.310829
_symmetry_space_group_name_H-M "P B C N"
_symmetry_group_IT_number 60
_symmetry_cell_setting 'orthorhombic'
loop_
_space_group_symop_operation_xyz
x,y,z
1/2-x,1/2-y,1/2+z
1/2+x,1/2-y,-z
-x,y,1/2-z
-x,-y,-z
1/2+x,1/2+y,1/2-z
1/2-x,1/2+y,z
x,-y,1/2+z
loop_
_atom_site_type_symbol
_atom_site_label
_atom_site_fract_x
_atom_site_fract_y
_atom_site_fract_z
Si Si1 0.299792 0.573821 0.055315
Si Si2 0.604600 0.933627 0.981307
Si Si3 0.366425 0.116990 0.711746
Si Si4 0.787987 0.874739 0.635546
Si Si5 0.324068 0.697975 0.792265
Si Si6 0.930471 0.783526 0.469507
Si Si7 0.500000 0.704239 0.250000
O O1 0.199449 0.601496 0.066093
O O2 0.294331 0.466562 0.974228
O O3 0.342922 0.646517 0.941381
O O4 0.328420 0.583941 0.217113
O O5 0.610946 0.944792 0.147617
O O6 0.544766 0.835287 0.953337
O O7 0.599140 0.042260 0.908402
O O8 0.264679 0.147800 0.725642
O O9 0.421497 0.218992 0.715023
O O10 0.699995 0.814913 0.671008
O O11 0.839615 0.787727 0.553303
O O12 0.402785 0.680668 0.684808
O O13 0.982593 0.842719 0.594093
#
# Coordination Sequence:
#
# PCOD9454461 Si02
#       7
#     8   8   8   8   8   8   4
#     4  11  22  33  64  93 128 160 212 278 327 370
#     4  10  19  34  54  90 119 169 200 257 302 386
#     4  10  21  37  59  87 127 165 215 247 324 374
#     4  12  20  38  57  92 125 164 208 268 321 373
#     4  11  21  39  60  97 121 169 216 274 311 388
#     4  11  22  38  62  88 128 169 213 262 322 381
#     4  10  22  42  60  92 132 188 200 262 336 390
#
# _framework density 26.772234999999998
#
# number of rings (size 3 to 8) (size 9 to 14) (size 15 to 20)
#    0.000    1.231    6.154    3.692    0.000    2.462 
#    0.000    0.000    0.000    8.308    0.000    0.000 
#    0.000    0.000    0.000    0.000    0.000    0.000 
#
# Total GULP energy -289989.626279 kJ/mol
# GULP energy per Si atom -5576.723582 kJ/mol
# Density = 2.671130 g / cm^3
# Si number density = 26.772235 Si / 1000 Ang^3
#
#
#
# Elastic Constant Matrix: (Units=GPa)
#
#
# Indices 1 2 3 4 5 6 
#
# 1 49.4108 -7.6065 21.0468 0.0000 0.0000 0.0000
# 2 -7.6065 122.5310 64.5312 0.0000 0.0000 0.0000
# 3 21.0468 64.5312 147.5149 0.0000 0.0000 0.0000
# 4 0.0000 0.0000 0.0000 48.5617 0.0000 0.0000
# 5 0.0000 0.0000 0.0000 0.0000 34.2586 0.0000
# 6 0.0000 0.0000 0.0000 0.0000 0.0000 12.5697
#
#
#
# Elastic Compliance Matrix: (Units=1/GPa)
#
#
# Indices 1 2 3 4 5 6 
#
# 1 0.023036 0.004107 -0.005083 0.000000 0.000000 0.000000
# 2 0.004107 0.011337 -0.005545 0.000000 0.000000 0.000000
# 3 -0.005083 -0.005545 0.009930 0.000000 0.000000 0.000000
# 4 0.000000 0.000000 0.000000 0.020592 0.000000 0.000000
# 5 0.000000 0.000000 0.000000 0.000000 0.029190 0.000000
# 6 0.000000 0.000000 0.000000 0.000000 0.000000 0.079556
#
#
# Mechanical properties :
#
#
# Convention : Reuss Voigt Hill
#
# Bulk Modulus (GPa) = 31.98990 52.82218 42.40604
# Shear Modulus (GPa) = 25.36734 35.17702 30.27218
#
# Velocity S-wave (km/s) = 3.08153 3.62876 3.36628
# Velocity P-wave (km/s) = 4.96346 6.10985 5.56624
#
# Compressibility (1/GPa) = 0.03125986
#
# Stress axis : x y z
#
# Youngs Moduli (GPa) = 43.41011 88.20999 100.70434
#
# Poissons Ratio (x) = -0.36230 0.51192
# Poissons Ratio (y) = -0.17830 0.55843
# Poissons Ratio (z) = 0.22067 0.48915
#
# Static dielectric constant tensor:
#      x y z
#    x 2.270130 0.000000 0.000000 
#    y 0.000000 2.171260 0.000000 
#    z 0.000000 0.000000 2.140840 
# 
# From -- ./inp_files/7364.got.cif
#   From: 2010.05.17/outbox.cif.g08.bks.cpg/sg60_4_cif.got.tgz:7364.got - 2010.06.03 14:59:27.
