data_PCOD9454786
_publ_section_title
;
Structure prediction by ZEFSAII (Michael W. Deem and Ramdas Pophale) SiO2 
 PCOD9454786
Probable space group: P B C N
;
_chemical_formula_sum "Si O2"
_cell_formula_units_Z 24
_cell_length_a 13.626406
_cell_length_b 6.378597
_cell_length_c 10.376180
_cell_angle_alpha 90.000000
_cell_angle_beta 90.000000
_cell_angle_gamma 90.000000
_cell_volume 901.870094
_symmetry_space_group_name_H-M "P B C N"
_symmetry_group_IT_number 60
_symmetry_cell_setting 'orthorhombic'
loop_
_space_group_symop_operation_xyz
x,y,z
1/2-x,1/2-y,1/2+z
1/2+x,1/2-y,-z
-x,y,1/2-z
-x,-y,-z
1/2+x,1/2+y,1/2-z
1/2-x,1/2+y,z
x,-y,1/2+z
loop_
_atom_site_type_symbol
_atom_site_label
_atom_site_fract_x
_atom_site_fract_y
_atom_site_fract_z
Si Si1 0.683439 0.428554 0.694293
Si Si2 0.606832 0.015740 0.775347
Si Si3 0.400565 0.395191 0.547978
O O1 0.625481 0.209414 0.674771
O O2 0.792311 0.394262 0.751011
O O3 0.625710 0.511645 0.819366
O O4 0.676365 0.558748 0.564723
O O5 0.500000 0.921215 0.750000
O O6 0.397808 0.150519 0.591008
O O7 0.500000 0.500000 0.500000
#
# Coordination Sequence:
#
# PCOD9454786 Si02
#       3
#     8   8   8
#     4  10  22  36  63  84 119 155 197 247 293 356
#     4  10  22  38  59  87 120 153 197 241 301 350
#     4  10  19  39  62  86 116 157 199 239 301 347
#
# _framework density 26.611370999999998
#
# number of rings (size 3 to 8) (size 9 to 14) (size 15 to 20)
#    2.000    0.000    3.333    1.000    4.667    0.000 
#    0.000    6.667    0.000    0.000    0.000    0.000 
#    0.000    0.000    0.000    0.000    0.000    0.000 
#
# Total GULP energy -133876.468028 kJ/mol
# GULP energy per Si atom -5578.186168 kJ/mol
# Density = 2.655080 g / cm^3
# Si number density = 26.611371 Si / 1000 Ang^3
#
#
#
# Elastic Constant Matrix: (Units=GPa)
#
#
# Indices 1 2 3 4 5 6 
#
# 1 182.3848 19.6856 3.0238 0.0000 0.0000 0.0000
# 2 19.6856 40.7685 28.1854 0.0000 0.0000 0.0000
# 3 3.0238 28.1854 67.5951 0.0000 0.0000 0.0000
# 4 0.0000 0.0000 0.0000 24.0198 0.0000 0.0000
# 5 0.0000 0.0000 0.0000 0.0000 47.7308 0.0000
# 6 0.0000 0.0000 0.0000 0.0000 0.0000 36.1490
#
#
#
# Elastic Compliance Matrix: (Units=1/GPa)
#
#
# Indices 1 2 3 4 5 6 
#
# 1 0.005863 -0.003723 0.001290 0.000000 0.000000 0.000000
# 2 -0.003723 0.036828 -0.015190 0.000000 0.000000 0.000000
# 3 0.001290 -0.015190 0.021070 0.000000 0.000000 0.000000
# 4 0.000000 0.000000 0.000000 0.041632 0.000000 0.000000
# 5 0.000000 0.000000 0.000000 0.000000 0.020951 0.000000
# 6 0.000000 0.000000 0.000000 0.000000 0.000000 0.027663
#
#
# Mechanical properties :
#
#
# Convention : Reuss Voigt Hill
#
# Bulk Modulus (GPa) = 35.06824 43.61535 39.34180
# Shear Modulus (GPa) = 25.15615 37.57017 31.36316
#
# Velocity S-wave (km/s) = 3.07793 3.76148 3.43674
# Velocity P-wave (km/s) = 5.08312 5.94056 5.52849
#
# Compressibility (1/GPa) = 0.02851583
#
# Stress axis : x y z
#
# Youngs Moduli (GPa) = 170.55007 27.15326 47.46087
#
# Poissons Ratio (x) = 0.10110 -0.06123
# Poissons Ratio (y) = 0.63499 0.72092
# Poissons Ratio (z) = -0.22004 0.41245
#
# Static dielectric constant tensor:
#      x y z
#    x 2.106340 0.000000 0.000000 
#    y 0.000000 2.265960 0.000000 
#    z 0.000000 0.000000 2.048630 
# 
# From -- ./inp_files/10465.got.cif
#   From: 2010.05.17/outbox.cif.g08.bks.cpg/sg60_6_cif.got.tgz:10465.got - 2010.06.03 14:59:27.
