data_PCOD9454141
_publ_section_title
;
Structure prediction by ZEFSAII (Michael W. Deem and Ramdas Pophale) SiO2 
 PCOD9454141
Probable space group: P B C N
;
_chemical_formula_sum "Si O2"
_cell_formula_units_Z 48
_cell_length_a 9.197426
_cell_length_b 15.362134
_cell_length_c 15.986077
_cell_angle_alpha 90.000000
_cell_angle_beta 90.000000
_cell_angle_gamma 90.000000
_cell_volume 2258.706241
_symmetry_space_group_name_H-M "P B C N"
_symmetry_group_IT_number 60
_symmetry_cell_setting 'orthorhombic'
loop_
_space_group_symop_operation_xyz
x,y,z
1/2-x,1/2-y,1/2+z
1/2+x,1/2-y,-z
-x,y,1/2-z
-x,-y,-z
1/2+x,1/2+y,1/2-z
1/2-x,1/2+y,z
x,-y,1/2+z
loop_
_atom_site_type_symbol
_atom_site_label
_atom_site_fract_x
_atom_site_fract_y
_atom_site_fract_z
Si Si1 0.672618 0.447273 0.645243
Si Si2 0.246264 0.637421 0.852573
Si Si3 0.880698 0.703617 0.416152
Si Si4 0.500000 0.226136 0.750000
Si Si5 0.189914 0.701549 0.469448
Si Si6 0.647657 0.391535 0.832084
Si Si7 0.000000 0.787981 0.250000
O O1 0.740113 0.538665 0.619480
O O2 0.743366 0.370073 0.592085
O O3 0.699208 0.432930 0.744588
O O4 0.497199 0.440065 0.636402
O O5 0.286869 0.704767 0.925327
O O6 0.368993 0.652963 0.781991
O O7 0.097229 0.667939 0.810491
O O8 0.786800 0.785786 0.448506
O O9 0.773919 0.622954 0.398794
O O10 0.017515 0.687362 0.477077
O O11 0.949607 0.728285 0.326764
O O12 0.595711 0.294067 0.804587
#
# Coordination Sequence:
#
# PCOD9454141 Si02
#       7
#     8   8   8   4   8   8   4
#     4  10  21  38  63  92 128 161 214 259 319 382
#     4  11  21  38  62  94 127 168 208 267 322 378
#     4  11  22  38  68  87 128 166 215 258 324 382
#     4  10  18  35  65  84 126 162 218 257 317 368
#     4  11  23  39  60  89 124 165 205 264 327 387
#     4  10  18  39  62  89 118 172 215 262 311 376
#     4  10  20  39  61 100 116 166 224 259 311 394
#
# _framework density 21.251104000000002
#
# number of rings (size 3 to 8) (size 9 to 14) (size 15 to 20)
#    0.000    1.667    5.000    3.000    0.000    1.333 
#    0.000   10.000    0.000    0.000    0.000    0.000 
#    0.000    0.000    0.000    0.000    0.000    0.000 
#
# Total GULP energy -268156.587556 kJ/mol
# GULP energy per Si atom -5586.595574 kJ/mol
# Density = 2.120274 g / cm^3
# Si number density = 21.251104 Si / 1000 Ang^3
#
#
#
# Elastic Constant Matrix: (Units=GPa)
#
#
# Indices 1 2 3 4 5 6 
#
# 1 81.3168 14.0659 19.7447 0.0000 0.0000 0.0000
# 2 14.0659 119.4151 14.2434 0.0000 0.0000 0.0000
# 3 19.7447 14.2434 40.2667 0.0000 0.0000 0.0000
# 4 0.0000 0.0000 0.0000 1.9896 0.0000 0.0000
# 5 0.0000 0.0000 0.0000 0.0000 25.8417 0.0000
# 6 0.0000 0.0000 0.0000 0.0000 0.0000 10.4256
#
#
#
# Elastic Compliance Matrix: (Units=1/GPa)
#
#
# Indices 1 2 3 4 5 6 
#
# 1 0.014046 -0.000870 -0.006580 0.000000 0.000000 0.000000
# 2 -0.000870 0.008797 -0.002685 0.000000 0.000000 0.000000
# 3 -0.006580 -0.002685 0.029011 0.000000 0.000000 0.000000
# 4 0.000000 0.000000 0.000000 0.502610 0.000000 0.000000
# 5 0.000000 0.000000 0.000000 0.000000 0.038697 0.000000
# 6 0.000000 0.000000 0.000000 0.000000 0.000000 0.095918
#
#
# Mechanical properties :
#
#
# Convention : Reuss Voigt Hill
#
# Bulk Modulus (GPa) = 31.66158 37.45628 34.55893
# Shear Modulus (GPa) = 6.94565 20.51435 13.73000
#
# Velocity S-wave (km/s) = 1.80982 3.11035 2.54458
# Velocity P-wave (km/s) = 4.39300 5.52837 4.99306
#
# Compressibility (1/GPa) = 0.03158402
#
# Stress axis : x y z
#
# Youngs Moduli (GPa) = 71.19658 113.67673 34.47014
#
# Poissons Ratio (x) = 0.09886 0.22680
# Poissons Ratio (y) = 0.06191 0.09256
# Poissons Ratio (z) = 0.46845 0.30525
#
# Static dielectric constant tensor:
#      x y z
#    x 1.830070 0.000000 0.000000 
#    y 0.000000 1.741100 0.000000 
#    z 0.000000 0.000000 1.822160 
# 
# From -- ./inp_files/19351.got.cif
#   From: 2010.05.17/outbox.cif.g08.bks.cpg/sg60_10_cif.got.tgz:19351.got - 2010.06.03 14:59:27.
