data_PCOD9454571
_publ_section_title
;
Structure prediction by ZEFSAII (Michael W. Deem and Ramdas Pophale) SiO2 
 PCOD9454571
Probable space group: P B C N
;
_chemical_formula_sum "Si O2"
_cell_formula_units_Z 64
_cell_length_a 9.918117
_cell_length_b 14.576690
_cell_length_c 16.755747
_cell_angle_alpha 90.000000
_cell_angle_beta 90.000000
_cell_angle_gamma 90.000000
_cell_volume 2422.433921
_symmetry_space_group_name_H-M "P B C N"
_symmetry_group_IT_number 60
_symmetry_cell_setting 'orthorhombic'
loop_
_space_group_symop_operation_xyz
x,y,z
1/2-x,1/2-y,1/2+z
1/2+x,1/2-y,-z
-x,y,1/2-z
-x,-y,-z
1/2+x,1/2+y,1/2-z
1/2-x,1/2+y,z
x,-y,1/2+z
loop_
_atom_site_type_symbol
_atom_site_label
_atom_site_fract_x
_atom_site_fract_y
_atom_site_fract_z
Si Si1 0.182767 0.783325 0.188596
Si Si2 0.406889 0.519370 0.686306
Si Si3 0.283621 0.729838 0.408058
Si Si4 0.445272 0.749838 0.115777
Si Si5 0.251032 0.391109 0.538710
Si Si6 0.156947 0.031477 0.411957
Si Si7 0.339473 0.073899 0.252761
Si Si8 0.494706 0.194837 0.063319
O O1 0.123283 0.878246 0.219612
O O2 0.337317 0.801281 0.168182
O O3 0.169940 0.684470 0.232246
O O4 0.103456 0.768240 0.104845
O O5 0.500000 0.464888 0.750000
O O6 0.515004 0.515665 0.613954
O O7 0.258567 0.475301 0.686872
O O8 0.404573 0.752634 0.347382
O O9 0.264903 0.812976 0.468780
O O10 0.351464 0.636704 0.440367
O O11 0.131931 0.702819 0.388423
O O12 0.365948 0.654430 0.095039
O O13 0.463522 0.793426 0.028125
O O14 0.288945 0.478517 0.488342
O O15 0.097557 0.394616 0.570685
O O16 0.260839 0.039278 0.335070
O O17 0.500000 0.051741 0.250000
#
# Coordination Sequence:
#
# PCOD9454571 Si02
#       8
#     8   8   8   8   8   8   8   8
#     4  11  21  41  67  86 122 168 202 255 321 378
#     4  10  23  42  63  88 119 160 210 263 315 372
#     4  10  19  35  59  88 124 162 205 262 315 369
#     4   9  19  36  60  90 119 155 205 255 312 383
#     4   9  20  37  55  85 126 161 201 255 314 374
#     4  11  23  39  62  90 121 162 214 259 304 376
#     4  11  25  42  60  90 121 156 211 258 306 379
#     4   9  19  36  59  89 126 165 205 250 315 383
#
# _framework density 26.419709000000001
#
# number of rings (size 3 to 8) (size 9 to 14) (size 15 to 20)
#    0.000    2.000    0.000    4.125    0.000    5.000 
#    0.000   11.875    0.000    0.000    0.000    0.000 
#    0.000    0.000    0.000    0.000    0.000    0.000 
#
# Total GULP energy -356500.887334 kJ/mol
# GULP energy per Si atom -5570.326365 kJ/mol
# Density = 2.635958 g / cm^3
# Si number density = 26.419709 Si / 1000 Ang^3
#
#
#
# Elastic Constant Matrix: (Units=GPa)
#
#
# Indices 1 2 3 4 5 6 
#
# 1 271.3872 21.2538 37.9835 0.0000 0.0000 0.0000
# 2 21.2538 72.5485 -7.8237 0.0000 0.0000 0.0000
# 3 37.9835 -7.8237 70.9823 0.0000 0.0000 0.0000
# 4 0.0000 0.0000 0.0000 7.0885 0.0000 0.0000
# 5 0.0000 0.0000 0.0000 0.0000 44.6860 0.0000
# 6 0.0000 0.0000 0.0000 0.0000 0.0000 27.3434
#
#
#
# Elastic Compliance Matrix: (Units=1/GPa)
#
#
# Indices 1 2 3 4 5 6 
#
# 1 0.004132 -0.001466 -0.002373 0.000000 0.000000 0.000000
# 2 -0.001466 0.014470 0.002380 0.000000 0.000000 0.000000
# 3 -0.002373 0.002380 0.015620 0.000000 0.000000 0.000000
# 4 0.000000 0.000000 0.000000 0.141074 0.000000 0.000000
# 5 0.000000 0.000000 0.000000 0.000000 0.022378 0.000000
# 6 0.000000 0.000000 0.000000 0.000000 0.000000 0.036572
#
#
# Mechanical properties :
#
#
# Convention : Reuss Voigt Hill
#
# Bulk Modulus (GPa) = 31.94580 57.52724 44.73652
# Shear Modulus (GPa) = 20.19394 40.05719 30.12557
#
# Velocity S-wave (km/s) = 2.76769 3.89805 3.38045
# Velocity P-wave (km/s) = 4.72561 6.48701 5.67506
#
# Compressibility (1/GPa) = 0.03130302
#
# Stress axis : x y z
#
# Youngs Moduli (GPa) = 242.03342 69.10826 64.02109
#
# Poissons Ratio (x) = 0.10133 0.15189
# Poissons Ratio (y) = 0.35489 -0.15234
# Poissons Ratio (z) = 0.57423 -0.16444
#
# Static dielectric constant tensor:
#      x y z
#    x 2.178420 0.000000 0.000000 
#    y 0.000000 2.126980 0.000000 
#    z 0.000000 0.000000 2.305970 
# 
# From -- ./inp_files/24086.got.cif
#   From: 2010.05.17/outbox.cif.g08.bks.cpg/sg60_13_cif.got.tgz:24086.got - 2010.06.03 14:59:27.
