data_PCOD9454383
_publ_section_title
;
Structure prediction by ZEFSAII (Michael W. Deem and Ramdas Pophale) SiO2 
 PCOD9454383
Probable space group: P B C N
;
_chemical_formula_sum "Si O2"
_cell_formula_units_Z 48
_cell_length_a 21.195181
_cell_length_b 11.258612
_cell_length_c 10.030835
_cell_angle_alpha 90.000000
_cell_angle_beta 90.000000
_cell_angle_gamma 90.000000
_cell_volume 2393.641296
_symmetry_space_group_name_H-M "P B C N"
_symmetry_group_IT_number 60
_symmetry_cell_setting 'orthorhombic'
loop_
_space_group_symop_operation_xyz
x,y,z
1/2-x,1/2-y,1/2+z
1/2+x,1/2-y,-z
-x,y,1/2-z
-x,-y,-z
1/2+x,1/2+y,1/2-z
1/2-x,1/2+y,z
x,-y,1/2+z
loop_
_atom_site_type_symbol
_atom_site_label
_atom_site_fract_x
_atom_site_fract_y
_atom_site_fract_z
Si Si1 0.641809 0.248786 0.898258
Si Si2 0.351145 0.358283 0.123234
Si Si3 0.958393 0.053337 0.381197
Si Si4 0.822149 0.696497 0.610422
Si Si5 0.809832 0.672530 0.163412
Si Si6 0.253594 0.948787 0.599215
O O1 0.578379 0.325305 0.915186
O O2 0.644867 0.187437 0.753506
O O3 0.699153 0.346143 0.901149
O O4 0.654387 0.163321 0.023374
O O5 0.404143 0.455853 0.145432
O O6 0.345085 0.273152 0.249514
O O7 0.284924 0.429079 0.102952
O O8 0.362031 0.277133 0.993101
O O9 0.000000 0.069849 0.250000
O O10 0.000000 0.000000 0.500000
O O11 0.758949 0.772827 0.635226
O O12 0.796634 0.583204 0.527895
O O13 0.795334 0.568496 0.268616
#
# Coordination Sequence:
#
# PCOD9454383 Si02
#       6
#     8   8   8   8   8   8
#     4   9  17  29  43  62  91 123 158 201 231 264
#     4  10  19  33  48  67 101 136 161 197 237 279
#     4  11  21  31  45  68  95 135 174 193 224 281
#     4   9  17  30  46  66  91 128 164 194 239 294
#     4   9  17  30  46  66  91 128 163 193 239 293
#     4   8  17  29  46  65  87 128 162 188 240 295
#
# _framework density 20.053131
#
# number of rings (size 3 to 8) (size 9 to 14) (size 15 to 20)
#    0.000    2.667    0.000    3.000    0.000   10.667 
#    0.000    1.667    0.000    0.000    0.000    0.000 
#    0.000    0.000    0.000 1698.000    0.000    0.000 
#
# Total GULP energy -267904.797057 kJ/mol
# GULP energy per Si atom -5581.349939 kJ/mol
# Density = 2.000749 g / cm^3
# Si number density = 20.053131 Si / 1000 Ang^3
#
#
#
# Elastic Constant Matrix: (Units=GPa)
#
#
# Indices 1 2 3 4 5 6 
#
# 1 67.6815 28.7298 34.8470 0.0000 0.0000 0.0000
# 2 28.7298 63.0201 35.4980 0.0000 0.0000 0.0000
# 3 34.8470 35.4980 162.0194 0.0000 0.0000 0.0000
# 4 0.0000 0.0000 0.0000 23.7510 0.0000 0.0000
# 5 0.0000 0.0000 0.0000 0.0000 12.5991 0.0000
# 6 0.0000 0.0000 0.0000 0.0000 0.0000 33.2337
#
#
#
# Elastic Compliance Matrix: (Units=1/GPa)
#
#
# Indices 1 2 3 4 5 6 
#
# 1 0.019182 -0.007325 -0.002521 0.000000 0.000000 0.000000
# 2 -0.007325 0.020899 -0.003003 0.000000 0.000000 0.000000
# 3 -0.002521 -0.003003 0.007372 0.000000 0.000000 0.000000
# 4 0.000000 0.000000 0.000000 0.042103 0.000000 0.000000
# 5 0.000000 0.000000 0.000000 0.000000 0.079370 0.000000
# 6 0.000000 0.000000 0.000000 0.000000 0.000000 0.030090
#
#
# Mechanical properties :
#
#
# Convention : Reuss Voigt Hill
#
# Bulk Modulus (GPa) = 45.96608 54.54118 50.25363
# Shear Modulus (GPa) = 21.55470 26.82651 24.19060
#
# Velocity S-wave (km/s) = 3.28209 3.66152 3.47699
# Velocity P-wave (km/s) = 6.11022 6.71811 6.42136
#
# Compressibility (1/GPa) = 0.02175517
#
# Stress axis : x y z
#
# Youngs Moduli (GPa) = 52.13133 47.84896 135.64226
#
# Poissons Ratio (x) = 0.35049 0.34193
# Poissons Ratio (y) = 0.38186 0.40740
# Poissons Ratio (z) = 0.13141 0.14371
#
# Static dielectric constant tensor:
#      x y z
#    x 1.686220 0.000000 0.000000 
#    y 0.000000 1.754860 0.000000 
#    z 0.000000 0.000000 1.754220 
# 
# From -- ./inp_files/7293.got.cif
#   From: 2010.05.17/outbox.cif.g08.bks.cpg/sg60_4_cif.got.tgz:7293.got - 2010.06.03 14:59:27.
