data_PCOD9454454
_publ_section_title
;
Structure prediction by ZEFSAII (Michael W. Deem and Ramdas Pophale) SiO2 
 PCOD9454454
Probable space group: P B C N
;
_chemical_formula_sum "Si O2"
_cell_formula_units_Z 64
_cell_length_a 11.295186
_cell_length_b 16.629996
_cell_length_c 21.073549
_cell_angle_alpha 90.000000
_cell_angle_beta 90.000000
_cell_angle_gamma 90.000000
_cell_volume 3958.432221
_symmetry_space_group_name_H-M "P B C N"
_symmetry_group_IT_number 60
_symmetry_cell_setting 'orthorhombic'
loop_
_space_group_symop_operation_xyz
x,y,z
1/2-x,1/2-y,1/2+z
1/2+x,1/2-y,-z
-x,y,1/2-z
-x,-y,-z
1/2+x,1/2+y,1/2-z
1/2-x,1/2+y,z
x,-y,1/2+z
loop_
_atom_site_type_symbol
_atom_site_label
_atom_site_fract_x
_atom_site_fract_y
_atom_site_fract_z
Si Si1 0.516953 0.700841 0.540995
Si Si2 0.967396 0.979467 0.817848
Si Si3 0.651055 0.618828 0.430300
Si Si4 0.237939 0.210283 0.601163
Si Si5 0.168695 0.540786 0.971039
Si Si6 0.633578 0.645937 0.771377
Si Si7 0.332645 0.401958 0.361557
Si Si8 0.083973 0.373733 0.011360
O O1 0.549882 0.647093 0.479873
O O2 0.379091 0.700049 0.557877
O O3 0.587998 0.661394 0.599227
O O4 0.562194 0.791013 0.526790
O O5 0.886998 0.056506 0.799478
O O6 0.000000 0.939535 0.750000
O O7 0.084496 0.021438 0.846219
O O8 0.904386 0.926958 0.870798
O O9 0.715147 0.699665 0.407286
O O10 0.745504 0.567262 0.470954
O O11 0.196684 0.194482 0.673155
O O12 0.339256 0.151410 0.573175
O O13 0.228952 0.569777 0.906640
O O14 0.043847 0.587028 0.975257
O O15 0.151142 0.445051 0.974595
O O16 0.500000 0.673316 0.750000
O O17 0.702830 0.636793 0.705455
#
# Coordination Sequence:
#
# PCOD9454454 Si02
#       8
#     8   8   8   8   8   8   8   8
#     4  10  19  34  53  82 103 133 185 222 262 320
#     4   9  18  34  53  79 108 131 178 226 262 304
#     4  10  21  32  56  80 107 140 178 224 268 321
#     4  11  19  35  55  77 109 142 176 217 274 317
#     4  10  20  35  52  78 111 139 177 217 274 324
#     4   9  17  34  57  77 102 138 179 216 258 320
#     4   9  19  34  58  80 102 136 185 223 258 316
#     4  10  22  34  50  80 111 142 166 224 276 318
#
# _framework density 16.168018
#
# number of rings (size 3 to 8) (size 9 to 14) (size 15 to 20)
#    0.000    2.500    3.750    0.750    1.750    1.000 
#    0.000    5.625    0.000    0.000    0.000    0.000 
#    0.000    0.000    0.000    0.000    0.000    0.000 
#
# Total GULP energy -356505.422459 kJ/mol
# GULP energy per Si atom -5570.397226 kJ/mol
# Density = 1.613122 g / cm^3
# Si number density = 16.168018 Si / 1000 Ang^3
#
#
#
# Elastic Constant Matrix: (Units=GPa)
#
#
# Indices 1 2 3 4 5 6 
#
# 1 71.2755 35.3660 58.0527 0.0000 0.0000 0.0000
# 2 35.3660 46.9617 32.7479 0.0000 0.0000 0.0000
# 3 58.0527 32.7479 130.3744 0.0000 0.0000 0.0000
# 4 0.0000 0.0000 0.0000 15.5838 0.0000 0.0000
# 5 0.0000 0.0000 0.0000 0.0000 25.3875 0.0000
# 6 0.0000 0.0000 0.0000 0.0000 0.0000 16.8715
#
#
#
# Elastic Compliance Matrix: (Units=1/GPa)
#
#
# Indices 1 2 3 4 5 6 
#
# 1 0.029177 -0.015655 -0.009059 0.000000 0.000000 0.000000
# 2 -0.015655 0.034216 -0.001624 0.000000 0.000000 0.000000
# 3 -0.009059 -0.001624 0.012112 0.000000 0.000000 0.000000
# 4 0.000000 0.000000 0.000000 0.064169 0.000000 0.000000
# 5 0.000000 0.000000 0.000000 0.000000 0.039389 0.000000
# 6 0.000000 0.000000 0.000000 0.000000 0.000000 0.059271
#
#
# Mechanical properties :
#
#
# Convention : Reuss Voigt Hill
#
# Bulk Modulus (GPa) = 43.80533 55.66053 49.73293
# Shear Modulus (GPa) = 16.74371 19.73157 18.23764
#
# Velocity S-wave (km/s) = 3.22158 3.49722 3.36223
# Velocity P-wave (km/s) = 6.40240 7.12801 6.77492
#
# Compressibility (1/GPa) = 0.02282827
#
# Stress axis : x y z
#
# Youngs Moduli (GPa) = 34.27410 29.22641 82.56294
#
# Poissons Ratio (x) = 0.45754 0.74797
# Poissons Ratio (y) = 0.53656 0.13405
# Poissons Ratio (z) = 0.31050 0.04745
#
# Static dielectric constant tensor:
#      x y z
#    x 1.545750 0.000000 0.000000 
#    y 0.000000 1.533980 0.000000 
#    z 0.000000 0.000000 1.544210 
# 
# From -- ./inp_files/22741.got.cif
#   From: 2010.05.17/outbox.cif.g08.bks.cpg/sg60_12_cif.got.tgz:22741.got - 2010.06.03 14:59:27.
