data_PCOD9454525
_publ_section_title
;
Structure prediction by ZEFSAII (Michael W. Deem and Ramdas Pophale) SiO2 
 PCOD9454525
Probable space group: P B C N
;
_chemical_formula_sum "Si O2"
_cell_formula_units_Z 56
_cell_length_a 30.848655
_cell_length_b 5.461292
_cell_length_c 14.227851
_cell_angle_alpha 90.000000
_cell_angle_beta 90.000000
_cell_angle_gamma 90.000000
_cell_volume 2397.016037
_symmetry_space_group_name_H-M "P B C N"
_symmetry_group_IT_number 60
_symmetry_cell_setting 'orthorhombic'
loop_
_space_group_symop_operation_xyz
x,y,z
1/2-x,1/2-y,1/2+z
1/2+x,1/2-y,-z
-x,y,1/2-z
-x,-y,-z
1/2+x,1/2+y,1/2-z
1/2-x,1/2+y,z
x,-y,1/2+z
loop_
_atom_site_type_symbol
_atom_site_label
_atom_site_fract_x
_atom_site_fract_y
_atom_site_fract_z
Si Si1 0.010882 0.250169 0.943002
Si Si2 0.101476 0.529737 0.453536
Si Si3 0.359352 0.010384 0.267120
Si Si4 0.857140 0.156567 0.401105
Si Si5 0.234625 0.604691 0.309667
Si Si6 0.268108 0.507362 0.096823
Si Si7 0.424942 0.712634 0.634621
O O1 0.061592 0.291713 0.924082
O O2 0.976470 0.234949 0.857821
O O3 0.000000 0.500000 0.000000
O O4 0.000000 0.000000 0.000000
O O5 0.119779 0.400668 0.361228
O O6 0.138001 0.691698 0.504093
O O7 0.086656 0.346961 0.535956
O O8 0.344513 0.819473 0.188183
O O9 0.316356 0.155238 0.296953
O O10 0.396623 0.166575 0.216089
O O11 0.819456 0.957403 0.410835
O O12 0.905016 0.056027 0.377868
O O13 0.241785 0.337326 0.354677
O O14 0.254629 0.547929 0.205918
O O15 0.241961 0.277607 0.057493
#
# Coordination Sequence:
#
# PCOD9454525 Si02
#       7
#     8   8   8   8   8   8   8
#     4  10  20  43  68  93 134 176 212 267 339 396
#     4  10  24  41  63  99 133 172 225 283 331 400
#     4  11  23  39  65  98 131 172 227 283 330 403
#     4  11  21  39  66  93 128 177 225 272 340 395
#     4  10  19  37  60  87 127 174 213 270 335 390
#     4  10  19  34  61  88 122 173 220 266 330 398
#     4  10  22  40  69  92 128 180 217 271 341 400
#
# _framework density 23.362380999999999
#
# number of rings (size 3 to 8) (size 9 to 14) (size 15 to 20)
#    0.000    1.714    4.286    1.714    2.000    1.714 
#    0.000    1.429    0.000    0.000    0.000    0.000 
#    0.000    0.000    0.000    0.000    0.000    0.000 
#
# Total GULP energy -312499.933574 kJ/mol
# GULP energy per Si atom -5580.355957 kJ/mol
# Density = 2.330921 g / cm^3
# Si number density = 23.362381 Si / 1000 Ang^3
#
#
#
# Elastic Constant Matrix: (Units=GPa)
#
#
# Indices 1 2 3 4 5 6 
#
# 1 93.9363 -0.4040 36.1122 0.0000 0.0000 0.0000
# 2 -0.4040 96.5752 6.3546 0.0000 0.0000 0.0000
# 3 36.1122 6.3546 86.3792 0.0000 0.0000 0.0000
# 4 0.0000 0.0000 0.0000 -4.7320 0.0000 0.0000
# 5 0.0000 0.0000 0.0000 0.0000 9.3309 0.0000
# 6 0.0000 0.0000 0.0000 0.0000 0.0000 35.3864
#
#
#
# Elastic Compliance Matrix: (Units=1/GPa)
#
#
# Indices 1 2 3 4 5 6 
#
# 1 0.012700 0.000404 -0.005339 0.000000 0.000000 0.000000
# 2 0.000404 0.010418 -0.000935 0.000000 0.000000 0.000000
# 3 -0.005339 -0.000935 0.013878 0.000000 0.000000 0.000000
# 4 0.000000 0.000000 0.000000 -0.211328 0.000000 0.000000
# 5 0.000000 0.000000 0.000000 0.000000 0.107171 0.000000
# 6 0.000000 0.000000 0.000000 0.000000 0.000000 0.028259
#
#
# Mechanical properties :
#
#
# Convention : Reuss Voigt Hill
#
# Bulk Modulus (GPa) = 39.59590 40.11291 39.85440
# Shear Modulus (GPa) = -266.75789 23.65226 -121.55282
#
# Velocity S-wave (km/s) = -10.69722 3.18529 -7.22096
# Velocity P-wave (km/s) = 11.64426 5.54394 7.24063
#
# Compressibility (1/GPa) = 0.02525514
#
# Stress axis : x y z
#
# Youngs Moduli (GPa) = 78.74157 95.98887 72.05765
#
# Poissons Ratio (x) = -0.03882 0.38472
# Poissons Ratio (y) = -0.03185 0.06741
# Poissons Ratio (z) = 0.42041 0.08980
#
# Static dielectric constant tensor:
#      x y z
#    x 1.902720 0.000000 0.000000 
#    y 0.000000 1.960210 0.000000 
#    z 0.000000 0.000000 1.903260 
# 
# From -- ./inp_files/18170.got.cif
#   From: 2010.05.17/outbox.cif.g08.bks.cpg/sg60_10_cif.got.tgz:18170.got - 2010.06.03 14:59:27.
