data_PCOD9454911
_publ_section_title
;
Structure prediction by ZEFSAII (Michael W. Deem and Ramdas Pophale) SiO2 
 PCOD9454911
Probable space group: P B C N
;
_chemical_formula_sum "Si O2"
_cell_formula_units_Z 64
_cell_length_a 19.729023
_cell_length_b 8.903557
_cell_length_c 20.110038
_cell_angle_alpha 90.000000
_cell_angle_beta 90.000000
_cell_angle_gamma 90.000000
_cell_volume 3532.498725
_symmetry_space_group_name_H-M "P B C N"
_symmetry_group_IT_number 60
_symmetry_cell_setting 'orthorhombic'
loop_
_space_group_symop_operation_xyz
x,y,z
1/2-x,1/2-y,1/2+z
1/2+x,1/2-y,-z
-x,y,1/2-z
-x,-y,-z
1/2+x,1/2+y,1/2-z
1/2-x,1/2+y,z
x,-y,1/2+z
loop_
_atom_site_type_symbol
_atom_site_label
_atom_site_fract_x
_atom_site_fract_y
_atom_site_fract_z
Si Si1 0.251481 0.438129 0.364161
Si Si2 0.251481 0.561870 0.635839
Si Si3 0.919750 0.661802 0.034576
Si Si4 0.350107 0.187338 0.178171
Si Si5 0.309388 0.694383 0.451479
Si Si6 0.309387 0.694384 0.048521
Si Si7 0.850107 0.687338 0.178171
Si Si8 0.080250 0.661803 0.034576
O O1 0.288978 0.533901 0.422069
O O2 0.198354 0.316074 0.392482
O O3 0.207631 0.559062 0.324845
O O4 0.309480 0.343955 0.327879
O O5 0.207631 0.440937 0.675154
O O6 0.309480 0.656045 0.672121
O O7 0.198354 0.683926 0.607518
O O8 0.288978 0.466099 0.577930
O O9 0.893271 0.666903 0.110633
O O10 1.000000 0.684465 0.032641
O O11 0.878751 0.783311 0.990916
O O12 0.904246 0.500000 0.000000
O O13 0.385566 0.179264 0.250000
O O14 0.393271 0.166904 0.110633
O O15 0.250000 0.750000 0.500000
O O16 0.378751 0.716688 0.490915
#
# Coordination Sequence:
#
# PCOD9454911 Si02
#       8
#     8   8   8   8   8   8   8   8
#     4  10  20  32  58  84 111 139 185 230 279 327
#     4  10  20  32  58  84 111 139 185 230 279 327
#     4  11  22  36  57  85 112 146 192 237 280 340
#     4  11  22  36  54  83 116 152 185 228 283 339
#     4  11  17  33  59  83 108 139 180 236 281 323
#     4  11  17  33  59  83 108 139 180 236 281 323
#     4  11  22  36  54  83 116 152 185 228 283 339
#     4  11  22  36  57  85 112 146 192 237 280 340
#
# _framework density 18.117486
#
# number of rings (size 3 to 8) (size 9 to 14) (size 15 to 20)
#    0.000    1.250    7.500    1.500    0.000    0.500 
#    0.000    2.500    0.000    0.000    0.000    0.000 
#    0.000    0.000    0.000    0.000    0.000    0.000 
#
# Total GULP energy -356881.403493 kJ/mol
# GULP energy per Si atom -5576.271930 kJ/mol
# Density = 1.807625 g / cm^3
# Si number density = 18.117486 Si / 1000 Ang^3
#
#
#
# Elastic Constant Matrix: (Units=GPa)
#
#
# Indices 1 2 3 4 5 6 
#
# 1 75.0270 13.9571 32.5523 0.0000 0.0000 0.0000
# 2 13.9571 82.7772 22.1623 0.0000 0.0000 0.0000
# 3 32.5523 22.1623 119.4244 0.0000 0.0000 0.0000
# 4 0.0000 0.0000 0.0000 4.9054 0.0000 0.0000
# 5 0.0000 0.0000 0.0000 0.0000 9.6515 0.0000
# 6 0.0000 0.0000 0.0000 0.0000 0.0000 22.5380
#
#
#
# Elastic Compliance Matrix: (Units=1/GPa)
#
#
# Indices 1 2 3 4 5 6 
#
# 1 0.015300 -0.001540 -0.003885 0.000000 0.000000 0.000000
# 2 -0.001540 0.012867 -0.001968 0.000000 0.000000 0.000000
# 3 -0.003885 -0.001968 0.009798 0.000000 0.000000 0.000000
# 4 0.000000 0.000000 0.000000 0.203858 0.000000 0.000000
# 5 0.000000 0.000000 0.000000 0.000000 0.103611 0.000000
# 6 0.000000 0.000000 0.000000 0.000000 0.000000 0.044370
#
#
# Mechanical properties :
#
#
# Convention : Reuss Voigt Hill
#
# Bulk Modulus (GPa) = 43.14076 46.06356 44.60216
# Shear Modulus (GPa) = 12.12663 21.32275 16.72469
#
# Velocity S-wave (km/s) = 2.58995 3.43434 3.04159
# Velocity P-wave (km/s) = 5.72775 6.41922 6.08332
#
# Compressibility (1/GPa) = 0.02317993
#
# Stress axis : x y z
#
# Youngs Moduli (GPa) = 65.35741 77.71710 102.06528
#
# Poissons Ratio (x) = 0.11966 0.39650
# Poissons Ratio (y) = 0.10063 0.20088
# Poissons Ratio (z) = 0.25390 0.15296
#
# Static dielectric constant tensor:
#      x y z
#    x 1.580210 0.000000 0.000000 
#    y 0.000000 1.652680 0.000000 
#    z 0.000000 0.000000 1.793130 
# 
# From -- ./inp_files/23219.got.cif
#   From: 2010.05.17/outbox.cif.g08.bks.cpg/sg60_12_cif.got.tgz:23219.got - 2010.06.03 14:59:27.
