data_PCOD9454688
_publ_section_title
;
Structure prediction by ZEFSAII (Michael W. Deem and Ramdas Pophale) SiO2 
 PCOD9454688
Probable space group: P B C N
;
_chemical_formula_sum "Si O2"
_cell_formula_units_Z 48
_cell_length_a 12.252140
_cell_length_b 14.170168
_cell_length_c 13.291240
_cell_angle_alpha 90.000000
_cell_angle_beta 90.000000
_cell_angle_gamma 90.000000
_cell_volume 2307.557066
_symmetry_space_group_name_H-M "P B C N"
_symmetry_group_IT_number 60
_symmetry_cell_setting 'orthorhombic'
loop_
_space_group_symop_operation_xyz
x,y,z
1/2-x,1/2-y,1/2+z
1/2+x,1/2-y,-z
-x,y,1/2-z
-x,-y,-z
1/2+x,1/2+y,1/2-z
1/2-x,1/2+y,z
x,-y,1/2+z
loop_
_atom_site_type_symbol
_atom_site_label
_atom_site_fract_x
_atom_site_fract_y
_atom_site_fract_z
Si Si1 0.975005 0.452711 0.368703
Si Si2 0.770859 0.138928 0.255563
Si Si3 0.361404 0.258321 0.079991
Si Si4 0.735664 0.425154 0.303652
Si Si5 0.446465 0.149380 0.360648
Si Si6 0.849923 0.703080 0.639940
O O1 0.846240 0.436863 0.370214
O O2 0.000000 0.470256 0.250000
O O3 0.017551 0.551543 0.413275
O O4 0.045200 0.360038 0.385399
O O5 0.708452 0.184719 0.351216
O O6 0.680188 0.143814 0.165984
O O7 0.863564 0.210238 0.217477
O O8 0.800580 0.030936 0.276551
O O9 0.343205 0.359338 0.131595
O O10 0.490236 0.232555 0.083060
O O11 0.317356 0.244622 0.967874
O O12 0.768931 0.367442 0.201824
O O13 0.500000 0.158187 0.250000
#
# Coordination Sequence:
#
# PCOD9454688 Si02
#       6
#     8   8   8   8   8   8
#     4   9  15  33  56  81 109 144 191 232 283 335
#     4  10  19  37  57  80 117 157 191 239 288 340
#     4  10  21  32  53  89 117 148 194 240 289 340
#     4  10  19  37  57  80 117 157 191 239 288 340
#     4   9  15  33  56  81 109 144 191 232 283 335
#     4  10  21  32  53  89 117 148 194 240 289 340
#
# _framework density 20.801219
#
# number of rings (size 3 to 8) (size 9 to 14) (size 15 to 20)
#    0.000    2.333    6.667    0.000    0.000    3.333 
#    0.000    0.000    0.000   25.000    0.000   39.667 
#    0.000    0.000    0.000    0.000    0.000    0.000 
#
# Total GULP energy -267300.607774 kJ/mol
# GULP energy per Si atom -5568.762662 kJ/mol
# Density = 2.075387 g / cm^3
# Si number density = 20.801219 Si / 1000 Ang^3
#
#
#
# Elastic Constant Matrix: (Units=GPa)
#
#
# Indices 1 2 3 4 5 6 
#
# 1 38.0004 26.5141 -1.7731 0.0000 0.0000 0.0000
# 2 26.5141 160.3981 26.4936 0.0000 0.0000 0.0000
# 3 -1.7731 26.4936 56.0035 0.0000 0.0000 0.0000
# 4 0.0000 0.0000 0.0000 22.2122 0.0000 0.0000
# 5 0.0000 0.0000 0.0000 0.0000 9.9931 0.0000
# 6 0.0000 0.0000 0.0000 0.0000 0.0000 -40.5225
#
#
#
# Elastic Compliance Matrix: (Units=1/GPa)
#
#
# Indices 1 2 3 4 5 6 
#
# 1 0.030410 -0.005625 0.003624 0.000000 0.000000 0.000000
# 2 -0.005625 0.007804 -0.003870 0.000000 0.000000 0.000000
# 3 0.003624 -0.003870 0.019801 0.000000 0.000000 0.000000
# 4 0.000000 0.000000 0.000000 0.045020 0.000000 0.000000
# 5 0.000000 0.000000 0.000000 0.000000 0.100069 0.000000
# 6 0.000000 0.000000 0.000000 0.000000 0.000000 -0.024678
#
#
# Mechanical properties :
#
#
# Convention : Reuss Voigt Hill
#
# Bulk Modulus (GPa) = 21.61118 39.65236 30.63177
# Shear Modulus (GPa) = 24.31992 11.88105 18.10048
#
# Velocity S-wave (km/s) = 3.42301 2.39251 2.95306
# Velocity P-wave (km/s) = 5.10241 5.17069 5.13666
#
# Compressibility (1/GPa) = 0.04627235
#
# Stress axis : x y z
#
# Youngs Moduli (GPa) = 32.88439 128.14691 50.50138
#
# Poissons Ratio (x) = 0.72087 -0.18302
# Poissons Ratio (y) = 0.18499 0.19543
# Poissons Ratio (z) = -0.11917 0.49589
#
# Static dielectric constant tensor:
#      x y z
#    x 1.810790 0.000000 0.000000 
#    y 0.000000 1.789600 0.000000 
#    z 0.000000 0.000000 1.853130 
# 
# From -- ./inp_files/16771.got.cif
#   From: 2010.05.17/outbox.cif.g08.bks.cpg/sg60_9_cif.got.tgz:16771.got - 2010.06.03 14:59:27.
