data_PCOD9454915
_publ_section_title
;
Structure prediction by ZEFSAII (Michael W. Deem and Ramdas Pophale) SiO2 
 PCOD9454915
Probable space group: P B C N
;
_chemical_formula_sum "Si O2"
_cell_formula_units_Z 64
_cell_length_a 16.331324
_cell_length_b 27.848935
_cell_length_c 8.552806
_cell_angle_alpha 90.000000
_cell_angle_beta 90.000000
_cell_angle_gamma 90.000000
_cell_volume 3889.901530
_symmetry_space_group_name_H-M "P B C N"
_symmetry_group_IT_number 60
_symmetry_cell_setting 'orthorhombic'
loop_
_space_group_symop_operation_xyz
x,y,z
1/2-x,1/2-y,1/2+z
1/2+x,1/2-y,-z
-x,y,1/2-z
-x,-y,-z
1/2+x,1/2+y,1/2-z
1/2-x,1/2+y,z
x,-y,1/2+z
loop_
_atom_site_type_symbol
_atom_site_label
_atom_site_fract_x
_atom_site_fract_y
_atom_site_fract_z
Si Si1 0.314913 0.694436 0.546562
Si Si2 0.232260 0.716454 0.861436
Si Si3 0.077260 0.305788 0.149900
Si Si4 0.580831 0.939493 0.044032
Si Si5 0.648774 0.843373 0.897826
Si Si6 0.531965 0.749842 0.918041
Si Si7 0.689552 0.876469 0.550133
Si Si8 0.891151 0.538400 0.901556
O O1 0.298238 0.705898 0.728938
O O2 0.260829 0.732294 0.444827
O O3 0.407874 0.709154 0.514626
O O4 0.277811 0.643194 0.504493
O O5 0.145627 0.714136 0.768185
O O6 0.223368 0.677017 0.997561
O O7 0.000000 0.324534 0.250000
O O8 0.122457 0.346582 0.051020
O O9 0.039553 0.265828 0.035152
O O10 0.613581 0.948993 0.218811
O O11 0.482760 0.945866 0.046294
O O12 0.605784 0.887246 0.986123
O O13 0.614421 0.981712 0.932630
O O14 0.586962 0.798014 0.888391
O O15 0.674823 0.862503 0.729226
O O16 0.500000 0.734444 0.750000
O O17 0.672091 0.931128 0.504492
#
# Coordination Sequence:
#
# PCOD9454915 Si02
#       8
#     8   8   8   8   8   8   8   8
#     4  10  20  33  46  66  94 124 168 200 253 286
#     4  10  21  31  47  66  93 125 161 207 242 297
#     4  11  19  31  47  67  88 121 164 203 245 281
#     4  10  20  33  47  70  93 128 162 213 239 288
#     4  11  20  32  48  66  95 124 172 200 249 282
#     4  11  21  33  48  72  93 129 169 210 239 299
#     4  11  22  32  49  66  94 132 163 205 242 298
#     4  10  21  32  48  67  98 125 168 202 253 278
#
# _framework density 16.452857999999999
#
# number of rings (size 3 to 8) (size 9 to 14) (size 15 to 20)
#    0.000    1.500    3.750    4.500    3.500    1.000 
#    0.000    0.000    0.000    0.000    0.000    0.000 
#    0.000    0.000    0.000   10.125    4.750    7.375 
#
# Total GULP energy -357361.213629 kJ/mol
# GULP energy per Si atom -5583.768963 kJ/mol
# Density = 1.641541 g / cm^3
# Si number density = 16.452858 Si / 1000 Ang^3
#
#
#
# Elastic Constant Matrix: (Units=GPa)
#
#
# Indices 1 2 3 4 5 6 
#
# 1 31.4785 14.1929 1.2501 0.0000 0.0000 0.0000
# 2 14.1929 53.9993 6.6537 0.0000 0.0000 0.0000
# 3 1.2501 6.6537 70.6214 0.0000 0.0000 0.0000
# 4 0.0000 0.0000 0.0000 25.1676 0.0000 0.0000
# 5 0.0000 0.0000 0.0000 0.0000 20.5901 0.0000
# 6 0.0000 0.0000 0.0000 0.0000 0.0000 26.8903
#
#
#
# Elastic Compliance Matrix: (Units=1/GPa)
#
#
# Indices 1 2 3 4 5 6 
#
# 1 0.036043 -0.009505 0.000258 0.000000 0.000000 0.000000
# 2 -0.009505 0.021243 -0.001833 0.000000 0.000000 0.000000
# 3 0.000258 -0.001833 0.014328 0.000000 0.000000 0.000000
# 4 0.000000 0.000000 0.000000 0.039734 0.000000 0.000000
# 5 0.000000 0.000000 0.000000 0.000000 0.048567 0.000000
# 6 0.000000 0.000000 0.000000 0.000000 0.000000 0.037188
#
#
# Mechanical properties :
#
#
# Convention : Reuss Voigt Hill
#
# Bulk Modulus (GPa) = 20.22136 22.25472 21.23804
# Shear Modulus (GPa) = 21.20905 23.46312 22.33608
#
# Velocity S-wave (km/s) = 3.59427 3.78045 3.68853
# Velocity P-wave (km/s) = 5.43527 5.71064 5.57466
#
# Compressibility (1/GPa) = 0.04945267
#
# Stress axis : x y z
#
# Youngs Moduli (GPa) = 27.74461 47.07456 69.79259
#
# Poissons Ratio (x) = 0.44745 -0.01797
# Poissons Ratio (y) = 0.26371 0.12794
# Poissons Ratio (z) = -0.00715 0.08630
#
# Static dielectric constant tensor:
#      x y z
#    x 1.573990 0.000000 0.000000 
#    y 0.000000 1.547430 0.000000 
#    z 0.000000 0.000000 1.601500 
# 
# From -- ./inp_files/7103.got.cif
#   From: 2010.05.17/outbox.cif.g08.bks.cpg/sg60_4_cif.got.tgz:7103.got - 2010.06.03 14:59:27.
