data_PCOD9454817
_publ_section_title
;
Structure prediction by ZEFSAII (Michael W. Deem and Ramdas Pophale) SiO2 
 PCOD9454817
Probable space group: P B C N
;
_chemical_formula_sum "Si O2"
_cell_formula_units_Z 60
_cell_length_a 16.945553
_cell_length_b 8.200794
_cell_length_c 18.648327
_cell_angle_alpha 90.000000
_cell_angle_beta 90.000000
_cell_angle_gamma 90.000000
_cell_volume 2591.501860
_symmetry_space_group_name_H-M "P B C N"
_symmetry_group_IT_number 60
_symmetry_cell_setting 'orthorhombic'
loop_
_space_group_symop_operation_xyz
x,y,z
1/2-x,1/2-y,1/2+z
1/2+x,1/2-y,-z
-x,y,1/2-z
-x,-y,-z
1/2+x,1/2+y,1/2-z
1/2-x,1/2+y,z
x,-y,1/2+z
loop_
_atom_site_type_symbol
_atom_site_label
_atom_site_fract_x
_atom_site_fract_y
_atom_site_fract_z
Si Si1 0.867221 0.416403 0.614775
Si Si2 0.460871 0.275680 0.485577
Si Si3 0.289245 0.245013 0.934040
Si Si4 0.727589 0.940024 0.325789
Si Si5 0.141370 0.252844 0.737249
Si Si6 0.304044 0.336372 0.571581
Si Si7 0.560283 0.589144 0.101064
Si Si8 0.000000 0.012682 0.750000
O O1 0.937878 0.382882 0.559335
O O2 0.795504 0.295391 0.595015
O O3 0.830829 0.594249 0.605490
O O4 0.887361 0.352505 0.693151
O O5 0.382601 0.332789 0.526601
O O6 0.475258 0.419527 0.428442
O O7 0.525413 0.274334 0.547484
O O8 0.346852 0.396068 0.915566
O O9 0.269095 0.199161 0.016908
O O10 0.780345 0.865404 0.261299
O O11 0.683195 0.794985 0.365240
O O12 0.673420 0.097170 0.311293
O O13 0.788719 0.997842 0.386818
O O14 0.069833 0.130480 0.720727
O O15 0.536659 0.592493 0.184397
#
# Coordination Sequence:
#
# PCOD9454817 Si02
#       8
#     8   8   8   8   8   8   8   4
#     4  11  22  42  66  99 134 176 233 290 339 414
#     4  10  21  41  67  93 135 174 228 277 347 410
#     4  11  23  39  72 100 131 171 237 286 341 408
#     4  10  22  38  69  95 136 175 224 282 344 416
#     4  11  24  44  65  97 137 189 229 280 352 422
#     4  10  19  40  63 103 126 169 220 290 335 408
#     4  11  24  43  66  99 133 188 228 284 348 429
#     4  12  26  46  68 100 148 192 232 290 368 420
#
# _framework density 23.152597
#
# number of rings (size 3 to 8) (size 9 to 14) (size 15 to 20)
#    0.000    1.333    1.333    5.600    1.867    3.733 
#    4.800    0.000    0.000    0.000    0.000    0.000 
#    0.000    0.000    0.000    0.000    0.000    0.000 
#
# Total GULP energy -334688.024304 kJ/mol
# GULP energy per Si atom -5578.133738 kJ/mol
# Density = 2.309990 g / cm^3
# Si number density = 23.152597 Si / 1000 Ang^3
#
#
#
# Elastic Constant Matrix: (Units=GPa)
#
#
# Indices 1 2 3 4 5 6 
#
# 1 43.0516 -21.6712 24.8641 0.0000 0.0000 0.0000
# 2 -21.6712 49.6211 -4.0040 0.0000 0.0000 0.0000
# 3 24.8641 -4.0040 72.8540 0.0000 0.0000 0.0000
# 4 0.0000 0.0000 0.0000 19.5987 0.0000 0.0000
# 5 0.0000 0.0000 0.0000 0.0000 21.0345 0.0000
# 6 0.0000 0.0000 0.0000 0.0000 0.0000 21.4162
#
#
#
# Elastic Compliance Matrix: (Units=1/GPa)
#
#
# Indices 1 2 3 4 5 6 
#
# 1 0.038139 0.015676 -0.012155 0.000000 0.000000 0.000000
# 2 0.015676 0.026685 -0.003883 0.000000 0.000000 0.000000
# 3 -0.012155 -0.003883 0.017661 0.000000 0.000000 0.000000
# 4 0.000000 0.000000 0.000000 0.051024 0.000000 0.000000
# 5 0.000000 0.000000 0.000000 0.000000 0.047541 0.000000
# 6 0.000000 0.000000 0.000000 0.000000 0.000000 0.046694
#
#
# Mechanical properties :
#
#
# Convention : Reuss Voigt Hill
#
# Bulk Modulus (GPa) = 12.23091 18.21163 15.22127
# Shear Modulus (GPa) = 19.55254 23.49907 21.52580
#
# Velocity S-wave (km/s) = 2.90919 3.18931 3.05246
# Velocity P-wave (km/s) = 4.07170 4.63090 4.36027
#
# Compressibility (1/GPa) = 0.08176009
#
# Stress axis : x y z
#
# Youngs Moduli (GPa) = 26.22018 37.47366 56.62223
#
# Poissons Ratio (x) = -0.58742 0.68823
# Poissons Ratio (y) = -0.41102 0.21988
# Poissons Ratio (z) = 0.31870 0.14552
#
# Static dielectric constant tensor:
#      x y z
#    x 1.886940 0.000000 0.000000 
#    y 0.000000 1.888240 0.000000 
#    z 0.000000 0.000000 1.941220 
# 
# From -- ./inp_files/20908.got.cif
#   From: 2010.05.17/outbox.cif.g08.bks.cpg/sg60_11_cif.got.tgz:20908.got - 2010.06.03 14:59:27.
