data_PCOD9454268
_publ_section_title
;
Structure prediction by ZEFSAII (Michael W. Deem and Ramdas Pophale) SiO2 
 PCOD9454268
Probable space group: P B C N
;
_chemical_formula_sum "Si O2"
_cell_formula_units_Z 56
_cell_length_a 30.369398
_cell_length_b 13.858996
_cell_length_c 7.253688
_cell_angle_alpha 90.000000
_cell_angle_beta 90.000000
_cell_angle_gamma 90.000000
_cell_volume 3053.000139
_symmetry_space_group_name_H-M "P B C N"
_symmetry_group_IT_number 60
_symmetry_cell_setting 'orthorhombic'
loop_
_space_group_symop_operation_xyz
x,y,z
1/2-x,1/2-y,1/2+z
1/2+x,1/2-y,-z
-x,y,1/2-z
-x,-y,-z
1/2+x,1/2+y,1/2-z
1/2-x,1/2+y,z
x,-y,1/2+z
loop_
_atom_site_type_symbol
_atom_site_label
_atom_site_fract_x
_atom_site_fract_y
_atom_site_fract_z
Si Si1 0.757107 0.128260 0.852842
Si Si2 0.600148 0.094081 0.376547
Si Si3 0.813380 0.302668 0.841437
Si Si4 0.006820 0.614306 0.032291
Si Si5 0.769970 0.090790 0.422632
Si Si6 0.086073 0.368928 0.058691
Si Si7 0.330561 0.241481 0.571983
O O1 0.789064 0.211465 0.933117
O O2 0.761099 0.123037 0.632040
O O3 0.707122 0.162167 0.885121
O O4 0.771821 0.023818 0.921020
O O5 0.646839 0.139248 0.434729
O O6 0.558709 0.131387 0.497246
O O7 0.592471 0.122956 0.163592
O O8 0.597845 0.977601 0.376638
O O9 0.831601 0.260356 0.650577
O O10 0.772986 0.376388 0.807919
O O11 0.965592 0.657018 0.920155
O O12 0.000000 0.634273 0.250000
O O13 0.000000 0.500000 0.000000
O O14 0.811853 0.155083 0.363825
O O15 0.121740 0.294002 0.134726
#
# Coordination Sequence:
#
# PCOD9454268 Si02
#       7
#     8   8   8   8   8   8   8
#     4  10  19  30  43  59  81 107 135 167 200 235
#     4   9  16  26  40  59  82 106 131 159 193 233
#     4   9  18  30  43  60  81 106 136 166 197 235
#     4   8  14  24  38  56  79 104 128 156 191 232
#     4  10  19  30  43  59  81 107 135 167 200 235
#     4   9  16  26  40  59  82 106 131 159 193 233
#     4   9  18  30  43  60  81 106 136 166 197 235
#
# _framework density 18.342613
#
# number of rings (size 3 to 8) (size 9 to 14) (size 15 to 20)
#    0.000    2.857    0.000    1.714    0.000    4.571 
#    0.000    0.000    0.000    0.000    0.000    1.000 
#    0.000    0.000    0.000    0.000    0.000    0.000 
#
# Total GULP energy -311934.027711 kJ/mol
# GULP energy per Si atom -5570.250495 kJ/mol
# Density = 1.830086 g / cm^3
# Si number density = 18.342613 Si / 1000 Ang^3
#
#
#
# Elastic Constant Matrix: (Units=GPa)
#
#
# Indices 1 2 3 4 5 6 
#
# 1 145.0509 53.7309 -11.7052 0.0000 0.0000 0.0000
# 2 53.7309 98.1428 -7.0615 0.0000 0.0000 0.0000
# 3 -11.7052 -7.0615 29.6501 0.0000 0.0000 0.0000
# 4 0.0000 0.0000 0.0000 15.9921 0.0000 0.0000
# 5 0.0000 0.0000 0.0000 0.0000 14.5325 0.0000
# 6 0.0000 0.0000 0.0000 0.0000 0.0000 27.7101
#
#
#
# Elastic Compliance Matrix: (Units=1/GPa)
#
#
# Indices 1 2 3 4 5 6 
#
# 1 0.008809 -0.004652 0.002370 0.000000 0.000000 0.000000
# 2 -0.004652 0.012824 0.001218 0.000000 0.000000 0.000000
# 3 0.002370 0.001218 0.034952 0.000000 0.000000 0.000000
# 4 0.000000 0.000000 0.000000 0.062531 0.000000 0.000000
# 5 0.000000 0.000000 0.000000 0.000000 0.068811 0.000000
# 6 0.000000 0.000000 0.000000 0.000000 0.000000 0.036088
#
#
# Mechanical properties :
#
#
# Convention : Reuss Voigt Hill
#
# Bulk Modulus (GPa) = 18.36394 38.08582 28.22488
# Shear Modulus (GPa) = 20.46697 27.50557 23.98627
#
# Velocity S-wave (km/s) = 3.34401 3.87660 3.62011
# Velocity P-wave (km/s) = 4.99432 6.39109 5.73538
#
# Compressibility (1/GPa) = 0.05445454
#
# Stress axis : x y z
#
# Youngs Moduli (GPa) = 113.52578 77.98063 28.61059
#
# Poissons Ratio (x) = 0.36277 -0.06779
# Poissons Ratio (y) = 0.52812 -0.03484
# Poissons Ratio (z) = -0.26900 -0.09495
#
# Static dielectric constant tensor:
#      x y z
#    x 1.704940 0.000000 0.000000 
#    y 0.000000 1.622760 0.000000 
#    z 0.000000 0.000000 1.757240 
# 
# From -- ./inp_files/8534.got.cif
#   From: 2010.05.17/outbox.cif.g08.bks.cpg/sg60_5_cif.got.tgz:8534.got - 2010.06.03 14:59:27.
