data_PCOD9454006
_publ_section_title
;
Structure prediction by ZEFSAII (Michael W. Deem and Ramdas Pophale) SiO2 
 PCOD9454006
Probable space group: P B C N
;
_chemical_formula_sum "Si O2"
_cell_formula_units_Z 64
_cell_length_a 21.331725
_cell_length_b 17.967744
_cell_length_c 8.521168
_cell_angle_alpha 90.000000
_cell_angle_beta 90.000000
_cell_angle_gamma 90.000000
_cell_volume 3266.018612
_symmetry_space_group_name_H-M "P B C N"
_symmetry_group_IT_number 60
_symmetry_cell_setting 'orthorhombic'
loop_
_space_group_symop_operation_xyz
x,y,z
1/2-x,1/2-y,1/2+z
1/2+x,1/2-y,-z
-x,y,1/2-z
-x,-y,-z
1/2+x,1/2+y,1/2-z
1/2-x,1/2+y,z
x,-y,1/2+z
loop_
_atom_site_type_symbol
_atom_site_label
_atom_site_fract_x
_atom_site_fract_y
_atom_site_fract_z
Si Si1 0.504687 0.915704 0.938271
Si Si2 0.358923 0.926323 0.585537
Si Si3 0.995070 0.084801 0.936864
Si Si4 0.754863 0.831564 0.427461
Si Si5 0.748086 0.670237 0.553698
Si Si6 0.375160 0.596280 0.063891
Si Si7 0.635665 0.570071 0.066863
Si Si8 0.631245 0.094251 0.038989
O O1 0.500000 0.917253 0.750000
O O2 0.575289 0.890851 0.976920
O O3 0.439992 0.878350 0.993069
O O4 0.500000 0.000000 0.000000
O O5 0.298878 0.888967 0.507594
O O6 0.358875 0.916454 0.773779
O O7 0.360576 0.013606 0.542447
O O8 0.000000 0.085754 0.750000
O O9 0.055741 0.123597 0.012521
O O10 0.925561 0.107822 0.987848
O O11 0.000000 0.000000 0.000000
O O12 0.770089 0.750787 0.495946
O O13 0.758818 0.832242 0.240325
O O14 0.802074 0.891413 0.502153
O O15 0.684404 0.852050 0.476165
O O16 0.680607 0.651107 0.480769
O O17 0.372095 0.579311 0.247838
O O18 0.363595 0.517461 0.975515
#
# Coordination Sequence:
#
# PCOD9454006 Si02
#       8
#     8   8   8   8   8   8   8   8
#     4   8  16  30  53  82 113 142 177 221 269 319
#     4  10  19  35  58  86 114 146 184 227 274 327
#     4  10  18  32  55  86 117 146 181 229 279 329
#     4  12  25  41  57  79 110 148 189 234 283 336
#     4  12  25  41  57  79 110 148 189 234 283 336
#     4  11  21  37  60  87 115 148 187 231 278 332
#     4  11  21  37  60  87 115 148 187 231 278 332
#     4  10  19  35  58  86 114 146 184 227 274 327
#
# _framework density 19.595723
#
# number of rings (size 3 to 8) (size 9 to 14) (size 15 to 20)
#    0.000    1.500    0.000    8.625    0.000    1.000 
#    0.000    1.250    0.000    1.500    0.000    0.000 
#    0.000    0.000    0.000    0.000    0.000    0.000 
#
# Total GULP energy -357399.417675 kJ/mol
# GULP energy per Si atom -5584.365901 kJ/mol
# Density = 1.955112 g / cm^3
# Si number density = 19.595723 Si / 1000 Ang^3
#
#
#
# Elastic Constant Matrix: (Units=GPa)
#
#
# Indices 1 2 3 4 5 6 
#
# 1 84.9574 -13.6748 -5.2721 0.0000 0.0000 0.0000
# 2 -13.6748 16.9922 -12.5145 0.0000 0.0000 0.0000
# 3 -5.2721 -12.5145 108.8882 0.0000 0.0000 0.0000
# 4 0.0000 0.0000 0.0000 13.7199 0.0000 0.0000
# 5 0.0000 0.0000 0.0000 0.0000 26.3551 0.0000
# 6 0.0000 0.0000 0.0000 0.0000 0.0000 -0.4747
#
#
#
# Elastic Compliance Matrix: (Units=1/GPa)
#
#
# Indices 1 2 3 4 5 6 
#
# 1 0.013968 0.012825 0.002150 0.000000 0.000000 0.000000
# 2 0.012825 0.076067 0.009363 0.000000 0.000000 0.000000
# 3 0.002150 0.009363 0.010364 0.000000 0.000000 0.000000
# 4 0.000000 0.000000 0.000000 0.072887 0.000000 0.000000
# 5 0.000000 0.000000 0.000000 0.000000 0.037943 0.000000
# 6 0.000000 0.000000 0.000000 0.000000 0.000000 -2.106802
#
#
# Mechanical properties :
#
#
# Convention : Reuss Voigt Hill
#
# Bulk Modulus (GPa) = 6.70796 16.43502 11.57149
# Shear Modulus (GPa) = -2.63914 24.07335 10.71710
#
# Velocity S-wave (km/s) = -1.16177 3.50880 2.34115
# Velocity P-wave (km/s) = 1.27710 4.98205 3.63674
#
# Compressibility (1/GPa) = 0.14907662
#
# Stress axis : x y z
#
# Youngs Moduli (GPa) = 71.59049 13.14624 96.48814
#
# Poissons Ratio (x) = -0.16860 -0.20748
# Poissons Ratio (y) = -0.91814 -0.90345
# Poissons Ratio (z) = -0.15394 -0.12309
#
# Static dielectric constant tensor:
#      x y z
#    x 1.739780 0.000000 0.000000 
#    y 0.000000 1.622380 0.000000 
#    z 0.000000 0.000000 1.686770 
# 
# From -- ./inp_files/7560.got.cif
#   From: 2010.05.17/outbox.cif.g08.bks.cpg/sg60_4_cif.got.tgz:7560.got - 2010.06.03 14:59:27.
