data_PCOD9454699
_publ_section_title
;
Structure prediction by ZEFSAII (Michael W. Deem and Ramdas Pophale) SiO2 
 PCOD9454699
Probable space group: P B C N
;
_chemical_formula_sum "Si O2"
_cell_formula_units_Z 48
_cell_length_a 8.174722
_cell_length_b 20.290610
_cell_length_c 14.291579
_cell_angle_alpha 90.000000
_cell_angle_beta 90.000000
_cell_angle_gamma 90.000000
_cell_volume 2370.545580
_symmetry_space_group_name_H-M "P B C N"
_symmetry_group_IT_number 60
_symmetry_cell_setting 'orthorhombic'
loop_
_space_group_symop_operation_xyz
x,y,z
1/2-x,1/2-y,1/2+z
1/2+x,1/2-y,-z
-x,y,1/2-z
-x,-y,-z
1/2+x,1/2+y,1/2-z
1/2-x,1/2+y,z
x,-y,1/2+z
loop_
_atom_site_type_symbol
_atom_site_label
_atom_site_fract_x
_atom_site_fract_y
_atom_site_fract_z
Si Si1 0.579867 0.103003 0.469623
Si Si2 0.749784 0.209025 0.265316
Si Si3 0.440785 0.983452 0.353790
Si Si4 0.149210 0.075699 0.318581
Si Si5 0.555205 0.766719 0.599982
Si Si6 0.432461 0.667588 0.067740
O O1 0.549288 0.041635 0.400268
O O2 0.451859 0.160954 0.446350
O O3 0.760505 0.131894 0.453893
O O4 0.558204 0.076454 0.574162
O O5 0.744898 0.131403 0.236357
O O6 0.599806 0.231415 0.330506
O O7 0.715063 0.243385 0.165334
O O8 0.902656 0.210113 0.336578
O O9 0.500000 0.967311 0.250000
O O10 0.260679 0.015231 0.346656
O O11 0.000000 0.057129 0.250000
O O12 0.067283 0.113755 0.405626
O O13 0.531172 0.713597 0.519602
#
# Coordination Sequence:
#
# PCOD9454699 Si02
#       6
#     8   8   8   8   8   8
#     4  10  23  38  63  92 111 166 206 243 305 363
#     4   9  19  34  58  87 108 164 196 231 298 352
#     4  11  21  40  64  85 122 156 205 253 297 363
#     4  10  20  36  63  89 113 160 213 247 291 360
#     4  10  19  37  59  85 124 152 196 247 295 360
#     4  10  22  37  61  94 120 154 205 254 301 361
#
# _framework density 20.248504000000001
#
# number of rings (size 3 to 8) (size 9 to 14) (size 15 to 20)
#    0.000    2.000    1.667    3.000    4.667    0.667 
#    3.000    0.000    7.333    0.000    0.000    0.000 
#    0.000    0.000    0.000    0.000    0.000    0.000 
#
# Total GULP energy -267778.505301 kJ/mol
# GULP energy per Si atom -5578.718860 kJ/mol
# Density = 2.020242 g / cm^3
# Si number density = 20.248504 Si / 1000 Ang^3
#
#
#
# Elastic Constant Matrix: (Units=GPa)
#
#
# Indices 1 2 3 4 5 6 
#
# 1 80.0703 23.1444 43.2177 0.0000 0.0000 0.0000
# 2 23.1444 45.1280 59.8955 0.0000 0.0000 0.0000
# 3 43.2177 59.8955 179.8940 0.0000 0.0000 0.0000
# 4 0.0000 0.0000 0.0000 17.3016 0.0000 0.0000
# 5 0.0000 0.0000 0.0000 0.0000 18.0191 0.0000
# 6 0.0000 0.0000 0.0000 0.0000 0.0000 2.1147
#
#
#
# Elastic Compliance Matrix: (Units=1/GPa)
#
#
# Indices 1 2 3 4 5 6 
#
# 1 0.015005 -0.005216 -0.001868 0.000000 0.000000 0.000000
# 2 -0.005216 0.041518 -0.012570 0.000000 0.000000 0.000000
# 3 -0.001868 -0.012570 0.010193 0.000000 0.000000 0.000000
# 4 0.000000 0.000000 0.000000 0.057798 0.000000 0.000000
# 5 0.000000 0.000000 0.000000 0.000000 0.055497 0.000000
# 6 0.000000 0.000000 0.000000 0.000000 0.000000 0.472883
#
#
# Mechanical properties :
#
#
# Convention : Reuss Voigt Hill
#
# Bulk Modulus (GPa) = 36.48700 61.95638 49.22169
# Shear Modulus (GPa) = 7.12923 19.40940 13.26931
#
# Velocity S-wave (km/s) = 1.87843 3.09942 2.56271
# Velocity P-wave (km/s) = 4.77110 6.59340 5.75484
#
# Compressibility (1/GPa) = 0.02740703
#
# Stress axis : x y z
#
# Youngs Moduli (GPa) = 66.64427 24.08595 98.10767
#
# Poissons Ratio (x) = 0.12563 0.18328
# Poissons Ratio (y) = 0.34762 1.23324
# Poissons Ratio (z) = 0.12450 0.30277
#
# Static dielectric constant tensor:
#      x y z
#    x 1.794330 0.000000 0.000000 
#    y 0.000000 1.679040 0.000000 
#    z 0.000000 0.000000 1.752000 
# 
# From -- ./inp_files/15323.got.cif
#   From: 2010.05.17/outbox.cif.g08.bks.cpg/sg60_8_cif.got.tgz:15323.got - 2010.06.03 14:59:27.
