data_PCOD9454147
_publ_section_title
;
Structure prediction by ZEFSAII (Michael W. Deem and Ramdas Pophale) SiO2 
 PCOD9454147
Probable space group: P B C N
;
_chemical_formula_sum "Si O2"
_cell_formula_units_Z 52
_cell_length_a 9.251252
_cell_length_b 16.642270
_cell_length_c 18.390755
_cell_angle_alpha 90.000000
_cell_angle_beta 90.000000
_cell_angle_gamma 90.000000
_cell_volume 2831.474361
_symmetry_space_group_name_H-M "P B C N"
_symmetry_group_IT_number 60
_symmetry_cell_setting 'orthorhombic'
loop_
_space_group_symop_operation_xyz
x,y,z
1/2-x,1/2-y,1/2+z
1/2+x,1/2-y,-z
-x,y,1/2-z
-x,-y,-z
1/2+x,1/2+y,1/2-z
1/2-x,1/2+y,z
x,-y,1/2+z
loop_
_atom_site_type_symbol
_atom_site_label
_atom_site_fract_x
_atom_site_fract_y
_atom_site_fract_z
Si Si1 0.724156 0.485194 0.826076
Si Si2 0.253402 0.181699 0.237820
Si Si3 0.844021 0.442673 0.182414
Si Si4 0.469762 0.208979 0.365785
Si Si5 0.000000 0.304954 0.250000
Si Si6 0.523743 0.614071 0.664692
Si Si7 0.019506 0.450254 0.572803
O O1 0.682418 0.403831 0.782861
O O2 0.824166 0.529172 0.765901
O O3 0.595504 0.545324 0.846711
O O4 0.819651 0.462565 0.895477
O O5 0.326164 0.191384 0.317446
O O6 0.390886 0.189871 0.184635
O O7 0.134771 0.250275 0.226850
O O8 0.682727 0.422214 0.157012
O O9 0.939344 0.362248 0.186330
O O10 0.915450 0.510455 0.133624
O O11 0.482191 0.303766 0.380831
O O12 0.481103 0.144128 0.430043
O O13 0.500000 0.638898 0.750000
O O14 0.000000 0.500000 0.500000
#
# Coordination Sequence:
#
# PCOD9454147 Si02
#       7
#     8   8   8   8   4   8   8
#     4  10  20  36  60  85 112 147 184 231 283 339
#     4  10  19  30  53  87 112 139 176 226 277 333
#     4  11  20  34  57  85 113 142 185 235 282 333
#     4  10  18  36  52  78 114 146 181 220 286 329
#     4  12  20  30  56  94 112 134 184 236 280 332
#     4  10  19  33  58  88 113 143 180 235 289 337
#     4  11  23  38  57  78 111 157 196 232 278 334
#
# _framework density 18.364989999999999
#
# number of rings (size 3 to 8) (size 9 to 14) (size 15 to 20)
#    0.000    1.538    6.154    0.923    3.231    0.000 
#    0.000    2.308    0.000    0.000    0.000    0.000 
#    0.000    0.000    0.000    0.000    0.000    0.000 
#
# Total GULP energy -289892.302697 kJ/mol
# GULP energy per Si atom -5574.851975 kJ/mol
# Density = 1.832319 g / cm^3
# Si number density = 18.364990 Si / 1000 Ang^3
#
#
#
# Elastic Constant Matrix: (Units=GPa)
#
#
# Indices 1 2 3 4 5 6 
#
# 1 83.8311 42.3798 12.6407 0.0000 0.0000 0.0000
# 2 42.3798 122.7417 -1.6711 0.0000 0.0000 0.0000
# 3 12.6407 -1.6711 8.8519 0.0000 0.0000 0.0000
# 4 0.0000 0.0000 0.0000 7.1459 0.0000 0.0000
# 5 0.0000 0.0000 0.0000 0.0000 7.2713 0.0000
# 6 0.0000 0.0000 0.0000 0.0000 0.0000 28.3924
#
#
#
# Elastic Compliance Matrix: (Units=1/GPa)
#
#
# Indices 1 2 3 4 5 6 
#
# 1 0.020238 -0.007400 -0.030298 0.000000 0.000000 0.000000
# 2 -0.007400 0.010874 0.012621 0.000000 0.000000 0.000000
# 3 -0.030298 0.012621 0.158619 0.000000 0.000000 0.000000
# 4 0.000000 0.000000 0.000000 0.139941 0.000000 0.000000
# 5 0.000000 0.000000 0.000000 0.000000 0.137527 0.000000
# 6 0.000000 0.000000 0.000000 0.000000 0.000000 0.035221
#
#
# Mechanical properties :
#
#
# Convention : Reuss Voigt Hill
#
# Bulk Modulus (GPa) = 7.16452 35.79149 21.47800
# Shear Modulus (GPa) = 8.34583 19.36693 13.85638
#
# Velocity S-wave (km/s) = 2.13408 3.25092 2.74980
# Velocity P-wave (km/s) = 3.15944 5.79850 4.66929
#
# Compressibility (1/GPa) = 0.13957667
#
# Stress axis : x y z
#
# Youngs Moduli (GPa) = 49.41081 91.96086 6.30440
#
# Poissons Ratio (x) = 0.68054 0.19101
# Poissons Ratio (y) = 0.36566 -0.07957
# Poissons Ratio (z) = 1.49705 -1.16062
#
# Static dielectric constant tensor:
#      x y z
#    x 1.653050 0.000000 0.000000 
#    y 0.000000 1.709820 0.000000 
#    z 0.000000 0.000000 1.622570 
# 
# From -- ./inp_files/22151.got.cif
#   From: 2010.05.17/outbox.cif.g08.bks.cpg/sg60_12_cif.got.tgz:22151.got - 2010.06.03 14:59:27.
