data_PCOD9454769
_publ_section_title
;
Structure prediction by ZEFSAII (Michael W. Deem and Ramdas Pophale) SiO2 
 PCOD9454769
Probable space group: P B C N
;
_chemical_formula_sum "Si O2"
_cell_formula_units_Z 64
_cell_length_a 10.645144
_cell_length_b 7.932814
_cell_length_c 32.461771
_cell_angle_alpha 90.000000
_cell_angle_beta 90.000000
_cell_angle_gamma 90.000000
_cell_volume 2741.265005
_symmetry_space_group_name_H-M "P B C N"
_symmetry_group_IT_number 60
_symmetry_cell_setting 'orthorhombic'
loop_
_space_group_symop_operation_xyz
x,y,z
1/2-x,1/2-y,1/2+z
1/2+x,1/2-y,-z
-x,y,1/2-z
-x,-y,-z
1/2+x,1/2+y,1/2-z
1/2-x,1/2+y,z
x,-y,1/2+z
loop_
_atom_site_type_symbol
_atom_site_label
_atom_site_fract_x
_atom_site_fract_y
_atom_site_fract_z
Si Si1 0.366068 0.713016 0.848507
Si Si2 0.615156 0.190799 0.851293
Si Si3 0.124773 0.265881 0.403140
Si Si4 0.259519 0.953377 0.596980
Si Si5 0.498475 0.580301 0.922801
Si Si6 0.483771 0.934270 0.954210
Si Si7 0.626150 0.321599 0.759753
Si Si8 0.317346 0.007015 0.792175
O O1 0.260374 0.757347 0.882837
O O2 0.479326 0.639864 0.875054
O O3 0.297201 0.574534 0.820452
O O4 0.392669 0.873468 0.819831
O O5 0.470487 0.202391 0.864894
O O6 0.682305 0.014350 0.859126
O O7 0.685341 0.288611 0.888450
O O8 0.633462 0.264651 0.806549
O O9 0.107214 0.432609 0.430908
O O10 0.077884 0.095308 0.425835
O O11 0.146829 0.049290 0.573162
O O12 0.381460 0.942034 0.568676
O O13 0.450595 0.735631 0.950569
O O14 0.500000 0.000000 0.000000
O O15 0.500000 0.427318 0.750000
O O16 0.614574 0.165313 0.727692
O O17 0.752075 0.412438 0.745717
#
# Coordination Sequence:
#
# PCOD9454769 Si02
#       8
#     8   8   8   8   8   8   8   8
#     4  11  20  42  65  94 130 172 233 280 327 419
#     4  10  19  38  64  86 132 173 227 277 324 414
#     4  10  23  42  71  99 127 181 233 273 338 418
#     4  10  21  41  67  96 125 177 229 271 337 418
#     4  11  23  42  72 102 129 184 229 277 347 404
#     4  11  25  47  69 103 140 172 219 288 352 417
#     4  11  23  38  57  93 133 176 223 290 356 387
#     4  10  22  38  59  94 132 173 223 287 345 396
#
# _framework density 23.346883999999999
#
# number of rings (size 3 to 8) (size 9 to 14) (size 15 to 20)
#    0.000    1.500    2.500    3.000    1.750    1.500 
#    4.500    1.250    0.000    0.000    0.000    0.000 
#    0.000    0.000    0.000    0.000    0.000    0.000 
#
# Total GULP energy -357575.477900 kJ/mol
# GULP energy per Si atom -5587.116842 kJ/mol
# Density = 2.329375 g / cm^3
# Si number density = 23.346884 Si / 1000 Ang^3
#
#
#
# Elastic Constant Matrix: (Units=GPa)
#
#
# Indices 1 2 3 4 5 6 
#
# 1 54.8217 -0.8699 0.9567 0.0000 0.0000 0.0000
# 2 -0.8699 80.8900 -1.8347 0.0000 0.0000 0.0000
# 3 0.9567 -1.8347 73.6574 0.0000 0.0000 0.0000
# 4 0.0000 0.0000 0.0000 23.7797 0.0000 0.0000
# 5 0.0000 0.0000 0.0000 0.0000 10.3733 0.0000
# 6 0.0000 0.0000 0.0000 0.0000 0.0000 19.0110
#
#
#
# Elastic Compliance Matrix: (Units=1/GPa)
#
#
# Indices 1 2 3 4 5 6 
#
# 1 0.018248 0.000191 -0.000232 0.000000 0.000000 0.000000
# 2 0.000191 0.012371 0.000306 0.000000 0.000000 0.000000
# 3 -0.000232 0.000306 0.013587 0.000000 0.000000 0.000000
# 4 0.000000 0.000000 0.000000 0.042053 0.000000 0.000000
# 5 0.000000 0.000000 0.000000 0.000000 0.096401 0.000000
# 6 0.000000 0.000000 0.000000 0.000000 0.000000 0.052601
#
#
# Mechanical properties :
#
#
# Convention : Reuss Voigt Hill
#
# Bulk Modulus (GPa) = 22.35373 22.87481 22.61427
# Shear Modulus (GPa) = 20.02848 24.70727 22.36788
#
# Velocity S-wave (km/s) = 2.93211 3.25663 3.09862
# Velocity P-wave (km/s) = 4.58895 4.89489 4.74439
#
# Compressibility (1/GPa) = 0.04473526
#
# Stress axis : x y z
#
# Youngs Moduli (GPa) = 54.80044 80.83121 73.59974
#
# Poissons Ratio (x) = -0.01544 0.01709
# Poissons Ratio (y) = -0.01047 -0.02250
# Poissons Ratio (z) = 0.01273 -0.02471
#
# Static dielectric constant tensor:
#      x y z
#    x 1.945930 0.000000 0.000000 
#    y 0.000000 2.020200 0.000000 
#    z 0.000000 0.000000 1.829180 
# 
# From -- ./inp_files/26112.got.cif
#   From: 2010.05.17/outbox.cif.g08.bks.cpg/sg60_14_cif.got.tgz:26112.got - 2010.06.03 14:59:27.
