data_PCOD9454627
_publ_section_title
;
Structure prediction by ZEFSAII (Michael W. Deem and Ramdas Pophale) SiO2 
 PCOD9454627
Probable space group: P B C N
;
_chemical_formula_sum "Si O2"
_cell_formula_units_Z 48
_cell_length_a 7.602091
_cell_length_b 12.045199
_cell_length_c 22.464949
_cell_angle_alpha 90.000000
_cell_angle_beta 90.000000
_cell_angle_gamma 90.000000
_cell_volume 2057.086151
_symmetry_space_group_name_H-M "P B C N"
_symmetry_group_IT_number 60
_symmetry_cell_setting 'orthorhombic'
loop_
_space_group_symop_operation_xyz
x,y,z
1/2-x,1/2-y,1/2+z
1/2+x,1/2-y,-z
-x,y,1/2-z
-x,-y,-z
1/2+x,1/2+y,1/2-z
1/2-x,1/2+y,z
x,-y,1/2+z
loop_
_atom_site_type_symbol
_atom_site_label
_atom_site_fract_x
_atom_site_fract_y
_atom_site_fract_z
Si Si1 0.729184 0.780030 0.196266
Si Si2 0.024365 0.857903 0.027265
Si Si3 0.400651 0.174508 0.549115
Si Si4 0.215139 0.453514 0.410830
Si Si5 0.986762 0.337802 0.873371
Si Si6 0.850247 0.240154 0.327917
O O1 0.729574 0.885205 0.151723
O O2 0.902582 0.713496 0.180605
O O3 0.554471 0.708376 0.179218
O O4 0.709148 0.797129 0.266454
O O5 0.907541 0.952357 0.058551
O O6 0.016893 0.754351 0.074371
O O7 0.231262 0.877185 0.017554
O O8 0.931569 0.801538 0.970667
O O9 0.588718 0.116413 0.544572
O O10 0.352850 0.171575 0.618726
O O11 0.101275 0.561174 0.396996
O O12 0.789210 0.352256 0.848828
#
# Coordination Sequence:
#
# PCOD9454627 Si02
#       6
#     8   8   8   8   8   8
#     4   9  19  39  60  80 119 151 185 242 297 345
#     4  10  20  37  59  81 119 156 192 244 291 345
#     4  10  19  36  58  81 115 159 194 235 291 346
#     4  10  21  37  60  89 113 152 198 238 291 352
#     4  10  21  36  60  87 116 149 196 241 293 347
#     4   9  19  37  58  80 113 152 188 235 294 345
#
# _framework density 23.333977000000001
#
# number of rings (size 3 to 8) (size 9 to 14) (size 15 to 20)
#    0.000    2.333    1.667    0.500    0.000    2.000 
#   12.000    0.833    7.333    0.000    0.000    0.000 
#    0.000    0.000    0.000    0.000    0.000    0.000 
#
# Total GULP energy -267832.347415 kJ/mol
# GULP energy per Si atom -5579.840571 kJ/mol
# Density = 2.328087 g / cm^3
# Si number density = 23.333977 Si / 1000 Ang^3
#
#
#
# Elastic Constant Matrix: (Units=GPa)
#
#
# Indices 1 2 3 4 5 6 
#
# 1 120.1431 3.9446 21.5333 0.0000 0.0000 0.0000
# 2 3.9446 31.0885 -2.1970 0.0000 0.0000 0.0000
# 3 21.5333 -2.1970 94.6759 0.0000 0.0000 0.0000
# 4 0.0000 0.0000 0.0000 11.4487 0.0000 0.0000
# 5 0.0000 0.0000 0.0000 0.0000 35.1742 0.0000
# 6 0.0000 0.0000 0.0000 0.0000 0.0000 16.9147
#
#
#
# Elastic Compliance Matrix: (Units=1/GPa)
#
#
# Indices 1 2 3 4 5 6 
#
# 1 0.008725 -0.001249 -0.002013 0.000000 0.000000 0.000000
# 2 -0.001249 0.032398 0.001036 0.000000 0.000000 0.000000
# 3 -0.002013 0.001036 0.011044 0.000000 0.000000 0.000000
# 4 0.000000 0.000000 0.000000 0.087346 0.000000 0.000000
# 5 0.000000 0.000000 0.000000 0.000000 0.028430 0.000000
# 6 0.000000 0.000000 0.000000 0.000000 0.000000 0.059120
#
#
# Mechanical properties :
#
#
# Convention : Reuss Voigt Hill
#
# Bulk Modulus (GPa) = 20.95829 32.49659 26.72744
# Shear Modulus (GPa) = 20.20838 27.54929 23.87884
#
# Velocity S-wave (km/s) = 2.94606 3.43979 3.20246
# Velocity P-wave (km/s) = 4.53583 5.45281 5.01532
#
# Compressibility (1/GPa) = 0.04771382
#
# Stress axis : x y z
#
# Youngs Moduli (GPa) = 114.60910 30.86614 90.54409
#
# Poissons Ratio (x) = 0.03856 0.18231
# Poissons Ratio (y) = 0.14319 -0.09380
# Poissons Ratio (z) = 0.23077 -0.03198
#
# Static dielectric constant tensor:
#      x y z
#    x 1.923940 0.000000 0.000000 
#    y 0.000000 1.902870 0.000000 
#    z 0.000000 0.000000 1.927100 
# 
# From -- ./inp_files/23942.got.cif
#   From: 2010.05.17/outbox.cif.g08.bks.cpg/sg60_12_cif.got.tgz:23942.got - 2010.06.03 14:59:27.
