data_PCOD9454638
_publ_section_title
;
Structure prediction by ZEFSAII (Michael W. Deem and Ramdas Pophale) SiO2 
 PCOD9454638
Probable space group: P B C N
;
_chemical_formula_sum "Si O2"
_cell_formula_units_Z 48
_cell_length_a 18.279237
_cell_length_b 14.167593
_cell_length_c 7.982159
_cell_angle_alpha 90.000000
_cell_angle_beta 90.000000
_cell_angle_gamma 90.000000
_cell_volume 2067.161988
_symmetry_space_group_name_H-M "P B C N"
_symmetry_group_IT_number 60
_symmetry_cell_setting 'orthorhombic'
loop_
_space_group_symop_operation_xyz
x,y,z
1/2-x,1/2-y,1/2+z
1/2+x,1/2-y,-z
-x,y,1/2-z
-x,-y,-z
1/2+x,1/2+y,1/2-z
1/2-x,1/2+y,z
x,-y,1/2+z
loop_
_atom_site_type_symbol
_atom_site_label
_atom_site_fract_x
_atom_site_fract_y
_atom_site_fract_z
Si Si1 0.772077 0.525230 0.575477
Si Si2 0.074455 0.404706 0.322344
Si Si3 0.545086 0.746675 0.921549
Si Si4 0.818558 0.183559 0.735680
Si Si5 0.277169 0.636346 0.250454
Si Si6 0.907265 0.782566 0.895395
O O1 0.854760 0.533012 0.642694
O O2 0.716710 0.583079 0.696283
O O3 0.761525 0.578343 0.399978
O O4 0.746501 0.417558 0.582766
O O5 0.059733 0.347867 0.494359
O O6 0.092202 0.320218 0.190908
O O7 0.000000 0.450430 0.250000
O O8 0.500000 0.757146 0.750000
O O9 0.620818 0.695169 0.879453
O O10 0.490217 0.695494 0.051044
O O11 0.754156 0.258679 0.758947
O O12 0.860612 0.215661 0.566125
O O13 0.363503 0.644709 0.220772
#
# Coordination Sequence:
#
# PCOD9454638 Si02
#       6
#     8   8   8   8   8   8
#     4  11  24  37  58  91 123 163 208 253 316 373
#     4  10  19  36  59  88 119 157 205 248 309 369
#     4   9  18  36  63  89 116 162 208 253 313 372
#     4  10  20  39  62  86 120 161 207 263 314 367
#     4  11  23  38  59  91 124 162 209 258 310 374
#     4   9  20  36  61  89 118 160 205 254 316 368
#
# _framework density 23.22024
#
# number of rings (size 3 to 8) (size 9 to 14) (size 15 to 20)
#    0.000    2.000    3.333    0.000    2.333    1.333 
#    0.000    4.167    0.000    7.000    0.000    0.000 
#    0.000    0.000    0.000    0.000    0.000    0.000 
#
# Total GULP energy -268351.894215 kJ/mol
# GULP energy per Si atom -5590.664463 kJ/mol
# Density = 2.316739 g / cm^3
# Si number density = 23.220240 Si / 1000 Ang^3
#
#
#
# Elastic Constant Matrix: (Units=GPa)
#
#
# Indices 1 2 3 4 5 6 
#
# 1 124.8761 26.3838 14.9206 0.0000 0.0000 0.0000
# 2 26.3838 38.9719 -5.8533 0.0000 0.0000 0.0000
# 3 14.9206 -5.8533 70.8785 0.0000 0.0000 0.0000
# 4 0.0000 0.0000 0.0000 14.1318 0.0000 0.0000
# 5 0.0000 0.0000 0.0000 0.0000 31.5951 0.0000
# 6 0.0000 0.0000 0.0000 0.0000 0.0000 26.2100
#
#
#
# Elastic Compliance Matrix: (Units=1/GPa)
#
#
# Indices 1 2 3 4 5 6 
#
# 1 0.009812 -0.007040 -0.002647 0.000000 0.000000 0.000000
# 2 -0.007040 0.031033 0.004045 0.000000 0.000000 0.000000
# 3 -0.002647 0.004045 0.015000 0.000000 0.000000 0.000000
# 4 0.000000 0.000000 0.000000 0.070762 0.000000 0.000000
# 5 0.000000 0.000000 0.000000 0.000000 0.031651 0.000000
# 6 0.000000 0.000000 0.000000 0.000000 0.000000 0.038153
#
#
# Mechanical properties :
#
#
# Convention : Reuss Voigt Hill
#
# Bulk Modulus (GPa) = 22.44142 33.95873 28.20008
# Shear Modulus (GPa) = 22.46704 27.67240 25.06972
#
# Velocity S-wave (km/s) = 3.11394 3.45590 3.28937
# Velocity P-wave (km/s) = 4.75546 5.52998 5.15728
#
# Compressibility (1/GPa) = 0.04456046
#
# Stress axis : x y z
#
# Youngs Moduli (GPa) = 101.92039 32.22376 66.66736
#
# Poissons Ratio (x) = 0.22685 0.17645
# Poissons Ratio (y) = 0.71751 -0.26965
# Poissons Ratio (z) = 0.26976 -0.13034
#
# Static dielectric constant tensor:
#      x y z
#    x 1.869700 0.000000 0.000000 
#    y 0.000000 1.791790 0.000000 
#    z 0.000000 0.000000 1.969340 
# 
# From -- ./inp_files/6811.got.cif
#   From: 2010.05.17/outbox.cif.g08.bks.cpg/sg60_4_cif.got.tgz:6811.got - 2010.06.03 14:59:27.
