data_PCOD9454818
_publ_section_title
;
Structure prediction by ZEFSAII (Michael W. Deem and Ramdas Pophale) SiO2 
 PCOD9454818
Probable space group: P B C N
;
_chemical_formula_sum "Si O2"
_cell_formula_units_Z 44
_cell_length_a 6.388088
_cell_length_b 13.246192
_cell_length_c 26.204383
_cell_angle_alpha 90.000000
_cell_angle_beta 90.000000
_cell_angle_gamma 90.000000
_cell_volume 2217.358292
_symmetry_space_group_name_H-M "P B C N"
_symmetry_group_IT_number 60
_symmetry_cell_setting 'orthorhombic'
loop_
_space_group_symop_operation_xyz
x,y,z
1/2-x,1/2-y,1/2+z
1/2+x,1/2-y,-z
-x,y,1/2-z
-x,-y,-z
1/2+x,1/2+y,1/2-z
1/2-x,1/2+y,z
x,-y,1/2+z
loop_
_atom_site_type_symbol
_atom_site_label
_atom_site_fract_x
_atom_site_fract_y
_atom_site_fract_z
Si Si1 0.742632 0.536013 0.657975
Si Si2 0.304974 0.553632 0.528152
Si Si3 0.054950 0.588573 0.429841
Si Si4 0.874984 0.346036 0.296035
Si Si5 0.928104 0.797458 0.381059
Si Si6 0.000000 0.978345 0.250000
O O1 0.794233 0.477393 0.606384
O O2 0.609004 0.636647 0.646100
O O3 0.607897 0.472981 0.699924
O O4 0.963263 0.573313 0.680436
O O5 0.500000 0.500000 0.500000
O O6 0.169370 0.605349 0.483560
O O7 0.366678 0.635302 0.570203
O O8 0.156452 0.472224 0.556375
O O9 0.005555 0.690368 0.400219
O O10 0.765840 0.285852 0.341802
O O11 0.687250 0.408427 0.270437
O O12 0.000000 0.291519 0.250000
#
# Coordination Sequence:
#
# PCOD9454818 Si02
#       6
#     8   8   8   8   8   4
#     4  10  19  40  63  92 123 159 208 260 311 377
#     4  11  24  42  58  92 131 165 216 265 311 379
#     4  11  25  39  65  93 124 166 216 256 313 390
#     4   9  18  38  67  87 123 163 204 260 317 368
#     4  11  23  39  66  92 126 169 207 261 324 370
#     4   8  18  34  70  84 118 168 196 260 322 354
#
# _framework density 19.843433999999998
#
# number of rings (size 3 to 8) (size 9 to 14) (size 15 to 20)
#    0.000    1.818    3.636    0.000    2.545    1.455 
#    0.000    0.000   48.000    0.000    0.000    0.000 
#    0.000    0.000    0.000    0.000    0.000    0.000 
#
# Total GULP energy -245403.278644 kJ/mol
# GULP energy per Si atom -5577.347242 kJ/mol
# Density = 1.979827 g / cm^3
# Si number density = 19.843434 Si / 1000 Ang^3
#
#
#
# Elastic Constant Matrix: (Units=GPa)
#
#
# Indices 1 2 3 4 5 6 
#
# 1 100.7880 23.9240 46.4764 0.0000 0.0000 0.0000
# 2 23.9240 34.8343 32.3150 0.0000 0.0000 0.0000
# 3 46.4764 32.3150 115.4117 0.0000 0.0000 0.0000
# 4 0.0000 0.0000 0.0000 9.9634 0.0000 0.0000
# 5 0.0000 0.0000 0.0000 0.0000 56.5517 0.0000
# 6 0.0000 0.0000 0.0000 0.0000 0.0000 7.9131
#
#
#
# Elastic Compliance Matrix: (Units=1/GPa)
#
#
# Indices 1 2 3 4 5 6 
#
# 1 0.012911 -0.005463 -0.003670 0.000000 0.000000 0.000000
# 2 -0.005463 0.041092 -0.009306 0.000000 0.000000 0.000000
# 3 -0.003670 -0.009306 0.012748 0.000000 0.000000 0.000000
# 4 0.000000 0.000000 0.000000 0.100367 0.000000 0.000000
# 5 0.000000 0.000000 0.000000 0.000000 0.017683 0.000000
# 6 0.000000 0.000000 0.000000 0.000000 0.000000 0.126372
#
#
# Mechanical properties :
#
#
# Convention : Reuss Voigt Hill
#
# Bulk Modulus (GPa) = 33.47361 50.71833 42.09597
# Shear Modulus (GPa) = 13.96621 24.77356 19.36989
#
# Velocity S-wave (km/s) = 2.65584 3.53718 3.12771
# Velocity P-wave (km/s) = 5.12934 6.50361 5.85692
#
# Compressibility (1/GPa) = 0.02987428
#
# Stress axis : x y z
#
# Youngs Moduli (GPa) = 77.45532 24.33568 78.44387
#
# Poissons Ratio (x) = 0.13294 0.28786
# Poissons Ratio (y) = 0.42312 0.72998
# Poissons Ratio (z) = 0.28423 0.22646
#
# Static dielectric constant tensor:
#      x y z
#    x 1.710770 0.000000 0.000000 
#    y 0.000000 1.640980 0.000000 
#    z 0.000000 0.000000 1.765550 
# 
# From -- ./inp_files/24832.got.cif
#   From: 2010.05.17/outbox.cif.g08.bks.cpg/sg60_13_cif.got.tgz:24832.got - 2010.06.03 14:59:27.
