data_PCOD9454764
_publ_section_title
;
Structure prediction by ZEFSAII (Michael W. Deem and Ramdas Pophale) SiO2 
 PCOD9454764
Probable space group: P B C N
;
_chemical_formula_sum "Si O2"
_cell_formula_units_Z 64
_cell_length_a 16.412079
_cell_length_b 5.333144
_cell_length_c 32.675620
_cell_angle_alpha 90.000000
_cell_angle_beta 90.000000
_cell_angle_gamma 90.000000
_cell_volume 2860.031035
_symmetry_space_group_name_H-M "P B C N"
_symmetry_group_IT_number 60
_symmetry_cell_setting 'orthorhombic'
loop_
_space_group_symop_operation_xyz
x,y,z
1/2-x,1/2-y,1/2+z
1/2+x,1/2-y,-z
-x,y,1/2-z
-x,-y,-z
1/2+x,1/2+y,1/2-z
1/2-x,1/2+y,z
x,-y,1/2+z
loop_
_atom_site_type_symbol
_atom_site_label
_atom_site_fract_x
_atom_site_fract_y
_atom_site_fract_z
Si Si1 0.101800 0.136215 0.282223
Si Si2 0.419115 0.579489 0.699003
Si Si3 0.569467 0.354491 0.883863
Si Si4 0.427940 0.335868 0.404010
Si Si5 0.199020 0.593625 0.560773
Si Si6 0.304420 0.891699 0.965169
Si Si7 0.201787 0.130859 0.362517
Si Si8 0.978736 0.474575 0.672841
O O1 0.126115 0.035324 0.237844
O O2 0.167474 0.088487 0.316974
O O3 0.078565 0.426809 0.290897
O O4 0.013826 0.008607 0.292482
O O5 0.387549 0.490982 0.654741
O O6 0.437971 0.872162 0.692955
O O7 0.518226 0.552533 0.911117
O O8 0.626096 0.175525 0.909887
O O9 0.504645 0.189589 0.858789
O O10 0.383816 0.161766 0.437196
O O11 0.366280 0.563514 0.395692
O O12 0.436177 0.210805 0.359103
O O13 0.233246 0.313463 0.567580
O O14 0.173483 0.613179 0.513267
O O15 0.242899 0.654751 0.958661
O O16 0.231058 0.414220 0.367478
#
# Coordination Sequence:
#
# PCOD9454764 Si02
#       8
#     8   8   8   8   8   8   8   8
#     4  10  20  38  56  89 118 170 217 261 314 378
#     4   9  20  36  62  87 117 159 221 272 314 373
#     4  10  22  39  65  96 122 166 221 275 326 383
#     4  11  22  38  63  96 131 167 224 265 320 398
#     4  10  24  46  69  93 130 172 215 271 339 399
#     4  10  23  42  65  97 134 179 220 256 324 405
#     4  12  24  38  58  87 132 174 203 257 327 382
#     4  10  19  38  62  93 126 159 220 276 320 381
#
# _framework density 22.377379999999999
#
# number of rings (size 3 to 8) (size 9 to 14) (size 15 to 20)
#    0.000    1.750    3.750    1.500    5.250    4.500 
#    0.000    1.875    0.000    0.000    0.000    0.000 
#    0.000    0.000    0.000    0.000    0.000    0.000 
#
# Total GULP energy -356808.675507 kJ/mol
# GULP energy per Si atom -5575.135555 kJ/mol
# Density = 2.232645 g / cm^3
# Si number density = 22.377380 Si / 1000 Ang^3
#
#
#
# Elastic Constant Matrix: (Units=GPa)
#
#
# Indices 1 2 3 4 5 6 
#
# 1 8.8580 -12.6390 4.5852 0.0000 0.0000 0.0000
# 2 -12.6390 58.7023 -14.1273 0.0000 0.0000 0.0000
# 3 4.5852 -14.1273 75.9147 0.0000 0.0000 0.0000
# 4 0.0000 0.0000 0.0000 21.2028 0.0000 0.0000
# 5 0.0000 0.0000 0.0000 0.0000 38.5230 0.0000
# 6 0.0000 0.0000 0.0000 0.0000 0.0000 20.9620
#
#
#
# Elastic Compliance Matrix: (Units=1/GPa)
#
#
# Indices 1 2 3 4 5 6 
#
# 1 0.163832 0.034435 -0.003487 0.000000 0.000000 0.000000
# 2 0.034435 0.025072 0.002586 0.000000 0.000000 0.000000
# 3 -0.003487 0.002586 0.013865 0.000000 0.000000 0.000000
# 4 0.000000 0.000000 0.000000 0.047164 0.000000 0.000000
# 5 0.000000 0.000000 0.000000 0.000000 0.025959 0.000000
# 6 0.000000 0.000000 0.000000 0.000000 0.000000 0.047705
#
#
# Mechanical properties :
#
#
# Convention : Reuss Voigt Hill
#
# Bulk Modulus (GPa) = 3.70597 11.01251 7.35924
# Shear Modulus (GPa) = 14.43113 27.18129 20.80621
#
# Velocity S-wave (km/s) = 2.54224 3.48900 3.05255
# Velocity P-wave (km/s) = 3.20578 4.60031 3.96484
#
# Compressibility (1/GPa) = 0.26983523
#
# Stress axis : x y z
#
# Youngs Moduli (GPa) = 6.10382 39.88589 72.12664
#
# Poissons Ratio (x) = -1.37347 0.25152
# Poissons Ratio (y) = -0.21018 -0.18651
# Poissons Ratio (z) = 0.02128 -0.10314
#
# Static dielectric constant tensor:
#      x y z
#    x 1.863970 0.000000 0.000000 
#    y 0.000000 2.073190 0.000000 
#    z 0.000000 0.000000 1.840200 
# 
# From -- ./inp_files/26219.got.cif
#   From: 2010.05.17/outbox.cif.g08.bks.cpg/sg60_14_cif.got.tgz:26219.got - 2010.06.03 14:59:27.
