data_PCOD9454015
_publ_section_title
;
Structure prediction by ZEFSAII (Michael W. Deem and Ramdas Pophale) SiO2 
 PCOD9454015
Probable space group: P B C N
;
_chemical_formula_sum "Si O2"
_cell_formula_units_Z 52
_cell_length_a 18.993472
_cell_length_b 8.401828
_cell_length_c 15.741816
_cell_angle_alpha 90.000000
_cell_angle_beta 90.000000
_cell_angle_gamma 90.000000
_cell_volume 2512.077185
_symmetry_space_group_name_H-M "P B C N"
_symmetry_group_IT_number 60
_symmetry_cell_setting 'orthorhombic'
loop_
_space_group_symop_operation_xyz
x,y,z
1/2-x,1/2-y,1/2+z
1/2+x,1/2-y,-z
-x,y,1/2-z
-x,-y,-z
1/2+x,1/2+y,1/2-z
1/2-x,1/2+y,z
x,-y,1/2+z
loop_
_atom_site_type_symbol
_atom_site_label
_atom_site_fract_x
_atom_site_fract_y
_atom_site_fract_z
Si Si1 0.614196 0.614136 0.731410
Si Si2 0.152360 0.204283 0.940985
Si Si3 0.371177 0.168703 0.125554
Si Si4 0.000000 0.141073 0.250000
Si Si5 0.278867 0.584929 0.172055
Si Si6 0.904712 0.306802 0.385729
Si Si7 0.706183 0.619521 0.999698
O O1 0.622673 0.731151 0.652423
O O2 0.588122 0.703754 0.817106
O O3 0.559869 0.473836 0.713103
O O4 0.687021 0.525115 0.756631
O O5 0.098993 0.244214 0.017490
O O6 0.224110 0.301944 0.960928
O O7 0.170983 0.015994 0.943505
O O8 0.299979 0.143211 0.181658
O O9 0.346069 0.245360 0.036552
O O10 0.404046 0.996804 0.114144
O O11 0.966277 0.242100 0.326139
O O12 0.332983 0.729676 0.154454
O O13 0.275948 0.480855 0.085575
#
# Coordination Sequence:
#
# PCOD9454015 Si02
#       7
#     8   8   8   4   8   8   8
#     4  10  24  35  60  84 122 154 201 239 289 338
#     4  11  20  36  55  94 118 157 175 256 292 343
#     4  11  18  37  62  89 110 160 187 237 289 376
#     4  10  24  46  54  80 110 172 208 238 274 360
#     4   9  17  35  55  87 113 157 180 230 289 369
#     4  10  19  37  64  76 118 150 204 233 294 335
#     4  10  18  32  57  85 128 140 184 220 311 362
#
# _framework density 20.700001
#
# number of rings (size 3 to 8) (size 9 to 14) (size 15 to 20)
#    0.000    1.846    4.615    1.846    2.154    1.231 
#    0.000    0.000    0.000    2.769    0.000    0.000 
#    0.000    0.000    0.000    0.000    0.000    0.000 
#
# Total GULP energy -290171.909487 kJ/mol
# GULP energy per Si atom -5580.229029 kJ/mol
# Density = 2.065289 g / cm^3
# Si number density = 20.700001 Si / 1000 Ang^3
#
#
#
# Elastic Constant Matrix: (Units=GPa)
#
#
# Indices 1 2 3 4 5 6 
#
# 1 21.3418 -0.3641 -6.3194 0.0000 0.0000 0.0000
# 2 -0.3641 86.1405 -16.1447 0.0000 0.0000 0.0000
# 3 -6.3194 -16.1447 49.7005 0.0000 0.0000 0.0000
# 4 0.0000 0.0000 0.0000 12.9789 0.0000 0.0000
# 5 0.0000 0.0000 0.0000 0.0000 8.9969 0.0000
# 6 0.0000 0.0000 0.0000 0.0000 0.0000 22.2711
#
#
#
# Elastic Compliance Matrix: (Units=1/GPa)
#
#
# Indices 1 2 3 4 5 6 
#
# 1 0.048861 0.001460 0.006687 0.000000 0.000000 0.000000
# 2 0.001460 0.012405 0.004215 0.000000 0.000000 0.000000
# 3 0.006687 0.004215 0.022340 0.000000 0.000000 0.000000
# 4 0.000000 0.000000 0.000000 0.077048 0.000000 0.000000
# 5 0.000000 0.000000 0.000000 0.000000 0.111150 0.000000
# 6 0.000000 0.000000 0.000000 0.000000 0.000000 0.044901
#
#
# Mechanical properties :
#
#
# Convention : Reuss Voigt Hill
#
# Bulk Modulus (GPa) = 9.23102 12.39184 10.81143
# Shear Modulus (GPa) = 15.23964 20.85011 18.04488
#
# Velocity S-wave (km/s) = 2.71627 3.17717 2.95572
# Velocity P-wave (km/s) = 3.78241 4.41119 4.10884
#
# Compressibility (1/GPa) = 0.10833039
#
# Stress axis : x y z
#
# Youngs Moduli (GPa) = 20.46609 80.61170 44.76271
#
# Poissons Ratio (x) = -0.11768 -0.29932
# Poissons Ratio (y) = -0.02988 -0.18869
# Poissons Ratio (z) = -0.13685 -0.33980
#
# Static dielectric constant tensor:
#      x y z
#    x 1.772350 0.000000 0.000000 
#    y 0.000000 1.771730 0.000000 
#    z 0.000000 0.000000 1.763040 
# 
# From -- ./inp_files/17692.got.cif
#   From: 2010.05.17/outbox.cif.g08.bks.cpg/sg60_9_cif.got.tgz:17692.got - 2010.06.03 14:59:27.
