data_PCOD9454166
_publ_section_title
;
Structure prediction by ZEFSAII (Michael W. Deem and Ramdas Pophale) SiO2 
 PCOD9454166
Probable space group: P B C N
;
_chemical_formula_sum "Si O2"
_cell_formula_units_Z 60
_cell_length_a 16.150594
_cell_length_b 5.647648
_cell_length_c 30.521160
_cell_angle_alpha 90.000000
_cell_angle_beta 90.000000
_cell_angle_gamma 90.000000
_cell_volume 2783.922596
_symmetry_space_group_name_H-M "P B C N"
_symmetry_group_IT_number 60
_symmetry_cell_setting 'orthorhombic'
loop_
_space_group_symop_operation_xyz
x,y,z
1/2-x,1/2-y,1/2+z
1/2+x,1/2-y,-z
-x,y,1/2-z
-x,-y,-z
1/2+x,1/2+y,1/2-z
1/2-x,1/2+y,z
x,-y,1/2+z
loop_
_atom_site_type_symbol
_atom_site_label
_atom_site_fract_x
_atom_site_fract_y
_atom_site_fract_z
Si Si1 0.298495 0.482603 0.460678
Si Si2 0.500000 0.724092 0.750000
Si Si3 0.800044 0.025281 0.438265
Si Si4 0.967987 0.498773 0.669258
Si Si5 0.386292 0.393148 0.372436
Si Si6 0.934652 0.877794 0.865866
Si Si7 0.710670 0.342039 0.802169
Si Si8 0.142457 0.107947 0.287678
O O1 0.256892 0.742701 0.455786
O O2 0.328479 0.472732 0.510962
O O3 0.362501 0.455775 0.421166
O O4 0.521963 0.865318 0.794105
O O5 0.419278 0.584686 0.766318
O O6 0.746777 0.270799 0.431613
O O7 0.876084 0.046858 0.405101
O O8 0.895350 0.377205 0.641178
O O9 0.917669 0.676938 0.700512
O O10 0.029435 0.612788 0.633995
O O11 0.481309 0.473529 0.364063
O O12 0.329594 0.513701 0.335172
O O13 0.880325 0.882010 0.821995
O O14 0.758921 0.580814 0.816800
O O15 0.708230 0.333706 0.749366
#
# Coordination Sequence:
#
# PCOD9454166 Si02
#       8
#     8   4   8   8   8   8   8   8
#     4  10  24  46  71  98 133 171 219 271 338 407
#     4  10  18  36  62  80 118 164 212 262 320 380
#     4  10  23  45  70  97 135 181 217 270 334 396
#     4  10  21  37  63  88 123 167 217 269 333 378
#     4  10  24  40  69  97 129 175 217 280 334 390
#     4  11  24  41  65  97 132 172 226 274 331 402
#     4  12  28  41  61  92 130 178 226 274 325 385
#     4  10  22  39  55  87 121 166 215 264 319 383
#
# _framework density 21.552325
#
# number of rings (size 3 to 8) (size 9 to 14) (size 15 to 20)
#    0.000    1.600    0.000    4.400   13.067    1.600 
#    0.000    0.667    0.000    0.000    0.000    0.000 
#    0.000    0.000    0.000    0.000    0.000    0.000 
#
# Total GULP energy -334483.697634 kJ/mol
# GULP energy per Si atom -5574.728294 kJ/mol
# Density = 2.150327 g / cm^3
# Si number density = 21.552325 Si / 1000 Ang^3
#
#
#
# Elastic Constant Matrix: (Units=GPa)
#
#
# Indices 1 2 3 4 5 6 
#
# 1 25.8028 8.9842 18.4713 0.0000 0.0000 0.0000
# 2 8.9842 77.4560 -0.9903 0.0000 0.0000 0.0000
# 3 18.4713 -0.9903 71.5902 0.0000 0.0000 0.0000
# 4 0.0000 0.0000 0.0000 -47.5413 0.0000 0.0000
# 5 0.0000 0.0000 0.0000 0.0000 37.1532 0.0000
# 6 0.0000 0.0000 0.0000 0.0000 0.0000 20.1965
#
#
#
# Elastic Compliance Matrix: (Units=1/GPa)
#
#
# Indices 1 2 3 4 5 6 
#
# 1 0.050164 -0.005985 -0.013026 0.000000 0.000000 0.000000
# 2 -0.005985 0.013627 0.001733 0.000000 0.000000 0.000000
# 3 -0.013026 0.001733 0.017353 0.000000 0.000000 0.000000
# 4 0.000000 0.000000 0.000000 -0.021034 0.000000 0.000000
# 5 0.000000 0.000000 0.000000 0.000000 0.026916 0.000000
# 6 0.000000 0.000000 0.000000 0.000000 0.000000 0.049514
#
#
# Mechanical properties :
#
#
# Convention : Reuss Voigt Hill
#
# Bulk Modulus (GPa) = 21.46485 25.30884 23.38685
# Shear Modulus (GPa) = 26.79171 11.85394 19.32283
#
# Velocity S-wave (km/s) = 3.52959 2.34777 2.99750
# Velocity P-wave (km/s) = 5.15671 4.37239 4.78066
#
# Compressibility (1/GPa) = 0.04658779
#
# Stress axis : x y z
#
# Youngs Moduli (GPa) = 19.93454 73.38408 57.62617
#
# Poissons Ratio (x) = 0.43922 0.75063
# Poissons Ratio (y) = 0.11931 -0.09985
# Poissons Ratio (z) = 0.25966 -0.12716
#
# Static dielectric constant tensor:
#      x y z
#    x 1.769310 0.000000 0.000000 
#    y 0.000000 2.018690 0.000000 
#    z 0.000000 0.000000 1.771270 
# 
# From -- ./inp_files/25476.got.cif
#   From: 2010.05.17/outbox.cif.g08.bks.cpg/sg60_13_cif.got.tgz:25476.got - 2010.06.03 14:59:27.
