data_PCOD9454250
_publ_section_title
;
Structure prediction by ZEFSAII (Michael W. Deem and Ramdas Pophale) SiO2 
 PCOD9454250
Probable space group: P B C N
;
_chemical_formula_sum "Si O2"
_cell_formula_units_Z 56
_cell_length_a 10.893344
_cell_length_b 15.441583
_cell_length_c 14.695987
_cell_angle_alpha 90.000000
_cell_angle_beta 90.000000
_cell_angle_gamma 90.000000
_cell_volume 2472.018962
_symmetry_space_group_name_H-M "P B C N"
_symmetry_group_IT_number 60
_symmetry_cell_setting 'orthorhombic'
loop_
_space_group_symop_operation_xyz
x,y,z
1/2-x,1/2-y,1/2+z
1/2+x,1/2-y,-z
-x,y,1/2-z
-x,-y,-z
1/2+x,1/2+y,1/2-z
1/2-x,1/2+y,z
x,-y,1/2+z
loop_
_atom_site_type_symbol
_atom_site_label
_atom_site_fract_x
_atom_site_fract_y
_atom_site_fract_z
Si Si1 0.677289 0.220687 0.835490
Si Si2 0.500000 0.361708 0.750000
Si Si3 0.655983 0.790618 0.987690
Si Si4 0.819165 0.878862 0.599275
Si Si5 0.314712 0.035839 0.894879
Si Si6 0.939666 0.700011 0.151794
Si Si7 0.373771 0.627252 0.782016
Si Si8 0.500000 0.075186 0.750000
O O1 0.608235 0.299736 0.787618
O O2 0.723178 0.258621 0.931853
O O3 0.804206 0.186325 0.791948
O O4 0.587007 0.140117 0.810243
O O5 0.430095 0.405775 0.834181
O O6 0.542437 0.817732 0.923380
O O7 0.628608 0.704029 0.045602
O O8 0.672393 0.875088 0.050174
O O9 0.692757 0.844820 0.645888
O O10 0.754579 0.960690 0.548479
O O11 0.218684 0.057227 0.815912
O O12 0.434699 0.020707 0.831253
O O13 0.910186 0.802337 0.142572
O O14 0.000000 0.684718 0.250000
O O15 0.500000 0.588403 0.750000
#
# Coordination Sequence:
#
# PCOD9454250 Si02
#       8
#     8   4   8   8   8   8   8   4
#     4  10  19  39  73  96 129 187 227 282 351 400
#     4  11  22  44  68  99 132 182 240 281 334 437
#     4  12  24  43  70 104 148 173 227 306 342 414
#     4  12  27  43  70 106 137 187 232 283 362 407
#     4  11  26  43  66 107 141 183 235 290 351 414
#     4  11  22  45  74  97 132 192 238 274 347 429
#     4  10  18  41  69  98 129 182 239 269 336 424
#     4   9  22  44  68  95 138 190 244 277 342 423
#
# _framework density 22.653548000000001
#
# number of rings (size 3 to 8) (size 9 to 14) (size 15 to 20)
#    0.000    1.143    5.714    1.714    6.000    0.571 
#    0.000    4.286    0.000    0.000    0.000    0.000 
#    0.000    0.000    0.000    0.000    0.000    0.000 
#
# Total GULP energy -311784.380917 kJ/mol
# GULP energy per Si atom -5567.578231 kJ/mol
# Density = 2.260199 g / cm^3
# Si number density = 22.653548 Si / 1000 Ang^3
#
#
#
# Elastic Constant Matrix: (Units=GPa)
#
#
# Indices 1 2 3 4 5 6 
#
# 1 119.2811 12.6029 41.0235 0.0000 0.0000 0.0000
# 2 12.6029 78.1223 24.2398 0.0000 0.0000 0.0000
# 3 41.0235 24.2398 69.8787 0.0000 0.0000 0.0000
# 4 0.0000 0.0000 0.0000 -8.5087 0.0000 0.0000
# 5 0.0000 0.0000 0.0000 0.0000 46.3644 0.0000
# 6 0.0000 0.0000 0.0000 0.0000 0.0000 16.7289
#
#
#
# Elastic Compliance Matrix: (Units=1/GPa)
#
#
# Indices 1 2 3 4 5 6 
#
# 1 0.010509 0.000245 -0.006254 0.000000 0.000000 0.000000
# 2 0.000245 0.014350 -0.005122 0.000000 0.000000 0.000000
# 3 -0.006254 -0.005122 0.019759 0.000000 0.000000 0.000000
# 4 0.000000 0.000000 0.000000 -0.117526 0.000000 0.000000
# 5 0.000000 0.000000 0.000000 0.000000 0.021568 0.000000
# 6 0.000000 0.000000 0.000000 0.000000 0.000000 0.059777
#
#
# Mechanical properties :
#
#
# Convention : Reuss Voigt Hill
#
# Bulk Modulus (GPa) = 44.73094 47.00159 45.86626
# Shear Modulus (GPa) = 131.06184 23.54464 77.30324
#
# Velocity S-wave (km/s) = 7.61449 3.22737 5.84792
# Velocity P-wave (km/s) = 9.85372 5.88905 8.11717
#
# Compressibility (1/GPa) = 0.02235589
#
# Stress axis : x y z
#
# Youngs Moduli (GPa) = 95.15959 69.68609 50.61000
#
# Poissons Ratio (x) = -0.01710 0.31653
# Poissons Ratio (y) = -0.02334 0.25922
# Poissons Ratio (z) = 0.59517 0.35692
#
# Static dielectric constant tensor:
#      x y z
#    x 1.866690 0.000000 0.000000 
#    y 0.000000 1.964100 0.000000 
#    z 0.000000 0.000000 1.916880 
# 
# From -- ./inp_files/16213.got.cif
#   From: 2010.05.17/outbox.cif.g08.bks.cpg/sg60_9_cif.got.tgz:16213.got - 2010.06.03 14:59:27.
