data_PCOD9454212
_publ_section_title
;
Structure prediction by ZEFSAII (Michael W. Deem and Ramdas Pophale) SiO2 
 PCOD9454212
Probable space group: P B C N
;
_chemical_formula_sum "Si O2"
_cell_formula_units_Z 36
_cell_length_a 7.970987
_cell_length_b 9.448819
_cell_length_c 19.689879
_cell_angle_alpha 90.000000
_cell_angle_beta 90.000000
_cell_angle_gamma 90.000000
_cell_volume 1482.971067
_symmetry_space_group_name_H-M "P B C N"
_symmetry_group_IT_number 60
_symmetry_cell_setting 'orthorhombic'
loop_
_space_group_symop_operation_xyz
x,y,z
1/2-x,1/2-y,1/2+z
1/2+x,1/2-y,-z
-x,y,1/2-z
-x,-y,-z
1/2+x,1/2+y,1/2-z
1/2-x,1/2+y,z
x,-y,1/2+z
loop_
_atom_site_type_symbol
_atom_site_label
_atom_site_fract_x
_atom_site_fract_y
_atom_site_fract_z
Si Si1 0.908482 0.076997 0.061919
Si Si2 0.043214 0.275752 0.673554
Si Si3 0.803514 0.977562 0.831223
Si Si4 0.808039 0.345483 0.119596
Si Si5 0.000000 0.231397 0.250000
O O1 0.742220 0.996375 0.088433
O O2 0.045933 0.064484 0.120265
O O3 0.873205 0.243630 0.059233
O O4 0.000000 0.000000 0.000000
O O5 0.176864 0.144660 0.676686
O O6 0.132843 0.411112 0.640925
O O7 0.000000 0.315107 0.750000
O O8 0.874940 0.216208 0.640712
O O9 0.851695 0.883641 0.765621
O O10 0.926603 0.325468 0.186891
#
# Coordination Sequence:
#
# PCOD9454212 Si02
#       5
#     8   8   8   8   4
#     4  10  24  46  65  93 138 181 235 278 331 413
#     4  11  21  38  59  96 133 170 215 269 356 407
#     4  10  22  37  61  93 132 170 215 283 327 407
#     4  10  23  41  69  99 132 181 223 292 347 407
#     4  10  18  38  64 100 136 160 226 284 358 404
#
# _framework density 24.275590000000001
#
# number of rings (size 3 to 8) (size 9 to 14) (size 15 to 20)
#    0.000    1.778    3.333    0.000    0.000    7.111 
#    4.000    2.222    0.000    0.000    0.000    0.000 
#    0.000    0.000    0.000    0.000    0.000    0.000 
#
# Total GULP energy -200898.806243 kJ/mol
# GULP energy per Si atom -5580.522396 kJ/mol
# Density = 2.422034 g / cm^3
# Si number density = 24.275590 Si / 1000 Ang^3
#
#
#
# Elastic Constant Matrix: (Units=GPa)
#
#
# Indices 1 2 3 4 5 6 
#
# 1 105.0707 35.7277 -3.0551 0.0000 0.0000 0.0000
# 2 35.7277 107.3623 8.5191 0.0000 0.0000 0.0000
# 3 -3.0551 8.5191 20.0188 0.0000 0.0000 0.0000
# 4 0.0000 0.0000 0.0000 8.6090 0.0000 0.0000
# 5 0.0000 0.0000 0.0000 0.0000 29.0276 0.0000
# 6 0.0000 0.0000 0.0000 0.0000 0.0000 53.2300
#
#
#
# Elastic Compliance Matrix: (Units=1/GPa)
#
#
# Indices 1 2 3 4 5 6 
#
# 1 0.010942 -0.003906 0.003332 0.000000 0.000000 0.000000
# 2 -0.003906 0.011034 -0.005292 0.000000 0.000000 0.000000
# 3 0.003332 -0.005292 0.052713 0.000000 0.000000 0.000000
# 4 0.000000 0.000000 0.000000 0.116157 0.000000 0.000000
# 5 0.000000 0.000000 0.000000 0.000000 0.034450 0.000000
# 6 0.000000 0.000000 0.000000 0.000000 0.000000 0.018786
#
#
# Mechanical properties :
#
#
# Convention : Reuss Voigt Hill
#
# Bulk Modulus (GPa) = 15.88335 34.98168 25.43252
# Shear Modulus (GPa) = 18.06360 30.92400 24.49380
#
# Velocity S-wave (km/s) = 2.73079 3.57301 3.17990
# Velocity P-wave (km/s) = 4.06203 5.60922 4.89711
#
# Compressibility (1/GPa) = 0.06295900
#
# Stress axis : x y z
#
# Youngs Moduli (GPa) = 91.38781 90.62998 18.97054
#
# Poissons Ratio (x) = 0.35398 -0.06321
# Poissons Ratio (y) = 0.35694 0.10038
# Poissons Ratio (z) = -0.30451 0.47957
#
# Static dielectric constant tensor:
#      x y z
#    x 2.195230 0.000000 0.000000 
#    y 0.000000 2.107400 0.000000 
#    z 0.000000 0.000000 2.930270 
# 
# From -- ./inp_files/21908.got.cif
#   From: 2010.05.17/outbox.cif.g08.bks.cpg/sg60_11_cif.got.tgz:21908.got - 2010.06.03 14:59:27.
