data_PCOD9454690
_publ_section_title
;
Structure prediction by ZEFSAII (Michael W. Deem and Ramdas Pophale) SiO2 
 PCOD9454690
Probable space group: P B C N
;
_chemical_formula_sum "Si O2"
_cell_formula_units_Z 60
_cell_length_a 25.337986
_cell_length_b 20.956734
_cell_length_c 5.525011
_cell_angle_alpha 90.000000
_cell_angle_beta 90.000000
_cell_angle_gamma 90.000000
_cell_volume 2933.788757
_symmetry_space_group_name_H-M "P B C N"
_symmetry_group_IT_number 60
_symmetry_cell_setting 'orthorhombic'
loop_
_space_group_symop_operation_xyz
x,y,z
1/2-x,1/2-y,1/2+z
1/2+x,1/2-y,-z
-x,y,1/2-z
-x,-y,-z
1/2+x,1/2+y,1/2-z
1/2-x,1/2+y,z
x,-y,1/2+z
loop_
_atom_site_type_symbol
_atom_site_label
_atom_site_fract_x
_atom_site_fract_y
_atom_site_fract_z
Si Si1 0.282970 0.518099 0.413177
Si Si2 0.026971 0.213641 0.003684
Si Si3 0.704428 0.339819 0.560350
Si Si4 0.194065 0.715521 0.609931
Si Si5 0.000000 0.339573 0.250000
Si Si6 0.373872 0.274758 0.240452
Si Si7 0.837893 0.471955 0.996787
Si Si8 0.608298 0.153654 0.562213
O O1 0.307438 0.518062 0.683515
O O2 0.285039 0.591541 0.329521
O O3 0.224472 0.488876 0.469822
O O4 0.088728 0.201795 0.956248
O O5 0.000000 0.194879 0.750000
O O6 0.000000 0.186857 0.250000
O O7 0.021727 0.289825 0.048478
O O8 0.754739 0.328086 0.388239
O O9 0.704051 0.280275 0.742973
O O10 0.649421 0.331295 0.419583
O O11 0.176480 0.737351 0.345089
O O12 0.144846 0.677566 0.718884
O O13 0.948377 0.373288 0.144853
O O14 0.402348 0.219596 0.084023
O O15 0.858313 0.487356 0.267878
O O16 0.855801 0.400011 0.936103
#
# Coordination Sequence:
#
# PCOD9454690 Si02
#       8
#     8   8   8   8   4   8   8   8
#     4  10  23  40  60  80 116 173 222 262 296 368
#     4  10  19  37  57  86 122 160 194 234 313 393
#     4  11  24  35  57  89 126 164 213 262 326 378
#     4  11  21  35  54  88 124 160 197 259 327 398
#     4  10  20  36  58  90 116 158 202 264 316 382
#     4  11  22  36  58  92 128 160 195 263 318 399
#     4  10  23  40  58  82 110 163 223 270 302 362
#     4  11  23  37  63  87 120 167 211 262 329 381
#
# _framework density 20.451370000000001
#
# number of rings (size 3 to 8) (size 9 to 14) (size 15 to 20)
#    0.400    1.067    4.000    1.600    9.333    0.000 
#    0.000    0.667    0.000    0.000    0.000    0.000 
#    0.000    3.200    0.000    1.067    0.000    0.000 
#
# Total GULP energy -334057.452591 kJ/mol
# GULP energy per Si atom -5567.624210 kJ/mol
# Density = 2.040482 g / cm^3
# Si number density = 20.451370 Si / 1000 Ang^3
#
#
#
# Elastic Constant Matrix: (Units=GPa)
#
#
# Indices 1 2 3 4 5 6 
#
# 1 68.2121 12.3434 6.4009 0.0000 0.0000 0.0000
# 2 12.3434 55.7069 -9.3446 0.0000 0.0000 0.0000
# 3 6.4009 -9.3446 81.4205 0.0000 0.0000 0.0000
# 4 0.0000 0.0000 0.0000 18.3931 0.0000 0.0000
# 5 0.0000 0.0000 0.0000 0.0000 28.6041 0.0000
# 6 0.0000 0.0000 0.0000 0.0000 0.0000 11.6641
#
#
#
# Elastic Compliance Matrix: (Units=1/GPa)
#
#
# Indices 1 2 3 4 5 6 
#
# 1 0.015485 -0.003707 -0.001643 0.000000 0.000000 0.000000
# 2 -0.003707 0.019191 0.002494 0.000000 0.000000 0.000000
# 3 -0.001643 0.002494 0.012697 0.000000 0.000000 0.000000
# 4 0.000000 0.000000 0.000000 0.054368 0.000000 0.000000
# 5 0.000000 0.000000 0.000000 0.000000 0.034960 0.000000
# 6 0.000000 0.000000 0.000000 0.000000 0.000000 0.085733
#
#
# Mechanical properties :
#
#
# Convention : Reuss Voigt Hill
#
# Bulk Modulus (GPa) = 24.00270 24.90433 24.45352
# Shear Modulus (GPa) = 20.65835 24.79491 22.72663
#
# Velocity S-wave (km/s) = 3.18169 3.48571 3.33716
# Velocity P-wave (km/s) = 5.02588 5.32954 5.17994
#
# Compressibility (1/GPa) = 0.04166197
#
# Stress axis : x y z
#
# Youngs Moduli (GPa) = 64.57839 52.10837 78.75695
#
# Poissons Ratio (x) = 0.19315 0.12938
# Poissons Ratio (y) = 0.23937 -0.19641
# Poissons Ratio (z) = 0.10609 -0.12995
#
# Static dielectric constant tensor:
#      x y z
#    x 1.823800 0.000000 0.000000 
#    y 0.000000 1.713100 0.000000 
#    z 0.000000 0.000000 1.859120 
# 
# From -- ./inp_files/2421.got.cif
#   From: 2010.05.17/outbox.cif.g08.bks.cpg/sg60_2_cif.got.tgz:2421.got - 2010.06.03 14:59:27.
