data_PCOD9454619
_publ_section_title
;
Structure prediction by ZEFSAII (Michael W. Deem and Ramdas Pophale) SiO2 
 PCOD9454619
Probable space group: P B C N
;
_chemical_formula_sum "Si O2"
_cell_formula_units_Z 56
_cell_length_a 10.145674
_cell_length_b 14.111195
_cell_length_c 19.965189
_cell_angle_alpha 90.000000
_cell_angle_beta 90.000000
_cell_angle_gamma 90.000000
_cell_volume 2858.367878
_symmetry_space_group_name_H-M "P B C N"
_symmetry_group_IT_number 60
_symmetry_cell_setting 'orthorhombic'
loop_
_space_group_symop_operation_xyz
x,y,z
1/2-x,1/2-y,1/2+z
1/2+x,1/2-y,-z
-x,y,1/2-z
-x,-y,-z
1/2+x,1/2+y,1/2-z
1/2-x,1/2+y,z
x,-y,1/2+z
loop_
_atom_site_type_symbol
_atom_site_label
_atom_site_fract_x
_atom_site_fract_y
_atom_site_fract_z
Si Si1 0.750000 0.250000 0.689469
Si Si2 0.249999 0.250000 0.540628
Si Si3 0.048812 0.395954 0.101113
Si Si4 0.500000 0.159464 0.750000
Si Si5 0.451189 0.895954 0.601113
Si Si6 0.757284 0.109605 0.571170
Si Si7 0.000000 0.659464 0.250000
Si Si8 0.242715 0.890396 0.928830
O O1 0.627681 0.221088 0.734055
O O2 0.789930 0.164133 0.639822
O O3 0.872319 0.278912 0.734055
O O4 0.710069 0.335868 0.639822
O O5 0.357060 0.191002 0.582394
O O6 0.142938 0.308997 0.582393
O O7 0.310774 0.328878 0.490422
O O8 0.189226 0.171121 0.490421
O O9 0.025953 0.395714 0.181100
O O10 0.102337 0.500000 0.081060
O O11 0.903653 0.385374 0.068480
O O12 0.474046 0.895714 0.681100
O O13 0.596348 0.885374 0.568480
O O14 0.795500 0.000000 0.571218
#
# Coordination Sequence:
#
# PCOD9454619 Si02
#       8
#     8   8   8   4   8   8   4   8
#     4   9  19  34  58  82 111 145 186 232 274 323
#     4  11  19  30  54  82 105 131 176 234 276 311
#     4  10  20  34  55  80 106 141 185 228 269 325
#     4  10  19  36  57  82 112 146 185 228 273 324
#     4  10  20  34  55  80 106 141 185 228 269 325
#     4   9  19  36  56  78 107 145 184 223 273 331
#     4  10  19  36  57  82 112 146 185 228 273 324
#     4   9  19  36  56  78 107 145 184 223 273 331
#
# _framework density 19.591598999999999
#
# number of rings (size 3 to 8) (size 9 to 14) (size 15 to 20)
#    0.000    2.286    0.000    3.000    0.000    3.429 
#    0.000    0.714    0.000   72.000    0.000    0.000 
#    0.000    0.000    0.000    0.000    0.000    0.000 
#
# Total GULP energy -312524.188694 kJ/mol
# GULP energy per Si atom -5580.789084 kJ/mol
# Density = 1.954701 g / cm^3
# Si number density = 19.591599 Si / 1000 Ang^3
#
#
#
# Elastic Constant Matrix: (Units=GPa)
#
#
# Indices 1 2 3 4 5 6 
#
# 1 53.1444 41.9616 27.6114 0.0000 0.0000 0.0000
# 2 41.9616 167.3320 43.7337 0.0000 0.0000 0.0000
# 3 27.6114 43.7337 90.5579 0.0000 0.0000 0.0000
# 4 0.0000 0.0000 0.0000 -8.4062 0.0000 0.0000
# 5 0.0000 0.0000 0.0000 0.0000 27.9453 0.0000
# 6 0.0000 0.0000 0.0000 0.0000 0.0000 15.7630
#
#
#
# Elastic Compliance Matrix: (Units=1/GPa)
#
#
# Indices 1 2 3 4 5 6 
#
# 1 0.025562 -0.005005 -0.005377 0.000000 0.000000 0.000000
# 2 -0.005005 0.007819 -0.002250 0.000000 0.000000 0.000000
# 3 -0.005377 -0.002250 0.013769 0.000000 0.000000 0.000000
# 4 0.000000 0.000000 0.000000 -0.118960 0.000000 0.000000
# 5 0.000000 0.000000 0.000000 0.000000 0.035784 0.000000
# 6 0.000000 0.000000 0.000000 0.000000 0.000000 0.063440
#
#
# Mechanical properties :
#
#
# Convention : Reuss Voigt Hill
#
# Bulk Modulus (GPa) = 45.69104 59.73864 52.71484
# Shear Modulus (GPa) = 83.37030 20.24226 51.80628
#
# Velocity S-wave (km/s) = 6.53043 3.21785 5.14787
# Velocity P-wave (km/s) = 8.95736 6.66065 7.89299
#
# Compressibility (1/GPa) = 0.02188613
#
# Stress axis : x y z
#
# Youngs Moduli (GPa) = 39.12068 127.88834 72.62790
#
# Poissons Ratio (x) = 0.64006 0.39051
# Poissons Ratio (y) = 0.19579 0.16343
# Poissons Ratio (z) = 0.21035 0.28778
#
# Static dielectric constant tensor:
#      x y z
#    x 1.674940 0.000000 0.000000 
#    y 0.000000 1.699120 0.000000 
#    z 0.000000 0.000000 1.726340 
# 
# From -- ./inp_files/22257.got.cif
#   From: 2010.05.17/outbox.cif.g08.bks.cpg/sg60_12_cif.got.tgz:22257.got - 2010.06.03 14:59:27.
