data_PCOD9454900
_publ_section_title
;
Structure prediction by ZEFSAII (Michael W. Deem and Ramdas Pophale) SiO2 
 PCOD9454900
Probable space group: P B C N
;
_chemical_formula_sum "Si O2"
_cell_formula_units_Z 40
_cell_length_a 17.282205
_cell_length_b 19.512853
_cell_length_c 5.303603
_cell_angle_alpha 90.000000
_cell_angle_beta 90.000000
_cell_angle_gamma 90.000000
_cell_volume 1788.508188
_symmetry_space_group_name_H-M "P B C N"
_symmetry_group_IT_number 60
_symmetry_cell_setting 'orthorhombic'
loop_
_space_group_symop_operation_xyz
x,y,z
1/2-x,1/2-y,1/2+z
1/2+x,1/2-y,-z
-x,y,1/2-z
-x,-y,-z
1/2+x,1/2+y,1/2-z
1/2-x,1/2+y,z
x,-y,1/2+z
loop_
_atom_site_type_symbol
_atom_site_label
_atom_site_fract_x
_atom_site_fract_y
_atom_site_fract_z
Si Si1 0.183102 0.963345 0.999269
Si Si2 0.500000 0.166257 0.750000
Si Si3 0.000000 0.423731 0.750000
Si Si4 0.329592 0.913689 0.749498
Si Si5 0.151849 0.276724 0.076171
Si Si6 0.713583 0.347905 0.153630
O O1 0.169771 0.890561 0.131331
O O2 0.156157 0.015184 0.220694
O O3 0.275982 0.954725 0.948024
O O4 0.498488 0.119429 0.505165
O O5 0.422178 0.209396 0.747126
O O6 0.087974 0.452723 0.726727
O O7 0.272226 0.895464 0.513327
O O8 0.347829 0.837179 0.862828
O O9 0.230217 0.292147 0.223661
O O10 0.153812 0.198073 0.997561
#
# Coordination Sequence:
#
# PCOD9454900 Si02
#       6
#     8   4   4   8   8   8
#     4  11  23  39  55  77 109 150 197 240 278 319
#     4  10  20  34  52  79 126 147 174 220 282 366
#     4  10  20  34  52  79 110 157 182 216 292 328
#     4  10  20  35  56  77 115 146 186 233 275 345
#     4  10  20  32  55  90 115 146 181 226 295 340
#     4  11  19  34  58  85 113 144 187 237 275 344
#
# _framework density 22.365008
#
# number of rings (size 3 to 8) (size 9 to 14) (size 15 to 20)
#    0.000    1.600    6.000    0.000    0.000    0.000 
#    0.000    1.000    0.000    0.000    0.000    1.400 
#    0.000    0.200    0.000    0.000    0.000    0.000 
#
# Total GULP energy -222737.401608 kJ/mol
# GULP energy per Si atom -5568.435040 kJ/mol
# Density = 2.231410 g / cm^3
# Si number density = 22.365008 Si / 1000 Ang^3
#
#
#
# Elastic Constant Matrix: (Units=GPa)
#
#
# Indices 1 2 3 4 5 6 
#
# 1 -8.2813 -8.3338 -2.4456 0.0000 0.0000 0.0000
# 2 -8.3338 65.0585 17.8059 0.0000 0.0000 0.0000
# 3 -2.4456 17.8059 117.2144 0.0000 0.0000 0.0000
# 4 0.0000 0.0000 0.0000 20.5061 0.0000 0.0000
# 5 0.0000 0.0000 0.0000 0.0000 19.8908 0.0000
# 6 0.0000 0.0000 0.0000 0.0000 0.0000 12.2298
#
#
#
# Elastic Compliance Matrix: (Units=1/GPa)
#
#
# Indices 1 2 3 4 5 6 
#
# 1 -0.106962 -0.013659 -0.000157 0.000000 0.000000 0.000000
# 2 -0.013659 0.014293 -0.002456 0.000000 0.000000 0.000000
# 3 -0.000157 -0.002456 0.008901 0.000000 0.000000 0.000000
# 4 0.000000 0.000000 0.000000 0.048766 0.000000 0.000000
# 5 0.000000 0.000000 0.000000 0.000000 0.050275 0.000000
# 6 0.000000 0.000000 0.000000 0.000000 0.000000 0.081768
#
#
# Mechanical properties :
#
#
# Convention : Reuss Voigt Hill
#
# Bulk Modulus (GPa) = -8.59765 20.89386 6.14811
# Shear Modulus (GPa) = 55.05775 21.65633 38.35704
#
# Velocity S-wave (km/s) = 4.96702 3.11515 4.14581
# Velocity P-wave (km/s) = 5.38910 4.72243 5.06674
#
# Compressibility (1/GPa) = -0.11631082
#
# Stress axis : x y z
#
# Youngs Moduli (GPa) = -9.34910 69.96228 112.34401
#
# Poissons Ratio (x) = 0.95559 0.01761
# Poissons Ratio (y) = -0.12770 0.27595
# Poissons Ratio (z) = -0.00147 0.17185
#
# Static dielectric constant tensor:
#      x y z
#    x 1.824820 0.000000 0.000000 
#    y 0.000000 1.895870 0.000000 
#    z 0.000000 0.000000 1.938410 
# 
# From -- ./inp_files/1701.got.cif
#   From: 2010.05.17/outbox.cif.g08.bks.cpg/sg60_1_cif.got.tgz:1701.got - 2010.06.03 14:59:27.
