data_PCOD9454241
_publ_section_title
;
Structure prediction by ZEFSAII (Michael W. Deem and Ramdas Pophale) SiO2 
 PCOD9454241
Probable space group: P B C N
;
_chemical_formula_sum "Si O2"
_cell_formula_units_Z 64
_cell_length_a 8.884138
_cell_length_b 15.179629
_cell_length_c 20.010133
_cell_angle_alpha 90.000000
_cell_angle_beta 90.000000
_cell_angle_gamma 90.000000
_cell_volume 2698.524892
_symmetry_space_group_name_H-M "P B C N"
_symmetry_group_IT_number 60
_symmetry_cell_setting 'orthorhombic'
loop_
_space_group_symop_operation_xyz
x,y,z
1/2-x,1/2-y,1/2+z
1/2+x,1/2-y,-z
-x,y,1/2-z
-x,-y,-z
1/2+x,1/2+y,1/2-z
1/2-x,1/2+y,z
x,-y,1/2+z
loop_
_atom_site_type_symbol
_atom_site_label
_atom_site_fract_x
_atom_site_fract_y
_atom_site_fract_z
Si Si1 0.819016 0.034905 0.760943
Si Si2 0.190679 0.022598 0.385671
Si Si3 0.397996 0.803385 0.192798
Si Si4 0.072082 0.575944 0.175025
Si Si5 0.289147 0.138277 0.503917
Si Si6 0.554824 0.916830 0.085973
Si Si7 0.718436 0.194743 0.414393
Si Si8 0.114139 0.983524 0.561503
O O1 0.722922 0.124407 0.778658
O O2 0.000000 0.050563 0.750000
O O3 0.765355 0.993507 0.690382
O O4 0.740271 0.963916 0.811176
O O5 0.238868 0.107146 0.430313
O O6 0.011622 0.018393 0.382089
O O7 0.272036 0.941584 0.424256
O O8 0.500000 0.761606 0.250000
O O9 0.519295 0.849737 0.144600
O O10 0.317437 0.736711 0.144496
O O11 0.004153 0.506787 0.121271
O O12 0.075486 0.664647 0.130327
O O13 0.000000 0.583964 0.250000
O O14 0.465165 0.119139 0.521204
O O15 0.224831 0.232240 0.527047
O O16 0.217172 0.069271 0.557117
O O17 0.796558 0.106593 0.440489
O O18 0.000000 0.000000 0.500000
#
# Coordination Sequence:
#
# PCOD9454241 Si02
#       8
#     8   8   8   8   8   8   8   8
#     4  11  22  37  71  99 133 182 231 288 355 421
#     4  11  21  39  68 102 129 177 239 278 345 424
#     4  10  21  41  64  99 139 174 229 289 352 408
#     4  11  21  41  63  96 138 182 228 288 356 417
#     4  10  23  43  71  98 132 187 228 285 363 411
#     4  10  18  40  68  93 130 180 225 281 347 418
#     4  11  24  42  71  97 137 183 235 287 353 424
#     4  10  23  46  67  95 136 179 222 286 351 412
#
# _framework density 23.716660999999998
#
# number of rings (size 3 to 8) (size 9 to 14) (size 15 to 20)
#    0.000    1.500    3.750    1.875    3.500    2.000 
#    4.500    5.000    2.750    0.000    0.000    0.000 
#    0.000    0.000    0.000    0.000    0.000    0.000 
#
# Total GULP energy -356458.549936 kJ/mol
# GULP energy per Si atom -5569.664843 kJ/mol
# Density = 2.366268 g / cm^3
# Si number density = 23.716661 Si / 1000 Ang^3
#
#
#
# Elastic Constant Matrix: (Units=GPa)
#
#
# Indices 1 2 3 4 5 6 
#
# 1 108.3631 6.9278 13.6591 0.0000 0.0000 0.0000
# 2 6.9278 95.3926 26.4894 0.0000 0.0000 0.0000
# 3 13.6591 26.4894 121.1519 0.0000 0.0000 0.0000
# 4 0.0000 0.0000 0.0000 26.5292 0.0000 0.0000
# 5 0.0000 0.0000 0.0000 0.0000 24.4397 0.0000
# 6 0.0000 0.0000 0.0000 0.0000 0.0000 15.5337
#
#
#
# Elastic Compliance Matrix: (Units=1/GPa)
#
#
# Indices 1 2 3 4 5 6 
#
# 1 0.009376 -0.000412 -0.000967 0.000000 0.000000 0.000000
# 2 -0.000412 0.011179 -0.002398 0.000000 0.000000 0.000000
# 3 -0.000967 -0.002398 0.008887 0.000000 0.000000 0.000000
# 4 0.000000 0.000000 0.000000 0.037694 0.000000 0.000000
# 5 0.000000 0.000000 0.000000 0.000000 0.040917 0.000000
# 6 0.000000 0.000000 0.000000 0.000000 0.000000 0.064376
#
#
# Mechanical properties :
#
#
# Convention : Reuss Voigt Hill
#
# Bulk Modulus (GPa) = 45.68625 46.56223 46.12424
# Shear Modulus (GPa) = 26.69793 31.82262 29.26027
#
# Velocity S-wave (km/s) = 3.35879 3.66701 3.51628
# Velocity P-wave (km/s) = 5.86064 6.13226 5.99799
#
# Compressibility (1/GPa) = 0.02188842
#
# Stress axis : x y z
#
# Youngs Moduli (GPa) = 106.64977 89.45536 112.51925
#
# Poissons Ratio (x) = 0.03690 0.10880
# Poissons Ratio (y) = 0.04399 0.26979
# Poissons Ratio (z) = 0.10313 0.21449
#
# Static dielectric constant tensor:
#      x y z
#    x 2.133770 0.000000 0.000000 
#    y 0.000000 1.913920 0.000000 
#    z 0.000000 0.000000 2.169140 
# 
# From -- ./inp_files/24094.got.cif
#   From: 2010.05.17/outbox.cif.g08.bks.cpg/sg60_13_cif.got.tgz:24094.got - 2010.06.03 14:59:27.
