data_PCOD9454955
_publ_section_title
;
Structure prediction by ZEFSAII (Michael W. Deem and Ramdas Pophale) SiO2 
 PCOD9454955
Probable space group: P B C N
;
_chemical_formula_sum "Si O2"
_cell_formula_units_Z 64
_cell_length_a 7.247253
_cell_length_b 20.282050
_cell_length_c 20.121319
_cell_angle_alpha 90.000000
_cell_angle_beta 90.000000
_cell_angle_gamma 90.000000
_cell_volume 2957.615531
_symmetry_space_group_name_H-M "P B C N"
_symmetry_group_IT_number 60
_symmetry_cell_setting 'orthorhombic'
loop_
_space_group_symop_operation_xyz
x,y,z
1/2-x,1/2-y,1/2+z
1/2+x,1/2-y,-z
-x,y,1/2-z
-x,-y,-z
1/2+x,1/2+y,1/2-z
1/2-x,1/2+y,z
x,-y,1/2+z
loop_
_atom_site_type_symbol
_atom_site_label
_atom_site_fract_x
_atom_site_fract_y
_atom_site_fract_z
Si Si1 0.703749 0.225343 0.669449
Si Si2 0.320252 0.429287 0.965356
Si Si3 0.784969 0.121490 0.169246
Si Si4 0.732708 0.614408 0.316616
Si Si5 0.243344 0.268145 0.183795
Si Si6 0.235215 0.957584 0.553140
Si Si7 0.164117 0.330463 0.468857
Si Si8 0.268568 0.305691 0.043325
O O1 0.761088 0.301473 0.659418
O O2 0.479928 0.227692 0.676075
O O3 0.781941 0.206753 0.741850
O O4 0.744697 0.182268 0.604794
O O5 0.218942 0.415847 0.896121
O O6 0.512062 0.462661 0.943952
O O7 0.212221 0.473808 0.018344
O O8 0.371200 0.358841 0.997933
O O9 0.720543 0.096203 0.240845
O O10 0.009228 0.118175 0.174493
O O11 0.794050 0.690757 0.323153
O O12 0.798767 0.565255 0.373936
O O13 0.324611 0.305225 0.120408
O O14 0.282120 0.897987 0.503638
O O15 0.216959 0.267599 0.514077
O O16 0.943846 0.326908 0.462175
#
# Coordination Sequence:
#
# PCOD9454955 Si02
#       8
#     8   8   8   8   8   8   8   8
#     4   8  14  26  47  73  96 124 166 207 242 292
#     4  10  20  34  51  74 104 135 169 209 250 295
#     4   8  13  25  47  71  94 127 171 206 237 291
#     4   8  13  25  47  71  94 127 171 206 237 291
#     4   8  14  26  47  73  96 124 166 207 242 292
#     4  10  20  34  51  74 104 135 169 209 250 295
#     4  11  20  32  53  77 102 129 164 208 253 300
#     4  11  20  32  53  77 102 129 164 208 253 300
#
# _framework density 21.639052
#
# number of rings (size 3 to 8) (size 9 to 14) (size 15 to 20)
#    0.000    2.750    2.500    2.250    0.000    0.500 
#    0.000    1.250    0.000    6.750    0.000    0.000 
#    0.000    0.000    0.000    0.000    0.000    0.000 
#
# Total GULP energy -357160.643925 kJ/mol
# GULP energy per Si atom -5580.635061 kJ/mol
# Density = 2.158980 g / cm^3
# Si number density = 21.639052 Si / 1000 Ang^3
#
#
#
# Elastic Constant Matrix: (Units=GPa)
#
#
# Indices 1 2 3 4 5 6 
#
# 1 56.0158 -11.5904 -17.4666 0.0000 0.0000 0.0000
# 2 -11.5904 70.5810 46.8913 0.0000 0.0000 0.0000
# 3 -17.4666 46.8913 193.1563 0.0000 0.0000 0.0000
# 4 0.0000 0.0000 0.0000 30.4545 0.0000 0.0000
# 5 0.0000 0.0000 0.0000 0.0000 7.2892 0.0000
# 6 0.0000 0.0000 0.0000 0.0000 0.0000 10.3388
#
#
#
# Elastic Compliance Matrix: (Units=1/GPa)
#
#
# Indices 1 2 3 4 5 6 
#
# 1 0.018683 0.002320 0.001126 0.000000 0.000000 0.000000
# 2 0.002320 0.017181 -0.003961 0.000000 0.000000 0.000000
# 3 0.001126 -0.003961 0.006241 0.000000 0.000000 0.000000
# 4 0.000000 0.000000 0.000000 0.032836 0.000000 0.000000
# 5 0.000000 0.000000 0.000000 0.000000 0.137188 0.000000
# 6 0.000000 0.000000 0.000000 0.000000 0.000000 0.096723
#
#
# Mechanical properties :
#
#
# Convention : Reuss Voigt Hill
#
# Bulk Modulus (GPa) = 24.34594 39.49131 31.91863
# Shear Modulus (GPa) = 15.45246 29.74444 22.59845
#
# Velocity S-wave (km/s) = 2.67517 3.71154 3.23513
# Velocity P-wave (km/s) = 4.56260 6.05451 5.36071
#
# Compressibility (1/GPa) = 0.04107461
#
# Stress axis : x y z
#
# Youngs Moduli (GPa) = 53.52371 58.20510 160.24089
#
# Poissons Ratio (x) = -0.13502 -0.18048
# Poissons Ratio (y) = -0.12416 0.63472
# Poissons Ratio (z) = -0.06028 0.23055
#
# Static dielectric constant tensor:
#      x y z
#    x 1.882630 0.000000 0.000000 
#    y 0.000000 1.743110 0.000000 
#    z 0.000000 0.000000 1.828790 
# 
# From -- ./inp_files/22429.got.cif
#   From: 2010.05.17/outbox.cif.g08.bks.cpg/sg60_12_cif.got.tgz:22429.got - 2010.06.03 14:59:27.
