data_PCOD9454597
_publ_section_title
;
Structure prediction by ZEFSAII (Michael W. Deem and Ramdas Pophale) SiO2 
 PCOD9454597
Probable space group: P B C N
;
_chemical_formula_sum "Si O2"
_cell_formula_units_Z 48
_cell_length_a 7.313821
_cell_length_b 19.499322
_cell_length_c 14.015683
_cell_angle_alpha 90.000000
_cell_angle_beta 90.000000
_cell_angle_gamma 90.000000
_cell_volume 1998.840334
_symmetry_space_group_name_H-M "P B C N"
_symmetry_group_IT_number 60
_symmetry_cell_setting 'orthorhombic'
loop_
_space_group_symop_operation_xyz
x,y,z
1/2-x,1/2-y,1/2+z
1/2+x,1/2-y,-z
-x,y,1/2-z
-x,-y,-z
1/2+x,1/2+y,1/2-z
1/2-x,1/2+y,z
x,-y,1/2+z
loop_
_atom_site_type_symbol
_atom_site_label
_atom_site_fract_x
_atom_site_fract_y
_atom_site_fract_z
Si Si1 0.168323 0.517378 0.885031
Si Si2 0.890585 0.345572 0.017469
Si Si3 0.258783 0.500316 0.673516
Si Si4 0.762888 0.839628 0.814879
Si Si5 0.209142 0.898009 0.021200
Si Si6 0.367578 0.710365 0.380055
O O1 0.198458 0.582472 0.952430
O O2 0.252105 0.526601 0.781155
O O3 0.951025 0.503305 0.866810
O O4 0.245467 0.451664 0.937643
O O5 0.811513 0.283571 0.079480
O O6 0.101501 0.359108 0.045999
O O7 0.873508 0.331850 0.904405
O O8 0.315992 0.420670 0.678813
O O9 0.361925 0.554377 0.606385
O O10 0.735500 0.821485 0.702552
O O11 0.928993 0.789215 0.838502
O O12 0.097586 0.838957 0.970911
#
# Coordination Sequence:
#
# PCOD9454597 Si02
#       6
#     8   8   8   8   8   8
#     4  10  19  35  65  94 108 154 212 252 282 339
#     4  11  22  41  62  87 122 155 205 252 289 356
#     4  10  19  35  64  89 118 150 205 254 287 344
#     4  11  22  41  58  85 123 160 194 245 307 360
#     4  11  20  39  64  92 113 162 207 247 293 349
#     4  11  26  37  60  90 127 160 191 240 319 369
#
# _framework density 24.013923999999999
#
# number of rings (size 3 to 8) (size 9 to 14) (size 15 to 20)
#    0.000    1.333    5.000    2.000    0.000    8.000 
#    0.000    0.000    0.000    2.000    0.000    0.000 
#    0.000    0.000    0.000    0.000    0.000    0.000 
#
# Total GULP energy -268090.221645 kJ/mol
# GULP energy per Si atom -5585.212951 kJ/mol
# Density = 2.395927 g / cm^3
# Si number density = 24.013924 Si / 1000 Ang^3
#
#
#
# Elastic Constant Matrix: (Units=GPa)
#
#
# Indices 1 2 3 4 5 6 
#
# 1 20.5980 8.4123 15.3142 0.0000 0.0000 0.0000
# 2 8.4123 133.3510 60.6796 0.0000 0.0000 0.0000
# 3 15.3142 60.6796 132.8808 0.0000 0.0000 0.0000
# 4 0.0000 0.0000 0.0000 31.6581 0.0000 0.0000
# 5 0.0000 0.0000 0.0000 0.0000 31.2371 0.0000
# 6 0.0000 0.0000 0.0000 0.0000 0.0000 25.0255
#
#
#
# Elastic Compliance Matrix: (Units=1/GPa)
#
#
# Indices 1 2 3 4 5 6 
#
# 1 0.053152 -0.000714 -0.005800 0.000000 0.000000 0.000000
# 2 -0.000714 0.009476 -0.004245 0.000000 0.000000 0.000000
# 3 -0.005800 -0.004245 0.010132 0.000000 0.000000 0.000000
# 4 0.000000 0.000000 0.000000 0.031587 0.000000 0.000000
# 5 0.000000 0.000000 0.000000 0.000000 0.032013 0.000000
# 6 0.000000 0.000000 0.000000 0.000000 0.000000 0.039959
#
#
# Mechanical properties :
#
#
# Convention : Reuss Voigt Hill
#
# Bulk Modulus (GPa) = 19.51480 50.62690 35.07085
# Shear Modulus (GPa) = 23.26476 31.07905 27.17190
#
# Velocity S-wave (km/s) = 3.11594 3.60142 3.36744
# Velocity P-wave (km/s) = 4.59233 6.19852 5.45487
#
# Compressibility (1/GPa) = 0.05124316
#
# Stress axis : x y z
#
# Youngs Moduli (GPa) = 18.81398 105.53493 98.69476
#
# Poissons Ratio (x) = 0.07535 0.57239
# Poissons Ratio (y) = 0.01343 0.41893
# Poissons Ratio (z) = 0.10911 0.44796
#
# Static dielectric constant tensor:
#      x y z
#    x 2.075140 0.000000 0.000000 
#    y 0.000000 1.842900 0.000000 
#    z 0.000000 0.000000 2.003690 
# 
# From -- ./inp_files/14960.got.cif
#   From: 2010.05.17/outbox.cif.g08.bks.cpg/sg60_8_cif.got.tgz:14960.got - 2010.06.03 14:59:27.
