data_PCOD9454555
_publ_section_title
;
Structure prediction by ZEFSAII (Michael W. Deem and Ramdas Pophale) SiO2 
 PCOD9454555
Probable space group: P B C N
;
_chemical_formula_sum "Si O2"
_cell_formula_units_Z 40
_cell_length_a 21.295217
_cell_length_b 17.227091
_cell_length_c 5.274041
_cell_angle_alpha 90.000000
_cell_angle_beta 90.000000
_cell_angle_gamma 90.000000
_cell_volume 1934.806418
_symmetry_space_group_name_H-M "P B C N"
_symmetry_group_IT_number 60
_symmetry_cell_setting 'orthorhombic'
loop_
_space_group_symop_operation_xyz
x,y,z
1/2-x,1/2-y,1/2+z
1/2+x,1/2-y,-z
-x,y,1/2-z
-x,-y,-z
1/2+x,1/2+y,1/2-z
1/2-x,1/2+y,z
x,-y,1/2+z
loop_
_atom_site_type_symbol
_atom_site_label
_atom_site_fract_x
_atom_site_fract_y
_atom_site_fract_z
Si Si1 0.929594 0.532998 0.026807
Si Si2 0.750333 0.702050 0.028961
Si Si3 0.889645 0.699610 0.107888
Si Si4 0.070905 0.969685 0.803123
Si Si5 0.888979 0.195833 0.106274
O O1 0.898459 0.487405 0.259266
O O2 0.931913 0.623978 0.081290
O O3 0.000000 0.500000 0.000000
O O4 0.748581 0.773485 0.233269
O O5 0.817822 0.666908 0.095811
O O6 0.682994 0.664550 0.082714
O O7 0.899557 0.747819 0.365965
O O8 0.896681 0.756103 0.866026
O O9 0.069192 0.880625 0.887723
O O10 0.000000 0.998665 0.750000
O O11 0.101603 0.980646 0.527602
#
# Coordination Sequence:
#
# PCOD9454555 Si02
#       5
#     8   8   8   8   8
#     4  10  21  38  53  72 110 153 176 222 279 315
#     4   8  16  30  52  78 109 135 170 231 278 302
#     4  10  19  35  57  80 107 144 185 226 266 320
#     4  10  21  38  55  75 113 144 166 219 284 321
#     4  10  19  35  57  85 104 137 191 226 261 329
#
# _framework density 20.673904
#
# number of rings (size 3 to 8) (size 9 to 14) (size 15 to 20)
#    0.000    2.400    0.000    2.400    0.000    0.000 
#   10.800    2.000    0.000    0.000    0.000    0.000 
#    0.000    0.000    0.000    0.000    0.000    0.000 
#
# Total GULP energy -222740.454905 kJ/mol
# GULP energy per Si atom -5568.511373 kJ/mol
# Density = 2.062685 g / cm^3
# Si number density = 20.673904 Si / 1000 Ang^3
#
#
#
# Elastic Constant Matrix: (Units=GPa)
#
#
# Indices 1 2 3 4 5 6 
#
# 1 35.5407 26.5443 6.5786 0.0000 0.0000 0.0000
# 2 26.5443 94.4082 45.7380 0.0000 0.0000 0.0000
# 3 6.5786 45.7380 184.4986 0.0000 0.0000 0.0000
# 4 0.0000 0.0000 0.0000 29.6497 0.0000 0.0000
# 5 0.0000 0.0000 0.0000 0.0000 8.5424 0.0000
# 6 0.0000 0.0000 0.0000 0.0000 0.0000 -19.1660
#
#
#
# Elastic Compliance Matrix: (Units=1/GPa)
#
#
# Indices 1 2 3 4 5 6 
#
# 1 0.035927 -0.010775 0.001390 0.000000 0.000000 0.000000
# 2 -0.010775 0.015270 -0.003401 0.000000 0.000000 0.000000
# 3 0.001390 -0.003401 0.006214 0.000000 0.000000 0.000000
# 4 0.000000 0.000000 0.000000 0.033727 0.000000 0.000000
# 5 0.000000 0.000000 0.000000 0.000000 0.117063 0.000000
# 6 0.000000 0.000000 0.000000 0.000000 0.000000 -0.052176
#
#
# Mechanical properties :
#
#
# Convention : Reuss Voigt Hill
#
# Bulk Modulus (GPa) = 31.40878 52.46326 41.93602
# Shear Modulus (GPa) = 26.01329 19.51100 22.76215
#
# Velocity S-wave (km/s) = 3.55105 3.07538 3.32174
# Velocity P-wave (km/s) = 5.66028 6.16784 5.91950
#
# Compressibility (1/GPa) = 0.03183823
#
# Stress axis : x y z
#
# Youngs Moduli (GPa) = 27.83437 65.48965 160.93469
#
# Poissons Ratio (x) = 0.70564 -0.22372
# Poissons Ratio (y) = 0.29991 0.54737
# Poissons Ratio (z) = -0.03869 0.22274
#
# Static dielectric constant tensor:
#      x y z
#    x 1.801650 0.000000 0.000000 
#    y 0.000000 1.726390 0.000000 
#    z 0.000000 0.000000 1.878140 
# 
# From -- ./inp_files/2298.got.cif
#   From: 2010.05.17/outbox.cif.g08.bks.cpg/sg60_2_cif.got.tgz:2298.got - 2010.06.03 14:59:27.
