data_PCOD9454243
_publ_section_title
;
Structure prediction by ZEFSAII (Michael W. Deem and Ramdas Pophale) SiO2 
 PCOD9454243
Probable space group: P B C N
;
_chemical_formula_sum "Si O2"
_cell_formula_units_Z 40
_cell_length_a 9.716967
_cell_length_b 19.736194
_cell_length_c 9.340248
_cell_angle_alpha 90.000000
_cell_angle_beta 90.000000
_cell_angle_gamma 90.000000
_cell_volume 1791.234894
_symmetry_space_group_name_H-M "P B C N"
_symmetry_group_IT_number 60
_symmetry_cell_setting 'orthorhombic'
loop_
_space_group_symop_operation_xyz
x,y,z
1/2-x,1/2-y,1/2+z
1/2+x,1/2-y,-z
-x,y,1/2-z
-x,-y,-z
1/2+x,1/2+y,1/2-z
1/2-x,1/2+y,z
x,-y,1/2+z
loop_
_atom_site_type_symbol
_atom_site_label
_atom_site_fract_x
_atom_site_fract_y
_atom_site_fract_z
Si Si1 0.777509 0.905699 0.706241
Si Si2 0.093480 0.465760 0.379966
Si Si3 0.222981 0.837360 0.401654
Si Si4 0.664368 0.270832 0.800945
Si Si5 0.517388 0.421673 0.978718
O O1 0.732511 0.829196 0.737298
O O2 0.880006 0.916281 0.841759
O O3 0.869054 0.896206 0.565152
O O4 0.687012 0.972289 0.681989
O O5 0.171940 0.399449 0.437933
O O6 0.000000 0.441660 0.250000
O O7 0.000000 0.500000 0.500000
O O8 0.282019 0.798632 0.265742
O O9 0.187028 0.784222 0.529904
O O10 0.083339 0.880608 0.392600
O O11 0.500000 0.278697 0.750000
O O12 0.500000 0.500000 0.000000
#
# Coordination Sequence:
#
# PCOD9454243 Si02
#       5
#     8   8   8   8   8
#     4  10  21  40  70  96 133 179 230 291 343 410
#     4  12  26  45  71 105 144 188 234 297 365 425
#     4  11  24  44  70 103 140 188 230 291 355 420
#     4  11  23  46  67  98 143 185 232 291 351 429
#     4  10  18  40  69  99 129 170 237 295 338 398
#
# _framework density 22.330964000000002
#
# number of rings (size 3 to 8) (size 9 to 14) (size 15 to 20)
#    0.000    1.200    6.000    3.000    0.000    3.200 
#    0.000    7.000    0.000    0.000    0.000    0.000 
#    0.000    0.000    0.000    0.000    0.000    0.000 
#
# Total GULP energy -222671.361188 kJ/mol
# GULP energy per Si atom -5566.784030 kJ/mol
# Density = 2.228014 g / cm^3
# Si number density = 22.330964 Si / 1000 Ang^3
#
#
#
# Elastic Constant Matrix: (Units=GPa)
#
#
# Indices 1 2 3 4 5 6 
#
# 1 59.9593 19.6540 37.4958 0.0000 0.0000 0.0000
# 2 19.6540 122.8745 26.4688 0.0000 0.0000 0.0000
# 3 37.4958 26.4688 71.9124 0.0000 0.0000 0.0000
# 4 0.0000 0.0000 0.0000 42.1116 0.0000 0.0000
# 5 0.0000 0.0000 0.0000 0.0000 35.6452 0.0000
# 6 0.0000 0.0000 0.0000 0.0000 0.0000 34.0305
#
#
#
# Elastic Compliance Matrix: (Units=1/GPa)
#
#
# Indices 1 2 3 4 5 6 
#
# 1 0.024934 -0.001290 -0.012526 0.000000 0.000000 0.000000
# 2 -0.001290 0.008906 -0.002605 0.000000 0.000000 0.000000
# 3 -0.012526 -0.002605 0.021396 0.000000 0.000000 0.000000
# 4 0.000000 0.000000 0.000000 0.023746 0.000000 0.000000
# 5 0.000000 0.000000 0.000000 0.000000 0.028054 0.000000
# 6 0.000000 0.000000 0.000000 0.000000 0.000000 0.029385
#
#
# Mechanical properties :
#
#
# Convention : Reuss Voigt Hill
#
# Bulk Modulus (GPa) = 44.65656 46.88704 45.77180
# Shear Modulus (GPa) = 28.29187 33.76597 31.02892
#
# Velocity S-wave (km/s) = 3.56326 3.89275 3.73165
# Velocity P-wave (km/s) = 6.08031 6.42236 6.25367
#
# Compressibility (1/GPa) = 0.02239313
#
# Stress axis : x y z
#
# Youngs Moduli (GPa) = 40.10585 112.28440 46.73782
#
# Poissons Ratio (x) = 0.14484 0.58544
# Poissons Ratio (y) = 0.05174 0.12177
# Poissons Ratio (z) = 0.50237 0.29255
#
# Static dielectric constant tensor:
#      x y z
#    x 1.874150 0.000000 0.000000 
#    y 0.000000 2.185860 0.000000 
#    z 0.000000 0.000000 1.870460 
# 
# From -- ./inp_files/9952.got.cif
#   From: 2010.05.17/outbox.cif.g08.bks.cpg/sg60_5_cif.got.tgz:9952.got - 2010.06.03 14:59:27.
