data_PCOD9454373
_publ_section_title
;
Structure prediction by ZEFSAII (Michael W. Deem and Ramdas Pophale) SiO2 
 PCOD9454373
Probable space group: P B C N
;
_chemical_formula_sum "Si O2"
_cell_formula_units_Z 64
_cell_length_a 19.743260
_cell_length_b 9.842316
_cell_length_c 18.384461
_cell_angle_alpha 90.000000
_cell_angle_beta 90.000000
_cell_angle_gamma 90.000000
_cell_volume 3572.457501
_symmetry_space_group_name_H-M "P B C N"
_symmetry_group_IT_number 60
_symmetry_cell_setting 'orthorhombic'
loop_
_space_group_symop_operation_xyz
x,y,z
1/2-x,1/2-y,1/2+z
1/2+x,1/2-y,-z
-x,y,1/2-z
-x,-y,-z
1/2+x,1/2+y,1/2-z
1/2-x,1/2+y,z
x,-y,1/2+z
loop_
_atom_site_type_symbol
_atom_site_label
_atom_site_fract_x
_atom_site_fract_y
_atom_site_fract_z
Si Si1 0.271504 0.711188 0.005570
Si Si2 0.320788 0.980015 0.055589
Si Si3 0.823348 0.580978 0.294605
Si Si4 0.260115 0.183437 0.769685
Si Si5 0.638952 0.397951 0.122284
Si Si6 0.561287 0.968393 0.055390
Si Si7 0.942938 0.332512 0.689373
Si Si8 0.646254 0.714206 0.099520
O O1 0.330629 0.672870 0.949462
O O2 0.206719 0.770355 0.960403
O O3 0.297608 0.824732 0.060942
O O4 0.244522 0.572675 0.039952
O O5 0.353027 0.055325 0.125152
O O6 0.370741 0.984005 0.986676
O O7 0.789057 0.439524 0.275723
O O8 0.769000 0.700038 0.282578
O O9 0.878563 0.614392 0.234289
O O10 0.199160 0.122645 0.818865
O O11 0.317087 0.238000 0.825735
O O12 0.576225 0.310292 0.151684
O O13 0.626476 0.556649 0.107917
O O14 0.584000 0.814789 0.078483
O O15 0.545506 0.056674 0.126719
O O16 0.500000 0.000000 0.000000
O O17 0.000000 0.317641 0.750000
#
# Coordination Sequence:
#
# PCOD9454373 Si02
#       8
#     8   8   8   8   8   8   8   8
#     4  10  19  32  58  91 119 150 191 237 309 361
#     4  11  21  35  57  89 125 152 188 249 301 360
#     4  11  21  35  57  90 125 148 188 245 296 363
#     4  10  19  32  58  92 119 150 187 237 306 359
#     4  10  19  35  61  86 117 152 196 243 297 365
#     4  11  23  40  61  84 114 161 210 249 290 353
#     4  11  23  40  61  82 114 165 205 244 293 353
#     4  10  19  35  61  88 116 152 197 245 295 366
#
# _framework density 17.914838
#
# number of rings (size 3 to 8) (size 9 to 14) (size 15 to 20)
#    0.000    1.500    5.000    1.500    0.000    0.000 
#    0.000    1.250    0.000    0.000    0.000    0.000 
#    0.000    0.000    0.000    0.000    0.000    0.000 
#
# Total GULP energy -356750.096894 kJ/mol
# GULP energy per Si atom -5574.220264 kJ/mol
# Density = 1.787406 g / cm^3
# Si number density = 17.914838 Si / 1000 Ang^3
#
#
#
# Elastic Constant Matrix: (Units=GPa)
#
#
# Indices 1 2 3 4 5 6 
#
# 1 61.2462 52.4772 23.0063 0.0000 0.0000 0.0000
# 2 52.4772 157.2626 40.8366 0.0000 0.0000 0.0000
# 3 23.0063 40.8366 64.3272 0.0000 0.0000 0.0000
# 4 0.0000 0.0000 0.0000 15.5938 0.0000 0.0000
# 5 0.0000 0.0000 0.0000 0.0000 30.7015 0.0000
# 6 0.0000 0.0000 0.0000 0.0000 0.0000 16.5665
#
#
#
# Elastic Compliance Matrix: (Units=1/GPa)
#
#
# Indices 1 2 3 4 5 6 
#
# 1 0.023754 -0.006850 -0.004147 0.000000 0.000000 0.000000
# 2 -0.006850 0.009589 -0.003638 0.000000 0.000000 0.000000
# 3 -0.004147 -0.003638 0.019338 0.000000 0.000000 0.000000
# 4 0.000000 0.000000 0.000000 0.064128 0.000000 0.000000
# 5 0.000000 0.000000 0.000000 0.000000 0.032572 0.000000
# 6 0.000000 0.000000 0.000000 0.000000 0.000000 0.060363
#
#
# Mechanical properties :
#
#
# Convention : Reuss Voigt Hill
#
# Bulk Modulus (GPa) = 42.71259 57.27512 49.99385
# Shear Modulus (GPa) = 20.25789 23.67342 21.96565
#
# Velocity S-wave (km/s) = 3.36637 3.63911 3.50539
# Velocity P-wave (km/s) = 6.24529 7.04966 6.65963
#
# Compressibility (1/GPa) = 0.02341230
#
# Stress axis : x y z
#
# Youngs Moduli (GPa) = 42.09743 104.28539 51.71155
#
# Poissons Ratio (x) = 0.71433 0.21446
# Poissons Ratio (y) = 0.28836 0.18811
# Poissons Ratio (z) = 0.17459 0.37935
#
# Static dielectric constant tensor:
#      x y z
#    x 1.611200 0.000000 0.000000 
#    y 0.000000 1.596290 0.000000 
#    z 0.000000 0.000000 1.658440 
# 
# From -- ./inp_files/23220.got.cif
#   From: 2010.05.17/outbox.cif.g08.bks.cpg/sg60_12_cif.got.tgz:23220.got - 2010.06.03 14:59:27.
