data_PCOD9454945
_publ_section_title
;
Structure prediction by ZEFSAII (Michael W. Deem and Ramdas Pophale) SiO2 
 PCOD9454945
Probable space group: P B C N
;
_chemical_formula_sum "Si O2"
_cell_formula_units_Z 60
_cell_length_a 14.462980
_cell_length_b 7.983728
_cell_length_c 24.041971
_cell_angle_alpha 90.000000
_cell_angle_beta 90.000000
_cell_angle_gamma 90.000000
_cell_volume 2776.090290
_symmetry_space_group_name_H-M "P B C N"
_symmetry_group_IT_number 60
_symmetry_cell_setting 'orthorhombic'
loop_
_space_group_symop_operation_xyz
x,y,z
1/2-x,1/2-y,1/2+z
1/2+x,1/2-y,-z
-x,y,1/2-z
-x,-y,-z
1/2+x,1/2+y,1/2-z
1/2-x,1/2+y,z
x,-y,1/2+z
loop_
_atom_site_type_symbol
_atom_site_label
_atom_site_fract_x
_atom_site_fract_y
_atom_site_fract_z
Si Si1 0.693714 0.012913 0.529820
Si Si2 0.118150 0.780403 0.160999
Si Si3 0.665154 0.888197 0.218733
Si Si4 0.169052 0.195257 0.392160
Si Si5 0.000000 0.414371 0.750000
Si Si6 0.506088 0.526902 0.586315
Si Si7 0.288285 0.606707 0.203404
Si Si8 0.874966 0.821528 0.985263
O O1 0.748036 0.907907 0.578395
O O2 0.636044 0.876549 0.495385
O O3 0.642102 0.165270 0.561030
O O4 0.773117 0.096589 0.491468
O O5 0.062619 0.698283 0.211090
O O6 0.212179 0.672511 0.159212
O O7 0.048723 0.814833 0.111008
O O8 0.149126 0.965485 0.177995
O O9 0.696581 0.796007 0.163007
O O10 0.657067 0.760281 0.270342
O O11 0.566666 0.974921 0.211548
O O12 0.736320 0.023283 0.243483
O O13 0.084198 0.070896 0.378304
O O14 0.566057 0.598937 0.535587
O O15 0.430482 0.389432 0.567496
#
# Coordination Sequence:
#
# PCOD9454945 Si02
#       8
#     8   8   8   8   4   8   8   8
#     4   9  19  37  58  81 112 145 191 228 285 344
#     4  10  22  40  56  83 112 154 187 233 278 343
#     4  10  20  36  55  82 113 149 186 237 271 336
#     4  10  20  33  58  86 109 150 187 230 285 337
#     4  10  24  34  56  84 116 146 190 230 294 314
#     4  10  22  36  57  85 116 145 187 238 290 330
#     4   9  21  39  57  77 116 152 194 225 276 340
#     4   9  20  39  57  83 114 144 187 242 281 339
#
# _framework density 21.613132
#
# number of rings (size 3 to 8) (size 9 to 14) (size 15 to 20)
#    0.000    2.400    0.000    0.800    5.600    1.600 
#    4.800    0.000    0.000    0.000    0.000    0.000 
#    0.000    0.000    0.000    0.000    0.000    0.000 
#
# Total GULP energy -334769.090279 kJ/mol
# GULP energy per Si atom -5579.484838 kJ/mol
# Density = 2.156394 g / cm^3
# Si number density = 21.613132 Si / 1000 Ang^3
#
#
#
# Elastic Constant Matrix: (Units=GPa)
#
#
# Indices 1 2 3 4 5 6 
#
# 1 42.3552 8.2928 3.0719 0.0000 0.0000 0.0000
# 2 8.2928 68.2523 -10.3645 0.0000 0.0000 0.0000
# 3 3.0719 -10.3645 20.7771 0.0000 0.0000 0.0000
# 4 0.0000 0.0000 0.0000 26.5937 0.0000 0.0000
# 5 0.0000 0.0000 0.0000 0.0000 14.3164 0.0000
# 6 0.0000 0.0000 0.0000 0.0000 0.0000 32.4652
#
#
#
# Elastic Compliance Matrix: (Units=1/GPa)
#
#
# Indices 1 2 3 4 5 6 
#
# 1 0.024770 -0.003858 -0.005587 0.000000 0.000000 0.000000
# 2 -0.003858 0.016453 0.008778 0.000000 0.000000 0.000000
# 3 -0.005587 0.008778 0.053335 0.000000 0.000000 0.000000
# 4 0.000000 0.000000 0.000000 0.037603 0.000000 0.000000
# 5 0.000000 0.000000 0.000000 0.000000 0.069850 0.000000
# 6 0.000000 0.000000 0.000000 0.000000 0.000000 0.030802
#
#
# Mechanical properties :
#
#
# Convention : Reuss Voigt Hill
#
# Bulk Modulus (GPa) = 10.72679 14.82056 12.77367
# Shear Modulus (GPa) = 18.85212 23.36736 21.10974
#
# Velocity S-wave (km/s) = 2.95660 3.29167 3.12862
# Velocity P-wave (km/s) = 4.07789 4.61724 4.35592
#
# Compressibility (1/GPa) = 0.09322457
#
# Stress axis : x y z
#
# Youngs Moduli (GPa) = 40.37071 60.77815 18.74951
#
# Poissons Ratio (x) = 0.23449 0.10475
# Poissons Ratio (y) = 0.15575 -0.16458
# Poissons Ratio (z) = 0.22555 -0.53351
#
# Static dielectric constant tensor:
#      x y z
#    x 1.821350 0.000000 0.000000 
#    y 0.000000 1.792220 0.000000 
#    z 0.000000 0.000000 1.809820 
# 
# From -- ./inp_files/24426.got.cif
#   From: 2010.05.17/outbox.cif.g08.bks.cpg/sg60_13_cif.got.tgz:24426.got - 2010.06.03 14:59:27.
