data_PCOD9454208
_publ_section_title
;
Structure prediction by ZEFSAII (Michael W. Deem and Ramdas Pophale) SiO2 
 PCOD9454208
Probable space group: P B C N
;
_chemical_formula_sum "Si O2"
_cell_formula_units_Z 52
_cell_length_a 12.329717
_cell_length_b 9.805773
_cell_length_c 17.849557
_cell_angle_alpha 90.000000
_cell_angle_beta 90.000000
_cell_angle_gamma 90.000000
_cell_volume 2158.054388
_symmetry_space_group_name_H-M "P B C N"
_symmetry_group_IT_number 60
_symmetry_cell_setting 'orthorhombic'
loop_
_space_group_symop_operation_xyz
x,y,z
1/2-x,1/2-y,1/2+z
1/2+x,1/2-y,-z
-x,y,1/2-z
-x,-y,-z
1/2+x,1/2+y,1/2-z
1/2-x,1/2+y,z
x,-y,1/2+z
loop_
_atom_site_type_symbol
_atom_site_label
_atom_site_fract_x
_atom_site_fract_y
_atom_site_fract_z
Si Si1 0.277383 0.371864 0.509482
Si Si2 0.190624 0.486038 0.284894
Si Si3 0.065147 0.355472 0.410677
Si Si4 0.180545 0.381059 0.057179
Si Si5 0.392238 0.464373 0.889917
Si Si6 0.778847 0.788359 0.801487
Si Si7 0.000000 0.939697 0.750000
O O1 0.157964 0.394899 0.469975
O O2 0.258343 0.494668 0.570920
O O3 0.375375 0.444487 0.462533
O O4 0.445282 0.099494 0.567960
O O5 0.090687 0.428157 0.331751
O O6 0.185771 0.609624 0.226330
O O7 0.276885 0.533795 0.347078
O O8 0.234649 0.356225 0.239230
O O9 0.295951 0.211648 0.485673
O O10 0.069142 0.190783 0.403608
O O11 0.213492 0.249255 0.110300
O O12 0.471066 0.521410 0.824967
O O13 0.894717 0.849839 0.773912
#
# Coordination Sequence:
#
# PCOD9454208 Si02
#       7
#     8   8   8   8   8   8   4
#     4  11  25  43  63 101 137 179 226 275 330 408
#     4  10  20  36  64  93 123 167 227 280 343 384
#     4  11  21  42  67  95 126 186 227 278 336 411
#     4  12  24  42  68  96 141 181 227 274 342 412
#     4  10  20  39  66  91 128 167 225 275 328 396
#     4  11  20  36  61  91 125 168 214 285 333 395
#     4  10  18  38  62  92 110 166 226 262 334 388
#
# _framework density 24.095777999999999
#
# number of rings (size 3 to 8) (size 9 to 14) (size 15 to 20)
#    0.000    1.231    6.154    1.385    0.000    0.615 
#    0.000    0.000    0.000   11.077    0.000    0.000 
#    0.000    0.000    0.000    0.000    0.000    0.000 
#
# Total GULP energy -289676.871588 kJ/mol
# GULP energy per Si atom -5570.709069 kJ/mol
# Density = 2.404094 g / cm^3
# Si number density = 24.095778 Si / 1000 Ang^3
#
#
#
# Elastic Constant Matrix: (Units=GPa)
#
#
# Indices 1 2 3 4 5 6 
#
# 1 52.0307 28.6621 31.9522 0.0000 0.0000 0.0000
# 2 28.6621 120.0880 71.4157 0.0000 0.0000 0.0000
# 3 31.9522 71.4157 341.5325 0.0000 0.0000 0.0000
# 4 0.0000 0.0000 0.0000 39.8859 0.0000 0.0000
# 5 0.0000 0.0000 0.0000 0.0000 32.2618 0.0000
# 6 0.0000 0.0000 0.0000 0.0000 0.0000 27.9735
#
#
#
# Elastic Compliance Matrix: (Units=1/GPa)
#
#
# Indices 1 2 3 4 5 6 
#
# 1 0.022499 -0.004703 -0.001121 0.000000 0.000000 0.000000
# 2 -0.004703 0.010493 -0.001754 0.000000 0.000000 0.000000
# 3 -0.001121 -0.001754 0.003400 0.000000 0.000000 0.000000
# 4 0.000000 0.000000 0.000000 0.025072 0.000000 0.000000
# 5 0.000000 0.000000 0.000000 0.000000 0.030996 0.000000
# 6 0.000000 0.000000 0.000000 0.000000 0.000000 0.035748
#
#
# Mechanical properties :
#
#
# Convention : Reuss Voigt Hill
#
# Bulk Modulus (GPa) = 47.09369 86.41235 66.75302
# Shear Modulus (GPa) = 33.23525 45.46566 39.35045
#
# Velocity S-wave (km/s) = 3.71792 4.34853 4.04553
# Velocity P-wave (km/s) = 6.16582 7.82003 7.04167
#
# Compressibility (1/GPa) = 0.02123427
#
# Stress axis : x y z
#
# Youngs Moduli (GPa) = 44.44671 95.30276 294.14454
#
# Poissons Ratio (x) = 0.44821 0.32988
# Poissons Ratio (y) = 0.20903 0.51596
# Poissons Ratio (z) = 0.04985 0.16717
#
# Static dielectric constant tensor:
#      x y z
#    x 1.884780 0.000000 0.000000 
#    y 0.000000 1.657890 0.000000 
#    z 0.000000 0.000000 1.868530 
# 
# From -- ./inp_files/20610.got.cif
#   From: 2010.05.17/outbox.cif.g08.bks.cpg/sg60_11_cif.got.tgz:20610.got - 2010.06.03 14:59:27.
