data_PCOD9454301
_publ_section_title
;
Structure prediction by ZEFSAII (Michael W. Deem and Ramdas Pophale) SiO2 
 PCOD9454301
Probable space group: P B C N
;
_chemical_formula_sum "Si O2"
_cell_formula_units_Z 32
_cell_length_a 14.966042
_cell_length_b 20.942070
_cell_length_c 5.284634
_cell_angle_alpha 90.000000
_cell_angle_beta 90.000000
_cell_angle_gamma 90.000000
_cell_volume 1656.309456
_symmetry_space_group_name_H-M "P B C N"
_symmetry_group_IT_number 60
_symmetry_cell_setting 'orthorhombic'
loop_
_space_group_symop_operation_xyz
x,y,z
1/2-x,1/2-y,1/2+z
1/2+x,1/2-y,-z
-x,y,1/2-z
-x,-y,-z
1/2+x,1/2+y,1/2-z
1/2-x,1/2+y,z
x,-y,1/2+z
loop_
_atom_site_type_symbol
_atom_site_label
_atom_site_fract_x
_atom_site_fract_y
_atom_site_fract_z
Si Si1 0.747877 0.792860 0.402806
Si Si2 0.412111 0.341719 0.396096
Si Si3 0.554802 0.806254 0.496489
Si Si4 0.601456 0.526256 0.449514
O O1 0.772417 0.751930 0.654224
O O2 0.830976 0.833083 0.300164
O O3 0.657077 0.829196 0.477263
O O4 0.500000 0.363790 0.250000
O O5 0.433241 0.271305 0.499794
O O6 0.394951 0.397927 0.594428
O O7 0.500000 0.824873 0.250000
O O8 0.500000 0.822381 0.750000
O O9 0.500000 0.500000 0.500000
O O10 0.644465 0.489090 0.218944
#
# Coordination Sequence:
#
# PCOD9454301 Si02
#       4
#     8   8   8   8
#     4  10  20  33  47  73  98 125 173 210 240 309
#     4  10  19  31  50  68  99 138 158 195 254 292
#     4  10  20  32  50  68  96 129 171 205 250 293
#     4  10  20  31  44  65  99 128 167 196 226 291
#
# _framework density 19.320063999999999
#
# number of rings (size 3 to 8) (size 9 to 14) (size 15 to 20)
#    0.000    2.000    2.500    4.500    3.500    4.000 
#    0.000    0.000    0.000    0.000    0.000    0.000 
#    0.000    6.000    0.000    0.000    0.000    4.000 
#
# Total GULP energy -178330.462318 kJ/mol
# GULP energy per Si atom -5572.826947 kJ/mol
# Density = 1.927609 g / cm^3
# Si number density = 19.320064 Si / 1000 Ang^3
#
#
#
# Elastic Constant Matrix: (Units=GPa)
#
#
# Indices 1 2 3 4 5 6 
#
# 1 131.9099 -1.0705 37.8625 0.0000 0.0000 0.0000
# 2 -1.0705 29.2393 -1.5339 0.0000 0.0000 0.0000
# 3 37.8625 -1.5339 128.6651 0.0000 0.0000 0.0000
# 4 0.0000 0.0000 0.0000 49.9463 0.0000 0.0000
# 5 0.0000 0.0000 0.0000 0.0000 35.4149 0.0000
# 6 0.0000 0.0000 0.0000 0.0000 0.0000 -0.9382
#
#
#
# Elastic Compliance Matrix: (Units=1/GPa)
#
#
# Indices 1 2 3 4 5 6 
#
# 1 0.008281 0.000175 -0.002435 0.000000 0.000000 0.000000
# 2 0.000175 0.034226 0.000356 0.000000 0.000000 0.000000
# 3 -0.002435 0.000356 0.008493 0.000000 0.000000 0.000000
# 4 0.000000 0.000000 0.000000 0.020021 0.000000 0.000000
# 5 0.000000 0.000000 0.000000 0.000000 0.028237 0.000000
# 6 0.000000 0.000000 0.000000 0.000000 0.000000 -1.065822
#
#
# Mechanical properties :
#
#
# Convention : Reuss Voigt Hill
#
# Bulk Modulus (GPa) = 21.18923 40.03672 30.61298
# Shear Modulus (GPa) = -5.27968 33.85502 14.28767
#
# Velocity S-wave (km/s) = -1.65490 4.19062 2.72237
# Velocity P-wave (km/s) = 2.70919 6.64702 5.07556
#
# Compressibility (1/GPa) = 0.04719378
#
# Stress axis : x y z
#
# Youngs Moduli (GPa) = 120.75492 29.21785 117.74580
#
# Poissons Ratio (x) = -0.00513 0.28669
# Poissons Ratio (y) = -0.02119 -0.04196
# Poissons Ratio (z) = 0.29402 -0.01041
#
# Static dielectric constant tensor:
#      x y z
#    x 1.715760 0.000000 0.000000 
#    y 0.000000 1.670490 0.000000 
#    z 0.000000 0.000000 1.676120 
# 
# From -- ./inp_files/1108.got.cif
#   From: 2010.05.17/outbox.cif.g08.bks.cpg/sg60_1_cif.got.tgz:1108.got - 2010.06.03 14:59:27.
