data_PCOD9454351
_publ_section_title
;
Structure prediction by ZEFSAII (Michael W. Deem and Ramdas Pophale) SiO2 
 PCOD9454351
Probable space group: P B C N
;
_chemical_formula_sum "Si O2"
_cell_formula_units_Z 32
_cell_length_a 14.349691
_cell_length_b 15.024813
_cell_length_c 5.559968
_cell_angle_alpha 90.000000
_cell_angle_beta 90.000000
_cell_angle_gamma 90.000000
_cell_volume 1198.737018
_symmetry_space_group_name_H-M "P B C N"
_symmetry_group_IT_number 60
_symmetry_cell_setting 'orthorhombic'
loop_
_space_group_symop_operation_xyz
x,y,z
1/2-x,1/2-y,1/2+z
1/2+x,1/2-y,-z
-x,y,1/2-z
-x,-y,-z
1/2+x,1/2+y,1/2-z
1/2-x,1/2+y,z
x,-y,1/2+z
loop_
_atom_site_type_symbol
_atom_site_label
_atom_site_fract_x
_atom_site_fract_y
_atom_site_fract_z
Si Si1 0.500000 0.241161 0.750000
Si Si2 0.807816 0.756347 0.770627
Si Si3 0.151512 0.956672 0.697781
Si Si4 0.500000 0.213244 0.250000
Si Si5 0.876326 0.544406 0.305447
O O1 0.397823 0.191348 0.732245
O O2 0.503952 0.274913 0.479707
O O3 0.749532 0.750547 0.521348
O O4 0.860112 0.851388 0.773876
O O5 0.264362 0.962753 0.692348
O O6 0.118132 0.993960 0.440249
O O7 0.414294 0.144392 0.228613
O O8 0.906489 0.505858 0.562754
#
# Coordination Sequence:
#
# PCOD9454351 Si02
#       5
#     4   8   8   4   8
#     4  12  26  41  64  95 124 166 224 262 320 396
#     4  12  25  45  70  98 134 175 217 274 332 386
#     4  10  21  38  61  89 123 166 215 265 321 382
#     4  12  22  37  56  87 130 164 200 266 318 384
#     4  10  19  32  53  83 119 160 202 246 312 389
#
# _framework density 26.694759999999999
#
# number of rings (size 3 to 8) (size 9 to 14) (size 15 to 20)
#    0.000    1.000    0.000    8.250    0.000    4.000 
#    0.000    1.250    0.000    0.000    0.000    0.000 
#    0.000    0.000    0.000    0.000    0.000    0.000 
#
# Total GULP energy -178579.733763 kJ/mol
# GULP energy per Si atom -5580.616680 kJ/mol
# Density = 2.663400 g / cm^3
# Si number density = 26.694760 Si / 1000 Ang^3
#
#
#
# Elastic Constant Matrix: (Units=GPa)
#
#
# Indices 1 2 3 4 5 6 
#
# 1 103.6571 -3.4915 47.2341 0.0000 0.0000 0.0000
# 2 -3.4915 122.5434 84.7985 0.0000 0.0000 0.0000
# 3 47.2341 84.7985 332.6282 0.0000 0.0000 0.0000
# 4 0.0000 0.0000 0.0000 22.5435 0.0000 0.0000
# 5 0.0000 0.0000 0.0000 0.0000 16.8565 0.0000
# 6 0.0000 0.0000 0.0000 0.0000 0.0000 28.2245
#
#
#
# Elastic Compliance Matrix: (Units=1/GPa)
#
#
# Indices 1 2 3 4 5 6 
#
# 1 0.010575 0.001628 -0.001917 0.000000 0.000000 0.000000
# 2 0.001628 0.010159 -0.002821 0.000000 0.000000 0.000000
# 3 -0.001917 -0.002821 0.003998 0.000000 0.000000 0.000000
# 4 0.000000 0.000000 0.000000 0.044359 0.000000 0.000000
# 5 0.000000 0.000000 0.000000 0.000000 0.059324 0.000000
# 6 0.000000 0.000000 0.000000 0.000000 0.000000 0.035430
#
#
# Mechanical properties :
#
#
# Convention : Reuss Voigt Hill
#
# Bulk Modulus (GPa) = 54.01935 90.65677 72.33806
# Shear Modulus (GPa) = 28.37107 42.21073 35.29090
#
# Velocity S-wave (km/s) = 3.26359 3.98079 3.63990
# Velocity P-wave (km/s) = 5.87207 7.42719 6.69494
#
# Compressibility (1/GPa) = 0.01851189
#
# Stress axis : x y z
#
# Youngs Moduli (GPa) = 94.55914 98.43662 250.14421
#
# Poissons Ratio (x) = -0.16022 0.47944
# Poissons Ratio (y) = -0.15391 0.70565
# Poissons Ratio (z) = 0.18124 0.27769
#
# Static dielectric constant tensor:
#      x y z
#    x 2.635230 0.000000 0.000000 
#    y 0.000000 2.992680 0.000000 
#    z 0.000000 0.000000 2.088690 
# 
# From -- ./inp_files/1062.got.cif
#   From: 2010.05.17/outbox.cif.g08.bks.cpg/sg60_1_cif.got.tgz:1062.got - 2010.06.03 14:59:27.
