data_PCOD9454453
_publ_section_title
;
Structure prediction by ZEFSAII (Michael W. Deem and Ramdas Pophale) SiO2 
 PCOD9454453
Probable space group: P B C N
;
_chemical_formula_sum "Si O2"
_cell_formula_units_Z 48
_cell_length_a 22.842240
_cell_length_b 13.306291
_cell_length_c 9.572576
_cell_angle_alpha 90.000000
_cell_angle_beta 90.000000
_cell_angle_gamma 90.000000
_cell_volume 2909.541327
_symmetry_space_group_name_H-M "P B C N"
_symmetry_group_IT_number 60
_symmetry_cell_setting 'orthorhombic'
loop_
_space_group_symop_operation_xyz
x,y,z
1/2-x,1/2-y,1/2+z
1/2+x,1/2-y,-z
-x,y,1/2-z
-x,-y,-z
1/2+x,1/2+y,1/2-z
1/2-x,1/2+y,z
x,-y,1/2+z
loop_
_atom_site_type_symbol
_atom_site_label
_atom_site_fract_x
_atom_site_fract_y
_atom_site_fract_z
Si Si1 0.231889 0.899611 0.195857
Si Si2 0.837526 0.302230 0.471527
Si Si3 0.669873 0.187510 0.299076
Si Si4 0.273469 0.408926 0.524651
Si Si5 0.962628 0.626638 0.874488
Si Si6 0.954158 0.604841 0.363225
O O1 0.238204 0.925786 0.359947
O O2 0.284612 0.123993 0.109086
O O3 0.293666 0.865139 0.127684
O O4 0.206961 0.990734 0.103967
O O5 0.829074 0.336289 0.632986
O O6 0.817285 0.185939 0.463331
O O7 0.904500 0.317779 0.425852
O O8 0.689973 0.302704 0.313214
O O9 0.605655 0.164647 0.355464
O O10 0.942644 0.513321 0.832380
O O11 0.000000 0.674639 0.750000
O O12 0.010927 0.612908 0.993848
O O13 0.000000 0.643632 0.250000
#
# Coordination Sequence:
#
# PCOD9454453 Si02
#       6
#     8   8   8   8   8   8
#     4  10  21  35  54  79 105 138 174 217 264 308
#     4  10  20  36  54  78 109 137 173 216 261 313
#     4  10  20  35  56  78 104 140 176 214 260 312
#     4  10  21  35  55  78 105 139 174 217 263 308
#     4  10  21  32  51  81 108 137 170 212 262 313
#     4  10  19  34  53  75 106 139 169 210 259 309
#
# _framework density 16.497446
#
# number of rings (size 3 to 8) (size 9 to 14) (size 15 to 20)
#    0.000    2.000    1.667    2.000    2.333    1.333 
#    0.000    0.000    0.000    2.000    0.000    0.000 
#    0.000    0.000    0.000    0.000    0.000    0.000 
#
# Total GULP energy -267647.314153 kJ/mol
# GULP energy per Si atom -5575.985712 kJ/mol
# Density = 1.645990 g / cm^3
# Si number density = 16.497446 Si / 1000 Ang^3
#
#
#
# Elastic Constant Matrix: (Units=GPa)
#
#
# Indices 1 2 3 4 5 6 
#
# 1 116.3055 32.5256 41.5090 0.0000 0.0000 0.0000
# 2 32.5256 55.7232 38.6956 0.0000 0.0000 0.0000
# 3 41.5090 38.6956 106.5761 0.0000 0.0000 0.0000
# 4 0.0000 0.0000 0.0000 28.9406 0.0000 0.0000
# 5 0.0000 0.0000 0.0000 0.0000 24.4680 0.0000
# 6 0.0000 0.0000 0.0000 0.0000 0.0000 15.3270
#
#
#
# Elastic Compliance Matrix: (Units=1/GPa)
#
#
# Indices 1 2 3 4 5 6 
#
# 1 0.010773 -0.004512 -0.002557 0.000000 0.000000 0.000000
# 2 -0.004512 0.025886 -0.007641 0.000000 0.000000 0.000000
# 3 -0.002557 -0.007641 0.013153 0.000000 0.000000 0.000000
# 4 0.000000 0.000000 0.000000 0.034554 0.000000 0.000000
# 5 0.000000 0.000000 0.000000 0.000000 0.040870 0.000000
# 6 0.000000 0.000000 0.000000 0.000000 0.000000 0.065245
#
#
# Mechanical properties :
#
#
# Convention : Reuss Voigt Hill
#
# Bulk Modulus (GPa) = 49.04284 56.00724 52.52504
# Shear Modulus (GPa) = 22.05580 24.80543 23.43061
#
# Velocity S-wave (km/s) = 3.66036 3.88182 3.77272
# Velocity P-wave (km/s) = 6.90336 7.35623 7.13339
#
# Compressibility (1/GPa) = 0.02039034
#
# Stress axis : x y z
#
# Youngs Moduli (GPa) = 92.82804 38.63132 76.02582
#
# Poissons Ratio (x) = 0.17430 0.19443
# Poissons Ratio (y) = 0.41884 0.58093
# Poissons Ratio (z) = 0.23741 0.29519
#
# Static dielectric constant tensor:
#      x y z
#    x 1.371390 0.000000 0.000000 
#    y 0.000000 1.561800 0.000000 
#    z 0.000000 0.000000 1.451380 
# 
# From -- ./inp_files/12805.got.cif
#   From: 2010.05.17/outbox.cif.g08.bks.cpg/sg60_7_cif.got.tgz:12805.got - 2010.06.03 14:59:27.
