data_PCOD9454434
_publ_section_title
;
Structure prediction by ZEFSAII (Michael W. Deem and Ramdas Pophale) SiO2 
 PCOD9454434
Probable space group: P B C N
;
_chemical_formula_sum "Si O2"
_cell_formula_units_Z 40
_cell_length_a 18.486386
_cell_length_b 9.443989
_cell_length_c 8.708432
_cell_angle_alpha 90.000000
_cell_angle_beta 90.000000
_cell_angle_gamma 90.000000
_cell_volume 1520.363569
_symmetry_space_group_name_H-M "P B C N"
_symmetry_group_IT_number 60
_symmetry_cell_setting 'orthorhombic'
loop_
_space_group_symop_operation_xyz
x,y,z
1/2-x,1/2-y,1/2+z
1/2+x,1/2-y,-z
-x,y,1/2-z
-x,-y,-z
1/2+x,1/2+y,1/2-z
1/2-x,1/2+y,z
x,-y,1/2+z
loop_
_atom_site_type_symbol
_atom_site_label
_atom_site_fract_x
_atom_site_fract_y
_atom_site_fract_z
Si Si1 0.000000 0.631765 0.750000
Si Si2 0.581035 0.648888 0.044831
Si Si3 0.621001 0.135348 0.964958
Si Si4 0.500000 0.583594 0.750000
Si Si5 0.214795 0.491530 0.293528
Si Si6 0.185191 0.921791 0.548962
O O1 0.061545 0.719373 0.847016
O O2 0.049620 0.571533 0.613333
O O3 0.551405 0.522378 0.154363
O O4 0.538773 0.670192 0.883865
O O5 0.655012 0.579897 0.981904
O O6 0.622010 0.305928 0.967526
O O7 0.684836 0.094906 0.848782
O O8 0.649170 0.075487 0.126181
O O9 0.276954 0.585886 0.213716
O O10 0.254058 0.396195 0.420552
#
# Coordination Sequence:
#
# PCOD9454434 Si02
#       6
#     4   8   8   4   8   8
#     4  11  24  40  64  91 130 171 210 262 326 387
#     4  10  19  33  58  95 127 159 201 255 315 387
#     4  11  23  42  62  86 122 168 211 262 319 373
#     4   9  16  28  46  81 132 155 180 236 306 369
#     4  10  24  40  61  91 124 162 214 258 309 395
#     4  11  20  38  66  93 126 158 201 268 329 373
#
# _framework density 26.309494999999998
#
# number of rings (size 3 to 8) (size 9 to 14) (size 15 to 20)
#    0.000    1.600    0.000    7.200    0.000    2.400 
#    0.000    8.000    0.000    2.400    0.000    0.000 
#    0.000    0.000    0.000    0.000    0.000    0.000 
#
# Total GULP energy -223440.895194 kJ/mol
# GULP energy per Si atom -5586.022380 kJ/mol
# Density = 2.624961 g / cm^3
# Si number density = 26.309495 Si / 1000 Ang^3
#
#
#
# Elastic Constant Matrix: (Units=GPa)
#
#
# Indices 1 2 3 4 5 6 
#
# 1 88.6195 22.1916 27.0579 0.0000 0.0000 0.0000
# 2 22.1916 45.4580 39.8173 0.0000 0.0000 0.0000
# 3 27.0579 39.8173 160.7221 0.0000 0.0000 0.0000
# 4 0.0000 0.0000 0.0000 19.1922 0.0000 0.0000
# 5 0.0000 0.0000 0.0000 0.0000 73.5044 0.0000
# 6 0.0000 0.0000 0.0000 0.0000 0.0000 29.9933
#
#
#
# Elastic Compliance Matrix: (Units=1/GPa)
#
#
# Indices 1 2 3 4 5 6 
#
# 1 0.012932 -0.005627 -0.000783 0.000000 0.000000 0.000000
# 2 -0.005627 0.030544 -0.006619 0.000000 0.000000 0.000000
# 3 -0.000783 -0.006619 0.007994 0.000000 0.000000 0.000000
# 4 0.000000 0.000000 0.000000 0.052104 0.000000 0.000000
# 5 0.000000 0.000000 0.000000 0.000000 0.013605 0.000000
# 6 0.000000 0.000000 0.000000 0.000000 0.000000 0.033341
#
#
# Mechanical properties :
#
#
# Convention : Reuss Voigt Hill
#
# Bulk Modulus (GPa) = 39.35496 52.54813 45.95154
# Shear Modulus (GPa) = 27.01979 38.25351 32.63665
#
# Velocity S-wave (km/s) = 3.20816 3.81725 3.52588
# Velocity P-wave (km/s) = 5.35854 6.28052 5.83776
#
# Compressibility (1/GPa) = 0.02540976
#
# Stress axis : x y z
#
# Youngs Moduli (GPa) = 77.32473 32.74007 125.09913
#
# Poissons Ratio (x) = 0.18424 0.09796
# Poissons Ratio (y) = 0.43514 0.82809
# Poissons Ratio (z) = 0.06055 0.21672
#
# Static dielectric constant tensor:
#      x y z
#    x 2.134930 0.000000 0.000000 
#    y 0.000000 2.098540 0.000000 
#    z 0.000000 0.000000 2.020760 
# 
# From -- ./inp_files/6544.got.cif
#   From: 2010.05.17/outbox.cif.g08.bks.cpg/sg60_4_cif.got.tgz:6544.got - 2010.06.03 14:59:27.
