data_PCOD9454679
_publ_section_title
;
Structure prediction by ZEFSAII (Michael W. Deem and Ramdas Pophale) SiO2 
 PCOD9454679
Probable space group: P B C N
;
_chemical_formula_sum "Si O2"
_cell_formula_units_Z 32
_cell_length_a 5.304127
_cell_length_b 18.856213
_cell_length_c 15.033870
_cell_angle_alpha 90.000000
_cell_angle_beta 90.000000
_cell_angle_gamma 90.000000
_cell_volume 1503.623761
_symmetry_space_group_name_H-M "P B C N"
_symmetry_group_IT_number 60
_symmetry_cell_setting 'orthorhombic'
loop_
_space_group_symop_operation_xyz
x,y,z
1/2-x,1/2-y,1/2+z
1/2+x,1/2-y,-z
-x,y,1/2-z
-x,-y,-z
1/2+x,1/2+y,1/2-z
1/2-x,1/2+y,z
x,-y,1/2+z
loop_
_atom_site_type_symbol
_atom_site_label
_atom_site_fract_x
_atom_site_fract_y
_atom_site_fract_z
Si Si1 0.598444 0.208542 0.480027
Si Si2 0.462680 0.507725 0.607173
Si Si3 0.242328 0.864140 0.696101
Si Si4 0.965190 0.560068 0.577613
O O1 0.318313 0.240562 0.483760
O O2 0.675083 0.189820 0.379957
O O3 0.601038 0.134611 0.533754
O O4 0.500000 0.500000 0.500000
O O5 0.368929 0.434872 0.649484
O O6 0.736697 0.532755 0.638374
O O7 0.238311 0.562980 0.622175
O O8 0.500000 0.880116 0.750000
O O9 0.000000 0.836113 0.750000
O O10 0.000000 0.500000 0.500000
#
# Coordination Sequence:
#
# PCOD9454679 Si02
#       4
#     8   8   8   8
#     4  12  25  41  67 103 127 187 236 270 330 417
#     4  10  19  36  67  93 128 164 218 271 325 390
#     4  12  25  41  67 103 139 171 223 292 345 396
#     4  10  19  36  67  93 130 154 235 271 308 384
#
# _framework density 21.28192
#
# number of rings (size 3 to 8) (size 9 to 14) (size 15 to 20)
#    0.000    1.000    5.000    4.500    7.000    0.000 
#    0.000    0.000    0.000   30.000    0.000    0.000 
#    0.000    0.000    0.000    0.000    0.000    0.000 
#
# Total GULP energy -178688.192078 kJ/mol
# GULP energy per Si atom -5584.006002 kJ/mol
# Density = 2.123348 g / cm^3
# Si number density = 21.281920 Si / 1000 Ang^3
#
#
#
# Elastic Constant Matrix: (Units=GPa)
#
#
# Indices 1 2 3 4 5 6 
#
# 1 171.0412 1.9447 9.7712 0.0000 0.0000 0.0000
# 2 1.9447 63.6421 -0.2470 0.0000 0.0000 0.0000
# 3 9.7712 -0.2470 49.9569 0.0000 0.0000 0.0000
# 4 0.0000 0.0000 0.0000 11.4938 0.0000 0.0000
# 5 0.0000 0.0000 0.0000 0.0000 33.1451 0.0000
# 6 0.0000 0.0000 0.0000 0.0000 0.0000 43.2974
#
#
#
# Elastic Compliance Matrix: (Units=1/GPa)
#
#
# Indices 1 2 3 4 5 6 
#
# 1 0.005915 -0.000185 -0.001158 0.000000 0.000000 0.000000
# 2 -0.000185 0.015719 0.000114 0.000000 0.000000 0.000000
# 3 -0.001158 0.000114 0.020244 0.000000 0.000000 0.000000
# 4 0.000000 0.000000 0.000000 0.087004 0.000000 0.000000
# 5 0.000000 0.000000 0.000000 0.000000 0.030170 0.000000
# 6 0.000000 0.000000 0.000000 0.000000 0.000000 0.023096
#
#
# Mechanical properties :
#
#
# Convention : Reuss Voigt Hill
#
# Bulk Modulus (GPa) = 25.36794 34.17534 29.77164
# Shear Modulus (GPa) = 25.28493 35.79867 30.54180
#
# Velocity S-wave (km/s) = 3.45061 4.10581 3.79239
# Velocity P-wave (km/s) = 5.27461 6.21049 5.76158
#
# Compressibility (1/GPa) = 0.03941984
#
# Stress axis : x y z
#
# Youngs Moduli (GPa) = 169.06760 63.61739 49.39671
#
# Poissons Ratio (x) = 0.01178 0.05719
# Poissons Ratio (y) = 0.03132 -0.00563
# Poissons Ratio (z) = 0.19575 -0.00725
#
# Static dielectric constant tensor:
#      x y z
#    x 1.483510 0.000000 0.000000 
#    y 0.000000 1.691420 0.000000 
#    z 0.000000 0.000000 1.610240 
# 
# From -- ./inp_files/13687.got.cif
#   From: 2010.05.17/outbox.cif.g08.bks.cpg/sg60_7_cif.got.tgz:13687.got - 2010.06.03 14:59:27.
