data_PCOD9454527
_publ_section_title
;
Structure prediction by ZEFSAII (Michael W. Deem and Ramdas Pophale) SiO2 
 PCOD9454527
Probable space group: P B C N
;
_chemical_formula_sum "Si O2"
_cell_formula_units_Z 40
_cell_length_a 14.554495
_cell_length_b 18.405738
_cell_length_c 7.741966
_cell_angle_alpha 90.000000
_cell_angle_beta 90.000000
_cell_angle_gamma 90.000000
_cell_volume 2073.966020
_symmetry_space_group_name_H-M "P B C N"
_symmetry_group_IT_number 60
_symmetry_cell_setting 'orthorhombic'
loop_
_space_group_symop_operation_xyz
x,y,z
1/2-x,1/2-y,1/2+z
1/2+x,1/2-y,-z
-x,y,1/2-z
-x,-y,-z
1/2+x,1/2+y,1/2-z
1/2-x,1/2+y,z
x,-y,1/2+z
loop_
_atom_site_type_symbol
_atom_site_label
_atom_site_fract_x
_atom_site_fract_y
_atom_site_fract_z
Si Si1 0.500000 0.797928 0.250000
Si Si2 0.389975 0.917240 0.423968
Si Si3 0.911441 0.062164 0.129918
Si Si4 0.678802 0.418436 0.973997
Si Si5 0.022194 0.813769 0.440726
Si Si6 0.500000 0.045495 0.250000
O O1 0.416501 0.851327 0.298627
O O2 0.520688 0.747135 0.412888
O O3 0.283854 0.918940 0.471385
O O4 0.451719 0.910783 0.596968
O O5 0.423860 0.991710 0.333690
O O6 0.836904 0.089541 0.268605
O O7 0.000000 0.042343 0.250000
O O8 0.948939 0.124451 0.002928
O O9 0.869117 0.993748 0.032670
O O10 0.620045 0.354308 0.059513
O O11 0.000000 0.787107 0.250000
#
# Coordination Sequence:
#
# PCOD9454527 Si02
#       6
#     4   8   8   8   8   4
#     4  11  24  46  58  88 131 172 208 248 319 398
#     4  10  22  39  66  90 122 164 214 263 313 369
#     4  10  19  34  62  95 133 155 204 258 321 368
#     4  11  19  36  62  97 123 158 215 267 301 365
#     4  11  22  41  63  91 131 173 199 251 323 380
#     4   9  20  42  62  90 121 162 212 266 321 356
#
# _framework density 19.286719000000002
#
# number of rings (size 3 to 8) (size 9 to 14) (size 15 to 20)
#    0.000    1.600    3.000    5.400    1.400    0.000 
#    3.600    2.000    0.000    0.000    0.000    0.000 
#    0.000    0.000    0.000    0.000    0.000    0.000 
#
# Total GULP energy -223439.156471 kJ/mol
# GULP energy per Si atom -5585.978912 kJ/mol
# Density = 1.924282 g / cm^3
# Si number density = 19.286719 Si / 1000 Ang^3
#
#
#
# Elastic Constant Matrix: (Units=GPa)
#
#
# Indices 1 2 3 4 5 6 
#
# 1 121.6179 44.2879 43.9202 0.0000 0.0000 0.0000
# 2 44.2879 80.1563 40.6755 0.0000 0.0000 0.0000
# 3 43.9202 40.6755 132.1466 0.0000 0.0000 0.0000
# 4 0.0000 0.0000 0.0000 26.3449 0.0000 0.0000
# 5 0.0000 0.0000 0.0000 0.0000 27.5557 0.0000
# 6 0.0000 0.0000 0.0000 0.0000 0.0000 4.4336
#
#
#
# Elastic Compliance Matrix: (Units=1/GPa)
#
#
# Indices 1 2 3 4 5 6 
#
# 1 0.010750 -0.004890 -0.002068 0.000000 0.000000 0.000000
# 2 -0.004890 0.017010 -0.003610 0.000000 0.000000 0.000000
# 3 -0.002068 -0.003610 0.009366 0.000000 0.000000 0.000000
# 4 0.000000 0.000000 0.000000 0.037958 0.000000 0.000000
# 5 0.000000 0.000000 0.000000 0.000000 0.036290 0.000000
# 6 0.000000 0.000000 0.000000 0.000000 0.000000 0.225550
#
#
# Mechanical properties :
#
#
# Convention : Reuss Voigt Hill
#
# Bulk Modulus (GPa) = 62.54315 65.74311 64.14313
# Shear Modulus (GPa) = 13.75933 25.33598 19.54766
#
# Velocity S-wave (km/s) = 2.67387 3.62836 3.18705
# Velocity P-wave (km/s) = 6.48315 7.19129 6.84638
#
# Compressibility (1/GPa) = 0.01598896
#
# Stress axis : x y z
#
# Youngs Moduli (GPa) = 93.02318 58.78988 106.77137
#
# Poissons Ratio (x) = 0.28751 0.22076
# Poissons Ratio (y) = 0.45492 0.38548
# Poissons Ratio (z) = 0.19233 0.21225
#
# Static dielectric constant tensor:
#      x y z
#    x 1.649240 0.000000 0.000000 
#    y 0.000000 1.672760 0.000000 
#    z 0.000000 0.000000 1.711270 
# 
# From -- ./inp_files/5806.got.cif
#   From: 2010.05.17/outbox.cif.g08.bks.cpg/sg60_3_cif.got.tgz:5806.got - 2010.06.03 14:59:27.
