data_PCOD9454061
_publ_section_title
;
Structure prediction by ZEFSAII (Michael W. Deem and Ramdas Pophale) SiO2 
 PCOD9454061
Probable space group: P B C N
;
_chemical_formula_sum "Si O2"
_cell_formula_units_Z 48
_cell_length_a 6.140900
_cell_length_b 15.105630
_cell_length_c 25.479103
_cell_angle_alpha 90.000000
_cell_angle_beta 90.000000
_cell_angle_gamma 90.000000
_cell_volume 2363.496712
_symmetry_space_group_name_H-M "P B C N"
_symmetry_group_IT_number 60
_symmetry_cell_setting 'orthorhombic'
loop_
_space_group_symop_operation_xyz
x,y,z
1/2-x,1/2-y,1/2+z
1/2+x,1/2-y,-z
-x,y,1/2-z
-x,-y,-z
1/2+x,1/2+y,1/2-z
1/2-x,1/2+y,z
x,-y,1/2+z
loop_
_atom_site_type_symbol
_atom_site_label
_atom_site_fract_x
_atom_site_fract_y
_atom_site_fract_z
Si Si1 0.500000 0.148909 0.250000
Si Si2 0.065890 0.961082 0.921798
Si Si3 0.188148 0.431892 0.017405
Si Si4 0.000000 0.075724 0.750000
Si Si5 0.554203 0.095419 0.615030
Si Si6 0.213545 0.039604 0.169176
Si Si7 0.319482 0.783486 0.290109
O O1 0.337191 0.093560 0.213910
O O2 0.633525 0.209629 0.209062
O O3 0.928890 0.912891 0.875924
O O4 0.235214 0.035616 0.900225
O O5 0.199895 0.900766 0.963109
O O6 0.879670 0.015008 0.953045
O O7 0.068841 0.373407 0.061670
O O8 0.000000 0.500000 0.000000
O O9 0.789181 0.135119 0.741384
O O10 0.964823 0.017921 0.800731
O O11 0.605979 0.175155 0.654952
O O12 0.389291 0.026590 0.643323
O O13 0.500000 0.748206 0.250000
#
# Coordination Sequence:
#
# PCOD9454061 Si02
#       7
#     4   8   8   4   8   8   8
#     4  11  28  34  48  81 128 156 208 235 290 364
#     4   9  17  30  55  81 120 137 183 244 302 341
#     4   8  16  29  49  89 119 128 178 251 292 347
#     4  11  20  34  58  77 108 154 202 229 292 356
#     4  10  18  33  59  81 115 148 194 238 306 348
#     4  11  21  35  54  82 115 157 193 244 295 355
#     4  11  22  38  52  79 121 158 190 244 283 364
#
# _framework density 20.308893999999999
#
# number of rings (size 3 to 8) (size 9 to 14) (size 15 to 20)
#    0.000    2.000    3.333    1.000    1.167    0.000 
#    0.000    0.000    0.000    0.000    0.000    0.000 
#  415.000    0.000    0.000    0.000    0.000    2.333 
#
# Total GULP energy -267343.178858 kJ/mol
# GULP energy per Si atom -5569.649560 kJ/mol
# Density = 2.026267 g / cm^3
# Si number density = 20.308894 Si / 1000 Ang^3
#
#
#
# Elastic Constant Matrix: (Units=GPa)
#
#
# Indices 1 2 3 4 5 6 
#
# 1 85.9659 5.4316 34.9545 0.0000 0.0000 0.0000
# 2 5.4316 24.4603 13.0718 0.0000 0.0000 0.0000
# 3 34.9545 13.0718 100.7637 0.0000 0.0000 0.0000
# 4 0.0000 0.0000 0.0000 -0.2372 0.0000 0.0000
# 5 0.0000 0.0000 0.0000 0.0000 65.7433 0.0000
# 6 0.0000 0.0000 0.0000 0.0000 0.0000 -69.8753
#
#
#
# Elastic Compliance Matrix: (Units=1/GPa)
#
#
# Indices 1 2 3 4 5 6 
#
# 1 0.013549 -0.000534 -0.004631 0.000000 0.000000 0.000000
# 2 -0.000534 0.043949 -0.005516 0.000000 0.000000 0.000000
# 3 -0.004631 -0.005516 0.012246 0.000000 0.000000 0.000000
# 4 0.000000 0.000000 0.000000 -4.215063 0.000000 0.000000
# 5 0.000000 0.000000 0.000000 0.000000 0.015211 0.000000
# 6 0.000000 0.000000 0.000000 0.000000 0.000000 -0.014311
#
#
# Mechanical properties :
#
#
# Convention : Reuss Voigt Hill
#
# Bulk Modulus (GPa) = 20.66865 35.34509 28.00687
# Shear Modulus (GPa) = -1.21745 9.64162 4.21208
#
# Velocity S-wave (km/s) = -0.77509 2.18124 1.44170
# Velocity P-wave (km/s) = 3.06565 4.87701 4.07329
#
# Compressibility (1/GPa) = 0.04838247
#
# Stress axis : x y z
#
# Youngs Moduli (GPa) = 73.80501 22.75367 81.65759
#
# Poissons Ratio (x) = 0.01215 0.37815
# Poissons Ratio (y) = 0.03940 0.45044
# Poissons Ratio (z) = 0.34178 0.12551
#
# Static dielectric constant tensor:
#      x y z
#    x 1.738340 0.000000 0.000000 
#    y 0.000000 1.668430 0.000000 
#    z 0.000000 0.000000 1.810230 
# 
# From -- ./inp_files/24917.got.cif
#   From: 2010.05.17/outbox.cif.g08.bks.cpg/sg60_13_cif.got.tgz:24917.got - 2010.06.03 14:59:27.
