data_PCOD9454321
_publ_section_title
;
Structure prediction by ZEFSAII (Michael W. Deem and Ramdas Pophale) SiO2 
 PCOD9454321
Probable space group: P B C N
;
_chemical_formula_sum "Si O2"
_cell_formula_units_Z 40
_cell_length_a 16.509807
_cell_length_b 31.646176
_cell_length_c 5.146776
_cell_angle_alpha 90.000000
_cell_angle_beta 90.000000
_cell_angle_gamma 90.000000
_cell_volume 2689.047678
_symmetry_space_group_name_H-M "P B C N"
_symmetry_group_IT_number 60
_symmetry_cell_setting 'orthorhombic'
loop_
_space_group_symop_operation_xyz
x,y,z
1/2-x,1/2-y,1/2+z
1/2+x,1/2-y,-z
-x,y,1/2-z
-x,-y,-z
1/2+x,1/2+y,1/2-z
1/2-x,1/2+y,z
x,-y,1/2+z
loop_
_atom_site_type_symbol
_atom_site_label
_atom_site_fract_x
_atom_site_fract_y
_atom_site_fract_z
Si Si1 0.277688 0.724762 0.661998
Si Si2 0.446244 0.751837 0.494133
Si Si3 0.407949 0.982101 0.960831
Si Si4 0.649386 0.162662 0.651618
Si Si5 0.591253 0.116382 0.166100
O O1 0.229682 0.743436 0.410284
O O2 0.370196 0.722432 0.570026
O O3 0.235027 0.682210 0.759670
O O4 0.500000 0.757644 0.750000
O O5 0.405172 0.796243 0.412639
O O6 0.500000 0.737296 0.250000
O O7 0.406697 0.934047 0.870739
O O8 0.369273 0.011240 0.740819
O O9 0.500000 0.000000 0.000000
O O10 0.648233 0.133832 0.395331
O O11 0.611920 0.137771 0.893296
O O12 0.500000 0.127496 0.250000
#
# Coordination Sequence:
#
# PCOD9454321 Si02
#       5
#     8   8   8   8   8
#     4  10  20  34  48  61  91 124 144 186 246 295
#     4  11  20  33  48  67  86 115 158 196 228 276
#     4  10  19  32  43  58  84 118 156 187 217 269
#     4  11  22  31  43  68  90 113 150 194 246 260
#     4  12  21  29  46  64  87 117 155 203 221 251
#
# _framework density 14.875156
#
# number of rings (size 3 to 8) (size 9 to 14) (size 15 to 20)
#    0.000    1.200    2.000    9.600    2.800    0.000 
#    0.000    0.000    0.000    0.000    0.000    0.000 
#    0.000    0.000    0.000    0.000    0.000   70.000 
#
# Total GULP energy -223145.986034 kJ/mol
# GULP energy per Si atom -5578.649651 kJ/mol
# Density = 1.484130 g / cm^3
# Si number density = 14.875156 Si / 1000 Ang^3
#
#
#
# Elastic Constant Matrix: (Units=GPa)
#
#
# Indices 1 2 3 4 5 6 
#
# 1 70.1261 33.1020 30.7319 0.0000 0.0000 0.0000
# 2 33.1020 64.8033 24.0626 0.0000 0.0000 0.0000
# 3 30.7319 24.0626 123.6833 0.0000 0.0000 0.0000
# 4 0.0000 0.0000 0.0000 19.0895 0.0000 0.0000
# 5 0.0000 0.0000 0.0000 0.0000 27.0778 0.0000
# 6 0.0000 0.0000 0.0000 0.0000 0.0000 13.5619
#
#
#
# Elastic Compliance Matrix: (Units=1/GPa)
#
#
# Indices 1 2 3 4 5 6 
#
# 1 0.019899 -0.008977 -0.003198 0.000000 0.000000 0.000000
# 2 -0.008977 0.020683 -0.001793 0.000000 0.000000 0.000000
# 3 -0.003198 -0.001793 0.009229 0.000000 0.000000 0.000000
# 4 0.000000 0.000000 0.000000 0.052385 0.000000 0.000000
# 5 0.000000 0.000000 0.000000 0.000000 0.036931 0.000000
# 6 0.000000 0.000000 0.000000 0.000000 0.000000 0.073736
#
#
# Mechanical properties :
#
#
# Convention : Reuss Voigt Hill
#
# Bulk Modulus (GPa) = 45.71662 48.26730 46.99196
# Shear Modulus (GPa) = 20.15404 23.32694 21.74049
#
# Velocity S-wave (km/s) = 3.68486 3.96432 3.82714
# Velocity P-wave (km/s) = 6.99318 7.31254 7.15464
#
# Compressibility (1/GPa) = 0.02187388
#
# Stress axis : x y z
#
# Youngs Moduli (GPa) = 50.25384 48.34938 108.35851
#
# Poissons Ratio (x) = 0.43404 0.34651
# Poissons Ratio (y) = 0.45114 0.19431
# Poissons Ratio (z) = 0.16070 0.08670
#
# Static dielectric constant tensor:
#      x y z
#    x 1.442610 0.000000 0.000000 
#    y 0.000000 1.494360 0.000000 
#    z 0.000000 0.000000 1.515760 
# 
# From -- ./inp_files/1386.got.cif
#   From: 2010.05.17/outbox.cif.g08.bks.cpg/sg60_1_cif.got.tgz:1386.got - 2010.06.03 14:59:27.
