data_PCOD9454800
_publ_section_title
;
Structure prediction by ZEFSAII (Michael W. Deem and Ramdas Pophale) SiO2 
 PCOD9454800
Probable space group: P B C N
;
_chemical_formula_sum "Si O2"
_cell_formula_units_Z 60
_cell_length_a 13.461826
_cell_length_b 8.638839
_cell_length_c 22.604737
_cell_angle_alpha 90.000000
_cell_angle_beta 90.000000
_cell_angle_gamma 90.000000
_cell_volume 2628.807660
_symmetry_space_group_name_H-M "P B C N"
_symmetry_group_IT_number 60
_symmetry_cell_setting 'orthorhombic'
loop_
_space_group_symop_operation_xyz
x,y,z
1/2-x,1/2-y,1/2+z
1/2+x,1/2-y,-z
-x,y,1/2-z
-x,-y,-z
1/2+x,1/2+y,1/2-z
1/2-x,1/2+y,z
x,-y,1/2+z
loop_
_atom_site_type_symbol
_atom_site_label
_atom_site_fract_x
_atom_site_fract_y
_atom_site_fract_z
Si Si1 0.808559 0.686107 0.886441
Si Si2 0.351143 0.838084 0.243105
Si Si3 0.643792 0.506418 0.740944
Si Si4 0.921739 0.181042 0.845326
Si Si5 0.378828 0.616565 0.887154
Si Si6 0.793444 0.825815 0.552243
Si Si7 0.788532 0.417022 0.963900
Si Si8 0.000000 0.579124 0.250000
O O1 0.868818 0.705256 0.825989
O O2 0.688861 0.685570 0.872147
O O3 0.839163 0.520208 0.913274
O O4 0.805462 0.827062 0.933532
O O5 0.350379 0.673238 0.274245
O O6 0.250313 0.933043 0.238541
O O7 0.421780 0.957631 0.276111
O O8 0.575790 0.539007 0.798015
O O9 0.626958 0.612585 0.684004
O O10 0.945365 0.322745 0.800500
O O11 0.006963 0.168502 0.894784
O O12 0.293475 0.729893 0.913267
O O13 0.359682 0.440157 0.908228
O O14 0.843595 0.703599 0.507032
O O15 0.745338 0.949362 0.508081
#
# Coordination Sequence:
#
# PCOD9454800 Si02
#       8
#     8   8   8   8   8   8   8   4
#     4  10  19  39  66  87 119 166 212 258 328 373
#     4  11  24  37  63  94 125 170 216 252 318 387
#     4  11  22  41  61  90 129 175 210 250 313 388
#     4  11  23  39  61  93 131 170 212 264 314 383
#     4  11  21  39  60  86 126 167 203 260 318 385
#     4   9  21  37  61  89 113 158 215 255 331 372
#     4   9  18  39  64  86 114 154 211 271 307 388
#     4  12  24  38  54  94 142 164 212 268 294 378
#
# _framework density 22.824034000000001
#
# number of rings (size 3 to 8) (size 9 to 14) (size 15 to 20)
#    0.000    1.600    1.333    4.800    3.733    0.000 
#    0.000    6.667    0.000    0.000    0.000    0.000 
#    0.000    0.000    0.000    0.000    0.000    0.000 
#
# Total GULP energy -334228.376705 kJ/mol
# GULP energy per Si atom -5570.472945 kJ/mol
# Density = 2.277209 g / cm^3
# Si number density = 22.824034 Si / 1000 Ang^3
#
#
#
# Elastic Constant Matrix: (Units=GPa)
#
#
# Indices 1 2 3 4 5 6 
#
# 1 64.7091 22.1306 15.5653 0.0000 0.0000 0.0000
# 2 22.1306 140.5573 20.2945 0.0000 0.0000 0.0000
# 3 15.5653 20.2945 73.0072 0.0000 0.0000 0.0000
# 4 0.0000 0.0000 0.0000 45.2770 0.0000 0.0000
# 5 0.0000 0.0000 0.0000 0.0000 16.1174 0.0000
# 6 0.0000 0.0000 0.0000 0.0000 0.0000 24.2707
#
#
#
# Elastic Compliance Matrix: (Units=1/GPa)
#
#
# Indices 1 2 3 4 5 6 
#
# 1 0.016937 -0.002235 -0.002990 0.000000 0.000000 0.000000
# 2 -0.002235 0.007707 -0.001666 0.000000 0.000000 0.000000
# 3 -0.002990 -0.001666 0.014798 0.000000 0.000000 0.000000
# 4 0.000000 0.000000 0.000000 0.022086 0.000000 0.000000
# 5 0.000000 0.000000 0.000000 0.000000 0.062045 0.000000
# 6 0.000000 0.000000 0.000000 0.000000 0.000000 0.041202
#
#
# Mechanical properties :
#
#
# Convention : Reuss Voigt Hill
#
# Bulk Modulus (GPa) = 38.97011 43.80603 41.38807
# Shear Modulus (GPa) = 26.72224 31.81855 29.27039
#
# Velocity S-wave (km/s) = 3.42540 3.73779 3.58500
# Velocity P-wave (km/s) = 5.72326 6.15327 5.94215
#
# Compressibility (1/GPa) = 0.02566069
#
# Stress axis : x y z
#
# Youngs Moduli (GPa) = 59.04110 129.75259 67.57768
#
# Poissons Ratio (x) = 0.29001 0.20204
# Poissons Ratio (y) = 0.13196 0.11258
# Poissons Ratio (z) = 0.17652 0.21615
#
# Static dielectric constant tensor:
#      x y z
#    x 2.159630 0.000000 0.000000 
#    y 0.000000 1.903760 0.000000 
#    z 0.000000 0.000000 1.960660 
# 
# From -- ./inp_files/24403.got.cif
#   From: 2010.05.17/outbox.cif.g08.bks.cpg/sg60_13_cif.got.tgz:24403.got - 2010.06.03 14:59:27.
