data_PCOD9454859
_publ_section_title
;
Structure prediction by ZEFSAII (Michael W. Deem and Ramdas Pophale) SiO2 
 PCOD9454859
Probable space group: P B C N
;
_chemical_formula_sum "Si O2"
_cell_formula_units_Z 44
_cell_length_a 9.654906
_cell_length_b 12.420700
_cell_length_c 16.441304
_cell_angle_alpha 90.000000
_cell_angle_beta 90.000000
_cell_angle_gamma 90.000000
_cell_volume 1971.652536
_symmetry_space_group_name_H-M "P B C N"
_symmetry_group_IT_number 60
_symmetry_cell_setting 'orthorhombic'
loop_
_space_group_symop_operation_xyz
x,y,z
1/2-x,1/2-y,1/2+z
1/2+x,1/2-y,-z
-x,y,1/2-z
-x,-y,-z
1/2+x,1/2+y,1/2-z
1/2-x,1/2+y,z
x,-y,1/2+z
loop_
_atom_site_type_symbol
_atom_site_label
_atom_site_fract_x
_atom_site_fract_y
_atom_site_fract_z
Si Si1 0.190439 0.357736 0.868922
Si Si2 0.367248 0.302627 0.502966
Si Si3 0.500000 0.265687 0.250000
Si Si4 0.336271 0.984670 0.491142
Si Si5 0.996650 0.163300 0.343030
Si Si6 0.408728 0.424427 0.104042
O O1 0.122597 0.298078 0.945042
O O2 0.347218 0.322248 0.869658
O O3 0.112650 0.313512 0.790796
O O4 0.191986 0.480949 0.897017
O O5 0.220726 0.363672 0.501232
O O6 0.400461 0.273391 0.595141
O O7 0.480937 0.385231 0.464640
O O8 0.428368 0.339215 0.179010
O O9 0.235587 0.051052 0.554994
O O10 0.500000 0.000000 0.500000
O O11 0.000000 0.193512 0.250000
O O12 0.951334 0.039013 0.356434
#
# Coordination Sequence:
#
# PCOD9454859 Si02
#       6
#     8   8   4   8   8   8
#     4  11  24  42  62 100 135 168 231 270 335 395
#     4  10  22  42  67  88 131 181 216 268 329 407
#     4  10  24  40  70  98 134 176 218 294 330 392
#     4  11  23  38  67 100 129 172 219 278 329 395
#     4  11  21  39  70  92 123 175 229 268 319 405
#     4  10  19  44  68  89 129 183 223 257 336 407
#
# _framework density 22.316306000000001
#
# number of rings (size 3 to 8) (size 9 to 14) (size 15 to 20)
#    0.000    1.455    4.545    1.091    2.545    4.364 
#    0.000    0.000    0.000    0.000    0.000    0.000 
#    0.000    0.000    0.000    0.000    0.000    0.000 
#
# Total GULP energy -245472.327235 kJ/mol
# GULP energy per Si atom -5578.916528 kJ/mol
# Density = 2.226551 g / cm^3
# Si number density = 22.316306 Si / 1000 Ang^3
#
#
#
# Elastic Constant Matrix: (Units=GPa)
#
#
# Indices 1 2 3 4 5 6 
#
# 1 127.9025 20.0396 27.5606 0.0000 0.0000 0.0000
# 2 20.0396 17.5008 14.8873 0.0000 0.0000 0.0000
# 3 27.5606 14.8873 125.6183 0.0000 0.0000 0.0000
# 4 0.0000 0.0000 0.0000 21.6116 0.0000 0.0000
# 5 0.0000 0.0000 0.0000 0.0000 34.8968 0.0000
# 6 0.0000 0.0000 0.0000 0.0000 0.0000 -29.6386
#
#
#
# Elastic Compliance Matrix: (Units=1/GPa)
#
#
# Indices 1 2 3 4 5 6 
#
# 1 0.009617 -0.010251 -0.000895 0.000000 0.000000 0.000000
# 2 -0.010251 0.074473 -0.006577 0.000000 0.000000 0.000000
# 3 -0.000895 -0.006577 0.008936 0.000000 0.000000 0.000000
# 4 0.000000 0.000000 0.000000 0.046271 0.000000 0.000000
# 5 0.000000 0.000000 0.000000 0.000000 0.028656 0.000000
# 6 0.000000 0.000000 0.000000 0.000000 0.000000 -0.033740
#
#
# Mechanical properties :
#
#
# Convention : Reuss Voigt Hill
#
# Bulk Modulus (GPa) = 17.36696 43.99963 30.68330
# Shear Modulus (GPa) = 26.47539 19.27624 22.87581
#
# Velocity S-wave (km/s) = 3.44811 2.94219 3.20515
# Velocity P-wave (km/s) = 4.86330 5.59474 5.24179
#
# Compressibility (1/GPa) = 0.05758061
#
# Stress axis : x y z
#
# Youngs Moduli (GPa) = 103.97723 13.42766 111.90107
#
# Poissons Ratio (x) = 0.13765 0.10017
# Poissons Ratio (y) = 1.06589 0.73596
# Poissons Ratio (z) = 0.09308 0.08831
#
# Static dielectric constant tensor:
#      x y z
#    x 1.702510 0.000000 0.000000 
#    y 0.000000 1.927770 0.000000 
#    z 0.000000 0.000000 1.736590 
# 
# From -- ./inp_files/19234.got.cif
#   From: 2010.05.17/outbox.cif.g08.bks.cpg/sg60_10_cif.got.tgz:19234.got - 2010.06.03 14:59:27.
