data_PCOD9454035
_publ_section_title
;
Structure prediction by ZEFSAII (Michael W. Deem and Ramdas Pophale) SiO2 
 PCOD9454035
Probable space group: P B C N
;
_chemical_formula_sum "Si O2"
_cell_formula_units_Z 44
_cell_length_a 13.770440
_cell_length_b 24.313695
_cell_length_c 5.614656
_cell_angle_alpha 90.000000
_cell_angle_beta 90.000000
_cell_angle_gamma 90.000000
_cell_volume 1879.844537
_symmetry_space_group_name_H-M "P B C N"
_symmetry_group_IT_number 60
_symmetry_cell_setting 'orthorhombic'
loop_
_space_group_symop_operation_xyz
x,y,z
1/2-x,1/2-y,1/2+z
1/2+x,1/2-y,-z
-x,y,1/2-z
-x,-y,-z
1/2+x,1/2+y,1/2-z
1/2-x,1/2+y,z
x,-y,1/2+z
loop_
_atom_site_type_symbol
_atom_site_label
_atom_site_fract_x
_atom_site_fract_y
_atom_site_fract_z
Si Si1 0.187081 0.868273 0.688473
Si Si2 0.000000 0.583442 0.250000
Si Si3 0.189672 0.249841 0.199372
Si Si4 0.634477 0.477073 0.974340
Si Si5 0.810539 0.552190 0.004570
Si Si6 0.622153 0.137832 0.626341
O O1 0.138399 0.809605 0.723670
O O2 0.126967 0.911686 0.534751
O O3 0.288016 0.856061 0.555517
O O4 0.226233 0.904522 0.909009
O O5 0.970438 0.622723 0.468647
O O6 0.095191 0.548783 0.323655
O O7 0.262548 0.247375 0.432637
O O8 0.125795 0.304668 0.233244
O O9 0.597624 0.500537 0.723922
O O10 0.748234 0.497229 0.963996
O O11 0.853239 0.584156 0.779607
#
# Coordination Sequence:
#
# PCOD9454035 Si02
#       6
#     8   4   8   8   8   8
#     4   9  18  31  48  70  92 120 162 203 251 295
#     4  10  22  32  50  64  96 134 178 206 248 270
#     4  10  19  31  52  74  90 117 158 208 257 300
#     4  10  19  31  49  67  93 127 159 200 243 284
#     4  10  18  33  46  66  93 131 166 204 238 288
#     4  10  18  33  47  67  94 124 167 209 247 291
#
# _framework density 23.406189000000001
#
# number of rings (size 3 to 8) (size 9 to 14) (size 15 to 20)
#    0.000    2.182    3.636    0.545    0.000    0.000 
#    0.000    8.182    0.000    0.000    0.000    0.000 
#    0.000    0.000    0.000    6.545    0.727    0.909 
#
# Total GULP energy -245292.070370 kJ/mol
# GULP energy per Si atom -5574.819781 kJ/mol
# Density = 2.335292 g / cm^3
# Si number density = 23.406189 Si / 1000 Ang^3
#
#
#
# Elastic Constant Matrix: (Units=GPa)
#
#
# Indices 1 2 3 4 5 6 
#
# 1 120.7262 10.5283 -8.4493 0.0000 0.0000 0.0000
# 2 10.5283 168.5992 34.4942 0.0000 0.0000 0.0000
# 3 -8.4493 34.4942 144.6659 0.0000 0.0000 0.0000
# 4 0.0000 0.0000 0.0000 47.1992 0.0000 0.0000
# 5 0.0000 0.0000 0.0000 0.0000 455.3937 0.0000
# 6 0.0000 0.0000 0.0000 0.0000 0.0000 10.9880
#
#
#
# Elastic Compliance Matrix: (Units=1/GPa)
#
#
# Indices 1 2 3 4 5 6 
#
# 1 0.008386 -0.000656 0.000646 0.000000 0.000000 0.000000
# 2 -0.000656 0.006287 -0.001537 0.000000 0.000000 0.000000
# 3 0.000646 -0.001537 0.007317 0.000000 0.000000 0.000000
# 4 0.000000 0.000000 0.000000 0.021187 0.000000 0.000000
# 5 0.000000 0.000000 0.000000 0.000000 0.002196 0.000000
# 6 0.000000 0.000000 0.000000 0.000000 0.000000 0.091008
#
#
# Mechanical properties :
#
#
# Convention : Reuss Voigt Hill
#
# Bulk Modulus (GPa) = 52.92382 56.34865 54.63623
# Shear Modulus (GPa) = 34.30008 129.21073 81.75541
#
# Velocity S-wave (km/s) = 3.83224 7.43798 5.91649
# Velocity P-wave (km/s) = 6.49935 9.89400 8.37057
#
# Compressibility (1/GPa) = 0.01889508
#
# Stress axis : x y z
#
# Youngs Moduli (GPa) = 119.25175 159.06588 136.67231
#
# Poissons Ratio (x) = 0.10432 -0.08831
# Poissons Ratio (y) = 0.07821 0.21011
# Poissons Ratio (z) = -0.07705 0.24453
#
# Static dielectric constant tensor:
#      x y z
#    x 1.892940 0.000000 0.000000 
#    y 0.000000 1.919810 0.000000 
#    z 0.000000 0.000000 2.042360 
# 
# From -- ./inp_files/1717.got.cif
#   From: 2010.05.17/outbox.cif.g08.bks.cpg/sg60_1_cif.got.tgz:1717.got - 2010.06.03 14:59:27.
