data_PCOD9454034
_publ_section_title
;
Structure prediction by ZEFSAII (Michael W. Deem and Ramdas Pophale) SiO2 
 PCOD9454034
Probable space group: P B C N
;
_chemical_formula_sum "Si O2"
_cell_formula_units_Z 56
_cell_length_a 8.990019
_cell_length_b 20.633233
_cell_length_c 15.059628
_cell_angle_alpha 90.000000
_cell_angle_beta 90.000000
_cell_angle_gamma 90.000000
_cell_volume 2793.457936
_symmetry_space_group_name_H-M "P B C N"
_symmetry_group_IT_number 60
_symmetry_cell_setting 'orthorhombic'
loop_
_space_group_symop_operation_xyz
x,y,z
1/2-x,1/2-y,1/2+z
1/2+x,1/2-y,-z
-x,y,1/2-z
-x,-y,-z
1/2+x,1/2+y,1/2-z
1/2-x,1/2+y,z
x,-y,1/2+z
loop_
_atom_site_type_symbol
_atom_site_label
_atom_site_fract_x
_atom_site_fract_y
_atom_site_fract_z
Si Si1 0.000000 0.180625 0.250000
Si Si2 0.247739 0.612026 0.365435
Si Si3 0.681733 0.527004 0.651553
Si Si4 0.500000 0.842694 0.750000
Si Si5 0.329819 0.641105 0.541367
Si Si6 0.674404 0.514499 0.856385
Si Si7 0.326953 0.390455 0.510927
Si Si8 0.258192 0.773945 0.630869
O O1 0.117475 0.135296 0.302264
O O2 0.099068 0.221758 0.181370
O O3 0.278239 0.539740 0.396201
O O4 0.241945 0.656425 0.451304
O O5 0.093330 0.614115 0.316237
O O6 0.731906 0.518149 0.754274
O O7 0.502625 0.527301 0.652222
O O8 0.731502 0.583926 0.584785
O O9 0.380788 0.799870 0.698942
O O10 0.269432 0.577219 0.590507
O O11 0.498696 0.626124 0.508008
O O12 0.309877 0.703338 0.602068
O O13 0.689698 0.447817 0.913748
O O14 0.253460 0.326016 0.550859
#
# Coordination Sequence:
#
# PCOD9454034 Si02
#       8
#     4   8   8   4   8   8   8   8
#     4  10  20  40  64  88 122 172 220 246 324 402
#     4  11  19  39  64  93 122 168 210 268 316 389
#     4  10  18  32  65  91 125 154 213 272 317 366
#     4  10  26  38  60  92 134 172 218 262 328 394
#     4  11  22  36  64  95 128 156 213 276 324 373
#     4  10  18  35  60  98 121 155 212 274 312 371
#     4  11  20  39  64  97 122 170 215 263 324 391
#     4  11  24  41  63  94 129 172 215 267 325 395
#
# _framework density 20.046838999999999
#
# number of rings (size 3 to 8) (size 9 to 14) (size 15 to 20)
#    0.000    1.429    4.286    3.429    2.000    2.286 
#    2.571    0.714    0.000    0.857    0.000    0.000 
#    0.000    0.000    0.000    0.000    0.000    0.000 
#
# Total GULP energy -312212.236374 kJ/mol
# GULP energy per Si atom -5575.218507 kJ/mol
# Density = 2.000121 g / cm^3
# Si number density = 20.046839 Si / 1000 Ang^3
#
#
#
# Elastic Constant Matrix: (Units=GPa)
#
#
# Indices 1 2 3 4 5 6 
#
# 1 46.9323 9.2698 14.7904 0.0000 0.0000 0.0000
# 2 9.2698 96.9307 32.8095 0.0000 0.0000 0.0000
# 3 14.7904 32.8095 94.3442 0.0000 0.0000 0.0000
# 4 0.0000 0.0000 0.0000 4.8775 0.0000 0.0000
# 5 0.0000 0.0000 0.0000 0.0000 17.2503 0.0000
# 6 0.0000 0.0000 0.0000 0.0000 0.0000 14.1090
#
#
#
# Elastic Compliance Matrix: (Units=1/GPa)
#
#
# Indices 1 2 3 4 5 6 
#
# 1 0.022515 -0.001086 -0.003152 0.000000 0.000000 0.000000
# 2 -0.001086 0.011745 -0.003914 0.000000 0.000000 0.000000
# 3 -0.003152 -0.003914 0.012455 0.000000 0.000000 0.000000
# 4 0.000000 0.000000 0.000000 0.205021 0.000000 0.000000
# 5 0.000000 0.000000 0.000000 0.000000 0.057970 0.000000
# 6 0.000000 0.000000 0.000000 0.000000 0.000000 0.070877
#
#
# Mechanical properties :
#
#
# Convention : Reuss Voigt Hill
#
# Bulk Modulus (GPa) = 32.88358 39.10518 35.99438
# Shear Modulus (GPa) = 12.28423 19.33652 15.81037
#
# Velocity S-wave (km/s) = 2.47812 3.10912 2.81138
# Velocity P-wave (km/s) = 4.96257 5.69544 5.34159
#
# Compressibility (1/GPa) = 0.03041031
#
# Stress axis : x y z
#
# Youngs Moduli (GPa) = 44.41454 85.13911 80.28975
#
# Poissons Ratio (x) = 0.09249 0.25307
# Poissons Ratio (y) = 0.04825 0.31428
# Poissons Ratio (z) = 0.13999 0.33326
#
# Static dielectric constant tensor:
#      x y z
#    x 1.762440 0.000000 0.000000 
#    y 0.000000 1.685880 0.000000 
#    z 0.000000 0.000000 1.781990 
# 
# From -- ./inp_files/15298.got.cif
#   From: 2010.05.17/outbox.cif.g08.bks.cpg/sg60_8_cif.got.tgz:15298.got - 2010.06.03 14:59:27.
