data_PCOD9454661
_publ_section_title
;
Structure prediction by ZEFSAII (Michael W. Deem and Ramdas Pophale) SiO2 
 PCOD9454661
Probable space group: P B C N
;
_chemical_formula_sum "Si O2"
_cell_formula_units_Z 56
_cell_length_a 12.632343
_cell_length_b 9.711953
_cell_length_c 20.700009
_cell_angle_alpha 90.000000
_cell_angle_beta 90.000000
_cell_angle_gamma 90.000000
_cell_volume 2539.574839
_symmetry_space_group_name_H-M "P B C N"
_symmetry_group_IT_number 60
_symmetry_cell_setting 'orthorhombic'
loop_
_space_group_symop_operation_xyz
x,y,z
1/2-x,1/2-y,1/2+z
1/2+x,1/2-y,-z
-x,y,1/2-z
-x,-y,-z
1/2+x,1/2+y,1/2-z
1/2-x,1/2+y,z
x,-y,1/2+z
loop_
_atom_site_type_symbol
_atom_site_label
_atom_site_fract_x
_atom_site_fract_y
_atom_site_fract_z
Si Si1 0.224517 0.019834 0.944946
Si Si2 0.972240 0.160394 0.818403
Si Si3 0.101815 0.100006 0.554434
Si Si4 0.414792 0.909971 0.535866
Si Si5 0.812362 0.277201 0.642135
Si Si6 0.750135 0.188717 0.284236
Si Si7 0.803668 0.425544 0.360535
O O1 0.278526 0.886562 0.912192
O O2 0.205329 0.127486 0.888214
O O3 0.121407 0.984448 0.989052
O O4 0.307493 0.087295 0.994292
O O5 0.958334 0.058741 0.879566
O O6 0.862534 0.241659 0.805592
O O7 0.000000 0.091618 0.750000
O O8 0.065292 0.269468 0.835051
O O9 0.055520 0.250668 0.540650
O O10 0.221980 0.117508 0.582584
O O11 0.500000 0.000000 0.500000
O O12 0.392567 0.987251 0.603091
O O13 0.745850 0.304293 0.707241
O O14 0.832073 0.289156 0.320851
O O15 0.750162 0.034962 0.311710
#
# Coordination Sequence:
#
# PCOD9454661 Si02
#       7
#     8   8   8   8   8   8   8
#     4  11  23  37  59  87 126 161 203 257 320 377
#     4   9  19  36  60  86 115 157 208 253 303 372
#     4  10  20  38  58  89 122 155 209 248 316 381
#     4  11  21  37  61  87 123 160 206 259 314 383
#     4  11  22  39  60  87 122 164 206 261 311 373
#     4  10  20  37  62  88 117 161 211 255 310 375
#     4  10  19  36  62  88 117 155 208 257 305 378
#
# _framework density 22.050934000000002
#
# number of rings (size 3 to 8) (size 9 to 14) (size 15 to 20)
#    0.000    1.714    4.286    1.714    0.000    0.571 
#    0.000    2.857    0.000    0.000    0.000    0.000 
#    0.000    0.000    0.000    0.000    0.000    0.000 
#
# Total GULP energy -312365.840157 kJ/mol
# GULP energy per Si atom -5577.961431 kJ/mol
# Density = 2.200075 g / cm^3
# Si number density = 22.050934 Si / 1000 Ang^3
#
#
#
# Elastic Constant Matrix: (Units=GPa)
#
#
# Indices 1 2 3 4 5 6 
#
# 1 29.9509 3.7104 14.1829 0.0000 0.0000 0.0000
# 2 3.7104 91.7484 38.8358 0.0000 0.0000 0.0000
# 3 14.1829 38.8358 146.3744 0.0000 0.0000 0.0000
# 4 0.0000 0.0000 0.0000 40.4542 0.0000 0.0000
# 5 0.0000 0.0000 0.0000 0.0000 32.5688 0.0000
# 6 0.0000 0.0000 0.0000 0.0000 0.0000 14.2756
#
#
#
# Elastic Compliance Matrix: (Units=1/GPa)
#
#
# Indices 1 2 3 4 5 6 
#
# 1 0.034994 0.000023 -0.003397 0.000000 0.000000 0.000000
# 2 0.000023 0.012278 -0.003260 0.000000 0.000000 0.000000
# 3 -0.003397 -0.003260 0.008026 0.000000 0.000000 0.000000
# 4 0.000000 0.000000 0.000000 0.024719 0.000000 0.000000
# 5 0.000000 0.000000 0.000000 0.000000 0.030704 0.000000
# 6 0.000000 0.000000 0.000000 0.000000 0.000000 0.070049
#
#
# Mechanical properties :
#
#
# Convention : Reuss Voigt Hill
#
# Bulk Modulus (GPa) = 23.79263 42.39244 33.09254
# Shear Modulus (GPa) = 24.03285 31.54937 27.79111
#
# Velocity S-wave (km/s) = 3.30491 3.78663 3.55394
# Velocity P-wave (km/s) = 5.03751 6.19553 5.64629
#
# Compressibility (1/GPa) = 0.04202982
#
# Stress axis : x y z
#
# Youngs Moduli (GPa) = 28.57667 81.44442 124.59793
#
# Poissons Ratio (x) = -0.00184 0.42322
# Poissons Ratio (y) = -0.00065 0.40617
# Poissons Ratio (z) = 0.09707 0.26550
#
# Static dielectric constant tensor:
#      x y z
#    x 1.893040 0.000000 0.000000 
#    y 0.000000 1.773280 0.000000 
#    z 0.000000 0.000000 1.874580 
# 
# From -- ./inp_files/22921.got.cif
#   From: 2010.05.17/outbox.cif.g08.bks.cpg/sg60_12_cif.got.tgz:22921.got - 2010.06.03 14:59:27.
