data_PCOD9454171
_publ_section_title
;
Structure prediction by ZEFSAII (Michael W. Deem and Ramdas Pophale) SiO2 
 PCOD9454171
Probable space group: P B C N
;
_chemical_formula_sum "Si O2"
_cell_formula_units_Z 40
_cell_length_a 12.324809
_cell_length_b 17.929363
_cell_length_c 8.895812
_cell_angle_alpha 90.000000
_cell_angle_beta 90.000000
_cell_angle_gamma 90.000000
_cell_volume 1965.760725
_symmetry_space_group_name_H-M "P B C N"
_symmetry_group_IT_number 60
_symmetry_cell_setting 'orthorhombic'
loop_
_space_group_symop_operation_xyz
x,y,z
1/2-x,1/2-y,1/2+z
1/2+x,1/2-y,-z
-x,y,1/2-z
-x,-y,-z
1/2+x,1/2+y,1/2-z
1/2-x,1/2+y,z
x,-y,1/2+z
loop_
_atom_site_type_symbol
_atom_site_label
_atom_site_fract_x
_atom_site_fract_y
_atom_site_fract_z
Si Si1 0.374293 0.979692 0.971575
Si Si2 0.876635 0.805962 0.691429
Si Si3 0.547285 0.243405 0.400894
Si Si4 0.101523 0.335449 0.143278
Si Si5 0.191455 0.400574 0.674452
O O1 0.345075 0.908463 0.075593
O O2 0.305219 0.050890 0.023145
O O3 0.359932 0.953535 0.801550
O O4 0.500000 0.000000 0.000000
O O5 0.884653 0.796047 0.512440
O O6 0.835917 0.726006 0.758208
O O7 0.802854 0.870125 0.757611
O O8 0.000000 0.814280 0.750000
O O9 0.500000 0.278828 0.250000
O O10 0.449675 0.209833 0.502660
O O11 0.616891 0.171305 0.354149
O O12 0.000000 0.358524 0.250000
#
# Coordination Sequence:
#
# PCOD9454171 Si02
#       5
#     8   8   8   8   8
#     4  12  22  37  59  96 129 159 201 256 323 380
#     4   9  24  41  60  86 125 164 212 257 302 364
#     4  10  18  36  62  91 122 154 203 256 315 365
#     4   9  18  36  58  89 125 164 188 256 310 358
#     4  12  24  37  61  94 125 165 202 250 324 380
#
# _framework density 20.348355999999999
#
# number of rings (size 3 to 8) (size 9 to 14) (size 15 to 20)
#    0.000    2.000    4.000    1.800    5.600    0.000 
#    0.000    5.000    0.000    0.000    0.000    0.000 
#    0.000    0.000    0.000    0.000    0.000    0.000 
#
# Total GULP energy -223385.250812 kJ/mol
# GULP energy per Si atom -5584.631270 kJ/mol
# Density = 2.030204 g / cm^3
# Si number density = 20.348356 Si / 1000 Ang^3
#
#
#
# Elastic Constant Matrix: (Units=GPa)
#
#
# Indices 1 2 3 4 5 6 
#
# 1 41.7477 37.3937 26.5074 0.0000 0.0000 0.0000
# 2 37.3937 56.2715 17.1701 0.0000 0.0000 0.0000
# 3 26.5074 17.1701 113.3762 0.0000 0.0000 0.0000
# 4 0.0000 0.0000 0.0000 33.3010 0.0000 0.0000
# 5 0.0000 0.0000 0.0000 0.0000 22.4442 0.0000
# 6 0.0000 0.0000 0.0000 0.0000 0.0000 29.0273
#
#
#
# Elastic Compliance Matrix: (Units=1/GPa)
#
#
# Indices 1 2 3 4 5 6 
#
# 1 0.067609 -0.042047 -0.009439 0.000000 0.000000 0.000000
# 2 -0.042047 0.044782 0.003049 0.000000 0.000000 0.000000
# 3 -0.009439 0.003049 0.010565 0.000000 0.000000 0.000000
# 4 0.000000 0.000000 0.000000 0.030029 0.000000 0.000000
# 5 0.000000 0.000000 0.000000 0.000000 0.044555 0.000000
# 6 0.000000 0.000000 0.000000 0.000000 0.000000 0.034450
#
#
# Mechanical properties :
#
#
# Convention : Reuss Voigt Hill
#
# Bulk Modulus (GPa) = 38.34256 41.50420 39.92338
# Shear Modulus (GPa) = 14.81218 25.64279 20.22749
#
# Velocity S-wave (km/s) = 2.70094 3.55377 3.15629
# Velocity P-wave (km/s) = 5.34890 6.10574 5.73981
#
# Compressibility (1/GPa) = 0.02608068
#
# Stress axis : x y z
#
# Youngs Moduli (GPa) = 14.79096 22.33033 94.64888
#
# Poissons Ratio (x) = 0.93893 0.89341
# Poissons Ratio (y) = 0.62192 -0.28856
# Poissons Ratio (z) = 0.13961 -0.06808
#
# Static dielectric constant tensor:
#      x y z
#    x 1.745850 0.000000 0.000000 
#    y 0.000000 1.740440 0.000000 
#    z 0.000000 0.000000 1.796940 
# 
# From -- ./inp_files/4929.got.cif
#   From: 2010.05.17/outbox.cif.g08.bks.cpg/sg60_3_cif.got.tgz:4929.got - 2010.06.03 14:59:27.
