data_PCOD9454873
_publ_section_title
;
Structure prediction by ZEFSAII (Michael W. Deem and Ramdas Pophale) SiO2 
 PCOD9454873
Probable space group: P B C N
;
_chemical_formula_sum "Si O2"
_cell_formula_units_Z 64
_cell_length_a 13.506404
_cell_length_b 31.413034
_cell_length_c 9.205348
_cell_angle_alpha 90.000000
_cell_angle_beta 90.000000
_cell_angle_gamma 90.000000
_cell_volume 3905.618612
_symmetry_space_group_name_H-M "P B C N"
_symmetry_group_IT_number 60
_symmetry_cell_setting 'orthorhombic'
loop_
_space_group_symop_operation_xyz
x,y,z
1/2-x,1/2-y,1/2+z
1/2+x,1/2-y,-z
-x,y,1/2-z
-x,-y,-z
1/2+x,1/2+y,1/2-z
1/2-x,1/2+y,z
x,-y,1/2+z
loop_
_atom_site_type_symbol
_atom_site_label
_atom_site_fract_x
_atom_site_fract_y
_atom_site_fract_z
Si Si1 0.384571 0.634412 0.796014
Si Si2 0.808841 0.181506 0.963247
Si Si3 0.608042 0.539527 0.672622
Si Si4 0.616326 0.365334 0.717659
Si Si5 0.888643 0.274559 0.923889
Si Si6 0.390325 0.456423 0.678084
Si Si7 0.112793 0.278690 0.926638
Si Si8 0.185023 0.189030 0.043327
O O1 0.500000 0.637651 0.750000
O O2 0.319756 0.666710 0.701712
O O3 0.349444 0.585741 0.787861
O O4 0.369550 0.651485 0.957652
O O5 0.861095 0.143054 0.049928
O O6 0.696823 0.189848 0.013483
O O7 0.866954 0.226385 0.977728
O O8 0.500000 0.540607 0.750000
O O9 0.657046 0.497679 0.743607
O O10 0.602036 0.537405 0.496394
O O11 0.500000 0.362501 0.750000
O O12 0.654470 0.410728 0.777164
O O13 0.669255 0.325062 0.791897
O O14 0.879071 0.273836 0.747929
O O15 0.801275 0.304284 0.983650
O O16 0.998940 0.289432 0.959966
O O17 0.500000 0.453948 0.750000
O O18 0.134959 0.233223 0.000322
#
# Coordination Sequence:
#
# PCOD9454873 Si02
#       8
#     8   8   8   8   8   8   8   8
#     4  11  21  33  52  71 103 138 169 201 251 297
#     4  11  22  33  51  75  96 136 172 212 242 303
#     4  10  20  31  47  69  99 138 166 201 250 298
#     4  11  21  31  48  73 102 130 172 209 241 289
#     4  10  20  35  53  70 101 133 165 215 257 295
#     4  10  20  31  46  69 102 133 169 205 244 301
#     4  10  20  35  52  72  99 133 168 209 262 294
#     4  11  20  35  49  73  98 132 172 207 245 296
#
# _framework density 16.386648000000001
#
# number of rings (size 3 to 8) (size 9 to 14) (size 15 to 20)
#    0.000    1.500    3.750    3.750    7.000    0.000 
#    0.000    1.875    0.000    0.000    0.000    0.000 
#    0.000    6.000    0.000    0.000    0.000    0.000 
#
# Total GULP energy -356574.528638 kJ/mol
# GULP energy per Si atom -5571.477010 kJ/mol
# Density = 1.634935 g / cm^3
# Si number density = 16.386648 Si / 1000 Ang^3
#
#
#
# Elastic Constant Matrix: (Units=GPa)
#
#
# Indices 1 2 3 4 5 6 
#
# 1 81.9803 26.5508 13.0490 0.0000 0.0000 0.0000
# 2 26.5508 78.2346 9.0070 0.0000 0.0000 0.0000
# 3 13.0490 9.0070 50.5873 0.0000 0.0000 0.0000
# 4 0.0000 0.0000 0.0000 24.7058 0.0000 0.0000
# 5 0.0000 0.0000 0.0000 0.0000 22.8568 0.0000
# 6 0.0000 0.0000 0.0000 0.0000 0.0000 11.0457
#
#
#
# Elastic Compliance Matrix: (Units=1/GPa)
#
#
# Indices 1 2 3 4 5 6 
#
# 1 0.014094 -0.004456 -0.002842 0.000000 0.000000 0.000000
# 2 -0.004456 0.014458 -0.001425 0.000000 0.000000 0.000000
# 3 -0.002842 -0.001425 0.020755 0.000000 0.000000 0.000000
# 4 0.000000 0.000000 0.000000 0.040476 0.000000 0.000000
# 5 0.000000 0.000000 0.000000 0.000000 0.043751 0.000000
# 6 0.000000 0.000000 0.000000 0.000000 0.000000 0.090533
#
#
# Mechanical properties :
#
#
# Convention : Reuss Voigt Hill
#
# Bulk Modulus (GPa) = 31.38641 34.22397 32.80519
# Shear Modulus (GPa) = 19.83085 22.53469 21.18277
#
# Velocity S-wave (km/s) = 3.48254 3.71237 3.59929
# Velocity P-wave (km/s) = 5.94694 6.26947 6.11033
#
# Compressibility (1/GPa) = 0.03186092
#
# Stress axis : x y z
#
# Youngs Moduli (GPa) = 70.95466 69.16442 48.18201
#
# Poissons Ratio (x) = 0.30818 0.13694
# Poissons Ratio (y) = 0.31616 0.06866
# Poissons Ratio (z) = 0.20166 0.09855
#
# Static dielectric constant tensor:
#      x y z
#    x 1.536670 0.000000 0.000000 
#    y 0.000000 1.584820 0.000000 
#    z 0.000000 0.000000 1.557390 
# 
# From -- ./inp_files/6401.got.cif
#   From: 2010.05.17/outbox.cif.g08.bks.cpg/sg60_4_cif.got.tgz:6401.got - 2010.06.03 14:59:27.
