data_PCOD9454990
_publ_section_title
;
Structure prediction by ZEFSAII (Michael W. Deem and Ramdas Pophale) SiO2 
 PCOD9454990
Probable space group: P B C N
;
_chemical_formula_sum "Si O2"
_cell_formula_units_Z 36
_cell_length_a 11.441317
_cell_length_b 18.092980
_cell_length_c 9.148509
_cell_angle_alpha 90.000000
_cell_angle_beta 90.000000
_cell_angle_gamma 90.000000
_cell_volume 1893.810157
_symmetry_space_group_name_H-M "P B C N"
_symmetry_group_IT_number 60
_symmetry_cell_setting 'orthorhombic'
loop_
_space_group_symop_operation_xyz
x,y,z
1/2-x,1/2-y,1/2+z
1/2+x,1/2-y,-z
-x,y,1/2-z
-x,-y,-z
1/2+x,1/2+y,1/2-z
1/2-x,1/2+y,z
x,-y,1/2+z
loop_
_atom_site_type_symbol
_atom_site_label
_atom_site_fract_x
_atom_site_fract_y
_atom_site_fract_z
Si Si1 0.138785 0.180620 0.274227
Si Si2 0.130513 0.977744 0.685305
Si Si3 0.500000 0.718523 0.750000
Si Si4 0.319453 0.600208 0.883377
Si Si5 0.314680 0.781426 0.539040
O O1 0.177374 0.095721 0.264408
O O2 0.175903 0.215951 0.424464
O O3 0.202509 0.223164 0.143657
O O4 0.000000 0.182680 0.250000
O O5 0.134592 0.953276 0.515353
O O6 0.000000 0.989132 0.750000
O O7 0.197676 0.050249 0.739634
O O8 0.413865 0.663601 0.840649
O O9 0.425411 0.770414 0.643137
O O10 0.207430 0.643506 0.947403
#
# Coordination Sequence:
#
# PCOD9454990 Si02
#       5
#     8   8   4   8   8
#     4  10  22  37  59  92 124 155 204 247 307 360
#     4  10  20  34  56  91 124 149 191 250 315 359
#     4  12  22  38  64  88 130 156 210 246 300 374
#     4  11  23  36  61  93 120 160 193 253 312 362
#     4  11  22  39  58  90 121 169 198 248 304 358
#
# _framework density 19.009295999999999
#
# number of rings (size 3 to 8) (size 9 to 14) (size 15 to 20)
#    0.000    1.333    3.333    4.667    3.111    0.000 
#    0.000    0.000    0.000    5.333    5.778    0.000 
#    0.000    0.000    0.000    0.000    0.000    0.000 
#
# Total GULP energy -200741.570841 kJ/mol
# GULP energy per Si atom -5576.154746 kJ/mol
# Density = 1.896603 g / cm^3
# Si number density = 19.009296 Si / 1000 Ang^3
#
#
#
# Elastic Constant Matrix: (Units=GPa)
#
#
# Indices 1 2 3 4 5 6 
#
# 1 52.4647 52.9348 29.6711 0.0000 0.0000 0.0000
# 2 52.9348 77.6635 46.9677 0.0000 0.0000 0.0000
# 3 29.6711 46.9677 78.0639 0.0000 0.0000 0.0000
# 4 0.0000 0.0000 0.0000 20.3078 0.0000 0.0000
# 5 0.0000 0.0000 0.0000 0.0000 39.7687 0.0000
# 6 0.0000 0.0000 0.0000 0.0000 0.0000 107.1533
#
#
#
# Elastic Compliance Matrix: (Units=1/GPa)
#
#
# Indices 1 2 3 4 5 6 
#
# 1 0.061446 -0.043634 0.002897 0.000000 0.000000 0.000000
# 2 -0.043634 0.051225 -0.014236 0.000000 0.000000 0.000000
# 3 0.002897 -0.014236 0.020274 0.000000 0.000000 0.000000
# 4 0.000000 0.000000 0.000000 0.049242 0.000000 0.000000
# 5 0.000000 0.000000 0.000000 0.000000 0.025145 0.000000
# 6 0.000000 0.000000 0.000000 0.000000 0.000000 0.009332
#
#
# Mechanical properties :
#
#
# Convention : Reuss Voigt Hill
#
# Bulk Modulus (GPa) = 43.47437 51.92660 47.70049
# Shear Modulus (GPa) = 14.95771 38.68719 26.82245
#
# Velocity S-wave (km/s) = 2.80815 4.51618 3.76043
# Velocity P-wave (km/s) = 5.78221 7.38717 6.63341
#
# Compressibility (1/GPa) = 0.02300206
#
# Stress axis : x y z
#
# Youngs Moduli (GPa) = 16.27439 19.52157 49.32510
#
# Poissons Ratio (x) = 0.85179 -0.14292
# Poissons Ratio (y) = 0.71011 0.70217
# Poissons Ratio (z) = -0.04715 0.27790
#
# Static dielectric constant tensor:
#      x y z
#    x 1.665880 0.000000 0.000000 
#    y 0.000000 1.696300 0.000000 
#    z 0.000000 0.000000 1.736250 
# 
# From -- ./inp_files/4870.got.cif
#   From: 2010.05.17/outbox.cif.g08.bks.cpg/sg60_3_cif.got.tgz:4870.got - 2010.06.03 14:59:27.
