data_PCOD9454438
_publ_section_title
;
Structure prediction by ZEFSAII (Michael W. Deem and Ramdas Pophale) SiO2 
 PCOD9454438
Probable space group: P B C N
;
_chemical_formula_sum "Si O2"
_cell_formula_units_Z 48
_cell_length_a 9.677535
_cell_length_b 14.215745
_cell_length_c 18.265121
_cell_angle_alpha 90.000000
_cell_angle_beta 90.000000
_cell_angle_gamma 90.000000
_cell_volume 2512.794246
_symmetry_space_group_name_H-M "P B C N"
_symmetry_group_IT_number 60
_symmetry_cell_setting 'orthorhombic'
loop_
_space_group_symop_operation_xyz
x,y,z
1/2-x,1/2-y,1/2+z
1/2+x,1/2-y,-z
-x,y,1/2-z
-x,-y,-z
1/2+x,1/2+y,1/2-z
1/2-x,1/2+y,z
x,-y,1/2+z
loop_
_atom_site_type_symbol
_atom_site_label
_atom_site_fract_x
_atom_site_fract_y
_atom_site_fract_z
Si Si1 0.050792 0.348544 0.895693
Si Si2 0.441453 0.044838 0.830015
Si Si3 0.067879 0.976443 0.078036
Si Si4 0.845150 0.633994 0.940449
Si Si5 0.680022 0.645130 0.608245
Si Si6 0.227458 0.157560 0.067623
O O1 0.088534 0.434436 0.842715
O O2 0.122446 0.249471 0.876235
O O3 0.884839 0.338851 0.904335
O O4 0.106707 0.375788 0.976136
O O5 0.500000 0.060657 0.750000
O O6 0.557123 0.072929 0.889314
O O7 0.310212 0.110026 0.846356
O O8 0.188891 0.901242 0.066511
O O9 0.944492 0.928231 0.121822
O O10 0.142596 0.071818 0.103078
O O11 0.000000 0.000000 0.000000
O O12 0.847867 0.743544 0.919525
O O13 0.723670 0.643269 0.521378
#
# Coordination Sequence:
#
# PCOD9454438 Si02
#       6
#     8   8   8   8   8   8
#     4  11  20  39  69  93 125 165 218 269 322 380
#     4  12  26  44  61  91 133 178 214 258 327 391
#     4  10  19  33  59  96 126 155 203 266 323 373
#     4  11  21  37  65  94 125 164 213 273 318 376
#     4  10  22  38  62  98 128 160 210 272 319 381
#     4  10  19  34  66  98 122 159 212 269 330 370
#
# _framework density 19.102240999999999
#
# number of rings (size 3 to 8) (size 9 to 14) (size 15 to 20)
#    0.000    1.333    5.000    2.500    0.000    1.333 
#    3.000    0.833    0.000    0.000    0.000    0.000 
#    0.000    0.000    0.000    0.000    0.000    0.000 
#
# Total GULP energy -268068.662073 kJ/mol
# GULP energy per Si atom -5584.763793 kJ/mol
# Density = 1.905876 g / cm^3
# Si number density = 19.102241 Si / 1000 Ang^3
#
#
#
# Elastic Constant Matrix: (Units=GPa)
#
#
# Indices 1 2 3 4 5 6 
#
# 1 122.0735 45.9956 36.6989 0.0000 0.0000 0.0000
# 2 45.9956 126.9125 41.9719 0.0000 0.0000 0.0000
# 3 36.6989 41.9719 36.4740 0.0000 0.0000 0.0000
# 4 0.0000 0.0000 0.0000 -15.0832 0.0000 0.0000
# 5 0.0000 0.0000 0.0000 0.0000 13.8732 0.0000
# 6 0.0000 0.0000 0.0000 0.0000 0.0000 39.6198
#
#
#
# Elastic Compliance Matrix: (Units=1/GPa)
#
#
# Indices 1 2 3 4 5 6 
#
# 1 0.011769 -0.000564 -0.011193 0.000000 0.000000 0.000000
# 2 -0.000564 0.012747 -0.014102 0.000000 0.000000 0.000000
# 3 -0.011193 -0.014102 0.054906 0.000000 0.000000 0.000000
# 4 0.000000 0.000000 0.000000 -0.066299 0.000000 0.000000
# 5 0.000000 0.000000 0.000000 0.000000 0.072082 0.000000
# 6 0.000000 0.000000 0.000000 0.000000 0.000000 0.025240
#
#
# Mechanical properties :
#
#
# Convention : Reuss Voigt Hill
#
# Bulk Modulus (GPa) = 36.09348 59.42140 47.75744
# Shear Modulus (GPa) = 29.17194 18.40153 23.78673
#
# Velocity S-wave (km/s) = 3.91211 3.10710 3.53261
# Velocity P-wave (km/s) = 6.27233 6.63677 6.45712
#
# Compressibility (1/GPa) = 0.02770583
#
# Stress axis : x y z
#
# Youngs Moduli (GPa) = 84.96809 78.44755 18.21286
#
# Poissons Ratio (x) = 0.04422 0.20386
# Poissons Ratio (y) = 0.04789 0.25683
# Poissons Ratio (z) = 0.95106 1.10625
#
# Static dielectric constant tensor:
#      x y z
#    x 1.663340 0.000000 0.000000 
#    y 0.000000 1.707260 0.000000 
#    z 0.000000 0.000000 1.636370 
# 
# From -- ./inp_files/22072.got.cif
#   From: 2010.05.17/outbox.cif.g08.bks.cpg/sg60_12_cif.got.tgz:22072.got - 2010.06.03 14:59:27.
