data_PCOD9454870
_publ_section_title
;
Structure prediction by ZEFSAII (Michael W. Deem and Ramdas Pophale) SiO2 
 PCOD9454870
Probable space group: P B C N
;
_chemical_formula_sum "Si O2"
_cell_formula_units_Z 52
_cell_length_a 30.682223
_cell_length_b 12.164510
_cell_length_c 8.434237
_cell_angle_alpha 90.000000
_cell_angle_beta 90.000000
_cell_angle_gamma 90.000000
_cell_volume 3147.945771
_symmetry_space_group_name_H-M "P B C N"
_symmetry_group_IT_number 60
_symmetry_cell_setting 'orthorhombic'
loop_
_space_group_symop_operation_xyz
x,y,z
1/2-x,1/2-y,1/2+z
1/2+x,1/2-y,-z
-x,y,1/2-z
-x,-y,-z
1/2+x,1/2+y,1/2-z
1/2-x,1/2+y,z
x,-y,1/2+z
loop_
_atom_site_type_symbol
_atom_site_label
_atom_site_fract_x
_atom_site_fract_y
_atom_site_fract_z
Si Si1 0.500000 0.932159 0.250000
Si Si2 0.622235 0.921339 0.721031
Si Si3 0.713744 0.442838 0.230479
Si Si4 0.437584 0.052947 0.002678
Si Si5 0.208605 0.837930 0.922126
Si Si6 0.687312 0.125535 0.722885
Si Si7 0.692621 0.767865 0.566534
O O1 0.528442 0.005277 0.369896
O O2 0.535847 0.878819 0.131271
O O3 0.585692 0.952207 0.590274
O O4 0.650046 0.034506 0.732375
O O5 0.655265 0.829144 0.663561
O O6 0.599308 0.893550 0.887327
O O7 0.697274 0.565665 0.201100
O O8 0.706155 0.391486 0.403880
O O9 0.766251 0.436307 0.202761
O O10 0.692356 0.360827 0.103124
O O11 0.183812 0.721931 0.907482
O O12 0.258858 0.806403 0.884301
O O13 0.688338 0.193160 0.886397
#
# Coordination Sequence:
#
# PCOD9454870 Si02
#       7
#     4   8   8   8   8   8   8
#     4   8  16  34  44  70  92 130 150 170 220 318
#     4  11  18  29  46  74  94 130 154 206 230 275
#     4  10  20  32  46  60  85 131 168 212 243 271
#     4   9  18  28  50  66  98 124 154 178 236 280
#     4  10  20  32  46  60  85 131 168 212 243 271
#     4  10  20  31  44  64  93 121 169 207 239 278
#     4  10  20  31  44  64  93 121 169 207 239 278
#
# _framework density 16.518709999999999
#
# number of rings (size 3 to 8) (size 9 to 14) (size 15 to 20)
#    0.000    2.154    3.077    0.923    2.154    1.231 
#    0.000    0.000    0.000    0.000    0.000    0.000 
#    0.000    0.000    0.000   96.923    0.000    0.000 
#
# Total GULP energy -289589.465411 kJ/mol
# GULP energy per Si atom -5569.028181 kJ/mol
# Density = 1.648111 g / cm^3
# Si number density = 16.518710 Si / 1000 Ang^3
#
#
#
# Elastic Constant Matrix: (Units=GPa)
#
#
# Indices 1 2 3 4 5 6 
#
# 1 59.8828 13.8534 23.5322 0.0000 0.0000 0.0000
# 2 13.8534 51.2981 3.7135 0.0000 0.0000 0.0000
# 3 23.5322 3.7135 52.5504 0.0000 0.0000 0.0000
# 4 0.0000 0.0000 0.0000 21.1584 0.0000 0.0000
# 5 0.0000 0.0000 0.0000 0.0000 36.6009 0.0000
# 6 0.0000 0.0000 0.0000 0.0000 0.0000 3.8178
#
#
#
# Elastic Compliance Matrix: (Units=1/GPa)
#
#
# Indices 1 2 3 4 5 6 
#
# 1 0.021536 -0.005144 -0.009281 0.000000 0.000000 0.000000
# 2 -0.005144 0.020823 0.000832 0.000000 0.000000 0.000000
# 3 -0.009281 0.000832 0.023126 0.000000 0.000000 0.000000
# 4 0.000000 0.000000 0.000000 0.047262 0.000000 0.000000
# 5 0.000000 0.000000 0.000000 0.000000 0.027322 0.000000
# 6 0.000000 0.000000 0.000000 0.000000 0.000000 0.261933
#
#
# Mechanical properties :
#
#
# Convention : Reuss Voigt Hill
#
# Bulk Modulus (GPa) = 26.10939 27.32553 26.71746
# Shear Modulus (GPa) = 11.31339 20.49090 15.90214
#
# Velocity S-wave (km/s) = 2.61987 3.52585 3.10607
# Velocity P-wave (km/s) = 4.99919 5.75791 5.39191
#
# Compressibility (1/GPa) = 0.03830039
#
# Stress axis : x y z
#
# Youngs Moduli (GPa) = 46.43320 48.02410 43.24063
#
# Poissons Ratio (x) = 0.24705 0.40129
# Poissons Ratio (y) = 0.23886 -0.03598
# Poissons Ratio (z) = 0.43092 -0.03996
#
# Static dielectric constant tensor:
#      x y z
#    x 1.588270 0.000000 0.000000 
#    y 0.000000 1.526680 0.000000 
#    z 0.000000 0.000000 1.634110 
# 
# From -- ./inp_files/8131.got.cif
#   From: 2010.05.17/outbox.cif.g08.bks.cpg/sg60_5_cif.got.tgz:8131.got - 2010.06.03 14:59:27.
