data_PCOD9454703
_publ_section_title
;
Structure prediction by ZEFSAII (Michael W. Deem and Ramdas Pophale) SiO2 
 PCOD9454703
Probable space group: P B C N
;
_chemical_formula_sum "Si O2"
_cell_formula_units_Z 48
_cell_length_a 9.073114
_cell_length_b 23.103483
_cell_length_c 12.183412
_cell_angle_alpha 90.000000
_cell_angle_beta 90.000000
_cell_angle_gamma 90.000000
_cell_volume 2553.893342
_symmetry_space_group_name_H-M "P B C N"
_symmetry_group_IT_number 60
_symmetry_cell_setting 'orthorhombic'
loop_
_space_group_symop_operation_xyz
x,y,z
1/2-x,1/2-y,1/2+z
1/2+x,1/2-y,-z
-x,y,1/2-z
-x,-y,-z
1/2+x,1/2+y,1/2-z
1/2-x,1/2+y,z
x,-y,1/2+z
loop_
_atom_site_type_symbol
_atom_site_label
_atom_site_fract_x
_atom_site_fract_y
_atom_site_fract_z
Si Si1 0.822658 0.620318 0.490987
Si Si2 0.825926 0.446902 0.217293
Si Si3 0.179329 0.579883 0.248103
Si Si4 0.142397 0.205492 0.875101
Si Si5 0.823493 0.154901 0.844442
Si Si6 0.855508 0.335967 0.563770
O O1 0.805886 0.576814 0.593619
O O2 0.768518 0.596920 0.373701
O O3 0.742322 0.678828 0.529604
O O4 0.994702 0.633070 0.473708
O O5 0.782087 0.513894 0.224926
O O6 0.728349 0.407540 0.299212
O O7 0.000000 0.441225 0.250000
O O8 0.221591 0.625796 0.341683
O O9 0.000000 0.582172 0.250000
O O10 0.219323 0.196896 0.756885
O O11 0.106809 0.272237 0.892291
O O12 0.995857 0.166138 0.866590
O O13 0.743224 0.168948 0.956587
#
# Coordination Sequence:
#
# PCOD9454703 Si02
#       6
#     8   8   8   8   8   8
#     4  10  21  38  59  87 114 155 195 241 294 348
#     4  10  19  37  60  87 114 150 203 246 290 348
#     4   9  22  33  60  89 115 149 194 256 289 333
#     4  10  23  37  59  84 122 153 186 240 300 357
#     4  10  22  38  59  84 117 155 190 240 298 346
#     4  11  21  36  63  86 113 151 199 242 289 347
#
# _framework density 18.794834000000002
#
# number of rings (size 3 to 8) (size 9 to 14) (size 15 to 20)
#    0.000    2.000    1.667    1.000   11.667    2.000 
#    0.000    1.667    7.333    0.000    0.000    0.000 
#    0.000    0.000    0.000    0.000    0.000    0.000 
#
# Total GULP energy -267696.670192 kJ/mol
# GULP energy per Si atom -5577.013962 kJ/mol
# Density = 1.875206 g / cm^3
# Si number density = 18.794834 Si / 1000 Ang^3
#
#
#
# Elastic Constant Matrix: (Units=GPa)
#
#
# Indices 1 2 3 4 5 6 
#
# 1 29.4091 16.6498 29.6007 0.0000 0.0000 0.0000
# 2 16.6498 84.5057 60.1964 0.0000 0.0000 0.0000
# 3 29.6007 60.1964 126.6623 0.0000 0.0000 0.0000
# 4 0.0000 0.0000 0.0000 16.9488 0.0000 0.0000
# 5 0.0000 0.0000 0.0000 0.0000 -2.3780 0.0000
# 6 0.0000 0.0000 0.0000 0.0000 0.0000 -1.0741
#
#
#
# Elastic Compliance Matrix: (Units=1/GPa)
#
#
# Indices 1 2 3 4 5 6 
#
# 1 0.044698 -0.002065 -0.009465 0.000000 0.000000 0.000000
# 2 -0.002065 0.017985 -0.008065 0.000000 0.000000 0.000000
# 3 -0.009465 -0.008065 0.013940 0.000000 0.000000 0.000000
# 4 0.000000 0.000000 0.000000 0.059001 0.000000 0.000000
# 5 0.000000 0.000000 0.000000 0.000000 -0.420523 0.000000
# 6 0.000000 0.000000 0.000000 0.000000 0.000000 -0.931039
#
#
# Mechanical properties :
#
#
# Convention : Reuss Voigt Hill
#
# Bulk Modulus (GPa) = 26.71322 50.38567 38.54944
# Shear Modulus (GPa) = -4.29453 11.64136 3.67341
#
# Velocity S-wave (km/s) = -1.51325 2.49146 1.39954
# Velocity P-wave (km/s) = 3.34525 5.92815 4.81319
#
# Compressibility (1/GPa) = 0.03743465
#
# Stress axis : x y z
#
# Youngs Moduli (GPa) = 22.37221 55.60093 71.73713
#
# Poissons Ratio (x) = 0.11480 0.67897
# Poissons Ratio (y) = 0.04619 0.57856
# Poissons Ratio (z) = 0.21175 0.44842
#
# Static dielectric constant tensor:
#      x y z
#    x 1.646450 0.000000 0.000000 
#    y 0.000000 1.652610 0.000000 
#    z 0.000000 0.000000 1.668950 
# 
# From -- ./inp_files/10082.got.cif
#   From: 2010.05.17/outbox.cif.g08.bks.cpg/sg60_6_cif.got.tgz:10082.got - 2010.06.03 14:59:27.
