data_PCOD9454880
_publ_section_title
;
Structure prediction by ZEFSAII (Michael W. Deem and Ramdas Pophale) SiO2 
 PCOD9454880
Probable space group: P B C N
;
_chemical_formula_sum "Si O2"
_cell_formula_units_Z 52
_cell_length_a 5.603929
_cell_length_b 22.008037
_cell_length_c 21.771929
_cell_angle_alpha 90.000000
_cell_angle_beta 90.000000
_cell_angle_gamma 90.000000
_cell_volume 2685.164156
_symmetry_space_group_name_H-M "P B C N"
_symmetry_group_IT_number 60
_symmetry_cell_setting 'orthorhombic'
loop_
_space_group_symop_operation_xyz
x,y,z
1/2-x,1/2-y,1/2+z
1/2+x,1/2-y,-z
-x,y,1/2-z
-x,-y,-z
1/2+x,1/2+y,1/2-z
1/2-x,1/2+y,z
x,-y,1/2+z
loop_
_atom_site_type_symbol
_atom_site_label
_atom_site_fract_x
_atom_site_fract_y
_atom_site_fract_z
Si Si1 0.456472 0.291852 0.930050
Si Si2 0.457257 0.274837 0.077388
Si Si3 0.373125 0.507593 0.689791
Si Si4 0.500000 0.903540 0.250000
Si Si5 0.702179 0.383852 0.141851
Si Si6 0.306782 0.033480 0.959687
Si Si7 0.469850 0.568795 0.080301
O O1 0.197364 0.265363 0.911417
O O2 0.475614 0.361337 0.908832
O O3 0.697842 0.255474 0.909754
O O4 0.458156 0.289737 0.004594
O O5 0.517329 0.335177 0.115719
O O6 0.500000 0.478898 0.750000
O O7 0.155759 0.549368 0.710510
O O8 0.556217 0.558253 0.665356
O O9 0.316270 0.460344 0.635680
O O10 0.352680 0.864188 0.298986
O O11 0.863844 0.411255 0.086406
O O12 0.136918 0.062286 0.011872
O O13 0.191712 0.977179 0.923178
O O14 0.500000 0.000000 0.000000
#
# Coordination Sequence:
#
# PCOD9454880 Si02
#       7
#     8   8   8   4   8   8   8
#     4  10  22  38  58  87 121 164 192 243 300 360
#     4  10  22  38  59  85 121 159 203 239 295 360
#     4   9  20  37  57  83 113 148 197 246 306 356
#     4  10  20  36  60  82 108 158 194 250 308 352
#     4  10  20  36  57  86 116 153 198 253 297 360
#     4  10  20  31  55  90 120 150 187 249 310 371
#     4  10  20  35  54  85 119 150 196 244 307 367
#
# _framework density 19.365667999999999
#
# number of rings (size 3 to 8) (size 9 to 14) (size 15 to 20)
#    0.000    2.154    1.538    0.923    4.308    1.231 
#    0.000    0.000    1.692    0.000    0.000    0.000 
#    0.000    0.000    0.000    0.000    0.000    0.000 
#
# Total GULP energy -289534.482609 kJ/mol
# GULP energy per Si atom -5567.970819 kJ/mol
# Density = 1.932159 g / cm^3
# Si number density = 19.365668 Si / 1000 Ang^3
#
#
#
# Elastic Constant Matrix: (Units=GPa)
#
#
# Indices 1 2 3 4 5 6 
#
# 1 48.0550 -9.6515 14.4683 0.0000 0.0000 0.0000
# 2 -9.6515 38.9216 31.1034 0.0000 0.0000 0.0000
# 3 14.4683 31.1034 66.6567 0.0000 0.0000 0.0000
# 4 0.0000 0.0000 0.0000 5.9887 0.0000 0.0000
# 5 0.0000 0.0000 0.0000 0.0000 23.2255 0.0000
# 6 0.0000 0.0000 0.0000 0.0000 0.0000 4.9621
#
#
#
# Elastic Compliance Matrix: (Units=1/GPa)
#
#
# Indices 1 2 3 4 5 6 
#
# 1 0.029506 0.019828 -0.015657 0.000000 0.000000 0.000000
# 2 0.019828 0.054295 -0.029639 0.000000 0.000000 0.000000
# 3 -0.015657 -0.029639 0.032231 0.000000 0.000000 0.000000
# 4 0.000000 0.000000 0.000000 0.166980 0.000000 0.000000
# 5 0.000000 0.000000 0.000000 0.000000 0.043056 0.000000
# 6 0.000000 0.000000 0.000000 0.000000 0.000000 0.201526
#
#
# Mechanical properties :
#
#
# Convention : Reuss Voigt Hill
#
# Bulk Modulus (GPa) = 15.36175 25.05262 20.20719
# Shear Modulus (GPa) = 8.33016 14.68282 11.50649
#
# Velocity S-wave (km/s) = 2.07626 2.75651 2.44020
# Velocity P-wave (km/s) = 3.70101 4.80581 4.28913
#
# Compressibility (1/GPa) = 0.06509675
#
# Stress axis : x y z
#
# Youngs Moduli (GPa) = 33.89168 18.41791 31.02618
#
# Poissons Ratio (x) = -0.36520 0.48577
# Poissons Ratio (y) = -0.67202 0.91959
# Poissons Ratio (z) = 0.53063 0.54589
#
# Static dielectric constant tensor:
#      x y z
#    x 1.822450 0.000000 0.000000 
#    y 0.000000 1.680140 0.000000 
#    z 0.000000 0.000000 1.730570 
# 
# From -- ./inp_files/21655.got.cif
#   From: 2010.05.17/outbox.cif.g08.bks.cpg/sg60_11_cif.got.tgz:21655.got - 2010.06.03 14:59:27.
