data_PCOD9454865
_publ_section_title
;
Structure prediction by ZEFSAII (Michael W. Deem and Ramdas Pophale) SiO2 
 PCOD9454865
Probable space group: P B C N
;
_chemical_formula_sum "Si O2"
_cell_formula_units_Z 44
_cell_length_a 12.522528
_cell_length_b 39.031213
_cell_length_c 5.453725
_cell_angle_alpha 90.000000
_cell_angle_beta 90.000000
_cell_angle_gamma 90.000000
_cell_volume 2665.614211
_symmetry_space_group_name_H-M "P B C N"
_symmetry_group_IT_number 60
_symmetry_cell_setting 'orthorhombic'
loop_
_space_group_symop_operation_xyz
x,y,z
1/2-x,1/2-y,1/2+z
1/2+x,1/2-y,-z
-x,y,1/2-z
-x,-y,-z
1/2+x,1/2+y,1/2-z
1/2-x,1/2+y,z
x,-y,1/2+z
loop_
_atom_site_type_symbol
_atom_site_label
_atom_site_fract_x
_atom_site_fract_y
_atom_site_fract_z
Si Si1 0.313255 0.203953 0.428670
Si Si2 0.500000 0.781002 0.250000
Si Si3 0.391436 0.268891 0.142277
Si Si4 0.629589 0.901678 0.263671
Si Si5 0.870749 0.363606 0.766583
Si Si6 0.869894 0.518964 0.753832
O O1 0.412603 0.196809 0.609100
O O2 0.337104 0.242354 0.332481
O O3 0.198229 0.205364 0.551734
O O4 0.323768 0.174722 0.227265
O O5 0.433773 0.756242 0.428924
O O6 0.500000 0.284592 0.250000
O O7 0.500000 0.901482 0.250000
O O8 0.662818 0.882345 0.513252
O O9 0.662988 0.941383 0.268162
O O10 0.662838 0.883574 0.010818
O O11 0.000000 0.361855 0.750000
O O12 0.835955 0.501275 0.498914
O O13 0.000000 0.518432 0.750000
#
# Coordination Sequence:
#
# PCOD9454865 Si02
#       6
#     8   4   8   8   8   8
#     4  11  21  33  52  68  92 124 159 203 258 295
#     4  10  20  34  50  68  92 112 158 208 242 302
#     4  10  21  35  50  71  90 119 159 210 249 300
#     4   9  18  29  40  62  90 119 155 200 234 280
#     4  10  20  30  45  64  93 122 157 196 247 294
#     4   9  15  24  40  57  80 115 157 194 228 265
#
# _framework density 16.506516000000001
#
# number of rings (size 3 to 8) (size 9 to 14) (size 15 to 20)
#    0.000    2.182    1.818    2.727    6.364    4.364 
#    0.000    0.000    0.000    0.000    0.000    0.000 
#    0.000    0.000    0.000    0.000    0.000   18.182 
#
# Total GULP energy -245360.609888 kJ/mol
# GULP energy per Si atom -5576.377497 kJ/mol
# Density = 1.646895 g / cm^3
# Si number density = 16.506516 Si / 1000 Ang^3
#
#
#
# Elastic Constant Matrix: (Units=GPa)
#
#
# Indices 1 2 3 4 5 6 
#
# 1 53.1377 21.0065 24.5754 0.0000 0.0000 0.0000
# 2 21.0065 68.3885 30.1028 0.0000 0.0000 0.0000
# 3 24.5754 30.1028 97.7268 0.0000 0.0000 0.0000
# 4 0.0000 0.0000 0.0000 17.6019 0.0000 0.0000
# 5 0.0000 0.0000 0.0000 0.0000 13.8947 0.0000
# 6 0.0000 0.0000 0.0000 0.0000 0.0000 2.8795
#
#
#
# Elastic Compliance Matrix: (Units=1/GPa)
#
#
# Indices 1 2 3 4 5 6 
#
# 1 0.022777 -0.005177 -0.004133 0.000000 0.000000 0.000000
# 2 -0.005177 0.018093 -0.004271 0.000000 0.000000 0.000000
# 3 -0.004133 -0.004271 0.012588 0.000000 0.000000 0.000000
# 4 0.000000 0.000000 0.000000 0.056812 0.000000 0.000000
# 5 0.000000 0.000000 0.000000 0.000000 0.071970 0.000000
# 6 0.000000 0.000000 0.000000 0.000000 0.000000 0.347287
#
#
# Mechanical properties :
#
#
# Convention : Reuss Voigt Hill
#
# Bulk Modulus (GPa) = 38.03049 41.18026 39.60537
# Shear Modulus (GPa) = 8.84246 16.44642 12.64444
#
# Velocity S-wave (km/s) = 2.31702 3.15994 2.77072
# Velocity P-wave (km/s) = 5.49980 6.18997 5.85506
#
# Compressibility (1/GPa) = 0.02629469
#
# Stress axis : x y z
#
# Youngs Moduli (GPa) = 43.90372 55.27116 79.44311
#
# Poissons Ratio (x) = 0.28614 0.32835
# Poissons Ratio (y) = 0.22729 0.33932
# Poissons Ratio (z) = 0.18146 0.23607
#
# Static dielectric constant tensor:
#      x y z
#    x 1.527680 0.000000 0.000000 
#    y 0.000000 1.547900 0.000000 
#    z 0.000000 0.000000 1.638200 
# 
# From -- ./inp_files/1410.got.cif
#   From: 2010.05.17/outbox.cif.g08.bks.cpg/sg60_1_cif.got.tgz:1410.got - 2010.06.03 14:59:27.
