data_PCOD9454067
_publ_section_title
;
Structure prediction by ZEFSAII (Michael W. Deem and Ramdas Pophale) SiO2 
 PCOD9454067
Probable space group: P B C N
;
_chemical_formula_sum "Si O2"
_cell_formula_units_Z 32
_cell_length_a 6.869779
_cell_length_b 10.691452
_cell_length_c 18.598563
_cell_angle_alpha 90.000000
_cell_angle_beta 90.000000
_cell_angle_gamma 90.000000
_cell_volume 1366.025627
_symmetry_space_group_name_H-M "P B C N"
_symmetry_group_IT_number 60
_symmetry_cell_setting 'orthorhombic'
loop_
_space_group_symop_operation_xyz
x,y,z
1/2-x,1/2-y,1/2+z
1/2+x,1/2-y,-z
-x,y,1/2-z
-x,-y,-z
1/2+x,1/2+y,1/2-z
1/2-x,1/2+y,z
x,-y,1/2+z
loop_
_atom_site_type_symbol
_atom_site_label
_atom_site_fract_x
_atom_site_fract_y
_atom_site_fract_z
Si Si1 0.032865 0.345740 0.090114
Si Si2 0.051494 0.925669 0.572096
Si Si3 0.937881 0.154075 0.831720
Si Si4 0.519456 0.885071 0.573844
O O1 0.207604 0.337854 0.147828
O O2 0.946908 0.206509 0.085523
O O3 0.921057 0.476926 0.102544
O O4 0.098915 0.363378 0.006455
O O5 0.782526 0.603307 0.432804
O O6 0.000000 0.000000 0.500000
O O7 0.012272 0.018500 0.637306
O O8 0.000000 0.165854 0.750000
O O9 0.039703 0.265410 0.875911
#
# Coordination Sequence:
#
# PCOD9454067 Si02
#       4
#     8   8   8   8
#     4   9  18  35  63  89 119 156 212 257 305 377
#     4  10  18  33  62  92 120 159 213 255 311 376
#     4  10  20  35  61  89 128 165 202 262 319 370
#     4   9  18  34  62  91 120 157 208 262 306 374
#
# _framework density 23.425623999999999
#
# number of rings (size 3 to 8) (size 9 to 14) (size 15 to 20)
#    0.000    2.500    2.500    0.000    0.000    0.000 
#    0.000    1.250   66.000    0.000    0.000    0.000 
#    0.000    0.000    0.000    0.000    0.000    0.000 
#
# Total GULP energy -178638.838436 kJ/mol
# GULP energy per Si atom -5582.463701 kJ/mol
# Density = 2.337231 g / cm^3
# Si number density = 23.425624 Si / 1000 Ang^3
#
#
#
# Elastic Constant Matrix: (Units=GPa)
#
#
# Indices 1 2 3 4 5 6 
#
# 1 98.5723 -9.7099 35.1071 0.0000 0.0000 0.0000
# 2 -9.7099 227.9567 46.7114 0.0000 0.0000 0.0000
# 3 35.1071 46.7114 143.9479 0.0000 0.0000 0.0000
# 4 0.0000 0.0000 0.0000 31.2681 0.0000 0.0000
# 5 0.0000 0.0000 0.0000 0.0000 29.4688 0.0000
# 6 0.0000 0.0000 0.0000 0.0000 0.0000 -15.8155
#
#
#
# Elastic Compliance Matrix: (Units=1/GPa)
#
#
# Indices 1 2 3 4 5 6 
#
# 1 0.011374 0.001128 -0.003140 0.000000 0.000000 0.000000
# 2 0.001128 0.004811 -0.001836 0.000000 0.000000 0.000000
# 3 -0.003140 -0.001836 0.008309 0.000000 0.000000 0.000000
# 4 0.000000 0.000000 0.000000 0.031982 0.000000 0.000000
# 5 0.000000 0.000000 0.000000 0.000000 0.033934 0.000000
# 6 0.000000 0.000000 0.000000 0.000000 0.000000 -0.063229
#
#
# Mechanical properties :
#
#
# Convention : Reuss Voigt Hill
#
# Bulk Modulus (GPa) = 59.53370 68.29936 63.91653
# Shear Modulus (GPa) = 123.52852 35.54217 79.53535
#
# Velocity S-wave (km/s) = 7.26957 3.89940 5.83318
# Velocity P-wave (km/s) = 9.79446 7.03512 8.52714
#
# Compressibility (1/GPa) = 0.01679721
#
# Stress axis : x y z
#
# Youngs Moduli (GPa) = 87.91747 207.85151 120.35622
#
# Poissons Ratio (x) = -0.23444 0.37793
# Poissons Ratio (y) = -0.09917 0.22101
# Poissons Ratio (z) = 0.27607 0.38168
#
# Static dielectric constant tensor:
#      x y z
#    x 2.080020 0.000000 0.000000 
#    y 0.000000 1.959690 0.000000 
#    z 0.000000 0.000000 1.779560 
# 
# From -- ./inp_files/15587.got.cif
#   From: 2010.05.17/outbox.cif.g08.bks.cpg/sg60_8_cif.got.tgz:15587.got - 2010.06.03 14:59:27.
