data_PCOD9454789
_publ_section_title
;
Structure prediction by ZEFSAII (Michael W. Deem and Ramdas Pophale) SiO2 
 PCOD9454789
Probable space group: P B C N
;
_chemical_formula_sum "Si O2"
_cell_formula_units_Z 48
_cell_length_a 8.329758
_cell_length_b 19.684787
_cell_length_c 15.405422
_cell_angle_alpha 90.000000
_cell_angle_beta 90.000000
_cell_angle_gamma 90.000000
_cell_volume 2526.019527
_symmetry_space_group_name_H-M "P B C N"
_symmetry_group_IT_number 60
_symmetry_cell_setting 'orthorhombic'
loop_
_space_group_symop_operation_xyz
x,y,z
1/2-x,1/2-y,1/2+z
1/2+x,1/2-y,-z
-x,y,1/2-z
-x,-y,-z
1/2+x,1/2+y,1/2-z
1/2-x,1/2+y,z
x,-y,1/2+z
loop_
_atom_site_type_symbol
_atom_site_label
_atom_site_fract_x
_atom_site_fract_y
_atom_site_fract_z
Si Si1 0.538566 0.147922 0.507243
Si Si2 0.186658 0.795286 0.748791
Si Si3 0.106140 0.573651 0.664606
Si Si4 0.674321 0.256315 0.068952
Si Si5 0.364890 0.086120 0.177676
Si Si6 0.609374 0.679303 0.834545
O O1 0.499715 0.092728 0.580704
O O2 0.686736 0.194982 0.535454
O O3 0.385771 0.197640 0.495178
O O4 0.579050 0.114481 0.415023
O O5 0.262880 0.780146 0.843096
O O6 0.214128 0.871150 0.713135
O O7 0.285096 0.746089 0.685012
O O8 0.000000 0.777581 0.750000
O O9 0.151436 0.494618 0.670729
O O10 0.266983 0.618007 0.657101
O O11 0.000000 0.591405 0.750000
O O12 0.517392 0.301774 0.091061
O O13 0.500000 0.100697 0.250000
O O14 0.500000 0.666381 0.750000
#
# Coordination Sequence:
#
# PCOD9454789 Si02
#       6
#     8   8   8   8   8   8
#     4  12  23  41  63 102 126 174 218 272 325 386
#     4  11  21  39  67  95 124 167 221 271 324 386
#     4  11  24  41  66  93 129 176 221 261 326 395
#     4  11  23  37  69  93 133 165 216 280 327 378
#     4  11  23  45  65  90 134 177 211 263 329 394
#     4  10  19  39  62  91 127 165 211 273 322 373
#
# _framework density 19.002227999999999
#
# number of rings (size 3 to 8) (size 9 to 14) (size 15 to 20)
#    0.000    1.000    3.333    5.500    2.333    0.667 
#    0.000    0.833    0.000    0.000    0.000    0.000 
#    0.000    0.000    0.000    0.000    0.000    0.000 
#
# Total GULP energy -268277.622221 kJ/mol
# GULP energy per Si atom -5589.117130 kJ/mol
# Density = 1.895898 g / cm^3
# Si number density = 19.002228 Si / 1000 Ang^3
#
#
#
# Elastic Constant Matrix: (Units=GPa)
#
#
# Indices 1 2 3 4 5 6 
#
# 1 108.7926 47.7423 33.3962 0.0000 0.0000 0.0000
# 2 47.7423 97.0582 51.0976 0.0000 0.0000 0.0000
# 3 33.3962 51.0976 111.7953 0.0000 0.0000 0.0000
# 4 0.0000 0.0000 0.0000 19.2053 0.0000 0.0000
# 5 0.0000 0.0000 0.0000 0.0000 27.0877 0.0000
# 6 0.0000 0.0000 0.0000 0.0000 0.0000 29.5564
#
#
#
# Elastic Compliance Matrix: (Units=1/GPa)
#
#
# Indices 1 2 3 4 5 6 
#
# 1 0.011834 -0.005215 -0.001152 0.000000 0.000000 0.000000
# 2 -0.005215 0.015866 -0.005694 0.000000 0.000000 0.000000
# 3 -0.001152 -0.005694 0.011891 0.000000 0.000000 0.000000
# 4 0.000000 0.000000 0.000000 0.052069 0.000000 0.000000
# 5 0.000000 0.000000 0.000000 0.000000 0.036917 0.000000
# 6 0.000000 0.000000 0.000000 0.000000 0.000000 0.033834
#
#
# Mechanical properties :
#
#
# Convention : Reuss Voigt Hill
#
# Bulk Modulus (GPa) = 64.63895 64.67981 64.65938
# Shear Modulus (GPa) = 26.08409 27.53055 26.80732
#
# Velocity S-wave (km/s) = 3.70900 3.81045 3.76007
# Velocity P-wave (km/s) = 7.24103 7.31241 7.27681
#
# Compressibility (1/GPa) = 0.01547055
#
# Stress axis : x y z
#
# Youngs Moduli (GPa) = 84.50443 63.02865 84.09416
#
# Poissons Ratio (x) = 0.32867 0.09684
# Poissons Ratio (y) = 0.44066 0.47883
# Poissons Ratio (z) = 0.09732 0.35888
#
# Static dielectric constant tensor:
#      x y z
#    x 1.639590 0.000000 0.000000 
#    y 0.000000 1.650070 0.000000 
#    z 0.000000 0.000000 1.678910 
# 
# From -- ./inp_files/15015.got.cif
#   From: 2010.05.17/outbox.cif.g08.bks.cpg/sg60_8_cif.got.tgz:15015.got - 2010.06.03 14:59:27.
