data_PCOD9454158
_publ_section_title
;
Structure prediction by ZEFSAII (Michael W. Deem and Ramdas Pophale) SiO2 
 PCOD9454158
Probable space group: P B C N
;
_chemical_formula_sum "Si O2"
_cell_formula_units_Z 52
_cell_length_a 6.349941
_cell_length_b 18.589353
_cell_length_c 19.126980
_cell_angle_alpha 90.000000
_cell_angle_beta 90.000000
_cell_angle_gamma 90.000000
_cell_volume 2257.773484
_symmetry_space_group_name_H-M "P B C N"
_symmetry_group_IT_number 60
_symmetry_cell_setting 'orthorhombic'
loop_
_space_group_symop_operation_xyz
x,y,z
1/2-x,1/2-y,1/2+z
1/2+x,1/2-y,-z
-x,y,1/2-z
-x,-y,-z
1/2+x,1/2+y,1/2-z
1/2-x,1/2+y,z
x,-y,1/2+z
loop_
_atom_site_type_symbol
_atom_site_label
_atom_site_fract_x
_atom_site_fract_y
_atom_site_fract_z
Si Si1 0.490027 0.039814 0.886323
Si Si2 0.622995 0.616366 0.185755
Si Si3 0.994923 0.038493 0.666801
Si Si4 0.824497 0.710215 0.068127
Si Si5 0.025314 0.856682 0.046706
Si Si6 0.869330 0.400883 0.974035
Si Si7 0.500000 0.023635 0.250000
O O1 0.249040 0.047463 0.859034
O O2 0.545603 0.966230 0.927511
O O3 0.598638 0.027021 0.810617
O O4 0.487523 0.094453 0.950956
O O5 0.500000 0.650869 0.250000
O O6 0.482302 0.548537 0.159284
O O7 0.691971 0.674134 0.129807
O O8 0.828647 0.576078 0.216087
O O9 0.103968 0.090792 0.608950
O O10 0.000000 0.056332 0.750000
O O11 0.870764 0.794087 0.075567
O O12 0.049846 0.670106 0.064148
O O13 0.694519 0.686948 0.999195
O O14 0.876772 0.901893 0.993323
#
# Coordination Sequence:
#
# PCOD9454158 Si02
#       7
#     8   8   8   8   8   8   4
#     4   9  19  35  64  90 122 155 201 255 311 365
#     4  10  23  39  63  91 122 152 209 254 309 373
#     4   9  19  41  61  93 125 156 204 260 305 371
#     4  12  23  41  61  91 123 168 208 258 306 371
#     4  11  25  40  64  87 129 168 206 259 312 367
#     4  10  20  41  58  92 123 155 206 255 308 377
#     4  10  18  36  58  88 118 160 180 256 304 354
#
# _framework density 23.031538999999999
#
# number of rings (size 3 to 8) (size 9 to 14) (size 15 to 20)
#    0.000    1.846    4.615    0.000    2.154    4.308 
#    1.385    0.000   15.231    0.000    0.000    0.000 
#    0.000    0.000    0.000    0.000    0.000    0.000 
#
# Total GULP energy -289902.039706 kJ/mol
# GULP energy per Si atom -5575.039225 kJ/mol
# Density = 2.297912 g / cm^3
# Si number density = 23.031539 Si / 1000 Ang^3
#
#
#
# Elastic Constant Matrix: (Units=GPa)
#
#
# Indices 1 2 3 4 5 6 
#
# 1 17.3123 2.0517 16.7931 0.0000 0.0000 0.0000
# 2 2.0517 79.6661 53.0677 0.0000 0.0000 0.0000
# 3 16.7931 53.0677 165.5838 0.0000 0.0000 0.0000
# 4 0.0000 0.0000 0.0000 27.9974 0.0000 0.0000
# 5 0.0000 0.0000 0.0000 0.0000 46.6441 0.0000
# 6 0.0000 0.0000 0.0000 0.0000 0.0000 15.8881
#
#
#
# Elastic Compliance Matrix: (Units=1/GPa)
#
#
# Indices 1 2 3 4 5 6 
#
# 1 0.064800 0.003444 -0.007676 0.000000 0.000000 0.000000
# 2 0.003444 0.016143 -0.005523 0.000000 0.000000 0.000000
# 3 -0.007676 -0.005523 0.008588 0.000000 0.000000 0.000000
# 4 0.000000 0.000000 0.000000 0.035718 0.000000 0.000000
# 5 0.000000 0.000000 0.000000 0.000000 0.021439 0.000000
# 6 0.000000 0.000000 0.000000 0.000000 0.000000 0.062940
#
#
# Mechanical properties :
#
#
# Convention : Reuss Voigt Hill
#
# Bulk Modulus (GPa) = 14.28138 45.15414 29.71776
# Shear Modulus (GPa) = 19.80387 30.81588 25.30987
#
# Velocity S-wave (km/s) = 2.93552 3.66182 3.31860
# Velocity P-wave (km/s) = 4.20760 6.12588 5.25502
#
# Compressibility (1/GPa) = 0.07002126
#
# Stress axis : x y z
#
# Youngs Moduli (GPa) = 15.43217 61.94801 116.44595
#
# Poissons Ratio (x) = -0.21335 0.89379
# Poissons Ratio (y) = -0.05315 0.64311
# Poissons Ratio (z) = 0.11845 0.34213
#
# Static dielectric constant tensor:
#      x y z
#    x 2.205650 0.000000 0.000000 
#    y 0.000000 1.807780 0.000000 
#    z 0.000000 0.000000 1.906110 
# 
# From -- ./inp_files/19507.got.cif
#   From: 2010.05.17/outbox.cif.g08.bks.cpg/sg60_10_cif.got.tgz:19507.got - 2010.06.03 14:59:27.
