data_PCOD9454632
_publ_section_title
;
Structure prediction by ZEFSAII (Michael W. Deem and Ramdas Pophale) SiO2 
 PCOD9454632
Probable space group: P B C N
;
_chemical_formula_sum "Si O2"
_cell_formula_units_Z 48
_cell_length_a 16.797488
_cell_length_b 8.937722
_cell_length_c 16.871244
_cell_angle_alpha 90.000000
_cell_angle_beta 90.000000
_cell_angle_gamma 90.000000
_cell_volume 2532.901424
_symmetry_space_group_name_H-M "P B C N"
_symmetry_group_IT_number 60
_symmetry_cell_setting 'orthorhombic'
loop_
_space_group_symop_operation_xyz
x,y,z
1/2-x,1/2-y,1/2+z
1/2+x,1/2-y,-z
-x,y,1/2-z
-x,-y,-z
1/2+x,1/2+y,1/2-z
1/2-x,1/2+y,z
x,-y,1/2+z
loop_
_atom_site_type_symbol
_atom_site_label
_atom_site_fract_x
_atom_site_fract_y
_atom_site_fract_z
Si Si1 0.659100 0.894985 0.962406
Si Si2 0.422998 0.196513 0.522679
Si Si3 0.667645 0.548915 0.421996
Si Si4 0.573960 0.349645 0.145369
Si Si5 0.113771 0.185830 0.683160
Si Si6 0.410021 0.644126 0.446076
O O1 0.745934 0.967148 0.959826
O O2 0.645857 0.809028 0.878756
O O3 0.652975 0.775093 0.034044
O O4 0.591658 0.020936 0.970523
O O5 0.357093 0.279298 0.576626
O O6 0.409592 0.250657 0.432361
O O7 0.506982 0.266464 0.549850
O O8 0.659782 0.466235 0.339239
O O9 0.603097 0.464517 0.477940
O O10 0.479745 0.336886 0.163318
O O11 0.618497 0.289721 0.223174
O O12 0.593203 0.524261 0.124915
#
# Coordination Sequence:
#
# PCOD9454632 Si02
#       6
#     8   8   8   8   8   8
#     4  11  22  33  58  89 121 145 190 245 299 330
#     4  11  18  35  60  87 111 148 192 251 274 334
#     4  10  19  37  56  81 113 158 189 224 290 361
#     4  10  19  36  61  79 111 150 199 235 279 342
#     4  10  20  37  56  82 112 157 189 230 292 355
#     4  10  19  36  58  85 106 152 201 234 276 346
#
# _framework density 18.950597999999999
#
# number of rings (size 3 to 8) (size 9 to 14) (size 15 to 20)
#    0.000    1.667    5.000    3.500    0.000    0.000 
#    0.000    8.333    0.000    0.000    0.000    0.000 
#    0.000    0.000    0.000    0.000    0.000    0.000 
#
# Total GULP energy -267299.840782 kJ/mol
# GULP energy per Si atom -5568.746683 kJ/mol
# Density = 1.890747 g / cm^3
# Si number density = 18.950598 Si / 1000 Ang^3
#
#
#
# Elastic Constant Matrix: (Units=GPa)
#
#
# Indices 1 2 3 4 5 6 
#
# 1 44.1710 -4.4014 5.9243 0.0000 0.0000 0.0000
# 2 -4.4014 84.4092 28.9247 0.0000 0.0000 0.0000
# 3 5.9243 28.9247 84.0944 0.0000 0.0000 0.0000
# 4 0.0000 0.0000 0.0000 18.6497 0.0000 0.0000
# 5 0.0000 0.0000 0.0000 0.0000 17.2870 0.0000
# 6 0.0000 0.0000 0.0000 0.0000 0.0000 20.4980
#
#
#
# Elastic Compliance Matrix: (Units=1/GPa)
#
#
# Indices 1 2 3 4 5 6 
#
# 1 0.023150 0.002002 -0.002319 0.000000 0.000000 0.000000
# 2 0.002002 0.013603 -0.004820 0.000000 0.000000 0.000000
# 3 -0.002319 -0.004820 0.013713 0.000000 0.000000 0.000000
# 4 0.000000 0.000000 0.000000 0.053620 0.000000 0.000000
# 5 0.000000 0.000000 0.000000 0.000000 0.057847 0.000000
# 6 0.000000 0.000000 0.000000 0.000000 0.000000 0.048785
#
#
# Mechanical properties :
#
#
# Convention : Reuss Voigt Hill
#
# Bulk Modulus (GPa) = 24.88133 30.39664 27.63899
# Shear Modulus (GPa) = 21.33201 23.43541 22.38371
#
# Velocity S-wave (km/s) = 3.35873 3.52043 3.44053
# Velocity P-wave (km/s) = 5.31032 5.70958 5.51357
#
# Compressibility (1/GPa) = 0.04019078
#
# Stress axis : x y z
#
# Youngs Moduli (GPa) = 43.19677 73.51275 72.92549
#
# Poissons Ratio (x) = -0.14717 0.16915
# Poissons Ratio (y) = -0.08648 0.35149
# Poissons Ratio (z) = 0.10019 0.35432
#
# Static dielectric constant tensor:
#      x y z
#    x 1.697480 0.000000 0.000000 
#    y 0.000000 1.703680 0.000000 
#    z 0.000000 0.000000 1.666690 
# 
# From -- ./inp_files/20800.got.cif
#   From: 2010.05.17/outbox.cif.g08.bks.cpg/sg60_11_cif.got.tgz:20800.got - 2010.06.03 14:59:27.
