data_PCOD9454290
_publ_section_title
;
Structure prediction by ZEFSAII (Michael W. Deem and Ramdas Pophale) SiO2 
 PCOD9454290
Probable space group: P B C N
;
_chemical_formula_sum "Si O2"
_cell_formula_units_Z 60
_cell_length_a 17.440445
_cell_length_b 37.438628
_cell_length_c 5.217337
_cell_angle_alpha 90.000000
_cell_angle_beta 90.000000
_cell_angle_gamma 90.000000
_cell_volume 3406.641060
_symmetry_space_group_name_H-M "P B C N"
_symmetry_group_IT_number 60
_symmetry_cell_setting 'orthorhombic'
loop_
_space_group_symop_operation_xyz
x,y,z
1/2-x,1/2-y,1/2+z
1/2+x,1/2-y,-z
-x,y,1/2-z
-x,-y,-z
1/2+x,1/2+y,1/2-z
1/2-x,1/2+y,z
x,-y,1/2+z
loop_
_atom_site_type_symbol
_atom_site_label
_atom_site_fract_x
_atom_site_fract_y
_atom_site_fract_z
Si Si1 0.000000 0.975147 0.750000
Si Si2 0.168763 0.024949 0.241725
Si Si3 0.851593 0.742236 0.821879
Si Si4 0.392992 0.166472 0.828985
Si Si5 0.671830 0.282630 0.321388
Si Si6 0.421897 0.124784 0.324724
Si Si7 0.251437 0.402123 0.805145
Si Si8 0.217318 0.140788 0.808704
O O1 0.083327 0.957135 0.749888
O O2 0.000000 0.000000 0.500000
O O3 0.229074 0.056639 0.266105
O O4 0.175373 0.997619 0.480029
O O5 0.900608 0.707553 0.749056
O O6 0.858162 0.771797 0.600173
O O7 0.762235 0.728975 0.823277
O O8 0.866291 0.758975 0.098826
O O9 0.426460 0.141215 0.607455
O O10 0.302967 0.156958 0.822322
O O11 0.418640 0.156545 0.113976
O O12 0.666615 0.324414 0.252128
O O13 0.500000 0.104263 0.250000
O O14 0.340609 0.104653 0.298711
O O15 0.291165 0.379369 0.577688
O O16 0.282268 0.387086 0.075004
#
# Coordination Sequence:
#
# PCOD9454290 Si02
#       8
#     4   8   8   8   8   8   8   8
#     4   8  16  30  50  76 104 124 140 174 218 270
#     4  10  19  33  53  77 104 129 153 186 231 284
#     4   9  15  23  37  58  85 115 145 186 236 290
#     4   9  17  28  42  62  89 119 155 203 251 293
#     4   9  15  23  37  58  88 119 144 180 235 280
#     4  10  19  31  46  64  91 125 165 211 253 288
#     4  10  19  31  48  69  97 129 160 198 240 286
#     4   9  17  28  42  65  96 125 153 192 237 282
#
# _framework density 17.612655
#
# number of rings (size 3 to 8) (size 9 to 14) (size 15 to 20)
#    0.000    2.667    0.000    2.800    0.000    6.400 
#    0.000    0.000    0.000    0.800    0.000    0.000 
#   40.000    0.000    0.000    0.000    0.000    0.000 
#
# Total GULP energy -334138.475835 kJ/mol
# GULP energy per Si atom -5568.974597 kJ/mol
# Density = 1.757257 g / cm^3
# Si number density = 17.612655 Si / 1000 Ang^3
#
#
#
# Elastic Constant Matrix: (Units=GPa)
#
#
# Indices 1 2 3 4 5 6 
#
# 1 43.4153 16.1706 -4.2836 0.0000 0.0000 0.0000
# 2 16.1706 46.9600 -12.2743 0.0000 0.0000 0.0000
# 3 -4.2836 -12.2743 65.7728 0.0000 0.0000 0.0000
# 4 0.0000 0.0000 0.0000 24.5047 0.0000 0.0000
# 5 0.0000 0.0000 0.0000 0.0000 13.1770 0.0000
# 6 0.0000 0.0000 0.0000 0.0000 0.0000 -2.3403
#
#
#
# Elastic Compliance Matrix: (Units=1/GPa)
#
#
# Indices 1 2 3 4 5 6 
#
# 1 0.026422 -0.009092 0.000024 0.000000 0.000000 0.000000
# 2 -0.009092 0.025515 0.004169 0.000000 0.000000 0.000000
# 3 0.000024 0.004169 0.015983 0.000000 0.000000 0.000000
# 4 0.000000 0.000000 0.000000 0.040808 0.000000 0.000000
# 5 0.000000 0.000000 0.000000 0.000000 0.075890 0.000000
# 6 0.000000 0.000000 0.000000 0.000000 0.000000 -0.427304
#
#
# Mechanical properties :
#
#
# Convention : Reuss Voigt Hill
#
# Bulk Modulus (GPa) = 17.20468 17.26376 17.23422
# Shear Modulus (GPa) = -23.41783 17.50398 -2.95693
#
# Velocity S-wave (km/s) = -3.65033 3.15593 -1.29712
# Velocity P-wave (km/s) = 2.82435 4.80656 2.75010
#
# Compressibility (1/GPa) = 0.05812371
#
# Stress axis : x y z
#
# Youngs Moduli (GPa) = 37.84694 39.19199 62.56454
#
# Poissons Ratio (x) = 0.35634 -0.00150
# Poissons Ratio (y) = 0.34411 -0.26086
# Poissons Ratio (z) = -0.00091 -0.16341
#
# Static dielectric constant tensor:
#      x y z
#    x 1.672790 0.000000 0.000000 
#    y 0.000000 1.573910 0.000000 
#    z 0.000000 0.000000 1.593690 
# 
# From -- ./inp_files/1893.got.cif
#   From: 2010.05.17/outbox.cif.g08.bks.cpg/sg60_1_cif.got.tgz:1893.got - 2010.06.03 14:59:27.
