data_PCOD9454893
_publ_section_title
;
Structure prediction by ZEFSAII (Michael W. Deem and Ramdas Pophale) SiO2 
 PCOD9454893
Probable space group: P B C N
;
_chemical_formula_sum "Si O2"
_cell_formula_units_Z 48
_cell_length_a 14.750169
_cell_length_b 20.806362
_cell_length_c 8.874286
_cell_angle_alpha 90.000000
_cell_angle_beta 90.000000
_cell_angle_gamma 90.000000
_cell_volume 2723.494908
_symmetry_space_group_name_H-M "P B C N"
_symmetry_group_IT_number 60
_symmetry_cell_setting 'orthorhombic'
loop_
_space_group_symop_operation_xyz
x,y,z
1/2-x,1/2-y,1/2+z
1/2+x,1/2-y,-z
-x,y,1/2-z
-x,-y,-z
1/2+x,1/2+y,1/2-z
1/2-x,1/2+y,z
x,-y,1/2+z
loop_
_atom_site_type_symbol
_atom_site_label
_atom_site_fract_x
_atom_site_fract_y
_atom_site_fract_z
Si Si1 0.555526 0.245230 0.609837
Si Si2 0.305454 0.928462 0.572163
Si Si3 0.748609 0.195232 0.601105
Si Si4 0.195208 0.184673 0.572162
Si Si5 0.004469 0.626004 0.427714
Si Si6 0.800419 0.433356 0.567504
O O1 0.500000 0.270619 0.750000
O O2 0.645662 0.206282 0.662652
O O3 0.598391 0.299157 0.502532
O O4 0.499156 0.192335 0.518545
O O5 0.252327 0.868839 0.497996
O O6 0.412165 0.913499 0.542572
O O7 0.289496 0.930377 0.751558
O O8 0.282824 0.995824 0.495408
O O9 0.758803 0.257732 0.495445
O O10 0.809277 0.190984 0.748452
O O11 0.236848 0.118354 0.515098
O O12 0.000000 0.640952 0.250000
O O13 0.095082 0.586814 0.463201
#
# Coordination Sequence:
#
# PCOD9454893 Si02
#       6
#     8   8   8   8   8   8
#     4   9  19  33  50  74 106 141 178 216 271 314
#     4  10  20  34  50  77 111 145 177 213 272 327
#     4   9  19  33  52  74 106 136 179 222 269 316
#     4  10  20  32  53  75 105 137 183 224 265 311
#     4   9  19  32  49  75 110 145 175 210 258 329
#     4  11  20  32  52  78 107 144 180 219 263 323
#
# _framework density 17.624414000000002
#
# number of rings (size 3 to 8) (size 9 to 14) (size 15 to 20)
#    1.000    1.333    0.000    3.500    2.333    1.333 
#    0.000    0.833    0.000    0.000    0.000    4.667 
#    0.000    0.000    0.000    0.000    0.000    0.000 
#
# Total GULP energy -267442.274752 kJ/mol
# GULP energy per Si atom -5571.714057 kJ/mol
# Density = 1.758430 g / cm^3
# Si number density = 17.624414 Si / 1000 Ang^3
#
#
#
# Elastic Constant Matrix: (Units=GPa)
#
#
# Indices 1 2 3 4 5 6 
#
# 1 6.6538 16.8473 9.5653 0.0000 0.0000 0.0000
# 2 16.8473 105.6909 53.8782 0.0000 0.0000 0.0000
# 3 9.5653 53.8782 75.7073 0.0000 0.0000 0.0000
# 4 0.0000 0.0000 0.0000 29.2933 0.0000 0.0000
# 5 0.0000 0.0000 0.0000 0.0000 27.2254 0.0000
# 6 0.0000 0.0000 0.0000 0.0000 0.0000 10.0964
#
#
#
# Elastic Compliance Matrix: (Units=1/GPa)
#
#
# Indices 1 2 3 4 5 6 
#
# 1 0.253259 -0.037755 -0.005129 0.000000 0.000000 0.000000
# 2 -0.037755 0.020477 -0.009802 0.000000 0.000000 0.000000
# 3 -0.005129 -0.009802 0.020833 0.000000 0.000000 0.000000
# 4 0.000000 0.000000 0.000000 0.034137 0.000000 0.000000
# 5 0.000000 0.000000 0.000000 0.000000 0.036730 0.000000
# 6 0.000000 0.000000 0.000000 0.000000 0.000000 0.099045
#
#
# Mechanical properties :
#
#
# Convention : Reuss Voigt Hill
#
# Bulk Modulus (GPa) = 5.28555 38.73708 22.01131
# Shear Modulus (GPa) = 7.89989 20.50710 14.20349
#
# Velocity S-wave (km/s) = 2.11945 3.41480 2.84192
# Velocity P-wave (km/s) = 2.99916 6.12983 4.82544
#
# Compressibility (1/GPa) = 0.18919497
#
# Stress axis : x y z
#
# Youngs Moduli (GPa) = 3.94853 48.83590 48.00116
#
# Poissons Ratio (x) = 1.84380 0.24622
# Poissons Ratio (y) = 0.14908 0.47052
# Poissons Ratio (z) = 0.02025 0.47871
#
# Static dielectric constant tensor:
#      x y z
#    x 1.617500 0.000000 0.000000 
#    y 0.000000 1.573360 0.000000 
#    z 0.000000 0.000000 1.594740 
# 
# From -- ./inp_files/6019.got.cif
#   From: 2010.05.17/outbox.cif.g08.bks.cpg/sg60_4_cif.got.tgz:6019.got - 2010.06.03 14:59:27.
