data_PCOD9454235
_publ_section_title
;
Structure prediction by ZEFSAII (Michael W. Deem and Ramdas Pophale) SiO2 
 PCOD9454235
Probable space group: P B C N
;
_chemical_formula_sum "Si O2"
_cell_formula_units_Z 28
_cell_length_a 8.455824
_cell_length_b 13.247512
_cell_length_c 10.102638
_cell_angle_alpha 90.000000
_cell_angle_beta 90.000000
_cell_angle_gamma 90.000000
_cell_volume 1131.683667
_symmetry_space_group_name_H-M "P B C N"
_symmetry_group_IT_number 60
_symmetry_cell_setting 'orthorhombic'
loop_
_space_group_symop_operation_xyz
x,y,z
1/2-x,1/2-y,1/2+z
1/2+x,1/2-y,-z
-x,y,1/2-z
-x,-y,-z
1/2+x,1/2+y,1/2-z
1/2-x,1/2+y,z
x,-y,1/2+z
loop_
_atom_site_type_symbol
_atom_site_label
_atom_site_fract_x
_atom_site_fract_y
_atom_site_fract_z
Si Si1 0.515990 0.204034 0.476045
Si Si2 0.500000 0.108637 0.750000
Si Si3 0.331976 0.398646 0.952218
Si Si4 0.246912 0.944341 0.664327
O O1 0.553617 0.173874 0.626812
O O2 0.340391 0.159172 0.455869
O O3 0.545115 0.323055 0.476846
O O4 0.641126 0.147922 0.381640
O O5 0.360187 0.034689 0.710999
O O6 0.349251 0.416531 0.795704
O O7 0.327329 0.502571 0.035088
#
# Coordination Sequence:
#
# PCOD9454235 Si02
#       4
#     8   4   8   8
#     4  11  23  39  68  98 127 169 222 268 319 385
#     4  10  18  40  64  88 124 172 218 250 306 396
#     4  11  24  41  72  94 132 170 223 266 323 384
#     4  11  20  42  65  95 126 176 218 258 315 403
#
# _framework density 24.741897999999999
#
# number of rings (size 3 to 8) (size 9 to 14) (size 15 to 20)
#    0.000    1.143    5.714    1.714    8.000    0.000 
#    0.000    1.429    6.286    0.000    0.000    0.000 
#    0.000    0.000    0.000    0.000    0.000    0.000 
#
# Total GULP energy -156677.890728 kJ/mol
# GULP energy per Si atom -5595.638955 kJ/mol
# Density = 2.468558 g / cm^3
# Si number density = 24.741898 Si / 1000 Ang^3
#
#
#
# Elastic Constant Matrix: (Units=GPa)
#
#
# Indices 1 2 3 4 5 6 
#
# 1 80.7367 43.7660 41.5992 0.0000 0.0000 0.0000
# 2 43.7660 135.3360 34.3820 0.0000 0.0000 0.0000
# 3 41.5992 34.3820 148.9608 0.0000 0.0000 0.0000
# 4 0.0000 0.0000 0.0000 10.5943 0.0000 0.0000
# 5 0.0000 0.0000 0.0000 0.0000 -80.6909 0.0000
# 6 0.0000 0.0000 0.0000 0.0000 0.0000 32.5087
#
#
#
# Elastic Compliance Matrix: (Units=1/GPa)
#
#
# Indices 1 2 3 4 5 6 
#
# 1 0.016678 -0.004473 -0.003625 0.000000 0.000000 0.000000
# 2 -0.004473 0.009049 -0.000840 0.000000 0.000000 0.000000
# 3 -0.003625 -0.000840 0.007919 0.000000 0.000000 0.000000
# 4 0.000000 0.000000 0.000000 0.094390 0.000000 0.000000
# 5 0.000000 0.000000 0.000000 0.000000 -0.012393 0.000000
# 6 0.000000 0.000000 0.000000 0.000000 0.000000 0.030761
#
#
# Mechanical properties :
#
#
# Convention : Reuss Voigt Hill
#
# Bulk Modulus (GPa) = 63.40522 67.16978 65.28750
# Shear Modulus (GPa) = 29.49210 8.83485 19.16348
#
# Velocity S-wave (km/s) = 3.45627 1.89171 2.78607
# Velocity P-wave (km/s) = 6.45058 5.65496 6.06583
#
# Compressibility (1/GPa) = 0.01577157
#
# Stress axis : x y z
#
# Youngs Moduli (GPa) = 59.95786 110.51345 126.27272
#
# Poissons Ratio (x) = 0.49428 0.45778
# Poissons Ratio (y) = 0.26817 0.10601
# Poissons Ratio (z) = 0.21737 0.09278
#
# Static dielectric constant tensor:
#      x y z
#    x 2.059000 0.000000 0.000000 
#    y 0.000000 1.909740 0.000000 
#    z 0.000000 0.000000 2.291540 
# 
# From -- ./inp_files/4455.got.cif
#   From: 2010.05.17/outbox.cif.g08.bks.cpg/sg60_3_cif.got.tgz:4455.got - 2010.06.03 14:59:27.
