data_PCOD9454929
_publ_section_title
;
Structure prediction by ZEFSAII (Michael W. Deem and Ramdas Pophale) SiO2 
 PCOD9454929
Probable space group: P B C N
;
_chemical_formula_sum "Si O2"
_cell_formula_units_Z 56
_cell_length_a 5.525282
_cell_length_b 26.187982
_cell_length_c 20.051625
_cell_angle_alpha 90.000000
_cell_angle_beta 90.000000
_cell_angle_gamma 90.000000
_cell_volume 2901.389641
_symmetry_space_group_name_H-M "P B C N"
_symmetry_group_IT_number 60
_symmetry_cell_setting 'orthorhombic'
loop_
_space_group_symop_operation_xyz
x,y,z
1/2-x,1/2-y,1/2+z
1/2+x,1/2-y,-z
-x,y,1/2-z
-x,-y,-z
1/2+x,1/2+y,1/2-z
1/2-x,1/2+y,z
x,-y,1/2+z
loop_
_atom_site_type_symbol
_atom_site_label
_atom_site_fract_x
_atom_site_fract_y
_atom_site_fract_z
Si Si1 0.254077 0.681338 0.210616
Si Si2 0.244740 0.566434 0.540637
Si Si3 0.850585 0.487478 0.582779
Si Si4 0.723839 0.715554 0.428162
Si Si5 0.722354 0.180295 0.010954
Si Si6 0.487333 0.468960 0.177013
Si Si7 0.344422 0.931683 0.681968
O O1 0.500000 0.690133 0.250000
O O2 0.251395 0.720484 0.150363
O O3 0.274643 0.623839 0.180992
O O4 0.000000 0.683991 0.250000
O O5 0.328618 0.538104 0.471519
O O6 0.226795 0.625787 0.524916
O O7 0.382871 0.558880 0.610885
O O8 0.995164 0.535055 0.551299
O O9 0.741564 0.511245 0.649989
O O10 0.013228 0.442005 0.612969
O O11 0.470080 0.687716 0.446548
O O12 0.724208 0.771045 0.461823
O O13 0.966104 0.685817 0.451197
O O14 0.500000 0.443163 0.250000
O O15 0.332892 0.520389 0.186752
O O16 0.500000 0.931663 0.750000
#
# Coordination Sequence:
#
# PCOD9454929 Si02
#       7
#     8   8   8   8   8   8   8
#     4  11  23  36  60  92 125 156 198 250 315 373
#     4  10  23  36  57  87 117 158 202 255 300 359
#     4  10  21  37  55  85 121 153 204 251 299 355
#     4  10  22  41  65  91 119 157 203 262 312 365
#     4  10  22  41  66  89 118 159 208 256 309 363
#     4  11  21  35  57  79 120 161 199 243 294 365
#     4  10  20  33  53  82 116 159 195 243 303 371
#
# _framework density 19.301096999999999
#
# number of rings (size 3 to 8) (size 9 to 14) (size 15 to 20)
#    0.000    1.714    1.429    2.571    6.000    0.000 
#    0.000    0.714    3.143    0.000    0.000    0.000 
#    0.000    0.000    0.000    0.000    0.000    0.000 
#
# Total GULP energy -311986.377808 kJ/mol
# GULP energy per Si atom -5571.185318 kJ/mol
# Density = 1.925717 g / cm^3
# Si number density = 19.301097 Si / 1000 Ang^3
#
#
#
# Elastic Constant Matrix: (Units=GPa)
#
#
# Indices 1 2 3 4 5 6 
#
# 1 87.6834 20.9477 40.4958 0.0000 0.0000 0.0000
# 2 20.9477 33.6599 32.6308 0.0000 0.0000 0.0000
# 3 40.4958 32.6308 123.5728 0.0000 0.0000 0.0000
# 4 0.0000 0.0000 0.0000 34.4315 0.0000 0.0000
# 5 0.0000 0.0000 0.0000 0.0000 29.3831 0.0000
# 6 0.0000 0.0000 0.0000 0.0000 0.0000 -5.3483
#
#
#
# Elastic Compliance Matrix: (Units=1/GPa)
#
#
# Indices 1 2 3 4 5 6 
#
# 1 0.014242 -0.005832 -0.003127 0.000000 0.000000 0.000000
# 2 -0.005832 0.042319 -0.009264 0.000000 0.000000 0.000000
# 3 -0.003127 -0.009264 0.011563 0.000000 0.000000 0.000000
# 4 0.000000 0.000000 0.000000 0.029043 0.000000 0.000000
# 5 0.000000 0.000000 0.000000 0.000000 0.034033 0.000000
# 6 0.000000 0.000000 0.000000 0.000000 0.000000 -0.186976
#
#
# Mechanical properties :
#
#
# Convention : Reuss Voigt Hill
#
# Bulk Modulus (GPa) = 31.56672 48.11829 39.84251
# Shear Modulus (GPa) = -570.07149 21.74939 -274.16105
#
# Velocity S-wave (km/s) = -17.20460 3.36050 -11.93116
# Velocity P-wave (km/s) = 19.44927 6.32785 13.00446
#
# Compressibility (1/GPa) = 0.03167893
#
# Stress axis : x y z
#
# Youngs Moduli (GPa) = 70.21390 23.63028 86.47954
#
# Poissons Ratio (x) = 0.13780 0.27045
# Poissons Ratio (y) = 0.40946 0.80111
# Poissons Ratio (z) = 0.21958 0.21890
#
# Static dielectric constant tensor:
#      x y z
#    x 1.735080 0.000000 0.000000 
#    y 0.000000 1.630850 0.000000 
#    z 0.000000 0.000000 1.795800 
# 
# From -- ./inp_files/21738.got.cif
#   From: 2010.05.17/outbox.cif.g08.bks.cpg/sg60_11_cif.got.tgz:21738.got - 2010.06.03 14:59:27.
