data_PCOD9454548
_publ_section_title
;
Structure prediction by ZEFSAII (Michael W. Deem and Ramdas Pophale) SiO2 
 PCOD9454548
Probable space group: P B C N
;
_chemical_formula_sum "Si O2"
_cell_formula_units_Z 48
_cell_length_a 14.911531
_cell_length_b 9.231538
_cell_length_c 15.539337
_cell_angle_alpha 90.000000
_cell_angle_beta 90.000000
_cell_angle_gamma 90.000000
_cell_volume 2139.088647
_symmetry_space_group_name_H-M "P B C N"
_symmetry_group_IT_number 60
_symmetry_cell_setting 'orthorhombic'
loop_
_space_group_symop_operation_xyz
x,y,z
1/2-x,1/2-y,1/2+z
1/2+x,1/2-y,-z
-x,y,1/2-z
-x,-y,-z
1/2+x,1/2+y,1/2-z
1/2-x,1/2+y,z
x,-y,1/2+z
loop_
_atom_site_type_symbol
_atom_site_label
_atom_site_fract_x
_atom_site_fract_y
_atom_site_fract_z
Si Si1 0.894229 0.969703 0.441039
Si Si2 0.305912 0.749769 0.439083
Si Si3 0.790785 0.472482 0.842142
Si Si4 0.362726 0.931808 0.991060
Si Si5 0.442623 0.685626 0.908080
Si Si6 0.280166 0.288559 0.275228
O O1 0.878136 0.840353 0.509363
O O2 0.968100 0.898929 0.378410
O O3 0.803721 0.017934 0.393463
O O4 0.923259 0.100498 0.502518
O O5 0.214934 0.690534 0.483039
O O6 0.289707 0.710802 0.340069
O O7 0.326289 0.919733 0.448301
O O8 0.866071 0.528357 0.908336
O O9 0.807238 0.314611 0.803511
O O10 0.773913 0.577910 0.762880
O O11 0.442909 0.854400 0.939056
O O12 0.364733 0.672906 0.836072
#
# Coordination Sequence:
#
# PCOD9454548 Si02
#       6
#     8   8   8   8   8   8
#     4  10  21  38  58  81 114 156 196 241 301 368
#     4  10  19  35  56  79 109 150 200 241 290 364
#     4  11  20  33  56  85 115 145 188 248 302 350
#     4  10  19  35  56  80 110 151 199 240 289 361
#     4  10  21  38  58  81 114 155 199 244 300 368
#     4  11  20  33  56  86 114 145 192 250 302 355
#
# _framework density 22.439463
#
# number of rings (size 3 to 8) (size 9 to 14) (size 15 to 20)
#    0.000    1.667    0.000   10.000    0.000    1.333 
#    0.000    0.000    0.000    5.000    0.000    0.000 
#    0.000    0.000    0.000    0.000    0.000    0.000 
#
# Total GULP energy -267649.281148 kJ/mol
# GULP energy per Si atom -5576.026691 kJ/mol
# Density = 2.238839 g / cm^3
# Si number density = 22.439463 Si / 1000 Ang^3
#
#
#
# Elastic Constant Matrix: (Units=GPa)
#
#
# Indices 1 2 3 4 5 6 
#
# 1 58.5823 16.3048 13.6647 0.0000 0.0000 0.0000
# 2 16.3048 114.6341 13.4896 0.0000 0.0000 0.0000
# 3 13.6647 13.4896 80.1059 0.0000 0.0000 0.0000
# 4 0.0000 0.0000 0.0000 45.0756 0.0000 0.0000
# 5 0.0000 0.0000 0.0000 0.0000 24.4286 0.0000
# 6 0.0000 0.0000 0.0000 0.0000 0.0000 32.8214
#
#
#
# Elastic Compliance Matrix: (Units=1/GPa)
#
#
# Indices 1 2 3 4 5 6 
#
# 1 0.018347 -0.002287 -0.002745 0.000000 0.000000 0.000000
# 2 -0.002287 0.009185 -0.001157 0.000000 0.000000 0.000000
# 3 -0.002745 -0.001157 0.013146 0.000000 0.000000 0.000000
# 4 0.000000 0.000000 0.000000 0.022185 0.000000 0.000000
# 5 0.000000 0.000000 0.000000 0.000000 0.040936 0.000000
# 6 0.000000 0.000000 0.000000 0.000000 0.000000 0.030468
#
#
# Mechanical properties :
#
#
# Convention : Reuss Voigt Hill
#
# Bulk Modulus (GPa) = 35.33285 37.80449 36.56867
# Shear Modulus (GPa) = 32.03572 34.45600 33.24586
#
# Velocity S-wave (km/s) = 3.78253 3.92281 3.85331
# Velocity P-wave (km/s) = 5.90396 6.11570 6.01076
#
# Compressibility (1/GPa) = 0.02830228
#
# Stress axis : x y z
#
# Youngs Moduli (GPa) = 54.50603 108.87627 76.06629
#
# Poissons Ratio (x) = 0.24895 0.20877
# Poissons Ratio (y) = 0.12463 0.08798
# Poissons Ratio (z) = 0.14960 0.12593
#
# Static dielectric constant tensor:
#      x y z
#    x 2.026300 0.000000 0.000000 
#    y 0.000000 1.886160 0.000000 
#    z 0.000000 0.000000 1.862540 
# 
# From -- ./inp_files/17315.got.cif
#   From: 2010.05.17/outbox.cif.g08.bks.cpg/sg60_9_cif.got.tgz:17315.got - 2010.06.03 14:59:27.
