data_PCOD9454763
_publ_section_title
;
Structure prediction by ZEFSAII (Michael W. Deem and Ramdas Pophale) SiO2 
 PCOD9454763
Probable space group: P B C N
;
_chemical_formula_sum "Si O2"
_cell_formula_units_Z 40
_cell_length_a 14.059648
_cell_length_b 7.800507
_cell_length_c 13.436707
_cell_angle_alpha 90.000000
_cell_angle_beta 90.000000
_cell_angle_gamma 90.000000
_cell_volume 1473.635672
_symmetry_space_group_name_H-M "P B C N"
_symmetry_group_IT_number 60
_symmetry_cell_setting 'orthorhombic'
loop_
_space_group_symop_operation_xyz
x,y,z
1/2-x,1/2-y,1/2+z
1/2+x,1/2-y,-z
-x,y,1/2-z
-x,-y,-z
1/2+x,1/2+y,1/2-z
1/2-x,1/2+y,z
x,-y,1/2+z
loop_
_atom_site_type_symbol
_atom_site_label
_atom_site_fract_x
_atom_site_fract_y
_atom_site_fract_z
Si Si1 0.300339 0.122995 0.950126
Si Si2 0.008959 0.710709 0.015117
Si Si3 0.276893 0.997542 0.669181
Si Si4 0.408115 0.670128 0.179133
Si Si5 0.133300 0.301075 0.830023
O O1 0.382721 0.251696 0.986838
O O2 0.213826 0.197434 0.888767
O O3 0.350241 0.990181 0.876941
O O4 0.270318 0.030174 0.051255
O O5 0.946059 0.810107 0.933424
O O6 0.968051 0.753562 0.124524
O O7 0.000000 0.500000 0.000000
O O8 0.167726 0.978316 0.705713
O O9 0.339397 0.844015 0.717500
O O10 0.339437 0.164555 0.688380
O O11 0.500000 0.673187 0.250000
#
# Coordination Sequence:
#
# PCOD9454763 Si02
#       5
#     8   8   8   8   8
#     4  11  22  41  64  95 130 170 226 279 336 408
#     4  10  19  38  62  92 126 169 219 275 333 398
#     4  12  23  41  71  99 136 183 229 286 347 414
#     4  12  24  44  72 101 139 184 233 282 350 415
#     4  11  22  38  62  93 128 170 222 275 338 404
#
# _framework density 27.143749
#
# number of rings (size 3 to 8) (size 9 to 14) (size 15 to 20)
#    0.000    0.800    6.000    4.800    0.000    0.000 
#    0.000    2.000    8.800    0.000    0.000    0.000 
#    0.000    0.000    0.000    0.000    0.000    0.000 
#
# Total GULP energy -223828.818694 kJ/mol
# GULP energy per Si atom -5595.720467 kJ/mol
# Density = 2.708197 g / cm^3
# Si number density = 27.143749 Si / 1000 Ang^3
#
#
#
# Elastic Constant Matrix: (Units=GPa)
#
#
# Indices 1 2 3 4 5 6 
#
# 1 185.1983 34.7295 9.5066 0.0000 0.0000 0.0000
# 2 34.7295 68.7842 4.0021 0.0000 0.0000 0.0000
# 3 9.5066 4.0021 98.4890 0.0000 0.0000 0.0000
# 4 0.0000 0.0000 0.0000 12.6599 0.0000 0.0000
# 5 0.0000 0.0000 0.0000 0.0000 38.2594 0.0000
# 6 0.0000 0.0000 0.0000 0.0000 0.0000 45.2905
#
#
#
# Elastic Compliance Matrix: (Units=1/GPa)
#
#
# Indices 1 2 3 4 5 6 
#
# 1 0.005985 -0.002995 -0.000456 0.000000 0.000000 0.000000
# 2 -0.002995 0.016072 -0.000364 0.000000 0.000000 0.000000
# 3 -0.000456 -0.000364 0.010212 0.000000 0.000000 0.000000
# 4 0.000000 0.000000 0.000000 0.078989 0.000000 0.000000
# 5 0.000000 0.000000 0.000000 0.000000 0.026137 0.000000
# 6 0.000000 0.000000 0.000000 0.000000 0.000000 0.022080
#
#
# Mechanical properties :
#
#
# Convention : Reuss Voigt Hill
#
# Bulk Modulus (GPa) = 40.58704 49.88310 45.23507
# Shear Modulus (GPa) = 28.51961 39.52419 34.02190
#
# Velocity S-wave (km/s) = 3.24495 3.82004 3.54418
# Velocity P-wave (km/s) = 5.38746 6.15420 5.78355
#
# Compressibility (1/GPa) = 0.02463840
#
# Stress axis : x y z
#
# Youngs Moduli (GPa) = 167.09283 62.22120 97.92191
#
# Poissons Ratio (x) = 0.18636 0.04465
# Poissons Ratio (y) = 0.50047 0.03564
# Poissons Ratio (z) = 0.07619 0.02265
#
# Static dielectric constant tensor:
#      x y z
#    x 2.167050 0.000000 0.000000 
#    y 0.000000 2.220000 0.000000 
#    z 0.000000 0.000000 2.061560 
# 
# From -- ./inp_files/16588.got.cif
#   From: 2010.05.17/outbox.cif.g08.bks.cpg/sg60_9_cif.got.tgz:16588.got - 2010.06.03 14:59:27.
