data_PCOD9454446
_publ_section_title
;
Structure prediction by ZEFSAII (Michael W. Deem and Ramdas Pophale) SiO2 
 PCOD9454446
Probable space group: P B C N
;
_chemical_formula_sum "Si O2"
_cell_formula_units_Z 64
_cell_length_a 20.620542
_cell_length_b 5.430175
_cell_length_c 27.359562
_cell_angle_alpha 90.000000
_cell_angle_beta 90.000000
_cell_angle_gamma 90.000000
_cell_volume 3063.536385
_symmetry_space_group_name_H-M "P B C N"
_symmetry_group_IT_number 60
_symmetry_cell_setting 'orthorhombic'
loop_
_space_group_symop_operation_xyz
x,y,z
1/2-x,1/2-y,1/2+z
1/2+x,1/2-y,-z
-x,y,1/2-z
-x,-y,-z
1/2+x,1/2+y,1/2-z
1/2-x,1/2+y,z
x,-y,1/2+z
loop_
_atom_site_type_symbol
_atom_site_label
_atom_site_fract_x
_atom_site_fract_y
_atom_site_fract_z
Si Si1 0.055807 0.627137 0.436885
Si Si2 0.909998 0.304424 0.365813
Si Si3 0.546990 0.614571 0.122810
Si Si4 0.076240 0.117594 0.266108
Si Si5 0.783538 0.818424 0.439588
Si Si6 0.908179 0.418800 0.964597
Si Si7 0.928353 0.382942 0.774562
Si Si8 0.232190 0.254785 0.170310
O O1 0.057094 0.383417 0.402162
O O2 0.098350 0.554253 0.483747
O O3 0.982582 0.660740 0.457707
O O4 0.069202 0.883608 0.409703
O O5 0.895759 0.396527 0.419954
O O6 0.932454 0.532805 0.330966
O O7 0.842120 0.217880 0.344620
O O8 0.968975 0.113156 0.367495
O O9 0.578532 0.591366 0.175976
O O10 0.102563 0.879147 0.237809
O O11 0.000000 0.135936 0.250000
O O12 0.104223 0.380965 0.250938
O O13 0.749156 0.568061 0.457469
O O14 0.857665 0.799471 0.455958
O O15 0.772985 0.794101 0.380665
O O16 0.000000 0.363547 0.750000
O O17 0.239964 0.516316 0.196121
#
# Coordination Sequence:
#
# PCOD9454446 Si02
#       8
#     8   8   8   8   8   8   8   8
#     4  10  25  36  53  81 109 167 187 223 284 353
#     4  11  21  34  60  78 120 160 178 239 287 340
#     4  11  22  37  56  78 113 156 187 235 281 333
#     4  10  19  34  51  77 109 139 185 225 265 331
#     4  10  20  35  53  78 105 151 186 236 276 331
#     4  10  22  38  54  78 121 153 193 223 282 351
#     4  10  20  33  49  83 105 146 187 219 273 343
#     4  10  21  35  49  82 107 150 190 223 281 339
#
# _framework density 20.890889000000001
#
# number of rings (size 3 to 8) (size 9 to 14) (size 15 to 20)
#    0.000    1.750    5.000    0.750    8.750    6.500 
#    0.000    0.000    0.000    0.000    0.000    0.000 
#    0.000   20.000    0.000    0.000    0.000    0.000 
#
# Total GULP energy -357297.828459 kJ/mol
# GULP energy per Si atom -5582.778570 kJ/mol
# Density = 2.084334 g / cm^3
# Si number density = 20.890889 Si / 1000 Ang^3
#
#
#
# Elastic Constant Matrix: (Units=GPa)
#
#
# Indices 1 2 3 4 5 6 
#
# 1 40.7773 13.6018 15.9370 0.0000 0.0000 0.0000
# 2 13.6018 147.8853 25.3584 0.0000 0.0000 0.0000
# 3 15.9370 25.3584 99.4652 0.0000 0.0000 0.0000
# 4 0.0000 0.0000 0.0000 24.2997 0.0000 0.0000
# 5 0.0000 0.0000 0.0000 0.0000 13.7822 0.0000
# 6 0.0000 0.0000 0.0000 0.0000 0.0000 29.5093
#
#
#
# Elastic Compliance Matrix: (Units=1/GPa)
#
#
# Indices 1 2 3 4 5 6 
#
# 1 0.026610 -0.001795 -0.003806 0.000000 0.000000 0.000000
# 2 -0.001795 0.007192 -0.001546 0.000000 0.000000 0.000000
# 3 -0.003806 -0.001546 0.011058 0.000000 0.000000 0.000000
# 4 0.000000 0.000000 0.000000 0.041153 0.000000 0.000000
# 5 0.000000 0.000000 0.000000 0.000000 0.072558 0.000000
# 6 0.000000 0.000000 0.000000 0.000000 0.000000 0.033888
#
#
# Mechanical properties :
#
#
# Convention : Reuss Voigt Hill
#
# Bulk Modulus (GPa) = 32.71621 44.21355 38.46488
# Shear Modulus (GPa) = 23.04787 29.06695 26.05741
#
# Velocity S-wave (km/s) = 3.32512 3.73415 3.53556
# Velocity P-wave (km/s) = 5.51692 6.30887 5.92614
#
# Compressibility (1/GPa) = 0.03056589
#
# Stress axis : x y z
#
# Youngs Moduli (GPa) = 37.58036 139.03987 90.43427
#
# Poissons Ratio (x) = 0.24955 0.34419
# Poissons Ratio (y) = 0.06745 0.13982
# Poissons Ratio (z) = 0.14303 0.21496
#
# Static dielectric constant tensor:
#      x y z
#    x 1.683890 0.000000 0.000000 
#    y 0.000000 1.839070 0.000000 
#    z 0.000000 0.000000 1.763640 
# 
# From -- ./inp_files/24638.got.cif
#   From: 2010.05.17/outbox.cif.g08.bks.cpg/sg60_13_cif.got.tgz:24638.got - 2010.06.03 14:59:27.
