data_PCOD9454102
_publ_section_title
;
Structure prediction by ZEFSAII (Michael W. Deem and Ramdas Pophale) SiO2 
 PCOD9454102
Probable space group: P B C N
;
_chemical_formula_sum "Si O2"
_cell_formula_units_Z 56
_cell_length_a 16.204132
_cell_length_b 12.159128
_cell_length_c 14.977903
_cell_angle_alpha 90.000000
_cell_angle_beta 90.000000
_cell_angle_gamma 90.000000
_cell_volume 2951.067996
_symmetry_space_group_name_H-M "P B C N"
_symmetry_group_IT_number 60
_symmetry_cell_setting 'orthorhombic'
loop_
_space_group_symop_operation_xyz
x,y,z
1/2-x,1/2-y,1/2+z
1/2+x,1/2-y,-z
-x,y,1/2-z
-x,-y,-z
1/2+x,1/2+y,1/2-z
1/2-x,1/2+y,z
x,-y,1/2+z
loop_
_atom_site_type_symbol
_atom_site_label
_atom_site_fract_x
_atom_site_fract_y
_atom_site_fract_z
Si Si1 0.474649 0.961908 0.099320
Si Si2 0.901716 0.853372 0.261717
Si Si3 0.154497 0.512210 0.867019
Si Si4 0.316642 0.389520 0.426249
Si Si5 0.162288 0.663961 0.527625
Si Si6 0.804103 0.978979 0.406096
Si Si7 0.835291 0.612389 0.314096
O O1 0.417803 0.854879 0.088883
O O2 0.561444 0.946647 0.147995
O O3 0.415545 0.054913 0.141113
O O4 0.500000 0.000000 0.000000
O O5 0.867090 0.887911 0.165101
O O6 0.859999 0.737241 0.291638
O O7 0.000000 0.839854 0.250000
O O8 0.872968 0.943112 0.335312
O O9 0.220753 0.601844 0.897046
O O10 0.182169 0.450777 0.778152
O O11 0.154675 0.423521 0.946684
O O12 0.332832 0.280193 0.481869
O O13 0.335447 0.488015 0.495543
O O14 0.241943 0.624266 0.582139
O O15 0.744256 0.079722 0.373918
#
# Coordination Sequence:
#
# PCOD9454102 Si02
#       7
#     8   8   8   8   8   8   8
#     4   9  19  32  57  92 126 149 194 263 317 363
#     4  12  25  40  67  93 121 169 217 258 311 377
#     4  10  18  34  61  90 120 158 200 259 316 363
#     4  11  22  40  62  87 127 166 207 257 307 386
#     4   9  19  37  58  89 123 156 202 249 315 371
#     4  10  23  41  62  90 128 166 202 257 316 374
#     4  11  20  38  65  95 124 157 211 262 310 383
#
# _framework density 18.976179999999999
#
# number of rings (size 3 to 8) (size 9 to 14) (size 15 to 20)
#    0.000    1.714    2.857    3.000    2.000    0.571 
#    0.000    0.000    3.143    0.000    0.000    0.000 
#    0.000    0.000    0.000    0.000    0.000    0.000 
#
# Total GULP energy -312259.600215 kJ/mol
# GULP energy per Si atom -5576.064290 kJ/mol
# Density = 1.893299 g / cm^3
# Si number density = 18.976180 Si / 1000 Ang^3
#
#
#
# Elastic Constant Matrix: (Units=GPa)
#
#
# Indices 1 2 3 4 5 6 
#
# 1 46.0739 42.0400 36.0912 0.0000 0.0000 0.0000
# 2 42.0400 61.5491 26.2251 0.0000 0.0000 0.0000
# 3 36.0912 26.2251 94.2018 0.0000 0.0000 0.0000
# 4 0.0000 0.0000 0.0000 33.5779 0.0000 0.0000
# 5 0.0000 0.0000 0.0000 0.0000 31.6795 0.0000
# 6 0.0000 0.0000 0.0000 0.0000 0.0000 8.1102
#
#
#
# Elastic Compliance Matrix: (Units=1/GPa)
#
#
# Indices 1 2 3 4 5 6 
#
# 1 0.074744 -0.044080 -0.016365 0.000000 0.000000 0.000000
# 2 -0.044080 0.044429 0.004519 0.000000 0.000000 0.000000
# 3 -0.016365 0.004519 0.015627 0.000000 0.000000 0.000000
# 4 0.000000 0.000000 0.000000 0.029782 0.000000 0.000000
# 5 0.000000 0.000000 0.000000 0.000000 0.031566 0.000000
# 6 0.000000 0.000000 0.000000 0.000000 0.000000 0.123302
#
#
# Mechanical properties :
#
#
# Convention : Reuss Voigt Hill
#
# Bulk Modulus (GPa) = 43.57317 45.61527 44.59422
# Shear Modulus (GPa) = 11.39082 21.17140 16.28111
#
# Velocity S-wave (km/s) = 2.45270 3.34381 2.93230
# Velocity P-wave (km/s) = 5.57071 6.24487 5.91740
#
# Compressibility (1/GPa) = 0.02294990
#
# Stress axis : x y z
#
# Youngs Moduli (GPa) = 13.37905 22.50760 63.99099
#
# Poissons Ratio (x) = 0.99213 1.04720
# Poissons Ratio (y) = 0.58974 -0.28919
# Poissons Ratio (z) = 0.21895 -0.10172
#
# Static dielectric constant tensor:
#      x y z
#    x 1.694250 0.000000 0.000000 
#    y 0.000000 1.651390 0.000000 
#    z 0.000000 0.000000 1.687660 
# 
# From -- ./inp_files/16859.got.cif
#   From: 2010.05.17/outbox.cif.g08.bks.cpg/sg60_9_cif.got.tgz:16859.got - 2010.06.03 14:59:27.
