data_PCOD9454501
_publ_section_title
;
Structure prediction by ZEFSAII (Michael W. Deem and Ramdas Pophale) SiO2 
 PCOD9454501
Probable space group: P B C N
;
_chemical_formula_sum "Si O2"
_cell_formula_units_Z 64
_cell_length_a 10.702117
_cell_length_b 33.477577
_cell_length_c 9.788582
_cell_angle_alpha 90.000000
_cell_angle_beta 90.000000
_cell_angle_gamma 90.000000
_cell_volume 3507.062418
_symmetry_space_group_name_H-M "P B C N"
_symmetry_group_IT_number 60
_symmetry_cell_setting 'orthorhombic'
loop_
_space_group_symop_operation_xyz
x,y,z
1/2-x,1/2-y,1/2+z
1/2+x,1/2-y,-z
-x,y,1/2-z
-x,-y,-z
1/2+x,1/2+y,1/2-z
1/2-x,1/2+y,z
x,-y,1/2+z
loop_
_atom_site_type_symbol
_atom_site_label
_atom_site_fract_x
_atom_site_fract_y
_atom_site_fract_z
Si Si1 0.211470 0.878746 0.557208
Si Si2 0.848311 0.040659 0.096550
Si Si3 0.916762 0.319148 0.459905
Si Si4 0.584031 0.261151 0.116657
Si Si5 0.771484 0.372963 0.633373
Si Si6 0.853692 0.033326 0.414815
Si Si7 0.475302 0.322989 0.901676
Si Si8 0.187926 0.319529 0.336847
O O1 0.281091 0.871161 0.701868
O O2 0.209973 0.925928 0.537903
O O3 0.260899 0.856688 0.423815
O O4 0.073774 0.859682 0.583076
O O5 0.778444 0.083270 0.088367
O O6 0.833538 0.027698 0.253773
O O7 0.997714 0.042580 0.068894
O O8 0.808138 0.005254 0.996329
O O9 0.879771 0.279593 0.541936
O O10 0.894076 0.357160 0.557217
O O11 0.839552 0.326763 0.321641
O O12 0.057453 0.310574 0.411196
O O13 0.500000 0.253410 0.250000
O O14 0.710413 0.284695 0.152353
O O15 0.506932 0.290187 0.014695
O O16 0.661732 0.341752 0.592658
O O17 0.500000 0.305784 0.750000
#
# Coordination Sequence:
#
# PCOD9454501 Si02
#       8
#     8   8   8   8   8   8   8   8
#     4   9  18  35  58  81 115 155 198 238 287 346
#     4   9  17  29  51  83 124 150 195 234 298 346
#     4  11  26  40  58  80 115 149 190 245 298 346
#     4  11  25  39  62  84 110 146 197 242 289 359
#     4  10  19  34  58  83 116 157 195 238 287 361
#     4   9  16  30  51  85 119 157 188 244 289 347
#     4   9  18  34  56  83 112 153 191 239 296 341
#     4  10  25  43  56  82 115 150 187 243 295 346
#
# _framework density 18.248889999999999
#
# number of rings (size 3 to 8) (size 9 to 14) (size 15 to 20)
#    0.000    2.250    1.250    0.750    7.000    2.000 
#    0.000    0.000    0.000    0.750    0.000    0.000 
#    0.000    0.000    0.000    0.000    0.000    0.000 
#
# Total GULP energy -356949.301982 kJ/mol
# GULP energy per Si atom -5577.332843 kJ/mol
# Density = 1.820735 g / cm^3
# Si number density = 18.248890 Si / 1000 Ang^3
#
#
#
# Elastic Constant Matrix: (Units=GPa)
#
#
# Indices 1 2 3 4 5 6 
#
# 1 47.6814 22.6521 40.2340 0.0000 0.0000 0.0000
# 2 22.6521 100.9430 63.8599 0.0000 0.0000 0.0000
# 3 40.2340 63.8599 93.9393 0.0000 0.0000 0.0000
# 4 0.0000 0.0000 0.0000 27.6594 0.0000 0.0000
# 5 0.0000 0.0000 0.0000 0.0000 22.4542 0.0000
# 6 0.0000 0.0000 0.0000 0.0000 0.0000 11.4860
#
#
#
# Elastic Compliance Matrix: (Units=1/GPa)
#
#
# Indices 1 2 3 4 5 6 
#
# 1 0.033261 0.002717 -0.016092 0.000000 0.000000 0.000000
# 2 0.002717 0.017604 -0.013131 0.000000 0.000000 0.000000
# 3 -0.016092 -0.013131 0.026464 0.000000 0.000000 0.000000
# 4 0.000000 0.000000 0.000000 0.036154 0.000000 0.000000
# 5 0.000000 0.000000 0.000000 0.000000 0.044535 0.000000
# 6 0.000000 0.000000 0.000000 0.000000 0.000000 0.087063
#
#
# Mechanical properties :
#
#
# Convention : Reuss Voigt Hill
#
# Bulk Modulus (GPa) = 41.12563 55.11730 48.12146
# Shear Modulus (GPa) = 16.32930 20.04109 18.18520
#
# Velocity S-wave (km/s) = 2.99458 3.31752 3.16018
# Velocity P-wave (km/s) = 5.87721 6.70397 6.30416
#
# Compressibility (1/GPa) = 0.02431574
#
# Stress axis : x y z
#
# Youngs Moduli (GPa) = 30.06545 56.80585 37.78762
#
# Poissons Ratio (x) = -0.15432 0.60809
# Poissons Ratio (y) = -0.08168 0.49618
# Poissons Ratio (z) = 0.48382 0.74590
#
# Static dielectric constant tensor:
#      x y z
#    x 1.660670 0.000000 0.000000 
#    y 0.000000 1.608990 0.000000 
#    z 0.000000 0.000000 1.625260 
# 
# From -- ./inp_files/5333.got.cif
#   From: 2010.05.17/outbox.cif.g08.bks.cpg/sg60_3_cif.got.tgz:5333.got - 2010.06.03 14:59:27.
