data_PCOD9454416
_publ_section_title
;
Structure prediction by ZEFSAII (Michael W. Deem and Ramdas Pophale) SiO2 
 PCOD9454416
Probable space group: P B C N
;
_chemical_formula_sum "Si O2"
_cell_formula_units_Z 56
_cell_length_a 24.095383
_cell_length_b 5.538463
_cell_length_c 16.042694
_cell_angle_alpha 90.000000
_cell_angle_beta 90.000000
_cell_angle_gamma 90.000000
_cell_volume 2140.919769
_symmetry_space_group_name_H-M "P B C N"
_symmetry_group_IT_number 60
_symmetry_cell_setting 'orthorhombic'
loop_
_space_group_symop_operation_xyz
x,y,z
1/2-x,1/2-y,1/2+z
1/2+x,1/2-y,-z
-x,y,1/2-z
-x,-y,-z
1/2+x,1/2+y,1/2-z
1/2-x,1/2+y,z
x,-y,1/2+z
loop_
_atom_site_type_symbol
_atom_site_label
_atom_site_fract_x
_atom_site_fract_y
_atom_site_fract_z
Si Si1 0.492298 0.402355 0.907199
Si Si2 0.853072 0.917760 0.451017
Si Si3 0.249142 0.882735 0.175845
Si Si4 0.360035 0.408303 0.863994
Si Si5 0.128436 0.578513 0.609152
Si Si6 0.006817 0.400849 0.844082
Si Si7 0.872038 0.591948 0.203230
O O1 0.427150 0.387510 0.879438
O O2 0.515628 0.628624 0.853160
O O3 0.513454 0.126412 0.898399
O O4 0.500000 0.500000 0.000000
O O5 0.802811 0.889024 0.386335
O O6 0.835111 0.964155 0.545535
O O7 0.882276 0.653922 0.448821
O O8 0.887348 0.152843 0.421206
O O9 0.248449 0.632726 0.224130
O O10 0.304580 0.887570 0.119178
O O11 0.349276 0.634762 0.802506
O O12 0.341590 0.145675 0.831418
O O13 0.112873 0.488376 0.702341
O O14 0.073062 0.382182 0.853844
O O15 0.000000 0.485803 0.750000
#
# Coordination Sequence:
#
# PCOD9454416 Si02
#       7
#     8   8   8   8   8   8   8
#     4  10  21  36  54  77 108 141 176 217 260 310
#     4  10  19  33  56  78 101 136 177 217 256 310
#     4   8  16  30  50  72  98 126 166 214 254 292
#     4  10  21  36  53  78 110 140 171 216 269 313
#     4  10  19  33  56  78 101 136 177 217 256 310
#     4  10  21  36  54  77 108 141 176 217 260 310
#     4  10  21  36  53  78 110 140 171 216 269 313
#
# _framework density 26.156980000000001
#
# number of rings (size 3 to 8) (size 9 to 14) (size 15 to 20)
#    0.000    2.286    0.000    2.571    0.000    2.286 
#    0.000    0.000    0.000   46.286    0.000    0.000 
#    0.000    0.000    0.000    0.000    0.000    0.000 
#
# Total GULP energy -312744.180918 kJ/mol
# GULP energy per Si atom -5584.717516 kJ/mol
# Density = 2.609745 g / cm^3
# Si number density = 26.156980 Si / 1000 Ang^3
#
#
#
# Elastic Constant Matrix: (Units=GPa)
#
#
# Indices 1 2 3 4 5 6 
#
# 1 54.5417 16.0412 -13.5888 0.0000 0.0000 0.0000
# 2 16.0412 271.0740 33.0699 0.0000 0.0000 0.0000
# 3 -13.5888 33.0699 77.7414 0.0000 0.0000 0.0000
# 4 0.0000 0.0000 0.0000 50.9120 0.0000 0.0000
# 5 0.0000 0.0000 0.0000 0.0000 24.4666 0.0000
# 6 0.0000 0.0000 0.0000 0.0000 0.0000 37.6612
#
#
#
# Elastic Compliance Matrix: (Units=1/GPa)
#
#
# Indices 1 2 3 4 5 6 
#
# 1 0.019875 -0.001688 0.004192 0.000000 0.000000 0.000000
# 2 -0.001688 0.004034 -0.002011 0.000000 0.000000 0.000000
# 3 0.004192 -0.002011 0.014451 0.000000 0.000000 0.000000
# 4 0.000000 0.000000 0.000000 0.019642 0.000000 0.000000
# 5 0.000000 0.000000 0.000000 0.000000 0.040872 0.000000
# 6 0.000000 0.000000 0.000000 0.000000 0.000000 0.026553
#
#
# Mechanical properties :
#
#
# Convention : Reuss Voigt Hill
#
# Bulk Modulus (GPa) = 25.41449 52.71130 39.06290
# Shear Modulus (GPa) = 36.34873 47.13029 41.73951
#
# Velocity S-wave (km/s) = 3.73183 4.24940 3.99899
# Velocity P-wave (km/s) = 5.32034 6.65373 6.02404
#
# Compressibility (1/GPa) = 0.03934763
#
# Stress axis : x y z
#
# Youngs Moduli (GPa) = 50.31362 247.87842 69.19756
#
# Poissons Ratio (x) = 0.41831 -0.29007
# Poissons Ratio (y) = 0.08491 0.13916
# Poissons Ratio (z) = -0.21091 0.49850
#
# Static dielectric constant tensor:
#      x y z
#    x 2.209260 0.000000 0.000000 
#    y 0.000000 2.139010 0.000000 
#    z 0.000000 0.000000 1.992000 
# 
# From -- ./inp_files/18169.got.cif
#   From: 2010.05.17/outbox.cif.g08.bks.cpg/sg60_10_cif.got.tgz:18169.got - 2010.06.03 14:59:27.
