data_PCOD9454609
_publ_section_title
;
Structure prediction by ZEFSAII (Michael W. Deem and Ramdas Pophale) SiO2 
 PCOD9454609
Probable space group: P B C N
;
_chemical_formula_sum "Si O2"
_cell_formula_units_Z 56
_cell_length_a 17.822144
_cell_length_b 12.841896
_cell_length_c 13.484308
_cell_angle_alpha 90.000000
_cell_angle_beta 90.000000
_cell_angle_gamma 90.000000
_cell_volume 3086.155187
_symmetry_space_group_name_H-M "P B C N"
_symmetry_group_IT_number 60
_symmetry_cell_setting 'orthorhombic'
loop_
_space_group_symop_operation_xyz
x,y,z
1/2-x,1/2-y,1/2+z
1/2+x,1/2-y,-z
-x,y,1/2-z
-x,-y,-z
1/2+x,1/2+y,1/2-z
1/2-x,1/2+y,z
x,-y,1/2+z
loop_
_atom_site_type_symbol
_atom_site_label
_atom_site_fract_x
_atom_site_fract_y
_atom_site_fract_z
Si Si1 0.876073 0.384324 0.899196
Si Si2 0.000000 0.416916 0.750000
Si Si3 0.271380 0.809512 0.311829
Si Si4 0.652720 0.346963 0.823086
Si Si5 0.000000 0.769175 0.750000
Si Si6 0.741724 0.238152 0.978053
Si Si7 0.571316 0.096438 0.618154
Si Si8 0.754766 0.956071 0.367607
O O1 0.814235 0.297518 0.930539
O O2 0.824723 0.482871 0.866757
O O3 0.934859 0.358317 0.811880
O O4 0.921470 0.409587 0.999930
O O5 0.040635 0.493123 0.829423
O O6 0.295335 0.699047 0.264654
O O7 0.229622 0.782700 0.412868
O O8 0.346068 0.872838 0.342438
O O9 0.235631 0.878907 0.225740
O O10 0.569437 0.338262 0.783813
O O11 0.669963 0.265856 0.911291
O O12 0.681597 0.457082 0.860570
O O13 0.021390 0.692021 0.840501
O O14 0.756376 0.115829 0.965302
#
# Coordination Sequence:
#
# PCOD9454609 Si02
#       8
#     8   4   8   8   4   8   8   8
#     4  10  20  34  52  81 109 139 178 221 274 320
#     4  11  18  32  51  80 108 142 169 218 271 330
#     4   9  17  34  53  76 105 135 174 222 271 314
#     4   9  19  33  56  79 102 145 183 221 266 318
#     4   9  18  36  55  78 110 148 189 220 265 326
#     4   9  20  35  52  77 108 140 173 225 273 320
#     4   9  18  31  53  76 108 139 173 222 266 318
#     4  10  19  36  54  78 107 137 186 223 265 331
#
# _framework density 18.145555999999999
#
# number of rings (size 3 to 8) (size 9 to 14) (size 15 to 20)
#    0.000    2.571    1.429    0.429    2.000    3.429 
#    2.571    0.714    0.000   12.000    0.000    0.000 
#    0.000    0.000    0.000    0.000    0.000    0.000 
#
# Total GULP energy -311957.195561 kJ/mol
# GULP energy per Si atom -5570.664206 kJ/mol
# Density = 1.810426 g / cm^3
# Si number density = 18.145556 Si / 1000 Ang^3
#
#
#
# Elastic Constant Matrix: (Units=GPa)
#
#
# Indices 1 2 3 4 5 6 
#
# 1 48.1967 11.7545 22.3692 0.0000 0.0000 0.0000
# 2 11.7545 53.2667 6.1020 0.0000 0.0000 0.0000
# 3 22.3692 6.1020 82.9343 0.0000 0.0000 0.0000
# 4 0.0000 0.0000 0.0000 16.1785 0.0000 0.0000
# 5 0.0000 0.0000 0.0000 0.0000 26.4595 0.0000
# 6 0.0000 0.0000 0.0000 0.0000 0.0000 -2.2772
#
#
#
# Elastic Compliance Matrix: (Units=1/GPa)
#
#
# Indices 1 2 3 4 5 6 
#
# 1 0.024858 -0.004757 -0.006355 0.000000 0.000000 0.000000
# 2 -0.004757 0.019844 -0.000177 0.000000 0.000000 0.000000
# 3 -0.006355 -0.000177 0.013785 0.000000 0.000000 0.000000
# 4 0.000000 0.000000 0.000000 0.061810 0.000000 0.000000
# 5 0.000000 0.000000 0.000000 0.000000 0.037794 0.000000
# 6 0.000000 0.000000 0.000000 0.000000 0.000000 -0.439132
#
#
# Mechanical properties :
#
#
# Convention : Reuss Voigt Hill
#
# Bulk Modulus (GPa) = 27.84875 29.42767 28.63821
# Shear Modulus (GPa) = -20.28444 17.68362 -1.30041
#
# Velocity S-wave (km/s) = -3.34709 3.12515 -0.84747
# Velocity P-wave (km/s) = 0.66588 5.41063 3.85476
#
# Compressibility (1/GPa) = 0.03590826
#
# Stress axis : x y z
#
# Youngs Moduli (GPa) = 40.22858 50.39417 72.54393
#
# Poissons Ratio (x) = 0.23975 0.46099
# Poissons Ratio (y) = 0.19139 0.01283
# Poissons Ratio (z) = 0.25564 0.00891
#
# Static dielectric constant tensor:
#      x y z
#    x 1.628050 0.000000 0.000000 
#    y 0.000000 1.633030 0.000000 
#    z 0.000000 0.000000 1.655750 
# 
# From -- ./inp_files/17523.got.cif
#   From: 2010.05.17/outbox.cif.g08.bks.cpg/sg60_9_cif.got.tgz:17523.got - 2010.06.03 14:59:27.
