data_PCOD9454154
_publ_section_title
;
Structure prediction by ZEFSAII (Michael W. Deem and Ramdas Pophale) SiO2 
 PCOD9454154
Probable space group: P B C N
;
_chemical_formula_sum "Si O2"
_cell_formula_units_Z 64
_cell_length_a 13.443314
_cell_length_b 17.821280
_cell_length_c 15.286436
_cell_angle_alpha 90.000000
_cell_angle_beta 90.000000
_cell_angle_gamma 90.000000
_cell_volume 3662.279439
_symmetry_space_group_name_H-M "P B C N"
_symmetry_group_IT_number 60
_symmetry_cell_setting 'orthorhombic'
loop_
_space_group_symop_operation_xyz
x,y,z
1/2-x,1/2-y,1/2+z
1/2+x,1/2-y,-z
-x,y,1/2-z
-x,-y,-z
1/2+x,1/2+y,1/2-z
1/2-x,1/2+y,z
x,-y,1/2+z
loop_
_atom_site_type_symbol
_atom_site_label
_atom_site_fract_x
_atom_site_fract_y
_atom_site_fract_z
Si Si1 0.112303 0.907194 0.238718
Si Si2 0.120276 0.520739 0.093979
Si Si3 0.354737 0.372866 0.430594
Si Si4 0.283942 0.542237 0.459233
Si Si5 0.046554 0.594275 0.842045
Si Si6 0.215637 0.484772 0.776965
Si Si7 0.081452 0.836051 0.052098
Si Si8 0.139058 0.673050 0.991742
O O1 0.142378 0.861533 0.325625
O O2 0.110385 0.859266 0.150972
O O3 0.000000 0.935232 0.250000
O O4 0.186496 0.976808 0.237220
O O5 0.158656 0.542969 0.191207
O O6 0.027438 0.465231 0.110930
O O7 0.199301 0.475955 0.032261
O O8 0.104450 0.599634 0.045885
O O9 0.340592 0.462513 0.445724
O O10 0.463075 0.346943 0.462402
O O11 0.257284 0.335414 0.472884
O O12 0.241084 0.563339 0.362952
O O13 0.357273 0.606138 0.492339
O O14 0.146784 0.549433 0.819137
O O15 0.077740 0.662945 0.902143
O O16 0.000000 0.617310 0.750000
O O17 0.113276 0.751236 0.035023
#
# Coordination Sequence:
#
# PCOD9454154 Si02
#       8
#     8   8   8   8   8   8   8   8
#     4   9  17  34  59  81 106 150 195 234 284 348
#     4  10  20  36  61  87 113 153 198 237 282 349
#     4   9  20  40  58  79 115 149 199 243 276 346
#     4  10  19  35  64  83 112 151 197 242 278 344
#     4  10  20  36  62  83 113 157 196 235 284 349
#     4  10  18  36  57  90 109 148 205 240 277 335
#     4  11  22  36  59  89 112 157 190 234 308 351
#     4  11  22  39  56  87 125 151 183 248 298 345
#
# _framework density 17.475456000000001
#
# number of rings (size 3 to 8) (size 9 to 14) (size 15 to 20)
#    0.000    2.000    5.000    0.750    0.000    1.000 
#    2.250    4.375    2.750    0.000    0.000    0.000 
#    0.000    0.000    0.000    0.000    0.000    0.000 
#
# Total GULP energy -356539.500850 kJ/mol
# GULP energy per Si atom -5570.929701 kJ/mol
# Density = 1.743568 g / cm^3
# Si number density = 17.475456 Si / 1000 Ang^3
#
#
#
# Elastic Constant Matrix: (Units=GPa)
#
#
# Indices 1 2 3 4 5 6 
#
# 1 83.3818 30.2141 36.8266 0.0000 0.0000 0.0000
# 2 30.2141 47.0101 23.6012 0.0000 0.0000 0.0000
# 3 36.8266 23.6012 87.8154 0.0000 0.0000 0.0000
# 4 0.0000 0.0000 0.0000 9.8781 0.0000 0.0000
# 5 0.0000 0.0000 0.0000 0.0000 28.9749 0.0000
# 6 0.0000 0.0000 0.0000 0.0000 0.0000 16.3791
#
#
#
# Elastic Compliance Matrix: (Units=1/GPa)
#
#
# Indices 1 2 3 4 5 6 
#
# 1 0.017305 -0.008645 -0.004933 0.000000 0.000000 0.000000
# 2 -0.008645 0.028909 -0.004144 0.000000 0.000000 0.000000
# 3 -0.004933 -0.004144 0.014570 0.000000 0.000000 0.000000
# 4 0.000000 0.000000 0.000000 0.101234 0.000000 0.000000
# 5 0.000000 0.000000 0.000000 0.000000 0.034513 0.000000
# 6 0.000000 0.000000 0.000000 0.000000 0.000000 0.061053
#
#
# Mechanical properties :
#
#
# Convention : Reuss Voigt Hill
#
# Bulk Modulus (GPa) = 39.46582 44.38790 41.92686
# Shear Modulus (GPa) = 16.58511 19.55078 18.06795
#
# Velocity S-wave (km/s) = 3.08401 3.34841 3.21893
# Velocity P-wave (km/s) = 5.94257 6.35645 6.15299
#
# Compressibility (1/GPa) = 0.02533838
#
# Stress axis : x y z
#
# Youngs Moduli (GPa) = 57.78812 34.59141 68.63322
#
# Poissons Ratio (x) = 0.29905 0.33860
# Poissons Ratio (y) = 0.49958 0.28442
# Poissons Ratio (z) = 0.28510 0.14335
#
# Static dielectric constant tensor:
#      x y z
#    x 1.618420 0.000000 0.000000 
#    y 0.000000 1.539770 0.000000 
#    z 0.000000 0.000000 1.648320 
# 
# From -- ./inp_files/17057.got.cif
#   From: 2010.05.17/outbox.cif.g08.bks.cpg/sg60_9_cif.got.tgz:17057.got - 2010.06.03 14:59:27.
