data_PCOD9454027
_publ_section_title
;
Structure prediction by ZEFSAII (Michael W. Deem and Ramdas Pophale) SiO2 
 PCOD9454027
Probable space group: P B C N
;
_chemical_formula_sum "Si O2"
_cell_formula_units_Z 44
_cell_length_a 11.895987
_cell_length_b 16.912799
_cell_length_c 8.727410
_cell_angle_alpha 90.000000
_cell_angle_beta 90.000000
_cell_angle_gamma 90.000000
_cell_volume 1755.906342
_symmetry_space_group_name_H-M "P B C N"
_symmetry_group_IT_number 60
_symmetry_cell_setting 'orthorhombic'
loop_
_space_group_symop_operation_xyz
x,y,z
1/2-x,1/2-y,1/2+z
1/2+x,1/2-y,-z
-x,y,1/2-z
-x,-y,-z
1/2+x,1/2+y,1/2-z
1/2-x,1/2+y,z
x,-y,1/2+z
loop_
_atom_site_type_symbol
_atom_site_label
_atom_site_fract_x
_atom_site_fract_y
_atom_site_fract_z
Si Si1 0.500000 0.464890 0.250000
Si Si2 0.165215 0.081236 0.363760
Si Si3 0.350830 0.679620 0.792503
Si Si4 0.949264 0.231247 0.003152
Si Si5 0.608060 0.115855 0.630276
Si Si6 0.183048 0.501142 0.114486
O O1 0.556896 0.524271 0.131235
O O2 0.600225 0.402558 0.278568
O O3 0.116654 0.168384 0.390609
O O4 0.227740 0.056393 0.206506
O O5 0.253481 0.053488 0.491078
O O6 0.372014 0.739961 0.651993
O O7 0.433525 0.699711 0.932856
O O8 0.227311 0.662399 0.849918
O O9 0.973493 0.312068 0.091047
O O10 0.607786 0.060775 0.481651
O O11 0.614931 0.056175 0.773097
#
# Coordination Sequence:
#
# PCOD9454027 Si02
#       6
#     4   8   8   8   8   8
#     4  10  18  32  60  90 136 156 200 242 336 392
#     4  11  20  33  55  93 127 170 193 257 317 395
#     4  10  21  39  61  93 129 172 199 263 324 392
#     4  10  23  36  61  90 134 166 201 261 329 381
#     4  11  22  41  61  96 126 168 217 263 324 383
#     4  10  21  36  59  89 125 170 215 257 309 384
#
# _framework density 25.058285999999999
#
# number of rings (size 3 to 8) (size 9 to 14) (size 15 to 20)
#    0.000    1.818    5.455    1.091    5.091    3.636 
#    0.000    0.000    0.000    4.364    0.000    0.000 
#    0.000    0.000    0.000    0.000    0.000    0.000 
#
# Total GULP energy -245898.081587 kJ/mol
# GULP energy per Si atom -5588.592763 kJ/mol
# Density = 2.500125 g / cm^3
# Si number density = 25.058286 Si / 1000 Ang^3
#
#
#
# Elastic Constant Matrix: (Units=GPa)
#
#
# Indices 1 2 3 4 5 6 
#
# 1 62.4104 11.0769 12.5345 0.0000 0.0000 0.0000
# 2 11.0769 140.6888 67.4710 0.0000 0.0000 0.0000
# 3 12.5345 67.4710 96.4026 0.0000 0.0000 0.0000
# 4 0.0000 0.0000 0.0000 35.2918 0.0000 0.0000
# 5 0.0000 0.0000 0.0000 0.0000 23.8151 0.0000
# 6 0.0000 0.0000 0.0000 0.0000 0.0000 23.3755
#
#
#
# Elastic Compliance Matrix: (Units=1/GPa)
#
#
# Indices 1 2 3 4 5 6 
#
# 1 0.016468 -0.000406 -0.001857 0.000000 0.000000 0.000000
# 2 -0.000406 0.010709 -0.007442 0.000000 0.000000 0.000000
# 3 -0.001857 -0.007442 0.015823 0.000000 0.000000 0.000000
# 4 0.000000 0.000000 0.000000 0.028335 0.000000 0.000000
# 5 0.000000 0.000000 0.000000 0.000000 0.041990 0.000000
# 6 0.000000 0.000000 0.000000 0.000000 0.000000 0.042780
#
#
# Mechanical properties :
#
#
# Convention : Reuss Voigt Hill
#
# Bulk Modulus (GPa) = 42.39138 53.51849 47.95494
# Shear Modulus (GPa) = 27.26584 30.39110 28.82847
#
# Velocity S-wave (km/s) = 3.30221 3.48633 3.39552
# Velocity P-wave (km/s) = 5.61189 6.13270 5.87806
#
# Compressibility (1/GPa) = 0.02358970
#
# Stress axis : x y z
#
# Youngs Moduli (GPa) = 60.72380 93.37938 63.19752
#
# Poissons Ratio (x) = 0.03791 0.11736
# Poissons Ratio (y) = 0.02465 0.47034
# Poissons Ratio (z) = 0.11277 0.69496
#
# Static dielectric constant tensor:
#      x y z
#    x 2.090670 0.000000 0.000000 
#    y 0.000000 1.955560 0.000000 
#    z 0.000000 0.000000 2.130880 
# 
# From -- ./inp_files/6652.got.cif
#   From: 2010.05.17/outbox.cif.g08.bks.cpg/sg60_4_cif.got.tgz:6652.got - 2010.06.03 14:59:27.
