data_PCOD9454826
_publ_section_title
;
Structure prediction by ZEFSAII (Michael W. Deem and Ramdas Pophale) SiO2 
 PCOD9454826
Probable space group: P B C N
;
_chemical_formula_sum "Si O2"
_cell_formula_units_Z 60
_cell_length_a 11.861507
_cell_length_b 9.970333
_cell_length_c 20.353687
_cell_angle_alpha 90.000000
_cell_angle_beta 90.000000
_cell_angle_gamma 90.000000
_cell_volume 2407.091641
_symmetry_space_group_name_H-M "P B C N"
_symmetry_group_IT_number 60
_symmetry_cell_setting 'orthorhombic'
loop_
_space_group_symop_operation_xyz
x,y,z
1/2-x,1/2-y,1/2+z
1/2+x,1/2-y,-z
-x,y,1/2-z
-x,-y,-z
1/2+x,1/2+y,1/2-z
1/2-x,1/2+y,z
x,-y,1/2+z
loop_
_atom_site_type_symbol
_atom_site_label
_atom_site_fract_x
_atom_site_fract_y
_atom_site_fract_z
Si Si1 0.697306 0.197639 0.602830
Si Si2 0.135505 0.507899 0.685695
Si Si3 0.500000 0.794345 0.750000
Si Si4 0.966695 0.537222 0.072190
Si Si5 0.308428 0.391741 0.600106
Si Si6 0.672109 0.348819 0.464901
Si Si7 0.557932 0.319173 0.111223
Si Si8 0.502883 0.711185 0.180873
O O1 0.610169 0.077280 0.598177
O O2 0.679995 0.283815 0.536301
O O3 0.816879 0.124138 0.614380
O O4 0.634714 0.274753 0.662291
O O5 0.102186 0.401736 0.741868
O O6 0.262189 0.477332 0.663048
O O7 0.073160 0.454335 0.619804
O O8 0.077217 0.653738 0.694758
O O9 0.485712 0.707884 0.815278
O O10 0.906822 0.677286 0.078377
O O11 0.000000 0.500000 0.000000
O O12 0.245934 0.252208 0.581404
O O13 0.290169 0.496459 0.540528
O O14 0.436125 0.355119 0.620098
O O15 0.545560 0.359305 0.435098
O O16 0.500000 0.635645 0.250000
#
# Coordination Sequence:
#
# PCOD9454826 Si02
#       8
#     8   8   4   8   8   8   8   8
#     4  11  27  41  71 108 143 189 240 306 362 437
#     4  10  20  39  69  98 128 195 236 281 348 440
#     4  10  20  42  70 102 140 192 252 280 362 440
#     4  10  19  40  66  96 138 178 240 283 359 430
#     4  12  25  46  74 103 146 189 239 302 367 433
#     4  12  27  46  73 108 143 192 242 304 371 429
#     4  11  25  43  70 103 143 190 243 302 357 442
#     4  11  26  47  69 106 145 192 241 295 366 431
#
# _framework density 24.926348000000001
#
# number of rings (size 3 to 8) (size 9 to 14) (size 15 to 20)
#    0.000    1.067    6.000    0.000    7.467    1.600 
#    1.200    0.000    0.000    0.000    0.000    0.000 
#    0.000    0.000    0.000    0.000    0.000    0.000 
#
# Total GULP energy -334818.493434 kJ/mol
# GULP energy per Si atom -5580.308224 kJ/mol
# Density = 2.486961 g / cm^3
# Si number density = 24.926348 Si / 1000 Ang^3
#
#
#
# Elastic Constant Matrix: (Units=GPa)
#
#
# Indices 1 2 3 4 5 6 
#
# 1 99.5973 -13.0779 30.5582 0.0000 0.0000 0.0000
# 2 -13.0779 38.2487 11.1931 0.0000 0.0000 0.0000
# 3 30.5582 11.1931 72.3093 0.0000 0.0000 0.0000
# 4 0.0000 0.0000 0.0000 20.5795 0.0000 0.0000
# 5 0.0000 0.0000 0.0000 0.0000 25.4068 0.0000
# 6 0.0000 0.0000 0.0000 0.0000 0.0000 11.2872
#
#
#
# Elastic Compliance Matrix: (Units=1/GPa)
#
#
# Indices 1 2 3 4 5 6 
#
# 1 0.012821 0.006252 -0.006386 0.000000 0.000000 0.000000
# 2 0.006252 0.030434 -0.007353 0.000000 0.000000 0.000000
# 3 -0.006386 -0.007353 0.017666 0.000000 0.000000 0.000000
# 4 0.000000 0.000000 0.000000 0.048592 0.000000 0.000000
# 5 0.000000 0.000000 0.000000 0.000000 0.039360 0.000000
# 6 0.000000 0.000000 0.000000 0.000000 0.000000 0.088596
#
#
# Mechanical properties :
#
#
# Convention : Reuss Voigt Hill
#
# Bulk Modulus (GPa) = 21.76387 29.72248 25.74318
# Shear Modulus (GPa) = 18.67351 23.55349 21.11350
#
# Velocity S-wave (km/s) = 2.74003 3.07730 2.91354
# Velocity P-wave (km/s) = 4.33134 4.95745 4.65494
#
# Compressibility (1/GPa) = 0.04594772
#
# Stress axis : x y z
#
# Youngs Moduli (GPa) = 77.99862 32.85761 56.60437
#
# Poissons Ratio (x) = -0.20544 0.36147
# Poissons Ratio (y) = -0.48768 0.41623
# Poissons Ratio (z) = 0.49810 0.24161
#
# Static dielectric constant tensor:
#      x y z
#    x 2.163300 0.000000 0.000000 
#    y 0.000000 2.172870 0.000000 
#    z 0.000000 0.000000 3.040590 
# 
# From -- ./inp_files/22689.got.cif
#   From: 2010.05.17/outbox.cif.g08.bks.cpg/sg60_12_cif.got.tgz:22689.got - 2010.06.03 14:59:27.
