data_PCOD9454641
_publ_section_title
;
Structure prediction by ZEFSAII (Michael W. Deem and Ramdas Pophale) SiO2 
 PCOD9454641
Probable space group: P B C N
;
_chemical_formula_sum "Si O2"
_cell_formula_units_Z 28
_cell_length_a 17.042314
_cell_length_b 14.684941
_cell_length_c 4.821344
_cell_angle_alpha 90.000000
_cell_angle_beta 90.000000
_cell_angle_gamma 90.000000
_cell_volume 1206.615467
_symmetry_space_group_name_H-M "P B C N"
_symmetry_group_IT_number 60
_symmetry_cell_setting 'orthorhombic'
loop_
_space_group_symop_operation_xyz
x,y,z
1/2-x,1/2-y,1/2+z
1/2+x,1/2-y,-z
-x,y,1/2-z
-x,-y,-z
1/2+x,1/2+y,1/2-z
1/2-x,1/2+y,z
x,-y,1/2+z
loop_
_atom_site_type_symbol
_atom_site_label
_atom_site_fract_x
_atom_site_fract_y
_atom_site_fract_z
Si Si1 0.833157 0.436428 0.712114
Si Si2 0.226167 0.194648 0.943630
Si Si3 0.092581 0.935213 0.231913
Si Si4 0.500000 0.929633 0.750000
O O1 0.831060 0.471310 0.398656
O O2 0.766879 0.378790 0.857355
O O3 0.915815 0.382763 0.751631
O O4 0.222270 0.275695 0.174012
O O5 0.147772 0.148179 0.821788
O O6 0.000000 0.911779 0.250000
O O7 0.107789 0.022692 0.430156
O O8 0.500000 0.000000 0.500000
#
# Coordination Sequence:
#
# PCOD9454641 Si02
#       4
#     8   8   8   4
#     4  10  19  36  60  83 113 158 207 247 290 362
#     4  12  24  38  58  93 133 163 203 259 333 385
#     4  10  21  41  69  92 120 167 226 273 310 373
#     4   8  16  30  54  80 104 136 192 240 278 340
#
# _framework density 23.205403
#
# number of rings (size 3 to 8) (size 9 to 14) (size 15 to 20)
#    0.000    1.714    0.000    5.143    0.000    0.000 
#    2.571    0.000    0.000    0.000    0.000    0.000 
#    0.000    0.000    0.000    0.000    0.000    0.000 
#
# Total GULP energy -156191.666824 kJ/mol
# GULP energy per Si atom -5578.273815 kJ/mol
# Density = 2.315259 g / cm^3
# Si number density = 23.205403 Si / 1000 Ang^3
#
#
#
# Elastic Constant Matrix: (Units=GPa)
#
#
# Indices 1 2 3 4 5 6 
#
# 1 125.3418 49.7734 13.8438 0.0000 0.0000 0.0000
# 2 49.7734 66.5576 -3.1138 0.0000 0.0000 0.0000
# 3 13.8438 -3.1138 119.7957 0.0000 0.0000 0.0000
# 4 0.0000 0.0000 0.0000 -15.6952 0.0000 0.0000
# 5 0.0000 0.0000 0.0000 0.0000 32.9101 0.0000
# 6 0.0000 0.0000 0.0000 0.0000 0.0000 12.4839
#
#
#
# Elastic Compliance Matrix: (Units=1/GPa)
#
#
# Indices 1 2 3 4 5 6 
#
# 1 0.011637 -0.008776 -0.001573 0.000000 0.000000 0.000000
# 2 -0.008776 0.021661 0.001577 0.000000 0.000000 0.000000
# 3 -0.001573 0.001577 0.008570 0.000000 0.000000 0.000000
# 4 0.000000 0.000000 0.000000 -0.063714 0.000000 0.000000
# 5 0.000000 0.000000 0.000000 0.000000 0.030386 0.000000
# 6 0.000000 0.000000 0.000000 0.000000 0.000000 0.080103
#
#
# Mechanical properties :
#
#
# Convention : Reuss Voigt Hill
#
# Bulk Modulus (GPa) = 41.10970 48.07800 44.59385
# Shear Modulus (GPa) = 43.74638 22.68587 33.21613
#
# Velocity S-wave (km/s) = 4.34658 3.13007 3.78748
# Velocity P-wave (km/s) = 6.55319 5.81606 6.19560
#
# Compressibility (1/GPa) = 0.02432516
#
# Stress axis : x y z
#
# Youngs Moduli (GPa) = 85.93420 46.16554 116.68200
#
# Poissons Ratio (x) = 0.40514 0.18353
# Poissons Ratio (y) = 0.75415 -0.18403
# Poissons Ratio (z) = 0.13516 -0.07281
#
# Static dielectric constant tensor:
#      x y z
#    x 1.984040 0.000000 0.000000 
#    y 0.000000 1.970510 0.000000 
#    z 0.000000 0.000000 1.848280 
# 
# From -- ./inp_files/1925.got.cif
#   From: 2010.05.17/outbox.cif.g08.bks.cpg/sg60_1_cif.got.tgz:1925.got - 2010.06.03 14:59:27.
