data_PCOD9454115
_publ_section_title
;
Structure prediction by ZEFSAII (Michael W. Deem and Ramdas Pophale) SiO2 
 PCOD9454115
Probable space group: P B C N
;
_chemical_formula_sum "Si O2"
_cell_formula_units_Z 36
_cell_length_a 5.531254
_cell_length_b 20.481987
_cell_length_c 15.560315
_cell_angle_alpha 90.000000
_cell_angle_beta 90.000000
_cell_angle_gamma 90.000000
_cell_volume 1762.844775
_symmetry_space_group_name_H-M "P B C N"
_symmetry_group_IT_number 60
_symmetry_cell_setting 'orthorhombic'
loop_
_space_group_symop_operation_xyz
x,y,z
1/2-x,1/2-y,1/2+z
1/2+x,1/2-y,-z
-x,y,1/2-z
-x,-y,-z
1/2+x,1/2+y,1/2-z
1/2-x,1/2+y,z
x,-y,1/2+z
loop_
_atom_site_type_symbol
_atom_site_label
_atom_site_fract_x
_atom_site_fract_y
_atom_site_fract_z
Si Si1 0.247480 0.027594 0.088200
Si Si2 0.376282 0.866092 0.863881
Si Si3 0.074074 0.242430 0.553458
Si Si4 0.000000 0.081589 0.250000
Si Si5 0.583426 0.603823 0.968911
O O1 0.477492 0.067300 0.119680
O O2 0.061800 0.038339 0.167099
O O3 0.260065 0.951193 0.068828
O O4 0.150128 0.063749 0.001926
O O5 0.530474 0.801053 0.879410
O O6 0.225901 0.873670 0.776980
O O7 0.186361 0.866539 0.942630
O O8 0.841630 0.247285 0.488015
O O9 0.053526 0.168157 0.588110
#
# Coordination Sequence:
#
# PCOD9454115 Si02
#       5
#     8   8   8   4   8
#     4  10  18  35  55  81 114 149 198 244 297 355
#     4  10  19  34  58  83 119 153 200 244 299 361
#     4  10  19  35  58  89 119 144 188 248 305 353
#     4  10  22  34  54  80 114 164 200 236 296 364
#     4   9  19  32  57  89 108 146 196 251 301 345
#
# _framework density 20.421536
#
# number of rings (size 3 to 8) (size 9 to 14) (size 15 to 20)
#    0.000    2.222    2.222    1.333    0.000    0.000 
#    0.000    0.000    4.889    0.000    0.000    0.000 
#    0.000    0.000    0.000    0.000    0.000    0.000 
#
# Total GULP energy -200478.050731 kJ/mol
# GULP energy per Si atom -5568.834743 kJ/mol
# Density = 2.037506 g / cm^3
# Si number density = 20.421536 Si / 1000 Ang^3
#
#
#
# Elastic Constant Matrix: (Units=GPa)
#
#
# Indices 1 2 3 4 5 6 
#
# 1 86.4508 30.9701 9.7874 0.0000 0.0000 0.0000
# 2 30.9701 169.1550 30.0857 0.0000 0.0000 0.0000
# 3 9.7874 30.0857 52.8175 0.0000 0.0000 0.0000
# 4 0.0000 0.0000 0.0000 14.3448 0.0000 0.0000
# 5 0.0000 0.0000 0.0000 0.0000 33.3941 0.0000
# 6 0.0000 0.0000 0.0000 0.0000 0.0000 24.0544
#
#
#
# Elastic Compliance Matrix: (Units=1/GPa)
#
#
# Indices 1 2 3 4 5 6 
#
# 1 0.012439 -0.002078 -0.001121 0.000000 0.000000 0.000000
# 2 -0.002078 0.006925 -0.003560 0.000000 0.000000 0.000000
# 3 -0.001121 -0.003560 0.021169 0.000000 0.000000 0.000000
# 4 0.000000 0.000000 0.000000 0.069712 0.000000 0.000000
# 5 0.000000 0.000000 0.000000 0.000000 0.029945 0.000000
# 6 0.000000 0.000000 0.000000 0.000000 0.000000 0.041572
#
#
# Mechanical properties :
#
#
# Convention : Reuss Voigt Hill
#
# Bulk Modulus (GPa) = 37.01706 50.01219 43.51462
# Shear Modulus (GPa) = 24.47566 30.19735 27.33650
#
# Velocity S-wave (km/s) = 3.46572 3.84956 3.66267
# Velocity P-wave (km/s) = 5.84644 6.65597 6.26429
#
# Compressibility (1/GPa) = 0.02701457
#
# Stress axis : x y z
#
# Youngs Moduli (GPa) = 80.39485 144.39799 47.23980
#
# Poissons Ratio (x) = 0.30005 0.05297
# Poissons Ratio (y) = 0.16705 0.16816
# Poissons Ratio (z) = 0.09015 0.51402
#
# Static dielectric constant tensor:
#      x y z
#    x 1.828050 0.000000 0.000000 
#    y 0.000000 1.775560 0.000000 
#    z 0.000000 0.000000 1.772390 
# 
# From -- ./inp_files/13699.got.cif
#   From: 2010.05.17/outbox.cif.g08.bks.cpg/sg60_7_cif.got.tgz:13699.got - 2010.06.03 14:59:27.
