data_PCOD9454885
_publ_section_title
;
Structure prediction by ZEFSAII (Michael W. Deem and Ramdas Pophale) SiO2 
 PCOD9454885
Probable space group: P B C N
;
_chemical_formula_sum "Si O2"
_cell_formula_units_Z 64
_cell_length_a 22.947348
_cell_length_b 18.426034
_cell_length_c 8.145093
_cell_angle_alpha 90.000000
_cell_angle_beta 90.000000
_cell_angle_gamma 90.000000
_cell_volume 3443.978388
_symmetry_space_group_name_H-M "P B C N"
_symmetry_group_IT_number 60
_symmetry_cell_setting 'orthorhombic'
loop_
_space_group_symop_operation_xyz
x,y,z
1/2-x,1/2-y,1/2+z
1/2+x,1/2-y,-z
-x,y,1/2-z
-x,-y,-z
1/2+x,1/2+y,1/2-z
1/2-x,1/2+y,z
x,-y,1/2+z
loop_
_atom_site_type_symbol
_atom_site_label
_atom_site_fract_x
_atom_site_fract_y
_atom_site_fract_z
Si Si1 0.864812 0.221217 0.607172
Si Si2 0.463494 0.335861 0.613120
Si Si3 0.209310 0.698291 0.601841
Si Si4 0.924680 0.155668 0.902623
Si Si5 0.233432 0.899456 0.317800
Si Si6 0.062637 0.007354 0.093248
Si Si7 0.690460 0.467156 0.882523
Si Si8 0.315760 0.669909 0.355883
O O1 0.904752 0.194992 0.457338
O O2 0.837465 0.295888 0.544241
O O3 0.904404 0.212633 0.766828
O O4 0.810722 0.166819 0.641064
O O5 0.500000 0.294267 0.750000
O O6 0.509748 0.337978 0.465916
O O7 0.447493 0.416111 0.683820
O O8 0.209911 0.633593 0.732768
O O9 0.270236 0.688140 0.503286
O O10 0.199583 0.769746 0.715832
O O11 0.878824 0.166380 0.052920
O O12 0.925720 0.072341 0.832397
O O13 0.238373 0.941827 0.487449
O O14 0.205040 0.955358 0.191479
O O15 0.127586 0.025267 0.023593
O O16 0.000000 0.000000 0.000000
O O17 0.689622 0.407316 0.737680
#
# Coordination Sequence:
#
# PCOD9454885 Si02
#       8
#     8   8   8   8   8   8   8   8
#     4  12  22  38  55  77 108 154 204 244 295 351
#     4  11  23  36  51  79 113 159 201 246 292 336
#     4  12  22  39  56  79 107 149 205 244 304 364
#     4  11  22  35  52  79 111 152 200 247 288 334
#     4  12  23  38  57  80 107 149 196 247 302 345
#     4  10  20  32  48  72 110 152 196 236 279 323
#     4  12  22  38  56  82 113 148 200 250 296 343
#     4  12  21  36  58  78 110 149 196 246 296 358
#
# _framework density 18.583161
#
# number of rings (size 3 to 8) (size 9 to 14) (size 15 to 20)
#    0.000    0.500    6.250    3.375    0.000    4.000 
#    0.000    0.000    0.000    0.000    0.000    0.000 
#    0.000    0.000    0.000  109.125    0.000    3.625 
#
# Total GULP energy -356394.332415 kJ/mol
# GULP energy per Si atom -5568.661444 kJ/mol
# Density = 1.854087 g / cm^3
# Si number density = 18.583161 Si / 1000 Ang^3
#
#
#
# Elastic Constant Matrix: (Units=GPa)
#
#
# Indices 1 2 3 4 5 6 
#
# 1 78.6596 45.1910 33.1498 0.0000 0.0000 0.0000
# 2 45.1910 58.9563 32.3097 0.0000 0.0000 0.0000
# 3 33.1498 32.3097 93.0380 0.0000 0.0000 0.0000
# 4 0.0000 0.0000 0.0000 25.3674 0.0000 0.0000
# 5 0.0000 0.0000 0.0000 0.0000 43.8601 0.0000
# 6 0.0000 0.0000 0.0000 0.0000 0.0000 24.4856
#
#
#
# Elastic Compliance Matrix: (Units=1/GPa)
#
#
# Indices 1 2 3 4 5 6 
#
# 1 0.023209 -0.016374 -0.002583 0.000000 0.000000 0.000000
# 2 -0.016374 0.032501 -0.005453 0.000000 0.000000 0.000000
# 3 -0.002583 -0.005453 0.013562 0.000000 0.000000 0.000000
# 4 0.000000 0.000000 0.000000 0.039421 0.000000 0.000000
# 5 0.000000 0.000000 0.000000 0.000000 0.022800 0.000000
# 6 0.000000 0.000000 0.000000 0.000000 0.000000 0.040840
#
#
# Mechanical properties :
#
#
# Convention : Reuss Voigt Hill
#
# Bulk Modulus (GPa) = 48.89439 50.21720 49.55580
# Shear Modulus (GPa) = 21.93267 26.74287 24.33777
#
# Velocity S-wave (km/s) = 3.43920 3.79765 3.62286
# Velocity P-wave (km/s) = 6.49146 6.80523 6.65019
#
# Compressibility (1/GPa) = 0.02045224
#
# Stress axis : x y z
#
# Youngs Moduli (GPa) = 43.08683 30.76812 73.73468
#
# Poissons Ratio (x) = 0.50381 0.19046
# Poissons Ratio (y) = 0.70553 0.40204
# Poissons Ratio (z) = 0.11129 0.16776
#
# Static dielectric constant tensor:
#      x y z
#    x 1.663730 0.000000 0.000000 
#    y 0.000000 1.631080 0.000000 
#    z 0.000000 0.000000 1.796320 
# 
# From -- ./inp_files/7623.got.cif
#   From: 2010.05.17/outbox.cif.g08.bks.cpg/sg60_4_cif.got.tgz:7623.got - 2010.06.03 14:59:27.
