data_PCOD9454582
_publ_section_title
;
Structure prediction by ZEFSAII (Michael W. Deem and Ramdas Pophale) SiO2 
 PCOD9454582
Probable space group: P B C N
;
_chemical_formula_sum "Si O2"
_cell_formula_units_Z 56
_cell_length_a 17.566300
_cell_length_b 7.472990
_cell_length_c 19.540079
_cell_angle_alpha 90.000000
_cell_angle_beta 90.000000
_cell_angle_gamma 90.000000
_cell_volume 2565.080575
_symmetry_space_group_name_H-M "P B C N"
_symmetry_group_IT_number 60
_symmetry_cell_setting 'orthorhombic'
loop_
_space_group_symop_operation_xyz
x,y,z
1/2-x,1/2-y,1/2+z
1/2+x,1/2-y,-z
-x,y,1/2-z
-x,-y,-z
1/2+x,1/2+y,1/2-z
1/2-x,1/2+y,z
x,-y,1/2+z
loop_
_atom_site_type_symbol
_atom_site_label
_atom_site_fract_x
_atom_site_fract_y
_atom_site_fract_z
Si Si1 0.428711 0.293006 0.530737
Si Si2 0.199631 0.292030 0.419631
Si Si3 0.333469 0.427027 0.114549
Si Si4 0.569613 0.476101 0.595149
Si Si5 0.858002 0.934210 0.232205
Si Si6 0.698904 0.907106 0.675191
Si Si7 0.826240 0.538859 0.436923
O O1 0.370138 0.438510 0.560796
O O2 0.505192 0.336149 0.572503
O O3 0.442671 0.347608 0.451542
O O4 0.392530 0.100893 0.545351
O O5 0.163956 0.420413 0.361113
O O6 0.278384 0.224045 0.387759
O O7 0.206844 0.394057 0.490286
O O8 0.147748 0.119415 0.426859
O O9 0.365862 0.479130 0.188671
O O10 0.241883 0.448904 0.106759
O O11 0.352765 0.221219 0.098927
O O12 0.579458 0.512289 0.675803
O O13 0.846996 0.719528 0.225361
O O14 0.777722 0.027455 0.209741
#
# Coordination Sequence:
#
# PCOD9454582 Si02
#       7
#     8   8   8   8   8   8   8
#     4  11  25  44  67  95 131 173 222 271 325 392
#     4  10  19  35  61  96 125 161 211 270 325 376
#     4  12  24  40  65  97 132 169 215 267 339 386
#     4  10  23  45  65  91 131 180 219 269 329 388
#     4  10  21  39  62  90 132 170 209 270 324 391
#     4   9  19  33  61  95 123 159 214 266 324 379
#     4  12  23  38  67 100 131 165 215 279 331 389
#
# _framework density 21.831674
#
# number of rings (size 3 to 8) (size 9 to 14) (size 15 to 20)
#    0.000    1.429    2.857    2.571    4.000    1.143 
#    5.143    0.000    0.000    0.000    0.000    0.000 
#    0.000    0.000    0.000    0.000    0.000    0.000 
#
# Total GULP energy -312821.370160 kJ/mol
# GULP energy per Si atom -5586.095896 kJ/mol
# Density = 2.178198 g / cm^3
# Si number density = 21.831674 Si / 1000 Ang^3
#
#
#
# Elastic Constant Matrix: (Units=GPa)
#
#
# Indices 1 2 3 4 5 6 
#
# 1 20.9099 -7.9528 -9.4049 0.0000 0.0000 0.0000
# 2 -7.9528 90.8161 15.1703 0.0000 0.0000 0.0000
# 3 -9.4049 15.1703 91.4260 0.0000 0.0000 0.0000
# 4 0.0000 0.0000 0.0000 23.3011 0.0000 0.0000
# 5 0.0000 0.0000 0.0000 0.0000 12.1642 0.0000
# 6 0.0000 0.0000 0.0000 0.0000 0.0000 24.3750
#
#
#
# Elastic Compliance Matrix: (Units=1/GPa)
#
#
# Indices 1 2 3 4 5 6 
#
# 1 0.051335 0.003716 0.004664 0.000000 0.000000 0.000000
# 2 0.003716 0.011594 -0.001542 0.000000 0.000000 0.000000
# 3 0.004664 -0.001542 0.011673 0.000000 0.000000 0.000000
# 4 0.000000 0.000000 0.000000 0.042916 0.000000 0.000000
# 5 0.000000 0.000000 0.000000 0.000000 0.082209 0.000000
# 6 0.000000 0.000000 0.000000 0.000000 0.000000 0.041026
#
#
# Mechanical properties :
#
#
# Convention : Reuss Voigt Hill
#
# Bulk Modulus (GPa) = 11.32746 22.08635 16.70691
# Shear Modulus (GPa) = 19.49296 25.65734 22.57515
#
# Velocity S-wave (km/s) = 2.99134 3.43189 3.21916
# Velocity P-wave (km/s) = 4.13892 5.08354 4.63536
#
# Compressibility (1/GPa) = 0.08828101
#
# Stress axis : x y z
#
# Youngs Moduli (GPa) = 19.47971 86.24994 85.66491
#
# Poissons Ratio (x) = -0.32053 -0.39955
# Poissons Ratio (y) = -0.07239 0.13205
# Poissons Ratio (z) = -0.09086 0.13296
#
# Static dielectric constant tensor:
#      x y z
#    x 1.846580 0.000000 0.000000 
#    y 0.000000 1.820990 0.000000 
#    z 0.000000 0.000000 1.844790 
# 
# From -- ./inp_files/23212.got.cif
#   From: 2010.05.17/outbox.cif.g08.bks.cpg/sg60_12_cif.got.tgz:23212.got - 2010.06.03 14:59:27.
