data_PCOD9454496
_publ_section_title
;
Structure prediction by ZEFSAII (Michael W. Deem and Ramdas Pophale) SiO2 
 PCOD9454496
Probable space group: P B C N
;
_chemical_formula_sum "Si O2"
_cell_formula_units_Z 48
_cell_length_a 13.781723
_cell_length_b 10.641632
_cell_length_c 12.045243
_cell_angle_alpha 90.000000
_cell_angle_beta 90.000000
_cell_angle_gamma 90.000000
_cell_volume 1766.555633
_symmetry_space_group_name_H-M "P B C N"
_symmetry_group_IT_number 60
_symmetry_cell_setting 'orthorhombic'
loop_
_space_group_symop_operation_xyz
x,y,z
1/2-x,1/2-y,1/2+z
1/2+x,1/2-y,-z
-x,y,1/2-z
-x,-y,-z
1/2+x,1/2+y,1/2-z
1/2-x,1/2+y,z
x,-y,1/2+z
loop_
_atom_site_type_symbol
_atom_site_label
_atom_site_fract_x
_atom_site_fract_y
_atom_site_fract_z
Si Si1 0.671164 0.437145 0.981380
Si Si2 0.871563 0.310759 0.048412
Si Si3 0.331751 0.349915 0.753185
Si Si4 0.322558 0.876359 0.103416
Si Si5 0.369376 0.041624 0.294484
Si Si6 0.953110 0.758068 0.081270
O O1 0.626992 0.414689 0.857229
O O2 0.732542 0.563477 0.961535
O O3 0.588492 0.399556 0.069779
O O4 0.760770 0.340446 0.011889
O O5 0.888074 0.204202 0.142425
O O6 0.899496 0.440742 0.111976
O O7 0.935819 0.265604 0.946193
O O8 0.290022 0.220742 0.698639
O O9 0.246328 0.437190 0.797390
O O10 0.397845 0.811163 0.021646
O O11 0.380824 0.982893 0.172664
O O12 0.415555 0.176177 0.316986
#
# Coordination Sequence:
#
# PCOD9454496 Si02
#       6
#     8   8   8   8   8   8
#     4  10  20  36  57  86 120 158 196 244 302 358
#     4  11  21  36  60  92 116 154 204 246 302 356
#     4   9  20  37  56  83 119 159 190 245 301 357
#     4   9  20  35  56  86 116 158 202 241 301 358
#     4  10  19  34  57  87 120 151 189 254 301 345
#     4  11  21  36  60  90 119 157 201 252 300 351
#
# _framework density 27.171516
#
# number of rings (size 3 to 8) (size 9 to 14) (size 15 to 20)
#    0.000    2.000    3.333    0.500    0.000    6.000 
#    3.000    0.000    0.000    9.000   21.667    0.000 
#    0.000    0.000    0.000    0.000    0.000    0.000 
#
# Total GULP energy -268280.174070 kJ/mol
# GULP energy per Si atom -5589.170293 kJ/mol
# Density = 2.710967 g / cm^3
# Si number density = 27.171516 Si / 1000 Ang^3
#
#
#
# Elastic Constant Matrix: (Units=GPa)
#
#
# Indices 1 2 3 4 5 6 
#
# 1 80.0319 15.6776 9.2484 0.0000 0.0000 0.0000
# 2 15.6776 56.3822 11.6523 0.0000 0.0000 0.0000
# 3 9.2484 11.6523 105.7373 0.0000 0.0000 0.0000
# 4 0.0000 0.0000 0.0000 40.2603 0.0000 0.0000
# 5 0.0000 0.0000 0.0000 0.0000 40.0718 0.0000
# 6 0.0000 0.0000 0.0000 0.0000 0.0000 21.6262
#
#
#
# Elastic Compliance Matrix: (Units=1/GPa)
#
#
# Indices 1 2 3 4 5 6 
#
# 1 0.013276 -0.003532 -0.000772 0.000000 0.000000 0.000000
# 2 -0.003532 0.019089 -0.001795 0.000000 0.000000 0.000000
# 3 -0.000772 -0.001795 0.009723 0.000000 0.000000 0.000000
# 4 0.000000 0.000000 0.000000 0.024838 0.000000 0.000000
# 5 0.000000 0.000000 0.000000 0.000000 0.024955 0.000000
# 6 0.000000 0.000000 0.000000 0.000000 0.000000 0.046240
#
#
# Mechanical properties :
#
#
# Convention : Reuss Voigt Hill
#
# Bulk Modulus (GPa) = 33.45539 35.03423 34.24481
# Shear Modulus (GPa) = 31.19489 34.09652 32.64571
#
# Velocity S-wave (km/s) = 3.39200 3.54625 3.46998
# Velocity P-wave (km/s) = 5.26120 5.44881 5.35583
#
# Compressibility (1/GPa) = 0.02989055
#
# Stress axis : x y z
#
# Youngs Moduli (GPa) = 75.32318 52.38587 102.85212
#
# Poissons Ratio (x) = 0.18503 0.07940
# Poissons Ratio (y) = 0.26604 0.18459
# Poissons Ratio (z) = 0.05815 0.09402
#
# Static dielectric constant tensor:
#      x y z
#    x 2.106000 0.000000 0.000000 
#    y 0.000000 2.271360 0.000000 
#    z 0.000000 0.000000 2.144010 
# 
# From -- ./inp_files/16795.got.cif
#   From: 2010.05.17/outbox.cif.g08.bks.cpg/sg60_9_cif.got.tgz:16795.got - 2010.06.03 14:59:27.
