data_PCOD9454924
_publ_section_title
;
Structure prediction by ZEFSAII (Michael W. Deem and Ramdas Pophale) SiO2 
 PCOD9454924
Probable space group: P B C N
;
_chemical_formula_sum "Si O2"
_cell_formula_units_Z 64
_cell_length_a 9.312577
_cell_length_b 22.230495
_cell_length_c 16.642077
_cell_angle_alpha 90.000000
_cell_angle_beta 90.000000
_cell_angle_gamma 90.000000
_cell_volume 3445.295976
_symmetry_space_group_name_H-M "P B C N"
_symmetry_group_IT_number 60
_symmetry_cell_setting 'orthorhombic'
loop_
_space_group_symop_operation_xyz
x,y,z
1/2-x,1/2-y,1/2+z
1/2+x,1/2-y,-z
-x,y,1/2-z
-x,-y,-z
1/2+x,1/2+y,1/2-z
1/2-x,1/2+y,z
x,-y,1/2+z
loop_
_atom_site_type_symbol
_atom_site_label
_atom_site_fract_x
_atom_site_fract_y
_atom_site_fract_z
Si Si1 0.672336 0.839814 0.485506
Si Si2 0.649017 0.738222 0.878557
Si Si3 0.836680 0.053283 0.067456
Si Si4 0.172502 0.944796 0.753417
Si Si5 0.850200 0.651540 0.504784
Si Si6 0.327718 0.732924 0.893559
Si Si7 0.670829 0.303280 0.742112
Si Si8 0.178567 0.043711 0.073959
O O1 0.775207 0.821705 0.412261
O O2 0.754149 0.886113 0.543292
O O3 0.512089 0.862646 0.467057
O O4 0.650329 0.776181 0.530015
O O5 0.484483 0.724857 0.855283
O O6 0.746973 0.766831 0.810456
O O7 0.642315 0.790800 0.945798
O O8 0.787178 0.032105 0.156953
O O9 0.009512 0.063043 0.073160
O O10 0.809541 0.007988 0.993445
O O11 0.211539 0.873735 0.753790
O O12 0.219605 0.971519 0.666833
O O13 0.000000 0.949255 0.750000
O O14 0.747029 0.672044 0.577231
O O15 0.777801 0.597917 0.455873
O O16 0.221228 0.770822 0.838345
O O17 0.500000 0.300063 0.750000
#
# Coordination Sequence:
#
# PCOD9454924 Si02
#       8
#     8   8   8   8   8   8   8   8
#     4  10  20  34  53  78 109 143 182 228 281 336
#     4  10  20  33  52  79 111 143 180 224 278 340
#     4  10  20  36  58  81 109 149 193 237 288 344
#     4   9  18  33  54  81 108 139 186 236 281 337
#     4  10  20  34  53  78 109 143 182 228 281 336
#     4  10  20  33  52  79 111 143 180 224 278 340
#     4  11  19  31  54  81 112 143 182 234 285 337
#     4  10  20  36  58  81 109 149 193 237 288 344
#
# _framework density 18.576053000000002
#
# number of rings (size 3 to 8) (size 9 to 14) (size 15 to 20)
#    0.000    2.000    2.500    1.875    0.000    2.500 
#    0.000    1.875    0.000    3.000    0.000    0.000 
#    0.000    0.000    0.000    0.000    0.000    0.000 
#
# Total GULP energy -356396.073577 kJ/mol
# GULP energy per Si atom -5568.688650 kJ/mol
# Density = 1.853377 g / cm^3
# Si number density = 18.576053 Si / 1000 Ang^3
#
#
#
# Elastic Constant Matrix: (Units=GPa)
#
#
# Indices 1 2 3 4 5 6 
#
# 1 73.7441 19.7611 14.5273 0.0000 0.0000 0.0000
# 2 19.7611 29.7581 21.3662 0.0000 0.0000 0.0000
# 3 14.5273 21.3662 76.0491 0.0000 0.0000 0.0000
# 4 0.0000 0.0000 0.0000 29.8042 0.0000 0.0000
# 5 0.0000 0.0000 0.0000 0.0000 20.0184 0.0000
# 6 0.0000 0.0000 0.0000 0.0000 0.0000 16.1424
#
#
#
# Elastic Compliance Matrix: (Units=1/GPa)
#
#
# Indices 1 2 3 4 5 6 
#
# 1 0.016496 -0.010888 -0.000092 0.000000 0.000000 0.000000
# 2 -0.010888 0.049283 -0.011766 0.000000 0.000000 0.000000
# 3 -0.000092 -0.011766 0.016473 0.000000 0.000000 0.000000
# 4 0.000000 0.000000 0.000000 0.033552 0.000000 0.000000
# 5 0.000000 0.000000 0.000000 0.000000 0.049954 0.000000
# 6 0.000000 0.000000 0.000000 0.000000 0.000000 0.061949
#
#
# Mechanical properties :
#
#
# Convention : Reuss Voigt Hill
#
# Bulk Modulus (GPa) = 27.20452 32.31782 29.76117
# Shear Modulus (GPa) = 17.51603 21.45279 19.48441
#
# Velocity S-wave (km/s) = 3.07406 3.40201 3.24218
# Velocity P-wave (km/s) = 5.22269 5.73297 5.48377
#
# Compressibility (1/GPa) = 0.03675860
#
# Stress axis : x y z
#
# Youngs Moduli (GPa) = 60.61972 20.29105 60.70643
#
# Poissons Ratio (x) = 0.22094 0.00559
# Poissons Ratio (y) = 0.66005 0.71428
# Poissons Ratio (z) = 0.00558 0.23875
#
# Static dielectric constant tensor:
#      x y z
#    x 1.653930 0.000000 0.000000 
#    y 0.000000 1.622320 0.000000 
#    z 0.000000 0.000000 1.712860 
# 
# From -- ./inp_files/15437.got.cif
#   From: 2010.05.17/outbox.cif.g08.bks.cpg/sg60_8_cif.got.tgz:15437.got - 2010.06.03 14:59:27.
