data_PCOD9454828
_publ_section_title
;
Structure prediction by ZEFSAII (Michael W. Deem and Ramdas Pophale) SiO2 
 PCOD9454828
Probable space group: P B C N
;
_chemical_formula_sum "Si O2"
_cell_formula_units_Z 60
_cell_length_a 8.807632
_cell_length_b 11.795468
_cell_length_c 25.346850
_cell_angle_alpha 90.000000
_cell_angle_beta 90.000000
_cell_angle_gamma 90.000000
_cell_volume 2633.287831
_symmetry_space_group_name_H-M "P B C N"
_symmetry_group_IT_number 60
_symmetry_cell_setting 'orthorhombic'
loop_
_space_group_symop_operation_xyz
x,y,z
1/2-x,1/2-y,1/2+z
1/2+x,1/2-y,-z
-x,y,1/2-z
-x,-y,-z
1/2+x,1/2+y,1/2-z
1/2-x,1/2+y,z
x,-y,1/2+z
loop_
_atom_site_type_symbol
_atom_site_label
_atom_site_fract_x
_atom_site_fract_y
_atom_site_fract_z
Si Si1 0.057649 0.790353 0.338449
Si Si2 0.437395 0.747556 0.547717
Si Si3 0.433397 0.655054 0.390858
Si Si4 0.671347 0.932523 0.538284
Si Si5 0.345310 0.385733 0.524913
Si Si6 0.623878 0.895148 0.132095
Si Si7 0.773907 0.575564 0.203507
Si Si8 0.500000 0.470855 0.250000
O O1 0.956639 0.755704 0.388734
O O2 0.207974 0.841849 0.365551
O O3 0.120221 0.685937 0.302416
O O4 0.994941 0.886422 0.300095
O O5 0.529915 0.855430 0.525087
O O6 0.528234 0.645258 0.519423
O O7 0.265932 0.777866 0.532736
O O8 0.297386 0.646889 0.433574
O O9 0.571848 0.594800 0.419515
O O10 0.476380 0.783742 0.375851
O O11 0.356019 0.596680 0.341175
O O12 0.750470 0.006641 0.493812
O O13 0.615742 0.019995 0.583480
O O14 0.621349 0.970073 0.185231
O O15 0.658402 0.542435 0.250163
#
# Coordination Sequence:
#
# PCOD9454828 Si02
#       8
#     8   8   8   8   8   8   8   4
#     4  10  19  40  67  91 123 169 214 269 328 393
#     4  12  23  39  59  91 124 175 210 263 316 394
#     4  10  20  36  59  90 121 170 208 262 316 385
#     4  11  18  36  57  82 119 163 215 242 313 373
#     4  12  25  36  57  88 134 162 216 261 308 390
#     4   9  15  34  64  82 112 158 214 249 311 386
#     4   9  19  38  71  91 120 168 217 269 336 395
#     4  10  22  40  72  98 120 162 222 280 336 394
#
# _framework density 22.785205999999999
#
# number of rings (size 3 to 8) (size 9 to 14) (size 15 to 20)
#    0.000    1.600    5.333    2.400    0.000    0.000 
#    2.400    0.000    2.933    1.600    0.000    0.000 
#    0.000    0.000    0.000    0.000    0.000    0.000 
#
# Total GULP energy -334827.106830 kJ/mol
# GULP energy per Si atom -5580.451780 kJ/mol
# Density = 2.273335 g / cm^3
# Si number density = 22.785206 Si / 1000 Ang^3
#
#
#
# Elastic Constant Matrix: (Units=GPa)
#
#
# Indices 1 2 3 4 5 6 
#
# 1 49.3960 -0.5982 25.1429 0.0000 0.0000 0.0000
# 2 -0.5982 80.8278 10.1335 0.0000 0.0000 0.0000
# 3 25.1429 10.1335 61.8450 0.0000 0.0000 0.0000
# 4 0.0000 0.0000 0.0000 24.5904 0.0000 0.0000
# 5 0.0000 0.0000 0.0000 0.0000 26.9087 0.0000
# 6 0.0000 0.0000 0.0000 0.0000 0.0000 25.7892
#
#
#
# Elastic Compliance Matrix: (Units=1/GPa)
#
#
# Indices 1 2 3 4 5 6 
#
# 1 0.025712 0.001532 -0.010704 0.000000 0.000000 0.000000
# 2 0.001532 0.012723 -0.002708 0.000000 0.000000 0.000000
# 3 -0.010704 -0.002708 0.020965 0.000000 0.000000 0.000000
# 4 0.000000 0.000000 0.000000 0.040666 0.000000 0.000000
# 5 0.000000 0.000000 0.000000 0.000000 0.037163 0.000000
# 6 0.000000 0.000000 0.000000 0.000000 0.000000 0.038776
#
#
# Mechanical properties :
#
#
# Convention : Reuss Voigt Hill
#
# Bulk Modulus (GPa) = 28.05805 29.04724 28.55265
# Shear Modulus (GPa) = 23.62470 25.95035 24.78753
#
# Velocity S-wave (km/s) = 3.22350 3.37844 3.30188
# Velocity P-wave (km/s) = 5.11815 5.29098 5.20528
#
# Compressibility (1/GPa) = 0.03564040
#
# Stress axis : x y z
#
# Youngs Moduli (GPa) = 38.89307 78.59919 47.69908
#
# Poissons Ratio (x) = -0.12043 0.51057
# Poissons Ratio (y) = -0.05959 0.12915
# Poissons Ratio (z) = 0.41631 0.21282
#
# Static dielectric constant tensor:
#      x y z
#    x 1.865420 0.000000 0.000000 
#    y 0.000000 1.932450 0.000000 
#    z 0.000000 0.000000 1.904460 
# 
# From -- ./inp_files/25211.got.cif
#   From: 2010.05.17/outbox.cif.g08.bks.cpg/sg60_13_cif.got.tgz:25211.got - 2010.06.03 14:59:27.
