data_PCOD9454018
_publ_section_title
;
Structure prediction by ZEFSAII (Michael W. Deem and Ramdas Pophale) SiO2 
 PCOD9454018
Probable space group: P B C N
;
_chemical_formula_sum "Si O2"
_cell_formula_units_Z 52
_cell_length_a 24.065636
_cell_length_b 5.597138
_cell_length_c 13.864450
_cell_angle_alpha 90.000000
_cell_angle_beta 90.000000
_cell_angle_gamma 90.000000
_cell_volume 1867.523194
_symmetry_space_group_name_H-M "P B C N"
_symmetry_group_IT_number 60
_symmetry_cell_setting 'orthorhombic'
loop_
_space_group_symop_operation_xyz
x,y,z
1/2-x,1/2-y,1/2+z
1/2+x,1/2-y,-z
-x,y,1/2-z
-x,-y,-z
1/2+x,1/2+y,1/2-z
1/2-x,1/2+y,z
x,-y,1/2+z
loop_
_atom_site_type_symbol
_atom_site_label
_atom_site_fract_x
_atom_site_fract_y
_atom_site_fract_z
Si Si1 0.555173 0.267508 0.419108
Si Si2 0.500000 0.775532 0.250000
Si Si3 0.267458 0.686522 0.265794
Si Si4 0.725036 0.806474 0.954363
Si Si5 0.372768 0.084824 0.484287
Si Si6 0.556933 0.407415 0.105523
Si Si7 0.885631 0.171358 0.322822
O O1 0.494330 0.230055 0.375912
O O2 0.555391 0.485820 0.497513
O O3 0.593967 0.396464 0.338666
O O4 0.571033 0.044450 0.483526
O O5 0.535854 0.621452 0.171805
O O6 0.440623 0.838763 0.195224
O O7 0.250406 0.936912 0.312340
O O8 0.232073 0.690646 0.163186
O O9 0.334145 0.687477 0.249948
O O10 0.757880 0.043834 0.982985
O O11 0.667389 0.860196 0.007935
O O12 0.386597 0.252925 0.394394
O O13 0.356603 0.240099 0.577981
#
# Coordination Sequence:
#
# PCOD9454018 Si02
#       7
#     8   4   8   8   8   8   8
#     4   9  18  34  55  82 112 143 193 248 301 360
#     4  10  22  42  54  78 128 164 210 248 308 392
#     4  10  18  32  57  90 117 151 201 261 313 365
#     4  10  19  31  54  94 122 146 189 258 319 369
#     4  11  19  32  61  85 115 148 199 258 312 364
#     4   9  20  35  54  79 112 155 191 246 303 364
#     4  10  20  34  58  85 117 158 197 258 313 371
#
# _framework density 27.844365
#
# number of rings (size 3 to 8) (size 9 to 14) (size 15 to 20)
#    0.000    2.154    3.077    3.231    2.154    0.000 
#    0.000    6.923    0.000    1.846    0.000    0.000 
#    0.000    0.000    0.000    0.000    0.000    0.000 
#
# Total GULP energy -289641.918822 kJ/mol
# GULP energy per Si atom -5570.036900 kJ/mol
# Density = 2.778099 g / cm^3
# Si number density = 27.844365 Si / 1000 Ang^3
#
#
#
# Elastic Constant Matrix: (Units=GPa)
#
#
# Indices 1 2 3 4 5 6 
#
# 1 73.4053 14.5157 16.4234 0.0000 0.0000 0.0000
# 2 14.5157 100.3700 7.1432 0.0000 0.0000 0.0000
# 3 16.4234 7.1432 71.1613 0.0000 0.0000 0.0000
# 4 0.0000 0.0000 0.0000 -5.1306 0.0000 0.0000
# 5 0.0000 0.0000 0.0000 0.0000 18.5868 0.0000
# 6 0.0000 0.0000 0.0000 0.0000 0.0000 38.0059
#
#
#
# Elastic Compliance Matrix: (Units=1/GPa)
#
#
# Indices 1 2 3 4 5 6 
#
# 1 0.014716 -0.001900 -0.003206 0.000000 0.000000 0.000000
# 2 -0.001900 0.010280 -0.000593 0.000000 0.000000 0.000000
# 3 -0.003206 -0.000593 0.014852 0.000000 0.000000 0.000000
# 4 0.000000 0.000000 0.000000 -0.194910 0.000000 0.000000
# 5 0.000000 0.000000 0.000000 0.000000 0.053802 0.000000
# 6 0.000000 0.000000 0.000000 0.000000 0.000000 0.026312
#
#
# Mechanical properties :
#
#
# Convention : Reuss Voigt Hill
#
# Bulk Modulus (GPa) = 35.14952 35.67792 35.41372
# Shear Modulus (GPa) = -92.47748 24.08270 -34.19739
#
# Velocity S-wave (km/s) = -5.76926 2.94412 -3.50832
# Velocity P-wave (km/s) = 5.63278 4.93946 1.91441
#
# Compressibility (1/GPa) = 0.02844989
#
# Stress axis : x y z
#
# Youngs Moduli (GPa) = 67.95354 97.27465 67.33110
#
# Poissons Ratio (x) = 0.18483 0.21584
# Poissons Ratio (y) = 0.12912 0.03995
# Poissons Ratio (z) = 0.21783 0.05772
#
# Static dielectric constant tensor:
#      x y z
#    x 2.292020 0.000000 0.000000 
#    y 0.000000 2.188000 0.000000 
#    z 0.000000 0.000000 2.358840 
# 
# From -- ./inp_files/21196.got.cif
#   From: 2010.05.17/outbox.cif.g08.bks.cpg/sg60_11_cif.got.tgz:21196.got - 2010.06.03 14:59:27.
