data_PCOD9454995
_publ_section_title
;
Structure prediction by ZEFSAII (Michael W. Deem and Ramdas Pophale) SiO2 
 PCOD9454995
Probable space group: P B C N
;
_chemical_formula_sum "Si O2"
_cell_formula_units_Z 64
_cell_length_a 12.542283
_cell_length_b 29.722302
_cell_length_c 9.507080
_cell_angle_alpha 90.000000
_cell_angle_beta 90.000000
_cell_angle_gamma 90.000000
_cell_volume 3544.101791
_symmetry_space_group_name_H-M "P B C N"
_symmetry_group_IT_number 60
_symmetry_cell_setting 'orthorhombic'
loop_
_space_group_symop_operation_xyz
x,y,z
1/2-x,1/2-y,1/2+z
1/2+x,1/2-y,-z
-x,y,1/2-z
-x,-y,-z
1/2+x,1/2+y,1/2-z
1/2-x,1/2+y,z
x,-y,1/2+z
loop_
_atom_site_type_symbol
_atom_site_label
_atom_site_fract_x
_atom_site_fract_y
_atom_site_fract_z
Si Si1 0.726129 0.694926 0.922239
Si Si2 0.383912 0.382652 0.246554
Si Si3 0.980357 0.200775 0.092029
Si Si4 0.394564 0.527604 0.558061
Si Si5 0.559290 0.787948 0.550073
Si Si6 0.341440 0.368003 0.562804
Si Si7 0.163498 0.703831 0.144308
Si Si8 0.629903 0.551070 0.245528
O O1 0.691507 0.653057 0.828685
O O2 0.702409 0.744651 0.863438
O O3 0.644162 0.694481 0.055913
O O4 0.851706 0.693395 0.947029
O O5 0.500000 0.359587 0.250000
O O6 0.405274 0.427931 0.155313
O O7 0.342566 0.389042 0.405991
O O8 0.041602 0.153744 0.081100
O O9 0.000000 0.218218 0.250000
O O10 0.037458 0.235068 0.983193
O O11 0.500000 0.500000 0.500000
O O12 0.338842 0.543150 0.415120
O O13 0.340112 0.491414 0.658630
O O14 0.439012 0.805764 0.545541
O O15 0.613449 0.798586 0.700027
O O16 0.257148 0.328703 0.594289
O O17 0.324842 0.405247 0.680787
O O18 0.500000 0.554922 0.250000
#
# Coordination Sequence:
#
# PCOD9454995 Si02
#       8
#     8   8   8   8   8   8   8   8
#     4  11  23  34  57  80 118 161 211 251 308 362
#     4  12  23  36  57  89 123 167 204 250 306 380
#     4  11  22  34  54  82 115 157 210 256 300 369
#     4  10  21  37  55  86 127 163 195 243 316 382
#     4  10  22  40  55  78 117 164 207 258 312 354
#     4  12  22  37  59  87 122 161 215 251 308 368
#     4  10  23  39  58  79 120 163 212 262 311 355
#     4  10  20  34  57  82 120 157 192 242 306 379
#
# _framework density 18.058173
#
# number of rings (size 3 to 8) (size 9 to 14) (size 15 to 20)
#    0.000    1.250    2.500    5.250    5.250    1.000 
#    0.000    0.000    0.000    0.000    0.000    0.875 
#    0.000    0.000    0.000    0.000    0.000    0.000 
#
# Total GULP energy -356784.681695 kJ/mol
# GULP energy per Si atom -5574.760651 kJ/mol
# Density = 1.801707 g / cm^3
# Si number density = 18.058173 Si / 1000 Ang^3
#
#
#
# Elastic Constant Matrix: (Units=GPa)
#
#
# Indices 1 2 3 4 5 6 
#
# 1 46.0128 25.9086 8.7682 0.0000 0.0000 0.0000
# 2 25.9086 98.5410 40.4057 0.0000 0.0000 0.0000
# 3 8.7682 40.4057 91.3035 0.0000 0.0000 0.0000
# 4 0.0000 0.0000 0.0000 28.9226 0.0000 0.0000
# 5 0.0000 0.0000 0.0000 0.0000 17.7977 0.0000
# 6 0.0000 0.0000 0.0000 0.0000 0.0000 14.1854
#
#
#
# Elastic Compliance Matrix: (Units=1/GPa)
#
#
# Indices 1 2 3 4 5 6 
#
# 1 0.025540 -0.006975 0.000634 0.000000 0.000000 0.000000
# 2 -0.006975 0.014303 -0.005660 0.000000 0.000000 0.000000
# 3 0.000634 -0.005660 0.013396 0.000000 0.000000 0.000000
# 4 0.000000 0.000000 0.000000 0.034575 0.000000 0.000000
# 5 0.000000 0.000000 0.000000 0.000000 0.056187 0.000000
# 6 0.000000 0.000000 0.000000 0.000000 0.000000 0.070495
#
#
# Mechanical properties :
#
#
# Convention : Reuss Voigt Hill
#
# Bulk Modulus (GPa) = 34.20279 42.89137 38.54708
# Shear Modulus (GPa) = 20.14160 22.89946 21.52053
#
# Velocity S-wave (km/s) = 3.34334 3.56489 3.45589
# Velocity P-wave (km/s) = 5.82112 6.38341 6.10874
#
# Compressibility (1/GPa) = 0.02923738
#
# Stress axis : x y z
#
# Youngs Moduli (GPa) = 39.15479 69.91726 74.64769
#
# Poissons Ratio (x) = 0.48767 -0.04733
# Poissons Ratio (y) = 0.27310 0.42248
# Poissons Ratio (z) = -0.02483 0.39571
#
# Static dielectric constant tensor:
#      x y z
#    x 1.614410 0.000000 0.000000 
#    y 0.000000 1.637800 0.000000 
#    z 0.000000 0.000000 1.728320 
# 
# From -- ./inp_files/5336.got.cif
#   From: 2010.05.17/outbox.cif.g08.bks.cpg/sg60_3_cif.got.tgz:5336.got - 2010.06.03 14:59:27.
