data_PCOD9454978
_publ_section_title
;
Structure prediction by ZEFSAII (Michael W. Deem and Ramdas Pophale) SiO2 
 PCOD9454978
Probable space group: P B C N
;
_chemical_formula_sum "Si O2"
_cell_formula_units_Z 64
_cell_length_a 18.023969
_cell_length_b 7.953688
_cell_length_c 19.064067
_cell_angle_alpha 90.000000
_cell_angle_beta 90.000000
_cell_angle_gamma 90.000000
_cell_volume 2732.967948
_symmetry_space_group_name_H-M "P B C N"
_symmetry_group_IT_number 60
_symmetry_cell_setting 'orthorhombic'
loop_
_space_group_symop_operation_xyz
x,y,z
1/2-x,1/2-y,1/2+z
1/2+x,1/2-y,-z
-x,y,1/2-z
-x,-y,-z
1/2+x,1/2+y,1/2-z
1/2-x,1/2+y,z
x,-y,1/2+z
loop_
_atom_site_type_symbol
_atom_site_label
_atom_site_fract_x
_atom_site_fract_y
_atom_site_fract_z
Si Si1 0.809677 0.743868 0.769270
Si Si2 0.141433 0.417829 0.096133
Si Si3 0.913430 0.100332 0.925455
Si Si4 0.210352 0.188965 0.383295
Si Si5 0.140702 0.130416 0.720159
Si Si6 0.364683 0.320497 0.375369
Si Si7 0.720853 0.238019 0.462147
Si Si8 0.533552 0.739556 0.489086
O O1 0.854596 0.624461 0.821809
O O2 0.819366 0.718026 0.686055
O O3 0.721541 0.721045 0.784515
O O4 0.836200 0.933692 0.782684
O O5 0.195792 0.280051 0.059043
O O6 0.181153 0.591533 0.079955
O O7 0.063088 0.392483 0.057608
O O8 0.913702 0.158509 0.845133
O O9 0.826533 0.095255 0.943530
O O10 0.950788 0.224761 0.981843
O O11 0.952204 0.923145 0.939568
O O12 0.299173 0.182729 0.373327
O O13 0.206829 0.287873 0.455988
O O14 0.172373 0.006061 0.387366
O O15 0.105884 0.170161 0.795821
O O16 0.419345 0.282702 0.439069
#
# Coordination Sequence:
#
# PCOD9454978 Si02
#       8
#     8   8   8   8   8   8   8   8
#     4  10  20  34  55  87 117 144 187 238 291 345
#     4  12  22  36  62  88 114 153 194 242 295 346
#     4  11  23  39  57  81 116 154 198 242 285 343
#     4  10  20  34  55  87 117 144 187 238 291 345
#     4  10  20  35  57  86 116 149 189 238 297 348
#     4  10  20  35  57  86 116 149 189 238 297 348
#     4  12  22  36  62  88 114 153 194 242 295 346
#     4  11  23  39  57  81 116 154 198 242 285 343
#
# _framework density 23.417763999999998
#
# number of rings (size 3 to 8) (size 9 to 14) (size 15 to 20)
#    0.000    1.250    5.000    2.250    0.000    1.000 
#    0.000    0.000    0.000    0.750    0.000    0.000 
#    0.000    0.000    0.000    0.000    0.000    0.000 
#
# Total GULP energy -357609.277637 kJ/mol
# GULP energy per Si atom -5587.644963 kJ/mol
# Density = 2.336446 g / cm^3
# Si number density = 23.417764 Si / 1000 Ang^3
#
#
#
# Elastic Constant Matrix: (Units=GPa)
#
#
# Indices 1 2 3 4 5 6 
#
# 1 27.4233 -21.1918 -11.3138 0.0000 0.0000 0.0000
# 2 -21.1918 59.7532 -5.9821 0.0000 0.0000 0.0000
# 3 -11.3138 -5.9821 143.7397 0.0000 0.0000 0.0000
# 4 0.0000 0.0000 0.0000 24.2087 0.0000 0.0000
# 5 0.0000 0.0000 0.0000 0.0000 31.2128 0.0000
# 6 0.0000 0.0000 0.0000 0.0000 0.0000 19.6297
#
#
#
# Elastic Compliance Matrix: (Units=1/GPa)
#
#
# Indices 1 2 3 4 5 6 
#
# 1 0.053630 0.019524 0.005034 0.000000 0.000000 0.000000
# 2 0.019524 0.023913 0.002532 0.000000 0.000000 0.000000
# 3 0.005034 0.002532 0.007459 0.000000 0.000000 0.000000
# 4 0.000000 0.000000 0.000000 0.041308 0.000000 0.000000
# 5 0.000000 0.000000 0.000000 0.000000 0.032038 0.000000
# 6 0.000000 0.000000 0.000000 0.000000 0.000000 0.050943
#
#
# Mechanical properties :
#
#
# Convention : Reuss Voigt Hill
#
# Bulk Modulus (GPa) = 7.18489 17.10451 12.14470
# Shear Modulus (GPa) = 24.81333 32.97050 28.89192
#
# Velocity S-wave (km/s) = 3.25867 3.75631 3.51630
# Velocity P-wave (km/s) = 4.15131 5.11205 4.65652
#
# Compressibility (1/GPa) = 0.13918106
#
# Stress axis : x y z
#
# Youngs Moduli (GPa) = 18.64640 41.81775 134.07331
#
# Poissons Ratio (x) = -0.81645 -0.67489
# Poissons Ratio (y) = -0.36405 -0.33947
# Poissons Ratio (z) = -0.09386 -0.10588
#
# Static dielectric constant tensor:
#      x y z
#    x 1.872220 0.000000 0.000000 
#    y 0.000000 1.925500 0.000000 
#    z 0.000000 0.000000 1.953950 
# 
# From -- ./inp_files/23107.got.cif
#   From: 2010.05.17/outbox.cif.g08.bks.cpg/sg60_12_cif.got.tgz:23107.got - 2010.06.03 14:59:27.
