data_PCOD9454981
_publ_section_title
;
Structure prediction by ZEFSAII (Michael W. Deem and Ramdas Pophale) SiO2 
 PCOD9454981
Probable space group: P B C N
;
_chemical_formula_sum "Si O2"
_cell_formula_units_Z 48
_cell_length_a 14.067472
_cell_length_b 26.376937
_cell_length_c 5.048856
_cell_angle_alpha 90.000000
_cell_angle_beta 90.000000
_cell_angle_gamma 90.000000
_cell_volume 1873.412466
_symmetry_space_group_name_H-M "P B C N"
_symmetry_group_IT_number 60
_symmetry_cell_setting 'orthorhombic'
loop_
_space_group_symop_operation_xyz
x,y,z
1/2-x,1/2-y,1/2+z
1/2+x,1/2-y,-z
-x,y,1/2-z
-x,-y,-z
1/2+x,1/2+y,1/2-z
1/2-x,1/2+y,z
x,-y,1/2+z
loop_
_atom_site_type_symbol
_atom_site_label
_atom_site_fract_x
_atom_site_fract_y
_atom_site_fract_z
Si Si1 0.634821 0.872716 0.296376
Si Si2 0.210950 0.184646 0.406719
Si Si3 0.500000 0.215113 0.750000
Si Si4 0.598135 0.066377 0.273793
Si Si5 0.865968 0.224206 0.600051
Si Si6 0.000000 0.037606 0.250000
Si Si7 0.194284 0.969051 0.893997
O O1 0.734723 0.859839 0.436791
O O2 0.587810 0.821875 0.177084
O O3 0.575269 0.890123 0.553498
O O4 0.626881 0.913354 0.063123
O O5 0.288084 0.230317 0.392141
O O6 0.172189 0.182239 0.110241
O O7 0.130281 0.201349 0.610183
O O8 0.543111 0.249258 0.978004
O O9 0.500000 0.034858 0.250000
O O10 0.695977 0.043976 0.161251
O O11 0.896582 0.064189 0.209343
O O12 0.000000 0.000000 0.500000
O O13 0.183576 0.018497 0.702914
#
# Coordination Sequence:
#
# PCOD9454981 Si02
#       7
#     8   8   4   8   8   4   8
#     4  11  22  37  55  78 114 155 192 237 280 351
#     4   9  18  33  49  71 101 132 178 225 279 324
#     4  10  20  34  56  79 108 144 194 252 286 328
#     4  12  23  37  56  87 119 157 196 225 286 358
#     4   9  18  30  50  75  95 129 175 232 286 329
#     4   8  16  34  60  87 106 134 182 230 276 320
#     4  10  21  38  62  88 118 151 192 245 285 331
#
# _framework density 25.621693
#
# number of rings (size 3 to 8) (size 9 to 14) (size 15 to 20)
#    0.000    2.000    1.667    2.000    0.000    6.667 
#    0.000    0.000    0.000    6.000    0.000    0.000 
#    0.000    0.000    0.000    0.000    0.000    0.000 
#
# Total GULP energy -267799.476935 kJ/mol
# GULP energy per Si atom -5579.155769 kJ/mol
# Density = 2.556338 g / cm^3
# Si number density = 25.621693 Si / 1000 Ang^3
#
#
#
# Elastic Constant Matrix: (Units=GPa)
#
#
# Indices 1 2 3 4 5 6 
#
# 1 145.9608 12.0555 -0.3144 0.0000 0.0000 0.0000
# 2 12.0555 26.0630 7.7510 0.0000 0.0000 0.0000
# 3 -0.3144 7.7510 138.6035 0.0000 0.0000 0.0000
# 4 0.0000 0.0000 0.0000 5.3147 0.0000 0.0000
# 5 0.0000 0.0000 0.0000 0.0000 39.4958 0.0000
# 6 0.0000 0.0000 0.0000 0.0000 0.0000 28.4975
#
#
#
# Elastic Compliance Matrix: (Units=1/GPa)
#
#
# Indices 1 2 3 4 5 6 
#
# 1 0.007129 -0.003358 0.000204 0.000000 0.000000 0.000000
# 2 -0.003358 0.040599 -0.002278 0.000000 0.000000 0.000000
# 3 0.000204 -0.002278 0.007343 0.000000 0.000000 0.000000
# 4 0.000000 0.000000 0.000000 0.188158 0.000000 0.000000
# 5 0.000000 0.000000 0.000000 0.000000 0.025319 0.000000
# 6 0.000000 0.000000 0.000000 0.000000 0.000000 0.035091
#
#
# Mechanical properties :
#
#
# Convention : Reuss Voigt Hill
#
# Bulk Modulus (GPa) = 22.62107 38.84572 30.73339
# Shear Modulus (GPa) = 15.18655 34.07062 24.62859
#
# Velocity S-wave (km/s) = 2.43723 3.65054 3.10375
# Velocity P-wave (km/s) = 4.09489 5.74132 4.98653
#
# Compressibility (1/GPa) = 0.04420658
#
# Stress axis : x y z
#
# Youngs Moduli (GPa) = 140.27291 24.63090 136.19005
#
# Poissons Ratio (x) = 0.08272 -0.02778
# Poissons Ratio (y) = 0.47106 0.31024
# Poissons Ratio (z) = -0.02861 0.05611
#
# Static dielectric constant tensor:
#      x y z
#    x 2.299800 0.000000 0.000000 
#    y 0.000000 2.138460 0.000000 
#    z 0.000000 0.000000 1.988090 
# 
# From -- ./inp_files/1363.got.cif
#   From: 2010.05.17/outbox.cif.g08.bks.cpg/sg60_1_cif.got.tgz:1363.got - 2010.06.03 14:59:27.
