data_PCOD9454711
_publ_section_title
;
Structure prediction by ZEFSAII (Michael W. Deem and Ramdas Pophale) SiO2 
 PCOD9454711
Probable space group: P B C N
;
_chemical_formula_sum "Si O2"
_cell_formula_units_Z 48
_cell_length_a 31.329760
_cell_length_b 8.440423
_cell_length_c 8.689094
_cell_angle_alpha 90.000000
_cell_angle_beta 90.000000
_cell_angle_gamma 90.000000
_cell_volume 2297.712970
_symmetry_space_group_name_H-M "P B C N"
_symmetry_group_IT_number 60
_symmetry_cell_setting 'orthorhombic'
loop_
_space_group_symop_operation_xyz
x,y,z
1/2-x,1/2-y,1/2+z
1/2+x,1/2-y,-z
-x,y,1/2-z
-x,-y,-z
1/2+x,1/2+y,1/2-z
1/2-x,1/2+y,z
x,-y,1/2+z
loop_
_atom_site_type_symbol
_atom_site_label
_atom_site_fract_x
_atom_site_fract_y
_atom_site_fract_z
Si Si1 0.968901 0.577481 0.874758
Si Si2 0.841119 0.396476 0.104344
Si Si3 0.775344 0.338886 0.609379
Si Si4 0.914776 0.348858 0.650052
Si Si5 0.804460 0.835181 0.818344
Si Si6 0.345867 0.330110 0.179995
O O1 0.944114 0.439109 0.778416
O O2 0.000000 0.660397 0.750000
O O3 0.938312 0.679017 0.986799
O O4 0.000000 0.500000 0.000000
O O5 0.878692 0.521418 0.113020
O O6 0.834840 0.307348 0.265266
O O7 0.797901 0.494275 0.072864
O O8 0.850699 0.266650 0.976751
O O9 0.728936 0.364227 0.680076
O O10 0.777268 0.229330 0.460148
O O11 0.806589 0.252498 0.730173
O O12 0.888777 0.201186 0.721117
O O13 0.831910 0.990531 0.849304
#
# Coordination Sequence:
#
# PCOD9454711 Si02
#       6
#     8   8   8   8   8   8
#     4   9  18  34  64 100 128 160 210 250 296 370
#     4  11  23  39  60  85 123 165 203 260 315 359
#     4  11  24  41  61  81 120 163 219 266 302 368
#     4  10  19  37  61  96 132 159 201 257 302 367
#     4  12  25  41  61  87 117 165 216 264 321 371
#     4  11  23  38  59  89 124 163 207 263 322 359
#
# _framework density 20.890339999999998
#
# number of rings (size 3 to 8) (size 9 to 14) (size 15 to 20)
#    0.000    1.333    1.667    5.000    2.333    4.000 
#    0.000    1.667    0.000    0.000    0.000   23.333 
#    0.000    0.000    0.000    0.000    0.000    0.000 
#
# Total GULP energy -268287.185307 kJ/mol
# GULP energy per Si atom -5589.316361 kJ/mol
# Density = 2.084279 g / cm^3
# Si number density = 20.890340 Si / 1000 Ang^3
#
#
#
# Elastic Constant Matrix: (Units=GPa)
#
#
# Indices 1 2 3 4 5 6 
#
# 1 70.4014 19.8325 26.7542 0.0000 0.0000 0.0000
# 2 19.8325 95.5163 23.6000 0.0000 0.0000 0.0000
# 3 26.7542 23.6000 99.9614 0.0000 0.0000 0.0000
# 4 0.0000 0.0000 0.0000 23.3013 0.0000 0.0000
# 5 0.0000 0.0000 0.0000 0.0000 48.5233 0.0000
# 6 0.0000 0.0000 0.0000 0.0000 0.0000 7.5896
#
#
#
# Elastic Compliance Matrix: (Units=1/GPa)
#
#
# Indices 1 2 3 4 5 6 
#
# 1 0.016337 -0.002455 -0.003793 0.000000 0.000000 0.000000
# 2 -0.002455 0.011487 -0.002055 0.000000 0.000000 0.000000
# 3 -0.003793 -0.002055 0.011504 0.000000 0.000000 0.000000
# 4 0.000000 0.000000 0.000000 0.042916 0.000000 0.000000
# 5 0.000000 0.000000 0.000000 0.000000 0.020609 0.000000
# 6 0.000000 0.000000 0.000000 0.000000 0.000000 0.131760
#
#
# Mechanical properties :
#
#
# Convention : Reuss Voigt Hill
#
# Bulk Modulus (GPa) = 44.00912 45.13918 44.57415
# Shear Modulus (GPa) = 19.32047 28.92899 24.12473
#
# Velocity S-wave (km/s) = 3.04444 3.72533 3.40196
# Velocity P-wave (km/s) = 5.78538 6.33709 6.06751
#
# Compressibility (1/GPa) = 0.02272256
#
# Stress axis : x y z
#
# Youngs Moduli (GPa) = 61.20974 87.05590 86.92499
#
# Poissons Ratio (x) = 0.21372 0.32971
# Poissons Ratio (y) = 0.15027 0.17862
# Poissons Ratio (z) = 0.23217 0.17889
#
# Static dielectric constant tensor:
#      x y z
#    x 1.788700 0.000000 0.000000 
#    y 0.000000 1.745780 0.000000 
#    z 0.000000 0.000000 1.822740 
# 
# From -- ./inp_files/8398.got.cif
#   From: 2010.05.17/outbox.cif.g08.bks.cpg/sg60_5_cif.got.tgz:8398.got - 2010.06.03 14:59:27.
