data_PCOD9454379
_publ_section_title
;
Structure prediction by ZEFSAII (Michael W. Deem and Ramdas Pophale) SiO2 
 PCOD9454379
Probable space group: P B C N
;
_chemical_formula_sum "Si O2"
_cell_formula_units_Z 52
_cell_length_a 8.305407
_cell_length_b 18.852023
_cell_length_c 17.743763
_cell_angle_alpha 90.000000
_cell_angle_beta 90.000000
_cell_angle_gamma 90.000000
_cell_volume 2778.207047
_symmetry_space_group_name_H-M "P B C N"
_symmetry_group_IT_number 60
_symmetry_cell_setting 'orthorhombic'
loop_
_space_group_symop_operation_xyz
x,y,z
1/2-x,1/2-y,1/2+z
1/2+x,1/2-y,-z
-x,y,1/2-z
-x,-y,-z
1/2+x,1/2+y,1/2-z
1/2-x,1/2+y,z
x,-y,1/2+z
loop_
_atom_site_type_symbol
_atom_site_label
_atom_site_fract_x
_atom_site_fract_y
_atom_site_fract_z
Si Si1 0.224254 0.528172 0.138842
Si Si2 0.500000 0.895214 0.750000
Si Si3 0.295628 0.316170 0.821142
Si Si4 0.500000 0.565722 0.250000
Si Si5 0.000000 0.692478 0.750000
Si Si6 0.876392 0.276838 0.528436
Si Si7 0.577057 0.116431 0.903229
Si Si8 0.698143 0.144540 0.485761
O O1 0.066498 0.555455 0.183568
O O2 0.365155 0.524185 0.202000
O O3 0.180061 0.454723 0.099247
O O4 0.253791 0.588125 0.075772
O O5 0.642124 0.845063 0.722942
O O6 0.420410 0.380386 0.810351
O O7 0.365695 0.245697 0.783114
O O8 0.243833 0.300146 0.905791
O O9 0.944473 0.644375 0.819039
O O10 0.842632 0.321577 0.452856
O O11 0.842427 0.194480 0.513549
O O12 0.058741 0.302113 0.547370
O O13 0.403535 0.108055 0.945899
#
# Coordination Sequence:
#
# PCOD9454379 Si02
#       8
#     8   4   8   4   4   8   8   8
#     4  11  21  41  59  90 121 169 204 251 315 370
#     4  10  19  32  64  84 117 160 204 248 299 382
#     4  10  19  37  57  90 116 157 208 248 311 362
#     4   9  24  34  66  82 125 162 202 258 307 374
#     4  11  21  38  62  90 124 156 200 268 318 356
#     4  10  21  38  58  92 118 160 203 253 303 370
#     4  10  23  37  63  86 125 158 207 255 309 375
#     4  10  22  36  65  85 122 159 207 257 303 379
#
# _framework density 18.717106000000001
#
# number of rings (size 3 to 8) (size 9 to 14) (size 15 to 20)
#    0.923    0.923    3.077    0.923    8.615    0.000 
#    0.000    3.077    3.385    0.000    0.000    0.000 
#    0.000    0.000    0.000    0.000    0.000    0.000 
#
# Total GULP energy -289732.067173 kJ/mol
# GULP energy per Si atom -5571.770523 kJ/mol
# Density = 1.867451 g / cm^3
# Si number density = 18.717106 Si / 1000 Ang^3
#
#
#
# Elastic Constant Matrix: (Units=GPa)
#
#
# Indices 1 2 3 4 5 6 
#
# 1 49.1320 17.0891 0.9285 0.0000 0.0000 0.0000
# 2 17.0891 64.6082 9.8667 0.0000 0.0000 0.0000
# 3 0.9285 9.8667 82.9342 0.0000 0.0000 0.0000
# 4 0.0000 0.0000 0.0000 15.2112 0.0000 0.0000
# 5 0.0000 0.0000 0.0000 0.0000 26.9025 0.0000
# 6 0.0000 0.0000 0.0000 0.0000 0.0000 32.5992
#
#
#
# Elastic Compliance Matrix: (Units=1/GPa)
#
#
# Indices 1 2 3 4 5 6 
#
# 1 0.022433 -0.006004 0.000463 0.000000 0.000000 0.000000
# 2 -0.006004 0.017371 -0.001999 0.000000 0.000000 0.000000
# 3 0.000463 -0.001999 0.012290 0.000000 0.000000 0.000000
# 4 0.000000 0.000000 0.000000 0.065741 0.000000 0.000000
# 5 0.000000 0.000000 0.000000 0.000000 0.037171 0.000000
# 6 0.000000 0.000000 0.000000 0.000000 0.000000 0.030676
#
#
# Mechanical properties :
#
#
# Convention : Reuss Voigt Hill
#
# Bulk Modulus (GPa) = 27.01706 28.04922 27.53314
# Shear Modulus (GPa) = 23.46298 26.19527 24.82912
#
# Velocity S-wave (km/s) = 3.54440 3.74510 3.64613
# Velocity P-wave (km/s) = 5.58714 5.80684 5.69805
#
# Compressibility (1/GPa) = 0.03701365
#
# Stress axis : x y z
#
# Youngs Moduli (GPa) = 44.57714 57.56582 81.36406
#
# Poissons Ratio (x) = 0.34565 -0.03769
# Poissons Ratio (y) = 0.26766 0.16268
# Poissons Ratio (z) = -0.02065 0.11510
#
# Static dielectric constant tensor:
#      x y z
#    x 1.705950 0.000000 0.000000 
#    y 0.000000 1.641990 0.000000 
#    z 0.000000 0.000000 1.646270 
# 
# From -- ./inp_files/19550.got.cif
#   From: 2010.05.17/outbox.cif.g08.bks.cpg/sg60_10_cif.got.tgz:19550.got - 2010.06.03 14:59:27.
