data_PCOD9454696
_publ_section_title
;
Structure prediction by ZEFSAII (Michael W. Deem and Ramdas Pophale) SiO2 
 PCOD9454696
Probable space group: P B C N
;
_chemical_formula_sum "Si O2"
_cell_formula_units_Z 56
_cell_length_a 14.496499
_cell_length_b 14.284413
_cell_length_c 14.596729
_cell_angle_alpha 90.000000
_cell_angle_beta 90.000000
_cell_angle_gamma 90.000000
_cell_volume 3022.602751
_symmetry_space_group_name_H-M "P B C N"
_symmetry_group_IT_number 60
_symmetry_cell_setting 'orthorhombic'
loop_
_space_group_symop_operation_xyz
x,y,z
1/2-x,1/2-y,1/2+z
1/2+x,1/2-y,-z
-x,y,1/2-z
-x,-y,-z
1/2+x,1/2+y,1/2-z
1/2-x,1/2+y,z
x,-y,1/2+z
loop_
_atom_site_type_symbol
_atom_site_label
_atom_site_fract_x
_atom_site_fract_y
_atom_site_fract_z
Si Si1 0.969425 0.984460 0.649236
Si Si2 0.666447 0.472903 0.399444
Si Si3 0.604002 0.846217 0.745617
Si Si4 0.227473 0.982069 0.805395
Si Si5 0.075423 0.808207 0.408251
Si Si6 0.880222 0.760881 0.439211
Si Si7 0.741798 0.886622 0.031122
O O1 0.950082 0.095847 0.644349
O O2 0.000000 0.953523 0.750000
O O3 0.063319 0.979967 0.588384
O O4 0.864802 0.944203 0.639464
O O5 0.689919 0.479780 0.291730
O O6 0.663191 0.364315 0.428765
O O7 0.740859 0.532211 0.456283
O O8 0.500000 0.890440 0.750000
O O9 0.689711 0.912093 0.719369
O O10 0.596617 0.769153 0.666661
O O11 0.621817 0.791393 0.840538
O O12 0.266331 0.063098 0.871058
O O13 0.163979 0.827908 0.467863
O O14 0.986261 0.778603 0.464281
O O15 0.835484 0.687657 0.507709
#
# Coordination Sequence:
#
# PCOD9454696 Si02
#       7
#     8   8   8   8   8   8   8
#     4   8  15  31  55  79 106 141 186 237 289 329
#     4  10  20  38  59  84 116 149 188 248 298 339
#     4  10  19  37  59  80 112 162 200 230 279 352
#     4  10  20  35  56  85 116 150 192 244 286 344
#     4   9  19  34  55  82 110 146 195 236 276 346
#     4  10  20  37  59  81 115 155 191 238 291 345
#     4  11  22  36  58  92 115 148 201 236 293 352
#
# _framework density 18.527080000000002
#
# number of rings (size 3 to 8) (size 9 to 14) (size 15 to 20)
#    0.000    2.286    1.429    3.857    2.000    5.143 
#    0.000    4.286    0.000    0.000    0.000    0.000 
#    0.000    0.000    0.000    0.000    0.000    0.000 
#
# Total GULP energy -311888.923613 kJ/mol
# GULP energy per Si atom -5569.445065 kJ/mol
# Density = 1.848491 g / cm^3
# Si number density = 18.527080 Si / 1000 Ang^3
#
#
#
# Elastic Constant Matrix: (Units=GPa)
#
#
# Indices 1 2 3 4 5 6 
#
# 1 88.7191 49.2958 13.5875 0.0000 0.0000 0.0000
# 2 49.2958 47.3076 16.8510 0.0000 0.0000 0.0000
# 3 13.5875 16.8510 55.3840 0.0000 0.0000 0.0000
# 4 0.0000 0.0000 0.0000 17.0162 0.0000 0.0000
# 5 0.0000 0.0000 0.0000 0.0000 24.7162 0.0000
# 6 0.0000 0.0000 0.0000 0.0000 0.0000 36.0518
#
#
#
# Elastic Compliance Matrix: (Units=1/GPa)
#
#
# Indices 1 2 3 4 5 6 
#
# 1 0.027004 -0.028912 0.002172 0.000000 0.000000 0.000000
# 2 -0.028912 0.054663 -0.009539 0.000000 0.000000 0.000000
# 3 0.002172 -0.009539 0.020425 0.000000 0.000000 0.000000
# 4 0.000000 0.000000 0.000000 0.058767 0.000000 0.000000
# 5 0.000000 0.000000 0.000000 0.000000 0.040459 0.000000
# 6 0.000000 0.000000 0.000000 0.000000 0.000000 0.027738
#
#
# Mechanical properties :
#
#
# Convention : Reuss Voigt Hill
#
# Bulk Modulus (GPa) = 33.85910 38.98659 36.42285
# Shear Modulus (GPa) = 16.05348 23.00193 19.52770
#
# Velocity S-wave (km/s) = 2.94681 3.52736 3.25007
# Velocity P-wave (km/s) = 5.46748 6.13827 5.81256
#
# Compressibility (1/GPa) = 0.02953415
#
# Stress axis : x y z
#
# Youngs Moduli (GPa) = 37.03209 18.29385 48.95935
#
# Poissons Ratio (x) = 0.52891 -0.10633
# Poissons Ratio (y) = 1.07068 0.46701
# Poissons Ratio (z) = -0.08043 0.17450
#
# Static dielectric constant tensor:
#      x y z
#    x 1.705950 0.000000 0.000000 
#    y 0.000000 1.620200 0.000000 
#    z 0.000000 0.000000 1.670230 
# 
# From -- ./inp_files/16959.got.cif
#   From: 2010.05.17/outbox.cif.g08.bks.cpg/sg60_9_cif.got.tgz:16959.got - 2010.06.03 14:59:27.
