data_PCOD9454639
_publ_section_title
;
Structure prediction by ZEFSAII (Michael W. Deem and Ramdas Pophale) SiO2 
 PCOD9454639
Probable space group: P B C N
;
_chemical_formula_sum "Si O2"
_cell_formula_units_Z 60
_cell_length_a 20.844108
_cell_length_b 9.494243
_cell_length_c 14.990226
_cell_angle_alpha 90.000000
_cell_angle_beta 90.000000
_cell_angle_gamma 90.000000
_cell_volume 2966.551132
_symmetry_space_group_name_H-M "P B C N"
_symmetry_group_IT_number 60
_symmetry_cell_setting 'orthorhombic'
loop_
_space_group_symop_operation_xyz
x,y,z
1/2-x,1/2-y,1/2+z
1/2+x,1/2-y,-z
-x,y,1/2-z
-x,-y,-z
1/2+x,1/2+y,1/2-z
1/2-x,1/2+y,z
x,-y,1/2+z
loop_
_atom_site_type_symbol
_atom_site_label
_atom_site_fract_x
_atom_site_fract_y
_atom_site_fract_z
Si Si1 0.300123 0.608081 0.064749
Si Si2 0.690547 0.685314 0.873632
Si Si3 0.079919 0.525680 0.912765
Si Si4 0.580751 0.304715 0.045449
Si Si5 0.000000 0.427432 0.750000
Si Si6 0.724618 0.990864 0.604699
Si Si7 0.686332 0.302400 0.179266
Si Si8 0.947743 0.732693 0.426817
O O1 0.254130 0.737953 0.089654
O O2 0.302540 0.482565 0.135399
O O3 0.371737 0.651604 0.034237
O O4 0.265254 0.528651 0.982482
O O5 0.677570 0.753310 0.777638
O O6 0.624535 0.709233 0.927077
O O7 0.079595 0.365214 0.948498
O O8 0.154620 0.558927 0.900643
O O9 0.045649 0.519530 0.815674
O O10 0.051680 0.622457 0.990630
O O11 0.619888 0.348623 0.134127
O O12 0.505784 0.341004 0.051840
O O13 0.964018 0.335138 0.828147
O O14 0.715266 0.825359 0.620723
O O15 0.764373 0.069923 0.680001
#
# Coordination Sequence:
#
# PCOD9454639 Si02
#       8
#     8   8   8   8   4   8   8   8
#     4  11  23  38  60  86 121 152 199 250 296 368
#     4  12  23  37  60  92 115 154 204 249 304 362
#     4  10  19  36  59  88 119 159 203 247 303 366
#     4   9  20  38  57  82 115 156 194 244 296 352
#     4  10  20  34  56  90 120 158 204 256 296 364
#     4  10  19  38  57  81 115 157 191 243 303 354
#     4  10  21  36  59  83 118 152 199 249 304 354
#     4  11  21  36  62  87 121 161 206 247 306 368
#
# _framework density 20.225507
#
# number of rings (size 3 to 8) (size 9 to 14) (size 15 to 20)
#    0.000    1.600    1.333    7.200    0.000    0.533 
#    2.400    0.000    0.000    0.000    0.000    0.000 
#    0.000    0.000    0.000    0.000    0.000    0.000 
#
# Total GULP energy -334124.876415 kJ/mol
# GULP energy per Si atom -5568.747940 kJ/mol
# Density = 2.017947 g / cm^3
# Si number density = 20.225507 Si / 1000 Ang^3
#
#
#
# Elastic Constant Matrix: (Units=GPa)
#
#
# Indices 1 2 3 4 5 6 
#
# 1 102.2213 10.6858 25.3795 0.0000 0.0000 0.0000
# 2 10.6858 38.7733 17.8860 0.0000 0.0000 0.0000
# 3 25.3795 17.8860 91.3496 0.0000 0.0000 0.0000
# 4 0.0000 0.0000 0.0000 21.4101 0.0000 0.0000
# 5 0.0000 0.0000 0.0000 0.0000 12.9433 0.0000
# 6 0.0000 0.0000 0.0000 0.0000 0.0000 25.7702
#
#
#
# Elastic Compliance Matrix: (Units=1/GPa)
#
#
# Indices 1 2 3 4 5 6 
#
# 1 0.010611 -0.001720 -0.002611 0.000000 0.000000 0.000000
# 2 -0.001720 0.028630 -0.005128 0.000000 0.000000 0.000000
# 3 -0.002611 -0.005128 0.012676 0.000000 0.000000 0.000000
# 4 0.000000 0.000000 0.000000 0.046707 0.000000 0.000000
# 5 0.000000 0.000000 0.000000 0.000000 0.077260 0.000000
# 6 0.000000 0.000000 0.000000 0.000000 0.000000 0.038805
#
#
# Mechanical properties :
#
#
# Convention : Reuss Voigt Hill
#
# Bulk Modulus (GPa) = 30.30323 37.80519 34.05421
# Shear Modulus (GPa) = 20.44096 23.91757 22.17927
#
# Velocity S-wave (km/s) = 3.18253 3.44255 3.31509
# Velocity P-wave (km/s) = 5.34040 5.87656 5.61488
#
# Compressibility (1/GPa) = 0.03299979
#
# Stress axis : x y z
#
# Youngs Moduli (GPa) = 94.24362 34.92787 78.88627
#
# Poissons Ratio (x) = 0.06007 0.20599
# Poissons Ratio (y) = 0.16207 0.40453
# Poissons Ratio (z) = 0.24609 0.17911
#
# Static dielectric constant tensor:
#      x y z
#    x 1.800090 0.000000 0.000000 
#    y 0.000000 1.748810 0.000000 
#    z 0.000000 0.000000 1.813320 
# 
# From -- ./inp_files/17465.got.cif
#   From: 2010.05.17/outbox.cif.g08.bks.cpg/sg60_9_cif.got.tgz:17465.got - 2010.06.03 14:59:27.
