data_PCOD9454607
_publ_section_title
;
Structure prediction by ZEFSAII (Michael W. Deem and Ramdas Pophale) SiO2 
 PCOD9454607
Probable space group: P B C N
;
_chemical_formula_sum "Si O2"
_cell_formula_units_Z 40
_cell_length_a 16.059680
_cell_length_b 11.869423
_cell_length_c 7.953588
_cell_angle_alpha 90.000000
_cell_angle_beta 90.000000
_cell_angle_gamma 90.000000
_cell_volume 1516.106066
_symmetry_space_group_name_H-M "P B C N"
_symmetry_group_IT_number 60
_symmetry_cell_setting 'orthorhombic'
loop_
_space_group_symop_operation_xyz
x,y,z
1/2-x,1/2-y,1/2+z
1/2+x,1/2-y,-z
-x,y,1/2-z
-x,-y,-z
1/2+x,1/2+y,1/2-z
1/2-x,1/2+y,z
x,-y,1/2+z
loop_
_atom_site_type_symbol
_atom_site_label
_atom_site_fract_x
_atom_site_fract_y
_atom_site_fract_z
Si Si1 0.568048 0.638918 0.622050
Si Si2 0.706949 0.128851 0.385854
Si Si3 0.118408 0.083826 0.194942
Si Si4 0.096627 0.338610 0.303776
Si Si5 0.806895 0.666626 0.007599
O O1 0.500000 0.682983 0.750000
O O2 0.606728 0.530904 0.710093
O O3 0.542243 0.599253 0.436097
O O4 0.626897 0.741474 0.574886
O O5 0.796546 0.069193 0.416841
O O6 0.630569 0.115931 0.516948
O O7 0.704797 0.106565 0.185010
O O8 0.732255 0.260836 0.424951
O O9 0.119288 0.204010 0.290619
O O10 0.000000 0.353294 0.250000
O O11 0.150474 0.393119 0.151156
#
# Coordination Sequence:
#
# PCOD9454607 Si02
#       5
#     8   8   8   8   8
#     4  10  21  33  51  83 120 150 181 219 290 350
#     4  10  19  36  54  74 113 150 196 227 275 329
#     4  10  22  34  52  83 111 159 182 228 280 340
#     4  10  21  34  53  82 111 143 191 237 278 327
#     4  10  21  34  55  80 111 158 185 233 272 337
#
# _framework density 26.383379999999999
#
# number of rings (size 3 to 8) (size 9 to 14) (size 15 to 20)
#    0.000    2.400    4.000    1.200    8.400    0.000 
#    0.000    0.000    0.000    0.000    0.000    5.600 
#    0.000    0.200    0.000    0.000    0.000    0.000 
#
# Total GULP energy -222972.836400 kJ/mol
# GULP energy per Si atom -5574.320910 kJ/mol
# Density = 2.632333 g / cm^3
# Si number density = 26.383380 Si / 1000 Ang^3
#
#
#
# Elastic Constant Matrix: (Units=GPa)
#
#
# Indices 1 2 3 4 5 6 
#
# 1 85.2826 -13.4164 18.5645 0.0000 0.0000 0.0000
# 2 -13.4164 53.4791 -2.1249 0.0000 0.0000 0.0000
# 3 18.5645 -2.1249 109.5763 0.0000 0.0000 0.0000
# 4 0.0000 0.0000 0.0000 22.4909 0.0000 0.0000
# 5 0.0000 0.0000 0.0000 0.0000 62.2831 0.0000
# 6 0.0000 0.0000 0.0000 0.0000 0.0000 15.9275
#
#
#
# Elastic Compliance Matrix: (Units=1/GPa)
#
#
# Indices 1 2 3 4 5 6 
#
# 1 0.012667 0.003095 -0.002086 0.000000 0.000000 0.000000
# 2 0.003095 0.019469 -0.000147 0.000000 0.000000 0.000000
# 3 -0.002086 -0.000147 0.009477 0.000000 0.000000 0.000000
# 4 0.000000 0.000000 0.000000 0.044462 0.000000 0.000000
# 5 0.000000 0.000000 0.000000 0.000000 0.016056 0.000000
# 6 0.000000 0.000000 0.000000 0.000000 0.000000 0.062784
#
#
# Mechanical properties :
#
#
# Convention : Reuss Voigt Hill
#
# Bulk Modulus (GPa) = 23.07501 28.26494 25.66997
# Shear Modulus (GPa) = 28.14732 36.49462 32.32097
#
# Velocity S-wave (km/s) = 3.26982 3.72323 3.50387
# Velocity P-wave (km/s) = 4.79799 5.40552 5.11079
#
# Compressibility (1/GPa) = 0.04333692
#
# Stress axis : x y z
#
# Youngs Moduli (GPa) = 78.94735 51.36242 105.52284
#
# Poissons Ratio (x) = -0.15896 0.22012
# Poissons Ratio (y) = -0.24433 0.01549
# Poissons Ratio (z) = 0.16468 0.00754
#
# Static dielectric constant tensor:
#      x y z
#    x 2.183280 0.000000 0.000000 
#    y 0.000000 2.134060 0.000000 
#    z 0.000000 0.000000 2.295790 
# 
# From -- ./inp_files/5778.got.cif
#   From: 2010.05.17/outbox.cif.g08.bks.cpg/sg60_3_cif.got.tgz:5778.got - 2010.06.03 14:59:27.
