data_PCOD9454423
_publ_section_title
;
Structure prediction by ZEFSAII (Michael W. Deem and Ramdas Pophale) SiO2 
 PCOD9454423
Probable space group: P B C N
;
_chemical_formula_sum "Si O2"
_cell_formula_units_Z 60
_cell_length_a 18.078069
_cell_length_b 28.286205
_cell_length_c 5.358309
_cell_angle_alpha 90.000000
_cell_angle_beta 90.000000
_cell_angle_gamma 90.000000
_cell_volume 2740.024707
_symmetry_space_group_name_H-M "P B C N"
_symmetry_group_IT_number 60
_symmetry_cell_setting 'orthorhombic'
loop_
_space_group_symop_operation_xyz
x,y,z
1/2-x,1/2-y,1/2+z
1/2+x,1/2-y,-z
-x,y,1/2-z
-x,-y,-z
1/2+x,1/2+y,1/2-z
1/2-x,1/2+y,z
x,-y,1/2+z
loop_
_atom_site_type_symbol
_atom_site_label
_atom_site_fract_x
_atom_site_fract_y
_atom_site_fract_z
Si Si1 0.410344 0.178723 0.097056
Si Si2 0.244309 0.875376 0.139812
Si Si3 0.089710 0.377487 0.121862
Si Si4 0.500000 0.734975 0.750000
Si Si5 0.734931 0.791724 0.731104
Si Si6 0.736468 0.526993 0.098560
Si Si7 0.583942 0.024409 0.099967
Si Si8 0.848917 0.196331 0.576948
O O1 0.416083 0.157871 0.379757
O O2 0.454007 0.228038 0.079740
O O3 0.322465 0.187808 0.064136
O O4 0.437478 0.144950 0.879756
O O5 0.326186 0.892595 0.216213
O O6 0.214968 0.918900 0.971309
O O7 0.183671 0.853634 0.327847
O O8 0.268969 0.828994 0.988391
O O9 0.059382 0.425690 0.010436
O O10 0.434887 0.704851 0.876759
O O11 0.699627 0.740585 0.687368
O O12 0.821188 0.795258 0.796394
O O13 0.712091 0.493468 0.867031
O O14 0.825940 0.525870 0.110337
O O15 0.564138 0.986576 0.885473
#
# Coordination Sequence:
#
# PCOD9454423 Si02
#       8
#     8   8   8   4   8   8   8   8
#     4  10  21  38  54  83 112 159 195 243 281 355
#     4  10  20  32  57  84 114 160 200 246 293 362
#     4  10  19  33  57  81 113 153 200 235 291 354
#     4  10  26  40  56  86 124 154 200 248 308 340
#     4  10  20  33  59  82 115 154 208 236 298 357
#     4   9  19  31  48  80 121 151 186 242 306 349
#     4   9  16  27  46  79 114 142 178 241 300 341
#     4  11  20  39  55  87 119 162 200 254 295 368
#
# _framework density 21.897611000000001
#
# number of rings (size 3 to 8) (size 9 to 14) (size 15 to 20)
#    0.000    2.133    2.667    0.800    1.867    3.733 
#    2.400    0.000    0.000    0.000    0.000   10.267 
#    0.000    6.400    0.000    0.533    0.000    0.000 
#
# Total GULP energy -334259.422776 kJ/mol
# GULP energy per Si atom -5570.990380 kJ/mol
# Density = 2.184777 g / cm^3
# Si number density = 21.897611 Si / 1000 Ang^3
#
#
#
# Elastic Constant Matrix: (Units=GPa)
#
#
# Indices 1 2 3 4 5 6 
#
# 1 85.8963 6.4342 11.8817 0.0000 0.0000 0.0000
# 2 6.4342 74.9090 18.8898 0.0000 0.0000 0.0000
# 3 11.8817 18.8898 81.6114 0.0000 0.0000 0.0000
# 4 0.0000 0.0000 0.0000 49.9438 0.0000 0.0000
# 5 0.0000 0.0000 0.0000 0.0000 18.3697 0.0000
# 6 0.0000 0.0000 0.0000 0.0000 0.0000 25.7756
#
#
#
# Elastic Compliance Matrix: (Units=1/GPa)
#
#
# Indices 1 2 3 4 5 6 
#
# 1 0.011908 -0.000622 -0.001590 0.000000 0.000000 0.000000
# 2 -0.000622 0.014209 -0.003198 0.000000 0.000000 0.000000
# 3 -0.001590 -0.003198 0.013225 0.000000 0.000000 0.000000
# 4 0.000000 0.000000 0.000000 0.020023 0.000000 0.000000
# 5 0.000000 0.000000 0.000000 0.000000 0.054438 0.000000
# 6 0.000000 0.000000 0.000000 0.000000 0.000000 0.038796
#
#
# Mechanical properties :
#
#
# Convention : Reuss Voigt Hill
#
# Bulk Modulus (GPa) = 35.05990 35.20314 35.13152
# Shear Modulus (GPa) = 28.91392 32.49855 30.70623
#
# Velocity S-wave (km/s) = 3.63769 3.85660 3.74874
# Velocity P-wave (km/s) = 5.80425 5.99519 5.90049
#
# Compressibility (1/GPa) = 0.02852262
#
# Stress axis : x y z
#
# Youngs Moduli (GPa) = 83.97410 70.37550 75.61470
#
# Poissons Ratio (x) = 0.04377 0.12021
# Poissons Ratio (y) = 0.05223 0.24185
# Poissons Ratio (z) = 0.13350 0.22509
#
# Static dielectric constant tensor:
#      x y z
#    x 2.641650 0.000000 0.000000 
#    y 0.000000 1.703000 0.000000 
#    z 0.000000 0.000000 1.945180 
# 
# From -- ./inp_files/1897.got.cif
#   From: 2010.05.17/outbox.cif.g08.bks.cpg/sg60_1_cif.got.tgz:1897.got - 2010.06.03 14:59:27.
