data_PCOD9454444
_publ_section_title
;
Structure prediction by ZEFSAII (Michael W. Deem and Ramdas Pophale) SiO2 
 PCOD9454444
Probable space group: P B C N
;
_chemical_formula_sum "Si O2"
_cell_formula_units_Z 40
_cell_length_a 14.766582
_cell_length_b 11.416048
_cell_length_c 9.048122
_cell_angle_alpha 90.000000
_cell_angle_beta 90.000000
_cell_angle_gamma 90.000000
_cell_volume 1525.296295
_symmetry_space_group_name_H-M "P B C N"
_symmetry_group_IT_number 60
_symmetry_cell_setting 'orthorhombic'
loop_
_space_group_symop_operation_xyz
x,y,z
1/2-x,1/2-y,1/2+z
1/2+x,1/2-y,-z
-x,y,1/2-z
-x,-y,-z
1/2+x,1/2+y,1/2-z
1/2-x,1/2+y,z
x,-y,1/2+z
loop_
_atom_site_type_symbol
_atom_site_label
_atom_site_fract_x
_atom_site_fract_y
_atom_site_fract_z
Si Si1 0.898143 0.530809 0.696714
Si Si2 0.362066 0.557467 0.413785
Si Si3 0.841440 0.239582 0.355182
Si Si4 0.519093 0.674182 0.594777
Si Si5 0.799367 0.417070 0.926996
O O1 0.845381 0.640943 0.768800
O O2 0.837186 0.426952 0.761363
O O3 0.886686 0.554074 0.524796
O O4 0.000000 0.528610 0.750000
O O5 0.350693 0.633755 0.264301
O O6 0.426500 0.632126 0.520701
O O7 0.420230 0.441436 0.371896
O O8 0.276072 0.506800 0.505038
O O9 0.923579 0.240954 0.470995
O O10 0.749610 0.207827 0.441047
O O11 0.500000 0.735680 0.750000
#
# Coordination Sequence:
#
# PCOD9454444 Si02
#       5
#     8   8   8   8   8
#     4  12  27  49  71 100 140 192 237 291 349 419
#     4  10  19  37  62  99 142 174 221 276 349 411
#     4  11  24  43  69 106 137 180 231 289 351 418
#     4  10  19  33  64 103 143 176 212 282 353 415
#     4  11  25  45  71 100 139 185 234 291 347 417
#
# _framework density 26.224411
#
# number of rings (size 3 to 8) (size 9 to 14) (size 15 to 20)
#    0.000    1.200    2.000    6.000    5.600    0.000 
#    0.000    5.000    0.000    0.000    0.000    0.000 
#    0.000    0.000    0.000    0.000    0.000    0.000 
#
# Total GULP energy -224096.228569 kJ/mol
# GULP energy per Si atom -5602.405714 kJ/mol
# Density = 2.616472 g / cm^3
# Si number density = 26.224411 Si / 1000 Ang^3
#
#
#
# Elastic Constant Matrix: (Units=GPa)
#
#
# Indices 1 2 3 4 5 6 
#
# 1 113.5109 17.1029 14.3772 0.0000 0.0000 0.0000
# 2 17.1029 45.2842 -8.1396 0.0000 0.0000 0.0000
# 3 14.3772 -8.1396 107.6883 0.0000 0.0000 0.0000
# 4 0.0000 0.0000 0.0000 25.1015 0.0000 0.0000
# 5 0.0000 0.0000 0.0000 0.0000 34.0778 0.0000
# 6 0.0000 0.0000 0.0000 0.0000 0.0000 26.1247
#
#
#
# Elastic Compliance Matrix: (Units=1/GPa)
#
#
# Indices 1 2 3 4 5 6 
#
# 1 0.009598 -0.003909 -0.001577 0.000000 0.000000 0.000000
# 2 -0.003909 0.023979 0.002334 0.000000 0.000000 0.000000
# 3 -0.001577 0.002334 0.009673 0.000000 0.000000 0.000000
# 4 0.000000 0.000000 0.000000 0.039838 0.000000 0.000000
# 5 0.000000 0.000000 0.000000 0.000000 0.029345 0.000000
# 6 0.000000 0.000000 0.000000 0.000000 0.000000 0.038278
#
#
# Mechanical properties :
#
#
# Convention : Reuss Voigt Hill
#
# Bulk Modulus (GPa) = 27.06542 34.79605 30.93073
# Shear Modulus (GPa) = 29.52833 33.27032 31.39933
#
# Velocity S-wave (km/s) = 3.35921 3.56571 3.46400
# Velocity P-wave (km/s) = 5.03873 5.49998 5.27440
#
# Compressibility (1/GPa) = 0.03694751
#
# Stress axis : x y z
#
# Youngs Moduli (GPa) = 104.18445 41.70400 103.38036
#
# Poissons Ratio (x) = 0.16300 0.16302
# Poissons Ratio (y) = 0.40721 -0.24131
# Poissons Ratio (z) = 0.16429 -0.09735
#
# Static dielectric constant tensor:
#      x y z
#    x 2.040020 0.000000 0.000000 
#    y 0.000000 2.047100 0.000000 
#    z 0.000000 0.000000 2.114380 
# 
# From -- ./inp_files/5673.got.cif
#   From: 2010.05.17/outbox.cif.g08.bks.cpg/sg60_3_cif.got.tgz:5673.got - 2010.06.03 14:59:27.
