data_PCOD9454636
_publ_section_title
;
Structure prediction by ZEFSAII (Michael W. Deem and Ramdas Pophale) SiO2 
 PCOD9454636
Probable space group: P B C N
;
_chemical_formula_sum "Si O2"
_cell_formula_units_Z 64
_cell_length_a 10.394400
_cell_length_b 29.744510
_cell_length_c 9.672888
_cell_angle_alpha 90.000000
_cell_angle_beta 90.000000
_cell_angle_gamma 90.000000
_cell_volume 2990.628058
_symmetry_space_group_name_H-M "P B C N"
_symmetry_group_IT_number 60
_symmetry_cell_setting 'orthorhombic'
loop_
_space_group_symop_operation_xyz
x,y,z
1/2-x,1/2-y,1/2+z
1/2+x,1/2-y,-z
-x,y,1/2-z
-x,-y,-z
1/2+x,1/2+y,1/2-z
1/2-x,1/2+y,z
x,-y,1/2+z
loop_
_atom_site_type_symbol
_atom_site_label
_atom_site_fract_x
_atom_site_fract_y
_atom_site_fract_z
Si Si1 0.391529 0.411469 0.939494
Si Si2 0.379469 0.972788 0.331656
Si Si3 0.222489 0.007797 0.567638
Si Si4 0.175745 0.096143 0.128515
Si Si5 0.123779 0.763438 0.166563
Si Si6 0.145068 0.627621 0.915574
Si Si7 0.630351 0.367084 0.302086
Si Si8 0.614813 0.771823 0.149725
O O1 0.329794 0.403926 0.792302
O O2 0.534740 0.391127 0.929052
O O3 0.385009 0.462935 0.989721
O O4 0.312999 0.388230 0.060456
O O5 0.500000 0.991916 0.250000
O O6 0.339750 0.004357 0.458477
O O7 0.411949 0.921676 0.380861
O O8 0.264789 0.973141 0.217056
O O9 0.188095 0.955830 0.585635
O O10 0.293593 0.124218 0.067934
O O11 0.098055 0.816596 0.155914
O O12 0.254015 0.762120 0.261457
O O13 0.000000 0.743774 0.250000
O O14 0.131882 0.746569 0.007545
O O15 0.270471 0.630374 0.819629
O O16 0.080817 0.675100 0.880455
O O17 0.500000 0.390620 0.250000
O O18 0.500000 0.754287 0.250000
#
# Coordination Sequence:
#
# PCOD9454636 Si02
#       8
#     8   8   8   8   8   8   8   8
#     4  11  20  35  56  84 120 152 194 246 309 368
#     4  11  22  37  57  77 106 158 203 253 297 360
#     4  11  21  37  54  79 116 147 199 251 302 356
#     4  10  22  35  53  89 118 155 195 249 306 365
#     4  10  23  42  68 100 134 167 217 266 330 392
#     4  10  21  38  61  82 120 156 209 248 305 373
#     4  10  19  36  59  87 115 157 193 245 307 372
#     4  11  23  43  69  98 132 174 216 266 328 393
#
# _framework density 21.400188
#
# number of rings (size 3 to 8) (size 9 to 14) (size 15 to 20)
#    0.000    1.500    3.750    1.875    0.000    1.000 
#    4.500    0.000    0.000    0.000    0.000    0.000 
#    0.000    0.000    0.000    0.000    0.000    0.000 
#
# Total GULP energy -356571.752842 kJ/mol
# GULP energy per Si atom -5571.433638 kJ/mol
# Density = 2.135148 g / cm^3
# Si number density = 21.400188 Si / 1000 Ang^3
#
#
#
# Elastic Constant Matrix: (Units=GPa)
#
#
# Indices 1 2 3 4 5 6 
#
# 1 46.5905 1.4898 27.3999 0.0000 0.0000 0.0000
# 2 1.4898 36.9804 17.6117 0.0000 0.0000 0.0000
# 3 27.3999 17.6117 152.1159 0.0000 0.0000 0.0000
# 4 0.0000 0.0000 0.0000 43.1166 0.0000 0.0000
# 5 0.0000 0.0000 0.0000 0.0000 30.0983 0.0000
# 6 0.0000 0.0000 0.0000 0.0000 0.0000 26.7446
#
#
#
# Elastic Compliance Matrix: (Units=1/GPa)
#
#
# Indices 1 2 3 4 5 6 
#
# 1 0.024053 0.001158 -0.004467 0.000000 0.000000 0.000000
# 2 0.001158 0.028675 -0.003529 0.000000 0.000000 0.000000
# 3 -0.004467 -0.003529 0.007787 0.000000 0.000000 0.000000
# 4 0.000000 0.000000 0.000000 0.023193 0.000000 0.000000
# 5 0.000000 0.000000 0.000000 0.000000 0.033225 0.000000
# 6 0.000000 0.000000 0.000000 0.000000 0.000000 0.037391
#
#
# Mechanical properties :
#
#
# Convention : Reuss Voigt Hill
#
# Bulk Modulus (GPa) = 21.34859 36.52109 28.93484
# Shear Modulus (GPa) = 27.23136 32.60425 29.91781
#
# Velocity S-wave (km/s) = 3.57106 3.90750 3.74306
# Velocity P-wave (km/s) = 5.19623 6.12053 5.67722
#
# Compressibility (1/GPa) = 0.04684150
#
# Stress axis : x y z
#
# Youngs Moduli (GPa) = 41.57407 34.87339 128.41845
#
# Poissons Ratio (x) = -0.04039 0.57361
# Poissons Ratio (y) = -0.04815 0.45314
# Poissons Ratio (z) = 0.18570 0.12305
#
# Static dielectric constant tensor:
#      x y z
#    x 1.832010 0.000000 0.000000 
#    y 0.000000 1.833180 0.000000 
#    z 0.000000 0.000000 2.064890 
# 
# From -- ./inp_files/5346.got.cif
#   From: 2010.05.17/outbox.cif.g08.bks.cpg/sg60_3_cif.got.tgz:5346.got - 2010.06.03 14:59:27.
