data_PCOD9454678
_publ_section_title
;
Structure prediction by ZEFSAII (Michael W. Deem and Ramdas Pophale) SiO2 
 PCOD9454678
Probable space group: P B C N
;
_chemical_formula_sum "Si O2"
_cell_formula_units_Z 56
_cell_length_a 28.109737
_cell_length_b 5.389504
_cell_length_c 15.257688
_cell_angle_alpha 90.000000
_cell_angle_beta 90.000000
_cell_angle_gamma 90.000000
_cell_volume 2311.502198
_symmetry_space_group_name_H-M "P B C N"
_symmetry_group_IT_number 60
_symmetry_cell_setting 'orthorhombic'
loop_
_space_group_symop_operation_xyz
x,y,z
1/2-x,1/2-y,1/2+z
1/2+x,1/2-y,-z
-x,y,1/2-z
-x,-y,-z
1/2+x,1/2+y,1/2-z
1/2-x,1/2+y,z
x,-y,1/2+z
loop_
_atom_site_type_symbol
_atom_site_label
_atom_site_fract_x
_atom_site_fract_y
_atom_site_fract_z
Si Si1 0.898711 0.461380 0.272588
Si Si2 0.772105 0.739666 0.561558
Si Si3 0.234731 0.128536 0.135870
Si Si4 0.945285 0.050437 0.028254
Si Si5 0.446925 0.444048 0.272801
Si Si6 0.869695 0.566301 0.583487
Si Si7 0.864706 0.216773 0.430410
O O1 0.936763 0.681802 0.272701
O O2 0.869906 0.511894 0.184310
O O3 0.874456 0.447713 0.365952
O O4 0.915766 0.177386 0.257891
O O5 0.754029 0.478798 0.599274
O O6 0.759407 0.695993 0.458205
O O7 0.828601 0.770570 0.571637
O O8 0.241400 0.394489 0.181570
O O9 0.179439 0.081590 0.114412
O O10 0.920932 0.319848 0.051831
O O11 0.940689 0.915668 0.122589
O O12 0.911541 0.939388 0.952924
O O13 0.000000 0.000000 0.000000
O O14 0.500000 0.520794 0.250000
O O15 0.852650 0.343323 0.522407
#
# Coordination Sequence:
#
# PCOD9454678 Si02
#       7
#     8   8   8   8   8   8   8
#     4  11  27  43  65 100 134 178 224 279 342 397
#     4  10  19  36  66  94 127 173 217 267 340 393
#     4  10  20  36  64  97 128 170 219 273 335 392
#     4  11  25  42  70 101 132 184 237 279 345 414
#     4  11  24  47  64  94 138 174 225 293 334 398
#     4  11  24  44  68  97 138 179 223 282 340 403
#     4  12  24  42  72  96 137 182 228 281 338 411
#
# _framework density 24.226672000000001
#
# number of rings (size 3 to 8) (size 9 to 14) (size 15 to 20)
#    0.000    1.143    4.286    3.000    4.000    1.714 
#    0.000    1.429    0.000    0.000    0.000    0.000 
#    0.000    0.000    0.000    0.000    0.000    0.000 
#
# Total GULP energy -312737.513226 kJ/mol
# GULP energy per Si atom -5584.598450 kJ/mol
# Density = 2.417153 g / cm^3
# Si number density = 24.226672 Si / 1000 Ang^3
#
#
#
# Elastic Constant Matrix: (Units=GPa)
#
#
# Indices 1 2 3 4 5 6 
#
# 1 112.8513 24.0888 -9.1835 0.0000 0.0000 0.0000
# 2 24.0888 119.2657 7.3693 0.0000 0.0000 0.0000
# 3 -9.1835 7.3693 64.0867 0.0000 0.0000 0.0000
# 4 0.0000 0.0000 0.0000 18.3404 0.0000 0.0000
# 5 0.0000 0.0000 0.0000 0.0000 8.5883 0.0000
# 6 0.0000 0.0000 0.0000 0.0000 0.0000 15.3916
#
#
#
# Elastic Compliance Matrix: (Units=1/GPa)
#
#
# Indices 1 2 3 4 5 6 
#
# 1 0.009417 -0.001999 0.001579 0.000000 0.000000 0.000000
# 2 -0.001999 0.008869 -0.001306 0.000000 0.000000 0.000000
# 3 0.001579 -0.001306 0.015980 0.000000 0.000000 0.000000
# 4 0.000000 0.000000 0.000000 0.054525 0.000000 0.000000
# 5 0.000000 0.000000 0.000000 0.000000 0.116437 0.000000
# 6 0.000000 0.000000 0.000000 0.000000 0.000000 0.064971
#
#
# Mechanical properties :
#
#
# Convention : Reuss Voigt Hill
#
# Bulk Modulus (GPa) = 32.45389 37.86146 35.15768
# Shear Modulus (GPa) = 17.61045 26.72599 22.16822
#
# Velocity S-wave (km/s) = 2.69904 3.32499 3.02823
# Velocity P-wave (km/s) = 4.81021 5.51387 5.17401
#
# Compressibility (1/GPa) = 0.03081294
#
# Stress axis : x y z
#
# Youngs Moduli (GPa) = 106.19612 112.74959 62.57664
#
# Poissons Ratio (x) = 0.22544 -0.09883
# Poissons Ratio (y) = 0.21234 0.08175
# Poissons Ratio (z) = -0.16771 0.14730
#
# Static dielectric constant tensor:
#      x y z
#    x 1.974160 0.000000 0.000000 
#    y 0.000000 2.050260 0.000000 
#    z 0.000000 0.000000 1.954730 
# 
# From -- ./inp_files/18185.got.cif
#   From: 2010.05.17/outbox.cif.g08.bks.cpg/sg60_10_cif.got.tgz:18185.got - 2010.06.03 14:59:27.
