data_PCOD9454270
_publ_section_title
;
Structure prediction by ZEFSAII (Michael W. Deem and Ramdas Pophale) SiO2 
 PCOD9454270
Probable space group: P B C N
;
_chemical_formula_sum "Si O2"
_cell_formula_units_Z 56
_cell_length_a 5.440768
_cell_length_b 27.261868
_cell_length_c 15.379689
_cell_angle_alpha 90.000000
_cell_angle_beta 90.000000
_cell_angle_gamma 90.000000
_cell_volume 2281.200046
_symmetry_space_group_name_H-M "P B C N"
_symmetry_group_IT_number 60
_symmetry_cell_setting 'orthorhombic'
loop_
_space_group_symop_operation_xyz
x,y,z
1/2-x,1/2-y,1/2+z
1/2+x,1/2-y,-z
-x,y,1/2-z
-x,-y,-z
1/2+x,1/2+y,1/2-z
1/2-x,1/2+y,z
x,-y,1/2+z
loop_
_atom_site_type_symbol
_atom_site_label
_atom_site_fract_x
_atom_site_fract_y
_atom_site_fract_z
Si Si1 0.610851 0.355220 0.417457
Si Si2 0.828997 0.250673 0.942185
Si Si3 0.253276 0.540741 0.716227
Si Si4 0.130132 0.357894 0.628715
Si Si5 0.133265 0.887938 0.888461
Si Si6 0.861553 0.002263 0.113167
Si Si7 0.109836 0.596661 0.934701
O O1 0.663289 0.300100 0.389035
O O2 0.612347 0.355175 0.523633
O O3 0.338841 0.373300 0.394381
O O4 0.840933 0.390873 0.394348
O O5 0.835890 0.300040 0.885798
O O6 0.077995 0.250881 0.000976
O O7 0.500000 0.568807 0.750000
O O8 0.257779 0.495969 0.788332
O O9 0.000000 0.563888 0.750000
O O10 0.356489 0.516143 0.627723
O O11 0.378769 0.381831 0.660841
O O12 0.100087 0.383746 0.532869
O O13 0.865058 0.370195 0.665980
O O14 0.152780 0.943720 0.922726
O O15 0.699903 0.959640 0.069249
#
# Coordination Sequence:
#
# PCOD9454270 Si02
#       7
#     8   8   8   8   8   8   8
#     4  10  20  29  44  71 100 127 173 179 235 271
#     4  12  16  32  46  60  96 144 150 210 216 258
#     4   8  20  36  48  70  80 126 158 202 244 290
#     4  10  20  29  44  71 100 127 173 179 235 271
#     4  10  19  30  44  70  93 134 156 195 219 295
#     4   9  22  32  54  62 104 120 158 201 250 274
#     4  10  19  30  44  70  93 134 156 195 219 295
#
# _framework density 24.548484999999999
#
# number of rings (size 3 to 8) (size 9 to 14) (size 15 to 20)
#    0.857    1.143    5.714    0.000    4.000    4.571 
#    0.000    0.000    0.000    0.000    0.000    0.000 
#    0.000   27.429    0.000    0.000    0.000    0.000 
#
# Total GULP energy -312071.946404 kJ/mol
# GULP energy per Si atom -5572.713329 kJ/mol
# Density = 2.449261 g / cm^3
# Si number density = 24.548485 Si / 1000 Ang^3
#
#
#
# Elastic Constant Matrix: (Units=GPa)
#
#
# Indices 1 2 3 4 5 6 
#
# 1 222.3298 33.6939 -9.9100 0.0000 0.0000 0.0000
# 2 33.6939 164.3769 -12.0961 0.0000 0.0000 0.0000
# 3 -9.9100 -12.0961 14.6578 0.0000 0.0000 0.0000
# 4 0.0000 0.0000 0.0000 -29.2068 0.0000 0.0000
# 5 0.0000 0.0000 0.0000 0.0000 22.4569 0.0000
# 6 0.0000 0.0000 0.0000 0.0000 0.0000 32.3540
#
#
#
# Elastic Compliance Matrix: (Units=1/GPa)
#
#
# Indices 1 2 3 4 5 6 
#
# 1 0.004730 -0.000782 0.002553 0.000000 0.000000 0.000000
# 2 -0.000782 0.006606 0.004923 0.000000 0.000000 0.000000
# 3 0.002553 0.004923 0.074012 0.000000 0.000000 0.000000
# 4 0.000000 0.000000 0.000000 -0.034239 0.000000 0.000000
# 5 0.000000 0.000000 0.000000 0.000000 0.044530 0.000000
# 6 0.000000 0.000000 0.000000 0.000000 0.000000 0.030908
#
#
# Mechanical properties :
#
#
# Convention : Reuss Voigt Hill
#
# Bulk Modulus (GPa) = 10.12799 47.19335 28.66067
# Shear Modulus (GPa) = 34.23001 31.09928 32.66464
#
# Velocity S-wave (km/s) = 3.73820 3.56315 3.65172
# Velocity P-wave (km/s) = 4.77146 6.01617 5.42960
#
# Compressibility (1/GPa) = 0.09873625
#
# Stress axis : x y z
#
# Youngs Moduli (GPa) = 211.41290 151.37548 13.51139
#
# Poissons Ratio (x) = 0.11833 -0.03449
# Poissons Ratio (y) = 0.16526 -0.06652
# Poissons Ratio (z) = -0.53971 -0.74523
#
# Static dielectric constant tensor:
#      x y z
#    x 4.252720 0.000000 0.000000 
#    y 0.000000 1.991810 0.000000 
#    z 0.000000 0.000000 0.989260 
# 
# From -- ./inp_files/23741.got.cif
#   From: 2010.05.17/outbox.cif.g08.bks.cpg/sg60_12_cif.got.tgz:23741.got - 2010.06.03 14:59:27.
