data_PCOD9454536
_publ_section_title
;
Structure prediction by ZEFSAII (Michael W. Deem and Ramdas Pophale) SiO2 
 PCOD9454536
Probable space group: P B C N
;
_chemical_formula_sum "Si O2"
_cell_formula_units_Z 52
_cell_length_a 10.840693
_cell_length_b 8.214213
_cell_length_c 24.642171
_cell_angle_alpha 90.000000
_cell_angle_beta 90.000000
_cell_angle_gamma 90.000000
_cell_volume 2194.330163
_symmetry_space_group_name_H-M "P B C N"
_symmetry_group_IT_number 60
_symmetry_cell_setting 'orthorhombic'
loop_
_space_group_symop_operation_xyz
x,y,z
1/2-x,1/2-y,1/2+z
1/2+x,1/2-y,-z
-x,y,1/2-z
-x,-y,-z
1/2+x,1/2+y,1/2-z
1/2-x,1/2+y,z
x,-y,1/2+z
loop_
_atom_site_type_symbol
_atom_site_label
_atom_site_fract_x
_atom_site_fract_y
_atom_site_fract_z
Si Si1 0.160732 0.461631 0.175488
Si Si2 0.584701 0.388636 0.539797
Si Si3 0.441201 0.162064 0.310143
Si Si4 0.302369 0.490002 0.285510
Si Si5 0.500000 0.731540 0.250000
Si Si6 0.193442 0.553143 0.002706
Si Si7 0.136631 0.260118 0.074938
O O1 0.267799 0.489445 0.220055
O O2 0.197064 0.353544 0.124636
O O3 0.064670 0.606467 0.157487
O O4 0.073288 0.344122 0.209549
O O5 0.500000 0.500000 0.500000
O O6 0.712416 0.488101 0.544058
O O7 0.623419 0.215091 0.514574
O O8 0.493042 0.329404 0.587093
O O9 0.500000 0.165633 0.250000
O O10 0.368337 0.333305 0.311645
O O11 0.327747 0.034716 0.313289
O O12 0.404452 0.628282 0.285029
O O13 0.123877 0.397043 0.027303
O O14 0.276957 0.620772 0.051647
#
# Coordination Sequence:
#
# PCOD9454536 Si02
#       7
#     8   8   8   8   4   8   8
#     4  11  23  38  57  86 118 149 208 251 284 345
#     4   9  18  37  61  85 126 154 190 232 298 370
#     4  10  19  35  53  76 104 147 192 229 293 338
#     4  11  20  36  57  75 107 154 197 235 294 355
#     4  12  22  36  58  80 112 164 190 240 308 340
#     4   9  19  37  61  90 119 159 184 232 309 355
#     4  10  21  35  59  94 117 147 199 247 281 347
#
# _framework density 23.697436
#
# number of rings (size 3 to 8) (size 9 to 14) (size 15 to 20)
#    0.000    1.846    4.615    0.462    2.154    0.000 
#    0.000    3.077    0.000    0.000    0.000    0.000 
#    0.000    0.000    0.000    0.000    0.000    0.000 
#
# Total GULP energy -289623.511602 kJ/mol
# GULP energy per Si atom -5569.682915 kJ/mol
# Density = 2.364350 g / cm^3
# Si number density = 23.697436 Si / 1000 Ang^3
#
#
#
# Elastic Constant Matrix: (Units=GPa)
#
#
# Indices 1 2 3 4 5 6 
#
# 1 81.2472 55.5242 10.2417 0.0000 0.0000 0.0000
# 2 55.5242 130.8251 -0.6782 0.0000 0.0000 0.0000
# 3 10.2417 -0.6782 13.7384 0.0000 0.0000 0.0000
# 4 0.0000 0.0000 0.0000 2.7957 0.0000 0.0000
# 5 0.0000 0.0000 0.0000 0.0000 5.1985 0.0000
# 6 0.0000 0.0000 0.0000 0.0000 0.0000 54.1859
#
#
#
# Elastic Compliance Matrix: (Units=1/GPa)
#
#
# Indices 1 2 3 4 5 6 
#
# 1 0.020157 -0.008635 -0.015453 0.000000 0.000000 0.000000
# 2 -0.008635 0.011345 0.006997 0.000000 0.000000 0.000000
# 3 -0.015453 0.006997 0.084654 0.000000 0.000000 0.000000
# 4 0.000000 0.000000 0.000000 0.357692 0.000000 0.000000
# 5 0.000000 0.000000 0.000000 0.000000 0.192365 0.000000
# 6 0.000000 0.000000 0.000000 0.000000 0.000000 0.018455
#
#
# Mechanical properties :
#
#
# Convention : Reuss Voigt Hill
#
# Bulk Modulus (GPa) = 12.19891 39.55401 25.87646
# Shear Modulus (GPa) = 6.70084 23.15088 14.92586
#
# Velocity S-wave (km/s) = 1.68339 3.12899 2.51241
# Velocity P-wave (km/s) = 2.98954 5.45725 4.39994
#
# Compressibility (1/GPa) = 0.08197454
#
# Stress axis : x y z
#
# Youngs Moduli (GPa) = 49.60967 88.14471 11.81277
#
# Poissons Ratio (x) = 0.76115 0.18254
# Poissons Ratio (y) = 0.42839 -0.08266
# Poissons Ratio (z) = 0.76662 -0.61678
#
# Static dielectric constant tensor:
#      x y z
#    x 1.983280 0.000000 0.000000 
#    y 0.000000 1.948820 0.000000 
#    z 0.000000 0.000000 2.157640 
# 
# From -- ./inp_files/26066.got.cif
#   From: 2010.05.17/outbox.cif.g08.bks.cpg/sg60_14_cif.got.tgz:26066.got - 2010.06.03 14:59:27.
