data_PCOD9454505
_publ_section_title
;
Structure prediction by ZEFSAII (Michael W. Deem and Ramdas Pophale) SiO2 
 PCOD9454505
Probable space group: P B C N
;
_chemical_formula_sum "Si O2"
_cell_formula_units_Z 64
_cell_length_a 7.447030
_cell_length_b 21.131884
_cell_length_c 18.227557
_cell_angle_alpha 90.000000
_cell_angle_beta 90.000000
_cell_angle_gamma 90.000000
_cell_volume 2868.466528
_symmetry_space_group_name_H-M "P B C N"
_symmetry_group_IT_number 60
_symmetry_cell_setting 'orthorhombic'
loop_
_space_group_symop_operation_xyz
x,y,z
1/2-x,1/2-y,1/2+z
1/2+x,1/2-y,-z
-x,y,1/2-z
-x,-y,-z
1/2+x,1/2+y,1/2-z
1/2-x,1/2+y,z
x,-y,1/2+z
loop_
_atom_site_type_symbol
_atom_site_label
_atom_site_fract_x
_atom_site_fract_y
_atom_site_fract_z
Si Si1 0.003861 0.309154 0.557096
Si Si2 0.710862 0.360564 0.266521
Si Si3 0.636289 0.447916 0.471304
Si Si4 0.685809 0.236960 0.202530
Si Si5 0.772718 0.185317 0.934010
Si Si6 0.921951 0.443670 0.591701
Si Si7 0.716780 0.986728 0.322417
Si Si8 0.717382 0.895823 0.732530
O O1 0.867111 0.282521 0.619961
O O2 0.912337 0.315746 0.478200
O O3 0.047052 0.381311 0.580048
O O4 0.153008 0.255712 0.556639
O O5 0.500000 0.372002 0.250000
O O6 0.774141 0.305422 0.211166
O O7 0.737128 0.331602 0.348229
O O8 0.800288 0.429219 0.265872
O O9 0.500000 0.500000 0.500000
O O10 0.610079 0.371435 0.472343
O O11 0.820018 0.459770 0.517159
O O12 0.654391 0.462590 0.385752
O O13 0.500000 0.242584 0.250000
O O14 0.782442 0.175911 0.237180
O O15 0.771126 0.420143 0.649345
O O16 0.034318 0.496122 0.634356
O O17 0.788123 0.050436 0.285438
O O18 0.500000 0.893919 0.750000
#
# Coordination Sequence:
#
# PCOD9454505 Si02
#       8
#     8   8   8   8   8   8   8   8
#     4  10  19  36  62  89 116 155 203 254 302 363
#     4  10  19  34  58  84 121 158 203 242 306 381
#     4  10  22  38  54  83 121 159 198 243 307 371
#     4   9  15  32  60  82 107 154 200 238 296 360
#     4  10  21  36  58  91 116 156 206 249 306 371
#     4   9  19  37  60  82 117 152 200 252 298 362
#     4  10  20  33  57  89 115 153 199 246 301 361
#     4   8  16  30  54  83 102 142 199 236 283 353
#
# _framework density 22.311571000000001
#
# number of rings (size 3 to 8) (size 9 to 14) (size 15 to 20)
#    0.000    2.500    2.500    1.125    0.000    3.000 
#    0.000    0.000   16.500    0.000    0.000    0.000 
#    0.000    0.000    0.000    0.000    0.000    0.000 
#
# Total GULP energy -356679.744373 kJ/mol
# GULP energy per Si atom -5573.121006 kJ/mol
# Density = 2.226079 g / cm^3
# Si number density = 22.311571 Si / 1000 Ang^3
#
#
#
# Elastic Constant Matrix: (Units=GPa)
#
#
# Indices 1 2 3 4 5 6 
#
# 1 19.2494 13.3654 -2.0368 0.0000 0.0000 0.0000
# 2 13.3654 120.2707 -8.4466 0.0000 0.0000 0.0000
# 3 -2.0368 -8.4466 57.8590 0.0000 0.0000 0.0000
# 4 0.0000 0.0000 0.0000 30.0944 0.0000 0.0000
# 5 0.0000 0.0000 0.0000 0.0000 23.0921 0.0000
# 6 0.0000 0.0000 0.0000 0.0000 0.0000 24.3531
#
#
#
# Elastic Compliance Matrix: (Units=1/GPa)
#
#
# Indices 1 2 3 4 5 6 
#
# 1 0.056360 -0.006187 0.001081 0.000000 0.000000 0.000000
# 2 -0.006187 0.009080 0.001108 0.000000 0.000000 0.000000
# 3 0.001081 0.001108 0.017483 0.000000 0.000000 0.000000
# 4 0.000000 0.000000 0.000000 0.033229 0.000000 0.000000
# 5 0.000000 0.000000 0.000000 0.000000 0.043305 0.000000
# 6 0.000000 0.000000 0.000000 0.000000 0.000000 0.041063
#
#
# Mechanical properties :
#
#
# Convention : Reuss Voigt Hill
#
# Bulk Modulus (GPa) = 13.34654 22.57144 17.95899
# Shear Modulus (GPa) = 21.41400 28.47440 24.94420
#
# Velocity S-wave (km/s) = 3.10138 3.57629 3.34727
# Velocity P-wave (km/s) = 4.33816 5.21456 4.79642
#
# Compressibility (1/GPa) = 0.07492580
#
# Stress axis : x y z
#
# Youngs Moduli (GPa) = 17.74304 110.13276 57.19792
#
# Poissons Ratio (x) = 0.68142 -0.06182
# Poissons Ratio (y) = 0.10978 -0.06336
# Poissons Ratio (z) = -0.01918 -0.12200
#
# Static dielectric constant tensor:
#      x y z
#    x 1.869170 0.000000 0.000000 
#    y 0.000000 1.904620 0.000000 
#    z 0.000000 0.000000 1.815390 
# 
# From -- ./inp_files/19686.got.cif
#   From: 2010.05.17/outbox.cif.g08.bks.cpg/sg60_10_cif.got.tgz:19686.got - 2010.06.03 14:59:27.
