data_PCOD9454569
_publ_section_title
;
Structure prediction by ZEFSAII (Michael W. Deem and Ramdas Pophale) SiO2 
 PCOD9454569
Probable space group: P B C N
;
_chemical_formula_sum "Si O2"
_cell_formula_units_Z 48
_cell_length_a 15.953944
_cell_length_b 19.885783
_cell_length_c 7.644588
_cell_angle_alpha 90.000000
_cell_angle_beta 90.000000
_cell_angle_gamma 90.000000
_cell_volume 2425.296520
_symmetry_space_group_name_H-M "P B C N"
_symmetry_group_IT_number 60
_symmetry_cell_setting 'orthorhombic'
loop_
_space_group_symop_operation_xyz
x,y,z
1/2-x,1/2-y,1/2+z
1/2+x,1/2-y,-z
-x,y,1/2-z
-x,-y,-z
1/2+x,1/2+y,1/2-z
1/2-x,1/2+y,z
x,-y,1/2+z
loop_
_atom_site_type_symbol
_atom_site_label
_atom_site_fract_x
_atom_site_fract_y
_atom_site_fract_z
Si Si1 0.000000 0.766582 0.750000
Si Si2 0.939547 0.340712 0.987788
Si Si3 0.681515 0.970105 0.373959
Si Si4 0.235535 0.339458 0.303121
Si Si5 0.682403 0.705965 0.362507
Si Si6 0.818884 0.393674 0.739016
Si Si7 0.500000 0.948339 0.250000
O O1 0.988847 0.721789 0.571718
O O2 0.911107 0.801504 0.785902
O O3 0.849322 0.334565 0.082897
O O4 0.983981 0.403758 0.077659
O O5 0.906774 0.357672 0.793758
O O6 0.735989 0.915511 0.267208
O O7 0.674618 0.932814 0.557882
O O8 0.588660 0.980636 0.291405
O O9 0.710452 0.046971 0.373567
O O10 0.308394 0.317791 0.436268
O O11 0.216784 0.282649 0.156836
O O12 0.746250 0.661370 0.248165
#
# Coordination Sequence:
#
# PCOD9454569 Si02
#       7
#     4   8   8   8   8   8   4
#     4   9  18  36  60  84 114 145 188 246 286 325
#     4   8  17  32  51  78 108 141 174 213 275 339
#     4  11  22  36  54  80 115 153 190 231 283 348
#     4   9  18  34  54  78 109 145 184 227 280 343
#     4  10  19  35  59  83 110 148 191 233 281 333
#     4  11  22  35  55  80 111 152 191 227 280 349
#     4   9  18  34  50  74 112 141 172 220 272 337
#
# _framework density 19.791395000000001
#
# number of rings (size 3 to 8) (size 9 to 14) (size 15 to 20)
#    0.000    2.333    0.000    5.000    0.000    3.333 
#    0.000    3.333    0.000   18.000    0.000    0.000 
#    0.000    0.000    0.000    0.000    0.000    0.000 
#
# Total GULP energy -267311.221953 kJ/mol
# GULP energy per Si atom -5568.983791 kJ/mol
# Density = 1.974635 g / cm^3
# Si number density = 19.791395 Si / 1000 Ang^3
#
#
#
# Elastic Constant Matrix: (Units=GPa)
#
#
# Indices 1 2 3 4 5 6 
#
# 1 81.8887 40.0472 17.7311 0.0000 0.0000 0.0000
# 2 40.0472 85.6581 15.5595 0.0000 0.0000 0.0000
# 3 17.7311 15.5595 84.3394 0.0000 0.0000 0.0000
# 4 0.0000 0.0000 0.0000 31.3700 0.0000 0.0000
# 5 0.0000 0.0000 0.0000 0.0000 21.3627 0.0000
# 6 0.0000 0.0000 0.0000 0.0000 0.0000 22.4189
#
#
#
# Elastic Compliance Matrix: (Units=1/GPa)
#
#
# Indices 1 2 3 4 5 6 
#
# 1 0.016175 -0.007185 -0.002075 0.000000 0.000000 0.000000
# 2 -0.007185 0.015271 -0.001307 0.000000 0.000000 0.000000
# 3 -0.002075 -0.001307 0.012534 0.000000 0.000000 0.000000
# 4 0.000000 0.000000 0.000000 0.031878 0.000000 0.000000
# 5 0.000000 0.000000 0.000000 0.000000 0.046811 0.000000
# 6 0.000000 0.000000 0.000000 0.000000 0.000000 0.044605
#
#
# Mechanical properties :
#
#
# Convention : Reuss Voigt Hill
#
# Bulk Modulus (GPa) = 43.77092 44.28464 44.02778
# Shear Modulus (GPa) = 25.50729 26.93356 26.22042
#
# Velocity S-wave (km/s) = 3.59389 3.69300 3.64378
# Velocity P-wave (km/s) = 6.27579 6.37249 6.32433
#
# Compressibility (1/GPa) = 0.02284622
#
# Stress axis : x y z
#
# Youngs Moduli (GPa) = 61.82436 65.48392 79.78206
#
# Poissons Ratio (x) = 0.47052 0.16554
# Poissons Ratio (y) = 0.44422 0.10425
# Poissons Ratio (z) = 0.12828 0.08557
#
# Static dielectric constant tensor:
#      x y z
#    x 1.723160 0.000000 0.000000 
#    y 0.000000 1.719750 0.000000 
#    z 0.000000 0.000000 1.878500 
# 
# From -- ./inp_files/6054.got.cif
#   From: 2010.05.17/outbox.cif.g08.bks.cpg/sg60_4_cif.got.tgz:6054.got - 2010.06.03 14:59:27.
