data_PCOD9454747
_publ_section_title
;
Structure prediction by ZEFSAII (Michael W. Deem and Ramdas Pophale) SiO2 
 PCOD9454747
Probable space group: P B C N
;
_chemical_formula_sum "Si O2"
_cell_formula_units_Z 64
_cell_length_a 9.938286
_cell_length_b 13.785140
_cell_length_c 19.863430
_cell_angle_alpha 90.000000
_cell_angle_beta 90.000000
_cell_angle_gamma 90.000000
_cell_volume 2721.303097
_symmetry_space_group_name_H-M "P B C N"
_symmetry_group_IT_number 60
_symmetry_cell_setting 'orthorhombic'
loop_
_space_group_symop_operation_xyz
x,y,z
1/2-x,1/2-y,1/2+z
1/2+x,1/2-y,-z
-x,y,1/2-z
-x,-y,-z
1/2+x,1/2+y,1/2-z
1/2-x,1/2+y,z
x,-y,1/2+z
loop_
_atom_site_type_symbol
_atom_site_label
_atom_site_fract_x
_atom_site_fract_y
_atom_site_fract_z
Si Si1 0.799551 0.173148 0.373640
Si Si2 0.934480 0.757096 0.315043
Si Si3 0.574061 0.912366 0.069227
Si Si4 0.785857 0.773603 0.024931
Si Si5 0.653160 0.887818 0.630554
Si Si6 0.704000 0.984788 0.440867
Si Si7 0.944022 0.912628 0.674977
Si Si8 0.013542 0.085529 0.574276
O O1 0.716835 0.221367 0.313847
O O2 0.764724 0.224398 0.444890
O O3 0.954357 0.167195 0.354990
O O4 0.745686 0.062134 0.383463
O O5 0.939553 0.836215 0.372160
O O6 0.000000 0.802322 0.250000
O O7 0.029876 0.666588 0.334042
O O8 0.622286 0.999372 0.117587
O O9 0.658190 0.813101 0.067861
O O10 0.413087 0.908877 0.078704
O O11 0.624385 0.952995 0.996575
O O12 0.829635 0.673268 0.060368
O O13 0.902018 0.855971 0.032893
O O14 0.789752 0.880902 0.672659
O O15 0.850491 0.946366 0.464372
O O16 0.000000 0.937187 0.750000
O O17 0.954452 0.998762 0.619282
#
# Coordination Sequence:
#
# PCOD9454747 Si02
#       8
#     8   8   8   8   8   8   8   8
#     4  10  22  38  59  91 123 158 212 260 311 391
#     4  11  23  41  60  87 123 168 216 260 309 381
#     4  10  19  38  58  89 129 156 195 256 324 383
#     4  10  23  38  61  98 125 159 211 260 336 378
#     4  11  23  38  64  88 124 168 201 263 325 378
#     4   9  20  35  59  87 121 157 198 254 318 381
#     4  11  23  41  63  90 123 173 216 259 317 377
#     4  10  22  39  64  90 122 164 214 265 318 379
#
# _framework density 23.518146000000002
#
# number of rings (size 3 to 8) (size 9 to 14) (size 15 to 20)
#    0.000    1.750    2.500    1.125    3.500    3.500 
#    0.000    0.000    0.000    0.750    0.000    0.000 
#    0.000    0.000    0.000    0.000    0.000    0.000 
#
# Total GULP energy -357519.767643 kJ/mol
# GULP energy per Si atom -5586.246369 kJ/mol
# Density = 2.346462 g / cm^3
# Si number density = 23.518146 Si / 1000 Ang^3
#
#
#
# Elastic Constant Matrix: (Units=GPa)
#
#
# Indices 1 2 3 4 5 6 
#
# 1 102.0404 30.9951 10.7246 0.0000 0.0000 0.0000
# 2 30.9951 54.3960 17.4387 0.0000 0.0000 0.0000
# 3 10.7246 17.4387 72.0674 0.0000 0.0000 0.0000
# 4 0.0000 0.0000 0.0000 2.3959 0.0000 0.0000
# 5 0.0000 0.0000 0.0000 0.0000 31.2604 0.0000
# 6 0.0000 0.0000 0.0000 0.0000 0.0000 28.9273
#
#
#
# Elastic Compliance Matrix: (Units=1/GPa)
#
#
# Indices 1 2 3 4 5 6 
#
# 1 0.011853 -0.006709 -0.000140 0.000000 0.000000 0.000000
# 2 -0.006709 0.023727 -0.004743 0.000000 0.000000 0.000000
# 3 -0.000140 -0.004743 0.015045 0.000000 0.000000 0.000000
# 4 0.000000 0.000000 0.000000 0.417373 0.000000 0.000000
# 5 0.000000 0.000000 0.000000 0.000000 0.031989 0.000000
# 6 0.000000 0.000000 0.000000 0.000000 0.000000 0.034569
#
#
# Mechanical properties :
#
#
# Convention : Reuss Voigt Hill
#
# Bulk Modulus (GPa) = 36.44358 38.53562 37.48960
# Shear Modulus (GPa) = 8.82010 23.80641 16.31326
#
# Velocity S-wave (km/s) = 1.93868 3.18505 2.63657
# Velocity P-wave (km/s) = 4.53221 5.47240 5.02434
#
# Compressibility (1/GPa) = 0.02743967
#
# Stress axis : x y z
#
# Youngs Moduli (GPa) = 84.36991 42.14628 66.46935
#
# Poissons Ratio (x) = 0.28274 0.00934
# Poissons Ratio (y) = 0.56601 0.31527
# Poissons Ratio (z) = 0.01185 0.19990
#
# Static dielectric constant tensor:
#      x y z
#    x 1.948780 0.000000 0.000000 
#    y 0.000000 1.967640 0.000000 
#    z 0.000000 0.000000 1.918490 
# 
# From -- ./inp_files/24080.got.cif
#   From: 2010.05.17/outbox.cif.g08.bks.cpg/sg60_13_cif.got.tgz:24080.got - 2010.06.03 14:59:27.
