data_PCOD9454810
_publ_section_title
;
Structure prediction by ZEFSAII (Michael W. Deem and Ramdas Pophale) SiO2 
 PCOD9454810
Probable space group: P B C N
;
_chemical_formula_sum "Si O2"
_cell_formula_units_Z 56
_cell_length_a 7.748513
_cell_length_b 19.168325
_cell_length_c 16.724724
_cell_angle_alpha 90.000000
_cell_angle_beta 90.000000
_cell_angle_gamma 90.000000
_cell_volume 2484.056615
_symmetry_space_group_name_H-M "P B C N"
_symmetry_group_IT_number 60
_symmetry_cell_setting 'orthorhombic'
loop_
_space_group_symop_operation_xyz
x,y,z
1/2-x,1/2-y,1/2+z
1/2+x,1/2-y,-z
-x,y,1/2-z
-x,-y,-z
1/2+x,1/2+y,1/2-z
1/2-x,1/2+y,z
x,-y,1/2+z
loop_
_atom_site_type_symbol
_atom_site_label
_atom_site_fract_x
_atom_site_fract_y
_atom_site_fract_z
Si Si1 0.691625 0.909801 0.541445
Si Si2 0.789924 0.849960 0.950300
Si Si3 0.103127 0.775134 0.002492
Si Si4 0.400287 0.083341 0.173736
Si Si5 0.917678 0.430265 0.360293
Si Si6 0.183803 0.050729 0.902876
Si Si7 0.409028 0.349218 0.170498
O O1 0.764213 0.832118 0.532657
O O2 0.526512 0.912433 0.597675
O O3 0.643290 0.935227 0.452715
O O4 0.815795 0.967761 0.582033
O O5 0.643014 0.805827 0.996084
O O6 0.758648 0.874242 0.860574
O O7 0.831306 0.913170 0.009733
O O8 0.935493 0.791385 0.951692
O O9 0.073334 0.798082 0.094649
O O10 0.500000 0.111435 0.250000
O O11 0.365101 0.001706 0.184253
O O12 0.792890 0.370794 0.323691
O O13 0.127473 0.428277 0.365348
O O14 0.025888 0.082793 0.852924
O O15 0.500000 0.320808 0.250000
#
# Coordination Sequence:
#
# PCOD9454810 Si02
#       7
#     8   8   8   8   8   8   8
#     4  10  19  40  61  91 119 153 211 253 298 379
#     4  11  21  40  61  90 116 163 212 249 305 369
#     4  10  24  38  67  84 120 164 212 252 300 371
#     4  11  22  35  60  95 124 161 195 257 323 360
#     4  10  20  37  62  86 124 159 202 251 305 369
#     4  10  20  37  65  88 117 160 203 256 303 365
#     4  10  24  37  57  93 125 157 201 257 309 367
#
# _framework density 22.543769999999999
#
# number of rings (size 3 to 8) (size 9 to 14) (size 15 to 20)
#    0.000    1.714    2.857    1.714    8.000    2.286 
#    0.000    0.714    0.000    0.000    0.000    0.000 
#    0.000    0.000    0.000    0.000    0.000    0.000 
#
# Total GULP energy -312620.122779 kJ/mol
# GULP energy per Si atom -5582.502192 kJ/mol
# Density = 2.249246 g / cm^3
# Si number density = 22.543770 Si / 1000 Ang^3
#
#
#
# Elastic Constant Matrix: (Units=GPa)
#
#
# Indices 1 2 3 4 5 6 
#
# 1 60.3634 -7.8121 -2.7899 0.0000 0.0000 0.0000
# 2 -7.8121 60.0588 -5.3307 0.0000 0.0000 0.0000
# 3 -2.7899 -5.3307 55.8669 0.0000 0.0000 0.0000
# 4 0.0000 0.0000 0.0000 8.0506 0.0000 0.0000
# 5 0.0000 0.0000 0.0000 0.0000 21.6054 0.0000
# 6 0.0000 0.0000 0.0000 0.0000 0.0000 29.1977
#
#
#
# Elastic Compliance Matrix: (Units=1/GPa)
#
#
# Indices 1 2 3 4 5 6 
#
# 1 0.016912 0.002294 0.001063 0.000000 0.000000 0.000000
# 2 0.002294 0.017104 0.001747 0.000000 0.000000 0.000000
# 3 0.001063 0.001747 0.018119 0.000000 0.000000 0.000000
# 4 0.000000 0.000000 0.000000 0.124215 0.000000 0.000000
# 5 0.000000 0.000000 0.000000 0.000000 0.046285 0.000000
# 6 0.000000 0.000000 0.000000 0.000000 0.000000 0.034249
#
#
# Mechanical properties :
#
#
# Convention : Reuss Voigt Hill
#
# Bulk Modulus (GPa) = 16.03996 16.04708 16.04352
# Shear Modulus (GPa) = 18.69460 24.58553 21.64007
#
# Velocity S-wave (km/s) = 2.88281 3.30596 3.10161
# Velocity P-wave (km/s) = 4.26746 4.65898 4.46752
#
# Compressibility (1/GPa) = 0.06234428
#
# Stress axis : x y z
#
# Youngs Moduli (GPa) = 59.12822 58.46654 55.18936
#
# Poissons Ratio (x) = -0.13414 -0.05869
# Poissons Ratio (y) = -0.13566 -0.09639
# Poissons Ratio (z) = -0.06288 -0.10212
#
# Static dielectric constant tensor:
#      x y z
#    x 2.102270 0.000000 0.000000 
#    y 0.000000 1.821240 0.000000 
#    z 0.000000 0.000000 1.813810 
# 
# From -- ./inp_files/19640.got.cif
#   From: 2010.05.17/outbox.cif.g08.bks.cpg/sg60_10_cif.got.tgz:19640.got - 2010.06.03 14:59:27.
