data_PCOD9454830
_publ_section_title
;
Structure prediction by ZEFSAII (Michael W. Deem and Ramdas Pophale) SiO2 
 PCOD9454830
Probable space group: P B C N
;
_chemical_formula_sum "Si O2"
_cell_formula_units_Z 64
_cell_length_a 11.887417
_cell_length_b 14.341947
_cell_length_c 17.245374
_cell_angle_alpha 90.000000
_cell_angle_beta 90.000000
_cell_angle_gamma 90.000000
_cell_volume 2940.141473
_symmetry_space_group_name_H-M "P B C N"
_symmetry_group_IT_number 60
_symmetry_cell_setting 'orthorhombic'
loop_
_space_group_symop_operation_xyz
x,y,z
1/2-x,1/2-y,1/2+z
1/2+x,1/2-y,-z
-x,y,1/2-z
-x,-y,-z
1/2+x,1/2+y,1/2-z
1/2-x,1/2+y,z
x,-y,1/2+z
loop_
_atom_site_type_symbol
_atom_site_label
_atom_site_fract_x
_atom_site_fract_y
_atom_site_fract_z
Si Si1 0.102049 0.808089 0.890100
Si Si2 0.027274 0.616727 0.837067
Si Si3 0.318329 0.009084 0.120618
Si Si4 0.406108 0.207909 0.141723
Si Si5 0.258995 0.452761 0.289279
Si Si6 0.159349 0.740141 0.313987
Si Si7 0.867482 0.894257 0.442674
Si Si8 0.024220 0.981863 0.837603
O O1 0.057050 0.702883 0.890992
O O2 0.227634 0.798721 0.853643
O O3 0.010051 0.871375 0.844649
O O4 0.103848 0.855228 0.973781
O O5 0.134979 0.551899 0.823452
O O6 0.000000 0.653608 0.750000
O O7 0.925643 0.555948 0.867120
O O8 0.249422 0.995766 0.202599
O O9 0.238836 0.962621 0.057127
O O10 0.360235 0.113207 0.103595
O O11 0.541716 0.226237 0.139166
O O12 0.369472 0.195324 0.231151
O O13 0.349035 0.301379 0.108865
O O14 0.310322 0.347980 0.293673
O O15 0.341881 0.509300 0.343715
O O16 0.963540 0.955194 0.400433
O O17 0.000000 0.014739 0.750000
#
# Coordination Sequence:
#
# PCOD9454830 Si02
#       8
#     8   8   8   8   8   8   8   8
#     4  11  26  43  66 100 140 177 223 283 358 395
#     4   9  22  42  66  97 132 172 224 282 331 400
#     4  11  23  40  67 100 135 170 223 280 341 399
#     4  11  23  41  72  97 131 183 232 274 336 413
#     4  10  19  40  68  99 129 167 228 288 314 399
#     4  10  21  41  69  99 127 179 234 278 331 408
#     4  12  26  46  63 105 140 178 220 288 342 407
#     4  12  22  41  73  95 130 179 232 273 331 416
#
# _framework density 21.767658999999998
#
# number of rings (size 3 to 8) (size 9 to 14) (size 15 to 20)
#    0.000    1.250    3.750    1.500    7.000    2.000 
#    4.500    1.250    0.000    0.000    0.000    0.000 
#    0.000    0.000    0.000    0.000    0.000    0.000 
#
# Total GULP energy -357388.441642 kJ/mol
# GULP energy per Si atom -5584.194401 kJ/mol
# Density = 2.171811 g / cm^3
# Si number density = 21.767659 Si / 1000 Ang^3
#
#
#
# Elastic Constant Matrix: (Units=GPa)
#
#
# Indices 1 2 3 4 5 6 
#
# 1 73.4855 18.9367 -0.4463 0.0000 0.0000 0.0000
# 2 18.9367 91.6345 -2.5470 0.0000 0.0000 0.0000
# 3 -0.4463 -2.5470 37.1398 0.0000 0.0000 0.0000
# 4 0.0000 0.0000 0.0000 12.9346 0.0000 0.0000
# 5 0.0000 0.0000 0.0000 0.0000 18.8107 0.0000
# 6 0.0000 0.0000 0.0000 0.0000 0.0000 19.9541
#
#
#
# Elastic Compliance Matrix: (Units=1/GPa)
#
#
# Indices 1 2 3 4 5 6 
#
# 1 0.014374 -0.002971 -0.000031 0.000000 0.000000 0.000000
# 2 -0.002971 0.011548 0.000756 0.000000 0.000000 0.000000
# 3 -0.000031 0.000756 0.026977 0.000000 0.000000 0.000000
# 4 0.000000 0.000000 0.000000 0.077312 0.000000 0.000000
# 5 0.000000 0.000000 0.000000 0.000000 0.053161 0.000000
# 6 0.000000 0.000000 0.000000 0.000000 0.000000 0.050115
#
#
# Mechanical properties :
#
#
# Convention : Reuss Voigt Hill
#
# Bulk Modulus (GPa) = 20.65845 26.01628 23.33736
# Shear Modulus (GPa) = 19.67621 22.76098 21.21859
#
# Velocity S-wave (km/s) = 3.00979 3.23713 3.12553
# Velocity P-wave (km/s) = 4.64645 5.09409 4.87541
#
# Compressibility (1/GPa) = 0.04840634
#
# Stress axis : x y z
#
# Youngs Moduli (GPa) = 69.57199 86.59540 37.06886
#
# Poissons Ratio (x) = 0.25730 0.00115
# Poissons Ratio (y) = 0.20671 -0.02803
# Poissons Ratio (z) = 0.00216 -0.06549
#
# Static dielectric constant tensor:
#      x y z
#    x 1.821800 0.000000 0.000000 
#    y 0.000000 1.844260 0.000000 
#    z 0.000000 0.000000 1.827810 
# 
# From -- ./inp_files/20192.got.cif
#   From: 2010.05.17/outbox.cif.g08.bks.cpg/sg60_11_cif.got.tgz:20192.got - 2010.06.03 14:59:27.
