data_PCOD9454793
_publ_section_title
;
Structure prediction by ZEFSAII (Michael W. Deem and Ramdas Pophale) SiO2 
 PCOD9454793
Probable space group: P B C N
;
_chemical_formula_sum "Si O2"
_cell_formula_units_Z 44
_cell_length_a 7.916224
_cell_length_b 19.085651
_cell_length_c 14.249582
_cell_angle_alpha 90.000000
_cell_angle_beta 90.000000
_cell_angle_gamma 90.000000
_cell_volume 2152.916457
_symmetry_space_group_name_H-M "P B C N"
_symmetry_group_IT_number 60
_symmetry_cell_setting 'orthorhombic'
loop_
_space_group_symop_operation_xyz
x,y,z
1/2-x,1/2-y,1/2+z
1/2+x,1/2-y,-z
-x,y,1/2-z
-x,-y,-z
1/2+x,1/2+y,1/2-z
1/2-x,1/2+y,z
x,-y,1/2+z
loop_
_atom_site_type_symbol
_atom_site_label
_atom_site_fract_x
_atom_site_fract_y
_atom_site_fract_z
Si Si1 0.448721 0.959432 0.092171
Si Si2 0.201562 0.681745 0.777004
Si Si3 0.500000 0.590384 0.250000
Si Si4 0.790360 0.798612 0.872617
Si Si5 0.742262 0.528357 0.736283
Si Si6 0.539067 0.807749 0.035237
O O1 0.601295 0.969058 0.165334
O O2 0.292286 0.985247 0.154893
O O3 0.436883 0.878373 0.061614
O O4 0.500000 0.000000 0.000000
O O5 0.257823 0.744317 0.710300
O O6 0.304984 0.610527 0.763203
O O7 0.187671 0.698617 0.886598
O O8 0.000000 0.670796 0.750000
O O9 0.606521 0.639466 0.320719
O O10 0.375338 0.534129 0.298283
O O11 0.918474 0.757522 0.942470
O O12 0.626627 0.816309 0.934567
#
# Coordination Sequence:
#
# PCOD9454793 Si02
#       6
#     8   8   4   8   8   8
#     4  10  19  39  64  86 120 172 215 245 311 388
#     4   9  16  42  65  75 119 180 205 236 317 388
#     4  12  24  38  62 102 136 152 208 286 316 338
#     4  11  21  41  63  89 130 162 211 271 314 373
#     4  10  20  39  62  87 125 171 205 254 314 382
#     4  10  20  38  65  90 119 172 214 252 318 384
#
# _framework density 20.437394000000001
#
# number of rings (size 3 to 8) (size 9 to 14) (size 15 to 20)
#    0.000    1.818    8.182    1.091    0.000    1.455 
#    6.545    4.545    0.000    0.000    0.000    0.000 
#    0.000    0.000    0.000    0.000    0.000    0.000 
#
# Total GULP energy -244989.376138 kJ/mol
# GULP energy per Si atom -5567.940367 kJ/mol
# Density = 2.039088 g / cm^3
# Si number density = 20.437394 Si / 1000 Ang^3
#
#
#
# Elastic Constant Matrix: (Units=GPa)
#
#
# Indices 1 2 3 4 5 6 
#
# 1 21.2401 20.6158 -2.8875 0.0000 0.0000 0.0000
# 2 20.6158 110.2470 20.2820 0.0000 0.0000 0.0000
# 3 -2.8875 20.2820 85.6557 0.0000 0.0000 0.0000
# 4 0.0000 0.0000 0.0000 20.4883 0.0000 0.0000
# 5 0.0000 0.0000 0.0000 0.0000 28.6739 0.0000
# 6 0.0000 0.0000 0.0000 0.0000 0.0000 5.7281
#
#
#
# Elastic Compliance Matrix: (Units=1/GPa)
#
#
# Indices 1 2 3 4 5 6 
#
# 1 0.059381 -0.011995 0.004842 0.000000 0.000000 0.000000
# 2 -0.011995 0.011907 -0.003224 0.000000 0.000000 0.000000
# 3 0.004842 -0.003224 0.012601 0.000000 0.000000 0.000000
# 4 0.000000 0.000000 0.000000 0.048808 0.000000 0.000000
# 5 0.000000 0.000000 0.000000 0.000000 0.034875 0.000000
# 6 0.000000 0.000000 0.000000 0.000000 0.000000 0.174577
#
#
# Mechanical properties :
#
#
# Convention : Reuss Voigt Hill
#
# Bulk Modulus (GPa) = 15.83882 32.57373 24.20627
# Shear Modulus (GPa) = 13.02259 22.92023 17.97141
#
# Velocity S-wave (km/s) = 2.52701 3.35249 2.96858
# Velocity P-wave (km/s) = 4.03499 5.56404 4.86002
#
# Compressibility (1/GPa) = 0.06313600
#
# Stress axis : x y z
#
# Youngs Moduli (GPa) = 16.84029 83.98700 79.35759
#
# Poissons Ratio (x) = 1.00742 -0.38425
# Poissons Ratio (y) = 0.20200 0.25582
# Poissons Ratio (z) = -0.08154 0.27075
#
# Static dielectric constant tensor:
#      x y z
#    x 2.114930 0.000000 0.000000 
#    y 0.000000 1.766070 0.000000 
#    z 0.000000 0.000000 1.751540 
# 
# From -- ./inp_files/14918.got.cif
#   From: 2010.05.17/outbox.cif.g08.bks.cpg/sg60_8_cif.got.tgz:14918.got - 2010.06.03 14:59:27.
