data_PCOD9454273
_publ_section_title
;
Structure prediction by ZEFSAII (Michael W. Deem and Ramdas Pophale) SiO2 
 PCOD9454273
Probable space group: P B C N
;
_chemical_formula_sum "Si O2"
_cell_formula_units_Z 48
_cell_length_a 12.701324
_cell_length_b 35.417770
_cell_length_c 5.292750
_cell_angle_alpha 90.000000
_cell_angle_beta 90.000000
_cell_angle_gamma 90.000000
_cell_volume 2380.957201
_symmetry_space_group_name_H-M "P B C N"
_symmetry_group_IT_number 60
_symmetry_cell_setting 'orthorhombic'
loop_
_space_group_symop_operation_xyz
x,y,z
1/2-x,1/2-y,1/2+z
1/2+x,1/2-y,-z
-x,y,1/2-z
-x,-y,-z
1/2+x,1/2+y,1/2-z
1/2-x,1/2+y,z
x,-y,1/2+z
loop_
_atom_site_type_symbol
_atom_site_label
_atom_site_fract_x
_atom_site_fract_y
_atom_site_fract_z
Si Si1 0.253639 0.337151 0.729387
Si Si2 0.117741 0.676883 0.728878
Si Si3 0.678806 0.986393 0.685609
Si Si4 0.688956 0.256813 0.681770
Si Si5 0.388317 0.460574 0.317319
Si Si6 0.824600 0.079397 0.188162
O O1 0.192569 0.335991 0.461247
O O2 0.330053 0.300607 0.755188
O O3 0.311354 0.376590 0.768063
O O4 0.170814 0.332472 0.960495
O O5 0.112583 0.722480 0.754990
O O6 0.000000 0.661205 0.750000
O O7 0.790659 0.010318 0.673649
O O8 0.623564 0.997548 0.429528
O O9 0.712388 0.942972 0.703887
O O10 0.717544 0.252747 0.385257
O O11 0.500000 0.478978 0.250000
O O12 0.389682 0.438654 0.581322
O O13 0.366569 0.431701 0.087554
#
# Coordination Sequence:
#
# PCOD9454273 Si02
#       6
#     8   8   8   8   8   8
#     4  10  19  33  51  72 100 127 153 195 244 283
#     4  10  19  33  53  74  94 121 161 199 235 282
#     4   8  16  27  42  63  89 120 162 193 221 265
#     4   8  16  30  49  69  92 124 152 182 230 282
#     4  10  19  31  46  66  96 131 166 198 226 267
#     4  10  19  30  46  68  96 129 160 191 236 281
#
# _framework density 20.159960000000002
#
# number of rings (size 3 to 8) (size 9 to 14) (size 15 to 20)
#    0.000    2.667    0.000    2.000    0.000    6.000 
#    0.000    1.667    0.000    0.000    0.000    0.000 
#    0.000  120.000    0.000    0.000    0.000    0.000 
#
# Total GULP energy -267373.861105 kJ/mol
# GULP energy per Si atom -5570.288773 kJ/mol
# Density = 2.011407 g / cm^3
# Si number density = 20.159960 Si / 1000 Ang^3
#
#
#
# Elastic Constant Matrix: (Units=GPa)
#
#
# Indices 1 2 3 4 5 6 
#
# 1 33.6498 -4.1041 1.0813 0.0000 0.0000 0.0000
# 2 -4.1041 119.5920 11.3561 0.0000 0.0000 0.0000
# 3 1.0813 11.3561 139.1202 0.0000 0.0000 0.0000
# 4 0.0000 0.0000 0.0000 24.3631 0.0000 0.0000
# 5 0.0000 0.0000 0.0000 0.0000 9.0949 0.0000
# 6 0.0000 0.0000 0.0000 0.0000 0.0000 2.3197
#
#
#
# Elastic Compliance Matrix: (Units=1/GPa)
#
#
# Indices 1 2 3 4 5 6 
#
# 1 0.029857 0.001055 -0.000318 0.000000 0.000000 0.000000
# 2 0.001055 0.008464 -0.000699 0.000000 0.000000 0.000000
# 3 -0.000318 -0.000699 0.007248 0.000000 0.000000 0.000000
# 4 0.000000 0.000000 0.000000 0.041046 0.000000 0.000000
# 5 0.000000 0.000000 0.000000 0.000000 0.109952 0.000000
# 6 0.000000 0.000000 0.000000 0.000000 0.000000 0.431086
#
#
# Mechanical properties :
#
#
# Convention : Reuss Voigt Hill
#
# Bulk Modulus (GPa) = 21.90882 34.33651 28.12267
# Shear Modulus (GPa) = 7.77857 26.09078 16.93467
#
# Velocity S-wave (km/s) = 1.96642 3.60139 2.90145
# Velocity P-wave (km/s) = 4.00585 5.86194 5.02041
#
# Compressibility (1/GPa) = 0.04564372
#
# Stress axis : x y z
#
# Youngs Moduli (GPa) = 33.49327 118.14258 137.97726
#
# Poissons Ratio (x) = -0.12462 0.04390
# Poissons Ratio (y) = -0.03533 0.09646
# Poissons Ratio (z) = 0.01066 0.08260
#
# Static dielectric constant tensor:
#      x y z
#    x 1.717680 0.000000 0.000000 
#    y 0.000000 1.715190 0.000000 
#    z 0.000000 0.000000 1.781250 
# 
# From -- ./inp_files/1324.got.cif
#   From: 2010.05.17/outbox.cif.g08.bks.cpg/sg60_1_cif.got.tgz:1324.got - 2010.06.03 14:59:27.
