data_PCOD9454092
_publ_section_title
;
Structure prediction by ZEFSAII (Michael W. Deem and Ramdas Pophale) SiO2 
 PCOD9454092
Probable space group: P B C N
;
_chemical_formula_sum "Si O2"
_cell_formula_units_Z 48
_cell_length_a 8.539616
_cell_length_b 14.151039
_cell_length_c 20.252001
_cell_angle_alpha 90.000000
_cell_angle_beta 90.000000
_cell_angle_gamma 90.000000
_cell_volume 2447.341701
_symmetry_space_group_name_H-M "P B C N"
_symmetry_group_IT_number 60
_symmetry_cell_setting 'orthorhombic'
loop_
_space_group_symop_operation_xyz
x,y,z
1/2-x,1/2-y,1/2+z
1/2+x,1/2-y,-z
-x,y,1/2-z
-x,-y,-z
1/2+x,1/2+y,1/2-z
1/2-x,1/2+y,z
x,-y,1/2+z
loop_
_atom_site_type_symbol
_atom_site_label
_atom_site_fract_x
_atom_site_fract_y
_atom_site_fract_z
Si Si1 0.840632 0.395471 0.615070
Si Si2 0.518391 0.304721 0.076477
Si Si3 0.659368 0.104529 0.615070
Si Si4 0.750000 0.749999 0.838601
Si Si5 0.018391 0.195279 0.423523
Si Si6 0.500000 0.143507 0.750000
Si Si7 0.500000 0.856492 0.750000
O O1 0.933631 0.306857 0.582802
O O2 0.863083 0.500000 0.585168
O O3 0.659434 0.363701 0.609097
O O4 0.899911 0.401921 0.690707
O O5 0.659434 0.363702 0.109096
O O6 0.354443 0.316489 0.114341
O O7 0.500000 0.328984 1.000000
O O8 0.566370 0.193143 0.582802
O O9 0.600091 0.098078 0.690708
O O10 0.873504 0.701542 0.791054
O O11 0.626497 0.798457 0.791054
O O12 0.854443 0.816488 0.885659
#
# Coordination Sequence:
#
# PCOD9454092 Si02
#       7
#     8   8   8   8   8   4   4
#     4  10  21  37  58  83 113 149 188 232 279 331
#     4  10  21  38  58  82 114 149 188 231 278 333
#     4  10  21  37  58  83 113 149 188 232 279 331
#     4  10  18  34  58  80 112 152 184 230 284 332
#     4  10  21  38  58  82 114 149 188 231 278 333
#     4  10  19  34  56  86 115 146 189 232 280 334
#     4  10  19  34  56  86 115 146 189 232 280 334
#
# _framework density 19.613116999999999
#
# number of rings (size 3 to 8) (size 9 to 14) (size 15 to 20)
#    0.000    2.000    0.000    6.500    0.000    1.333 
#    0.000   10.000    0.000    0.000    0.000    0.000 
#    0.000    0.000    0.000    0.000    0.000    0.000 
#
# Total GULP energy -267278.566026 kJ/mol
# GULP energy per Si atom -5568.303459 kJ/mol
# Density = 1.956848 g / cm^3
# Si number density = 19.613117 Si / 1000 Ang^3
#
#
#
# Elastic Constant Matrix: (Units=GPa)
#
#
# Indices 1 2 3 4 5 6 
#
# 1 140.5167 23.9247 67.8641 0.0000 0.0000 0.0000
# 2 23.9247 79.6302 23.2068 0.0000 0.0000 0.0000
# 3 67.8641 23.2068 116.1289 0.0000 0.0000 0.0000
# 4 0.0000 0.0000 0.0000 8.9430 0.0000 0.0000
# 5 0.0000 0.0000 0.0000 0.0000 27.0309 0.0000
# 6 0.0000 0.0000 0.0000 0.0000 0.0000 15.6523
#
#
#
# Elastic Compliance Matrix: (Units=1/GPa)
#
#
# Indices 1 2 3 4 5 6 
#
# 1 0.010058 -0.001390 -0.005600 0.000000 0.000000 0.000000
# 2 -0.001390 0.013527 -0.001891 0.000000 0.000000 0.000000
# 3 -0.005600 -0.001891 0.012261 0.000000 0.000000 0.000000
# 4 0.000000 0.000000 0.000000 0.111819 0.000000 0.000000
# 5 0.000000 0.000000 0.000000 0.000000 0.036995 0.000000
# 6 0.000000 0.000000 0.000000 0.000000 0.000000 0.063889
#
#
# Mechanical properties :
#
#
# Convention : Reuss Voigt Hill
#
# Bulk Modulus (GPa) = 55.29547 62.91855 59.10701
# Shear Modulus (GPa) = 18.35955 25.07724 21.71840
#
# Velocity S-wave (km/s) = 3.06287 3.57962 3.33128
# Velocity P-wave (km/s) = 6.38456 7.01672 6.70809
#
# Compressibility (1/GPa) = 0.01808466
#
# Stress axis : x y z
#
# Youngs Moduli (GPa) = 99.42593 73.92784 81.55633
#
# Poissons Ratio (x) = 0.10275 0.45670
# Poissons Ratio (y) = 0.13819 0.15422
# Poissons Ratio (z) = 0.55677 0.13979
#
# Static dielectric constant tensor:
#      x y z
#    x 1.694070 0.000000 0.000000 
#    y 0.000000 1.694810 0.000000 
#    z 0.000000 0.000000 1.686890 
# 
# From -- ./inp_files/22097.got.cif
#   From: 2010.05.17/outbox.cif.g08.bks.cpg/sg60_12_cif.got.tgz:22097.got - 2010.06.03 14:59:27.
