data_PCOD9454365
_publ_section_title
;
Structure prediction by ZEFSAII (Michael W. Deem and Ramdas Pophale) SiO2 
 PCOD9454365
Probable space group: P B C N
;
_chemical_formula_sum "Si O2"
_cell_formula_units_Z 48
_cell_length_a 19.944579
_cell_length_b 5.222966
_cell_length_c 22.495588
_cell_angle_alpha 90.000000
_cell_angle_beta 90.000000
_cell_angle_gamma 90.000000
_cell_volume 2343.362208
_symmetry_space_group_name_H-M "P B C N"
_symmetry_group_IT_number 60
_symmetry_cell_setting 'orthorhombic'
loop_
_space_group_symop_operation_xyz
x,y,z
1/2-x,1/2-y,1/2+z
1/2+x,1/2-y,-z
-x,y,1/2-z
-x,-y,-z
1/2+x,1/2+y,1/2-z
1/2-x,1/2+y,z
x,-y,1/2+z
loop_
_atom_site_type_symbol
_atom_site_label
_atom_site_fract_x
_atom_site_fract_y
_atom_site_fract_z
Si Si1 0.550636 0.288279 0.977341
Si Si2 0.082455 0.978413 0.644687
Si Si3 0.996558 0.472321 0.819612
Si Si4 0.211822 0.237287 0.620700
Si Si5 0.793163 0.787959 0.522273
Si Si6 0.079899 0.552694 0.923773
O O1 0.593533 0.391545 0.923315
O O2 0.497381 0.101808 0.944731
O O3 0.500000 0.500000 0.000000
O O4 0.594061 0.180804 0.031135
O O5 0.051709 0.723830 0.674578
O O6 0.151627 0.120060 0.659701
O O7 0.029908 0.211004 0.649809
O O8 0.000000 0.417595 0.750000
O O9 0.067106 0.526541 0.853774
O O10 0.228429 0.533923 0.632412
O O11 0.197710 0.229382 0.549471
O O12 0.745690 0.547024 0.537562
O O13 0.863923 0.753343 0.556380
#
# Coordination Sequence:
#
# PCOD9454365 Si02
#       6
#     8   8   8   8   8   8
#     4  10  19  32  56  90 114 149 185 238 312 354
#     4  11  22  37  61  86 120 151 194 248 299 366
#     4  11  24  41  61  87 114 157 201 255 308 347
#     4  10  21  35  55  86 123 157 186 230 289 359
#     4  10  23  35  54  84 123 160 188 226 289 367
#     4  10  22  35  56  85 121 150 194 245 294 364
#
# _framework density 20.483391000000001
#
# number of rings (size 3 to 8) (size 9 to 14) (size 15 to 20)
#    0.000    1.667    1.667    2.500   14.000    0.000 
#    0.000    0.000    0.000    6.000    0.000    0.000 
#    0.000    0.000    0.000    0.000    0.000    0.000 
#
# Total GULP energy -267304.053205 kJ/mol
# GULP energy per Si atom -5568.834442 kJ/mol
# Density = 2.043677 g / cm^3
# Si number density = 20.483391 Si / 1000 Ang^3
#
#
#
# Elastic Constant Matrix: (Units=GPa)
#
#
# Indices 1 2 3 4 5 6 
#
# 1 66.2955 22.5658 6.8379 0.0000 0.0000 0.0000
# 2 22.5658 103.7272 27.3422 0.0000 0.0000 0.0000
# 3 6.8379 27.3422 53.9354 0.0000 0.0000 0.0000
# 4 0.0000 0.0000 0.0000 13.4827 0.0000 0.0000
# 5 0.0000 0.0000 0.0000 0.0000 10.9392 0.0000
# 6 0.0000 0.0000 0.0000 0.0000 0.0000 26.6268
#
#
#
# Elastic Compliance Matrix: (Units=1/GPa)
#
#
# Indices 1 2 3 4 5 6 
#
# 1 0.016295 -0.003463 -0.000310 0.000000 0.000000 0.000000
# 2 -0.003463 0.011864 -0.005575 0.000000 0.000000 0.000000
# 3 -0.000310 -0.005575 0.021406 0.000000 0.000000 0.000000
# 4 0.000000 0.000000 0.000000 0.074169 0.000000 0.000000
# 5 0.000000 0.000000 0.000000 0.000000 0.091415 0.000000
# 6 0.000000 0.000000 0.000000 0.000000 0.000000 0.037556
#
#
# Mechanical properties :
#
#
# Convention : Reuss Voigt Hill
#
# Bulk Modulus (GPa) = 32.39631 37.49443 34.94537
# Shear Modulus (GPa) = 17.74996 21.35723 19.55359
#
# Velocity S-wave (km/s) = 2.94692 3.23253 3.09302
# Velocity P-wave (km/s) = 5.23730 5.68127 5.46380
#
# Compressibility (1/GPa) = 0.03086772
#
# Stress axis : x y z
#
# Youngs Moduli (GPa) = 61.36942 84.29100 46.71517
#
# Poissons Ratio (x) = 0.29191 0.01449
# Poissons Ratio (y) = 0.21253 0.26044
# Poissons Ratio (z) = 0.01904 0.46993
#
# Static dielectric constant tensor:
#      x y z
#    x 1.895540 0.000000 0.000000 
#    y 0.000000 1.823460 0.000000 
#    z 0.000000 0.000000 1.791140 
# 
# From -- ./inp_files/24500.got.cif
#   From: 2010.05.17/outbox.cif.g08.bks.cpg/sg60_13_cif.got.tgz:24500.got - 2010.06.03 14:59:27.
