data_PCOD9454168
_publ_section_title
;
Structure prediction by ZEFSAII (Michael W. Deem and Ramdas Pophale) SiO2 
 PCOD9454168
Probable space group: P B C N
;
_chemical_formula_sum "Si O2"
_cell_formula_units_Z 48
_cell_length_a 7.136664
_cell_length_b 14.900793
_cell_length_c 17.158790
_cell_angle_alpha 90.000000
_cell_angle_beta 90.000000
_cell_angle_gamma 90.000000
_cell_volume 1824.699239
_symmetry_space_group_name_H-M "P B C N"
_symmetry_group_IT_number 60
_symmetry_cell_setting 'orthorhombic'
loop_
_space_group_symop_operation_xyz
x,y,z
1/2-x,1/2-y,1/2+z
1/2+x,1/2-y,-z
-x,y,1/2-z
-x,-y,-z
1/2+x,1/2+y,1/2-z
1/2-x,1/2+y,z
x,-y,1/2+z
loop_
_atom_site_type_symbol
_atom_site_label
_atom_site_fract_x
_atom_site_fract_y
_atom_site_fract_z
Si Si1 0.204502 0.061610 0.714525
Si Si2 0.866186 0.726193 0.405406
Si Si3 0.767151 0.296807 0.159017
Si Si4 0.777564 0.582132 0.517032
Si Si5 0.722742 0.145074 0.255884
Si Si6 0.830716 0.099269 0.969528
O O1 0.294500 0.142586 0.763454
O O2 0.199916 0.071144 0.621399
O O3 0.000000 0.069543 0.750000
O O4 0.258081 0.960620 0.736942
O O5 0.884831 0.631241 0.447535
O O6 0.733069 0.700047 0.334173
O O7 0.779068 0.795798 0.467879
O O8 0.052768 0.775410 0.372408
O O9 0.843069 0.363475 0.092962
O O10 0.820874 0.195502 0.183993
O O11 0.783509 0.474500 0.518043
O O12 0.550787 0.595324 0.506821
O O13 0.500000 0.159656 0.250000
#
# Coordination Sequence:
#
# PCOD9454168 Si02
#       6
#     8   8   8   8   8   8
#     4  12  19  38  68  90 120 165 213 264 319 370
#     4  10  18  36  62  83 121 167 204 254 322 381
#     4  10  21  39  61  88 122 166 213 262 313 386
#     4  10  20  34  58  89 120 159 208 255 321 380
#     4  10  21  37  62  88 118 165 212 256 322 384
#     4  10  20  35  60  89 121 163 207 264 319 378
#
# _framework density 26.305707000000002
#
# number of rings (size 3 to 8) (size 9 to 14) (size 15 to 20)
#    0.000    1.667    6.667    0.500    0.000    1.333 
#    3.000    0.833    7.333    6.000    0.000    0.000 
#    0.000    0.000    0.000    0.000    0.000    0.000 
#
# Total GULP energy -267850.448209 kJ/mol
# GULP energy per Si atom -5580.217671 kJ/mol
# Density = 2.624583 g / cm^3
# Si number density = 26.305707 Si / 1000 Ang^3
#
#
#
# Elastic Constant Matrix: (Units=GPa)
#
#
# Indices 1 2 3 4 5 6 
#
# 1 99.1633 27.7955 21.6939 0.0000 0.0000 0.0000
# 2 27.7955 182.1710 36.7774 0.0000 0.0000 0.0000
# 3 21.6939 36.7774 75.4560 0.0000 0.0000 0.0000
# 4 0.0000 0.0000 0.0000 45.2116 0.0000 0.0000
# 5 0.0000 0.0000 0.0000 0.0000 1.6885 0.0000
# 6 0.0000 0.0000 0.0000 0.0000 0.0000 -188.6631
#
#
#
# Elastic Compliance Matrix: (Units=1/GPa)
#
#
# Indices 1 2 3 4 5 6 
#
# 1 0.010974 -0.001151 -0.002594 0.000000 0.000000 0.000000
# 2 -0.001151 0.006209 -0.002695 0.000000 0.000000 0.000000
# 3 -0.002594 -0.002695 0.015312 0.000000 0.000000 0.000000
# 4 0.000000 0.000000 0.000000 0.022118 0.000000 0.000000
# 5 0.000000 0.000000 0.000000 0.000000 0.592225 0.000000
# 6 0.000000 0.000000 0.000000 0.000000 0.000000 -0.005300
#
#
# Mechanical properties :
#
#
# Convention : Reuss Voigt Hill
#
# Bulk Modulus (GPa) = 50.98167 58.81378 54.89772
# Shear Modulus (GPa) = 7.56478 -10.31767 -1.37645
#
# Velocity S-wave (km/s) = 1.69763 -1.98261 -0.72415
# Velocity P-wave (km/s) = 4.82340 4.14311 4.49614
#
# Compressibility (1/GPa) = 0.01961489
#
# Stress axis : x y z
#
# Youngs Moduli (GPa) = 91.12037 161.05401 65.30647
#
# Poissons Ratio (x) = 0.18533 0.16943
# Poissons Ratio (y) = 0.10485 0.17603
# Poissons Ratio (z) = 0.23640 0.43412
#
# Static dielectric constant tensor:
#      x y z
#    x -0.822980 0.000000 0.000000 
#    y 0.000000 2.102680 0.000000 
#    z 0.000000 0.000000 2.266420 
# 
# From -- ./inp_files/19338.got.cif
#   From: 2010.05.17/outbox.cif.g08.bks.cpg/sg60_10_cif.got.tgz:19338.got - 2010.06.03 14:59:27.
