data_PCOD9454184
_publ_section_title
;
Structure prediction by ZEFSAII (Michael W. Deem and Ramdas Pophale) SiO2 
 PCOD9454184
Probable space group: P B C N
;
_chemical_formula_sum "Si O2"
_cell_formula_units_Z 52
_cell_length_a 20.547613
_cell_length_b 8.124461
_cell_length_c 16.856575
_cell_angle_alpha 90.000000
_cell_angle_beta 90.000000
_cell_angle_gamma 90.000000
_cell_volume 2814.007645
_symmetry_space_group_name_H-M "P B C N"
_symmetry_group_IT_number 60
_symmetry_cell_setting 'orthorhombic'
loop_
_space_group_symop_operation_xyz
x,y,z
1/2-x,1/2-y,1/2+z
1/2+x,1/2-y,-z
-x,y,1/2-z
-x,-y,-z
1/2+x,1/2+y,1/2-z
1/2-x,1/2+y,z
x,-y,1/2+z
loop_
_atom_site_type_symbol
_atom_site_label
_atom_site_fract_x
_atom_site_fract_y
_atom_site_fract_z
Si Si1 0.500000 0.917600 0.750000
Si Si2 0.463755 0.342419 0.665235
Si Si3 0.315506 0.709438 0.730523
Si Si4 0.546367 0.874294 0.044121
Si Si5 0.630692 0.017533 0.678410
Si Si6 0.060795 0.798285 0.116750
Si Si7 0.677839 0.675264 0.266620
O O1 0.565923 0.015159 0.734015
O O2 0.488030 0.810756 0.670931
O O3 0.500000 0.358097 0.750000
O O4 0.502778 0.216675 0.610347
O O5 0.465887 0.518376 0.622784
O O6 0.386951 0.310648 0.679851
O O7 0.333219 0.848397 0.796797
O O8 0.371392 0.716042 0.664126
O O9 0.245968 0.765981 0.696177
O O10 0.315957 0.517498 0.757885
O O11 0.604602 0.966270 0.089449
O O12 0.568766 0.755583 0.973516
O O13 0.500000 0.000000 0.000000
O O14 0.667809 0.186776 0.698565
#
# Coordination Sequence:
#
# PCOD9454184 Si02
#       7
#     4   8   8   8   8   8   8
#     4  10  18  36  66  90 116 168 204 258 310 376
#     4  11  22  39  65  95 124 165 214 267 319 382
#     4  10  23  39  67  88 120 167 218 257 307 377
#     4  12  24  36  61  95 132 164 200 265 333 371
#     4  11  21  37  62  91 126 157 209 256 308 380
#     4  10  22  39  62  92 128 162 213 262 318 382
#     4  11  21  39  68  91 116 166 219 257 306 378
#
# _framework density 18.478982999999999
#
# number of rings (size 3 to 8) (size 9 to 14) (size 15 to 20)
#    0.000    1.231    5.385    1.385    2.154    0.000 
#    2.769    0.000   10.154    0.000    0.000    0.000 
#    0.000    0.000    0.000    0.000    0.000    0.000 
#
# Total GULP energy -289863.827475 kJ/mol
# GULP energy per Si atom -5574.304375 kJ/mol
# Density = 1.843692 g / cm^3
# Si number density = 18.478983 Si / 1000 Ang^3
#
#
#
# Elastic Constant Matrix: (Units=GPa)
#
#
# Indices 1 2 3 4 5 6 
#
# 1 83.1621 34.7718 10.9288 0.0000 0.0000 0.0000
# 2 34.7718 128.8427 30.4453 0.0000 0.0000 0.0000
# 3 10.9288 30.4453 75.4600 0.0000 0.0000 0.0000
# 4 0.0000 0.0000 0.0000 31.7483 0.0000 0.0000
# 5 0.0000 0.0000 0.0000 0.0000 18.2352 0.0000
# 6 0.0000 0.0000 0.0000 0.0000 0.0000 32.6322
#
#
#
# Elastic Compliance Matrix: (Units=1/GPa)
#
#
# Indices 1 2 3 4 5 6 
#
# 1 0.013574 -0.003536 -0.000539 0.000000 0.000000 0.000000
# 2 -0.003536 0.009500 -0.003321 0.000000 0.000000 0.000000
# 3 -0.000539 -0.003321 0.014670 0.000000 0.000000 0.000000
# 4 0.000000 0.000000 0.000000 0.031498 0.000000 0.000000
# 5 0.000000 0.000000 0.000000 0.000000 0.054839 0.000000
# 6 0.000000 0.000000 0.000000 0.000000 0.000000 0.030645
#
#
# Mechanical properties :
#
#
# Convention : Reuss Voigt Hill
#
# Bulk Modulus (GPa) = 43.56890 48.86182 46.21536
# Shear Modulus (GPa) = 28.22166 30.61106 29.41636
#
# Velocity S-wave (km/s) = 3.91222 4.07447 3.99417
# Velocity P-wave (km/s) = 6.63596 6.97383 6.80699
#
# Compressibility (1/GPa) = 0.02295215
#
# Stress axis : x y z
#
# Youngs Moduli (GPa) = 73.67020 105.25880 68.16610
#
# Poissons Ratio (x) = 0.37218 0.03676
# Poissons Ratio (y) = 0.26049 0.22638
# Poissons Ratio (z) = 0.03973 0.34956
#
# Static dielectric constant tensor:
#      x y z
#    x 1.684370 0.000000 0.000000 
#    y 0.000000 1.705350 0.000000 
#    z 0.000000 0.000000 1.617880 
# 
# From -- ./inp_files/17668.got.cif
#   From: 2010.05.17/outbox.cif.g08.bks.cpg/sg60_9_cif.got.tgz:17668.got - 2010.06.03 14:59:27.
