data_PCOD9454334
_publ_section_title
;
Structure prediction by ZEFSAII (Michael W. Deem and Ramdas Pophale) SiO2 
 PCOD9454334
Probable space group: P B C N
;
_chemical_formula_sum "Si O2"
_cell_formula_units_Z 48
_cell_length_a 18.859323
_cell_length_b 9.108895
_cell_length_c 16.506262
_cell_angle_alpha 90.000000
_cell_angle_beta 90.000000
_cell_angle_gamma 90.000000
_cell_volume 2835.571018
_symmetry_space_group_name_H-M "P B C N"
_symmetry_group_IT_number 60
_symmetry_cell_setting 'orthorhombic'
loop_
_space_group_symop_operation_xyz
x,y,z
1/2-x,1/2-y,1/2+z
1/2+x,1/2-y,-z
-x,y,1/2-z
-x,-y,-z
1/2+x,1/2+y,1/2-z
1/2-x,1/2+y,z
x,-y,1/2+z
loop_
_atom_site_type_symbol
_atom_site_label
_atom_site_fract_x
_atom_site_fract_y
_atom_site_fract_z
Si Si1 0.418132 0.756652 0.755026
Si Si2 0.827895 0.751707 0.902197
Si Si3 0.795973 0.936089 0.322994
Si Si4 0.673037 0.795689 0.589685
Si Si5 0.080104 0.394900 0.227946
Si Si6 0.707093 0.903279 0.163256
O O1 0.500000 0.710619 0.750000
O O2 0.364544 0.658346 0.702564
O O3 0.388929 0.753526 0.847128
O O4 0.413756 0.927375 0.727220
O O5 0.757469 0.659546 0.877912
O O6 0.892489 0.674440 0.854977
O O7 0.816743 0.914548 0.867304
O O8 0.840078 0.747274 0.997712
O O9 0.752019 0.967280 0.239823
O O10 0.743653 0.714994 0.621083
O O11 0.686291 0.968401 0.601922
O O12 0.135727 0.341547 0.296197
O O13 0.000000 0.357002 0.250000
#
# Coordination Sequence:
#
# PCOD9454334 Si02
#       6
#     8   8   8   8   8   8
#     4   9  19  37  55  71 100 141 171 198 249 311
#     4  11  20  32  51  79 102 126 166 217 252 286
#     4  10  19  33  53  73 100 135 169 201 249 306
#     4  10  19  32  51  76 101 126 166 214 251 289
#     4   9  18  34  53  73 100 135 172 203 246 307
#     4   9  17  32  51  70  96 133 165 197 247 305
#
# _framework density 16.927807999999999
#
# number of rings (size 3 to 8) (size 9 to 14) (size 15 to 20)
#    0.000    2.333    0.000    6.000    0.000    0.667 
#    0.000   10.000    0.000    0.000    0.000    0.000 
#    0.000    0.000    0.000    0.000    0.000    0.000 
#
# Total GULP energy -267762.254971 kJ/mol
# GULP energy per Si atom -5578.380312 kJ/mol
# Density = 1.688928 g / cm^3
# Si number density = 16.927808 Si / 1000 Ang^3
#
#
#
# Elastic Constant Matrix: (Units=GPa)
#
#
# Indices 1 2 3 4 5 6 
#
# 1 150.4067 40.5620 59.0177 0.0000 0.0000 0.0000
# 2 40.5620 53.3353 52.0668 0.0000 0.0000 0.0000
# 3 59.0177 52.0668 116.2990 0.0000 0.0000 0.0000
# 4 0.0000 0.0000 0.0000 6.9655 0.0000 0.0000
# 5 0.0000 0.0000 0.0000 0.0000 7.6144 0.0000
# 6 0.0000 0.0000 0.0000 0.0000 0.0000 23.5290
#
#
#
# Elastic Compliance Matrix: (Units=1/GPa)
#
#
# Indices 1 2 3 4 5 6 
#
# 1 0.008787 -0.004138 -0.002607 0.000000 0.000000 0.000000
# 2 -0.004138 0.035254 -0.013683 0.000000 0.000000 0.000000
# 3 -0.002607 -0.013683 0.016047 0.000000 0.000000 0.000000
# 4 0.000000 0.000000 0.000000 0.143565 0.000000 0.000000
# 5 0.000000 0.000000 0.000000 0.000000 0.131329 0.000000
# 6 0.000000 0.000000 0.000000 0.000000 0.000000 0.042501
#
#
# Mechanical properties :
#
#
# Convention : Reuss Voigt Hill
#
# Bulk Modulus (GPa) = 51.99478 69.25933 60.62706
# Shear Modulus (GPa) = 11.77159 18.84809 15.30984
#
# Velocity S-wave (km/s) = 2.63990 3.34044 3.01062
# Velocity P-wave (km/s) = 6.33043 7.47539 6.92661
#
# Compressibility (1/GPa) = 0.01923270
#
# Stress axis : x y z
#
# Youngs Moduli (GPa) = 113.79827 28.36533 62.31612
#
# Poissons Ratio (x) = 0.11739 0.16243
# Poissons Ratio (y) = 0.47094 0.85268
# Poissons Ratio (z) = 0.29663 0.38813
#
# Static dielectric constant tensor:
#      x y z
#    x 1.563810 0.000000 0.000000 
#    y 0.000000 1.574730 0.000000 
#    z 0.000000 0.000000 1.558940 
# 
# From -- ./inp_files/17318.got.cif
#   From: 2010.05.17/outbox.cif.g08.bks.cpg/sg60_9_cif.got.tgz:17318.got - 2010.06.03 14:59:27.
