data_PCOD9454746
_publ_section_title
;
Structure prediction by ZEFSAII (Michael W. Deem and Ramdas Pophale) SiO2 
 PCOD9454746
Probable space group: P B C N
;
_chemical_formula_sum "Si O2"
_cell_formula_units_Z 40
_cell_length_a 9.574770
_cell_length_b 22.371428
_cell_length_c 8.145462
_cell_angle_alpha 90.000000
_cell_angle_beta 90.000000
_cell_angle_gamma 90.000000
_cell_volume 1744.768368
_symmetry_space_group_name_H-M "P B C N"
_symmetry_group_IT_number 60
_symmetry_cell_setting 'orthorhombic'
loop_
_space_group_symop_operation_xyz
x,y,z
1/2-x,1/2-y,1/2+z
1/2+x,1/2-y,-z
-x,y,1/2-z
-x,-y,-z
1/2+x,1/2+y,1/2-z
1/2-x,1/2+y,z
x,-y,1/2+z
loop_
_atom_site_type_symbol
_atom_site_label
_atom_site_fract_x
_atom_site_fract_y
_atom_site_fract_z
Si Si1 0.467217 0.433436 0.554861
Si Si2 0.500000 0.349620 0.250000
Si Si3 0.000000 0.682076 0.750000
Si Si4 0.233736 0.773479 0.416791
Si Si5 0.795331 0.377478 0.863117
Si Si6 0.382670 0.140400 0.463302
O O1 0.500000 0.422247 0.750000
O O2 0.500000 0.500000 0.500000
O O3 0.527783 0.388758 0.414720
O O4 0.299877 0.423543 0.541783
O O5 0.631151 0.307698 0.207840
O O6 0.894790 0.722746 0.643278
O O7 0.105641 0.637272 0.656665
O O8 0.232520 0.812743 0.584916
O O9 0.168759 0.708631 0.439315
O O10 0.792625 0.393360 0.670546
O O11 0.956235 0.372286 0.913862
#
# Coordination Sequence:
#
# PCOD9454746 Si02
#       6
#     8   4   4   8   8   8
#     4  11  23  43  68  96 123 168 222 293 346 397
#     4  10  22  40  64  95 134 167 222 266 338 400
#     4  10  22  34  58  89 128 183 228 252 310 386
#     4  10  20  37  60  93 134 180 209 267 314 407
#     4   9  21  37  58  91 128 169 218 263 327 393
#     4  10  19  38  58  87 137 173 210 258 323 404
#
# _framework density 22.92568
#
# number of rings (size 3 to 8) (size 9 to 14) (size 15 to 20)
#    0.000    2.000    1.000    2.400    2.800    1.600 
#   16.200    0.000    0.000    7.200    0.000    0.000 
#    0.000    0.000    0.000    0.000    0.000    0.000 
#
# Total GULP energy -222799.950154 kJ/mol
# GULP energy per Si atom -5569.998754 kJ/mol
# Density = 2.287350 g / cm^3
# Si number density = 22.925680 Si / 1000 Ang^3
#
#
#
# Elastic Constant Matrix: (Units=GPa)
#
#
# Indices 1 2 3 4 5 6 
#
# 1 96.5170 6.4145 14.8037 0.0000 0.0000 0.0000
# 2 6.4145 36.9949 -5.6825 0.0000 0.0000 0.0000
# 3 14.8037 -5.6825 96.8885 0.0000 0.0000 0.0000
# 4 0.0000 0.0000 0.0000 20.8214 0.0000 0.0000
# 5 0.0000 0.0000 0.0000 0.0000 47.9907 0.0000
# 6 0.0000 0.0000 0.0000 0.0000 0.0000 107.9251
#
#
#
# Elastic Compliance Matrix: (Units=1/GPa)
#
#
# Indices 1 2 3 4 5 6 
#
# 1 0.010775 -0.002140 -0.001772 0.000000 0.000000 0.000000
# 2 -0.002140 0.027702 0.001952 0.000000 0.000000 0.000000
# 3 -0.001772 0.001952 0.010706 0.000000 0.000000 0.000000
# 4 0.000000 0.000000 0.000000 0.048027 0.000000 0.000000
# 5 0.000000 0.000000 0.000000 0.000000 0.020837 0.000000
# 6 0.000000 0.000000 0.000000 0.000000 0.000000 0.009266
#
#
# Mechanical properties :
#
#
# Convention : Reuss Voigt Hill
#
# Bulk Modulus (GPa) = 22.09362 29.05240 25.57301
# Shear Modulus (GPa) = 34.17127 49.67177 41.92152
#
# Velocity S-wave (km/s) = 3.86492 4.65977 4.28083
# Velocity P-wave (km/s) = 5.43827 6.45378 5.96766
#
# Compressibility (1/GPa) = 0.04526193
#
# Stress axis : x y z
#
# Youngs Moduli (GPa) = 92.80849 36.09886 93.40264
#
# Poissons Ratio (x) = 0.07727 0.16549
# Poissons Ratio (y) = 0.19865 -0.18230
# Poissons Ratio (z) = 0.16444 -0.07046
#
# Static dielectric constant tensor:
#      x y z
#    x 1.930090 0.000000 0.000000 
#    y 0.000000 1.810090 0.000000 
#    z 0.000000 0.000000 2.073980 
# 
# From -- ./inp_files/3895.got.cif
#   From: 2010.05.17/outbox.cif.g08.bks.cpg/sg60_2_cif.got.tgz:3895.got - 2010.06.03 14:59:27.
