data_PCOD9454254
_publ_section_title
;
Structure prediction by ZEFSAII (Michael W. Deem and Ramdas Pophale) SiO2 
 PCOD9454254
Probable space group: P B C N
;
_chemical_formula_sum "Si O2"
_cell_formula_units_Z 36
_cell_length_a 8.824723
_cell_length_b 19.348838
_cell_length_c 10.394309
_cell_angle_alpha 90.000000
_cell_angle_beta 90.000000
_cell_angle_gamma 90.000000
_cell_volume 1774.808884
_symmetry_space_group_name_H-M "P B C N"
_symmetry_group_IT_number 60
_symmetry_cell_setting 'orthorhombic'
loop_
_space_group_symop_operation_xyz
x,y,z
1/2-x,1/2-y,1/2+z
1/2+x,1/2-y,-z
-x,y,1/2-z
-x,-y,-z
1/2+x,1/2+y,1/2-z
1/2-x,1/2+y,z
x,-y,1/2+z
loop_
_atom_site_type_symbol
_atom_site_label
_atom_site_fract_x
_atom_site_fract_y
_atom_site_fract_z
Si Si1 0.746465 0.561914 0.806014
Si Si2 0.341240 0.958370 0.491640
Si Si3 0.209969 0.304739 0.473914
Si Si4 0.453645 0.688798 0.617423
Si Si5 0.500000 0.838551 0.250000
O O1 0.769263 0.542057 0.654218
O O2 0.613356 0.614581 0.843566
O O3 0.895108 0.609443 0.831550
O O4 0.741742 0.497407 0.901039
O O5 0.352043 0.877502 0.528199
O O6 0.500000 0.000000 0.500000
O O7 0.389301 0.314608 0.459251
O O8 0.169541 0.236372 0.550132
O O9 0.118853 0.298399 0.338296
O O10 0.500000 0.725146 0.750000
#
# Coordination Sequence:
#
# PCOD9454254 Si02
#       5
#     8   8   8   8   4
#     4  11  22  42  69 100 141 183 234 294 358 423
#     4  11  21  41  71 103 137 187 236 294 359 429
#     4  11  25  42  71 101 139 186 240 286 361 427
#     4  12  25  46  69  99 141 189 232 298 360 427
#     4  10  18  42  66  96 136 180 222 290 348 412
#
# _framework density 20.283874999999998
#
# number of rings (size 3 to 8) (size 9 to 14) (size 15 to 20)
#    0.000    0.889    8.889    1.333    0.000    2.667 
#    0.000    0.000    0.000    0.000    0.000    0.000 
#    0.000    0.000    0.000    0.000    0.000    0.000 
#
# Total GULP energy -200563.343697 kJ/mol
# GULP energy per Si atom -5571.203992 kJ/mol
# Density = 2.023771 g / cm^3
# Si number density = 20.283875 Si / 1000 Ang^3
#
#
#
# Elastic Constant Matrix: (Units=GPa)
#
#
# Indices 1 2 3 4 5 6 
#
# 1 107.9427 36.3921 14.4423 0.0000 0.0000 0.0000
# 2 36.3921 107.9255 58.6318 0.0000 0.0000 0.0000
# 3 14.4423 58.6318 94.9675 0.0000 0.0000 0.0000
# 4 0.0000 0.0000 0.0000 28.7415 0.0000 0.0000
# 5 0.0000 0.0000 0.0000 0.0000 33.6715 0.0000
# 6 0.0000 0.0000 0.0000 0.0000 0.0000 35.2420
#
#
#
# Elastic Compliance Matrix: (Units=1/GPa)
#
#
# Indices 1 2 3 4 5 6 
#
# 1 0.010502 -0.004023 0.000887 0.000000 0.000000 0.000000
# 2 -0.004023 0.015483 -0.008947 0.000000 0.000000 0.000000
# 3 0.000887 -0.008947 0.015919 0.000000 0.000000 0.000000
# 4 0.000000 0.000000 0.000000 0.034793 0.000000 0.000000
# 5 0.000000 0.000000 0.000000 0.000000 0.029699 0.000000
# 6 0.000000 0.000000 0.000000 0.000000 0.000000 0.028375
#
#
# Mechanical properties :
#
#
# Convention : Reuss Voigt Hill
#
# Bulk Modulus (GPa) = 56.37995 58.86313 57.62154
# Shear Modulus (GPa) = 30.33073 32.95563 31.64318
#
# Velocity S-wave (km/s) = 3.87112 4.03515 3.95399
# Velocity P-wave (km/s) = 6.91640 7.12690 7.02244
#
# Compressibility (1/GPa) = 0.01773680
#
# Stress axis : x y z
#
# Youngs Moduli (GPa) = 95.22158 64.58803 62.81831
#
# Poissons Ratio (x) = 0.25983 -0.05569
# Poissons Ratio (y) = 0.38306 0.56204
# Poissons Ratio (z) = -0.08442 0.57788
#
# Static dielectric constant tensor:
#      x y z
#    x 1.839400 0.000000 0.000000 
#    y 0.000000 1.705120 0.000000 
#    z 0.000000 0.000000 1.686390 
# 
# From -- ./inp_files/9885.got.cif
#   From: 2010.05.17/outbox.cif.g08.bks.cpg/sg60_5_cif.got.tgz:9885.got - 2010.06.03 14:59:27.
