data_PCOD9454572
_publ_section_title
;
Structure prediction by ZEFSAII (Michael W. Deem and Ramdas Pophale) SiO2 
 PCOD9454572
Probable space group: P B C N
;
_chemical_formula_sum "Si O2"
_cell_formula_units_Z 48
_cell_length_a 27.697724
_cell_length_b 17.487460
_cell_length_c 5.190132
_cell_angle_alpha 90.000000
_cell_angle_beta 90.000000
_cell_angle_gamma 90.000000
_cell_volume 2513.907078
_symmetry_space_group_name_H-M "P B C N"
_symmetry_group_IT_number 60
_symmetry_cell_setting 'orthorhombic'
loop_
_space_group_symop_operation_xyz
x,y,z
1/2-x,1/2-y,1/2+z
1/2+x,1/2-y,-z
-x,y,1/2-z
-x,-y,-z
1/2+x,1/2+y,1/2-z
1/2-x,1/2+y,z
x,-y,1/2+z
loop_
_atom_site_type_symbol
_atom_site_label
_atom_site_fract_x
_atom_site_fract_y
_atom_site_fract_z
Si Si1 0.461530 0.172478 0.050189
Si Si2 0.300716 0.449177 0.691614
Si Si3 0.500000 0.684672 0.250000
Si Si4 0.262344 0.795704 0.628255
Si Si5 0.369363 0.246319 0.226659
Si Si6 0.500000 0.947516 0.250000
Si Si7 0.891224 0.152397 0.276665
O O1 0.500000 0.140871 0.250000
O O2 0.411367 0.185801 0.184137
O O3 0.483243 0.254721 0.967434
O O4 0.457834 0.114871 0.809435
O O5 0.292031 0.507589 0.458972
O O6 0.266801 0.374501 0.660106
O O7 0.356320 0.419809 0.686908
O O8 0.449510 0.640566 0.200063
O O9 0.241359 0.735480 0.836993
O O10 0.318514 0.795240 0.700257
O O11 0.376628 0.288446 0.497809
O O12 0.377013 0.308800 0.997028
O O13 0.500000 0.000000 0.500000
#
# Coordination Sequence:
#
# PCOD9454572 Si02
#       7
#     8   8   4   8   8   4   8
#     4  10  19  35  59  90 119 149 203 269 310 352
#     4  12  25  42  63  93 133 170 204 263 332 383
#     4   9  20  34  60  94 122 155 206 274 302 351
#     4  12  22  42  67  94 120 162 222 266 308 380
#     4  11  21  37  63  97 115 154 215 274 303 358
#     4  11  22  36  54  76 118 169 202 228 304 399
#     4  11  21  38  63  92 128 162 209 256 315 374
#
# _framework density 19.093782999999998
#
# number of rings (size 3 to 8) (size 9 to 14) (size 15 to 20)
#    0.000    1.000    5.833    2.000    0.000    0.000 
#    0.000    2.500    0.000    0.000    0.000    0.000 
#    0.000    0.000    0.000    0.000    0.000    0.000 
#
# Total GULP energy -267583.846976 kJ/mol
# GULP energy per Si atom -5574.663479 kJ/mol
# Density = 1.905033 g / cm^3
# Si number density = 19.093783 Si / 1000 Ang^3
#
#
#
# Elastic Constant Matrix: (Units=GPa)
#
#
# Indices 1 2 3 4 5 6 
#
# 1 126.6336 12.4438 -10.4468 0.0000 0.0000 0.0000
# 2 12.4438 49.1947 1.0852 0.0000 0.0000 0.0000
# 3 -10.4468 1.0852 69.4433 0.0000 0.0000 0.0000
# 4 0.0000 0.0000 0.0000 36.6718 0.0000 0.0000
# 5 0.0000 0.0000 0.0000 0.0000 23.0284 0.0000
# 6 0.0000 0.0000 0.0000 0.0000 0.0000 8.0707
#
#
#
# Elastic Compliance Matrix: (Units=1/GPa)
#
#
# Indices 1 2 3 4 5 6 
#
# 1 0.008208 -0.002104 0.001268 0.000000 0.000000 0.000000
# 2 -0.002104 0.020874 -0.000643 0.000000 0.000000 0.000000
# 3 0.001268 -0.000643 0.014601 0.000000 0.000000 0.000000
# 4 0.000000 0.000000 0.000000 0.027269 0.000000 0.000000
# 5 0.000000 0.000000 0.000000 0.000000 0.043425 0.000000
# 6 0.000000 0.000000 0.000000 0.000000 0.000000 0.123905
#
#
# Mechanical properties :
#
#
# Convention : Reuss Voigt Hill
#
# Bulk Modulus (GPa) = 24.55529 27.93733 26.24631
# Shear Modulus (GPa) = 19.62209 29.70014 24.66111
#
# Velocity S-wave (km/s) = 3.20921 3.94825 3.59775
# Velocity P-wave (km/s) = 5.15948 5.95384 5.57084
#
# Compressibility (1/GPa) = 0.04072443
#
# Stress axis : x y z
#
# Youngs Moduli (GPa) = 121.83006 47.90685 68.48850
#
# Poissons Ratio (x) = 0.10081 -0.08682
# Poissons Ratio (y) = 0.25636 0.04402
# Poissons Ratio (z) = -0.15444 0.03079
#
# Static dielectric constant tensor:
#      x y z
#    x 1.742940 0.000000 0.000000 
#    y 0.000000 1.676480 0.000000 
#    z 0.000000 0.000000 1.717340 
# 
# From -- ./inp_files/2563.got.cif
#   From: 2010.05.17/outbox.cif.g08.bks.cpg/sg60_2_cif.got.tgz:2563.got - 2010.06.03 14:59:27.
