data_PCOD9454620
_publ_section_title
;
Structure prediction by ZEFSAII (Michael W. Deem and Ramdas Pophale) SiO2 
 PCOD9454620
Probable space group: P B C N
;
_chemical_formula_sum "Si O2"
_cell_formula_units_Z 44
_cell_length_a 8.772473
_cell_length_b 16.052117
_cell_length_c 12.332382
_cell_angle_alpha 90.000000
_cell_angle_beta 90.000000
_cell_angle_gamma 90.000000
_cell_volume 1736.606113
_symmetry_space_group_name_H-M "P B C N"
_symmetry_group_IT_number 60
_symmetry_cell_setting 'orthorhombic'
loop_
_space_group_symop_operation_xyz
x,y,z
1/2-x,1/2-y,1/2+z
1/2+x,1/2-y,-z
-x,y,1/2-z
-x,-y,-z
1/2+x,1/2+y,1/2-z
1/2-x,1/2+y,z
x,-y,1/2+z
loop_
_atom_site_type_symbol
_atom_site_label
_atom_site_fract_x
_atom_site_fract_y
_atom_site_fract_z
Si Si1 0.500000 0.018806 0.750000
Si Si2 0.216055 0.375878 0.799369
Si Si3 0.000000 0.242367 0.750000
Si Si4 0.088135 0.192954 0.528579
Si Si5 0.751554 0.641386 0.462004
Si Si6 0.251386 0.457924 0.084845
Si Si7 0.500000 0.465584 0.750000
O O1 0.609930 0.955777 0.685419
O O2 0.389942 0.062548 0.664184
O O3 0.221165 0.358628 0.667224
O O4 0.387973 0.404390 0.814526
O O5 0.115801 0.295571 0.825764
O O6 0.910302 0.192018 0.839742
O O7 0.141358 0.284860 0.491401
O O8 0.213936 0.120877 0.509103
O O9 0.921133 0.166054 0.490796
O O10 0.776750 0.543109 0.483896
O O11 0.395630 0.483787 0.163846
#
# Coordination Sequence:
#
# PCOD9454620 Si02
#       7
#     4   8   4   8   8   8   4
#     4   7  14  30  52  75 108 144 184 231 276 335
#     4   8  15  32  54  80 111 148 185 229 287 340
#     4   9  19  34  56  81 111 148 193 243 290 339
#     4  11  21  38  58  84 115 151 195 242 290 347
#     4   9  21  37  55  79 116 153 187 234 291 347
#     4  10  19  36  57  83 116 152 192 238 286 339
#     4   8  15  28  54  86 111 144 189 230 276 336
#
# _framework density 25.336774999999999
#
# number of rings (size 3 to 8) (size 9 to 14) (size 15 to 20)
#    0.000    3.273    0.000    2.182    0.000    2.909 
#    0.000   14.545    0.000    0.000    0.000    0.000 
#    0.000    0.000    0.000    0.000    0.000    0.000 
#
# Total GULP energy -245328.220906 kJ/mol
# GULP energy per Si atom -5575.641384 kJ/mol
# Density = 2.527911 g / cm^3
# Si number density = 25.336775 Si / 1000 Ang^3
#
#
#
# Elastic Constant Matrix: (Units=GPa)
#
#
# Indices 1 2 3 4 5 6 
#
# 1 145.1869 34.0053 21.3062 0.0000 0.0000 0.0000
# 2 34.0053 129.2474 15.0344 0.0000 0.0000 0.0000
# 3 21.3062 15.0344 33.1639 0.0000 0.0000 0.0000
# 4 0.0000 0.0000 0.0000 15.2923 0.0000 0.0000
# 5 0.0000 0.0000 0.0000 0.0000 38.8601 0.0000
# 6 0.0000 0.0000 0.0000 0.0000 0.0000 12.2815
#
#
#
# Elastic Compliance Matrix: (Units=1/GPa)
#
#
# Indices 1 2 3 4 5 6 
#
# 1 0.007895 -0.001570 -0.004361 0.000000 0.000000 0.000000
# 2 -0.001570 0.008480 -0.002836 0.000000 0.000000 0.000000
# 3 -0.004361 -0.002836 0.034240 0.000000 0.000000 0.000000
# 4 0.000000 0.000000 0.000000 0.065393 0.000000 0.000000
# 5 0.000000 0.000000 0.000000 0.000000 0.025733 0.000000
# 6 0.000000 0.000000 0.000000 0.000000 0.000000 0.081423
#
#
# Mechanical properties :
#
#
# Convention : Reuss Voigt Hill
#
# Bulk Modulus (GPa) = 30.22695 49.81000 40.01847
# Shear Modulus (GPa) = 19.86294 29.10359 24.48326
#
# Velocity S-wave (km/s) = 2.80296 3.39288 3.11193
# Velocity P-wave (km/s) = 4.73618 5.92036 5.36107
#
# Compressibility (1/GPa) = 0.03308307
#
# Stress axis : x y z
#
# Youngs Moduli (GPa) = 126.65723 117.92413 29.20537
#
# Poissons Ratio (x) = 0.18515 0.12735
# Poissons Ratio (y) = 0.19886 0.08282
# Poissons Ratio (z) = 0.55230 0.33439
#
# Static dielectric constant tensor:
#      x y z
#    x 2.051370 0.000000 0.000000 
#    y 0.000000 2.119090 0.000000 
#    z 0.000000 0.000000 2.263370 
# 
# From -- ./inp_files/14948.got.cif
#   From: 2010.05.17/outbox.cif.g08.bks.cpg/sg60_8_cif.got.tgz:14948.got - 2010.06.03 14:59:27.
