data_PCOD9454579
_publ_section_title
;
Structure prediction by ZEFSAII (Michael W. Deem and Ramdas Pophale) SiO2 
 PCOD9454579
Probable space group: P B C N
;
_chemical_formula_sum "Si O2"
_cell_formula_units_Z 24
_cell_length_a 7.891218
_cell_length_b 11.441268
_cell_length_c 11.003489
_cell_angle_alpha 90.000000
_cell_angle_beta 90.000000
_cell_angle_gamma 90.000000
_cell_volume 993.455946
_symmetry_space_group_name_H-M "P B C N"
_symmetry_group_IT_number 60
_symmetry_cell_setting 'orthorhombic'
loop_
_space_group_symop_operation_xyz
x,y,z
1/2-x,1/2-y,1/2+z
1/2+x,1/2-y,-z
-x,y,1/2-z
-x,-y,-z
1/2+x,1/2+y,1/2-z
1/2-x,1/2+y,z
x,-y,1/2+z
loop_
_atom_site_type_symbol
_atom_site_label
_atom_site_fract_x
_atom_site_fract_y
_atom_site_fract_z
Si Si1 0.439042 0.044406 0.127446
Si Si2 0.603163 0.336598 0.873546
Si Si3 0.070709 0.190893 0.625202
O O1 0.500000 0.983181 0.250000
O O2 0.237206 0.057382 0.130155
O O3 0.510322 0.177437 0.130307
O O4 0.500000 0.000000 0.000000
O O5 0.500000 0.331252 0.750000
O O6 0.729581 0.223396 0.877708
O O7 0.492579 0.352071 0.994559
O O8 0.000000 0.134090 0.750000
#
# Coordination Sequence:
#
# PCOD9454579 Si02
#       3
#     8   8   8
#     4   9  21  39  57  82 121 159 197 238 294 342
#     4  10  19  35  61  86 116 151 195 245 290 350
#     4   9  19  34  59  87 116 146 201 239 298 342
#
# _framework density 24.158093000000001
#
# number of rings (size 3 to 8) (size 9 to 14) (size 15 to 20)
#    2.000    0.667    0.000    2.000    0.000    1.333 
#    0.000    1.667    0.000    0.000    0.000    0.000 
#    0.000    0.000    0.000    0.000    0.000    0.000 
#
# Total GULP energy -133904.551343 kJ/mol
# GULP energy per Si atom -5579.356306 kJ/mol
# Density = 2.410311 g / cm^3
# Si number density = 24.158093 Si / 1000 Ang^3
#
#
#
# Elastic Constant Matrix: (Units=GPa)
#
#
# Indices 1 2 3 4 5 6 
#
# 1 177.6981 19.2454 150.6312 0.0000 0.0000 0.0000
# 2 19.2454 38.3748 34.3309 0.0000 0.0000 0.0000
# 3 150.6312 34.3309 338.2592 0.0000 0.0000 0.0000
# 4 0.0000 0.0000 0.0000 6.5818 0.0000 0.0000
# 5 0.0000 0.0000 0.0000 0.0000 67.8519 0.0000
# 6 0.0000 0.0000 0.0000 0.0000 0.0000 23.2096
#
#
#
# Elastic Compliance Matrix: (Units=1/GPa)
#
#
# Indices 1 2 3 4 5 6 
#
# 1 0.009077 -0.001030 -0.003938 0.000000 0.000000 0.000000
# 2 -0.001030 0.028778 -0.002462 0.000000 0.000000 0.000000
# 3 -0.003938 -0.002462 0.004960 0.000000 0.000000 0.000000
# 4 0.000000 0.000000 0.000000 0.151935 0.000000 0.000000
# 5 0.000000 0.000000 0.000000 0.000000 0.014738 0.000000
# 6 0.000000 0.000000 0.000000 0.000000 0.000000 0.043086
#
#
# Mechanical properties :
#
#
# Convention : Reuss Voigt Hill
#
# Bulk Modulus (GPa) = 35.77097 106.97192 71.37144
# Shear Modulus (GPa) = 18.06683 42.87030 30.46857
#
# Velocity S-wave (km/s) = 2.73767 4.21714 3.55521
# Velocity P-wave (km/s) = 4.98320 8.25157 6.81618
#
# Compressibility (1/GPa) = 0.02795563
#
# Stress axis : x y z
#
# Youngs Moduli (GPa) = 110.17111 34.74892 201.62720
#
# Poissons Ratio (x) = 0.03578 0.79391
# Poissons Ratio (y) = 0.11342 0.49646
# Poissons Ratio (z) = 0.43380 0.08556
#
# Static dielectric constant tensor:
#      x y z
#    x 1.895980 0.000000 0.000000 
#    y 0.000000 2.129610 0.000000 
#    z 0.000000 0.000000 1.897470 
# 
# From -- ./inp_files/3307.got.cif
#   From: 2010.05.17/outbox.cif.g08.bks.cpg/sg60_2_cif.got.tgz:3307.got - 2010.06.03 14:59:27.
