data_PCOD9454138
_publ_section_title
;
Structure prediction by ZEFSAII (Michael W. Deem and Ramdas Pophale) SiO2 
 PCOD9454138
Probable space group: P B C N
;
_chemical_formula_sum "Si O2"
_cell_formula_units_Z 64
_cell_length_a 12.471360
_cell_length_b 14.491602
_cell_length_c 16.824496
_cell_angle_alpha 90.000000
_cell_angle_beta 90.000000
_cell_angle_gamma 90.000000
_cell_volume 3040.690918
_symmetry_space_group_name_H-M "P B C N"
_symmetry_group_IT_number 60
_symmetry_cell_setting 'orthorhombic'
loop_
_space_group_symop_operation_xyz
x,y,z
1/2-x,1/2-y,1/2+z
1/2+x,1/2-y,-z
-x,y,1/2-z
-x,-y,-z
1/2+x,1/2+y,1/2-z
1/2-x,1/2+y,z
x,-y,1/2+z
loop_
_atom_site_type_symbol
_atom_site_label
_atom_site_fract_x
_atom_site_fract_y
_atom_site_fract_z
Si Si1 0.047462 0.861982 0.028598
Si Si2 0.705141 0.095241 0.369519
Si Si3 0.131792 0.569383 0.865803
Si Si4 0.950025 0.705093 0.930408
Si Si5 0.023921 0.582723 0.439113
Si Si6 0.668076 0.460364 0.017121
Si Si7 0.703616 0.113497 0.804705
Si Si8 0.604589 0.264608 0.306072
O O1 0.073649 0.797799 0.104093
O O2 0.143774 0.932764 0.006751
O O3 0.005144 0.801393 0.953994
O O4 0.944130 0.923555 0.050373
O O5 0.593039 0.110593 0.413842
O O6 0.796453 0.095481 0.437234
O O7 0.687842 0.177204 0.306189
O O8 0.706669 0.990543 0.338361
O O9 0.082220 0.466382 0.866484
O O10 0.143255 0.605491 0.777729
O O11 0.049525 0.641106 0.904660
O O12 0.238283 0.557091 0.919123
O O13 0.857435 0.682165 0.866452
O O14 0.911933 0.661124 0.014802
O O15 0.000000 0.500000 0.500000
O O16 0.821068 0.149567 0.781715
O O17 0.500000 0.250646 0.250000
#
# Coordination Sequence:
#
# PCOD9454138 Si02
#       8
#     8   8   8   8   8   8   8   8
#     4  11  24  41  68  89 133 182 226 287 330 424
#     4  12  22  42  70  98 126 178 230 275 345 411
#     4  11  22  40  64  96 131 166 217 285 343 398
#     4  11  21  39  66  99 126 168 228 286 344 402
#     4  10  18  35  64  96 118 156 218 282 320 392
#     4  11  22  44  66  93 126 182 234 269 347 413
#     4  12  25  42  68  95 141 177 217 291 348 418
#     4  12  27  44  65 103 142 178 228 285 355 415
#
# _framework density 21.047847999999998
#
# number of rings (size 3 to 8) (size 9 to 14) (size 15 to 20)
#    0.000    0.750    7.500    1.875    1.750    0.000 
#    2.250    0.000    0.000    0.000    0.000    0.000 
#    0.000    0.000    0.000    0.000    0.000    0.000 
#
# Total GULP energy -356453.151634 kJ/mol
# GULP energy per Si atom -5569.580494 kJ/mol
# Density = 2.099994 g / cm^3
# Si number density = 21.047848 Si / 1000 Ang^3
#
#
#
# Elastic Constant Matrix: (Units=GPa)
#
#
# Indices 1 2 3 4 5 6 
#
# 1 74.5177 20.4829 5.3139 0.0000 0.0000 0.0000
# 2 20.4829 82.6557 22.8400 0.0000 0.0000 0.0000
# 3 5.3139 22.8400 44.8023 0.0000 0.0000 0.0000
# 4 0.0000 0.0000 0.0000 11.6970 0.0000 0.0000
# 5 0.0000 0.0000 0.0000 0.0000 32.2295 0.0000
# 6 0.0000 0.0000 0.0000 0.0000 0.0000 33.5296
#
#
#
# Elastic Compliance Matrix: (Units=1/GPa)
#
#
# Indices 1 2 3 4 5 6 
#
# 1 0.014401 -0.003605 0.000129 0.000000 0.000000 0.000000
# 2 -0.003605 0.014984 -0.007211 0.000000 0.000000 0.000000
# 3 0.000129 -0.007211 0.025981 0.000000 0.000000 0.000000
# 4 0.000000 0.000000 0.000000 0.085492 0.000000 0.000000
# 5 0.000000 0.000000 0.000000 0.000000 0.031027 0.000000
# 6 0.000000 0.000000 0.000000 0.000000 0.000000 0.029824
#
#
# Mechanical properties :
#
#
# Convention : Reuss Voigt Hill
#
# Bulk Modulus (GPa) = 29.41711 33.24993 31.33352
# Shear Modulus (GPa) = 21.32972 25.71381 23.52177
#
# Velocity S-wave (km/s) = 3.18684 3.49905 3.34659
# Velocity P-wave (km/s) = 5.24861 5.67063 5.46370
#
# Compressibility (1/GPa) = 0.03399383
#
# Stress axis : x y z
#
# Youngs Moduli (GPa) = 69.43877 66.73645 38.48929
#
# Poissons Ratio (x) = 0.24055 -0.00498
# Poissons Ratio (y) = 0.25029 0.27756
# Poissons Ratio (z) = -0.00899 0.48126
#
# Static dielectric constant tensor:
#      x y z
#    x 1.753230 0.000000 0.000000 
#    y 0.000000 1.630620 0.000000 
#    z 0.000000 0.000000 1.811530 
# 
# From -- ./inp_files/20222.got.cif
#   From: 2010.05.17/outbox.cif.g08.bks.cpg/sg60_11_cif.got.tgz:20222.got - 2010.06.03 14:59:27.
