data_PCOD9454691
_publ_section_title
;
Structure prediction by ZEFSAII (Michael W. Deem and Ramdas Pophale) SiO2 
 PCOD9454691
Probable space group: P B C N
;
_chemical_formula_sum "Si O2"
_cell_formula_units_Z 48
_cell_length_a 22.514351
_cell_length_b 8.051033
_cell_length_c 12.551685
_cell_angle_alpha 90.000000
_cell_angle_beta 90.000000
_cell_angle_gamma 90.000000
_cell_volume 2275.165905
_symmetry_space_group_name_H-M "P B C N"
_symmetry_group_IT_number 60
_symmetry_cell_setting 'orthorhombic'
loop_
_space_group_symop_operation_xyz
x,y,z
1/2-x,1/2-y,1/2+z
1/2+x,1/2-y,-z
-x,y,1/2-z
-x,-y,-z
1/2+x,1/2+y,1/2-z
1/2-x,1/2+y,z
x,-y,1/2+z
loop_
_atom_site_type_symbol
_atom_site_label
_atom_site_fract_x
_atom_site_fract_y
_atom_site_fract_z
Si Si1 0.453071 0.302623 0.343715
Si Si2 0.797038 0.112648 0.211441
Si Si3 0.850944 0.811490 0.326867
Si Si4 0.048068 0.437047 0.342719
Si Si5 0.319447 0.017507 0.750919
Si Si6 0.091386 0.882451 0.951164
O O1 0.500000 0.340639 0.250000
O O2 0.391767 0.294523 0.277764
O O3 0.444425 0.449839 0.426453
O O4 0.465931 0.119554 0.389832
O O5 0.799159 0.292998 0.266333
O O6 0.730653 0.065720 0.172110
O O7 0.847770 0.112965 0.120429
O O8 0.810687 0.969046 0.297452
O O9 0.823455 0.626417 0.339427
O O10 0.889737 0.858879 0.427991
O O11 0.114186 0.456190 0.294216
O O12 0.053195 0.276546 0.415707
O O13 0.000000 0.409214 0.250000
#
# Coordination Sequence:
#
# PCOD9454691 Si02
#       6
#     8   8   8   8   8   8
#     4   9  19  37  58  81 119 157 189 239 292 339
#     4  10  20  38  57  79 116 150 183 236 296 340
#     4  10  21  37  55  87 117 146 198 238 287 348
#     4   9  19  37  59  82 112 152 194 235 292 340
#     4  10  19  37  58  76 111 151 185 237 286 342
#     4  10  21  36  58  87 112 152 195 236 288 350
#
# _framework density 21.097362
#
# number of rings (size 3 to 8) (size 9 to 14) (size 15 to 20)
#    0.000    2.333    1.667    0.500    0.000    2.000 
#    6.000    7.500    0.000    0.000    0.000    0.000 
#    0.000    0.000    0.000    0.000    0.000    0.000 
#
# Total GULP energy -267325.059073 kJ/mol
# GULP energy per Si atom -5569.272064 kJ/mol
# Density = 2.104934 g / cm^3
# Si number density = 21.097362 Si / 1000 Ang^3
#
#
#
# Elastic Constant Matrix: (Units=GPa)
#
#
# Indices 1 2 3 4 5 6 
#
# 1 90.8553 31.2001 7.4004 0.0000 0.0000 0.0000
# 2 31.2001 139.9027 41.8770 0.0000 0.0000 0.0000
# 3 7.4004 41.8770 44.2367 0.0000 0.0000 0.0000
# 4 0.0000 0.0000 0.0000 -5.0010 0.0000 0.0000
# 5 0.0000 0.0000 0.0000 0.0000 25.2823 0.0000
# 6 0.0000 0.0000 0.0000 0.0000 0.0000 32.6264
#
#
#
# Elastic Compliance Matrix: (Units=1/GPa)
#
#
# Indices 1 2 3 4 5 6 
#
# 1 0.011936 -0.002880 0.000730 0.000000 0.000000 0.000000
# 2 -0.002880 0.010669 -0.009618 0.000000 0.000000 0.000000
# 3 0.000730 -0.009618 0.031589 0.000000 0.000000 0.000000
# 4 0.000000 0.000000 0.000000 -0.199959 0.000000 0.000000
# 5 0.000000 0.000000 0.000000 0.000000 0.039553 0.000000
# 6 0.000000 0.000000 0.000000 0.000000 0.000000 0.030650
#
#
# Mechanical properties :
#
#
# Convention : Reuss Voigt Hill
#
# Bulk Modulus (GPa) = 32.61926 48.43887 40.52906
# Shear Modulus (GPa) = -119.60305 23.54935 -48.02685
#
# Velocity S-wave (km/s) = -7.53751 3.34462 -4.77638
# Velocity P-wave (km/s) = 7.76255 6.15831 3.34159
#
# Compressibility (1/GPa) = 0.03065674
#
# Stress axis : x y z
#
# Youngs Moduli (GPa) = 83.77876 93.72762 31.65688
#
# Poissons Ratio (x) = 0.26998 -0.02311
# Poissons Ratio (y) = 0.24132 0.30448
# Poissons Ratio (z) = -0.06115 0.90149
#
# Static dielectric constant tensor:
#      x y z
#    x 1.893180 0.000000 0.000000 
#    y 0.000000 1.807530 0.000000 
#    z 0.000000 0.000000 -2.675360 
# 
# From -- ./inp_files/13046.got.cif
#   From: 2010.05.17/outbox.cif.g08.bks.cpg/sg60_7_cif.got.tgz:13046.got - 2010.06.03 14:59:27.
