data_PCOD9454722
_publ_section_title
;
Structure prediction by ZEFSAII (Michael W. Deem and Ramdas Pophale) SiO2 
 PCOD9454722
Probable space group: P B C N
;
_chemical_formula_sum "Si O2"
_cell_formula_units_Z 48
_cell_length_a 8.192035
_cell_length_b 19.419630
_cell_length_c 14.090621
_cell_angle_alpha 90.000000
_cell_angle_beta 90.000000
_cell_angle_gamma 90.000000
_cell_volume 2241.624600
_symmetry_space_group_name_H-M "P B C N"
_symmetry_group_IT_number 60
_symmetry_cell_setting 'orthorhombic'
loop_
_space_group_symop_operation_xyz
x,y,z
1/2-x,1/2-y,1/2+z
1/2+x,1/2-y,-z
-x,y,1/2-z
-x,-y,-z
1/2+x,1/2+y,1/2-z
1/2-x,1/2+y,z
x,-y,1/2+z
loop_
_atom_site_type_symbol
_atom_site_label
_atom_site_fract_x
_atom_site_fract_y
_atom_site_fract_z
Si Si1 0.690855 0.359111 0.724899
Si Si2 0.271743 0.550638 0.567831
Si Si3 0.147037 0.912397 0.466711
Si Si4 0.695741 0.519423 0.728589
Si Si5 0.699176 0.790996 0.917289
Si Si6 0.337652 0.172744 0.470764
O O1 0.500000 0.359318 0.750000
O O2 0.745177 0.439384 0.718436
O O3 0.774925 0.318272 0.810804
O O4 0.725057 0.325748 0.622818
O O5 0.451022 0.582872 0.544913
O O6 0.295884 0.471407 0.539797
O O7 0.228100 0.552620 0.677966
O O8 0.148228 0.593672 0.504242
O O9 0.219118 0.936114 0.365695
O O10 0.204269 0.841157 0.510194
O O11 0.500000 0.518208 0.750000
O O12 0.510522 0.797131 0.942289
O O13 0.764027 0.715432 0.941686
#
# Coordination Sequence:
#
# PCOD9454722 Si02
#       6
#     8   8   8   8   8   8
#     4  11  21  42  69  94 123 165 211 260 324 389
#     4  10  19  37  64  93 125 165 211 260 316 377
#     4  10  19  37  64  93 125 165 211 260 316 377
#     4   9  18  34  63  96 125 163 209 256 314 379
#     4  12  26  43  63  93 130 172 215 264 318 378
#     4  12  26  43  63  93 130 172 215 264 318 378
#
# _framework density 21.413042000000001
#
# number of rings (size 3 to 8) (size 9 to 14) (size 15 to 20)
#    0.000    1.333    3.333    3.500    0.000    2.000 
#    0.000    5.833    0.000    0.000    0.000    0.000 
#    0.000    0.000    0.000    0.000    0.000    0.000 
#
# Total GULP energy -268390.021628 kJ/mol
# GULP energy per Si atom -5591.458784 kJ/mol
# Density = 2.136431 g / cm^3
# Si number density = 21.413042 Si / 1000 Ang^3
#
#
#
# Elastic Constant Matrix: (Units=GPa)
#
#
# Indices 1 2 3 4 5 6 
#
# 1 24.2548 -4.0423 -15.1193 0.0000 0.0000 0.0000
# 2 -4.0423 60.1159 1.5807 0.0000 0.0000 0.0000
# 3 -15.1193 1.5807 109.3286 0.0000 0.0000 0.0000
# 4 0.0000 0.0000 0.0000 -57.7089 0.0000 0.0000
# 5 0.0000 0.0000 0.0000 0.0000 22.0318 0.0000
# 6 0.0000 0.0000 0.0000 0.0000 0.0000 26.6715
#
#
#
# Elastic Compliance Matrix: (Units=1/GPa)
#
#
# Indices 1 2 3 4 5 6 
#
# 1 0.045619 0.002903 0.006267 0.000000 0.000000 0.000000
# 2 0.002903 0.016826 0.000158 0.000000 0.000000 0.000000
# 3 0.006267 0.000158 0.010011 0.000000 0.000000 0.000000
# 4 0.000000 0.000000 0.000000 -0.017328 0.000000 0.000000
# 5 0.000000 0.000000 0.000000 0.000000 0.045389 0.000000
# 6 0.000000 0.000000 0.000000 0.000000 0.000000 0.037493
#
#
# Mechanical properties :
#
#
# Convention : Reuss Voigt Hill
#
# Bulk Modulus (GPa) = 10.97560 17.61527 14.29543
# Shear Modulus (GPa) = 33.39465 12.28423 22.83944
#
# Velocity S-wave (km/s) = 3.95339 2.39776 3.26945
# Velocity P-wave (km/s) = 5.09666 3.98873 4.57634
#
# Compressibility (1/GPa) = 0.09111121
#
# Stress axis : x y z
#
# Youngs Moduli (GPa) = 21.92063 59.43338 99.88904
#
# Poissons Ratio (x) = -0.17252 -0.62599
# Poissons Ratio (y) = -0.06363 -0.01580
# Poissons Ratio (z) = -0.13737 -0.00940
#
# Static dielectric constant tensor:
#      x y z
#    x 1.785710 0.000000 0.000000 
#    y 0.000000 1.742170 0.000000 
#    z 0.000000 0.000000 1.773810 
# 
# From -- ./inp_files/15122.got.cif
#   From: 2010.05.17/outbox.cif.g08.bks.cpg/sg60_8_cif.got.tgz:15122.got - 2010.06.03 14:59:27.
