data_PCOD9454229
_publ_section_title
;
Structure prediction by ZEFSAII (Michael W. Deem and Ramdas Pophale) SiO2 
 PCOD9454229
Probable space group: P B C N
;
_chemical_formula_sum "Si O2"
_cell_formula_units_Z 44
_cell_length_a 12.795812
_cell_length_b 9.578203
_cell_length_c 17.386771
_cell_angle_alpha 90.000000
_cell_angle_beta 90.000000
_cell_angle_gamma 90.000000
_cell_volume 2130.938039
_symmetry_space_group_name_H-M "P B C N"
_symmetry_group_IT_number 60
_symmetry_cell_setting 'orthorhombic'
loop_
_space_group_symop_operation_xyz
x,y,z
1/2-x,1/2-y,1/2+z
1/2+x,1/2-y,-z
-x,y,1/2-z
-x,-y,-z
1/2+x,1/2+y,1/2-z
1/2-x,1/2+y,z
x,-y,1/2+z
loop_
_atom_site_type_symbol
_atom_site_label
_atom_site_fract_x
_atom_site_fract_y
_atom_site_fract_z
Si Si1 0.716687 0.762357 0.900773
Si Si2 0.562478 0.272960 0.855858
Si Si3 0.190158 0.081681 0.849739
Si Si4 0.806198 0.531289 0.802486
Si Si5 0.500000 0.479224 0.250000
Si Si6 0.661228 0.298209 0.570602
O O1 0.720139 0.622695 0.849724
O O2 0.841134 0.788342 0.915049
O O3 0.676742 0.888391 0.847910
O O4 0.661952 0.740825 0.981288
O O5 0.595689 0.135949 0.808184
O O6 0.563406 0.408908 0.802117
O O7 0.449921 0.258942 0.892759
O O8 0.175302 0.962489 0.913728
O O9 0.079549 0.102882 0.805462
O O10 0.266199 0.018491 0.783806
O O11 0.246901 0.214641 0.885764
#
# Coordination Sequence:
#
# PCOD9454229 Si02
#       6
#     8   8   8   8   4   8
#     4  10  21  39  61  89 120 159 201 250 296 364
#     4   9  21  38  66  81 125 167 193 237 326 355
#     4  11  21  39  63  88 119 157 205 249 294 367
#     4  10  19  39  62  88 116 160 206 242 295 363
#     4  10  18  40  60  94 112 166 198 248 310 354
#     4  11  23  41  61  89 125 159 199 251 313 355
#
# _framework density 20.648183
#
# number of rings (size 3 to 8) (size 9 to 14) (size 15 to 20)
#    1.091    0.727    1.818    4.364    0.000    0.727 
#    3.273    4.545    0.000    0.000    0.000    0.000 
#    0.000    0.000    0.000    0.000    0.000    0.000 
#
# Total GULP energy -245400.404394 kJ/mol
# GULP energy per Si atom -5577.281918 kJ/mol
# Density = 2.060119 g / cm^3
# Si number density = 20.648183 Si / 1000 Ang^3
#
#
#
# Elastic Constant Matrix: (Units=GPa)
#
#
# Indices 1 2 3 4 5 6 
#
# 1 52.0780 16.8524 -16.7940 0.0000 0.0000 0.0000
# 2 16.8524 49.0187 6.8773 0.0000 0.0000 0.0000
# 3 -16.7940 6.8773 53.9451 0.0000 0.0000 0.0000
# 4 0.0000 0.0000 0.0000 6.9934 0.0000 0.0000
# 5 0.0000 0.0000 0.0000 0.0000 27.3755 0.0000
# 6 0.0000 0.0000 0.0000 0.0000 0.0000 24.5429
#
#
#
# Elastic Compliance Matrix: (Units=1/GPa)
#
#
# Indices 1 2 3 4 5 6 
#
# 1 0.025409 -0.010025 0.009188 0.000000 0.000000 0.000000
# 2 -0.010025 0.024727 -0.006273 0.000000 0.000000 0.000000
# 3 0.009188 -0.006273 0.022198 0.000000 0.000000 0.000000
# 4 0.000000 0.000000 0.000000 0.142991 0.000000 0.000000
# 5 0.000000 0.000000 0.000000 0.000000 0.036529 0.000000
# 6 0.000000 0.000000 0.000000 0.000000 0.000000 0.040745
#
#
# Mechanical properties :
#
#
# Convention : Reuss Voigt Hill
#
# Bulk Modulus (GPa) = 17.20748 18.76814 17.98781
# Shear Modulus (GPa) = 15.32855 21.65612 18.49233
#
# Velocity S-wave (km/s) = 2.72760 3.24205 2.99589
# Velocity P-wave (km/s) = 4.27451 4.80872 4.54946
#
# Compressibility (1/GPa) = 0.05811426
#
# Stress axis : x y z
#
# Youngs Moduli (GPa) = 39.35637 40.44186 45.05009
#
# Poissons Ratio (x) = 0.40541 -0.41393
# Poissons Ratio (y) = 0.39453 0.28260
# Poissons Ratio (z) = -0.36161 0.25370
#
# Static dielectric constant tensor:
#      x y z
#    x 1.794430 0.000000 0.000000 
#    y 0.000000 1.713070 0.000000 
#    z 0.000000 0.000000 1.725620 
# 
# From -- ./inp_files/20436.got.cif
#   From: 2010.05.17/outbox.cif.g08.bks.cpg/sg60_11_cif.got.tgz:20436.got - 2010.06.03 14:59:27.
