data_PCOD9454074
_publ_section_title
;
Structure prediction by ZEFSAII (Michael W. Deem and Ramdas Pophale) SiO2 
 PCOD9454074
Probable space group: P B C N
;
_chemical_formula_sum "Si O2"
_cell_formula_units_Z 44
_cell_length_a 10.843040
_cell_length_b 14.880609
_cell_length_c 9.850335
_cell_angle_alpha 90.000000
_cell_angle_beta 90.000000
_cell_angle_gamma 90.000000
_cell_volume 1589.361783
_symmetry_space_group_name_H-M "P B C N"
_symmetry_group_IT_number 60
_symmetry_cell_setting 'orthorhombic'
loop_
_space_group_symop_operation_xyz
x,y,z
1/2-x,1/2-y,1/2+z
1/2+x,1/2-y,-z
-x,y,1/2-z
-x,-y,-z
1/2+x,1/2+y,1/2-z
1/2-x,1/2+y,z
x,-y,1/2+z
loop_
_atom_site_type_symbol
_atom_site_label
_atom_site_fract_x
_atom_site_fract_y
_atom_site_fract_z
Si Si1 0.449633 0.890401 0.967240
Si Si2 0.236276 0.152649 0.774425
Si Si3 0.598475 0.685112 0.460076
Si Si4 0.310891 0.144500 0.213873
Si Si5 0.500000 0.100046 0.750000
Si Si6 0.936652 0.071471 0.900337
O O1 0.581196 0.873677 0.894506
O O2 0.349809 0.910502 0.848451
O O3 0.399081 0.792337 0.023763
O O4 0.468171 0.946142 0.106674
O O5 0.177587 0.248431 0.738648
O O6 0.381323 0.157016 0.790102
O O7 0.201749 0.080641 0.656850
O O8 0.179181 0.137120 0.921733
O O9 0.667080 0.641563 0.330846
O O10 0.461671 0.657755 0.503862
O O11 0.000000 0.072674 0.750000
O O12 0.000000 0.000000 0.000000
#
# Coordination Sequence:
#
# PCOD9454074 Si02
#       6
#     8   8   8   8   4   8
#     4  10  20  31  51  85 125 156 183 230 300 375
#     4  10  20  33  58  82 121 155 190 243 303 361
#     4  10  18  35  59  83 118 157 191 246 297 355
#     4  10  18  34  53  85 122 158 189 228 306 374
#     4  12  20  32  52  88 124 152 184 234 304 372
#     4  10  22  43  61  81 110 157 208 252 295 342
#
# _framework density 27.684068
#
# number of rings (size 3 to 8) (size 9 to 14) (size 15 to 20)
#    0.000    1.818    5.455    0.000    0.000    0.000 
#    4.909    0.000    0.000    6.545    0.000    0.000 
#    0.000    0.000    0.000    0.000    0.000    0.000 
#
# Total GULP energy -245364.967399 kJ/mol
# GULP energy per Si atom -5576.476532 kJ/mol
# Density = 2.762106 g / cm^3
# Si number density = 27.684068 Si / 1000 Ang^3
#
#
#
# Elastic Constant Matrix: (Units=GPa)
#
#
# Indices 1 2 3 4 5 6 
#
# 1 111.7952 9.6888 33.5880 0.0000 0.0000 0.0000
# 2 9.6888 80.6990 24.2892 0.0000 0.0000 0.0000
# 3 33.5880 24.2892 186.6949 0.0000 0.0000 0.0000
# 4 0.0000 0.0000 0.0000 29.6130 0.0000 0.0000
# 5 0.0000 0.0000 0.0000 0.0000 52.7447 0.0000
# 6 0.0000 0.0000 0.0000 0.0000 0.0000 -3.1704
#
#
#
# Elastic Compliance Matrix: (Units=1/GPa)
#
#
# Indices 1 2 3 4 5 6 
#
# 1 0.009489 -0.000651 -0.001622 0.000000 0.000000 0.000000
# 2 -0.000651 0.012941 -0.001567 0.000000 0.000000 0.000000
# 3 -0.001622 -0.001567 0.005852 0.000000 0.000000 0.000000
# 4 0.000000 0.000000 0.000000 0.033769 0.000000 0.000000
# 5 0.000000 0.000000 0.000000 0.000000 0.018959 0.000000
# 6 0.000000 0.000000 0.000000 0.000000 0.000000 -0.315420
#
#
# Mechanical properties :
#
#
# Convention : Reuss Voigt Hill
#
# Bulk Modulus (GPa) = 48.53809 57.14678 52.84243
# Shear Modulus (GPa) = -22.74153 36.61234 6.93541
#
# Velocity S-wave (km/s) = -2.86923 3.64057 1.58450
# Velocity P-wave (km/s) = 2.56793 6.19346 4.74095
#
# Compressibility (1/GPa) = 0.02060238
#
# Stress axis : x y z
#
# Youngs Moduli (GPa) = 105.38760 77.27146 170.88073
#
# Poissons Ratio (x) = 0.05030 0.27724
# Poissons Ratio (y) = 0.06860 0.26770
# Poissons Ratio (z) = 0.17098 0.12105
#
# Static dielectric constant tensor:
#      x y z
#    x 2.217890 0.000000 0.000000 
#    y 0.000000 2.300830 0.000000 
#    z 0.000000 0.000000 2.215590 
# 
# From -- ./inp_files/4995.got.cif
#   From: 2010.05.17/outbox.cif.g08.bks.cpg/sg60_3_cif.got.tgz:4995.got - 2010.06.03 14:59:27.
