data_PCOD9454032
_publ_section_title
;
Structure prediction by ZEFSAII (Michael W. Deem and Ramdas Pophale) SiO2 
 PCOD9454032
Probable space group: P B C N
;
_chemical_formula_sum "Si O2"
_cell_formula_units_Z 56
_cell_length_a 5.501670
_cell_length_b 17.197980
_cell_length_c 28.463004
_cell_angle_alpha 90.000000
_cell_angle_beta 90.000000
_cell_angle_gamma 90.000000
_cell_volume 2693.101430
_symmetry_space_group_name_H-M "P B C N"
_symmetry_group_IT_number 60
_symmetry_cell_setting 'orthorhombic'
loop_
_space_group_symop_operation_xyz
x,y,z
1/2-x,1/2-y,1/2+z
1/2+x,1/2-y,-z
-x,y,1/2-z
-x,-y,-z
1/2+x,1/2+y,1/2-z
1/2-x,1/2+y,z
x,-y,1/2+z
loop_
_atom_site_type_symbol
_atom_site_label
_atom_site_fract_x
_atom_site_fract_y
_atom_site_fract_z
Si Si1 0.140660 0.656166 0.932891
Si Si2 0.880204 0.450536 0.147440
Si Si3 0.076025 0.099454 0.350983
Si Si4 0.365534 0.408923 0.025774
Si Si5 0.500000 0.988794 0.250000
Si Si6 0.793468 0.332482 0.563415
Si Si7 0.500000 0.411901 0.750000
Si Si8 0.809680 0.558510 0.425008
O O1 0.145885 0.631927 0.877794
O O2 0.369976 0.606528 0.952310
O O3 0.223339 0.743970 0.942779
O O4 0.865810 0.639851 0.951915
O O5 0.648212 0.507910 0.153320
O O6 0.986260 0.445117 0.199917
O O7 0.029681 0.500491 0.108478
O O8 0.270950 0.146257 0.381515
O O9 0.026751 0.131430 0.299529
O O10 0.854552 0.099029 0.386202
O O11 0.291968 0.497164 0.037319
O O12 0.372421 0.382818 0.971701
O O13 0.747883 0.039505 0.253741
O O14 0.051521 0.370307 0.550422
#
# Coordination Sequence:
#
# PCOD9454032 Si02
#       8
#     8   8   8   8   4   8   4   8
#     4  11  24  41  60  86 124 163 205 248 303 364
#     4   9  19  37  57  90 115 154 203 249 300 355
#     4  10  20  37  60  89 118 152 200 250 305 354
#     4  11  24  42  61  85 121 168 211 246 294 363
#     4  10  18  32  63  88 111 148 200 252 292 354
#     4  11  25  37  59  90 124 164 199 254 308 365
#     4  10  20  36  61  90 117 150 196 250 302 360
#     4  10  20  38  60  89 119 156 202 257 296 356
#
# _framework density 20.793869000000001
#
# number of rings (size 3 to 8) (size 9 to 14) (size 15 to 20)
#    0.000    1.714    2.857    1.286    4.000    0.571 
#    0.000    0.714    0.000    0.000    7.429    0.000 
#    0.000    0.000    0.000    0.000    0.000    0.000 
#
# Total GULP energy -311811.577613 kJ/mol
# GULP energy per Si atom -5568.063886 kJ/mol
# Density = 2.074654 g / cm^3
# Si number density = 20.793869 Si / 1000 Ang^3
#
#
#
# Elastic Constant Matrix: (Units=GPa)
#
#
# Indices 1 2 3 4 5 6 
#
# 1 82.1934 17.0936 13.5432 0.0000 0.0000 0.0000
# 2 17.0936 85.0862 5.1903 0.0000 0.0000 0.0000
# 3 13.5432 5.1903 128.0567 0.0000 0.0000 0.0000
# 4 0.0000 0.0000 0.0000 12.3326 0.0000 0.0000
# 5 0.0000 0.0000 0.0000 0.0000 26.6777 0.0000
# 6 0.0000 0.0000 0.0000 0.0000 0.0000 -9.7027
#
#
#
# Elastic Compliance Matrix: (Units=1/GPa)
#
#
# Indices 1 2 3 4 5 6 
#
# 1 0.012897 -0.002514 -0.001262 0.000000 0.000000 0.000000
# 2 -0.002514 0.012272 -0.000232 0.000000 0.000000 0.000000
# 3 -0.001262 -0.000232 0.007952 0.000000 0.000000 0.000000
# 4 0.000000 0.000000 0.000000 0.081086 0.000000 0.000000
# 5 0.000000 0.000000 0.000000 0.000000 0.037485 0.000000
# 6 0.000000 0.000000 0.000000 0.000000 0.000000 -0.103064
#
#
# Mechanical properties :
#
#
# Convention : Reuss Voigt Hill
#
# Bulk Modulus (GPa) = 39.83142 40.77670 40.30406
# Shear Modulus (GPa) = 76.90929 23.16213 50.03571
#
# Velocity S-wave (km/s) = 6.08825 3.34112 4.91070
# Velocity P-wave (km/s) = 8.28368 5.87679 7.18178
#
# Compressibility (1/GPa) = 0.02510581
#
# Stress axis : x y z
#
# Youngs Moduli (GPa) = 77.53610 81.48652 125.75610
#
# Poissons Ratio (x) = 0.20486 0.15872
# Poissons Ratio (y) = 0.19493 0.02911
# Poissons Ratio (z) = 0.09786 0.01887
#
# Static dielectric constant tensor:
#      x y z
#    x 1.900670 0.000000 0.000000 
#    y 0.000000 1.734840 0.000000 
#    z 0.000000 0.000000 1.835850 
# 
# From -- ./inp_files/25748.got.cif
#   From: 2010.05.17/outbox.cif.g08.bks.cpg/sg60_13_cif.got.tgz:25748.got - 2010.06.03 14:59:27.
