data_PCOD9454738
_publ_section_title
;
Structure prediction by ZEFSAII (Michael W. Deem and Ramdas Pophale) SiO2 
 PCOD9454738
Probable space group: P B C N
;
_chemical_formula_sum "Si O2"
_cell_formula_units_Z 56
_cell_length_a 14.224809
_cell_length_b 31.797521
_cell_length_c 5.139848
_cell_angle_alpha 90.000000
_cell_angle_beta 90.000000
_cell_angle_gamma 90.000000
_cell_volume 2324.823476
_symmetry_space_group_name_H-M "P B C N"
_symmetry_group_IT_number 60
_symmetry_cell_setting 'orthorhombic'
loop_
_space_group_symop_operation_xyz
x,y,z
1/2-x,1/2-y,1/2+z
1/2+x,1/2-y,-z
-x,y,1/2-z
-x,-y,-z
1/2+x,1/2+y,1/2-z
1/2-x,1/2+y,z
x,-y,1/2+z
loop_
_atom_site_type_symbol
_atom_site_label
_atom_site_fract_x
_atom_site_fract_y
_atom_site_fract_z
Si Si1 0.060182 0.200363 0.987514
Si Si2 0.112132 0.980130 0.690618
Si Si3 0.893356 0.608543 0.689064
Si Si4 0.107219 0.516009 0.564051
Si Si5 0.211646 0.738946 0.319025
Si Si6 0.299039 0.142249 0.319956
Si Si7 0.397075 0.386481 0.620371
O O1 0.093262 0.152551 0.923377
O O2 0.000000 0.198791 0.250000
O O3 0.144890 0.232681 0.006430
O O4 0.000000 0.216449 0.750000
O O5 0.125659 0.934797 0.555934
O O6 0.000000 0.985699 0.750000
O O7 0.149367 0.014031 0.483442
O O8 0.888658 0.560578 0.793166
O O9 0.860282 0.616197 0.393781
O O10 0.000000 0.622059 0.750000
O O11 0.828358 0.634154 0.885219
O O12 0.149782 0.515769 0.275953
O O13 0.000000 0.500000 0.500000
O O14 0.291385 0.736533 0.544621
O O15 0.184459 0.691197 0.260321
O O16 0.190530 0.129225 0.290715
O O17 0.500000 0.389757 0.750000
#
# Coordination Sequence:
#
# PCOD9454738 Si02
#       7
#     8   8   8   8   8   8   8
#     4  11  25  43  75 110 139 187 252 301 364 447
#     4   9  19  37  64  92 130 182 225 280 357 415
#     4  12  26  46  71 105 153 194 243 305 371 439
#     4  10  19  37  72 101 136 196 246 294 362 419
#     4  12  25  48  74  99 149 191 240 310 384 429
#     4  12  28  45  73 111 146 195 246 304 378 452
#     4  10  24  47  73 105 145 188 244 304 357 427
#
# _framework density 24.087848999999999
#
# number of rings (size 3 to 8) (size 9 to 14) (size 15 to 20)
#    0.000    1.143    2.857    3.000    4.000    6.857 
#    0.000    4.286    0.000    0.000    0.000    0.000 
#    0.000    0.000    0.000    0.000    0.000    0.000 
#
# Total GULP energy -312398.917107 kJ/mol
# GULP energy per Si atom -5578.552091 kJ/mol
# Density = 2.403302 g / cm^3
# Si number density = 24.087849 Si / 1000 Ang^3
#
#
#
# Elastic Constant Matrix: (Units=GPa)
#
#
# Indices 1 2 3 4 5 6 
#
# 1 49.3719 -6.5832 -10.5155 0.0000 0.0000 0.0000
# 2 -6.5832 91.5951 5.7271 0.0000 0.0000 0.0000
# 3 -10.5155 5.7271 128.8057 0.0000 0.0000 0.0000
# 4 0.0000 0.0000 0.0000 45.9015 0.0000 0.0000
# 5 0.0000 0.0000 0.0000 0.0000 25.1414 0.0000
# 6 0.0000 0.0000 0.0000 0.0000 0.0000 23.4244
#
#
#
# Elastic Compliance Matrix: (Units=1/GPa)
#
#
# Indices 1 2 3 4 5 6 
#
# 1 0.020788 0.001392 0.001635 0.000000 0.000000 0.000000
# 2 0.001392 0.011041 -0.000377 0.000000 0.000000 0.000000
# 3 0.001635 -0.000377 0.007914 0.000000 0.000000 0.000000
# 4 0.000000 0.000000 0.000000 0.021786 0.000000 0.000000
# 5 0.000000 0.000000 0.000000 0.000000 0.039775 0.000000
# 6 0.000000 0.000000 0.000000 0.000000 0.000000 0.042690
#
#
# Mechanical properties :
#
#
# Convention : Reuss Voigt Hill
#
# Bulk Modulus (GPa) = 22.20098 27.44772 24.82435
# Shear Modulus (GPa) = 32.52890 37.63642 35.08266
#
# Velocity S-wave (km/s) = 3.67880 3.95709 3.82048
# Velocity P-wave (km/s) = 5.22317 5.68310 5.45798
#
# Compressibility (1/GPa) = 0.04504306
#
# Stress axis : x y z
#
# Youngs Moduli (GPa) = 48.10399 90.56947 126.35989
#
# Poissons Ratio (x) = -0.12606 -0.20663
# Poissons Ratio (y) = -0.06695 0.04768
# Poissons Ratio (z) = -0.07866 0.03417
#
# Static dielectric constant tensor:
#      x y z
#    x 2.256970 0.000000 0.000000 
#    y 0.000000 1.938830 0.000000 
#    z 0.000000 0.000000 1.969650 
# 
# From -- ./inp_files/1469.got.cif
#   From: 2010.05.17/outbox.cif.g08.bks.cpg/sg60_1_cif.got.tgz:1469.got - 2010.06.03 14:59:27.
