data_PCOD9454599
_publ_section_title
;
Structure prediction by ZEFSAII (Michael W. Deem and Ramdas Pophale) SiO2 
 PCOD9454599
Probable space group: P B C N
;
_chemical_formula_sum "Si O2"
_cell_formula_units_Z 48
_cell_length_a 25.492273
_cell_length_b 5.592879
_cell_length_c 14.148276
_cell_angle_alpha 90.000000
_cell_angle_beta 90.000000
_cell_angle_gamma 90.000000
_cell_volume 2017.193257
_symmetry_space_group_name_H-M "P B C N"
_symmetry_group_IT_number 60
_symmetry_cell_setting 'orthorhombic'
loop_
_space_group_symop_operation_xyz
x,y,z
1/2-x,1/2-y,1/2+z
1/2+x,1/2-y,-z
-x,y,1/2-z
-x,-y,-z
1/2+x,1/2+y,1/2-z
1/2-x,1/2+y,z
x,-y,1/2+z
loop_
_atom_site_type_symbol
_atom_site_label
_atom_site_fract_x
_atom_site_fract_y
_atom_site_fract_z
Si Si1 0.383448 0.993153 0.717444
Si Si2 0.271955 0.855326 0.225496
Si Si3 0.266940 0.446053 0.009651
Si Si4 0.621952 0.348958 0.442923
Si Si5 0.536607 0.728589 0.417167
Si Si6 0.432521 0.031686 0.910477
O O1 0.361914 0.776551 0.654551
O O2 0.334533 0.166564 0.734137
O O3 0.427970 0.113700 0.653129
O O4 0.408513 0.924529 0.816422
O O5 0.246049 0.613587 0.264490
O O6 0.257696 0.891120 0.113798
O O7 0.239820 0.679948 0.965684
O O8 0.328836 0.502713 0.022512
O O9 0.567014 0.479558 0.421979
O O10 0.610686 0.156039 0.523956
O O11 0.476772 0.768461 0.386962
O O12 0.541184 0.832902 0.523283
#
# Coordination Sequence:
#
# PCOD9454599 Si02
#       6
#     8   8   8   8   8   8
#     4  11  22  39  68  94 129 174 223 276 343 404
#     4  10  19  36  63  94 131 171 219 273 333 405
#     4  10  19  35  64  97 130 176 226 272 333 407
#     4  11  22  39  69  94 130 184 219 275 347 408
#     4  10  22  43  66  90 133 171 221 285 343 403
#     4  10  24  42  61  99 132 168 227 286 335 408
#
# _framework density 23.795438999999998
#
# number of rings (size 3 to 8) (size 9 to 14) (size 15 to 20)
#    0.000    1.667    3.333    3.000    2.333    1.333 
#    0.000    6.667    0.000    0.000    0.000    0.000 
#    0.000    0.000    0.000    0.000    0.000    0.000 
#
# Total GULP energy -268217.953819 kJ/mol
# GULP energy per Si atom -5587.874038 kJ/mol
# Density = 2.374128 g / cm^3
# Si number density = 23.795439 Si / 1000 Ang^3
#
#
#
# Elastic Constant Matrix: (Units=GPa)
#
#
# Indices 1 2 3 4 5 6 
#
# 1 105.9096 2.8549 16.4027 0.0000 0.0000 0.0000
# 2 2.8549 102.6289 18.2924 0.0000 0.0000 0.0000
# 3 16.4027 18.2924 78.5693 0.0000 0.0000 0.0000
# 4 0.0000 0.0000 0.0000 14.4072 0.0000 0.0000
# 5 0.0000 0.0000 0.0000 0.0000 7.7356 0.0000
# 6 0.0000 0.0000 0.0000 0.0000 0.0000 27.3584
#
#
#
# Elastic Compliance Matrix: (Units=1/GPa)
#
#
# Indices 1 2 3 4 5 6 
#
# 1 0.009758 0.000096 -0.002060 0.000000 0.000000 0.000000
# 2 0.000096 0.010167 -0.002387 0.000000 0.000000 0.000000
# 3 -0.002060 -0.002387 0.013713 0.000000 0.000000 0.000000
# 4 0.000000 0.000000 0.000000 0.069410 0.000000 0.000000
# 5 0.000000 0.000000 0.000000 0.000000 0.129273 0.000000
# 6 0.000000 0.000000 0.000000 0.000000 0.000000 0.036552
#
#
# Mechanical properties :
#
#
# Convention : Reuss Voigt Hill
#
# Bulk Modulus (GPa) = 40.10153 40.24530 40.17341
# Shear Modulus (GPa) = 17.48943 26.53742 22.01342
#
# Velocity S-wave (km/s) = 2.71401 3.34313 3.04486
# Velocity P-wave (km/s) = 5.16821 5.64374 5.41120
#
# Compressibility (1/GPa) = 0.02493670
#
# Stress axis : x y z
#
# Youngs Moduli (GPa) = 102.47578 98.36102 72.92191
#
# Poissons Ratio (x) = -0.00941 0.15018
# Poissons Ratio (y) = -0.00980 0.17406
# Poissons Ratio (z) = 0.21105 0.23478
#
# Static dielectric constant tensor:
#      x y z
#    x 1.910380 0.000000 0.000000 
#    y 0.000000 1.983550 0.000000 
#    z 0.000000 0.000000 1.883670 
# 
# From -- ./inp_files/18040.got.cif
#   From: 2010.05.17/outbox.cif.g08.bks.cpg/sg60_10_cif.got.tgz:18040.got - 2010.06.03 14:59:27.
