data_PCOD9454409
_publ_section_title
;
Structure prediction by ZEFSAII (Michael W. Deem and Ramdas Pophale) SiO2 
 PCOD9454409
Probable space group: P B C N
;
_chemical_formula_sum "Si O2"
_cell_formula_units_Z 44
_cell_length_a 16.967260
_cell_length_b 22.237466
_cell_length_c 5.611391
_cell_angle_alpha 90.000000
_cell_angle_beta 90.000000
_cell_angle_gamma 90.000000
_cell_volume 2117.227583
_symmetry_space_group_name_H-M "P B C N"
_symmetry_group_IT_number 60
_symmetry_cell_setting 'orthorhombic'
loop_
_space_group_symop_operation_xyz
x,y,z
1/2-x,1/2-y,1/2+z
1/2+x,1/2-y,-z
-x,y,1/2-z
-x,-y,-z
1/2+x,1/2+y,1/2-z
1/2-x,1/2+y,z
x,-y,1/2+z
loop_
_atom_site_type_symbol
_atom_site_label
_atom_site_fract_x
_atom_site_fract_y
_atom_site_fract_z
Si Si1 0.105513 0.150702 0.869347
Si Si2 0.000000 0.798793 0.750000
Si Si3 0.299181 0.980660 0.731477
Si Si4 0.881311 0.025904 0.833247
Si Si5 0.347515 0.743536 0.496360
Si Si6 0.753417 0.347598 0.800931
O O1 0.105141 0.096851 0.682038
O O2 0.125501 0.213271 0.742696
O O3 0.029127 0.160848 0.029963
O O4 0.176770 0.134533 0.046555
O O5 0.923663 0.760836 0.672748
O O6 0.289506 0.909836 0.785909
O O7 0.336178 0.989338 0.467572
O O8 0.212097 0.010048 0.686512
O O9 0.912773 0.999290 0.583138
O O10 0.279713 0.699352 0.393750
O O11 0.312893 0.809101 0.537701
#
# Coordination Sequence:
#
# PCOD9454409 Si02
#       6
#     8   4   8   8   8   8
#     4  11  21  39  58  81 122 160 202 255 304 370
#     4  10  26  40  56  80 124 168 204 244 322 370
#     4  10  19  33  54  88 126 156 194 259 314 369
#     4  10  19  33  56  82 118 159 203 253 296 357
#     4  11  22  39  58  91 117 160 206 265 312 376
#     4  11  21  33  63  90 118 156 208 263 315 363
#
# _framework density 20.781894000000001
#
# number of rings (size 3 to 8) (size 9 to 14) (size 15 to 20)
#    0.000    1.455    5.455    2.727    2.545    0.000 
#    0.000    0.909    0.000    0.000    0.000    1.273 
#    0.000    0.000    0.000    0.000    0.000    0.000 
#
# Total GULP energy -245786.682852 kJ/mol
# GULP energy per Si atom -5586.060974 kJ/mol
# Density = 2.073459 g / cm^3
# Si number density = 20.781894 Si / 1000 Ang^3
#
#
#
# Elastic Constant Matrix: (Units=GPa)
#
#
# Indices 1 2 3 4 5 6 
#
# 1 31.3950 30.5287 2.4280 0.0000 0.0000 0.0000
# 2 30.5287 104.2334 10.8340 0.0000 0.0000 0.0000
# 3 2.4280 10.8340 100.4242 0.0000 0.0000 0.0000
# 4 0.0000 0.0000 0.0000 14.8468 0.0000 0.0000
# 5 0.0000 0.0000 0.0000 0.0000 22.1559 0.0000
# 6 0.0000 0.0000 0.0000 0.0000 0.0000 14.0022
#
#
#
# Elastic Compliance Matrix: (Units=1/GPa)
#
#
# Indices 1 2 3 4 5 6 
#
# 1 0.044548 -0.013082 0.000334 0.000000 0.000000 0.000000
# 2 -0.013082 0.013544 -0.001145 0.000000 0.000000 0.000000
# 3 0.000334 -0.001145 0.010073 0.000000 0.000000 0.000000
# 4 0.000000 0.000000 0.000000 0.067355 0.000000 0.000000
# 5 0.000000 0.000000 0.000000 0.000000 0.045135 0.000000
# 6 0.000000 0.000000 0.000000 0.000000 0.000000 0.071418
#
#
# Mechanical properties :
#
#
# Convention : Reuss Voigt Hill
#
# Bulk Modulus (GPa) = 24.76499 35.95933 30.36216
# Shear Modulus (GPa) = 17.04636 23.01842 20.03239
#
# Velocity S-wave (km/s) = 2.86711 3.33170 3.10810
# Velocity P-wave (km/s) = 4.78570 5.66931 5.24614
#
# Compressibility (1/GPa) = 0.04037959
#
# Stress axis : x y z
#
# Youngs Moduli (GPa) = 22.44791 73.83077 99.27342
#
# Poissons Ratio (x) = 0.96587 -0.03319
# Poissons Ratio (y) = 0.29367 0.11366
# Poissons Ratio (z) = -0.00750 0.08453
#
# Static dielectric constant tensor:
#      x y z
#    x 1.748990 0.000000 0.000000 
#    y 0.000000 1.713690 0.000000 
#    z 0.000000 0.000000 1.858450 
# 
# From -- ./inp_files/2043.got.cif
#   From: 2010.05.17/outbox.cif.g08.bks.cpg/sg60_2_cif.got.tgz:2043.got - 2010.06.03 14:59:27.
