data_PCOD9454499
_publ_section_title
;
Structure prediction by ZEFSAII (Michael W. Deem and Ramdas Pophale) SiO2 
 PCOD9454499
Probable space group: P B C N
;
_chemical_formula_sum "Si O2"
_cell_formula_units_Z 56
_cell_length_a 12.549561
_cell_length_b 21.792540
_cell_length_c 10.637449
_cell_angle_alpha 90.000000
_cell_angle_beta 90.000000
_cell_angle_gamma 90.000000
_cell_volume 2909.201994
_symmetry_space_group_name_H-M "P B C N"
_symmetry_group_IT_number 60
_symmetry_cell_setting 'orthorhombic'
loop_
_space_group_symop_operation_xyz
x,y,z
1/2-x,1/2-y,1/2+z
1/2+x,1/2-y,-z
-x,y,1/2-z
-x,-y,-z
1/2+x,1/2+y,1/2-z
1/2-x,1/2+y,z
x,-y,1/2+z
loop_
_atom_site_type_symbol
_atom_site_label
_atom_site_fract_x
_atom_site_fract_y
_atom_site_fract_z
Si Si1 0.915989 0.432707 0.336249
Si Si2 0.206234 0.452822 0.616462
Si Si3 0.888928 0.256140 0.819175
Si Si4 0.157534 0.627882 0.348014
Si Si5 0.283048 0.630077 0.614387
Si Si6 0.942716 0.358380 0.988643
Si Si7 0.068204 0.984848 0.122230
O O1 0.864828 0.487531 0.418306
O O2 0.808338 0.398505 0.294983
O O3 0.000000 0.467431 0.250000
O O4 0.993325 0.379769 0.390163
O O5 0.187153 0.428406 0.758232
O O6 0.162371 0.398762 0.529264
O O7 0.328551 0.471361 0.612829
O O8 0.834611 0.309353 0.733731
O O9 0.818342 0.196834 0.842039
O O10 0.916095 0.288936 0.952621
O O11 0.000000 0.240071 0.750000
O O12 0.227471 0.631229 0.475567
O O13 0.033439 0.623235 0.386358
O O14 0.382319 0.583672 0.615969
O O15 0.000000 0.992658 0.250000
O O16 0.000000 0.000000 0.000000
#
# Coordination Sequence:
#
# PCOD9454499 Si02
#       7
#     8   8   8   8   8   8   8
#     4  10  20  31  50  83 113 132 170 230 284 335
#     4  10  19  34  58  79 106 146 179 227 292 336
#     4   9  18  35  56  75 103 146 187 224 272 332
#     4   9  18  35  57  83 110 139 185 233 283 350
#     4  10  21  36  56  79 111 154 188 231 284 334
#     4   9  18  33  55  81 105 136 180 228 280 342
#     4  11  24  40  57  82 117 155 201 243 280 343
#
# _framework density 19.249265000000001
#
# number of rings (size 3 to 8) (size 9 to 14) (size 15 to 20)
#    0.000    2.286    0.000    3.857    0.000    5.714 
#    0.000   10.000    0.000    4.286    0.000    0.000 
#    0.000    0.000    0.000    0.000    0.000    0.000 
#
# Total GULP energy -311756.187492 kJ/mol
# GULP energy per Si atom -5567.074777 kJ/mol
# Density = 1.920545 g / cm^3
# Si number density = 19.249265 Si / 1000 Ang^3
#
#
#
# Elastic Constant Matrix: (Units=GPa)
#
#
# Indices 1 2 3 4 5 6 
#
# 1 99.5982 42.5863 38.5160 0.0000 0.0000 0.0000
# 2 42.5863 91.9353 16.8441 0.0000 0.0000 0.0000
# 3 38.5160 16.8441 73.3498 0.0000 0.0000 0.0000
# 4 0.0000 0.0000 0.0000 13.8920 0.0000 0.0000
# 5 0.0000 0.0000 0.0000 0.0000 28.1133 0.0000
# 6 0.0000 0.0000 0.0000 0.0000 0.0000 27.6234
#
#
#
# Elastic Compliance Matrix: (Units=1/GPa)
#
#
# Indices 1 2 3 4 5 6 
#
# 1 0.015050 -0.005766 -0.006579 0.000000 0.000000 0.000000
# 2 -0.005766 0.013564 -0.000087 0.000000 0.000000 0.000000
# 3 -0.006579 -0.000087 0.017108 0.000000 0.000000 0.000000
# 4 0.000000 0.000000 0.000000 0.071984 0.000000 0.000000
# 5 0.000000 0.000000 0.000000 0.000000 0.035570 0.000000
# 6 0.000000 0.000000 0.000000 0.000000 0.000000 0.036201
#
#
# Mechanical properties :
#
#
# Convention : Reuss Voigt Hill
#
# Bulk Modulus (GPa) = 47.94279 51.19736 49.57008
# Shear Modulus (GPa) = 22.59443 25.05486 23.82464
#
# Velocity S-wave (km/s) = 3.42977 3.61168 3.52190
# Velocity P-wave (km/s) = 6.37532 6.63680 6.50738
#
# Compressibility (1/GPa) = 0.02085819
#
# Stress axis : x y z
#
# Youngs Moduli (GPa) = 66.44593 73.72380 58.45324
#
# Poissons Ratio (x) = 0.42510 0.38454
# Poissons Ratio (y) = 0.38313 0.00509
# Poissons Ratio (z) = 0.43712 0.00642
#
# Static dielectric constant tensor:
#      x y z
#    x 1.668850 0.000000 0.000000 
#    y 0.000000 1.660210 0.000000 
#    z 0.000000 0.000000 1.838640 
# 
# From -- ./inp_files/11208.got.cif
#   From: 2010.05.17/outbox.cif.g08.bks.cpg/sg60_6_cif.got.tgz:11208.got - 2010.06.03 14:59:27.
