data_PCOD9454356
_publ_section_title
;
Structure prediction by ZEFSAII (Michael W. Deem and Ramdas Pophale) SiO2 
 PCOD9454356
Probable space group: P B C N
;
_chemical_formula_sum "Si O2"
_cell_formula_units_Z 64
_cell_length_a 18.180802
_cell_length_b 19.179494
_cell_length_c 9.638187
_cell_angle_alpha 90.000000
_cell_angle_beta 90.000000
_cell_angle_gamma 90.000000
_cell_volume 3360.822148
_symmetry_space_group_name_H-M "P B C N"
_symmetry_group_IT_number 60
_symmetry_cell_setting 'orthorhombic'
loop_
_space_group_symop_operation_xyz
x,y,z
1/2-x,1/2-y,1/2+z
1/2+x,1/2-y,-z
-x,y,1/2-z
-x,-y,-z
1/2+x,1/2+y,1/2-z
1/2-x,1/2+y,z
x,-y,1/2+z
loop_
_atom_site_type_symbol
_atom_site_label
_atom_site_fract_x
_atom_site_fract_y
_atom_site_fract_z
Si Si1 0.458062 0.269888 0.620635
Si Si2 0.636410 0.397207 0.958213
Si Si3 0.292392 0.413139 0.830302
Si Si4 0.050095 0.804730 0.117984
Si Si5 0.731692 0.561572 0.721579
Si Si6 0.899073 0.047800 0.946063
Si Si7 0.210103 0.221067 0.513783
Si Si8 0.824817 0.693629 0.761184
O O1 0.500000 0.304388 0.750000
O O2 0.408584 0.326821 0.544272
O O3 0.519064 0.256491 0.505772
O O4 0.407352 0.210144 0.687207
O O5 0.690473 0.393449 0.826615
O O6 0.584131 0.465759 0.940842
O O7 0.683525 0.406735 0.096542
O O8 0.245223 0.483929 0.826617
O O9 0.370247 0.435642 0.899579
O O10 0.269091 0.348323 0.924381
O O11 0.047618 0.889263 0.095456
O O12 0.137543 0.791328 0.108559
O O13 0.000000 0.789168 0.250000
O O14 0.674267 0.553007 0.848656
O O15 0.796745 0.614083 0.759580
O O16 0.191287 0.275691 0.392158
O O17 0.274342 0.232615 0.623829
#
# Coordination Sequence:
#
# PCOD9454356 Si02
#       8
#     8   8   8   8   8   8   8   8
#     4  12  23  37  51  79 123 157 191 240 296 355
#     4  10  19  32  55  79 114 159 196 237 286 344
#     4   9  17  35  53  81 117 146 189 253 284 344
#     4  11  22  37  55  80 121 160 198 239 284 356
#     4  10  19  33  58  83 112 150 200 246 291 334
#     4   9  18  35  52  79 114 153 203 237 277 348
#     4  11  23  40  59  87 120 154 204 249 291 356
#     4  12  23  38  60  86 117 161 202 251 299 353
#
# _framework density 19.042959
#
# number of rings (size 3 to 8) (size 9 to 14) (size 15 to 20)
#    0.000    1.500    5.000    2.250    1.750    1.000 
#    0.000    0.000    0.000    0.000    0.000    0.875 
#    0.000    0.000    0.000    0.000    0.000    0.000 
#
# Total GULP energy -356660.064011 kJ/mol
# GULP energy per Si atom -5572.813500 kJ/mol
# Density = 1.899962 g / cm^3
# Si number density = 19.042959 Si / 1000 Ang^3
#
#
#
# Elastic Constant Matrix: (Units=GPa)
#
#
# Indices 1 2 3 4 5 6 
#
# 1 46.2123 15.5459 8.4873 0.0000 0.0000 0.0000
# 2 15.5459 59.9630 -3.9260 0.0000 0.0000 0.0000
# 3 8.4873 -3.9260 58.4038 0.0000 0.0000 0.0000
# 4 0.0000 0.0000 0.0000 24.2335 0.0000 0.0000
# 5 0.0000 0.0000 0.0000 0.0000 28.5295 0.0000
# 6 0.0000 0.0000 0.0000 0.0000 0.0000 16.5553
#
#
#
# Elastic Compliance Matrix: (Units=1/GPa)
#
#
# Indices 1 2 3 4 5 6 
#
# 1 0.024613 -0.006645 -0.004024 0.000000 0.000000 0.000000
# 2 -0.006645 0.018544 0.002212 0.000000 0.000000 0.000000
# 3 -0.004024 0.002212 0.017856 0.000000 0.000000 0.000000
# 4 0.000000 0.000000 0.000000 0.041265 0.000000 0.000000
# 5 0.000000 0.000000 0.000000 0.000000 0.035051 0.000000
# 6 0.000000 0.000000 0.000000 0.000000 0.000000 0.060404
#
#
# Mechanical properties :
#
#
# Convention : Reuss Voigt Hill
#
# Bulk Modulus (GPa) = 22.67492 22.75481 22.71486
# Shear Modulus (GPa) = 21.80108 23.49512 22.64810
#
# Velocity S-wave (km/s) = 3.38721 3.51635 3.45239
# Velocity P-wave (km/s) = 5.21831 5.33493 5.27694
#
# Compressibility (1/GPa) = 0.04410159
#
# Stress axis : x y z
#
# Youngs Moduli (GPa) = 40.62815 53.92443 56.00489
#
# Poissons Ratio (x) = 0.35831 0.22534
# Poissons Ratio (y) = 0.26996 -0.12389
# Poissons Ratio (z) = 0.16347 -0.11929
#
# Static dielectric constant tensor:
#      x y z
#    x 1.681080 0.000000 0.000000 
#    y 0.000000 1.726020 0.000000 
#    z 0.000000 0.000000 1.690570 
# 
# From -- ./inp_files/6310.got.cif
#   From: 2010.05.17/outbox.cif.g08.bks.cpg/sg60_4_cif.got.tgz:6310.got - 2010.06.03 14:59:27.
