data_PCOD9454574
_publ_section_title
;
Structure prediction by ZEFSAII (Michael W. Deem and Ramdas Pophale) SiO2 
 PCOD9454574
Probable space group: P B C N
;
_chemical_formula_sum "Si O2"
_cell_formula_units_Z 60
_cell_length_a 31.013088
_cell_length_b 5.220705
_cell_length_c 14.778654
_cell_angle_alpha 90.000000
_cell_angle_beta 90.000000
_cell_angle_gamma 90.000000
_cell_volume 2392.814582
_symmetry_space_group_name_H-M "P B C N"
_symmetry_group_IT_number 60
_symmetry_cell_setting 'orthorhombic'
loop_
_space_group_symop_operation_xyz
x,y,z
1/2-x,1/2-y,1/2+z
1/2+x,1/2-y,-z
-x,y,1/2-z
-x,-y,-z
1/2+x,1/2+y,1/2-z
1/2-x,1/2+y,z
x,-y,1/2+z
loop_
_atom_site_type_symbol
_atom_site_label
_atom_site_fract_x
_atom_site_fract_y
_atom_site_fract_z
Si Si1 0.581715 0.001124 0.190689
Si Si2 0.631041 0.489734 0.157823
Si Si3 0.873627 0.079852 0.941862
Si Si4 0.942903 0.582664 0.491473
Si Si5 0.274166 0.657984 0.354197
Si Si6 0.275829 0.366613 0.075160
Si Si7 0.500000 0.723871 0.750000
Si Si8 0.536483 0.585617 0.410297
O O1 0.618872 0.214472 0.197559
O O2 0.563380 0.030025 0.089329
O O3 0.541976 0.096337 0.249967
O O4 0.598810 0.712487 0.191507
O O5 0.679059 0.578355 0.179433
O O6 0.628338 0.481867 0.046889
O O7 0.911432 0.931078 0.888873
O O8 0.894970 0.362689 0.951509
O O9 0.826006 0.088532 0.902046
O O10 0.037511 0.131929 0.510997
O O11 0.969334 0.379145 0.434543
O O12 0.240227 0.440218 0.326976
O O13 0.275748 0.648528 0.464535
O O14 0.245920 0.602137 0.104948
O O15 0.493254 0.532773 0.666118
#
# Coordination Sequence:
#
# PCOD9454574 Si02
#       8
#     8   8   8   8   8   8   4   8
#     4  11  22  40  58  88 115 162 195 252 291 362
#     4  10  19  35  60  83 121 159 198 229 298 358
#     4   8  18  33  57  78 116 150 193 225 285 350
#     4   9  19  38  63  80 109 156 199 225 299 351
#     4   9  16  27  47  85 121 150 181 236 287 338
#     4   9  17  23  43  80 117 144 174 226 281 329
#     4  12  30  42  62  88 124 140 214 256 314 342
#     4  10  22  40  59  86 110 157 190 253 288 355
#
# _framework density 25.075073
#
# number of rings (size 3 to 8) (size 9 to 14) (size 15 to 20)
#    0.800    1.600    1.333    0.800    1.867    7.467 
#    0.000    0.000    0.000    0.000    0.000    5.600 
#    0.000    0.000    0.000    0.000    0.000    0.000 
#
# Total GULP energy -335569.579768 kJ/mol
# GULP energy per Si atom -5592.826329 kJ/mol
# Density = 2.501800 g / cm^3
# Si number density = 25.075073 Si / 1000 Ang^3
#
#
#
# Elastic Constant Matrix: (Units=GPa)
#
#
# Indices 1 2 3 4 5 6 
#
# 1 99.6094 -7.0807 1.4291 0.0000 0.0000 0.0000
# 2 -7.0807 83.2206 19.9096 0.0000 0.0000 0.0000
# 3 1.4291 19.9096 65.0891 0.0000 0.0000 0.0000
# 4 0.0000 0.0000 0.0000 21.1854 0.0000 0.0000
# 5 0.0000 0.0000 0.0000 0.0000 7.2909 0.0000
# 6 0.0000 0.0000 0.0000 0.0000 0.0000 39.8681
#
#
#
# Elastic Compliance Matrix: (Units=1/GPa)
#
#
# Indices 1 2 3 4 5 6 
#
# 1 0.010117 0.000986 -0.000524 0.000000 0.000000 0.000000
# 2 0.000986 0.013061 -0.004017 0.000000 0.000000 0.000000
# 3 -0.000524 -0.004017 0.016604 0.000000 0.000000 0.000000
# 4 0.000000 0.000000 0.000000 0.047202 0.000000 0.000000
# 5 0.000000 0.000000 0.000000 0.000000 0.137157 0.000000
# 6 0.000000 0.000000 0.000000 0.000000 0.000000 0.025083
#
#
# Mechanical properties :
#
#
# Convention : Reuss Voigt Hill
#
# Bulk Modulus (GPa) = 30.60660 30.71502 30.66081
# Shear Modulus (GPa) = 18.71091 29.24628 23.97859
#
# Velocity S-wave (km/s) = 2.73462 3.41889 3.09572
# Velocity P-wave (km/s) = 4.71204 5.27834 5.00321
#
# Compressibility (1/GPa) = 0.03267270
#
# Stress axis : x y z
#
# Youngs Moduli (GPa) = 98.84525 76.56304 60.22739
#
# Poissons Ratio (x) = -0.07550 0.03154
# Poissons Ratio (y) = -0.09747 0.24192
# Poissons Ratio (z) = 0.05177 0.30754
#
# Static dielectric constant tensor:
#      x y z
#    x 2.050700 0.000000 0.000000 
#    y 0.000000 1.916310 0.000000 
#    z 0.000000 0.000000 2.046970 
# 
# From -- ./inp_files/21230.got.cif
#   From: 2010.05.17/outbox.cif.g08.bks.cpg/sg60_11_cif.got.tgz:21230.got - 2010.06.03 14:59:27.
