data_PCOD9454928
_publ_section_title
;
Structure prediction by ZEFSAII (Michael W. Deem and Ramdas Pophale) SiO2 
 PCOD9454928
Probable space group: P B C N
;
_chemical_formula_sum "Si O2"
_cell_formula_units_Z 48
_cell_length_a 10.035328
_cell_length_b 20.171283
_cell_length_c 11.361389
_cell_angle_alpha 90.000000
_cell_angle_beta 90.000000
_cell_angle_gamma 90.000000
_cell_volume 2299.834180
_symmetry_space_group_name_H-M "P B C N"
_symmetry_group_IT_number 60
_symmetry_cell_setting 'orthorhombic'
loop_
_space_group_symop_operation_xyz
x,y,z
1/2-x,1/2-y,1/2+z
1/2+x,1/2-y,-z
-x,y,1/2-z
-x,-y,-z
1/2+x,1/2+y,1/2-z
1/2-x,1/2+y,z
x,-y,1/2+z
loop_
_atom_site_type_symbol
_atom_site_label
_atom_site_fract_x
_atom_site_fract_y
_atom_site_fract_z
Si Si1 0.764241 0.648486 0.572586
Si Si2 0.449349 0.321783 0.087375
Si Si3 0.135801 0.962786 0.123053
Si Si4 0.318739 0.493186 0.369951
Si Si5 0.128695 0.782681 0.830665
Si Si6 0.124735 0.323040 0.681303
O O1 0.607812 0.668674 0.573798
O O2 0.764336 0.574344 0.618929
O O3 0.839521 0.705412 0.644992
O O4 0.825752 0.647521 0.441699
O O5 0.378130 0.383979 0.150152
O O6 0.416910 0.252528 0.148228
O O7 0.394940 0.316572 0.955545
O O8 0.196637 0.007196 0.229373
O O9 0.979148 0.982455 0.119238
O O10 0.204291 0.969368 0.994610
O O11 0.251833 0.817271 0.768213
O O12 0.000000 0.789184 0.750000
O O13 0.000000 0.354365 0.750000
#
# Coordination Sequence:
#
# PCOD9454928 Si02
#       6
#     8   8   8   8   8   8
#     4  10  20  34  54  81 115 152 195 246 299 366
#     4  10  20  33  53  82 115 154 196 241 303 360
#     4   9  18  32  53  80 116 152 195 247 304 349
#     4   9  18  33  52  82 112 154 194 248 303 354
#     4  11  21  34  52  84 116 151 194 239 297 363
#     4  11  21  34  54  81 119 156 190 244 304 365
#
# _framework density 20.871068999999999
#
# number of rings (size 3 to 8) (size 9 to 14) (size 15 to 20)
#    0.000    2.000    3.333    1.000    2.333    1.333 
#    3.000    0.000    0.000    0.000    0.000   19.833 
#    0.000    0.000    0.000    0.000    0.000    0.000 
#
# Total GULP energy -267577.419339 kJ/mol
# GULP energy per Si atom -5574.529570 kJ/mol
# Density = 2.082357 g / cm^3
# Si number density = 20.871069 Si / 1000 Ang^3
#
#
#
# Elastic Constant Matrix: (Units=GPa)
#
#
# Indices 1 2 3 4 5 6 
#
# 1 79.8092 -3.0863 34.8919 0.0000 0.0000 0.0000
# 2 -3.0863 23.7746 12.7361 0.0000 0.0000 0.0000
# 3 34.8919 12.7361 141.5434 0.0000 0.0000 0.0000
# 4 0.0000 0.0000 0.0000 35.3896 0.0000 0.0000
# 5 0.0000 0.0000 0.0000 0.0000 19.6890 0.0000
# 6 0.0000 0.0000 0.0000 0.0000 0.0000 9.3810
#
#
#
# Elastic Compliance Matrix: (Units=1/GPa)
#
#
# Indices 1 2 3 4 5 6 
#
# 1 0.014390 0.003959 -0.003903 0.000000 0.000000 0.000000
# 2 0.003959 0.045281 -0.005050 0.000000 0.000000 0.000000
# 3 -0.003903 -0.005050 0.008482 0.000000 0.000000 0.000000
# 4 0.000000 0.000000 0.000000 0.028257 0.000000 0.000000
# 5 0.000000 0.000000 0.000000 0.000000 0.050790 0.000000
# 6 0.000000 0.000000 0.000000 0.000000 0.000000 0.106598
#
#
# Mechanical properties :
#
#
# Convention : Reuss Voigt Hill
#
# Bulk Modulus (GPa) = 17.19309 37.13451 27.16380
# Shear Modulus (GPa) = 17.65698 26.26427 21.96063
#
# Velocity S-wave (km/s) = 2.91177 3.55125 3.24729
# Velocity P-wave (km/s) = 4.42269 5.88610 5.20607
#
# Compressibility (1/GPa) = 0.05816291
#
# Stress axis : x y z
#
# Youngs Moduli (GPa) = 69.49500 22.08422 117.90181
#
# Poissons Ratio (x) = -0.08743 0.46022
# Poissons Ratio (y) = -0.27513 0.59545
# Poissons Ratio (z) = 0.27127 0.11153
#
# Static dielectric constant tensor:
#      x y z
#    x 1.325690 0.000000 0.000000 
#    y 0.000000 1.782860 0.000000 
#    z 0.000000 0.000000 1.833080 
# 
# From -- ./inp_files/10105.got.cif
#   From: 2010.05.17/outbox.cif.g08.bks.cpg/sg60_6_cif.got.tgz:10105.got - 2010.06.03 14:59:27.
