data_PCOD9454836
_publ_section_title
;
Structure prediction by ZEFSAII (Michael W. Deem and Ramdas Pophale) SiO2 
 PCOD9454836
Probable space group: P B C N
;
_chemical_formula_sum "Si O2"
_cell_formula_units_Z 48
_cell_length_a 9.451439
_cell_length_b 17.283978
_cell_length_c 15.108577
_cell_angle_alpha 90.000000
_cell_angle_beta 90.000000
_cell_angle_gamma 90.000000
_cell_volume 2468.113928
_symmetry_space_group_name_H-M "P B C N"
_symmetry_group_IT_number 60
_symmetry_cell_setting 'orthorhombic'
loop_
_space_group_symop_operation_xyz
x,y,z
1/2-x,1/2-y,1/2+z
1/2+x,1/2-y,-z
-x,y,1/2-z
-x,-y,-z
1/2+x,1/2+y,1/2-z
1/2-x,1/2+y,z
x,-y,1/2+z
loop_
_atom_site_type_symbol
_atom_site_label
_atom_site_fract_x
_atom_site_fract_y
_atom_site_fract_z
Si Si1 0.330673 0.550823 0.098808
Si Si2 0.317660 0.996345 0.920157
Si Si3 0.534666 0.312610 0.998018
Si Si4 0.935237 0.072735 0.654937
Si Si5 0.402413 0.045666 0.664147
Si Si6 0.794356 0.342474 0.481561
O O1 0.402988 0.633894 0.082154
O O2 0.456800 0.489525 0.112348
O O3 0.206979 0.527214 0.167984
O O4 0.253721 0.532669 0.006732
O O5 0.317153 0.905692 0.941148
O O6 0.214831 0.028713 0.843331
O O7 0.474748 0.024152 0.904857
O O8 0.365278 0.313531 0.003824
O O9 0.578217 0.354263 0.090217
O O10 0.598145 0.227963 0.989057
O O11 0.000000 0.092612 0.750000
O O12 0.500000 0.063036 0.750000
O O13 0.317150 0.114752 0.614164
#
# Coordination Sequence:
#
# PCOD9454836 Si02
#       6
#     8   8   8   8   8   8
#     4  10  19  41  62  88 117 161 216 253 302 380
#     4  10  20  37  64  89 116 158 215 256 301 376
#     4  11  23  39  63  90 125 172 211 253 318 390
#     4  11  20  38  67  90 120 162 213 268 307 357
#     4  11  23  39  65  96 125 161 214 274 317 359
#     4  11  23  40  62  90 128 168 213 253 314 394
#
# _framework density 19.448049000000001
#
# number of rings (size 3 to 8) (size 9 to 14) (size 15 to 20)
#    0.000    1.333    5.000    4.000    7.000    0.000 
#    0.000    1.667    3.667    0.000    0.000    0.000 
#    0.000    0.000    0.000    0.000    0.000    0.000 
#
# Total GULP energy -267423.207392 kJ/mol
# GULP energy per Si atom -5571.316821 kJ/mol
# Density = 1.940378 g / cm^3
# Si number density = 19.448049 Si / 1000 Ang^3
#
#
#
# Elastic Constant Matrix: (Units=GPa)
#
#
# Indices 1 2 3 4 5 6 
#
# 1 135.8237 25.5371 1.9905 0.0000 0.0000 0.0000
# 2 25.5371 71.6357 -1.1009 0.0000 0.0000 0.0000
# 3 1.9905 -1.1009 60.6960 0.0000 0.0000 0.0000
# 4 0.0000 0.0000 0.0000 9.6505 0.0000 0.0000
# 5 0.0000 0.0000 0.0000 0.0000 26.0119 0.0000
# 6 0.0000 0.0000 0.0000 0.0000 0.0000 40.8939
#
#
#
# Elastic Compliance Matrix: (Units=1/GPa)
#
#
# Indices 1 2 3 4 5 6 
#
# 1 0.007897 -0.002820 -0.000310 0.000000 0.000000 0.000000
# 2 -0.002820 0.014970 0.000364 0.000000 0.000000 0.000000
# 3 -0.000310 0.000364 0.016492 0.000000 0.000000 0.000000
# 4 0.000000 0.000000 0.000000 0.103621 0.000000 0.000000
# 5 0.000000 0.000000 0.000000 0.000000 0.038444 0.000000
# 6 0.000000 0.000000 0.000000 0.000000 0.000000 0.024454
#
#
# Mechanical properties :
#
#
# Convention : Reuss Voigt Hill
#
# Bulk Modulus (GPa) = 29.56157 35.66764 32.61461
# Shear Modulus (GPa) = 22.45306 31.42651 26.93979
#
# Velocity S-wave (km/s) = 3.40150 4.02421 3.72589
# Velocity P-wave (km/s) = 5.53717 6.32235 5.94274
#
# Compressibility (1/GPa) = 0.03382770
#
# Stress axis : x y z
#
# Youngs Moduli (GPa) = 126.62650 66.79847 60.63422
#
# Poissons Ratio (x) = 0.18837 0.01880
# Poissons Ratio (y) = 0.35709 -0.02207
# Poissons Ratio (z) = 0.03927 -0.02432
#
# Static dielectric constant tensor:
#      x y z
#    x 1.710070 0.000000 0.000000 
#    y 0.000000 1.662770 0.000000 
#    z 0.000000 0.000000 1.765150 
# 
# From -- ./inp_files/15001.got.cif
#   From: 2010.05.17/outbox.cif.g08.bks.cpg/sg60_8_cif.got.tgz:15001.got - 2010.06.03 14:59:27.
