data_PCOD9454783
_publ_section_title
;
Structure prediction by ZEFSAII (Michael W. Deem and Ramdas Pophale) SiO2 
 PCOD9454783
Probable space group: P B C N
;
_chemical_formula_sum "Si O2"
_cell_formula_units_Z 44
_cell_length_a 23.386028
_cell_length_b 5.838928
_cell_length_c 13.895094
_cell_angle_alpha 90.000000
_cell_angle_beta 90.000000
_cell_angle_gamma 90.000000
_cell_volume 1897.365827
_symmetry_space_group_name_H-M "P B C N"
_symmetry_group_IT_number 60
_symmetry_cell_setting 'orthorhombic'
loop_
_space_group_symop_operation_xyz
x,y,z
1/2-x,1/2-y,1/2+z
1/2+x,1/2-y,-z
-x,y,1/2-z
-x,-y,-z
1/2+x,1/2+y,1/2-z
1/2-x,1/2+y,z
x,-y,1/2+z
loop_
_atom_site_type_symbol
_atom_site_label
_atom_site_fract_x
_atom_site_fract_y
_atom_site_fract_z
Si Si1 0.959604 0.736538 0.890332
Si Si2 0.500000 0.387453 0.250000
Si Si3 0.922352 0.496731 0.059355
Si Si4 0.110383 0.582930 0.247716
Si Si5 0.746693 0.493443 0.047386
Si Si6 0.160530 0.746238 0.066188
O O1 0.914372 0.626866 0.815465
O O2 0.016254 0.579775 0.900291
O O3 0.983236 0.963140 0.842452
O O4 0.931304 0.723683 0.995309
O O5 0.556350 0.243871 0.231176
O O6 0.875894 0.501936 0.144878
O O7 0.900272 0.308688 0.982547
O O8 0.153246 0.723444 0.180228
O O9 0.745409 0.242858 0.097826
O O10 0.797733 0.456842 0.970542
O O11 0.690065 0.534693 0.981896
#
# Coordination Sequence:
#
# PCOD9454783 Si02
#       6
#     8   4   8   8   8   8
#     4  10  21  38  54  81 133 165 196 255 303 378
#     4  12  20  36  56  86 130 170 204 252 310 386
#     4  10  19  39  58  86 120 165 208 256 311 377
#     4  11  21  39  56  91 127 161 212 254 308 390
#     4   8  18  42  63  84 121 162 204 266 326 375
#     4   9  21  38  65  83 120 165 208 264 326 375
#
# _framework density 23.190047
#
# number of rings (size 3 to 8) (size 9 to 14) (size 15 to 20)
#    1.091    1.091    3.636    0.000    0.000    3.636 
#    3.273    1.818    0.000    0.000    0.000    0.000 
#    0.000    0.000    0.000    0.000    0.000    0.000 
#
# Total GULP energy -245059.535662 kJ/mol
# GULP energy per Si atom -5569.534901 kJ/mol
# Density = 2.313727 g / cm^3
# Si number density = 23.190047 Si / 1000 Ang^3
#
#
#
# Elastic Constant Matrix: (Units=GPa)
#
#
# Indices 1 2 3 4 5 6 
#
# 1 50.9375 2.5801 -2.4971 0.0000 0.0000 0.0000
# 2 2.5801 89.2176 -2.0734 0.0000 0.0000 0.0000
# 3 -2.4971 -2.0734 98.5566 0.0000 0.0000 0.0000
# 4 0.0000 0.0000 0.0000 14.6041 0.0000 0.0000
# 5 0.0000 0.0000 0.0000 0.0000 8.7460 0.0000
# 6 0.0000 0.0000 0.0000 0.0000 0.0000 22.3492
#
#
#
# Elastic Compliance Matrix: (Units=1/GPa)
#
#
# Indices 1 2 3 4 5 6 
#
# 1 0.019684 -0.000558 0.000487 0.000000 0.000000 0.000000
# 2 -0.000558 0.011230 0.000222 0.000000 0.000000 0.000000
# 3 0.000487 0.000222 0.010163 0.000000 0.000000 0.000000
# 4 0.000000 0.000000 0.000000 0.068474 0.000000 0.000000
# 5 0.000000 0.000000 0.000000 0.000000 0.114339 0.000000
# 6 0.000000 0.000000 0.000000 0.000000 0.000000 0.044744
#
#
# Mechanical properties :
#
#
# Convention : Reuss Voigt Hill
#
# Bulk Modulus (GPa) = 24.16644 26.08121 25.12383
# Shear Modulus (GPa) = 17.72264 25.18666 21.45465
#
# Velocity S-wave (km/s) = 2.76748 3.29918 3.04495
# Velocity P-wave (km/s) = 4.54484 5.07778 4.81869
#
# Compressibility (1/GPa) = 0.04137970
#
# Stress axis : x y z
#
# Youngs Moduli (GPa) = 50.80260 89.04835 98.39164
#
# Poissons Ratio (x) = 0.04968 -0.04792
# Poissons Ratio (y) = 0.02834 -0.02185
# Poissons Ratio (z) = -0.02474 -0.01978
#
# Static dielectric constant tensor:
#      x y z
#    x 1.919070 0.000000 0.000000 
#    y 0.000000 1.946560 0.000000 
#    z 0.000000 0.000000 1.997480 
# 
# From -- ./inp_files/18117.got.cif
#   From: 2010.05.17/outbox.cif.g08.bks.cpg/sg60_10_cif.got.tgz:18117.got - 2010.06.03 14:59:27.
