data_PCOD9454261
_publ_section_title
;
Structure prediction by ZEFSAII (Michael W. Deem and Ramdas Pophale) SiO2 
 PCOD9454261
Probable space group: P B C N
;
_chemical_formula_sum "Si O2"
_cell_formula_units_Z 32
_cell_length_a 15.964965
_cell_length_b 18.646539
_cell_length_c 5.339423
_cell_angle_alpha 90.000000
_cell_angle_beta 90.000000
_cell_angle_gamma 90.000000
_cell_volume 1589.500001
_symmetry_space_group_name_H-M "P B C N"
_symmetry_group_IT_number 60
_symmetry_cell_setting 'orthorhombic'
loop_
_space_group_symop_operation_xyz
x,y,z
1/2-x,1/2-y,1/2+z
1/2+x,1/2-y,-z
-x,y,1/2-z
-x,-y,-z
1/2+x,1/2+y,1/2-z
1/2-x,1/2+y,z
x,-y,1/2+z
loop_
_atom_site_type_symbol
_atom_site_label
_atom_site_fract_x
_atom_site_fract_y
_atom_site_fract_z
Si Si1 0.525428 0.682141 0.999277
Si Si2 0.801268 0.743761 0.581732
Si Si3 0.425511 0.832635 0.086613
Si Si4 0.099833 0.536265 0.268683
O O1 0.500000 0.643161 0.750000
O O2 0.622190 0.703581 0.010376
O O3 0.500000 0.642715 0.250000
O O4 0.466625 0.755902 0.005648
O O5 0.746405 0.771299 0.820734
O O6 0.649799 0.820648 0.220527
O O7 0.500000 0.867839 0.250000
O O8 0.396343 0.880962 0.857237
O O9 0.134152 0.489834 0.502717
O O10 0.000000 0.525075 0.250000
#
# Coordination Sequence:
#
# PCOD9454261 Si02
#       4
#     8   8   8   8
#     4   9  17  28  42  56  76 108 140 168 209 249
#     4  10  19  29  42  61  81 106 146 183 210 250
#     4   9  18  30  43  58  83 114 144 175 213 248
#     4  10  19  28  41  61  82 107 146 187 210 234
#
# _framework density 20.132117999999998
#
# number of rings (size 3 to 8) (size 9 to 14) (size 15 to 20)
#    0.000    3.000    0.000    6.000    0.000    8.000 
#    0.000    0.000    0.000    0.000    0.000    0.000 
#    0.000    0.000    0.000    0.000    0.000  575.000 
#
# Total GULP energy -178172.142481 kJ/mol
# GULP energy per Si atom -5567.879453 kJ/mol
# Density = 2.008630 g / cm^3
# Si number density = 20.132118 Si / 1000 Ang^3
#
#
#
# Elastic Constant Matrix: (Units=GPa)
#
#
# Indices 1 2 3 4 5 6 
#
# 1 87.1356 4.9678 50.2470 0.0000 0.0000 0.0000
# 2 4.9678 25.3349 2.9248 0.0000 0.0000 0.0000
# 3 50.2470 2.9248 188.0588 0.0000 0.0000 0.0000
# 4 0.0000 0.0000 0.0000 19.6965 0.0000 0.0000
# 5 0.0000 0.0000 0.0000 0.0000 38.5022 0.0000
# 6 0.0000 0.0000 0.0000 0.0000 0.0000 2.1442
#
#
#
# Elastic Compliance Matrix: (Units=1/GPa)
#
#
# Indices 1 2 3 4 5 6 
#
# 1 0.013695 -0.002267 -0.003624 0.000000 0.000000 0.000000
# 2 -0.002267 0.039918 -0.000015 0.000000 0.000000 0.000000
# 3 -0.003624 -0.000015 0.006286 0.000000 0.000000 0.000000
# 4 0.000000 0.000000 0.000000 0.050770 0.000000 0.000000
# 5 0.000000 0.000000 0.000000 0.000000 0.025973 0.000000
# 6 0.000000 0.000000 0.000000 0.000000 0.000000 0.466380
#
#
# Mechanical properties :
#
#
# Convention : Reuss Voigt Hill
#
# Bulk Modulus (GPa) = 20.79578 46.31202 33.55390
# Shear Modulus (GPa) = 7.92565 28.22790 18.07678
#
# Velocity S-wave (km/s) = 1.98629 3.74857 2.99976
# Velocity P-wave (km/s) = 3.95127 6.46449 5.35734
#
# Compressibility (1/GPa) = 0.04808669
#
# Stress axis : x y z
#
# Youngs Moduli (GPa) = 73.01722 25.05164 159.08361
#
# Poissons Ratio (x) = 0.05679 0.57652
# Poissons Ratio (y) = 0.16554 0.00240
# Poissons Ratio (z) = 0.26461 0.00038
#
# Static dielectric constant tensor:
#      x y z
#    x 1.746980 0.000000 0.000000 
#    y 0.000000 1.778020 0.000000 
#    z 0.000000 0.000000 1.869590 
# 
# From -- ./inp_files/1109.got.cif
#   From: 2010.05.17/outbox.cif.g08.bks.cpg/sg60_1_cif.got.tgz:1109.got - 2010.06.03 14:59:27.
