data_PCOD9454004
_publ_section_title
;
Structure prediction by ZEFSAII (Michael W. Deem and Ramdas Pophale) SiO2 
 PCOD9454004
Probable space group: P B C N
;
_chemical_formula_sum "Si O2"
_cell_formula_units_Z 64
_cell_length_a 8.910102
_cell_length_b 14.596656
_cell_length_c 19.225427
_cell_angle_alpha 90.000000
_cell_angle_beta 90.000000
_cell_angle_gamma 90.000000
_cell_volume 2500.414698
_symmetry_space_group_name_H-M "P B C N"
_symmetry_group_IT_number 60
_symmetry_cell_setting 'orthorhombic'
loop_
_space_group_symop_operation_xyz
x,y,z
1/2-x,1/2-y,1/2+z
1/2+x,1/2-y,-z
-x,y,1/2-z
-x,-y,-z
1/2+x,1/2+y,1/2-z
1/2-x,1/2+y,z
x,-y,1/2+z
loop_
_atom_site_type_symbol
_atom_site_label
_atom_site_fract_x
_atom_site_fract_y
_atom_site_fract_z
Si Si1 0.310325 0.320308 0.618343
Si Si2 0.369509 0.948837 0.957896
Si Si3 0.181193 0.286451 0.755152
Si Si4 0.832081 0.076526 0.776338
Si Si5 0.371014 0.779138 0.376623
Si Si6 0.174895 0.863529 0.072232
Si Si7 0.665002 0.610439 0.525033
Si Si8 0.096308 0.484071 0.318685
O O1 0.265369 0.345803 0.696403
O O2 0.476055 0.276041 0.613463
O O3 0.193116 0.240462 0.597765
O O4 0.307027 0.393129 0.557000
O O5 0.431604 0.942269 0.879308
O O6 0.229002 0.016692 0.944442
O O7 0.500000 0.000000 0.000000
O O8 0.299466 0.877746 0.012154
O O9 0.222038 0.180864 0.736128
O O10 0.262132 0.284842 0.829823
O O11 0.000000 0.296031 0.750000
O O12 0.808421 0.070619 0.859490
O O13 0.756537 0.013821 0.718151
O O14 0.000000 0.077662 0.750000
O O15 0.269236 0.810518 0.441658
O O16 0.422935 0.879514 0.346706
O O17 0.007629 0.876654 0.043406
O O18 0.000000 0.496622 0.250000
#
# Coordination Sequence:
#
# PCOD9454004 Si02
#       8
#     8   8   8   8   8   8   8   8
#     4  11  21  35  58  88 119 154 193 245 296 348
#     4  11  23  39  60  84 115 154 193 242 303 362
#     4   9  17  31  54  82 113 151 200 248 288 334
#     4   9  16  29  52  81 108 140 189 244 284 324
#     4  10  18  32  55  84 114 149 197 246 293 342
#     4  11  21  37  60  86 120 158 194 241 302 358
#     4  11  23  37  57  88 120 151 193 244 296 355
#     4  10  18  32  55  83 107 137 190 244 283 335
#
# _framework density 25.595755
#
# number of rings (size 3 to 8) (size 9 to 14) (size 15 to 20)
#    0.000    1.750    0.000    9.750    0.000    0.000 
#    0.000    1.250    0.000   12.750    0.000    2.625 
#    0.000    0.000    0.000    0.000    0.000    0.000 
#
# Total GULP energy -357567.608671 kJ/mol
# GULP energy per Si atom -5586.993885 kJ/mol
# Density = 2.553750 g / cm^3
# Si number density = 25.595755 Si / 1000 Ang^3
#
#
#
# Elastic Constant Matrix: (Units=GPa)
#
#
# Indices 1 2 3 4 5 6 
#
# 1 50.7219 11.8446 8.2165 0.0000 0.0000 0.0000
# 2 11.8446 26.5059 30.2092 0.0000 0.0000 0.0000
# 3 8.2165 30.2092 165.6755 0.0000 0.0000 0.0000
# 4 0.0000 0.0000 0.0000 37.3151 0.0000 0.0000
# 5 0.0000 0.0000 0.0000 0.0000 34.0227 0.0000
# 6 0.0000 0.0000 0.0000 0.0000 0.0000 3.8919
#
#
#
# Elastic Compliance Matrix: (Units=1/GPa)
#
#
# Indices 1 2 3 4 5 6 
#
# 1 0.022116 -0.010897 0.000890 0.000000 0.000000 0.000000
# 2 -0.010897 0.052994 -0.009122 0.000000 0.000000 0.000000
# 3 0.000890 -0.009122 0.007655 0.000000 0.000000 0.000000
# 4 0.000000 0.000000 0.000000 0.026799 0.000000 0.000000
# 5 0.000000 0.000000 0.000000 0.000000 0.029392 0.000000
# 6 0.000000 0.000000 0.000000 0.000000 0.000000 0.256942
#
#
# Mechanical properties :
#
#
# Convention : Reuss Voigt Hill
#
# Bulk Modulus (GPa) = 22.46895 38.16043 30.31469
# Shear Modulus (GPa) = 11.13602 27.88815 19.51209
#
# Velocity S-wave (km/s) = 2.08810 3.30443 2.76400
# Velocity P-wave (km/s) = 3.82244 5.43142 4.69634
#
# Compressibility (1/GPa) = 0.04450587
#
# Stress axis : x y z
#
# Youngs Moduli (GPa) = 45.21635 18.86997 130.63124
#
# Poissons Ratio (x) = 0.20563 -0.11629
# Poissons Ratio (y) = 0.49274 1.19168
# Poissons Ratio (z) = -0.04025 0.17214
#
# Static dielectric constant tensor:
#      x y z
#    x 1.902880 0.000000 0.000000 
#    y 0.000000 2.063550 0.000000 
#    z 0.000000 0.000000 2.295770 
# 
# From -- ./inp_files/19712.got.cif
#   From: 2010.05.17/outbox.cif.g08.bks.cpg/sg60_10_cif.got.tgz:19712.got - 2010.06.03 14:59:27.
