data_PCOD9454077
_publ_section_title
;
Structure prediction by ZEFSAII (Michael W. Deem and Ramdas Pophale) SiO2 
 PCOD9454077
Probable space group: P B C N
;
_chemical_formula_sum "Si O2"
_cell_formula_units_Z 64
_cell_length_a 10.142003
_cell_length_b 17.807513
_cell_length_c 16.309938
_cell_angle_alpha 90.000000
_cell_angle_beta 90.000000
_cell_angle_gamma 90.000000
_cell_volume 2945.637600
_symmetry_space_group_name_H-M "P B C N"
_symmetry_group_IT_number 60
_symmetry_cell_setting 'orthorhombic'
loop_
_space_group_symop_operation_xyz
x,y,z
1/2-x,1/2-y,1/2+z
1/2+x,1/2-y,-z
-x,y,1/2-z
-x,-y,-z
1/2+x,1/2+y,1/2-z
1/2-x,1/2+y,z
x,-y,1/2+z
loop_
_atom_site_type_symbol
_atom_site_label
_atom_site_fract_x
_atom_site_fract_y
_atom_site_fract_z
Si Si1 0.950837 0.817522 0.081113
Si Si2 0.239031 0.386419 0.309124
Si Si3 0.114403 0.074580 0.066841
Si Si4 0.684467 0.312257 0.813686
Si Si5 0.393663 0.743013 0.357486
Si Si6 0.769105 0.840440 0.368478
Si Si7 0.821352 0.326164 0.539675
Si Si8 0.310909 0.474196 0.921072
O O1 0.864622 0.837593 0.160594
O O2 0.937722 0.728558 0.067583
O O3 0.088877 0.857729 0.094914
O O4 0.892126 0.858152 0.000595
O O5 0.121359 0.331272 0.338104
O O6 0.236047 0.388551 0.211189
O O7 0.261313 0.463720 0.356635
O O8 0.193976 0.106728 0.144616
O O9 0.964507 0.051303 0.092591
O O10 0.181682 0.009689 0.012802
O O11 0.676363 0.304118 0.716166
O O12 0.542663 0.282974 0.847989
O O13 0.781763 0.246930 0.841667
O O14 0.312730 0.722000 0.438890
O O15 0.669237 0.842467 0.443586
O O16 0.789363 0.405133 0.580705
#
# Coordination Sequence:
#
# PCOD9454077 Si02
#       8
#     8   8   8   8   8   8   8   8
#     4  10  19  35  57  86 117 153 199 251 292 339
#     4   9  21  36  56  85 116 159 189 246 300 359
#     4  10  18  34  54  86 114 150 195 247 297 344
#     4  10  18  34  58  86 108 146 199 260 278 339
#     4   9  19  35  56  84 110 146 201 241 298 341
#     4  11  20  34  59  89 112 149 207 244 289 349
#     4  11  20  35  56  84 122 155 190 243 297 356
#     4  10  20  35  54  85 126 155 187 240 313 361
#
# _framework density 21.727043999999999
#
# number of rings (size 3 to 8) (size 9 to 14) (size 15 to 20)
#    0.000    2.000    3.750    0.375    0.000    0.000 
#    2.250    1.250    0.000    3.000   26.000    0.000 
#    0.000    0.000    0.000    0.000    0.000    0.000 
#
# Total GULP energy -356906.789906 kJ/mol
# GULP energy per Si atom -5576.668592 kJ/mol
# Density = 2.167759 g / cm^3
# Si number density = 21.727044 Si / 1000 Ang^3
#
#
#
# Elastic Constant Matrix: (Units=GPa)
#
#
# Indices 1 2 3 4 5 6 
#
# 1 13.9160 9.7611 10.1341 0.0000 0.0000 0.0000
# 2 9.7611 130.7584 45.1968 0.0000 0.0000 0.0000
# 3 10.1341 45.1968 108.2395 0.0000 0.0000 0.0000
# 4 0.0000 0.0000 0.0000 33.4678 0.0000 0.0000
# 5 0.0000 0.0000 0.0000 0.0000 18.6403 0.0000
# 6 0.0000 0.0000 0.0000 0.0000 0.0000 25.2983
#
#
#
# Elastic Compliance Matrix: (Units=1/GPa)
#
#
# Indices 1 2 3 4 5 6 
#
# 1 0.078778 -0.003893 -0.005750 0.000000 0.000000 0.000000
# 2 -0.003893 0.009130 -0.003448 0.000000 0.000000 0.000000
# 3 -0.005750 -0.003448 0.011217 0.000000 0.000000 0.000000
# 4 0.000000 0.000000 0.000000 0.029879 0.000000 0.000000
# 5 0.000000 0.000000 0.000000 0.000000 0.053647 0.000000
# 6 0.000000 0.000000 0.000000 0.000000 0.000000 0.039528
#
#
# Mechanical properties :
#
#
# Convention : Reuss Voigt Hill
#
# Bulk Modulus (GPa) = 13.70943 42.56643 28.13793
# Shear Modulus (GPa) = 18.33677 28.00275 23.16976
#
# Velocity S-wave (km/s) = 2.90825 3.59394 3.26912
# Velocity P-wave (km/s) = 4.19533 6.07090 5.21808
#
# Compressibility (1/GPa) = 0.07294248
#
# Stress axis : x y z
#
# Youngs Moduli (GPa) = 12.69392 109.52808 89.15176
#
# Poissons Ratio (x) = 0.42642 0.51263
# Poissons Ratio (y) = 0.04942 0.30738
# Poissons Ratio (z) = 0.07299 0.37764
#
# Static dielectric constant tensor:
#      x y z
#    x 1.813040 0.000000 0.000000 
#    y 0.000000 1.849950 0.000000 
#    z 0.000000 0.000000 1.836640 
# 
# From -- ./inp_files/20292.got.cif
#   From: 2010.05.17/outbox.cif.g08.bks.cpg/sg60_11_cif.got.tgz:20292.got - 2010.06.03 14:59:27.
