data_PCOD9454894
_publ_section_title
;
Structure prediction by ZEFSAII (Michael W. Deem and Ramdas Pophale) SiO2 
 PCOD9454894
Probable space group: P B C N
;
_chemical_formula_sum "Si O2"
_cell_formula_units_Z 44
_cell_length_a 13.700574
_cell_length_b 13.647586
_cell_length_c 12.132773
_cell_angle_alpha 90.000000
_cell_angle_beta 90.000000
_cell_angle_gamma 90.000000
_cell_volume 2268.583007
_symmetry_space_group_name_H-M "P B C N"
_symmetry_group_IT_number 60
_symmetry_cell_setting 'orthorhombic'
loop_
_space_group_symop_operation_xyz
x,y,z
1/2-x,1/2-y,1/2+z
1/2+x,1/2-y,-z
-x,y,1/2-z
-x,-y,-z
1/2+x,1/2+y,1/2-z
1/2-x,1/2+y,z
x,-y,1/2+z
loop_
_atom_site_type_symbol
_atom_site_label
_atom_site_fract_x
_atom_site_fract_y
_atom_site_fract_z
Si Si1 0.237775 0.595702 0.072816
Si Si2 0.816783 0.899664 0.371324
Si Si3 0.406349 0.240925 0.960978
Si Si4 0.260630 0.273141 0.781954
Si Si5 0.603774 0.284712 0.057199
Si Si6 0.500000 0.594519 0.750000
O O1 0.244387 0.479600 0.080091
O O2 0.145774 0.644254 0.010934
O O3 0.245729 0.640911 0.194972
O O4 0.332050 0.636297 0.007740
O O5 0.863799 0.830598 0.464738
O O6 0.765820 0.826195 0.285002
O O7 0.907021 0.954843 0.308562
O O8 0.522068 0.237986 0.979139
O O9 0.365320 0.261029 0.839286
O O10 0.182518 0.283399 0.881534
O O11 0.546042 0.337096 0.156003
#
# Coordination Sequence:
#
# PCOD9454894 Si02
#       6
#     8   8   8   8   8   4
#     4  10  20  32  53  78 103 137 172 218 264 308
#     4   9  18  32  50  77 105 130 175 217 265 320
#     4   9  19  34  53  74 104 140 171 213 264 318
#     4   9  19  34  52  75 104 137 170 217 268 311
#     4   9  18  34  53  76 103 134 175 212 263 315
#     4   8  16  30  50  74 102 130 158 218 272 308
#
# _framework density 19.395368000000001
#
# number of rings (size 3 to 8) (size 9 to 14) (size 15 to 20)
#    0.000    2.909    0.000    1.091    0.000    9.455 
#    0.000    0.000    0.000   24.000    0.000    0.000 
#    0.000    0.000    0.000    0.000    0.000    0.000 
#
# Total GULP energy -245137.888980 kJ/mol
# GULP energy per Si atom -5571.315659 kJ/mol
# Density = 1.935122 g / cm^3
# Si number density = 19.395368 Si / 1000 Ang^3
#
#
#
# Elastic Constant Matrix: (Units=GPa)
#
#
# Indices 1 2 3 4 5 6 
#
# 1 60.3079 5.1141 2.3885 0.0000 0.0000 0.0000
# 2 5.1141 56.8615 -8.1637 0.0000 0.0000 0.0000
# 3 2.3885 -8.1637 48.8997 0.0000 0.0000 0.0000
# 4 0.0000 0.0000 0.0000 26.8002 0.0000 0.0000
# 5 0.0000 0.0000 0.0000 0.0000 23.3651 0.0000
# 6 0.0000 0.0000 0.0000 0.0000 0.0000 9.5617
#
#
#
# Elastic Compliance Matrix: (Units=1/GPa)
#
#
# Indices 1 2 3 4 5 6 
#
# 1 0.016766 -0.001665 -0.001097 0.000000 0.000000 0.000000
# 2 -0.001665 0.018184 0.003117 0.000000 0.000000 0.000000
# 3 -0.001097 0.003117 0.021024 0.000000 0.000000 0.000000
# 4 0.000000 0.000000 0.000000 0.037313 0.000000 0.000000
# 5 0.000000 0.000000 0.000000 0.000000 0.042799 0.000000
# 6 0.000000 0.000000 0.000000 0.000000 0.000000 0.104583
#
#
# Mechanical properties :
#
#
# Convention : Reuss Voigt Hill
#
# Bulk Modulus (GPa) = 17.64180 18.30520 17.97350
# Shear Modulus (GPa) = 19.31585 23.06075 21.18830
#
# Velocity S-wave (km/s) = 3.15921 3.45190 3.30880
# Velocity P-wave (km/s) = 4.73531 5.03447 4.88718
#
# Compressibility (1/GPa) = 0.05668357
#
# Stress axis : x y z
#
# Youngs Moduli (GPa) = 59.64362 54.99365 47.56465
#
# Poissons Ratio (x) = 0.09159 0.05218
# Poissons Ratio (y) = 0.09933 -0.14826
# Poissons Ratio (z) = 0.06543 -0.17142
#
# Static dielectric constant tensor:
#      x y z
#    x 1.791690 0.000000 0.000000 
#    y 0.000000 1.652250 0.000000 
#    z 0.000000 0.000000 1.707830 
# 
# From -- ./inp_files/11809.got.cif
#   From: 2010.05.17/outbox.cif.g08.bks.cpg/sg60_6_cif.got.tgz:11809.got - 2010.06.03 14:59:27.
