data_PCOD9454592
_publ_section_title
;
Structure prediction by ZEFSAII (Michael W. Deem and Ramdas Pophale) SiO2 
 PCOD9454592
Probable space group: P B C N
;
_chemical_formula_sum "Si O2"
_cell_formula_units_Z 52
_cell_length_a 8.134049
_cell_length_b 30.727288
_cell_length_c 8.100252
_cell_angle_alpha 90.000000
_cell_angle_beta 90.000000
_cell_angle_gamma 90.000000
_cell_volume 2024.554841
_symmetry_space_group_name_H-M "P B C N"
_symmetry_group_IT_number 60
_symmetry_cell_setting 'orthorhombic'
loop_
_space_group_symop_operation_xyz
x,y,z
1/2-x,1/2-y,1/2+z
1/2+x,1/2-y,-z
-x,y,1/2-z
-x,-y,-z
1/2+x,1/2+y,1/2-z
1/2-x,1/2+y,z
x,-y,1/2+z
loop_
_atom_site_type_symbol
_atom_site_label
_atom_site_fract_x
_atom_site_fract_y
_atom_site_fract_z
Si Si1 0.594344 0.233503 0.924250
Si Si2 0.000000 0.571186 0.750000
Si Si3 0.180054 0.502644 0.582535
Si Si4 0.806268 0.683842 0.456164
Si Si5 0.183438 0.838906 0.187936
Si Si6 0.786686 0.593228 0.440136
Si Si7 0.427889 0.569651 0.574698
O O1 0.500000 0.232519 0.750000
O O2 0.468155 0.213132 0.054230
O O3 0.746228 0.199781 0.922086
O O4 0.658837 0.282116 0.941628
O O5 0.152194 0.538571 0.722200
O O6 0.064492 0.592407 0.920731
O O7 0.200920 0.453768 0.644886
O O8 0.332026 0.528306 0.495416
O O9 0.000000 0.500000 0.500000
O O10 0.787205 0.664818 0.642929
O O11 0.803778 0.639696 0.350647
O O12 0.184499 0.886863 0.106791
O O13 0.000000 0.831427 0.250000
O O14 0.594342 0.589631 0.494427
O O15 0.500000 0.554281 0.750000
#
# Coordination Sequence:
#
# PCOD9454592 Si02
#       7
#     8   4   8   8   8   8   8
#     4  10  24  38  61  88 127 156 201 255 312 361
#     4  10  20  38  58  88 122 150 200 250 290 356
#     4  10  22  35  57  85 120 154 189 243 301 353
#     4  11  21  37  60  89 116 159 204 242 305 362
#     4  10  19  35  63  90 115 148 198 255 301 352
#     4  11  22  35  64  88 118 154 202 247 302 360
#     4  11  19  36  60  89 119 144 200 252 296 346
#
# _framework density 25.684660000000001
#
# number of rings (size 3 to 8) (size 9 to 14) (size 15 to 20)
#    0.000    1.538    4.615    1.385    7.538    0.000 
#    0.000    0.769    8.462    0.000    0.000    0.000 
#    0.000    0.000    0.000    0.000    0.000    0.000 
#
# Total GULP energy -289711.042826 kJ/mol
# GULP energy per Si atom -5571.366208 kJ/mol
# Density = 2.562620 g / cm^3
# Si number density = 25.684660 Si / 1000 Ang^3
#
#
#
# Elastic Constant Matrix: (Units=GPa)
#
#
# Indices 1 2 3 4 5 6 
#
# 1 121.7616 93.5545 13.7765 0.0000 0.0000 0.0000
# 2 93.5545 242.6050 11.8730 0.0000 0.0000 0.0000
# 3 13.7765 11.8730 24.1829 0.0000 0.0000 0.0000
# 4 0.0000 0.0000 0.0000 12.4048 0.0000 0.0000
# 5 0.0000 0.0000 0.0000 0.0000 20.5829 0.0000
# 6 0.0000 0.0000 0.0000 0.0000 0.0000 57.4782
#
#
#
# Elastic Compliance Matrix: (Units=1/GPa)
#
#
# Indices 1 2 3 4 5 6 
#
# 1 0.012180 -0.004465 -0.004747 0.000000 0.000000 0.000000
# 2 -0.004465 0.005860 -0.000334 0.000000 0.000000 0.000000
# 3 -0.004747 -0.000334 0.044220 0.000000 0.000000 0.000000
# 4 0.000000 0.000000 0.000000 0.080614 0.000000 0.000000
# 5 0.000000 0.000000 0.000000 0.000000 0.048584 0.000000
# 6 0.000000 0.000000 0.000000 0.000000 0.000000 0.017398
#
#
# Mechanical properties :
#
#
# Convention : Reuss Voigt Hill
#
# Bulk Modulus (GPa) = 23.16450 69.66193 46.41322
# Shear Modulus (GPa) = 20.63257 36.04956 28.34106
#
# Velocity S-wave (km/s) = 2.83734 3.75046 3.32539
# Velocity P-wave (km/s) = 4.44661 6.77757 5.73183
#
# Compressibility (1/GPa) = 0.04316951
#
# Stress axis : x y z
#
# Youngs Moduli (GPa) = 82.10013 170.64992 22.61444
#
# Poissons Ratio (x) = 0.76190 0.10735
# Poissons Ratio (y) = 0.36655 0.00754
# Poissons Ratio (z) = 0.38972 0.05693
#
# Static dielectric constant tensor:
#      x y z
#    x 2.139920 0.000000 0.000000 
#    y 0.000000 2.119810 0.000000 
#    z 0.000000 0.000000 2.190980 
# 
# From -- ./inp_files/10246.got.cif
#   From: 2010.05.17/outbox.cif.g08.bks.cpg/sg60_6_cif.got.tgz:10246.got - 2010.06.03 14:59:27.
