data_PCOD9454970
_publ_section_title
;
Structure prediction by ZEFSAII (Michael W. Deem and Ramdas Pophale) SiO2 
 PCOD9454970
Probable space group: P B C N
;
_chemical_formula_sum "Si O2"
_cell_formula_units_Z 56
_cell_length_a 10.021993
_cell_length_b 21.166593
_cell_length_c 11.678428
_cell_angle_alpha 90.000000
_cell_angle_beta 90.000000
_cell_angle_gamma 90.000000
_cell_volume 2477.361829
_symmetry_space_group_name_H-M "P B C N"
_symmetry_group_IT_number 60
_symmetry_cell_setting 'orthorhombic'
loop_
_space_group_symop_operation_xyz
x,y,z
1/2-x,1/2-y,1/2+z
1/2+x,1/2-y,-z
-x,y,1/2-z
-x,-y,-z
1/2+x,1/2+y,1/2-z
1/2-x,1/2+y,z
x,-y,1/2+z
loop_
_atom_site_type_symbol
_atom_site_label
_atom_site_fract_x
_atom_site_fract_y
_atom_site_fract_z
Si Si1 0.224845 0.083146 0.904158
Si Si2 0.119381 0.047528 0.327777
Si Si3 0.748789 0.860006 0.856917
Si Si4 0.185733 0.342948 0.204819
Si Si5 0.565195 0.638438 0.959529
Si Si6 0.369217 0.237909 0.295450
Si Si7 0.438046 0.247443 0.548146
O O1 0.320919 0.104476 0.801524
O O2 0.077825 0.118640 0.901919
O O3 0.197121 0.009635 0.886031
O O4 0.283759 0.103178 0.026888
O O5 0.193371 0.091947 0.236401
O O6 0.071745 0.092279 0.430994
O O7 0.000000 0.019501 0.250000
O O8 0.637835 0.821379 0.789181
O O9 0.850513 0.803980 0.895441
O O10 0.303757 0.366235 0.118691
O O11 0.245109 0.282957 0.273477
O O12 0.065660 0.312187 0.132071
O O13 0.563482 0.710979 0.006940
O O14 0.500000 0.273950 0.250000
O O15 0.377709 0.223626 0.428445
#
# Coordination Sequence:
#
# PCOD9454970 Si02
#       7
#     8   8   8   8   8   8   8
#     4  11  22  36  55  83 119 158 195 232 294 357
#     4  12  22  35  56  83 125 154 185 243 291 357
#     4  10  23  37  52  85 115 146 197 236 290 349
#     4  11  20  34  57  81 121 156 190 238 287 358
#     4  11  20  36  53  88 117 155 198 231 292 352
#     4  11  19  38  60  80 111 154 193 240 292 346
#     4  10  20  34  54  84 116 146 195 237 292 349
#
# _framework density 22.604692
#
# number of rings (size 3 to 8) (size 9 to 14) (size 15 to 20)
#    0.000    1.143    7.143    2.571    2.000    0.000 
#    0.000    1.429    0.000    0.857    0.000    0.000 
#    0.000    0.000    0.000    0.000    0.000    0.000 
#
# Total GULP energy -312601.244050 kJ/mol
# GULP energy per Si atom -5582.165072 kJ/mol
# Density = 2.255324 g / cm^3
# Si number density = 22.604692 Si / 1000 Ang^3
#
#
#
# Elastic Constant Matrix: (Units=GPa)
#
#
# Indices 1 2 3 4 5 6 
#
# 1 36.3633 18.7509 13.3122 0.0000 0.0000 0.0000
# 2 18.7509 86.2470 66.0308 0.0000 0.0000 0.0000
# 3 13.3122 66.0308 133.7758 0.0000 0.0000 0.0000
# 4 0.0000 0.0000 0.0000 7.8333 0.0000 0.0000
# 5 0.0000 0.0000 0.0000 0.0000 25.1322 0.0000
# 6 0.0000 0.0000 0.0000 0.0000 0.0000 27.8457
#
#
#
# Elastic Compliance Matrix: (Units=1/GPa)
#
#
# Indices 1 2 3 4 5 6 
#
# 1 0.030985 -0.007034 0.000389 0.000000 0.000000 0.000000
# 2 -0.007034 0.020234 -0.009288 0.000000 0.000000 0.000000
# 3 0.000389 -0.009288 0.012021 0.000000 0.000000 0.000000
# 4 0.000000 0.000000 0.000000 0.127660 0.000000 0.000000
# 5 0.000000 0.000000 0.000000 0.000000 0.039790 0.000000
# 6 0.000000 0.000000 0.000000 0.000000 0.000000 0.035912
#
#
# Mechanical properties :
#
#
# Convention : Reuss Voigt Hill
#
# Bulk Modulus (GPa) = 31.87313 50.28596 41.07955
# Shear Modulus (GPa) = 16.18506 22.71505 19.45006
#
# Velocity S-wave (km/s) = 2.67873 3.17343 2.93651
# Velocity P-wave (km/s) = 4.86809 5.97676 5.45068
#
# Compressibility (1/GPa) = 0.03137439
#
# Stress axis : x y z
#
# Youngs Moduli (GPa) = 32.27360 49.42064 83.18888
#
# Poissons Ratio (x) = 0.34762 -0.03232
# Poissons Ratio (y) = 0.22701 0.77263
# Poissons Ratio (z) = -0.01254 0.45900
#
# Static dielectric constant tensor:
#      x y z
#    x 1.998690 0.000000 0.000000 
#    y 0.000000 1.834860 0.000000 
#    z 0.000000 0.000000 1.882100 
# 
# From -- ./inp_files/11170.got.cif
#   From: 2010.05.17/outbox.cif.g08.bks.cpg/sg60_6_cif.got.tgz:11170.got - 2010.06.03 14:59:27.
