data_PCOD9454821
_publ_section_title
;
Structure prediction by ZEFSAII (Michael W. Deem and Ramdas Pophale) SiO2 
 PCOD9454821
Probable space group: P B C N
;
_chemical_formula_sum "Si O2"
_cell_formula_units_Z 44
_cell_length_a 7.941115
_cell_length_b 33.963361
_cell_length_c 7.857000
_cell_angle_alpha 90.000000
_cell_angle_beta 90.000000
_cell_angle_gamma 90.000000
_cell_volume 2119.087549
_symmetry_space_group_name_H-M "P B C N"
_symmetry_group_IT_number 60
_symmetry_cell_setting 'orthorhombic'
loop_
_space_group_symop_operation_xyz
x,y,z
1/2-x,1/2-y,1/2+z
1/2+x,1/2-y,-z
-x,y,1/2-z
-x,-y,-z
1/2+x,1/2+y,1/2-z
1/2-x,1/2+y,z
x,-y,1/2+z
loop_
_atom_site_type_symbol
_atom_site_label
_atom_site_fract_x
_atom_site_fract_y
_atom_site_fract_z
Si Si1 0.146454 0.288939 0.601780
Si Si2 0.305480 0.443872 0.302653
Si Si3 0.715156 0.119735 0.459928
Si Si4 0.000000 0.924388 0.750000
Si Si5 0.000000 0.567905 0.250000
Si Si6 0.262708 0.476274 0.956580
Si Si7 0.500000 0.748908 0.250000
O O1 0.185702 0.334399 0.556179
O O2 0.327057 0.272128 0.674924
O O3 0.000000 0.285953 0.750000
O O4 0.074610 0.270230 0.423239
O O5 0.500000 0.447254 0.250000
O O6 0.265775 0.399926 0.361550
O O7 0.268041 0.476922 0.444434
O O8 0.209819 0.458842 0.136113
O O9 0.549089 0.096855 0.401796
O O10 0.858283 0.103926 0.329427
O O11 0.931010 0.953743 0.605505
O O12 0.858553 0.539379 0.186558
#
# Coordination Sequence:
#
# PCOD9454821 Si02
#       7
#     8   8   8   4   4   8   4
#     4  12  26  52  81 119 152 196 243 311 381 473
#     4  12  23  40  62  95 128 185 246 302 344 417
#     4  11  24  43  67  97 143 175 226 291 364 418
#     4  10  19  40  64  92 130 192 232 294 350 410
#     4  10  24  40  61  94 128 186 218 292 351 408
#     4  11  22  38  64  86 133 181 252 290 345 409
#     4  12  27  52  89 116 156 194 252 300 385 474
#
# _framework density 20.763653000000001
#
# number of rings (size 3 to 8) (size 9 to 14) (size 15 to 20)
#    0.000    0.727    5.455    3.273    0.000    5.091 
#    3.273    0.000    0.000    0.000    0.000    0.000 
#    0.000    0.000    0.000    0.000    0.000    0.000 
#
# Total GULP energy -245208.030465 kJ/mol
# GULP energy per Si atom -5572.909783 kJ/mol
# Density = 2.071639 g / cm^3
# Si number density = 20.763653 Si / 1000 Ang^3
#
#
#
# Elastic Constant Matrix: (Units=GPa)
#
#
# Indices 1 2 3 4 5 6 
#
# 1 77.9204 70.2326 42.3133 0.0000 0.0000 0.0000
# 2 70.2326 147.6033 72.9142 0.0000 0.0000 0.0000
# 3 42.3133 72.9142 151.7663 0.0000 0.0000 0.0000
# 4 0.0000 0.0000 0.0000 31.1891 0.0000 0.0000
# 5 0.0000 0.0000 0.0000 0.0000 23.5054 0.0000
# 6 0.0000 0.0000 0.0000 0.0000 0.0000 31.8974
#
#
#
# Elastic Compliance Matrix: (Units=1/GPa)
#
#
# Indices 1 2 3 4 5 6 
#
# 1 0.022727 -0.010075 -0.001496 0.000000 0.000000 0.000000
# 2 -0.010075 0.013349 -0.003605 0.000000 0.000000 0.000000
# 3 -0.001496 -0.003605 0.008738 0.000000 0.000000 0.000000
# 4 0.000000 0.000000 0.000000 0.032063 0.000000 0.000000
# 5 0.000000 0.000000 0.000000 0.000000 0.042543 0.000000
# 6 0.000000 0.000000 0.000000 0.000000 0.000000 0.031351
#
#
# Mechanical properties :
#
#
# Convention : Reuss Voigt Hill
#
# Bulk Modulus (GPa) = 69.14107 83.13447 76.13777
# Shear Modulus (GPa) = 26.88999 30.10703 28.49851
#
# Velocity S-wave (km/s) = 3.60259 3.81200 3.70877
# Velocity P-wave (km/s) = 7.11872 7.71366 7.42215
#
# Compressibility (1/GPa) = 0.01446318
#
# Stress axis : x y z
#
# Youngs Moduli (GPa) = 44.00073 74.90980 114.44307
#
# Poissons Ratio (x) = 0.75471 0.17121
# Poissons Ratio (y) = 0.44330 0.41252
# Poissons Ratio (z) = 0.06583 0.27002
#
# Static dielectric constant tensor:
#      x y z
#    x 1.862570 0.000000 0.000000 
#    y 0.000000 1.688070 0.000000 
#    z 0.000000 0.000000 1.820220 
# 
# From -- ./inp_files/4154.got.cif
#   From: 2010.05.17/outbox.cif.g08.bks.cpg/sg60_3_cif.got.tgz:4154.got - 2010.06.03 14:59:27.
