data_PCOD9454079
_publ_section_title
;
Structure prediction by ZEFSAII (Michael W. Deem and Ramdas Pophale) SiO2 
 PCOD9454079
Probable space group: P B C N
;
_chemical_formula_sum "Si O2"
_cell_formula_units_Z 52
_cell_length_a 21.288808
_cell_length_b 19.400505
_cell_length_c 5.673346
_cell_angle_alpha 90.000000
_cell_angle_beta 90.000000
_cell_angle_gamma 90.000000
_cell_volume 2343.169203
_symmetry_space_group_name_H-M "P B C N"
_symmetry_group_IT_number 60
_symmetry_cell_setting 'orthorhombic'
loop_
_space_group_symop_operation_xyz
x,y,z
1/2-x,1/2-y,1/2+z
1/2+x,1/2-y,-z
-x,y,1/2-z
-x,-y,-z
1/2+x,1/2+y,1/2-z
1/2-x,1/2+y,z
x,-y,1/2+z
loop_
_atom_site_type_symbol
_atom_site_label
_atom_site_fract_x
_atom_site_fract_y
_atom_site_fract_z
Si Si1 0.294542 0.712519 0.647225
Si Si2 0.576505 0.253567 0.581786
Si Si3 0.825778 0.461813 0.974047
Si Si4 0.231767 0.143940 0.239162
Si Si5 0.611032 0.349727 0.972326
Si Si6 0.000000 0.142438 0.750000
Si Si7 0.534552 0.097794 0.504461
O O1 0.351209 0.746482 0.496766
O O2 0.259268 0.648989 0.520817
O O3 0.247753 0.774976 0.695139
O O4 0.335799 0.679532 0.854083
O O5 0.541323 0.309180 0.419799
O O6 0.547605 0.179045 0.546057
O O7 0.577891 0.284685 0.844543
O O8 0.815139 0.507484 0.735808
O O9 0.779067 0.399069 0.916002
O O10 0.898304 0.438488 0.977508
O O11 0.159662 0.117588 0.213042
O O12 0.554956 0.392256 0.093037
O O13 0.500000 0.090156 0.250000
O O14 0.500000 0.074416 0.750000
#
# Coordination Sequence:
#
# PCOD9454079 Si02
#       7
#     8   8   8   8   8   4   8
#     4  10  20  34  61  92 124 161 212 277 339 420
#     4  10  20  34  55  92 133 173 207 263 338 411
#     4  12  30  49  69  92 132 186 242 299 333 390
#     4  11  22  39  63  92 128 169 224 277 352 406
#     4  10  21  33  57  93 133 169 203 266 339 424
#     4  10  18  34  54  90 138 162 206 246 340 420
#     4  12  25  42  69  94 128 181 240 293 334 389
#
# _framework density 22.192164999999999
#
# number of rings (size 3 to 8) (size 9 to 14) (size 15 to 20)
#    0.000    1.231    3.846    2.308    4.308    3.077 
#    0.000    0.000    0.000    0.000    0.000    1.077 
#    0.000    0.000    0.000    0.000    0.000    0.000 
#
# Total GULP energy -289478.137871 kJ/mol
# GULP energy per Si atom -5566.887267 kJ/mol
# Density = 2.214166 g / cm^3
# Si number density = 22.192165 Si / 1000 Ang^3
#
#
#
# Elastic Constant Matrix: (Units=GPa)
#
#
# Indices 1 2 3 4 5 6 
#
# 1 107.7743 3.6150 28.5388 0.0000 0.0000 0.0000
# 2 3.6150 22.5065 20.0207 0.0000 0.0000 0.0000
# 3 28.5388 20.0207 112.5950 0.0000 0.0000 0.0000
# 4 0.0000 0.0000 0.0000 20.9140 0.0000 0.0000
# 5 0.0000 0.0000 0.0000 0.0000 58.1156 0.0000
# 6 0.0000 0.0000 0.0000 0.0000 0.0000 13.9905
#
#
#
# Elastic Compliance Matrix: (Units=1/GPa)
#
#
# Indices 1 2 3 4 5 6 
#
# 1 0.009957 0.000767 -0.002660 0.000000 0.000000 0.000000
# 2 0.000767 0.052839 -0.009590 0.000000 0.000000 0.000000
# 3 -0.002660 -0.009590 0.011261 0.000000 0.000000 0.000000
# 4 0.000000 0.000000 0.000000 0.047815 0.000000 0.000000
# 5 0.000000 0.000000 0.000000 0.000000 0.017207 0.000000
# 6 0.000000 0.000000 0.000000 0.000000 0.000000 0.071477
#
#
# Mechanical properties :
#
#
# Convention : Reuss Voigt Hill
#
# Bulk Modulus (GPa) = 19.57284 38.58052 29.07668
# Shear Modulus (GPa) = 19.95592 31.31745 25.63668
#
# Velocity S-wave (km/s) = 3.00197 3.76066 3.40253
# Velocity P-wave (km/s) = 4.56669 6.02323 5.34481
#
# Compressibility (1/GPa) = 0.05109122
#
# Stress axis : x y z
#
# Youngs Moduli (GPa) = 100.42830 18.92545 88.80334
#
# Poissons Ratio (x) = -0.01452 0.23624
# Poissons Ratio (y) = -0.07704 0.85160
# Poissons Ratio (z) = 0.26716 0.18149
#
# Static dielectric constant tensor:
#      x y z
#    x 1.842060 0.000000 0.000000 
#    y 0.000000 1.805800 0.000000 
#    z 0.000000 0.000000 2.139940 
# 
# From -- ./inp_files/2091.got.cif
#   From: 2010.05.17/outbox.cif.g08.bks.cpg/sg60_2_cif.got.tgz:2091.got - 2010.06.03 14:59:27.
