data_PCOD9454759
_publ_section_title
;
Structure prediction by ZEFSAII (Michael W. Deem and Ramdas Pophale) SiO2 
 PCOD9454759
Probable space group: P B C N
;
_chemical_formula_sum "Si O2"
_cell_formula_units_Z 48
_cell_length_a 15.815367
_cell_length_b 18.459882
_cell_length_c 7.777047
_cell_angle_alpha 90.000000
_cell_angle_beta 90.000000
_cell_angle_gamma 90.000000
_cell_volume 2270.507383
_symmetry_space_group_name_H-M "P B C N"
_symmetry_group_IT_number 60
_symmetry_cell_setting 'orthorhombic'
loop_
_space_group_symop_operation_xyz
x,y,z
1/2-x,1/2-y,1/2+z
1/2+x,1/2-y,-z
-x,y,1/2-z
-x,-y,-z
1/2+x,1/2+y,1/2-z
1/2-x,1/2+y,z
x,-y,1/2+z
loop_
_atom_site_type_symbol
_atom_site_label
_atom_site_fract_x
_atom_site_fract_y
_atom_site_fract_z
Si Si1 0.500000 0.174672 0.250000
Si Si2 0.186992 0.355013 0.767229
Si Si3 0.676361 0.463221 0.864226
Si Si4 0.218197 0.735720 0.921213
Si Si5 0.679164 0.386744 0.236190
Si Si6 0.000000 0.910929 0.750000
Si Si7 0.444618 0.301967 0.021869
O O1 0.412990 0.130654 0.267373
O O2 0.490500 0.230474 0.090305
O O3 0.249368 0.421973 0.739099
O O4 0.213659 0.300259 0.918180
O O5 0.206065 0.303896 0.602311
O O6 0.697603 0.548119 0.867152
O O7 0.586052 0.455792 0.768316
O O8 0.668018 0.425682 0.050837
O O9 0.247897 0.671935 0.796550
O O10 0.129415 0.775703 0.891442
O O11 0.601043 0.341770 0.316716
O O12 0.997254 0.859981 0.582754
#
# Coordination Sequence:
#
# PCOD9454759 Si02
#       7
#     4   8   8   8   8   4   8
#     4  10  20  37  64  89 124 166 206 264 308 361
#     4  10  21  37  60  91 118 164 206 253 309 364
#     4  11  25  39  59  90 124 168 199 254 315 384
#     4  10  19  38  62  86 121 156 210 252 301 363
#     4  11  23  42  62  88 128 163 206 253 316 374
#     4  12  24  37  58  91 132 162 206 250 312 385
#     4  11  22  37  62  93 124 166 209 258 310 364
#
# _framework density 21.140647999999999
#
# number of rings (size 3 to 8) (size 9 to 14) (size 15 to 20)
#    0.000    1.333    5.000    2.000    2.333    3.333 
#    0.000    0.000    0.000   10.000    0.000    0.000 
#    0.000    0.000    0.000    0.000    0.000    0.000 
#
# Total GULP energy -267989.180520 kJ/mol
# GULP energy per Si atom -5583.107928 kJ/mol
# Density = 2.109253 g / cm^3
# Si number density = 21.140648 Si / 1000 Ang^3
#
#
#
# Elastic Constant Matrix: (Units=GPa)
#
#
# Indices 1 2 3 4 5 6 
#
# 1 132.8668 44.6951 29.1891 0.0000 0.0000 0.0000
# 2 44.6951 92.3736 13.9526 0.0000 0.0000 0.0000
# 3 29.1891 13.9526 80.5888 0.0000 0.0000 0.0000
# 4 0.0000 0.0000 0.0000 23.8619 0.0000 0.0000
# 5 0.0000 0.0000 0.0000 0.0000 29.9474 0.0000
# 6 0.0000 0.0000 0.0000 0.0000 0.0000 26.0906
#
#
#
# Elastic Compliance Matrix: (Units=1/GPa)
#
#
# Indices 1 2 3 4 5 6 
#
# 1 0.009540 -0.004204 -0.002727 0.000000 0.000000 0.000000
# 2 -0.004204 0.012969 -0.000723 0.000000 0.000000 0.000000
# 3 -0.002727 -0.000723 0.013522 0.000000 0.000000 0.000000
# 4 0.000000 0.000000 0.000000 0.041908 0.000000 0.000000
# 5 0.000000 0.000000 0.000000 0.000000 0.033392 0.000000
# 6 0.000000 0.000000 0.000000 0.000000 0.000000 0.038328
#
#
# Mechanical properties :
#
#
# Convention : Reuss Voigt Hill
#
# Bulk Modulus (GPa) = 48.25738 53.50028 50.87883
# Shear Modulus (GPa) = 29.09123 30.51279 29.80201
#
# Velocity S-wave (km/s) = 3.71358 3.80323 3.75867
# Velocity P-wave (km/s) = 6.42370 6.68191 6.55408
#
# Compressibility (1/GPa) = 0.02072222
#
# Stress axis : x y z
#
# Youngs Moduli (GPa) = 104.82583 77.10820 73.95536
#
# Poissons Ratio (x) = 0.32415 0.20171
# Poissons Ratio (y) = 0.44067 0.05345
# Poissons Ratio (z) = 0.28590 0.05573
#
# Static dielectric constant tensor:
#      x y z
#    x 1.792720 0.000000 0.000000 
#    y 0.000000 1.725060 0.000000 
#    z 0.000000 0.000000 1.840340 
# 
# From -- ./inp_files/6044.got.cif
#   From: 2010.05.17/outbox.cif.g08.bks.cpg/sg60_4_cif.got.tgz:6044.got - 2010.06.03 14:59:27.
