data_PCOD9454798
_publ_section_title
;
Structure prediction by ZEFSAII (Michael W. Deem and Ramdas Pophale) SiO2 
 PCOD9454798
Probable space group: P B C N
;
_chemical_formula_sum "Si O2"
_cell_formula_units_Z 40
_cell_length_a 10.075842
_cell_length_b 8.515272
_cell_length_c 18.046076
_cell_angle_alpha 90.000000
_cell_angle_beta 90.000000
_cell_angle_gamma 90.000000
_cell_volume 1548.326888
_symmetry_space_group_name_H-M "P B C N"
_symmetry_group_IT_number 60
_symmetry_cell_setting 'orthorhombic'
loop_
_space_group_symop_operation_xyz
x,y,z
1/2-x,1/2-y,1/2+z
1/2+x,1/2-y,-z
-x,y,1/2-z
-x,-y,-z
1/2+x,1/2+y,1/2-z
1/2-x,1/2+y,z
x,-y,1/2+z
loop_
_atom_site_type_symbol
_atom_site_label
_atom_site_fract_x
_atom_site_fract_y
_atom_site_fract_z
Si Si1 0.818712 0.053719 0.441106
Si Si2 0.108441 0.768593 0.148182
Si Si3 0.412052 0.857559 0.028876
Si Si4 0.832668 0.350252 0.687871
Si Si5 0.429787 0.801200 0.323133
O O1 0.707159 0.163492 0.401714
O O2 0.908809 0.171421 0.488646
O O3 0.884161 0.948849 0.377063
O O4 0.733818 0.927420 0.486391
O O5 0.153418 0.734699 0.232299
O O6 0.957863 0.710172 0.141204
O O7 0.460858 0.838740 0.114728
O O8 0.500000 0.000000 0.000000
O O9 0.860081 0.533971 0.697726
O O10 0.690171 0.311556 0.654086
O O11 0.500000 0.737200 0.250000
#
# Coordination Sequence:
#
# PCOD9454798 Si02
#       5
#     8   8   8   8   8
#     4  10  21  43  66  89 130 176 213 259 338 389
#     4  10  19  39  64  95 131 172 209 264 332 391
#     4  11  25  45  68  94 132 173 221 269 327 393
#     4  11  22  36  62  97 132 161 221 270 316 387
#     4  12  24  42  63  96 131 170 214 274 326 386
#
# _framework density 25.834337999999999
#
# number of rings (size 3 to 8) (size 9 to 14) (size 15 to 20)
#    0.000    1.200    4.000    3.600    2.800    1.600 
#    0.000    2.000    0.000    0.000    0.000    0.000 
#    0.000    0.000    0.000    0.000    0.000    0.000 
#
# Total GULP energy -223750.585942 kJ/mol
# GULP energy per Si atom -5593.764649 kJ/mol
# Density = 2.577554 g / cm^3
# Si number density = 25.834338 Si / 1000 Ang^3
#
#
#
# Elastic Constant Matrix: (Units=GPa)
#
#
# Indices 1 2 3 4 5 6 
#
# 1 102.4472 28.6686 9.4085 0.0000 0.0000 0.0000
# 2 28.6686 117.6516 2.3927 0.0000 0.0000 0.0000
# 3 9.4085 2.3927 76.5159 0.0000 0.0000 0.0000
# 4 0.0000 0.0000 0.0000 41.7921 0.0000 0.0000
# 5 0.0000 0.0000 0.0000 0.0000 27.0720 0.0000
# 6 0.0000 0.0000 0.0000 0.0000 0.0000 48.7713
#
#
#
# Elastic Compliance Matrix: (Units=1/GPa)
#
#
# Indices 1 2 3 4 5 6 
#
# 1 0.010588 -0.002555 -0.001222 0.000000 0.000000 0.000000
# 2 -0.002555 0.009122 0.000029 0.000000 0.000000 0.000000
# 3 -0.001222 0.000029 0.013219 0.000000 0.000000 0.000000
# 4 0.000000 0.000000 0.000000 0.023928 0.000000 0.000000
# 5 0.000000 0.000000 0.000000 0.000000 0.036939 0.000000
# 6 0.000000 0.000000 0.000000 0.000000 0.000000 0.020504
#
#
# Mechanical properties :
#
#
# Convention : Reuss Voigt Hill
#
# Bulk Modulus (GPa) = 39.32062 41.95048 40.63555
# Shear Modulus (GPa) = 38.38090 40.60340 39.49215
#
# Velocity S-wave (km/s) = 3.85860 3.96875 3.91406
# Velocity P-wave (km/s) = 5.92495 6.10531 6.01581
#
# Compressibility (1/GPa) = 0.02543195
#
# Stress axis : x y z
#
# Youngs Moduli (GPa) = 94.44281 109.62822 75.65134
#
# Poissons Ratio (x) = 0.28013 0.09245
# Poissons Ratio (y) = 0.24133 -0.00219
# Poissons Ratio (z) = 0.11541 -0.00317
#
# Static dielectric constant tensor:
#      x y z
#    x 2.088770 0.000000 0.000000 
#    y 0.000000 2.014160 0.000000 
#    z 0.000000 0.000000 2.124560 
# 
# From -- ./inp_files/19822.got.cif
#   From: 2010.05.17/outbox.cif.g08.bks.cpg/sg60_10_cif.got.tgz:19822.got - 2010.06.03 14:59:27.
