data_PCOD9454811
_publ_section_title
;
Structure prediction by ZEFSAII (Michael W. Deem and Ramdas Pophale) SiO2 
 PCOD9454811
Probable space group: P B C N
;
_chemical_formula_sum "Si O2"
_cell_formula_units_Z 52
_cell_length_a 16.684729
_cell_length_b 8.806311
_cell_length_c 16.571660
_cell_angle_alpha 90.000000
_cell_angle_beta 90.000000
_cell_angle_gamma 90.000000
_cell_volume 2434.889126
_symmetry_space_group_name_H-M "P B C N"
_symmetry_group_IT_number 60
_symmetry_cell_setting 'orthorhombic'
loop_
_space_group_symop_operation_xyz
x,y,z
1/2-x,1/2-y,1/2+z
1/2+x,1/2-y,-z
-x,y,1/2-z
-x,-y,-z
1/2+x,1/2+y,1/2-z
1/2-x,1/2+y,z
x,-y,1/2+z
loop_
_atom_site_type_symbol
_atom_site_label
_atom_site_fract_x
_atom_site_fract_y
_atom_site_fract_z
Si Si1 0.500000 0.887720 0.750000
Si Si2 0.590330 0.876507 0.151952
Si Si3 0.362695 0.667899 0.484297
Si Si4 0.652256 0.609579 0.241982
Si Si5 0.789500 0.634147 0.129104
Si Si6 0.594957 0.342088 0.347948
Si Si7 0.913563 0.896709 0.098630
O O1 0.426387 0.780293 0.721767
O O2 0.473677 0.997380 0.822966
O O3 0.580609 0.774864 0.071666
O O4 0.602887 0.764721 0.228816
O O5 0.672442 0.967653 0.134369
O O6 0.277681 0.656177 0.439378
O O7 0.356498 0.721156 0.575942
O O8 0.397863 0.496799 0.480564
O O9 0.742477 0.653315 0.214669
O O10 0.634656 0.498673 0.316316
O O11 0.619991 0.504306 0.169386
O O12 0.860126 0.747755 0.105336
O O13 0.505883 0.370303 0.383109
#
# Coordination Sequence:
#
# PCOD9454811 Si02
#       7
#     4   8   8   8   8   8   8
#     4  12  24  38  66  92 138 166 220 284 344 394
#     4  10  22  40  64  93 126 175 220 271 334 404
#     4  10  23  37  65  89 126 169 231 265 328 409
#     4  10  20  35  68  89 125 166 226 265 324 406
#     4  10  19  43  64  90 125 182 212 264 344 408
#     4  12  22  40  61 100 127 173 217 288 329 400
#     4  10  19  40  62  85 128 175 213 258 347 405
#
# _framework density 21.356209
#
# number of rings (size 3 to 8) (size 9 to 14) (size 15 to 20)
#    0.000    1.846    3.077    4.154    4.308    0.615 
#    0.000    9.231    0.000    0.000    0.000    0.000 
#    0.000    0.000    0.000    0.000    0.000    0.000 
#
# Total GULP energy -289764.111604 kJ/mol
# GULP energy per Si atom -5572.386762 kJ/mol
# Density = 2.130760 g / cm^3
# Si number density = 21.356209 Si / 1000 Ang^3
#
#
#
# Elastic Constant Matrix: (Units=GPa)
#
#
# Indices 1 2 3 4 5 6 
#
# 1 65.1541 20.4486 24.9079 0.0000 0.0000 0.0000
# 2 20.4486 117.3551 30.7401 0.0000 0.0000 0.0000
# 3 24.9079 30.7401 94.3057 0.0000 0.0000 0.0000
# 4 0.0000 0.0000 0.0000 18.0005 0.0000 0.0000
# 5 0.0000 0.0000 0.0000 0.0000 13.9713 0.0000
# 6 0.0000 0.0000 0.0000 0.0000 0.0000 34.2142
#
#
#
# Elastic Compliance Matrix: (Units=1/GPa)
#
#
# Indices 1 2 3 4 5 6 
#
# 1 0.017495 -0.002010 -0.003966 0.000000 0.000000 0.000000
# 2 -0.002010 0.009547 -0.002581 0.000000 0.000000 0.000000
# 3 -0.003966 -0.002581 0.012493 0.000000 0.000000 0.000000
# 4 0.000000 0.000000 0.000000 0.055554 0.000000 0.000000
# 5 0.000000 0.000000 0.000000 0.000000 0.071576 0.000000
# 6 0.000000 0.000000 0.000000 0.000000 0.000000 0.029228
#
#
# Mechanical properties :
#
#
# Convention : Reuss Voigt Hill
#
# Bulk Modulus (GPa) = 44.59949 47.66757 46.13353
# Shear Modulus (GPa) = 22.67784 26.61842 24.64813
#
# Velocity S-wave (km/s) = 3.26219 3.53427 3.40095
# Velocity P-wave (km/s) = 5.92606 6.24688 6.08858
#
# Compressibility (1/GPa) = 0.02242178
#
# Stress axis : x y z
#
# Youngs Moduli (GPa) = 57.15919 104.73971 80.04710
#
# Poissons Ratio (x) = 0.21049 0.31744
# Poissons Ratio (y) = 0.11487 0.20663
# Poissons Ratio (z) = 0.22668 0.27037
#
# Static dielectric constant tensor:
#      x y z
#    x 1.862660 0.000000 0.000000 
#    y 0.000000 1.832920 0.000000 
#    z 0.000000 0.000000 1.838490 
# 
# From -- ./inp_files/20849.got.cif
#   From: 2010.05.17/outbox.cif.g08.bks.cpg/sg60_11_cif.got.tgz:20849.got - 2010.06.03 14:59:27.
