data_PCOD9454113
_publ_section_title
;
Structure prediction by ZEFSAII (Michael W. Deem and Ramdas Pophale) SiO2 
 PCOD9454113
Probable space group: P B C N
;
_chemical_formula_sum "Si O2"
_cell_formula_units_Z 60
_cell_length_a 18.685756
_cell_length_b 12.645029
_cell_length_c 12.954809
_cell_angle_alpha 90.000000
_cell_angle_beta 90.000000
_cell_angle_gamma 90.000000
_cell_volume 3060.987228
_symmetry_space_group_name_H-M "P B C N"
_symmetry_group_IT_number 60
_symmetry_cell_setting 'orthorhombic'
loop_
_space_group_symop_operation_xyz
x,y,z
1/2-x,1/2-y,1/2+z
1/2+x,1/2-y,-z
-x,y,1/2-z
-x,-y,-z
1/2+x,1/2+y,1/2-z
1/2-x,1/2+y,z
x,-y,1/2+z
loop_
_atom_site_type_symbol
_atom_site_label
_atom_site_fract_x
_atom_site_fract_y
_atom_site_fract_z
Si Si1 0.691937 0.705360 0.948542
Si Si2 0.299559 0.421342 0.839696
Si Si3 0.680635 0.765218 0.302614
Si Si4 0.360577 0.124386 0.350401
Si Si5 0.000000 0.637981 0.250000
Si Si6 0.575542 0.899325 0.427189
Si Si7 0.180393 0.147154 0.775588
Si Si8 0.939158 0.352301 0.953341
O O1 0.697935 0.631492 0.047638
O O2 0.767092 0.750497 0.903115
O O3 0.664279 0.642131 0.847050
O O4 0.636074 0.798079 0.973991
O O5 0.334974 0.344028 0.755032
O O6 0.214300 0.424113 0.814385
O O7 0.331591 0.537872 0.832628
O O8 0.614470 0.836308 0.336696
O O9 0.734384 0.826259 0.224652
O O10 0.430423 0.078083 0.294065
O O11 0.375109 0.113664 0.470906
O O12 0.356251 0.248542 0.321121
O O13 0.026547 0.700468 0.149096
O O14 0.497544 0.852852 0.456116
O O15 0.568986 0.025504 0.419328
#
# Coordination Sequence:
#
# PCOD9454113 Si02
#       8
#     8   8   8   8   4   8   8   8
#     4  10  21  39  57  89 121 157 198 256 293 365
#     4  11  21  38  60  90 118 159 205 251 306 348
#     4   9  21  36  56  89 121 151 199 252 301 356
#     4  10  19  37  57  92 114 156 199 240 303 352
#     4  10  18  34  66  80 126 152 198 248 286 392
#     4  10  21  37  59  92 118 160 190 245 308 363
#     4   9  21  35  59  85 115 156 201 243 297 353
#     4  10  21  38  61  89 122 158 199 243 313 363
#
# _framework density 19.601517999999999
#
# number of rings (size 3 to 8) (size 9 to 14) (size 15 to 20)
#    0.800    1.333    2.667    0.000    3.733    3.200 
#    4.800    0.000    2.933    2.400    0.000    0.000 
#    0.000    0.000    0.000    0.000    0.000    0.000 
#
# Total GULP energy -334089.160445 kJ/mol
# GULP energy per Si atom -5568.152674 kJ/mol
# Density = 1.955690 g / cm^3
# Si number density = 19.601518 Si / 1000 Ang^3
#
#
#
# Elastic Constant Matrix: (Units=GPa)
#
#
# Indices 1 2 3 4 5 6 
#
# 1 57.8968 26.9709 6.8024 0.0000 0.0000 0.0000
# 2 26.9709 90.1794 31.2970 0.0000 0.0000 0.0000
# 3 6.8024 31.2970 65.3023 0.0000 0.0000 0.0000
# 4 0.0000 0.0000 0.0000 23.9565 0.0000 0.0000
# 5 0.0000 0.0000 0.0000 0.0000 26.2592 0.0000
# 6 0.0000 0.0000 0.0000 0.0000 0.0000 13.0730
#
#
#
# Elastic Compliance Matrix: (Units=1/GPa)
#
#
# Indices 1 2 3 4 5 6 
#
# 1 0.020117 -0.006345 0.000945 0.000000 0.000000 0.000000
# 2 -0.006345 0.015302 -0.006673 0.000000 0.000000 0.000000
# 3 0.000945 -0.006673 0.018413 0.000000 0.000000 0.000000
# 4 0.000000 0.000000 0.000000 0.041742 0.000000 0.000000
# 5 0.000000 0.000000 0.000000 0.000000 0.038082 0.000000
# 6 0.000000 0.000000 0.000000 0.000000 0.000000 0.076494
#
#
# Mechanical properties :
#
#
# Convention : Reuss Voigt Hill
#
# Bulk Modulus (GPa) = 33.68425 38.16878 35.92652
# Shear Modulus (GPa) = 20.47583 22.54495 21.51039
#
# Velocity S-wave (km/s) = 3.23554 3.39509 3.31627
# Velocity P-wave (km/s) = 5.58392 5.90622 5.74733
#
# Compressibility (1/GPa) = 0.02968746
#
# Stress axis : x y z
#
# Youngs Moduli (GPa) = 49.71010 65.34921 54.30930
#
# Poissons Ratio (x) = 0.41461 -0.05133
# Poissons Ratio (y) = 0.31539 0.36240
# Poissons Ratio (z) = -0.04699 0.43607
#
# Static dielectric constant tensor:
#      x y z
#    x 1.726510 0.000000 0.000000 
#    y 0.000000 1.682230 0.000000 
#    z 0.000000 0.000000 1.732470 
# 
# From -- ./inp_files/17471.got.cif
#   From: 2010.05.17/outbox.cif.g08.bks.cpg/sg60_9_cif.got.tgz:17471.got - 2010.06.03 14:59:27.
