data_PCOD9454650
_publ_section_title
;
Structure prediction by ZEFSAII (Michael W. Deem and Ramdas Pophale) SiO2 
 PCOD9454650
Probable space group: P B C N
;
_chemical_formula_sum "Si O2"
_cell_formula_units_Z 56
_cell_length_a 15.381152
_cell_length_b 5.246722
_cell_length_c 30.511821
_cell_angle_alpha 90.000000
_cell_angle_beta 90.000000
_cell_angle_gamma 90.000000
_cell_volume 2462.323134
_symmetry_space_group_name_H-M "P B C N"
_symmetry_group_IT_number 60
_symmetry_cell_setting 'orthorhombic'
loop_
_space_group_symop_operation_xyz
x,y,z
1/2-x,1/2-y,1/2+z
1/2+x,1/2-y,-z
-x,y,1/2-z
-x,-y,-z
1/2+x,1/2+y,1/2-z
1/2-x,1/2+y,z
x,-y,1/2+z
loop_
_atom_site_type_symbol
_atom_site_label
_atom_site_fract_x
_atom_site_fract_y
_atom_site_fract_z
Si Si1 0.583884 0.679209 0.997119
Si Si2 0.471964 0.088509 0.430433
Si Si3 0.806900 0.086955 0.561154
Si Si4 0.048363 0.864211 0.295259
Si Si5 0.199198 0.513967 0.200670
Si Si6 0.488687 0.126440 0.662136
Si Si7 0.237902 0.975868 0.798920
O O1 0.663616 0.496159 0.010909
O O2 0.573670 0.906090 0.033038
O O3 0.500000 0.500000 0.000000
O O4 0.563233 0.807266 0.950412
O O5 0.400958 0.313083 0.420333
O O6 0.496709 0.920864 0.388805
O O7 0.743252 0.323603 0.571625
O O8 0.053157 0.585561 0.316572
O O9 0.140015 0.988794 0.283989
O O10 0.000000 0.833594 0.250000
O O11 0.003317 0.080892 0.324733
O O12 0.263511 0.286538 0.186923
O O13 0.205246 0.514759 0.254329
O O14 0.104709 0.457905 0.181635
O O15 0.256414 0.223935 0.826147
#
# Coordination Sequence:
#
# PCOD9454650 Si02
#       7
#     8   8   8   8   8   8   8
#     4   9  20  41  72  97 135 186 228 269 350 418
#     4  10  23  43  67 104 140 183 226 289 347 416
#     4  11  21  39  68 100 134 184 231 277 339 408
#     4  12  24  41  64  97 125 177 232 279 336 416
#     4  10  20  40  62  89 121 168 206 270 343 390
#     4  12  26  42  70  99 135 174 234 285 343 419
#     4  10  19  36  61  83 119 162 211 267 328 388
#
# _framework density 22.742750000000001
#
# number of rings (size 3 to 8) (size 9 to 14) (size 15 to 20)
#    0.000    1.429    1.429    5.571    4.000    0.000 
#    0.000    5.714    0.000    0.000    0.000    0.000 
#    0.000    0.000    0.000    0.000    0.000    0.000 
#
# Total GULP energy -312161.069941 kJ/mol
# GULP energy per Si atom -5574.304820 kJ/mol
# Density = 2.269099 g / cm^3
# Si number density = 22.742750 Si / 1000 Ang^3
#
#
#
# Elastic Constant Matrix: (Units=GPa)
#
#
# Indices 1 2 3 4 5 6 
#
# 1 61.9582 9.1039 22.9374 0.0000 0.0000 0.0000
# 2 9.1039 133.1056 -0.4909 0.0000 0.0000 0.0000
# 3 22.9374 -0.4909 61.1206 0.0000 0.0000 0.0000
# 4 0.0000 0.0000 0.0000 14.7984 0.0000 0.0000
# 5 0.0000 0.0000 0.0000 0.0000 15.0374 0.0000
# 6 0.0000 0.0000 0.0000 0.0000 0.0000 42.1689
#
#
#
# Elastic Compliance Matrix: (Units=1/GPa)
#
#
# Indices 1 2 3 4 5 6 
#
# 1 0.018975 -0.001324 -0.007131 0.000000 0.000000 0.000000
# 2 -0.001324 0.007605 0.000558 0.000000 0.000000 0.000000
# 3 -0.007131 0.000558 0.019042 0.000000 0.000000 0.000000
# 4 0.000000 0.000000 0.000000 0.067575 0.000000 0.000000
# 5 0.000000 0.000000 0.000000 0.000000 0.066501 0.000000
# 6 0.000000 0.000000 0.000000 0.000000 0.000000 0.023714
#
#
# Mechanical properties :
#
#
# Convention : Reuss Voigt Hill
#
# Bulk Modulus (GPa) = 33.52685 35.47613 34.50149
# Shear Modulus (GPa) = 21.81984 29.37652 25.59818
#
# Velocity S-wave (km/s) = 3.10081 3.59790 3.35857
# Velocity P-wave (km/s) = 5.25298 5.73521 5.49938
#
# Compressibility (1/GPa) = 0.02982684
#
# Stress axis : x y z
#
# Youngs Moduli (GPa) = 52.70202 131.48458 52.51579
#
# Poissons Ratio (x) = 0.17410 0.37451
# Poissons Ratio (y) = 0.06978 -0.02930
# Poissons Ratio (z) = 0.37584 -0.07337
#
# Static dielectric constant tensor:
#      x y z
#    x 1.898340 0.000000 0.000000 
#    y 0.000000 2.011950 0.000000 
#    z 0.000000 0.000000 1.847040 
# 
# From -- ./inp_files/26156.got.cif
#   From: 2010.05.17/outbox.cif.g08.bks.cpg/sg60_14_cif.got.tgz:26156.got - 2010.06.03 14:59:27.
