data_PCOD9454280
_publ_section_title
;
Structure prediction by ZEFSAII (Michael W. Deem and Ramdas Pophale) SiO2 
 PCOD9454280
Probable space group: P B C N
;
_chemical_formula_sum "Si O2"
_cell_formula_units_Z 48
_cell_length_a 5.250424
_cell_length_b 28.181345
_cell_length_c 13.869173
_cell_angle_alpha 90.000000
_cell_angle_beta 90.000000
_cell_angle_gamma 90.000000
_cell_volume 2052.138454
_symmetry_space_group_name_H-M "P B C N"
_symmetry_group_IT_number 60
_symmetry_cell_setting 'orthorhombic'
loop_
_space_group_symop_operation_xyz
x,y,z
1/2-x,1/2-y,1/2+z
1/2+x,1/2-y,-z
-x,y,1/2-z
-x,-y,-z
1/2+x,1/2+y,1/2-z
1/2-x,1/2+y,z
x,-y,1/2+z
loop_
_atom_site_type_symbol
_atom_site_label
_atom_site_fract_x
_atom_site_fract_y
_atom_site_fract_z
Si Si1 0.722011 0.209606 0.899325
Si Si2 0.575696 0.405126 0.864905
Si Si3 0.574311 0.867635 0.647146
Si Si4 0.248700 0.392470 0.182698
Si Si5 0.250476 0.496439 0.182448
Si Si6 0.720862 0.764785 0.625627
O O1 0.732013 0.153741 0.882889
O O2 0.472496 0.234682 0.856348
O O3 0.972560 0.233666 0.856416
O O4 0.720478 0.221349 0.012401
O O5 0.500000 0.400403 0.750000
O O6 0.295988 0.395775 0.907332
O O7 0.699350 0.456745 0.880859
O O8 0.792020 0.367698 0.899186
O O9 0.500000 0.890916 0.750000
O O10 0.691497 0.816428 0.671989
O O11 0.500000 0.389035 0.250000
O O12 0.243256 0.444625 0.134161
O O13 0.000000 0.391196 0.250000
O O14 0.500000 0.495092 0.250000
O O15 0.000000 0.501398 0.250000
#
# Coordination Sequence:
#
# PCOD9454280 Si02
#       6
#     8   8   8   8   8   8
#     4  10  21  37  53  71  99 135 171 204 250 307
#     4   9  16  28  46  70 100 127 155 196 244 294
#     4  10  19  30  48  74  99 126 163 204 242 281
#     4  10  20  33  53  79 101 126 165 213 254 287
#     4   9  16  28  47  71  99 129 159 196 247 300
#     4  10  21  36  53  71  98 139 172 200 249 308
#
# _framework density 23.390232000000001
#
# number of rings (size 3 to 8) (size 9 to 14) (size 15 to 20)
#    0.000    2.333    0.000    4.500    0.000    2.000 
#    0.000    0.000    0.000    2.000    0.000    0.000 
#    0.000    8.000    0.000    0.000    0.000    0.000 
#
# Total GULP energy -267906.638100 kJ/mol
# GULP energy per Si atom -5581.388294 kJ/mol
# Density = 2.333699 g / cm^3
# Si number density = 23.390232 Si / 1000 Ang^3
#
#
#
# Elastic Constant Matrix: (Units=GPa)
#
#
# Indices 1 2 3 4 5 6 
#
# 1 229.6552 64.2637 4.1674 0.0000 0.0000 0.0000
# 2 64.2637 180.1173 6.3401 0.0000 0.0000 0.0000
# 3 4.1674 6.3401 50.5021 0.0000 0.0000 0.0000
# 4 0.0000 0.0000 0.0000 8.8156 0.0000 0.0000
# 5 0.0000 0.0000 0.0000 0.0000 -43.7532 0.0000
# 6 0.0000 0.0000 0.0000 0.0000 0.0000 40.1329
#
#
#
# Elastic Compliance Matrix: (Units=1/GPa)
#
#
# Indices 1 2 3 4 5 6 
#
# 1 0.004839 -0.001720 -0.000183 0.000000 0.000000 0.000000
# 2 -0.001720 0.006188 -0.000635 0.000000 0.000000 0.000000
# 3 -0.000183 -0.000635 0.019896 0.000000 0.000000 0.000000
# 4 0.000000 0.000000 0.000000 0.113435 0.000000 0.000000
# 5 0.000000 0.000000 0.000000 0.000000 -0.022855 0.000000
# 6 0.000000 0.000000 0.000000 0.000000 0.000000 0.024917
#
#
# Mechanical properties :
#
#
# Convention : Reuss Voigt Hill
#
# Bulk Modulus (GPa) = 38.69024 67.75747 53.22386
# Shear Modulus (GPa) = 31.22810 26.73928 28.98369
#
# Velocity S-wave (km/s) = 3.65785 3.38476 3.52396
# Velocity P-wave (km/s) = 5.86660 6.65633 6.27390
#
# Compressibility (1/GPa) = 0.02584631
#
# Stress axis : x y z
#
# Youngs Moduli (GPa) = 206.65449 161.60371 50.26137
#
# Poissons Ratio (x) = 0.27797 0.00922
# Poissons Ratio (y) = 0.35545 0.03191
# Poissons Ratio (z) = 0.03790 0.10260
#
# Static dielectric constant tensor:
#      x y z
#    x 2.006340 0.000000 0.000000 
#    y 0.000000 1.936730 0.000000 
#    z 0.000000 0.000000 1.926540 
# 
# From -- ./inp_files/18686.got.cif
#   From: 2010.05.17/outbox.cif.g08.bks.cpg/sg60_10_cif.got.tgz:18686.got - 2010.06.03 14:59:27.
