data_PCOD9454825
_publ_section_title
;
Structure prediction by ZEFSAII (Michael W. Deem and Ramdas Pophale) SiO2 
 PCOD9454825
Probable space group: P B C N
;
_chemical_formula_sum "Si O2"
_cell_formula_units_Z 48
_cell_length_a 5.307822
_cell_length_b 23.903133
_cell_length_c 17.317639
_cell_angle_alpha 90.000000
_cell_angle_beta 90.000000
_cell_angle_gamma 90.000000
_cell_volume 2197.150774
_symmetry_space_group_name_H-M "P B C N"
_symmetry_group_IT_number 60
_symmetry_cell_setting 'orthorhombic'
loop_
_space_group_symop_operation_xyz
x,y,z
1/2-x,1/2-y,1/2+z
1/2+x,1/2-y,-z
-x,y,1/2-z
-x,-y,-z
1/2+x,1/2+y,1/2-z
1/2-x,1/2+y,z
x,-y,1/2+z
loop_
_atom_site_type_symbol
_atom_site_label
_atom_site_fract_x
_atom_site_fract_y
_atom_site_fract_z
Si Si1 0.416435 0.412990 0.050778
Si Si2 0.473745 0.315263 0.339530
Si Si3 0.757335 0.261073 0.951103
Si Si4 0.450365 0.129512 0.423018
Si Si5 0.755950 0.794506 0.699556
Si Si6 0.800970 0.523819 0.438027
O O1 0.553512 0.368496 0.105346
O O2 0.316276 0.467621 0.097206
O O3 0.188541 0.383019 0.004278
O O4 0.594469 0.440779 0.985969
O O5 0.500000 0.332095 0.250000
O O6 0.703908 0.279251 0.377102
O O7 0.260903 0.267409 0.337338
O O8 0.827607 0.324965 0.931404
O O9 0.991742 0.243737 0.006759
O O10 0.256897 0.159151 0.366142
O O11 0.553108 0.070902 0.390409
O O12 0.500000 0.799798 0.750000
O O13 0.000000 0.800985 0.750000
O O14 0.000000 0.500000 0.500000
#
# Coordination Sequence:
#
# PCOD9454825 Si02
#       6
#     8   8   8   8   8   8
#     4  10  19  40  65  93 131 173 228 285 338 409
#     4  10  22  40  63  96 138 176 214 281 351 410
#     4  11  22  37  62  98 130 170 226 263 326 414
#     4  10  21  35  67  91 126 173 226 284 329 406
#     4  10  24  43  62  98 139 182 220 276 349 415
#     4   9  20  37  64  94 122 169 232 283 338 389
#
# _framework density 21.846474000000001
#
# number of rings (size 3 to 8) (size 9 to 14) (size 15 to 20)
#    0.000    2.000    1.667    1.000    2.333    6.667 
#   12.000    0.000   11.000    0.000    0.000    0.000 
#    0.000    0.000    0.000    0.000    0.000    0.000 
#
# Total GULP energy -268085.028014 kJ/mol
# GULP energy per Si atom -5585.104750 kJ/mol
# Density = 2.179675 g / cm^3
# Si number density = 21.846474 Si / 1000 Ang^3
#
#
#
# Elastic Constant Matrix: (Units=GPa)
#
#
# Indices 1 2 3 4 5 6 
#
# 1 97.5710 28.8230 31.6631 0.0000 0.0000 0.0000
# 2 28.8230 176.8999 52.1425 0.0000 0.0000 0.0000
# 3 31.6631 52.1425 90.1461 0.0000 0.0000 0.0000
# 4 0.0000 0.0000 0.0000 22.3904 0.0000 0.0000
# 5 0.0000 0.0000 0.0000 0.0000 39.5716 0.0000
# 6 0.0000 0.0000 0.0000 0.0000 0.0000 14.9833
#
#
#
# Elastic Compliance Matrix: (Units=1/GPa)
#
#
# Indices 1 2 3 4 5 6 
#
# 1 0.011669 -0.000836 -0.003615 0.000000 0.000000 0.000000
# 2 -0.000836 0.006875 -0.003683 0.000000 0.000000 0.000000
# 3 -0.003615 -0.003683 0.014493 0.000000 0.000000 0.000000
# 4 0.000000 0.000000 0.000000 0.044662 0.000000 0.000000
# 5 0.000000 0.000000 0.000000 0.000000 0.025271 0.000000
# 6 0.000000 0.000000 0.000000 0.000000 0.000000 0.066741
#
#
# Mechanical properties :
#
#
# Convention : Reuss Voigt Hill
#
# Bulk Modulus (GPa) = 59.63333 65.54160 62.58747
# Shear Modulus (GPa) = 26.10038 32.18828 29.14433
#
# Velocity S-wave (km/s) = 3.46022 3.84263 3.65643
# Velocity P-wave (km/s) = 6.58179 7.05365 6.82180
#
# Compressibility (1/GPa) = 0.01676915
#
# Stress axis : x y z
#
# Youngs Moduli (GPa) = 85.69709 145.46220 68.99769
#
# Poissons Ratio (x) = 0.12155 0.24945
# Poissons Ratio (y) = 0.07161 0.25411
# Poissons Ratio (z) = 0.30982 0.53573
#
# Static dielectric constant tensor:
#      x y z
#    x 1.869020 0.000000 0.000000 
#    y 0.000000 1.841640 0.000000 
#    z 0.000000 0.000000 1.849610 
# 
# From -- ./inp_files/18684.got.cif
#   From: 2010.05.17/outbox.cif.g08.bks.cpg/sg60_10_cif.got.tgz:18684.got - 2010.06.03 14:59:27.
