data_PCOD9454956
_publ_section_title
;
Structure prediction by ZEFSAII (Michael W. Deem and Ramdas Pophale) SiO2 
 PCOD9454956
Probable space group: P B C N
;
_chemical_formula_sum "Si O2"
_cell_formula_units_Z 56
_cell_length_a 23.755136
_cell_length_b 22.886899
_cell_length_c 5.601654
_cell_angle_alpha 90.000000
_cell_angle_beta 90.000000
_cell_angle_gamma 90.000000
_cell_volume 3045.515080
_symmetry_space_group_name_H-M "P B C N"
_symmetry_group_IT_number 60
_symmetry_cell_setting 'orthorhombic'
loop_
_space_group_symop_operation_xyz
x,y,z
1/2-x,1/2-y,1/2+z
1/2+x,1/2-y,-z
-x,y,1/2-z
-x,-y,-z
1/2+x,1/2+y,1/2-z
1/2-x,1/2+y,z
x,-y,1/2+z
loop_
_atom_site_type_symbol
_atom_site_label
_atom_site_fract_x
_atom_site_fract_y
_atom_site_fract_z
Si Si1 0.130896 0.320707 0.418911
Si Si2 0.232141 0.340696 0.744235
Si Si3 0.914531 0.528687 0.177709
Si Si4 0.324612 0.734293 0.031745
Si Si5 0.950164 0.632458 0.921557
Si Si6 0.940140 0.252526 0.701133
Si Si7 0.721167 0.030936 0.134842
O O1 0.178553 0.350482 0.574652
O O2 0.157993 0.267385 0.273396
O O3 0.106239 0.367835 0.236992
O O4 0.082298 0.291056 0.576750
O O5 0.286086 0.320547 0.593439
O O6 0.240354 0.401264 0.881128
O O7 0.212094 0.283681 0.893979
O O8 0.932657 0.502702 0.430649
O O9 0.939616 0.406905 0.649370
O O10 0.846947 0.529973 0.155066
O O11 0.382976 0.721397 0.891110
O O12 0.000000 0.614137 0.750000
O O13 0.955407 0.699259 0.001560
O O14 0.000000 0.221341 0.750000
O O15 0.739024 0.002725 0.391363
#
# Coordination Sequence:
#
# PCOD9454956 Si02
#       7
#     8   8   8   8   8   8   8
#     4  10  20  34  52  75 105 140 182 229 285 347
#     4  11  21  36  56  82 116 140 193 234 294 356
#     4  10  23  37  52  71 101 138 194 251 295 327
#     4  10  21  33  56  85 108 150 178 242 296 345
#     4  11  22  34  52  70  95 142 190 236 289 334
#     4  10  20  35  53  76 105 143 180 225 278 356
#     4  10  23  38  58  80 110 156 194 238 291 348
#
# _framework density 18.387694
#
# number of rings (size 3 to 8) (size 9 to 14) (size 15 to 20)
#    0.000    1.714    2.857    2.571   10.000    0.571 
#    0.000    0.000    0.000    0.000    0.000    0.000 
#    0.000    1.143    0.000    0.000    0.000    0.000 
#
# Total GULP energy -312620.690448 kJ/mol
# GULP energy per Si atom -5582.512329 kJ/mol
# Density = 1.834584 g / cm^3
# Si number density = 18.387694 Si / 1000 Ang^3
#
#
#
# Elastic Constant Matrix: (Units=GPa)
#
#
# Indices 1 2 3 4 5 6 
#
# 1 89.5366 26.6893 26.9046 0.0000 0.0000 0.0000
# 2 26.6893 43.6610 20.2794 0.0000 0.0000 0.0000
# 3 26.9046 20.2794 82.6393 0.0000 0.0000 0.0000
# 4 0.0000 0.0000 0.0000 16.1769 0.0000 0.0000
# 5 0.0000 0.0000 0.0000 0.0000 23.3260 0.0000
# 6 0.0000 0.0000 0.0000 0.0000 0.0000 12.8127
#
#
#
# Elastic Compliance Matrix: (Units=1/GPa)
#
#
# Indices 1 2 3 4 5 6 
#
# 1 0.014215 -0.007381 -0.002817 0.000000 0.000000 0.000000
# 2 -0.007381 0.029683 -0.004881 0.000000 0.000000 0.000000
# 3 -0.002817 -0.004881 0.014216 0.000000 0.000000 0.000000
# 4 0.000000 0.000000 0.000000 0.061817 0.000000 0.000000
# 5 0.000000 0.000000 0.000000 0.000000 0.042871 0.000000
# 6 0.000000 0.000000 0.000000 0.000000 0.000000 0.078047
#
#
# Mechanical properties :
#
#
# Convention : Reuss Voigt Hill
#
# Bulk Modulus (GPa) = 35.77071 40.39816 38.08444
# Shear Modulus (GPa) = 17.83647 19.92737 18.88192
#
# Velocity S-wave (km/s) = 3.11790 3.29558 3.20797
# Velocity P-wave (km/s) = 5.69715 6.04145 5.87182
#
# Compressibility (1/GPa) = 0.02795583
#
# Stress axis : x y z
#
# Youngs Moduli (GPa) = 70.34709 33.68950 70.34543
#
# Poissons Ratio (x) = 0.24867 0.19814
# Poissons Ratio (y) = 0.51925 0.34335
# Poissons Ratio (z) = 0.19814 0.16444
#
# Static dielectric constant tensor:
#      x y z
#    x 1.668030 0.000000 0.000000 
#    y 0.000000 1.632900 0.000000 
#    z 0.000000 0.000000 1.725520 
# 
# From -- ./inp_files/2133.got.cif
#   From: 2010.05.17/outbox.cif.g08.bks.cpg/sg60_2_cif.got.tgz:2133.got - 2010.06.03 14:59:27.
