data_PCOD9454139
_publ_section_title
;
Structure prediction by ZEFSAII (Michael W. Deem and Ramdas Pophale) SiO2 
 PCOD9454139
Probable space group: P B C N
;
_chemical_formula_sum "Si O2"
_cell_formula_units_Z 64
_cell_length_a 11.889347
_cell_length_b 14.591891
_cell_length_c 18.665635
_cell_angle_alpha 90.000000
_cell_angle_beta 90.000000
_cell_angle_gamma 90.000000
_cell_volume 3238.264721
_symmetry_space_group_name_H-M "P B C N"
_symmetry_group_IT_number 60
_symmetry_cell_setting 'orthorhombic'
loop_
_space_group_symop_operation_xyz
x,y,z
1/2-x,1/2-y,1/2+z
1/2+x,1/2-y,-z
-x,y,1/2-z
-x,-y,-z
1/2+x,1/2+y,1/2-z
1/2-x,1/2+y,z
x,-y,1/2+z
loop_
_atom_site_type_symbol
_atom_site_label
_atom_site_fract_x
_atom_site_fract_y
_atom_site_fract_z
Si Si1 0.473506 0.357530 0.458507
Si Si2 0.236130 0.716008 0.975319
Si Si3 0.509384 0.442808 0.891419
Si Si4 0.683727 0.716826 0.877998
Si Si5 0.868971 0.527109 0.510727
Si Si6 0.733912 0.394316 0.618928
Si Si7 0.132429 0.370456 0.737794
Si Si8 0.746172 0.492386 0.358364
O O1 0.348904 0.325689 0.442024
O O2 0.481660 0.370303 0.543846
O O3 0.496852 0.457755 0.427654
O O4 0.565124 0.294431 0.420300
O O5 0.259482 0.743408 0.057938
O O6 0.144350 0.635233 0.973008
O O7 0.212290 0.808505 0.933092
O O8 0.389223 0.427074 0.854698
O O9 0.627701 0.452743 0.851020
O O10 0.669935 0.787865 0.814127
O O11 0.723029 0.616235 0.853039
O O12 0.804145 0.468555 0.571900
O O13 0.798571 0.509819 0.437402
O O14 0.000000 0.500000 0.500000
O O15 0.806596 0.365479 0.686437
O O16 0.169086 0.464494 0.698645
O O17 0.000000 0.366731 0.750000
#
# Coordination Sequence:
#
# PCOD9454139 Si02
#       8
#     8   8   8   8   8   8   8   8
#     4  10  18  35  64  97 129 161 221 280 328 387
#     4  12  22  38  69 100 133 175 226 280 333 408
#     4  10  18  39  66  95 124 166 225 284 323 385
#     4  11  23  41  70  99 134 184 230 275 344 416
#     4  12  24  41  67 104 137 181 228 280 344 411
#     4  12  25  41  68 101 133 174 235 283 334 404
#     4  12  27  48  66  98 145 185 220 283 356 419
#     4  11  23  46  72  95 136 184 223 284 352 409
#
# _framework density 19.763672
#
# number of rings (size 3 to 8) (size 9 to 14) (size 15 to 20)
#    0.000    0.750    6.250    2.250    1.750    1.500 
#    6.750    0.000    0.000    0.000    0.000    0.000 
#    0.000    0.000    0.000    0.000    0.000    0.000 
#
# Total GULP energy -357364.595478 kJ/mol
# GULP energy per Si atom -5583.821804 kJ/mol
# Density = 1.971869 g / cm^3
# Si number density = 19.763672 Si / 1000 Ang^3
#
#
#
# Elastic Constant Matrix: (Units=GPa)
#
#
# Indices 1 2 3 4 5 6 
#
# 1 98.6178 29.6313 28.1822 0.0000 0.0000 0.0000
# 2 29.6313 114.8318 47.8526 0.0000 0.0000 0.0000
# 3 28.1822 47.8526 91.6419 0.0000 0.0000 0.0000
# 4 0.0000 0.0000 0.0000 31.4000 0.0000 0.0000
# 5 0.0000 0.0000 0.0000 0.0000 26.9544 0.0000
# 6 0.0000 0.0000 0.0000 0.0000 0.0000 20.5547
#
#
#
# Elastic Compliance Matrix: (Units=1/GPa)
#
#
# Indices 1 2 3 4 5 6 
#
# 1 0.011432 -0.001898 -0.002525 0.000000 0.000000 0.000000
# 2 -0.001898 0.011445 -0.005393 0.000000 0.000000 0.000000
# 3 -0.002525 -0.005393 0.014504 0.000000 0.000000 0.000000
# 4 0.000000 0.000000 0.000000 0.031847 0.000000 0.000000
# 5 0.000000 0.000000 0.000000 0.000000 0.037100 0.000000
# 6 0.000000 0.000000 0.000000 0.000000 0.000000 0.048651
#
#
# Mechanical properties :
#
#
# Convention : Reuss Voigt Hill
#
# Bulk Modulus (GPa) = 56.33436 57.38041 56.85738
# Shear Modulus (GPa) = 27.69675 29.07685 28.38680
#
# Velocity S-wave (km/s) = 3.74759 3.83982 3.79398
# Velocity P-wave (km/s) = 6.87690 6.98250 6.92990
#
# Compressibility (1/GPa) = 0.01775116
#
# Stress axis : x y z
#
# Youngs Moduli (GPa) = 87.47486 87.37141 68.94471
#
# Poissons Ratio (x) = 0.16582 0.17406
# Poissons Ratio (y) = 0.16601 0.37181
# Poissons Ratio (z) = 0.22084 0.47118
#
# Static dielectric constant tensor:
#      x y z
#    x 1.760640 0.000000 0.000000 
#    y 0.000000 1.713300 0.000000 
#    z 0.000000 0.000000 1.682180 
# 
# From -- ./inp_files/20202.got.cif
#   From: 2010.05.17/outbox.cif.g08.bks.cpg/sg60_11_cif.got.tgz:20202.got - 2010.06.03 14:59:27.
