data_PCOD9454329
_publ_section_title
;
Structure prediction by ZEFSAII (Michael W. Deem and Ramdas Pophale) SiO2 
 PCOD9454329
Probable space group: P B C N
;
_chemical_formula_sum "Si O2"
_cell_formula_units_Z 52
_cell_length_a 12.563629
_cell_length_b 25.868509
_cell_length_c 9.535111
_cell_angle_alpha 90.000000
_cell_angle_beta 90.000000
_cell_angle_gamma 90.000000
_cell_volume 3098.933481
_symmetry_space_group_name_H-M "P B C N"
_symmetry_group_IT_number 60
_symmetry_cell_setting 'orthorhombic'
loop_
_space_group_symop_operation_xyz
x,y,z
1/2-x,1/2-y,1/2+z
1/2+x,1/2-y,-z
-x,y,1/2-z
-x,-y,-z
1/2+x,1/2+y,1/2-z
1/2-x,1/2+y,z
x,-y,1/2+z
loop_
_atom_site_type_symbol
_atom_site_label
_atom_site_fract_x
_atom_site_fract_y
_atom_site_fract_z
Si Si1 0.301649 0.826209 0.664746
Si Si2 0.000000 0.392539 0.250000
Si Si3 0.811648 0.319048 0.156898
Si Si4 0.109908 0.473155 0.045444
Si Si5 0.896046 0.203454 0.159823
Si Si6 0.109270 0.210278 0.670113
Si Si7 0.627156 0.939475 0.754532
O O1 0.268740 0.823662 0.501574
O O2 0.203335 0.824961 0.770717
O O3 0.367468 0.772520 0.685135
O O4 0.356484 0.880960 0.694899
O O5 0.908049 0.359130 0.175913
O O6 0.931785 0.427188 0.356645
O O7 0.867925 0.263861 0.177530
O O8 0.711684 0.318672 0.262913
O O9 0.169307 0.517055 0.136855
O O10 0.164701 0.452113 0.904086
O O11 0.000000 0.500000 0.000000
O O12 0.000000 0.191101 0.250000
O O13 0.903775 0.196036 0.993186
O O14 0.000000 0.198709 0.750000
O O15 0.500000 0.946466 0.750000
#
# Coordination Sequence:
#
# PCOD9454329 Si02
#       7
#     8   4   8   8   8   8   8
#     4  10  21  34  54  79 105 148 182 216 278 321
#     4  12  20  32  56  78 112 152 176 222 270 326
#     4  10  21  34  53  79 109 147 185 217 269 323
#     4  10  19  32  49  74 110 138 177 221 273 319
#     4  10  20  37  52  77 109 141 182 231 264 321
#     4  10  21  36  54  78 109 146 185 227 262 321
#     4  10  19  33  49  76 107 140 174 223 267 326
#
# _framework density 16.779966000000002
#
# number of rings (size 3 to 8) (size 9 to 14) (size 15 to 20)
#    0.000    1.846    3.077    3.231    2.154    2.462 
#    0.000    0.000    0.000    0.000    0.000    2.154 
#    0.000    0.154    0.000    0.000    0.000    0.000 
#
# Total GULP energy -289573.518780 kJ/mol
# GULP energy per Si atom -5568.721515 kJ/mol
# Density = 1.674177 g / cm^3
# Si number density = 16.779966 Si / 1000 Ang^3
#
#
#
# Elastic Constant Matrix: (Units=GPa)
#
#
# Indices 1 2 3 4 5 6 
#
# 1 57.2028 2.5867 35.7634 0.0000 0.0000 0.0000
# 2 2.5867 56.1920 18.1145 0.0000 0.0000 0.0000
# 3 35.7634 18.1145 103.4403 0.0000 0.0000 0.0000
# 4 0.0000 0.0000 0.0000 16.1440 0.0000 0.0000
# 5 0.0000 0.0000 0.0000 0.0000 25.8289 0.0000
# 6 0.0000 0.0000 0.0000 0.0000 0.0000 13.5514
#
#
#
# Elastic Compliance Matrix: (Units=1/GPa)
#
#
# Indices 1 2 3 4 5 6 
#
# 1 0.022430 0.001555 -0.008027 0.000000 0.000000 0.000000
# 2 0.001555 0.018969 -0.003860 0.000000 0.000000 0.000000
# 3 -0.008027 -0.003860 0.013119 0.000000 0.000000 0.000000
# 4 0.000000 0.000000 0.000000 0.061943 0.000000 0.000000
# 5 0.000000 0.000000 0.000000 0.000000 0.038716 0.000000
# 6 0.000000 0.000000 0.000000 0.000000 0.000000 0.073793
#
#
# Mechanical properties :
#
#
# Convention : Reuss Voigt Hill
#
# Bulk Modulus (GPa) = 29.53838 36.64046 33.08942
# Shear Modulus (GPa) = 19.16317 21.79623 20.47970
#
# Velocity S-wave (km/s) = 3.38305 3.60800 3.49733
# Velocity P-wave (km/s) = 5.73600 6.26419 6.00590
#
# Compressibility (1/GPa) = 0.03385426
#
# Stress axis : x y z
#
# Youngs Moduli (GPa) = 44.58305 52.71833 76.22736
#
# Poissons Ratio (x) = -0.08199 0.61190
# Poissons Ratio (y) = -0.06934 0.29420
# Poissons Ratio (z) = 0.35788 0.20347
#
# Static dielectric constant tensor:
#      x y z
#    x 1.556090 0.000000 0.000000 
#    y 0.000000 3.690330 0.000000 
#    z 0.000000 0.000000 1.622260 
# 
# From -- ./inp_files/5200.got.cif
#   From: 2010.05.17/outbox.cif.g08.bks.cpg/sg60_3_cif.got.tgz:5200.got - 2010.06.03 14:59:27.
