data_PCOD9454706
_publ_section_title
;
Structure prediction by ZEFSAII (Michael W. Deem and Ramdas Pophale) SiO2 
 PCOD9454706
Probable space group: P B C N
;
_chemical_formula_sum "Si O2"
_cell_formula_units_Z 56
_cell_length_a 13.087483
_cell_length_b 14.598253
_cell_length_c 13.479185
_cell_angle_alpha 90.000000
_cell_angle_beta 90.000000
_cell_angle_gamma 90.000000
_cell_volume 2575.257440
_symmetry_space_group_name_H-M "P B C N"
_symmetry_group_IT_number 60
_symmetry_cell_setting 'orthorhombic'
loop_
_space_group_symop_operation_xyz
x,y,z
1/2-x,1/2-y,1/2+z
1/2+x,1/2-y,-z
-x,y,1/2-z
-x,-y,-z
1/2+x,1/2+y,1/2-z
1/2-x,1/2+y,z
x,-y,1/2+z
loop_
_atom_site_type_symbol
_atom_site_label
_atom_site_fract_x
_atom_site_fract_y
_atom_site_fract_z
Si Si1 0.441255 0.671280 0.018160
Si Si2 0.838582 0.838047 0.579539
Si Si3 0.894370 0.939745 0.783043
Si Si4 0.910449 0.507890 0.184238
Si Si5 0.768565 0.630708 0.568973
Si Si6 0.190394 0.530671 0.133624
Si Si7 0.617058 0.118584 0.000772
O O1 0.355789 0.632237 0.941044
O O2 0.425156 0.780647 0.016976
O O3 0.561631 0.649224 0.009641
O O4 0.415739 0.631689 0.127451
O O5 0.859696 0.885240 0.685016
O O6 0.812766 0.730829 0.590378
O O7 0.734945 0.878623 0.535787
O O8 0.803007 0.998673 0.828966
O O9 0.000000 0.986846 0.750000
O O10 0.825092 0.437782 0.144121
O O11 0.859701 0.572709 0.267976
O O12 0.942374 0.567134 0.089075
O O13 0.000000 0.464203 0.250000
O O14 0.801472 0.598816 0.458588
O O15 0.126628 0.444424 0.094810
#
# Coordination Sequence:
#
# PCOD9454706 Si02
#       7
#     8   8   8   8   8   8   8
#     4   9  20  37  61  84 117 155 198 245 300 353
#     4  10  19  37  61  83 117 156 200 243 298 355
#     4   9  18  36  59  86 110 157 196 241 295 356
#     4  11  24  37  60  88 118 159 194 249 304 357
#     4   9  22  38  56  88 118 153 201 246 292 367
#     4  10  21  39  56  83 122 148 195 247 298 352
#     4  10  22  39  58  89 117 155 198 250 301 362
#
# _framework density 21.745398000000002
#
# number of rings (size 3 to 8) (size 9 to 14) (size 15 to 20)
#    0.000    2.286    1.429    0.000    6.000    1.714 
#    2.571    2.857    0.000    0.000    0.000    0.000 
#    0.000    0.000    0.000    0.000    0.000    0.000 
#
# Total GULP energy -312181.972463 kJ/mol
# GULP energy per Si atom -5574.678080 kJ/mol
# Density = 2.169590 g / cm^3
# Si number density = 21.745398 Si / 1000 Ang^3
#
#
#
# Elastic Constant Matrix: (Units=GPa)
#
#
# Indices 1 2 3 4 5 6 
#
# 1 116.8091 15.1362 54.2573 0.0000 0.0000 0.0000
# 2 15.1362 37.0035 17.9022 0.0000 0.0000 0.0000
# 3 54.2573 17.9022 92.9331 0.0000 0.0000 0.0000
# 4 0.0000 0.0000 0.0000 0.6301 0.0000 0.0000
# 5 0.0000 0.0000 0.0000 0.0000 43.2567 0.0000
# 6 0.0000 0.0000 0.0000 0.0000 0.0000 20.9138
#
#
#
# Elastic Compliance Matrix: (Units=1/GPa)
#
#
# Indices 1 2 3 4 5 6 
#
# 1 0.011837 -0.001653 -0.006593 0.000000 0.000000 0.000000
# 2 -0.001653 0.030033 -0.004821 0.000000 0.000000 0.000000
# 3 -0.006593 -0.004821 0.015538 0.000000 0.000000 0.000000
# 4 0.000000 0.000000 0.000000 1.587115 0.000000 0.000000
# 5 0.000000 0.000000 0.000000 0.000000 0.023118 0.000000
# 6 0.000000 0.000000 0.000000 0.000000 0.000000 0.047815
#
#
# Mechanical properties :
#
#
# Convention : Reuss Voigt Hill
#
# Bulk Modulus (GPa) = 31.97290 46.81524 39.39407
# Shear Modulus (GPa) = 2.85386 23.59012 13.22199
#
# Velocity S-wave (km/s) = 1.14684 3.29725 2.46851
# Velocity P-wave (km/s) = 4.06065 6.00595 5.12641
#
# Compressibility (1/GPa) = 0.03127649
#
# Stress axis : x y z
#
# Youngs Moduli (GPa) = 84.47806 33.29716 64.35809
#
# Poissons Ratio (x) = 0.05502 0.42429
# Poissons Ratio (y) = 0.13960 0.31024
# Poissons Ratio (z) = 0.55694 0.16051
#
# Static dielectric constant tensor:
#      x y z
#    x 1.921590 0.000000 0.000000 
#    y 0.000000 1.776430 0.000000 
#    z 0.000000 0.000000 1.785050 
# 
# From -- ./inp_files/11951.got.cif
#   From: 2010.05.17/outbox.cif.g08.bks.cpg/sg60_6_cif.got.tgz:11951.got - 2010.06.03 14:59:27.
