data_PCOD9454183
_publ_section_title
;
Structure prediction by ZEFSAII (Michael W. Deem and Ramdas Pophale) SiO2 
 PCOD9454183
Probable space group: P B C N
;
_chemical_formula_sum "Si O2"
_cell_formula_units_Z 40
_cell_length_a 10.175175
_cell_length_b 24.863585
_cell_length_c 7.874146
_cell_angle_alpha 90.000000
_cell_angle_beta 90.000000
_cell_angle_gamma 90.000000
_cell_volume 1992.090657
_symmetry_space_group_name_H-M "P B C N"
_symmetry_group_IT_number 60
_symmetry_cell_setting 'orthorhombic'
loop_
_space_group_symop_operation_xyz
x,y,z
1/2-x,1/2-y,1/2+z
1/2+x,1/2-y,-z
-x,y,1/2-z
-x,-y,-z
1/2+x,1/2+y,1/2-z
1/2-x,1/2+y,z
x,-y,1/2+z
loop_
_atom_site_type_symbol
_atom_site_label
_atom_site_fract_x
_atom_site_fract_y
_atom_site_fract_z
Si Si1 0.036657 0.883547 0.449977
Si Si2 0.366906 0.817568 0.140151
Si Si3 0.352161 0.474294 0.669189
Si Si4 0.127382 0.224919 0.869265
Si Si5 0.737367 0.580855 0.017018
O O1 0.122317 0.933511 0.513230
O O2 0.104337 0.827179 0.487405
O O3 0.000000 0.886274 0.250000
O O4 0.897023 0.885523 0.541775
O O5 0.500000 0.816473 0.250000
O O6 0.251638 0.793014 0.257863
O O7 0.365871 0.778524 0.977822
O O8 0.336177 0.877744 0.070777
O O9 0.500000 0.480665 0.750000
O O10 0.299548 0.531103 0.605125
O O11 0.249538 0.447279 0.799836
O O12 0.000000 0.229424 0.750000
#
# Coordination Sequence:
#
# PCOD9454183 Si02
#       5
#     8   8   8   8   8
#     4  10  18  36  65  96 129 163 217 276 325 378
#     4  12  27  43  67  99 137 173 221 270 336 395
#     4  10  21  33  66  96 132 165 228 273 329 381
#     4  11  24  45  71  94 132 173 223 272 323 396
#     4  11  21  39  61  99 128 174 213 283 324 391
#
# _framework density 20.079408000000001
#
# number of rings (size 3 to 8) (size 9 to 14) (size 15 to 20)
#    0.000    1.200    4.000    5.400    2.800    0.800 
#    0.000    1.000    0.000    0.000    0.000    0.000 
#    0.000    0.000    0.000    0.000    0.000    0.000 
#
# Total GULP energy -223213.110070 kJ/mol
# GULP energy per Si atom -5580.327752 kJ/mol
# Density = 2.003371 g / cm^3
# Si number density = 20.079408 Si / 1000 Ang^3
#
#
#
# Elastic Constant Matrix: (Units=GPa)
#
#
# Indices 1 2 3 4 5 6 
#
# 1 89.7023 34.1997 26.1757 0.0000 0.0000 0.0000
# 2 34.1997 152.0976 53.9418 0.0000 0.0000 0.0000
# 3 26.1757 53.9418 77.8995 0.0000 0.0000 0.0000
# 4 0.0000 0.0000 0.0000 23.0620 0.0000 0.0000
# 5 0.0000 0.0000 0.0000 0.0000 14.4050 0.0000
# 6 0.0000 0.0000 0.0000 0.0000 0.0000 26.8240
#
#
#
# Elastic Compliance Matrix: (Units=1/GPa)
#
#
# Indices 1 2 3 4 5 6 
#
# 1 0.012714 -0.001781 -0.003039 0.000000 0.000000 0.000000
# 2 -0.001781 0.008964 -0.005609 0.000000 0.000000 0.000000
# 3 -0.003039 -0.005609 0.017742 0.000000 0.000000 0.000000
# 4 0.000000 0.000000 0.000000 0.043361 0.000000 0.000000
# 5 0.000000 0.000000 0.000000 0.000000 0.069421 0.000000
# 6 0.000000 0.000000 0.000000 0.000000 0.000000 0.037280
#
#
# Mechanical properties :
#
#
# Convention : Reuss Voigt Hill
#
# Bulk Modulus (GPa) = 53.87152 60.92597 57.39874
# Shear Modulus (GPa) = 23.09177 26.55035 24.82106
#
# Velocity S-wave (km/s) = 3.39488 3.64024 3.51970
# Velocity P-wave (km/s) = 6.50034 6.93375 6.72054
#
# Compressibility (1/GPa) = 0.01856269
#
# Stress axis : x y z
#
# Youngs Moduli (GPa) = 78.65493 111.55183 56.36306
#
# Poissons Ratio (x) = 0.19868 0.17128
# Poissons Ratio (y) = 0.14009 0.31614
# Poissons Ratio (z) = 0.23902 0.62569
#
# Static dielectric constant tensor:
#      x y z
#    x 1.718850 0.000000 0.000000 
#    y 0.000000 1.746810 0.000000 
#    z 0.000000 0.000000 1.799760 
# 
# From -- ./inp_files/3816.got.cif
#   From: 2010.05.17/outbox.cif.g08.bks.cpg/sg60_2_cif.got.tgz:3816.got - 2010.06.03 14:59:27.
