data_PCOD9454890
_publ_section_title
;
Structure prediction by ZEFSAII (Michael W. Deem and Ramdas Pophale) SiO2 
 PCOD9454890
Probable space group: P B C N
;
_chemical_formula_sum "Si O2"
_cell_formula_units_Z 60
_cell_length_a 30.286533
_cell_length_b 19.249300
_cell_length_c 5.276342
_cell_angle_alpha 90.000000
_cell_angle_beta 90.000000
_cell_angle_gamma 90.000000
_cell_volume 3076.078681
_symmetry_space_group_name_H-M "P B C N"
_symmetry_group_IT_number 60
_symmetry_cell_setting 'orthorhombic'
loop_
_space_group_symop_operation_xyz
x,y,z
1/2-x,1/2-y,1/2+z
1/2+x,1/2-y,-z
-x,y,1/2-z
-x,-y,-z
1/2+x,1/2+y,1/2-z
1/2-x,1/2+y,z
x,-y,1/2+z
loop_
_atom_site_type_symbol
_atom_site_label
_atom_site_fract_x
_atom_site_fract_y
_atom_site_fract_z
Si Si1 0.452556 0.792034 0.721017
Si Si2 0.958609 0.848264 0.568788
Si Si3 0.500000 0.452372 0.250000
Si Si4 0.547443 0.953716 0.309193
Si Si5 0.118014 0.647213 0.896156
Si Si6 0.802695 0.779026 0.117172
Si Si7 0.708731 0.186358 0.616642
Si Si8 0.606126 0.710847 0.393962
O O1 0.500000 0.827794 0.750000
O O2 0.462054 0.731914 0.514932
O O3 0.412956 0.842860 0.641779
O O4 0.433414 0.745969 0.948040
O O5 0.961153 0.897958 0.324609
O O6 0.913806 0.851095 0.728641
O O7 0.000000 0.864021 0.750000
O O8 0.500000 0.500000 0.500000
O O9 0.500000 0.917773 0.250000
O O10 0.588764 0.902861 0.276092
O O11 0.548970 0.989342 0.583188
O O12 0.120112 0.725238 0.785690
O O13 0.169726 0.629741 0.919022
O O14 0.794998 0.721817 0.894364
O O15 0.760866 0.830648 0.093450
O O16 0.851748 0.807345 0.064861
O O17 0.800606 0.741180 0.388655
#
# Coordination Sequence:
#
# PCOD9454890 Si02
#       8
#     8   8   4   8   8   8   8   8
#     4  11  20  29  51  77 114 143 173 218 270 329
#     4  11  20  36  50  78 113 142 180 222 258 319
#     4  12  24  38  58  76 104 152 192 220 254 298
#     4  10  24  40  53  71 104 145 188 241 281 321
#     4  10  22  32  53  78 102 144 191 221 279 343
#     4   9  17  31  48  75 110 140 165 209 273 327
#     4   9  17  31  50  74 106 136 173 216 258 337
#     4  10  20  32  51  81 112 145 175 220 281 336
#
# _framework density 19.505352999999999
#
# number of rings (size 3 to 8) (size 9 to 14) (size 15 to 20)
#    0.000    1.867    4.000    0.000    3.733    0.533 
#    0.000    0.000    0.000    0.000    0.000    1.867 
#    0.000    0.000    0.000    0.000    0.000    0.000 
#
# Total GULP energy -334026.488170 kJ/mol
# GULP energy per Si atom -5567.108136 kJ/mol
# Density = 1.946096 g / cm^3
# Si number density = 19.505353 Si / 1000 Ang^3
#
#
#
# Elastic Constant Matrix: (Units=GPa)
#
#
# Indices 1 2 3 4 5 6 
#
# 1 144.9277 10.9847 13.6927 0.0000 0.0000 0.0000
# 2 10.9847 30.0615 14.0061 0.0000 0.0000 0.0000
# 3 13.6927 14.0061 96.6300 0.0000 0.0000 0.0000
# 4 0.0000 0.0000 0.0000 24.3194 0.0000 0.0000
# 5 0.0000 0.0000 0.0000 0.0000 26.5993 0.0000
# 6 0.0000 0.0000 0.0000 0.0000 0.0000 14.9723
#
#
#
# Elastic Compliance Matrix: (Units=1/GPa)
#
#
# Indices 1 2 3 4 5 6 
#
# 1 0.007138 -0.002292 -0.000679 0.000000 0.000000 0.000000
# 2 -0.002292 0.036410 -0.004953 0.000000 0.000000 0.000000
# 3 -0.000679 -0.004953 0.011163 0.000000 0.000000 0.000000
# 4 0.000000 0.000000 0.000000 0.041120 0.000000 0.000000
# 5 0.000000 0.000000 0.000000 0.000000 0.037595 0.000000
# 6 0.000000 0.000000 0.000000 0.000000 0.000000 0.066790
#
#
# Mechanical properties :
#
#
# Convention : Reuss Voigt Hill
#
# Bulk Modulus (GPa) = 25.73116 38.77623 32.25369
# Shear Modulus (GPa) = 21.83240 28.70724 25.26982
#
# Velocity S-wave (km/s) = 3.34923 3.84052 3.60326
# Velocity P-wave (km/s) = 5.30819 6.29198 5.82091
#
# Compressibility (1/GPa) = 0.03886339
#
# Stress axis : x y z
#
# Youngs Moduli (GPa) = 140.09784 27.46485 89.58261
#
# Poissons Ratio (x) = 0.06294 0.06085
# Poissons Ratio (y) = 0.32107 0.44368
# Poissons Ratio (z) = 0.09516 0.13603
#
# Static dielectric constant tensor:
#      x y z
#    x 1.819800 0.000000 0.000000 
#    y 0.000000 1.697530 0.000000 
#    z 0.000000 0.000000 1.787430 
# 
# From -- ./inp_files/2756.got.cif
#   From: 2010.05.17/outbox.cif.g08.bks.cpg/sg60_2_cif.got.tgz:2756.got - 2010.06.03 14:59:27.
