data_PCOD9454626
_publ_section_title
;
Structure prediction by ZEFSAII (Michael W. Deem and Ramdas Pophale) SiO2 
 PCOD9454626
Probable space group: P B C N
;
_chemical_formula_sum "Si O2"
_cell_formula_units_Z 64
_cell_length_a 23.110509
_cell_length_b 9.051708
_cell_length_c 13.452306
_cell_angle_alpha 90.000000
_cell_angle_beta 90.000000
_cell_angle_gamma 90.000000
_cell_volume 2814.082231
_symmetry_space_group_name_H-M "P B C N"
_symmetry_group_IT_number 60
_symmetry_cell_setting 'orthorhombic'
loop_
_space_group_symop_operation_xyz
x,y,z
1/2-x,1/2-y,1/2+z
1/2+x,1/2-y,-z
-x,y,1/2-z
-x,-y,-z
1/2+x,1/2+y,1/2-z
1/2-x,1/2+y,z
x,-y,1/2+z
loop_
_atom_site_type_symbol
_atom_site_label
_atom_site_fract_x
_atom_site_fract_y
_atom_site_fract_z
Si Si1 0.227220 0.531447 0.518408
Si Si2 0.016281 0.581293 0.361859
Si Si3 0.994560 0.978680 0.859523
Si Si4 0.105978 0.818818 0.388469
Si Si5 0.172037 0.237490 0.480164
Si Si6 0.176993 0.821576 0.589880
Si Si7 0.957590 0.284127 0.047540
Si Si8 0.870940 0.912559 0.321719
O O1 0.187622 0.410045 0.463964
O O2 0.272587 0.632332 0.453776
O O3 0.191932 0.649170 0.584992
O O4 0.264753 0.417081 0.582715
O O5 0.968575 0.634306 0.442218
O O6 0.000000 0.624015 0.250000
O O7 0.076671 0.658596 0.391322
O O8 0.025937 0.408088 0.372958
O O9 0.997169 0.848871 0.938901
O O10 0.000000 0.909946 0.750000
O O11 0.051529 0.074390 0.874360
O O12 0.938013 0.079905 0.855550
O O13 0.142359 0.849535 0.486721
O O14 0.139990 0.844252 0.285786
O O15 0.107248 0.222624 0.437021
O O16 0.161823 0.182978 0.594625
O O17 0.143931 0.911567 0.674765
#
# Coordination Sequence:
#
# PCOD9454626 Si02
#       8
#     8   8   8   8   8   8   8   8
#     4   9  20  37  59  81 107 144 189 250 291 326
#     4  11  23  37  55  87 126 154 187 234 282 346
#     4  10  20  35  55  85 119 149 189 230 268 338
#     4  11  21  36  59  84 115 154 189 230 284 342
#     4  10  19  36  58  81 108 145 192 235 289 340
#     4  10  20  38  59  81 112 147 192 239 290 343
#     4  11  22  36  59  85 115 159 191 224 288 347
#     4  10  21  36  58  85 116 152 187 230 286 346
#
# _framework density 22.742761000000002
#
# number of rings (size 3 to 8) (size 9 to 14) (size 15 to 20)
#    0.000    1.750    0.000    6.000    0.000    2.500 
#    0.000    7.500    0.000    4.500    0.000    0.000 
#    0.000    0.000    0.000    0.000    0.000    0.000 
#
# Total GULP energy -357048.543367 kJ/mol
# GULP energy per Si atom -5578.883490 kJ/mol
# Density = 2.269100 g / cm^3
# Si number density = 22.742761 Si / 1000 Ang^3
#
#
#
# Elastic Constant Matrix: (Units=GPa)
#
#
# Indices 1 2 3 4 5 6 
#
# 1 68.8352 22.9556 18.1478 0.0000 0.0000 0.0000
# 2 22.9556 128.4483 3.3675 0.0000 0.0000 0.0000
# 3 18.1478 3.3675 52.0969 0.0000 0.0000 0.0000
# 4 0.0000 0.0000 0.0000 22.8493 0.0000 0.0000
# 5 0.0000 0.0000 0.0000 0.0000 11.0447 0.0000
# 6 0.0000 0.0000 0.0000 0.0000 0.0000 47.3444
#
#
#
# Elastic Compliance Matrix: (Units=1/GPa)
#
#
# Indices 1 2 3 4 5 6 
#
# 1 0.017003 -0.002888 -0.005736 0.000000 0.000000 0.000000
# 2 -0.002888 0.008289 0.000470 0.000000 0.000000 0.000000
# 3 -0.005736 0.000470 0.021163 0.000000 0.000000 0.000000
# 4 0.000000 0.000000 0.000000 0.043765 0.000000 0.000000
# 5 0.000000 0.000000 0.000000 0.000000 0.090541 0.000000
# 6 0.000000 0.000000 0.000000 0.000000 0.000000 0.021122
#
#
# Mechanical properties :
#
#
# Convention : Reuss Voigt Hill
#
# Bulk Modulus (GPa) = 33.17140 37.59134 35.38137
# Shear Modulus (GPa) = 21.90675 29.90832 25.90754
#
# Velocity S-wave (km/s) = 3.10698 3.63032 3.37880
# Velocity P-wave (km/s) = 5.24292 5.84270 5.55092
#
# Compressibility (1/GPa) = 0.03014645
#
# Stress axis : x y z
#
# Youngs Moduli (GPa) = 58.81329 120.64059 47.25278
#
# Poissons Ratio (x) = 0.34845 0.27105
# Poissons Ratio (y) = 0.16987 -0.02222
# Poissons Ratio (z) = 0.33737 -0.05674
#
# Static dielectric constant tensor:
#      x y z
#    x 1.940460 0.000000 0.000000 
#    y 0.000000 1.906420 0.000000 
#    z 0.000000 0.000000 1.871250 
# 
# From -- ./inp_files/17959.got.cif
#   From: 2010.05.17/outbox.cif.g08.bks.cpg/sg60_9_cif.got.tgz:17959.got - 2010.06.03 14:59:27.
