data_PCOD9454554
_publ_section_title
;
Structure prediction by ZEFSAII (Michael W. Deem and Ramdas Pophale) SiO2 
 PCOD9454554
Probable space group: P B C N
;
_chemical_formula_sum "Si O2"
_cell_formula_units_Z 48
_cell_length_a 5.926693
_cell_length_b 18.687552
_cell_length_c 19.993066
_cell_angle_alpha 90.000000
_cell_angle_beta 90.000000
_cell_angle_gamma 90.000000
_cell_volume 2214.339695
_symmetry_space_group_name_H-M "P B C N"
_symmetry_group_IT_number 60
_symmetry_cell_setting 'orthorhombic'
loop_
_space_group_symop_operation_xyz
x,y,z
1/2-x,1/2-y,1/2+z
1/2+x,1/2-y,-z
-x,y,1/2-z
-x,-y,-z
1/2+x,1/2+y,1/2-z
1/2-x,1/2+y,z
x,-y,1/2+z
loop_
_atom_site_type_symbol
_atom_site_label
_atom_site_fract_x
_atom_site_fract_y
_atom_site_fract_z
Si Si1 0.484056 0.198599 0.414846
Si Si2 0.365885 0.589763 0.040796
Si Si3 0.603756 0.031330 0.911970
Si Si4 0.213284 0.168452 0.544123
Si Si5 0.246695 0.074079 0.350388
Si Si6 0.756172 0.962896 0.265084
O O1 0.678045 0.147709 0.443053
O O2 0.303675 0.205800 0.475938
O O3 0.607419 0.274310 0.405281
O O4 0.374059 0.150813 0.355963
O O5 0.235109 0.515321 0.032950
O O6 0.524073 0.586152 0.106209
O O7 0.512815 0.616274 0.979222
O O8 0.593885 0.114675 0.929765
O O9 0.749996 0.027855 0.844120
O O10 0.385483 0.986419 0.891394
O O11 0.233121 0.037099 0.277840
O O12 0.500000 0.932659 0.250000
O O13 0.000000 0.926304 0.250000
#
# Coordination Sequence:
#
# PCOD9454554 Si02
#       6
#     8   8   8   8   8   8
#     4  10  21  36  55  83 126 168 197 243 310 391
#     4  10  19  35  56  84 119 157 198 250 307 378
#     4  10  21  34  59  90 114 154 207 268 311 363
#     4  11  21  36  54  87 125 163 201 249 313 382
#     4   9  20  36  58  88 115 156 209 258 317 370
#     4  10  19  38  62  92 117 154 207 268 314 362
#
# _framework density 21.676891999999999
#
# number of rings (size 3 to 8) (size 9 to 14) (size 15 to 20)
#    0.000    2.000    3.333    0.500    0.000    7.333 
#    0.000    0.000    0.000    5.000   17.333    0.000 
#    0.000    0.000    0.000    0.000    0.000    0.000 
#
# Total GULP energy -267409.601733 kJ/mol
# GULP energy per Si atom -5571.033369 kJ/mol
# Density = 2.162755 g / cm^3
# Si number density = 21.676892 Si / 1000 Ang^3
#
#
#
# Elastic Constant Matrix: (Units=GPa)
#
#
# Indices 1 2 3 4 5 6 
#
# 1 93.5308 3.6583 -6.3390 0.0000 0.0000 0.0000
# 2 3.6583 93.3882 2.5147 0.0000 0.0000 0.0000
# 3 -6.3390 2.5147 50.0881 0.0000 0.0000 0.0000
# 4 0.0000 0.0000 0.0000 17.6046 0.0000 0.0000
# 5 0.0000 0.0000 0.0000 0.0000 28.7737 0.0000
# 6 0.0000 0.0000 0.0000 0.0000 0.0000 14.4540
#
#
#
# Elastic Compliance Matrix: (Units=1/GPa)
#
#
# Indices 1 2 3 4 5 6 
#
# 1 0.010804 -0.000461 0.001390 0.000000 0.000000 0.000000
# 2 -0.000461 0.010742 -0.000598 0.000000 0.000000 0.000000
# 3 0.001390 -0.000598 0.020171 0.000000 0.000000 0.000000
# 4 0.000000 0.000000 0.000000 0.056803 0.000000 0.000000
# 5 0.000000 0.000000 0.000000 0.000000 0.034754 0.000000
# 6 0.000000 0.000000 0.000000 0.000000 0.000000 0.069185
#
#
# Mechanical properties :
#
#
# Convention : Reuss Voigt Hill
#
# Bulk Modulus (GPa) = 23.59535 26.29720 24.94627
# Shear Modulus (GPa) = 23.15655 27.97801 25.56728
#
# Velocity S-wave (km/s) = 3.27197 3.59651 3.43807
# Velocity P-wave (km/s) = 5.01827 5.42257 5.22433
#
# Compressibility (1/GPa) = 0.04238123
#
# Stress axis : x y z
#
# Youngs Moduli (GPa) = 92.55895 93.09141 49.57658
#
# Poissons Ratio (x) = 0.04288 -0.06893
# Poissons Ratio (y) = 0.04264 0.02963
# Poissons Ratio (z) = -0.12870 0.05563
#
# Static dielectric constant tensor:
#      x y z
#    x 1.888820 0.000000 0.000000 
#    y 0.000000 1.820180 0.000000 
#    z 0.000000 0.000000 1.809570 
# 
# From -- ./inp_files/23611.got.cif
#   From: 2010.05.17/outbox.cif.g08.bks.cpg/sg60_12_cif.got.tgz:23611.got - 2010.06.03 14:59:27.
