data_PCOD9454054
_publ_section_title
;
Structure prediction by ZEFSAII (Michael W. Deem and Ramdas Pophale) SiO2 
 PCOD9454054
Probable space group: P B C N
;
_chemical_formula_sum "Si O2"
_cell_formula_units_Z 64
_cell_length_a 8.100476
_cell_length_b 20.065038
_cell_length_c 17.920411
_cell_angle_alpha 90.000000
_cell_angle_beta 90.000000
_cell_angle_gamma 90.000000
_cell_volume 2912.718351
_symmetry_space_group_name_H-M "P B C N"
_symmetry_group_IT_number 60
_symmetry_cell_setting 'orthorhombic'
loop_
_space_group_symop_operation_xyz
x,y,z
1/2-x,1/2-y,1/2+z
1/2+x,1/2-y,-z
-x,y,1/2-z
-x,-y,-z
1/2+x,1/2+y,1/2-z
1/2-x,1/2+y,z
x,-y,1/2+z
loop_
_atom_site_type_symbol
_atom_site_label
_atom_site_fract_x
_atom_site_fract_y
_atom_site_fract_z
Si Si1 0.298983 0.941507 0.735228
Si Si2 0.807625 0.915031 0.936138
Si Si3 0.706427 0.180524 0.171904
Si Si4 0.678436 0.229985 0.793840
Si Si5 0.151388 0.456788 0.032976
Si Si6 0.992270 0.666347 0.038683
Si Si7 0.332747 0.081433 0.703960
Si Si8 0.997760 0.789598 0.931951
O O1 0.500000 0.940481 0.750000
O O2 0.241535 0.920585 0.651985
O O3 0.230816 0.890347 0.796322
O O4 0.243546 0.018464 0.741773
O O5 0.662351 0.872063 0.974993
O O6 0.962048 0.866961 0.947741
O O7 0.801644 0.990158 0.967989
O O8 0.701870 0.226777 0.243472
O O9 0.540022 0.172352 0.126245
O O10 0.830972 0.212875 0.112495
O O11 0.500000 0.231468 0.750000
O O12 0.742457 0.154680 0.799914
O O13 0.639842 0.262645 0.873447
O O14 0.124025 0.440944 0.120078
O O15 0.146209 0.385656 0.992038
O O16 0.000000 0.500000 0.000000
O O17 0.994115 0.737603 0.999267
O O18 0.500000 0.089841 0.750000
#
# Coordination Sequence:
#
# PCOD9454054 Si02
#       8
#     8   8   8   8   8   8   8   8
#     4  10  18  33  56  85 110 141 189 238 275 327
#     4  10  20  35  57  81 110 148 189 235 282 334
#     4  11  22  35  57  87 113 150 190 230 288 345
#     4   9  18  33  52  79 110 143 184 232 273 328
#     4   9  19  33  54  83 111 143 189 238 286 330
#     4  11  21  37  56  82 115 150 190 239 286 339
#     4   9  17  31  54  81 111 140 185 240 280 316
#     4  11  21  36  55  84 116 151 184 231 289 348
#
# _framework density 21.972601999999998
#
# number of rings (size 3 to 8) (size 9 to 14) (size 15 to 20)
#    0.000    2.000    3.750    0.750    1.750    0.000 
#    0.000    0.625    0.000    1.500    9.750    0.000 
#    0.000    0.000    0.000    0.000    0.000    0.000 
#
# Total GULP energy -356926.063389 kJ/mol
# GULP energy per Si atom -5576.969740 kJ/mol
# Density = 2.192259 g / cm^3
# Si number density = 21.972602 Si / 1000 Ang^3
#
#
#
# Elastic Constant Matrix: (Units=GPa)
#
#
# Indices 1 2 3 4 5 6 
#
# 1 30.6842 2.0172 0.1594 0.0000 0.0000 0.0000
# 2 2.0172 101.9462 19.3450 0.0000 0.0000 0.0000
# 3 0.1594 19.3450 56.9575 0.0000 0.0000 0.0000
# 4 0.0000 0.0000 0.0000 25.2759 0.0000 0.0000
# 5 0.0000 0.0000 0.0000 0.0000 18.4172 0.0000
# 6 0.0000 0.0000 0.0000 0.0000 0.0000 20.4292
#
#
#
# Elastic Compliance Matrix: (Units=1/GPa)
#
#
# Indices 1 2 3 4 5 6 
#
# 1 0.032633 -0.000672 0.000137 0.000000 0.000000 0.000000
# 2 -0.000672 0.010499 -0.003564 0.000000 0.000000 0.000000
# 3 0.000137 -0.003564 0.018767 0.000000 0.000000 0.000000
# 4 0.000000 0.000000 0.000000 0.039563 0.000000 0.000000
# 5 0.000000 0.000000 0.000000 0.000000 0.054297 0.000000
# 6 0.000000 0.000000 0.000000 0.000000 0.000000 0.048949
#
#
# Mechanical properties :
#
#
# Convention : Reuss Voigt Hill
#
# Bulk Modulus (GPa) = 18.62141 25.84791 22.23466
# Shear Modulus (GPa) = 21.66310 24.02888 22.84599
#
# Velocity S-wave (km/s) = 3.14333 3.31053 3.22801
# Velocity P-wave (km/s) = 4.65481 5.13829 4.90251
#
# Compressibility (1/GPa) = 0.05370164
#
# Stress axis : x y z
#
# Youngs Moduli (GPa) = 30.64336 95.25031 53.28503
#
# Poissons Ratio (x) = 0.06398 -0.00729
# Poissons Ratio (y) = 0.02058 0.18990
# Poissons Ratio (z) = -0.00419 0.33946
#
# Static dielectric constant tensor:
#      x y z
#    x 1.866010 0.000000 0.000000 
#    y 0.000000 1.850250 0.000000 
#    z 0.000000 0.000000 1.781130 
# 
# From -- ./inp_files/19682.got.cif
#   From: 2010.05.17/outbox.cif.g08.bks.cpg/sg60_10_cif.got.tgz:19682.got - 2010.06.03 14:59:27.
