data_PCOD9454081
_publ_section_title
;
Structure prediction by ZEFSAII (Michael W. Deem and Ramdas Pophale) SiO2 
 PCOD9454081
Probable space group: P B C N
;
_chemical_formula_sum "Si O2"
_cell_formula_units_Z 64
_cell_length_a 13.731510
_cell_length_b 25.602560
_cell_length_c 10.540457
_cell_angle_alpha 90.000000
_cell_angle_beta 90.000000
_cell_angle_gamma 90.000000
_cell_volume 3705.622127
_symmetry_space_group_name_H-M "P B C N"
_symmetry_group_IT_number 60
_symmetry_cell_setting 'orthorhombic'
loop_
_space_group_symop_operation_xyz
x,y,z
1/2-x,1/2-y,1/2+z
1/2+x,1/2-y,-z
-x,y,1/2-z
-x,-y,-z
1/2+x,1/2+y,1/2-z
1/2-x,1/2+y,z
x,-y,1/2+z
loop_
_atom_site_type_symbol
_atom_site_label
_atom_site_fract_x
_atom_site_fract_y
_atom_site_fract_z
Si Si1 0.595367 0.567504 0.049620
Si Si2 0.567321 0.281915 0.360636
Si Si3 0.893068 0.675301 0.776682
Si Si4 0.612312 0.336996 0.728604
Si Si5 0.075504 0.949497 0.368707
Si Si6 0.390536 0.277307 0.541614
Si Si7 0.694821 0.244985 0.564427
Si Si8 0.804929 0.116424 0.811735
O O1 0.609094 0.605950 0.168455
O O2 0.605151 0.507688 0.091251
O O3 0.487945 0.573595 0.985188
O O4 0.669304 0.583238 0.937390
O O5 0.500000 0.259353 0.250000
O O6 0.490566 0.292352 0.473908
O O7 0.651610 0.247205 0.422742
O O8 0.620471 0.334504 0.316264
O O9 0.901584 0.724121 0.875319
O O10 0.857687 0.701586 0.646502
O O11 0.805353 0.637124 0.815732
O O12 0.000000 0.652514 0.750000
O O13 0.500000 0.319405 0.750000
O O14 0.650524 0.323346 0.868362
O O15 0.668899 0.299948 0.630536
O O16 0.164196 0.915634 0.313744
O O17 0.000000 0.952960 0.250000
O O18 0.308757 0.264965 0.438359
#
# Coordination Sequence:
#
# PCOD9454081 Si02
#       8
#     8   8   8   8   8   8   8   8
#     4  10  18  34  55  83 111 138 179 226 279 337
#     4  12  21  33  52  75 108 149 180 224 267 327
#     4  11  21  37  56  76 111 145 191 229 266 323
#     4  11  19  32  52  72 104 141 178 219 272 320
#     4   9  20  33  54  83 113 141 176 225 282 340
#     4  11  21  34  51  77 109 146 188 225 264 324
#     4  11  21  34  48  79 106 145 184 225 266 320
#     4  11  21  36  56  81 110 149 185 227 286 334
#
# _framework density 17.271053999999999
#
# number of rings (size 3 to 8) (size 9 to 14) (size 15 to 20)
#    0.000    1.250    5.000    3.000    1.750    1.000 
#    0.000    0.000    0.000    0.750    0.000    0.000 
#    0.000    0.000    0.000    0.000    0.000    0.000 
#
# Total GULP energy -357102.921601 kJ/mol
# GULP energy per Si atom -5579.733150 kJ/mol
# Density = 1.723174 g / cm^3
# Si number density = 17.271054 Si / 1000 Ang^3
#
#
#
# Elastic Constant Matrix: (Units=GPa)
#
#
# Indices 1 2 3 4 5 6 
#
# 1 103.6250 43.6489 14.0831 0.0000 0.0000 0.0000
# 2 43.6489 73.5688 26.4588 0.0000 0.0000 0.0000
# 3 14.0831 26.4588 51.8307 0.0000 0.0000 0.0000
# 4 0.0000 0.0000 0.0000 27.8885 0.0000 0.0000
# 5 0.0000 0.0000 0.0000 0.0000 27.2873 0.0000
# 6 0.0000 0.0000 0.0000 0.0000 0.0000 24.3989
#
#
#
# Elastic Compliance Matrix: (Units=1/GPa)
#
#
# Indices 1 2 3 4 5 6 
#
# 1 0.012876 -0.007816 0.000491 0.000000 0.000000 0.000000
# 2 -0.007816 0.021394 -0.008798 0.000000 0.000000 0.000000
# 3 0.000491 -0.008798 0.023651 0.000000 0.000000 0.000000
# 4 0.000000 0.000000 0.000000 0.035857 0.000000 0.000000
# 5 0.000000 0.000000 0.000000 0.000000 0.036647 0.000000
# 6 0.000000 0.000000 0.000000 0.000000 0.000000 0.040985
#
#
# Mechanical properties :
#
#
# Convention : Reuss Voigt Hill
#
# Bulk Modulus (GPa) = 38.94612 44.15621 41.55117
# Shear Modulus (GPa) = 23.56119 25.57053 24.56586
#
# Velocity S-wave (km/s) = 3.69752 3.85196 3.77553
# Velocity P-wave (km/s) = 6.38966 6.73836 6.56633
#
# Compressibility (1/GPa) = 0.02567650
#
# Stress axis : x y z
#
# Youngs Moduli (GPa) = 77.66612 46.74203 42.28131
#
# Poissons Ratio (x) = 0.36533 -0.02078
# Poissons Ratio (y) = 0.60703 0.37197
# Poissons Ratio (z) = -0.03817 0.41122
#
# Static dielectric constant tensor:
#      x y z
#    x 1.605020 0.000000 0.000000 
#    y 0.000000 1.581360 0.000000 
#    z 0.000000 0.000000 1.680580 
# 
# From -- ./inp_files/11358.got.cif
#   From: 2010.05.17/outbox.cif.g08.bks.cpg/sg60_6_cif.got.tgz:11358.got - 2010.06.03 14:59:27.
