data_PCOD9454622
_publ_section_title
;
Structure prediction by ZEFSAII (Michael W. Deem and Ramdas Pophale) SiO2 
 PCOD9454622
Probable space group: P B C N
;
_chemical_formula_sum "Si O2"
_cell_formula_units_Z 40
_cell_length_a 14.319158
_cell_length_b 5.335275
_cell_length_c 21.791837
_cell_angle_alpha 90.000000
_cell_angle_beta 90.000000
_cell_angle_gamma 90.000000
_cell_volume 1664.823250
_symmetry_space_group_name_H-M "P B C N"
_symmetry_group_IT_number 60
_symmetry_cell_setting 'orthorhombic'
loop_
_space_group_symop_operation_xyz
x,y,z
1/2-x,1/2-y,1/2+z
1/2+x,1/2-y,-z
-x,y,1/2-z
-x,-y,-z
1/2+x,1/2+y,1/2-z
1/2-x,1/2+y,z
x,-y,1/2+z
loop_
_atom_site_type_symbol
_atom_site_label
_atom_site_fract_x
_atom_site_fract_y
_atom_site_fract_z
Si Si1 0.152553 0.584356 0.265288
Si Si2 0.887094 0.765520 0.533218
Si Si3 0.061667 0.008941 0.586623
Si Si4 0.861069 0.084249 0.285638
Si Si5 0.128437 0.741259 0.400223
O O1 0.105911 0.315879 0.255708
O O2 0.250767 0.561107 0.229207
O O3 0.169708 0.655185 0.335681
O O4 0.100479 0.817666 0.235707
O O5 0.875648 0.846439 0.462949
O O6 0.862086 0.486330 0.552127
O O7 0.840209 0.986981 0.574162
O O8 0.997701 0.806912 0.549779
O O9 0.982352 0.203784 0.609663
O O10 0.115090 0.887670 0.643197
#
# Coordination Sequence:
#
# PCOD9454622 Si02
#       5
#     8   8   8   8   8
#     4  10  22  39  56  81 118 161 197 237 293 354
#     4   9  20  34  59  90 116 145 186 251 301 347
#     4   9  21  35  60  89 117 146 197 240 302 347
#     4  10  22  38  59  78 119 162 196 240 289 361
#     4  10  19  36  57  86 118 147 191 237 300 346
#
# _framework density 24.026574
#
# number of rings (size 3 to 8) (size 9 to 14) (size 15 to 20)
#    1.200    1.200    0.000    1.800    2.800    0.800 
#    0.000    0.000    0.000   28.800    0.000    0.000 
#    0.000    0.000    0.000    0.000    0.000    0.000 
#
# Total GULP energy -223228.643030 kJ/mol
# GULP energy per Si atom -5580.716076 kJ/mol
# Density = 2.397189 g / cm^3
# Si number density = 24.026574 Si / 1000 Ang^3
#
#
#
# Elastic Constant Matrix: (Units=GPa)
#
#
# Indices 1 2 3 4 5 6 
#
# 1 73.4574 -17.9823 29.1095 0.0000 0.0000 0.0000
# 2 -17.9823 78.9083 -28.4006 0.0000 0.0000 0.0000
# 3 29.1095 -28.4006 79.6133 0.0000 0.0000 0.0000
# 4 0.0000 0.0000 0.0000 37.7628 0.0000 0.0000
# 5 0.0000 0.0000 0.0000 0.0000 29.7943 0.0000
# 6 0.0000 0.0000 0.0000 0.0000 0.0000 -24.8147
#
#
#
# Elastic Compliance Matrix: (Units=1/GPa)
#
#
# Indices 1 2 3 4 5 6 
#
# 1 0.016136 0.001783 -0.005264 0.000000 0.000000 0.000000
# 2 0.001783 0.014737 0.004605 0.000000 0.000000 0.000000
# 3 -0.005264 0.004605 0.016128 0.000000 0.000000 0.000000
# 4 0.000000 0.000000 0.000000 0.026481 0.000000 0.000000
# 5 0.000000 0.000000 0.000000 0.000000 0.033563 0.000000
# 6 0.000000 0.000000 0.000000 0.000000 0.000000 -0.040299
#
#
# Mechanical properties :
#
#
# Convention : Reuss Voigt Hill
#
# Bulk Modulus (GPa) = 20.30521 21.93693 21.12107
# Shear Modulus (GPa) = 61.79342 25.16530 43.47936
#
# Velocity S-wave (km/s) = 5.07687 3.23986 4.25860
# Velocity P-wave (km/s) = 6.54489 4.81100 5.74375
#
# Compressibility (1/GPa) = 0.04924845
#
# Stress axis : x y z
#
# Youngs Moduli (GPa) = 61.97451 67.85788 62.00304
#
# Poissons Ratio (x) = -0.12096 0.32638
# Poissons Ratio (y) = -0.11047 -0.28554
# Poissons Ratio (z) = 0.32623 -0.31250
#
# Static dielectric constant tensor:
#      x y z
#    x 1.940450 0.000000 0.000000 
#    y 0.000000 1.980040 0.000000 
#    z 0.000000 0.000000 1.895080 
# 
# From -- ./inp_files/20752.got.cif
#   From: 2010.05.17/outbox.cif.g08.bks.cpg/sg60_11_cif.got.tgz:20752.got - 2010.06.03 14:59:27.
