data_PCOD9454336
_publ_section_title
;
Structure prediction by ZEFSAII (Michael W. Deem and Ramdas Pophale) SiO2 
 PCOD9454336
Probable space group: P B C N
;
_chemical_formula_sum "Si O2"
_cell_formula_units_Z 64
_cell_length_a 7.036314
_cell_length_b 21.077617
_cell_length_c 19.598350
_cell_angle_alpha 90.000000
_cell_angle_beta 90.000000
_cell_angle_gamma 90.000000
_cell_volume 2906.606430
_symmetry_space_group_name_H-M "P B C N"
_symmetry_group_IT_number 60
_symmetry_cell_setting 'orthorhombic'
loop_
_space_group_symop_operation_xyz
x,y,z
1/2-x,1/2-y,1/2+z
1/2+x,1/2-y,-z
-x,y,1/2-z
-x,-y,-z
1/2+x,1/2+y,1/2-z
1/2-x,1/2+y,z
x,-y,1/2+z
loop_
_atom_site_type_symbol
_atom_site_label
_atom_site_fract_x
_atom_site_fract_y
_atom_site_fract_z
Si Si1 0.185926 0.476572 0.585418
Si Si2 0.286375 0.798582 0.104536
Si Si3 0.661694 0.685470 0.566077
Si Si4 0.247244 0.540266 0.449321
Si Si5 0.328104 0.823618 0.950415
Si Si6 0.821351 0.068830 0.657486
Si Si7 0.748201 0.659911 0.409418
Si Si8 0.730341 0.082019 0.808541
O O1 0.295879 0.511109 0.523364
O O2 0.285138 0.412648 0.612772
O O3 0.146581 0.527102 0.644041
O O4 0.983295 0.456975 0.553777
O O5 0.324912 0.725325 0.123692
O O6 0.329512 0.849328 0.163008
O O7 0.060811 0.805375 0.085330
O O8 0.376998 0.817247 0.031253
O O9 0.753127 0.755389 0.571128
O O10 0.738557 0.629709 0.613191
O O11 0.685129 0.664438 0.488236
O O12 0.300230 0.614092 0.441991
O O13 0.305607 0.493648 0.388830
O O14 0.522685 0.832000 0.909057
O O15 0.709391 0.069620 0.728566
O O16 0.043043 0.077309 0.675896
#
# Coordination Sequence:
#
# PCOD9454336 Si02
#       8
#     8   8   8   8   8   8   8   8
#     4  10  19  32  51  76 104 131 164 208 252 298
#     4   9  17  30  49  72  97 127 163 202 246 292
#     4   9  17  30  49  72  97 127 163 202 246 292
#     4  10  19  32  51  76 104 131 164 208 252 298
#     4   9  17  30  49  74 100 124 159 206 249 289
#     4  10  21  35  50  71 101 135 170 207 249 300
#     4   9  17  30  49  74 100 124 159 206 249 289
#     4  10  21  35  50  71 101 135 170 207 249 300
#
# _framework density 22.018806999999999
#
# number of rings (size 3 to 8) (size 9 to 14) (size 15 to 20)
#    0.000    2.500    2.500    0.000    0.000    2.000 
#    0.000    1.250    0.000    4.500    0.000    0.000 
#    0.000    0.000    0.000    0.000    0.000    0.000 
#
# Total GULP energy -357375.959563 kJ/mol
# GULP energy per Si atom -5583.999368 kJ/mol
# Density = 2.196869 g / cm^3
# Si number density = 22.018807 Si / 1000 Ang^3
#
#
#
# Elastic Constant Matrix: (Units=GPa)
#
#
# Indices 1 2 3 4 5 6 
#
# 1 58.7880 -1.0945 -12.5327 0.0000 0.0000 0.0000
# 2 -1.0945 226.2248 75.6269 0.0000 0.0000 0.0000
# 3 -12.5327 75.6269 82.3226 0.0000 0.0000 0.0000
# 4 0.0000 0.0000 0.0000 24.3674 0.0000 0.0000
# 5 0.0000 0.0000 0.0000 0.0000 21.7391 0.0000
# 6 0.0000 0.0000 0.0000 0.0000 0.0000 7.8921
#
#
#
# Elastic Compliance Matrix: (Units=1/GPa)
#
#
# Indices 1 2 3 4 5 6 
#
# 1 0.017798 -0.001183 0.003796 0.000000 0.000000 0.000000
# 2 -0.001183 0.006458 -0.006113 0.000000 0.000000 0.000000
# 3 0.003796 -0.006113 0.018341 0.000000 0.000000 0.000000
# 4 0.000000 0.000000 0.000000 0.041038 0.000000 0.000000
# 5 0.000000 0.000000 0.000000 0.000000 0.046000 0.000000
# 6 0.000000 0.000000 0.000000 0.000000 0.000000 0.126710
#
#
# Mechanical properties :
#
#
# Convention : Reuss Voigt Hill
#
# Bulk Modulus (GPa) = 28.09203 54.59277 41.34240
# Shear Modulus (GPa) = 18.16791 31.15542 24.66166
#
# Velocity S-wave (km/s) = 2.87559 3.76566 3.35031
# Velocity P-wave (km/s) = 4.87967 6.61471 5.81230
#
# Compressibility (1/GPa) = 0.03559729
#
# Stress axis : x y z
#
# Youngs Moduli (GPa) = 56.18754 154.84056 54.52228
#
# Poissons Ratio (x) = 0.18317 -0.20698
# Poissons Ratio (y) = 0.06647 0.33330
# Poissons Ratio (z) = -0.21330 0.94655
#
# Static dielectric constant tensor:
#      x y z
#    x 1.920660 0.000000 0.000000 
#    y 0.000000 1.847830 0.000000 
#    z 0.000000 0.000000 1.730510 
# 
# From -- ./inp_files/22432.got.cif
#   From: 2010.05.17/outbox.cif.g08.bks.cpg/sg60_12_cif.got.tgz:22432.got - 2010.06.03 14:59:27.
