data_PCOD9454796
_publ_section_title
;
Structure prediction by ZEFSAII (Michael W. Deem and Ramdas Pophale) SiO2 
 PCOD9454796
Probable space group: P B C N
;
_chemical_formula_sum "Si O2"
_cell_formula_units_Z 64
_cell_length_a 18.062671
_cell_length_b 12.263188
_cell_length_c 13.986368
_cell_angle_alpha 90.000000
_cell_angle_beta 90.000000
_cell_angle_gamma 90.000000
_cell_volume 3098.063455
_symmetry_space_group_name_H-M "P B C N"
_symmetry_group_IT_number 60
_symmetry_cell_setting 'orthorhombic'
loop_
_space_group_symop_operation_xyz
x,y,z
1/2-x,1/2-y,1/2+z
1/2+x,1/2-y,-z
-x,y,1/2-z
-x,-y,-z
1/2+x,1/2+y,1/2-z
1/2-x,1/2+y,z
x,-y,1/2+z
loop_
_atom_site_type_symbol
_atom_site_label
_atom_site_fract_x
_atom_site_fract_y
_atom_site_fract_z
Si Si1 0.317128 0.009976 0.320055
Si Si2 0.706442 0.176743 0.537531
Si Si3 0.664787 0.300164 0.368477
Si Si4 0.161427 0.681415 0.675079
Si Si5 0.587010 0.478203 0.504496
Si Si6 0.661977 0.632116 0.178208
Si Si7 0.424293 0.789382 0.804591
Si Si8 0.624058 0.283682 0.005602
O O1 0.303173 0.940955 0.416464
O O2 0.347269 0.923042 0.242483
O O3 0.238219 0.067919 0.298646
O O4 0.377808 0.103101 0.328442
O O5 0.671388 0.190505 0.432898
O O6 0.670391 0.267348 0.604735
O O7 0.791210 0.217090 0.540646
O O8 0.750800 0.325653 0.349009
O O9 0.621222 0.388146 0.432666
O O10 0.624754 0.281607 0.268515
O O11 0.142646 0.796153 0.728474
O O12 0.117330 0.692732 0.576015
O O13 0.500000 0.500000 0.500000
O O14 0.611004 0.448758 0.614358
O O15 0.619301 0.593083 0.470261
O O16 0.500000 0.811707 0.750000
O O17 0.431737 0.730664 0.906528
#
# Coordination Sequence:
#
# PCOD9454796 Si02
#       8
#     8   8   8   8   8   8   8   8
#     4  11  20  39  66  94 123 165 216 269 329 382
#     4   9  19  37  64  96 121 157 212 278 315 372
#     4  10  22  40  62  95 129 166 217 271 329 391
#     4  10  23  38  66 100 122 164 224 277 326 378
#     4  11  24  39  63  97 136 178 210 262 349 410
#     4  10  19  39  64  92 130 160 217 274 319 390
#     4  12  25  42  62  89 129 174 219 266 323 400
#     4  11  22  40  62  94 129 164 218 274 324 387
#
# _framework density 20.658066000000002
#
# number of rings (size 3 to 8) (size 9 to 14) (size 15 to 20)
#    0.000    1.500    3.750    1.500    1.750    1.000 
#    0.000    8.125    0.000    0.000    0.000    0.000 
#    0.000    0.000    0.000    0.000    0.000    0.000 
#
# Total GULP energy -356743.538836 kJ/mol
# GULP energy per Si atom -5574.117794 kJ/mol
# Density = 2.061105 g / cm^3
# Si number density = 20.658066 Si / 1000 Ang^3
#
#
#
# Elastic Constant Matrix: (Units=GPa)
#
#
# Indices 1 2 3 4 5 6 
#
# 1 36.4136 -4.5968 6.2692 0.0000 0.0000 0.0000
# 2 -4.5968 75.0619 18.5210 0.0000 0.0000 0.0000
# 3 6.2692 18.5210 55.4473 0.0000 0.0000 0.0000
# 4 0.0000 0.0000 0.0000 3.8029 0.0000 0.0000
# 5 0.0000 0.0000 0.0000 0.0000 9.8426 0.0000
# 6 0.0000 0.0000 0.0000 0.0000 0.0000 -0.9992
#
#
#
# Elastic Compliance Matrix: (Units=1/GPa)
#
#
# Indices 1 2 3 4 5 6 
#
# 1 0.028527 0.002771 -0.004151 0.000000 0.000000 0.000000
# 2 0.002771 0.014788 -0.005253 0.000000 0.000000 0.000000
# 3 -0.004151 -0.005253 0.020259 0.000000 0.000000 0.000000
# 4 0.000000 0.000000 0.000000 0.262959 0.000000 0.000000
# 5 0.000000 0.000000 0.000000 0.000000 0.101600 0.000000
# 6 0.000000 0.000000 0.000000 0.000000 0.000000 -1.000816
#
#
# Mechanical properties :
#
#
# Convention : Reuss Voigt Hill
#
# Bulk Modulus (GPa) = 19.87742 23.03442 21.45592
# Shear Modulus (GPa) = -9.21408 12.31121 1.54857
#
# Velocity S-wave (km/s) = -2.11423 2.44386 0.86674
# Velocity P-wave (km/s) = 1.91913 4.37468 3.37793
#
# Compressibility (1/GPa) = 0.05030835
#
# Stress axis : x y z
#
# Youngs Moduli (GPa) = 35.05482 67.62148 49.36043
#
# Poissons Ratio (x) = -0.18740 0.20490
# Poissons Ratio (y) = -0.09715 0.25929
# Poissons Ratio (z) = 0.14552 0.35522
#
# Static dielectric constant tensor:
#      x y z
#    x 1.625290 0.000000 0.000000 
#    y 0.000000 1.732540 0.000000 
#    z 0.000000 0.000000 1.824570 
# 
# From -- ./inp_files/17477.got.cif
#   From: 2010.05.17/outbox.cif.g08.bks.cpg/sg60_9_cif.got.tgz:17477.got - 2010.06.03 14:59:27.
