data_PCOD9454589
_publ_section_title
;
Structure prediction by ZEFSAII (Michael W. Deem and Ramdas Pophale) SiO2 
 PCOD9454589
Probable space group: P B C N
;
_chemical_formula_sum "Si O2"
_cell_formula_units_Z 40
_cell_length_a 24.761553
_cell_length_b 12.206320
_cell_length_c 5.342666
_cell_angle_alpha 90.000000
_cell_angle_beta 90.000000
_cell_angle_gamma 90.000000
_cell_volume 1614.807119
_symmetry_space_group_name_H-M "P B C N"
_symmetry_group_IT_number 60
_symmetry_cell_setting 'orthorhombic'
loop_
_space_group_symop_operation_xyz
x,y,z
1/2-x,1/2-y,1/2+z
1/2+x,1/2-y,-z
-x,y,1/2-z
-x,-y,-z
1/2+x,1/2+y,1/2-z
1/2-x,1/2+y,z
x,-y,1/2+z
loop_
_atom_site_type_symbol
_atom_site_label
_atom_site_fract_x
_atom_site_fract_y
_atom_site_fract_z
Si Si1 0.765569 0.810228 0.221763
Si Si2 0.937073 0.114226 0.256597
Si Si3 0.056560 0.573838 0.798321
Si Si4 0.391034 0.630843 0.744356
Si Si5 0.665545 0.945503 0.359296
O O1 0.750447 0.722866 0.439081
O O2 0.828075 0.842032 0.240268
O O3 0.725069 0.906044 0.298349
O O4 0.922060 0.172586 0.512665
O O5 0.000000 0.085418 0.250000
O O6 0.902870 0.000318 0.260344
O O7 0.919151 0.173774 0.005379
O O8 0.055562 0.479815 0.575786
O O9 0.115287 0.624962 0.744269
O O10 0.000000 0.635748 0.750000
O O11 0.659951 0.954926 0.658048
#
# Coordination Sequence:
#
# PCOD9454589 Si02
#       5
#     8   8   8   8   8
#     4  12  26  41  56  83 129 171 204 245 309 374
#     4  10  19  35  62  97 118 143 205 275 315 361
#     4   8  14  27  49  79 105 130 168 231 292 326
#     4  10  20  33  57  82 118 160 195 243 311 366
#     4  10  21  36  62  87 112 144 202 252 285 345
#
# _framework density 24.770758000000001
#
# number of rings (size 3 to 8) (size 9 to 14) (size 15 to 20)
#    0.000    2.000    0.000    5.400    5.600    0.000 
#    0.000    0.000    0.000    9.600    0.000    0.000 
#    0.000    0.000    0.000    0.000    0.000    0.000 
#
# Total GULP energy -223210.414550 kJ/mol
# GULP energy per Si atom -5580.260364 kJ/mol
# Density = 2.471438 g / cm^3
# Si number density = 24.770758 Si / 1000 Ang^3
#
#
#
# Elastic Constant Matrix: (Units=GPa)
#
#
# Indices 1 2 3 4 5 6 
#
# 1 223.1569 11.4833 47.2373 0.0000 0.0000 0.0000
# 2 11.4833 33.4140 18.8495 0.0000 0.0000 0.0000
# 3 47.2373 18.8495 198.6498 0.0000 0.0000 0.0000
# 4 0.0000 0.0000 0.0000 27.6653 0.0000 0.0000
# 5 0.0000 0.0000 0.0000 0.0000 47.3443 0.0000
# 6 0.0000 0.0000 0.0000 0.0000 0.0000 74.6353
#
#
#
# Elastic Compliance Matrix: (Units=1/GPa)
#
#
# Indices 1 2 3 4 5 6 
#
# 1 0.004753 -0.001052 -0.001030 0.000000 0.000000 0.000000
# 2 -0.001052 0.031853 -0.002772 0.000000 0.000000 0.000000
# 3 -0.001030 -0.002772 0.005542 0.000000 0.000000 0.000000
# 4 0.000000 0.000000 0.000000 0.036146 0.000000 0.000000
# 5 0.000000 0.000000 0.000000 0.000000 0.021122 0.000000
# 6 0.000000 0.000000 0.000000 0.000000 0.000000 0.013398
#
#
# Mechanical properties :
#
#
# Convention : Reuss Voigt Hill
#
# Bulk Modulus (GPa) = 30.82750 67.81788 49.32269
# Shear Modulus (GPa) = 37.49861 55.10567 46.30214
#
# Velocity S-wave (km/s) = 3.89501 4.72171 4.32814
# Velocity P-wave (km/s) = 5.71842 7.56067 6.70313
#
# Compressibility (1/GPa) = 0.03243857
#
# Stress axis : x y z
#
# Youngs Moduli (GPa) = 210.37442 31.39411 180.43768
#
# Poissons Ratio (x) = 0.03304 0.18594
# Poissons Ratio (y) = 0.22137 0.50022
# Poissons Ratio (z) = 0.21679 0.08703
#
# Static dielectric constant tensor:
#      x y z
#    x 1.969320 0.000000 0.000000 
#    y 0.000000 2.367230 0.000000 
#    z 0.000000 0.000000 2.116820 
# 
# From -- ./inp_files/2001.got.cif
#   From: 2010.05.17/outbox.cif.g08.bks.cpg/sg60_2_cif.got.tgz:2001.got - 2010.06.03 14:59:27.
