data_PCOD9454038
_publ_section_title
;
Structure prediction by ZEFSAII (Michael W. Deem and Ramdas Pophale) SiO2 
 PCOD9454038
Probable space group: P B C N
;
_chemical_formula_sum "Si O2"
_cell_formula_units_Z 60
_cell_length_a 19.464676
_cell_length_b 5.690482
_cell_length_c 25.735242
_cell_angle_alpha 90.000000
_cell_angle_beta 90.000000
_cell_angle_gamma 90.000000
_cell_volume 2850.522606
_symmetry_space_group_name_H-M "P B C N"
_symmetry_group_IT_number 60
_symmetry_cell_setting 'orthorhombic'
loop_
_space_group_symop_operation_xyz
x,y,z
1/2-x,1/2-y,1/2+z
1/2+x,1/2-y,-z
-x,y,1/2-z
-x,-y,-z
1/2+x,1/2+y,1/2-z
1/2-x,1/2+y,z
x,-y,1/2+z
loop_
_atom_site_type_symbol
_atom_site_label
_atom_site_fract_x
_atom_site_fract_y
_atom_site_fract_z
Si Si1 0.283097 0.893557 0.460716
Si Si2 0.037291 0.104147 0.345647
Si Si3 0.047525 0.023089 0.051235
Si Si4 0.079054 0.477148 0.520427
Si Si5 0.397345 0.760607 0.787184
Si Si6 0.766613 0.875533 0.261672
Si Si7 0.320371 0.870388 0.345115
Si Si8 0.000000 0.595290 0.750000
O O1 0.255990 0.634373 0.478448
O O2 0.362803 0.929730 0.477042
O O3 0.279017 0.881198 0.398069
O O4 0.116900 0.186481 0.350866
O O5 0.001489 0.274118 0.304848
O O6 0.039335 0.864777 0.313578
O O7 0.000803 0.074608 0.399826
O O8 0.080936 0.762161 0.055112
O O9 0.092243 0.261859 0.044163
O O10 0.000000 0.000000 0.000000
O O11 0.000000 0.500000 0.500000
O O12 0.346103 0.602483 0.754390
O O13 0.356804 0.881649 0.834110
O O14 0.428648 0.957194 0.750893
O O15 0.757293 0.618462 0.287381
O O16 0.724264 0.840221 0.207204
#
# Coordination Sequence:
#
# PCOD9454038 Si02
#       8
#     8   8   8   8   8   8   8   4
#     4  12  25  38  62  95 137 177 220 269 336 406
#     4  11  22  38  64  89 133 176 214 278 326 399
#     4  10  22  37  63  91 127 173 223 263 324 387
#     4  10  22  41  57  89 129 174 218 264 309 391
#     4  10  21  35  57  80 129 166 205 256 315 391
#     4  10  18  33  50  82 116 159 192 237 305 392
#     4  10  21  33  54  91 130 166 204 247 333 408
#     4  10  24  40  56  92 122 172 218 268 330 384
#
# _framework density 21.048773000000001
#
# number of rings (size 3 to 8) (size 9 to 14) (size 15 to 20)
#    0.000    1.600    1.333    4.400    9.333    0.000 
#    0.000    0.000    0.000    0.000    0.000   16.800 
#    0.000    0.000    0.000    0.000    0.000    0.000 
#
# Total GULP energy -334202.288785 kJ/mol
# GULP energy per Si atom -5570.038146 kJ/mol
# Density = 2.100086 g / cm^3
# Si number density = 21.048773 Si / 1000 Ang^3
#
#
#
# Elastic Constant Matrix: (Units=GPa)
#
#
# Indices 1 2 3 4 5 6 
#
# 1 50.9123 20.4100 26.4787 0.0000 0.0000 0.0000
# 2 20.4100 156.3099 19.6096 0.0000 0.0000 0.0000
# 3 26.4787 19.6096 42.7075 0.0000 0.0000 0.0000
# 4 0.0000 0.0000 0.0000 1.6882 0.0000 0.0000
# 5 0.0000 0.0000 0.0000 0.0000 22.3401 0.0000
# 6 0.0000 0.0000 0.0000 0.0000 0.0000 -100.3620
#
#
#
# Elastic Compliance Matrix: (Units=1/GPa)
#
#
# Indices 1 2 3 4 5 6 
#
# 1 0.029383 -0.001646 -0.017462 0.000000 0.000000 0.000000
# 2 -0.001646 0.006881 -0.002139 0.000000 0.000000 0.000000
# 3 -0.017462 -0.002139 0.035223 0.000000 0.000000 0.000000
# 4 0.000000 0.000000 0.000000 0.592364 0.000000 0.000000
# 5 0.000000 0.000000 0.000000 0.000000 0.044763 0.000000
# 6 0.000000 0.000000 0.000000 0.000000 0.000000 -0.009964
#
#
# Mechanical properties :
#
#
# Convention : Reuss Voigt Hill
#
# Bulk Modulus (GPa) = 34.48976 42.54736 38.51856
# Shear Modulus (GPa) = 6.65949 -3.03800 1.81075
#
# Velocity S-wave (km/s) = 1.78065 -1.20268 0.92851
# Velocity P-wave (km/s) = 4.54410 4.28124 4.41462
#
# Compressibility (1/GPa) = 0.02899411
#
# Stress axis : x y z
#
# Youngs Moduli (GPa) = 34.03324 145.33188 28.39017
#
# Poissons Ratio (x) = 0.23922 0.49574
# Poissons Ratio (y) = 0.05602 0.06072
# Poissons Ratio (z) = 0.59428 0.31084
#
# Static dielectric constant tensor:
#      x y z
#    x 1.743620 0.000000 0.000000 
#    y 0.000000 1.925790 0.000000 
#    z 0.000000 0.000000 1.702000 
# 
# From -- ./inp_files/25478.got.cif
#   From: 2010.05.17/outbox.cif.g08.bks.cpg/sg60_13_cif.got.tgz:25478.got - 2010.06.03 14:59:27.
