data_PCOD9454809
_publ_section_title
;
Structure prediction by ZEFSAII (Michael W. Deem and Ramdas Pophale) SiO2 
 PCOD9454809
Probable space group: P B C N
;
_chemical_formula_sum "Si O2"
_cell_formula_units_Z 56
_cell_length_a 8.839656
_cell_length_b 16.017734
_cell_length_c 20.366416
_cell_angle_alpha 90.000000
_cell_angle_beta 90.000000
_cell_angle_gamma 90.000000
_cell_volume 2883.706472
_symmetry_space_group_name_H-M "P B C N"
_symmetry_group_IT_number 60
_symmetry_cell_setting 'orthorhombic'
loop_
_space_group_symop_operation_xyz
x,y,z
1/2-x,1/2-y,1/2+z
1/2+x,1/2-y,-z
-x,y,1/2-z
-x,-y,-z
1/2+x,1/2+y,1/2-z
1/2-x,1/2+y,z
x,-y,1/2+z
loop_
_atom_site_type_symbol
_atom_site_label
_atom_site_fract_x
_atom_site_fract_y
_atom_site_fract_z
Si Si1 0.500000 0.592622 0.750000
Si Si2 0.249680 0.029717 0.841118
Si Si3 0.745843 0.656830 0.842671
Si Si4 0.399181 0.092369 0.426972
Si Si5 0.910160 0.748662 0.453317
Si Si6 0.201006 0.515326 0.557778
Si Si7 0.500000 0.883400 0.250000
Si Si8 0.317083 0.367973 0.474511
O O1 0.600787 0.536668 0.702264
O O2 0.608879 0.651071 0.792259
O O3 0.385173 0.062282 0.794475
O O4 0.223680 0.089227 0.904849
O O5 0.289471 0.939421 0.870295
O O6 0.709286 0.722858 0.898659
O O7 0.749867 0.566866 0.879210
O O8 0.898113 0.667776 0.801346
O O9 0.472235 0.182449 0.422347
O O10 0.321720 0.080103 0.497810
O O11 0.538853 0.026699 0.427601
O O12 0.813912 0.699519 0.508209
O O13 0.018497 0.825080 0.474078
O O14 0.304180 0.441001 0.529329
#
# Coordination Sequence:
#
# PCOD9454809 Si02
#       8
#     4   8   8   8   8   8   4   8
#     4  10  22  38  59  85 122 156 206 250 288 360
#     4  10  19  40  61  87 115 160 211 246 296 370
#     4  11  21  39  61  89 118 158 210 245 304 361
#     4   9  18  35  60  90 113 152 193 252 306 358
#     4  11  22  36  59  93 125 156 190 263 320 365
#     4   9  18  35  62  87 114 149 205 247 293 365
#     4  10  22  34  69  81 110 170 210 240 278 384
#     4  10  22  37  60  90 125 154 200 258 317 359
#
# _framework density 19.419452
#
# number of rings (size 3 to 8) (size 9 to 14) (size 15 to 20)
#    0.000    2.000    2.857    1.714    2.000    0.571 
#    2.571    0.714    0.000    4.286    0.000    0.000 
#    0.000    0.000    0.000    0.000    0.000    0.000 
#
# Total GULP energy -312555.241370 kJ/mol
# GULP energy per Si atom -5581.343596 kJ/mol
# Density = 1.937525 g / cm^3
# Si number density = 19.419452 Si / 1000 Ang^3
#
#
#
# Elastic Constant Matrix: (Units=GPa)
#
#
# Indices 1 2 3 4 5 6 
#
# 1 93.1378 27.8193 44.2345 0.0000 0.0000 0.0000
# 2 27.8193 55.9308 32.9725 0.0000 0.0000 0.0000
# 3 44.2345 32.9725 93.1422 0.0000 0.0000 0.0000
# 4 0.0000 0.0000 0.0000 7.2203 0.0000 0.0000
# 5 0.0000 0.0000 0.0000 0.0000 38.9315 0.0000
# 6 0.0000 0.0000 0.0000 0.0000 0.0000 25.1019
#
#
#
# Elastic Compliance Matrix: (Units=1/GPa)
#
#
# Indices 1 2 3 4 5 6 
#
# 1 0.014537 -0.003994 -0.005490 0.000000 0.000000 0.000000
# 2 -0.003994 0.023692 -0.006490 0.000000 0.000000 0.000000
# 3 -0.005490 -0.006490 0.015641 0.000000 0.000000 0.000000
# 4 0.000000 0.000000 0.000000 0.138499 0.000000 0.000000
# 5 0.000000 0.000000 0.000000 0.000000 0.025686 0.000000
# 6 0.000000 0.000000 0.000000 0.000000 0.000000 0.039838
#
#
# Mechanical properties :
#
#
# Convention : Reuss Voigt Hill
#
# Bulk Modulus (GPa) = 45.61689 50.25148 47.93418
# Shear Modulus (GPa) = 16.82662 23.39637 20.11150
#
# Velocity S-wave (km/s) = 2.94680 3.47477 3.22162
# Velocity P-wave (km/s) = 5.92617 6.48319 6.21093
#
# Compressibility (1/GPa) = 0.02192170
#
# Stress axis : x y z
#
# Youngs Moduli (GPa) = 68.78919 42.20849 63.93436
#
# Poissons Ratio (x) = 0.16859 0.35100
# Poissons Ratio (y) = 0.27475 0.41494
# Poissons Ratio (z) = 0.37765 0.27394
#
# Static dielectric constant tensor:
#      x y z
#    x 1.705960 0.000000 0.000000 
#    y 0.000000 1.673980 0.000000 
#    z 0.000000 0.000000 1.670840 
# 
# From -- ./inp_files/22250.got.cif
#   From: 2010.05.17/outbox.cif.g08.bks.cpg/sg60_12_cif.got.tgz:22250.got - 2010.06.03 14:59:27.
