data_PCOD9454175
_publ_section_title
;
Structure prediction by ZEFSAII (Michael W. Deem and Ramdas Pophale) SiO2 
 PCOD9454175
Probable space group: P B C N
;
_chemical_formula_sum "Si O2"
_cell_formula_units_Z 44
_cell_length_a 17.052086
_cell_length_b 8.070622
_cell_length_c 15.938618
_cell_angle_alpha 90.000000
_cell_angle_beta 90.000000
_cell_angle_gamma 90.000000
_cell_volume 2193.487598
_symmetry_space_group_name_H-M "P B C N"
_symmetry_group_IT_number 60
_symmetry_cell_setting 'orthorhombic'
loop_
_space_group_symop_operation_xyz
x,y,z
1/2-x,1/2-y,1/2+z
1/2+x,1/2-y,-z
-x,y,1/2-z
-x,-y,-z
1/2+x,1/2+y,1/2-z
1/2-x,1/2+y,z
x,-y,1/2+z
loop_
_atom_site_type_symbol
_atom_site_label
_atom_site_fract_x
_atom_site_fract_y
_atom_site_fract_z
Si Si1 0.341115 0.525869 0.002422
Si Si2 0.602894 0.829321 0.396593
Si Si3 0.000000 0.763657 0.750000
Si Si4 0.654813 0.440191 0.687797
Si Si5 0.742955 0.719361 0.780219
Si Si6 0.171274 0.350536 0.563714
O O1 0.396522 0.661321 0.048026
O O2 0.349645 0.335261 0.033937
O O3 0.252694 0.588337 0.022204
O O4 0.351782 0.518572 0.903039
O O5 0.532968 0.835430 0.329777
O O6 0.683422 0.814088 0.341670
O O7 0.610722 0.999142 0.448577
O O8 0.928138 0.873706 0.718008
O O9 0.690510 0.565087 0.755539
O O10 0.718789 0.292557 0.695564
O O11 0.687414 0.834273 0.836481
#
# Coordination Sequence:
#
# PCOD9454175 Si02
#       6
#     8   8   4   8   8   8
#     4  11  21  34  62  92 122 154 206 261 310 354
#     4  10  21  40  61  87 124 165 201 256 308 361
#     4  10  24  42  60  86 128 166 202 254 320 368
#     4  11  22  38  62  94 123 159 210 257 305 372
#     4  10  18  36  63  86 117 161 210 250 291 368
#     4  11  18  36  60  93 117 159 202 260 303 355
#
# _framework density 20.059380000000001
#
# number of rings (size 3 to 8) (size 9 to 14) (size 15 to 20)
#    0.000    1.455    5.455    3.273    0.000    0.727 
#    0.000    4.545    0.000    0.000    0.000    0.000 
#    0.000    0.000    0.000    0.000    0.000    0.000 
#
# Total GULP energy -245342.606460 kJ/mol
# GULP energy per Si atom -5575.968329 kJ/mol
# Density = 2.001372 g / cm^3
# Si number density = 20.059380 Si / 1000 Ang^3
#
#
#
# Elastic Constant Matrix: (Units=GPa)
#
#
# Indices 1 2 3 4 5 6 
#
# 1 37.2527 12.3940 -0.2598 0.0000 0.0000 0.0000
# 2 12.3940 122.3122 15.1746 0.0000 0.0000 0.0000
# 3 -0.2598 15.1746 62.2473 0.0000 0.0000 0.0000
# 4 0.0000 0.0000 0.0000 -2.2823 0.0000 0.0000
# 5 0.0000 0.0000 0.0000 0.0000 12.1035 0.0000
# 6 0.0000 0.0000 0.0000 0.0000 0.0000 18.1195
#
#
#
# Elastic Compliance Matrix: (Units=1/GPa)
#
#
# Indices 1 2 3 4 5 6 
#
# 1 0.027822 -0.002922 0.000828 0.000000 0.000000 0.000000
# 2 -0.002922 0.008738 -0.002142 0.000000 0.000000 0.000000
# 3 0.000828 -0.002142 0.016591 0.000000 0.000000 0.000000
# 4 0.000000 0.000000 0.000000 -0.438154 0.000000 0.000000
# 5 0.000000 0.000000 0.000000 0.000000 0.082621 0.000000
# 6 0.000000 0.000000 0.000000 0.000000 0.000000 0.055189
#
#
# Mechanical properties :
#
#
# Convention : Reuss Voigt Hill
#
# Bulk Modulus (GPa) = 22.38222 30.71444 26.54833
# Shear Modulus (GPa) = -22.33839 18.55504 -1.89167
#
# Velocity S-wave (km/s) = -3.34070 3.04469 -0.97215
# Velocity P-wave (km/s) = 1.92307 5.26357 3.46461
#
# Compressibility (1/GPa) = 0.04467832
#
# Stress axis : x y z
#
# Youngs Moduli (GPa) = 35.94330 114.44708 60.27491
#
# Poissons Ratio (x) = 0.33441 -0.04993
# Poissons Ratio (y) = 0.10503 0.12912
# Poissons Ratio (z) = -0.02978 0.24518
#
# Static dielectric constant tensor:
#      x y z
#    x 1.685450 0.000000 0.000000 
#    y 0.000000 1.815980 0.000000 
#    z 0.000000 0.000000 1.715650 
# 
# From -- ./inp_files/17252.got.cif
#   From: 2010.05.17/outbox.cif.g08.bks.cpg/sg60_9_cif.got.tgz:17252.got - 2010.06.03 14:59:27.
