data_PCOD9454720
_publ_section_title
;
Structure prediction by ZEFSAII (Michael W. Deem and Ramdas Pophale) SiO2 
 PCOD9454720
Probable space group: P B C N
;
_chemical_formula_sum "Si O2"
_cell_formula_units_Z 48
_cell_length_a 8.912684
_cell_length_b 13.711094
_cell_length_c 16.080444
_cell_angle_alpha 90.000000
_cell_angle_beta 90.000000
_cell_angle_gamma 90.000000
_cell_volume 1965.072840
_symmetry_space_group_name_H-M "P B C N"
_symmetry_group_IT_number 60
_symmetry_cell_setting 'orthorhombic'
loop_
_space_group_symop_operation_xyz
x,y,z
1/2-x,1/2-y,1/2+z
1/2+x,1/2-y,-z
-x,y,1/2-z
-x,-y,-z
1/2+x,1/2+y,1/2-z
1/2-x,1/2+y,z
x,-y,1/2+z
loop_
_atom_site_type_symbol
_atom_site_label
_atom_site_fract_x
_atom_site_fract_y
_atom_site_fract_z
Si Si1 0.500000 0.096240 0.750000
Si Si2 0.183465 0.941152 0.945013
Si Si3 0.600757 0.444439 0.380502
Si Si4 0.828998 0.760292 0.643133
Si Si5 0.515573 0.766182 0.845794
Si Si6 0.500000 0.586983 0.250000
Si Si7 0.486285 0.966536 0.595915
O O1 0.400444 0.166159 0.811405
O O2 0.431657 0.029142 0.675721
O O3 0.123938 0.827741 0.937750
O O4 0.332275 0.951616 0.890340
O O5 0.211164 0.959719 0.042589
O O6 0.061931 0.020875 0.917193
O O7 0.607294 0.333271 0.352057
O O8 0.602895 0.517239 0.304816
O O9 0.654759 0.740840 0.628251
O O10 0.880722 0.842756 0.707601
O O11 0.500000 0.796791 0.750000
O O12 0.578000 0.856853 0.897558
O O13 0.500000 0.000000 0.500000
#
# Coordination Sequence:
#
# PCOD9454720 Si02
#       7
#     4   8   8   8   8   4   8
#     4  11  22  43  68  88 124 171 210 267 322 382
#     4   9  21  40  61  91 123 163 206 271 313 385
#     4  10  19  37  64  87 123 159 210 262 327 371
#     4   9  21  38  62  88 122 162 210 262 316 383
#     4  11  22  39  58  92 127 163 209 265 315 383
#     4   9  18  37  62  92 118 157 218 261 324 394
#     4  11  25  42  60  90 131 168 213 258 328 387
#
# _framework density 24.426576000000001
#
# number of rings (size 3 to 8) (size 9 to 14) (size 15 to 20)
#    0.000    2.000    1.667    1.000    2.333    2.667 
#    3.000    0.000    0.000    0.000    0.000    0.000 
#    0.000    0.000    0.000    0.000    0.000    0.000 
#
# Total GULP energy -267230.229920 kJ/mol
# GULP energy per Si atom -5567.296457 kJ/mol
# Density = 2.437098 g / cm^3
# Si number density = 24.426576 Si / 1000 Ang^3
#
#
#
# Elastic Constant Matrix: (Units=GPa)
#
#
# Indices 1 2 3 4 5 6 
#
# 1 29.8175 10.9688 7.8271 0.0000 0.0000 0.0000
# 2 10.9688 136.8270 17.2696 0.0000 0.0000 0.0000
# 3 7.8271 17.2696 66.9311 0.0000 0.0000 0.0000
# 4 0.0000 0.0000 0.0000 21.4946 0.0000 0.0000
# 5 0.0000 0.0000 0.0000 0.0000 33.3836 0.0000
# 6 0.0000 0.0000 0.0000 0.0000 0.0000 16.8460
#
#
#
# Elastic Compliance Matrix: (Units=1/GPa)
#
#
# Indices 1 2 3 4 5 6 
#
# 1 0.035339 -0.002389 -0.003516 0.000000 0.000000 0.000000
# 2 -0.002389 0.007716 -0.001712 0.000000 0.000000 0.000000
# 3 -0.003516 -0.001712 0.015794 0.000000 0.000000 0.000000
# 4 0.000000 0.000000 0.000000 0.046523 0.000000 0.000000
# 5 0.000000 0.000000 0.000000 0.000000 0.029955 0.000000
# 6 0.000000 0.000000 0.000000 0.000000 0.000000 0.059361
#
#
# Mechanical properties :
#
#
# Convention : Reuss Voigt Hill
#
# Bulk Modulus (GPa) = 22.92788 33.96741 28.44764
# Shear Modulus (GPa) = 22.27564 27.51217 24.89391
#
# Velocity S-wave (km/s) = 3.02312 3.35971 3.19585
# Velocity P-wave (km/s) = 4.64677 5.38390 5.02886
#
# Compressibility (1/GPa) = 0.04361502
#
# Stress axis : x y z
#
# Youngs Moduli (GPa) = 28.29720 129.60002 63.31708
#
# Poissons Ratio (x) = 0.30964 0.22263
# Poissons Ratio (y) = 0.06761 0.10837
# Poissons Ratio (z) = 0.09950 0.22181
#
# Static dielectric constant tensor:
#      x y z
#    x 2.057660 0.000000 0.000000 
#    y 0.000000 1.996670 0.000000 
#    z 0.000000 0.000000 1.225920 
# 
# From -- ./inp_files/20037.got.cif
#   From: 2010.05.17/outbox.cif.g08.bks.cpg/sg60_11_cif.got.tgz:20037.got - 2010.06.03 14:59:27.
