data_PCOD9454247
_publ_section_title
;
Structure prediction by ZEFSAII (Michael W. Deem and Ramdas Pophale) SiO2 
 PCOD9454247
Probable space group: P B C N
;
_chemical_formula_sum "Si O2"
_cell_formula_units_Z 36
_cell_length_a 12.756073
_cell_length_b 11.567187
_cell_length_c 8.928455
_cell_angle_alpha 90.000000
_cell_angle_beta 90.000000
_cell_angle_gamma 90.000000
_cell_volume 1317.410337
_symmetry_space_group_name_H-M "P B C N"
_symmetry_group_IT_number 60
_symmetry_cell_setting 'orthorhombic'
loop_
_space_group_symop_operation_xyz
x,y,z
1/2-x,1/2-y,1/2+z
1/2+x,1/2-y,-z
-x,y,1/2-z
-x,-y,-z
1/2+x,1/2+y,1/2-z
1/2-x,1/2+y,z
x,-y,1/2+z
loop_
_atom_site_type_symbol
_atom_site_label
_atom_site_fract_x
_atom_site_fract_y
_atom_site_fract_z
Si Si1 0.336971 0.156238 0.267618
Si Si2 0.124142 0.484353 0.028266
Si Si3 0.000000 0.179391 0.750000
Si Si4 0.609201 0.333724 0.726910
Si Si5 0.855802 0.037342 0.525838
O O1 0.357349 0.138910 0.445209
O O2 0.419114 0.231130 0.175559
O O3 0.224308 0.216065 0.250754
O O4 0.356277 0.027058 0.199017
O O5 0.229883 0.551677 0.966055
O O6 0.000000 0.500000 0.000000
O O7 0.924635 0.113310 0.637496
O O8 0.500000 0.267478 0.750000
O O9 0.618620 0.406597 0.574404
O O10 0.608987 0.430611 0.859281
#
# Coordination Sequence:
#
# PCOD9454247 Si02
#       5
#     8   8   4   8   8
#     4  10  22  38  70  90 130 170 214 273 330 388
#     4  10  18  41  66  92 119 174 228 255 319 415
#     4  12  22  42  58  98 138 168 200 284 350 370
#     4  10  20  42  62  94 115 171 227 253 309 414
#     4  10  23  36  68  91 126 168 217 268 332 381
#
# _framework density 27.326338
#
# number of rings (size 3 to 8) (size 9 to 14) (size 15 to 20)
#    0.000    1.778    3.333    0.667    0.000    0.000 
#    8.000    0.000    0.000    0.000    0.000    0.000 
#    0.000    0.000    0.000    0.000    0.000    0.000 
#
# Total GULP energy -200444.079100 kJ/mol
# GULP energy per Si atom -5567.891086 kJ/mol
# Density = 2.726414 g / cm^3
# Si number density = 27.326338 Si / 1000 Ang^3
#
#
#
# Elastic Constant Matrix: (Units=GPa)
#
#
# Indices 1 2 3 4 5 6 
#
# 1 305.3650 21.8009 10.7673 0.0000 0.0000 0.0000
# 2 21.8009 46.6786 31.0950 0.0000 0.0000 0.0000
# 3 10.7673 31.0950 93.8575 0.0000 0.0000 0.0000
# 4 0.0000 0.0000 0.0000 29.9610 0.0000 0.0000
# 5 0.0000 0.0000 0.0000 0.0000 40.8104 0.0000
# 6 0.0000 0.0000 0.0000 0.0000 0.0000 30.0622
#
#
#
# Elastic Compliance Matrix: (Units=1/GPa)
#
#
# Indices 1 2 3 4 5 6 
#
# 1 0.003390 -0.001699 0.000174 0.000000 0.000000 0.000000
# 2 -0.001699 0.028342 -0.009195 0.000000 0.000000 0.000000
# 3 0.000174 -0.009195 0.013681 0.000000 0.000000 0.000000
# 4 0.000000 0.000000 0.000000 0.033377 0.000000 0.000000
# 5 0.000000 0.000000 0.000000 0.000000 0.024504 0.000000
# 6 0.000000 0.000000 0.000000 0.000000 0.000000 0.033264
#
#
# Mechanical properties :
#
#
# Convention : Reuss Voigt Hill
#
# Bulk Modulus (GPa) = 41.71412 63.69194 52.70303
# Shear Modulus (GPa) = 30.12276 45.64925 37.88600
#
# Velocity S-wave (km/s) = 3.32374 4.09164 3.72752
# Velocity P-wave (km/s) = 5.47978 6.75873 6.15258
#
# Compressibility (1/GPa) = 0.02397270
#
# Stress axis : x y z
#
# Youngs Moduli (GPa) = 294.99021 35.28370 73.09584
#
# Poissons Ratio (x) = 0.05995 -0.01272
# Poissons Ratio (y) = 0.50124 0.67209
# Poissons Ratio (z) = -0.05134 0.32442
#
# Static dielectric constant tensor:
#      x y z
#    x 2.314900 0.000000 0.000000 
#    y 0.000000 2.259990 0.000000 
#    z 0.000000 0.000000 2.127810 
# 
# From -- ./inp_files/10778.got.cif
#   From: 2010.05.17/outbox.cif.g08.bks.cpg/sg60_6_cif.got.tgz:10778.got - 2010.06.03 14:59:27.
