data_PCOD9454451
_publ_section_title
;
Structure prediction by ZEFSAII (Michael W. Deem and Ramdas Pophale) SiO2 
 PCOD9454451
Probable space group: P B C N
;
_chemical_formula_sum "Si O2"
_cell_formula_units_Z 40
_cell_length_a 12.140632
_cell_length_b 18.456327
_cell_length_c 7.221554
_cell_angle_alpha 90.000000
_cell_angle_beta 90.000000
_cell_angle_gamma 90.000000
_cell_volume 1618.144251
_symmetry_space_group_name_H-M "P B C N"
_symmetry_group_IT_number 60
_symmetry_cell_setting 'orthorhombic'
loop_
_space_group_symop_operation_xyz
x,y,z
1/2-x,1/2-y,1/2+z
1/2+x,1/2-y,-z
-x,y,1/2-z
-x,-y,-z
1/2+x,1/2+y,1/2-z
1/2-x,1/2+y,z
x,-y,1/2+z
loop_
_atom_site_type_symbol
_atom_site_label
_atom_site_fract_x
_atom_site_fract_y
_atom_site_fract_z
Si Si1 0.314826 0.344333 0.443834
Si Si2 0.298346 0.294953 0.841361
Si Si3 0.500000 0.573324 0.750000
Si Si4 0.943260 0.426245 0.557335
Si Si5 0.000000 0.309215 0.250000
Si Si6 0.217017 0.922470 0.107422
O O1 0.282159 0.342754 0.657361
O O2 0.300573 0.260839 0.381559
O O3 0.434804 0.376474 0.397594
O O4 0.257869 0.103218 0.811098
O O5 0.401153 0.243119 0.807510
O O6 0.319241 0.346995 0.013052
O O7 0.396579 0.533951 0.647800
O O8 0.965088 0.360864 0.417556
O O9 0.813631 0.445695 0.528418
O O10 0.000000 0.405881 0.750000
O O11 0.000000 0.500000 0.500000
#
# Coordination Sequence:
#
# PCOD9454451 Si02
#       6
#     8   8   4   8   4   8
#     4  10  19  34  52  91 140 183 214 280 359 447
#     4  12  21  34  60 101 149 179 228 294 375 465
#     4   8  18  38  58  87 137 172 220 292 360 440
#     4  12  27  48  72  95 139 202 263 314 357 452
#     4  12  24  40  66 107 139 192 244 294 384 450
#     4  10  23  40  62 101 135 186 232 302 382 443
#
# _framework density 24.719674999999999
#
# number of rings (size 3 to 8) (size 9 to 14) (size 15 to 20)
#    1.200    0.000    5.000    1.200    2.800    1.600 
#    1.800    0.000    0.000    1.200    0.000    0.000 
#    0.000    0.000    0.000    0.000    0.000    0.000 
#
# Total GULP energy -223341.070390 kJ/mol
# GULP energy per Si atom -5583.526760 kJ/mol
# Density = 2.466341 g / cm^3
# Si number density = 24.719675 Si / 1000 Ang^3
#
#
#
# Elastic Constant Matrix: (Units=GPa)
#
#
# Indices 1 2 3 4 5 6 
#
# 1 157.9793 33.1873 27.9854 0.0000 0.0000 0.0000
# 2 33.1873 77.7074 23.8993 0.0000 0.0000 0.0000
# 3 27.9854 23.8993 106.2370 0.0000 0.0000 0.0000
# 4 0.0000 0.0000 0.0000 -36.6908 0.0000 0.0000
# 5 0.0000 0.0000 0.0000 0.0000 34.9352 0.0000
# 6 0.0000 0.0000 0.0000 0.0000 0.0000 32.7562
#
#
#
# Elastic Compliance Matrix: (Units=1/GPa)
#
#
# Indices 1 2 3 4 5 6 
#
# 1 0.007112 -0.002644 -0.001279 0.000000 0.000000 0.000000
# 2 -0.002644 0.014808 -0.002635 0.000000 0.000000 0.000000
# 3 -0.001279 -0.002635 0.010342 0.000000 0.000000 0.000000
# 4 0.000000 0.000000 0.000000 -0.027255 0.000000 0.000000
# 5 0.000000 0.000000 0.000000 0.000000 0.028624 0.000000
# 6 0.000000 0.000000 0.000000 0.000000 0.000000 0.030529
#
#
# Mechanical properties :
#
#
# Convention : Reuss Voigt Hill
#
# Bulk Modulus (GPa) = 52.22562 56.89640 54.56101
# Shear Modulus (GPa) = 59.76676 23.32358 41.54517
#
# Velocity S-wave (km/s) = 4.92243 3.07501 4.10402
# Velocity P-wave (km/s) = 7.31301 5.97279 6.67661
#
# Compressibility (1/GPa) = 0.01914769
#
# Stress axis : x y z
#
# Youngs Moduli (GPa) = 140.60931 67.52931 96.68877
#
# Poissons Ratio (x) = 0.17855 0.12363
# Poissons Ratio (y) = 0.37179 0.25476
# Poissons Ratio (z) = 0.17979 0.17793
#
# Static dielectric constant tensor:
#      x y z
#    x 1.583720 0.000000 0.000000 
#    y 0.000000 1.902880 0.000000 
#    z 0.000000 0.000000 2.019660 
# 
# From -- ./inp_files/4808.got.cif
#   From: 2010.05.17/outbox.cif.g08.bks.cpg/sg60_3_cif.got.tgz:4808.got - 2010.06.03 14:59:27.
