data_PCOD9454646
_publ_section_title
;
Structure prediction by ZEFSAII (Michael W. Deem and Ramdas Pophale) SiO2 
 PCOD9454646
Probable space group: P B C N
;
_chemical_formula_sum "Si O2"
_cell_formula_units_Z 56
_cell_length_a 15.982683
_cell_length_b 8.585774
_cell_length_c 19.832503
_cell_angle_alpha 90.000000
_cell_angle_beta 90.000000
_cell_angle_gamma 90.000000
_cell_volume 2721.489524
_symmetry_space_group_name_H-M "P B C N"
_symmetry_group_IT_number 60
_symmetry_cell_setting 'orthorhombic'
loop_
_space_group_symop_operation_xyz
x,y,z
1/2-x,1/2-y,1/2+z
1/2+x,1/2-y,-z
-x,y,1/2-z
-x,-y,-z
1/2+x,1/2+y,1/2-z
1/2-x,1/2+y,z
x,-y,1/2+z
loop_
_atom_site_type_symbol
_atom_site_label
_atom_site_fract_x
_atom_site_fract_y
_atom_site_fract_z
Si Si1 0.668491 0.986376 0.438921
Si Si2 0.860813 0.008746 0.287751
Si Si3 0.524579 0.476369 0.411134
Si Si4 0.271065 0.755415 0.650067
Si Si5 0.587680 0.724480 0.507464
Si Si6 0.745698 0.125641 0.574696
Si Si7 0.361705 0.374573 0.860510
O O1 0.663229 0.125703 0.384389
O O2 0.704541 0.065394 0.505930
O O3 0.734481 0.863361 0.405999
O O4 0.590329 0.879043 0.461744
O O5 0.804507 0.140080 0.323425
O O6 0.882838 0.079680 0.215859
O O7 0.935855 0.965455 0.337845
O O8 0.807162 0.849367 0.289394
O O9 0.587804 0.571520 0.459036
O O10 0.490531 0.316904 0.444191
O O11 0.443015 0.585703 0.404381
O O12 0.673255 0.726576 0.550745
O O13 0.676487 0.209212 0.620356
O O14 0.788034 0.989387 0.616696
#
# Coordination Sequence:
#
# PCOD9454646 Si02
#       7
#     8   8   8   8   8   8   8
#     4  11  17  35  60  93 123 152 196 273 314 363
#     4  11  21  41  57  88 120 164 217 250 299 383
#     4  10  22  38  60  88 122 165 201 252 324 371
#     4  10  21  33  65  89 118 162 207 262 314 362
#     4  10  19  36  60  88 125 154 200 258 311 382
#     4  11  20  36  61  93 119 155 206 259 317 360
#     4  11  23  37  62  85 120 167 207 253 304 381
#
# _framework density 20.576967
#
# number of rings (size 3 to 8) (size 9 to 14) (size 15 to 20)
#    0.000    1.429    4.286    2.143    0.000    2.286 
#    0.000    2.857    0.000    0.000   11.143    0.000 
#    0.000    0.000    0.000    0.000    0.000    0.000 
#
# Total GULP energy -312303.055039 kJ/mol
# GULP energy per Si atom -5576.840269 kJ/mol
# Density = 2.053013 g / cm^3
# Si number density = 20.576967 Si / 1000 Ang^3
#
#
#
# Elastic Constant Matrix: (Units=GPa)
#
#
# Indices 1 2 3 4 5 6 
#
# 1 51.2597 14.6377 7.2095 0.0000 0.0000 0.0000
# 2 14.6377 65.3810 8.5375 0.0000 0.0000 0.0000
# 3 7.2095 8.5375 88.7943 0.0000 0.0000 0.0000
# 4 0.0000 0.0000 0.0000 27.2160 0.0000 0.0000
# 5 0.0000 0.0000 0.0000 0.0000 27.6137 0.0000
# 6 0.0000 0.0000 0.0000 0.0000 0.0000 28.8678
#
#
#
# Elastic Compliance Matrix: (Units=1/GPa)
#
#
# Indices 1 2 3 4 5 6 
#
# 1 0.020981 -0.004532 -0.001268 0.000000 0.000000 0.000000
# 2 -0.004532 0.016468 -0.001215 0.000000 0.000000 0.000000
# 3 -0.001268 -0.001215 0.011482 0.000000 0.000000 0.000000
# 4 0.000000 0.000000 0.000000 0.036743 0.000000 0.000000
# 5 0.000000 0.000000 0.000000 0.000000 0.036214 0.000000
# 6 0.000000 0.000000 0.000000 0.000000 0.000000 0.034641
#
#
# Mechanical properties :
#
#
# Convention : Reuss Voigt Hill
#
# Bulk Modulus (GPa) = 28.65246 29.57825 29.11535
# Shear Modulus (GPa) = 27.44357 28.40954 27.92655
#
# Velocity S-wave (km/s) = 3.65595 3.71974 3.68798
# Velocity P-wave (km/s) = 5.63703 5.73186 5.68464
#
# Compressibility (1/GPa) = 0.03490102
#
# Stress axis : x y z
#
# Youngs Moduli (GPa) = 47.66243 60.72293 87.09443
#
# Poissons Ratio (x) = 0.27518 0.11042
# Poissons Ratio (y) = 0.21599 0.10586
# Poissons Ratio (z) = 0.06043 0.07381
#
# Static dielectric constant tensor:
#      x y z
#    x 1.757470 0.000000 0.000000 
#    y 0.000000 1.769490 0.000000 
#    z 0.000000 0.000000 1.756090 
# 
# From -- ./inp_files/22927.got.cif
#   From: 2010.05.17/outbox.cif.g08.bks.cpg/sg60_12_cif.got.tgz:22927.got - 2010.06.03 14:59:27.
