data_PCOD9454851
_publ_section_title
;
Structure prediction by ZEFSAII (Michael W. Deem and Ramdas Pophale) SiO2 
 PCOD9454851
Probable space group: P B C N
;
_chemical_formula_sum "Si O2"
_cell_formula_units_Z 56
_cell_length_a 9.389301
_cell_length_b 21.644404
_cell_length_c 12.709314
_cell_angle_alpha 90.000000
_cell_angle_beta 90.000000
_cell_angle_gamma 90.000000
_cell_volume 2582.860812
_symmetry_space_group_name_H-M "P B C N"
_symmetry_group_IT_number 60
_symmetry_cell_setting 'orthorhombic'
loop_
_space_group_symop_operation_xyz
x,y,z
1/2-x,1/2-y,1/2+z
1/2+x,1/2-y,-z
-x,y,1/2-z
-x,-y,-z
1/2+x,1/2+y,1/2-z
1/2-x,1/2+y,z
x,-y,1/2+z
loop_
_atom_site_type_symbol
_atom_site_label
_atom_site_fract_x
_atom_site_fract_y
_atom_site_fract_z
Si Si1 0.270822 0.399364 0.181796
Si Si2 0.866776 0.182272 0.178898
Si Si3 0.366920 0.912534 0.828131
Si Si4 0.985860 0.571219 0.959592
Si Si5 0.642523 0.713522 0.687948
Si Si6 0.990355 0.118561 0.519890
Si Si7 0.222875 0.959752 0.391355
O O1 0.120990 0.422121 0.137483
O O2 0.278406 0.330150 0.226716
O O3 0.374111 0.403810 0.084189
O O4 0.331653 0.438995 0.277720
O O5 0.750444 0.132578 0.222703
O O6 0.759310 0.237573 0.150168
O O7 0.000000 0.202694 0.250000
O O8 0.948266 0.148141 0.084444
O O9 0.500000 0.925973 0.750000
O O10 0.278529 0.971867 0.869301
O O11 0.435745 0.889489 0.939192
O O12 0.141690 0.583858 0.916263
O O13 0.000000 0.500000 0.000000
O O14 0.500000 0.738066 0.750000
O O15 0.585872 0.671059 0.592057
O O16 0.885925 0.059382 0.517587
#
# Coordination Sequence:
#
# PCOD9454851 Si02
#       7
#     8   8   8   8   8   8   8
#     4  10  19  42  68  96 128 167 228 277 328 390
#     4  12  27  44  62  97 132 176 223 275 345 404
#     4  11  24  43  63  94 142 181 215 270 334 406
#     4  10  20  37  62  98 132 172 220 266 323 399
#     4   9  22  45  69  90 126 172 226 286 329 393
#     4  10  23  43  67  98 130 169 225 279 338 388
#     4  10  21  38  67 100 129 174 220 268 329 405
#
# _framework density 21.681386
#
# number of rings (size 3 to 8) (size 9 to 14) (size 15 to 20)
#    0.000    1.714    1.429    3.857    2.000    6.286 
#    5.143    0.000    0.000    0.000    0.000    0.000 
#    0.000    0.000    0.000    0.000    0.000    0.000 
#
# Total GULP energy -312068.139430 kJ/mol
# GULP energy per Si atom -5572.645347 kJ/mol
# Density = 2.163204 g / cm^3
# Si number density = 21.681386 Si / 1000 Ang^3
#
#
#
# Elastic Constant Matrix: (Units=GPa)
#
#
# Indices 1 2 3 4 5 6 
#
# 1 113.0607 40.7702 19.4871 0.0000 0.0000 0.0000
# 2 40.7702 47.6010 -1.0026 0.0000 0.0000 0.0000
# 3 19.4871 -1.0026 51.8117 0.0000 0.0000 0.0000
# 4 0.0000 0.0000 0.0000 14.4464 0.0000 0.0000
# 5 0.0000 0.0000 0.0000 0.0000 41.9376 0.0000
# 6 0.0000 0.0000 0.0000 0.0000 0.0000 30.3391
#
#
#
# Elastic Compliance Matrix: (Units=1/GPa)
#
#
# Indices 1 2 3 4 5 6 
#
# 1 0.014256 -0.012328 -0.005600 0.000000 0.000000 0.000000
# 2 -0.012328 0.031677 0.005250 0.000000 0.000000 0.000000
# 3 -0.005600 0.005250 0.021509 0.000000 0.000000 0.000000
# 4 0.000000 0.000000 0.000000 0.069221 0.000000 0.000000
# 5 0.000000 0.000000 0.000000 0.000000 0.023845 0.000000
# 6 0.000000 0.000000 0.000000 0.000000 0.000000 0.032961
#
#
# Mechanical properties :
#
#
# Convention : Reuss Voigt Hill
#
# Bulk Modulus (GPa) = 23.76167 36.77587 30.26877
# Shear Modulus (GPa) = 21.47271 27.55920 24.51595
#
# Velocity S-wave (km/s) = 3.15044 3.56912 3.36629
# Velocity P-wave (km/s) = 4.92107 5.82954 5.39447
#
# Compressibility (1/GPa) = 0.04208459
#
# Stress axis : x y z
#
# Youngs Moduli (GPa) = 70.14812 31.56833 46.49305
#
# Poissons Ratio (x) = 0.38917 0.26037
# Poissons Ratio (y) = 0.86477 -0.24407
# Poissons Ratio (z) = 0.39285 -0.16572
#
# Static dielectric constant tensor:
#      x y z
#    x 1.749880 0.000000 0.000000 
#    y 0.000000 1.862410 0.000000 
#    z 0.000000 0.000000 1.749700 
# 
# From -- ./inp_files/15261.got.cif
#   From: 2010.05.17/outbox.cif.g08.bks.cpg/sg60_8_cif.got.tgz:15261.got - 2010.06.03 14:59:27.
