data_PCOD9454754
_publ_section_title
;
Structure prediction by ZEFSAII (Michael W. Deem and Ramdas Pophale) SiO2 
 PCOD9454754
Probable space group: P B C N
;
_chemical_formula_sum "Si O2"
_cell_formula_units_Z 48
_cell_length_a 13.765511
_cell_length_b 12.679600
_cell_length_c 12.391230
_cell_angle_alpha 90.000000
_cell_angle_beta 90.000000
_cell_angle_gamma 90.000000
_cell_volume 2162.779823
_symmetry_space_group_name_H-M "P B C N"
_symmetry_group_IT_number 60
_symmetry_cell_setting 'orthorhombic'
loop_
_space_group_symop_operation_xyz
x,y,z
1/2-x,1/2-y,1/2+z
1/2+x,1/2-y,-z
-x,y,1/2-z
-x,-y,-z
1/2+x,1/2+y,1/2-z
1/2-x,1/2+y,z
x,-y,1/2+z
loop_
_atom_site_type_symbol
_atom_site_label
_atom_site_fract_x
_atom_site_fract_y
_atom_site_fract_z
Si Si1 0.926775 0.620289 0.844686
Si Si2 0.648036 0.218496 0.255557
Si Si3 0.635923 0.649907 0.264839
Si Si4 0.495710 0.816935 0.566504
Si Si5 0.295535 0.564512 0.640004
Si Si6 0.565137 0.598040 0.034794
O O1 0.904727 0.744259 0.819741
O O2 0.820041 0.568438 0.843370
O O3 0.000000 0.582855 0.750000
O O4 0.976660 0.613779 0.962386
O O5 0.755816 0.182877 0.229282
O O6 0.601314 0.163290 0.362303
O O7 0.580012 0.191745 0.155155
O O8 0.656484 0.343212 0.285694
O O9 0.656119 0.547513 0.336031
O O10 0.575406 0.613829 0.161470
O O11 0.480715 0.701217 0.517629
O O12 0.327753 0.589581 0.518060
O O13 0.500000 0.500000 0.000000
#
# Coordination Sequence:
#
# PCOD9454754 Si02
#       6
#     8   8   8   8   8   8
#     4  11  22  41  63  89 124 171 209 260 317 381
#     4   9  21  39  61  86 124 164 202 258 315 372
#     4  11  22  40  59  92 126 164 209 258 320 375
#     4  10  19  38  61  86 117 161 208 252 311 378
#     4  10  23  38  58  93 125 159 213 260 318 372
#     4  11  21  35  63  94 123 159 210 272 315 371
#
# _framework density 22.193660000000001
#
# number of rings (size 3 to 8) (size 9 to 14) (size 15 to 20)
#    0.000    1.667    1.667    3.000    0.000    1.333 
#    6.000    0.833    0.000    0.000    0.000    0.000 
#    0.000    0.000    0.000    0.000    0.000    0.000 
#
# Total GULP energy -268232.148601 kJ/mol
# GULP energy per Si atom -5588.169763 kJ/mol
# Density = 2.214315 g / cm^3
# Si number density = 22.193660 Si / 1000 Ang^3
#
#
#
# Elastic Constant Matrix: (Units=GPa)
#
#
# Indices 1 2 3 4 5 6 
#
# 1 120.1531 17.3079 46.7591 0.0000 0.0000 0.0000
# 2 17.3079 70.5036 35.0325 0.0000 0.0000 0.0000
# 3 46.7591 35.0325 132.2048 0.0000 0.0000 0.0000
# 4 0.0000 0.0000 0.0000 8.4958 0.0000 0.0000
# 5 0.0000 0.0000 0.0000 0.0000 36.4244 0.0000
# 6 0.0000 0.0000 0.0000 0.0000 0.0000 23.2852
#
#
#
# Elastic Compliance Matrix: (Units=1/GPa)
#
#
# Indices 1 2 3 4 5 6 
#
# 1 0.009688 -0.000778 -0.003220 0.000000 0.000000 0.000000
# 2 -0.000778 0.016397 -0.004070 0.000000 0.000000 0.000000
# 3 -0.003220 -0.004070 0.009781 0.000000 0.000000 0.000000
# 4 0.000000 0.000000 0.000000 0.117705 0.000000 0.000000
# 5 0.000000 0.000000 0.000000 0.000000 0.027454 0.000000
# 6 0.000000 0.000000 0.000000 0.000000 0.000000 0.042946
#
#
# Mechanical properties :
#
#
# Convention : Reuss Voigt Hill
#
# Bulk Modulus (GPa) = 50.68444 57.89563 54.29004
# Shear Modulus (GPa) = 20.26880 28.55854 24.41367
#
# Velocity S-wave (km/s) = 3.02531 3.59107 3.32027
# Velocity P-wave (km/s) = 5.92371 6.58313 6.26210
#
# Compressibility (1/GPa) = 0.01972992
#
# Stress axis : x y z
#
# Youngs Moduli (GPa) = 103.22006 60.98709 102.23449
#
# Poissons Ratio (x) = 0.04746 0.32923
# Poissons Ratio (y) = 0.08032 0.41607
# Poissons Ratio (z) = 0.33240 0.24820
#
# Static dielectric constant tensor:
#      x y z
#    x 1.828500 0.000000 0.000000 
#    y 0.000000 1.826360 0.000000 
#    z 0.000000 0.000000 1.825920 
# 
# From -- ./inp_files/11893.got.cif
#   From: 2010.05.17/outbox.cif.g08.bks.cpg/sg60_6_cif.got.tgz:11893.got - 2010.06.03 14:59:27.
