data_PCOD9454546
_publ_section_title
;
Structure prediction by ZEFSAII (Michael W. Deem and Ramdas Pophale) SiO2 
 PCOD9454546
Probable space group: P B C N
;
_chemical_formula_sum "Si O2"
_cell_formula_units_Z 36
_cell_length_a 13.444510
_cell_length_b 13.069851
_cell_length_c 8.874638
_cell_angle_alpha 90.000000
_cell_angle_beta 90.000000
_cell_angle_gamma 90.000000
_cell_volume 1559.431355
_symmetry_space_group_name_H-M "P B C N"
_symmetry_group_IT_number 60
_symmetry_cell_setting 'orthorhombic'
loop_
_space_group_symop_operation_xyz
x,y,z
1/2-x,1/2-y,1/2+z
1/2+x,1/2-y,-z
-x,y,1/2-z
-x,-y,-z
1/2+x,1/2+y,1/2-z
1/2-x,1/2+y,z
x,-y,1/2+z
loop_
_atom_site_type_symbol
_atom_site_label
_atom_site_fract_x
_atom_site_fract_y
_atom_site_fract_z
Si Si1 0.500000 0.490827 0.750000
Si Si2 0.403623 0.306149 0.585170
Si Si3 0.931926 0.309106 0.885577
Si Si4 0.607547 0.118566 0.693691
Si Si5 0.181350 0.860723 0.297579
O O1 0.444805 0.414768 0.636381
O O2 0.411485 0.562915 0.804744
O O3 0.490776 0.255381 0.486721
O O4 0.386163 0.233324 0.729971
O O5 0.313721 0.314554 0.466773
O O6 0.852149 0.231177 0.813275
O O7 0.000000 0.351295 0.750000
O O8 0.893654 0.386345 0.012226
O O9 0.500000 0.080044 0.750000
O O10 0.716762 0.080648 0.742993
#
# Coordination Sequence:
#
# PCOD9454546 Si02
#       5
#     4   8   8   8   8
#     4  12  20  34  60  88 116 148 186 248 284 332
#     4  10  19  35  55  82 115 146 188 236 282 331
#     4   9  17  33  53  80 109 145 187 232 279 332
#     4  10  20  36  55  80 115 154 187 229 279 345
#     4  11  21  31  55  87 116 143 191 237 286 326
#
# _framework density 23.085338
#
# number of rings (size 3 to 8) (size 9 to 14) (size 15 to 20)
#    0.000    1.778    6.667    2.000    0.000    0.000 
#    0.000    0.000    0.000    1.333    2.889    0.000 
#    0.000    0.000    0.000    0.000    0.000    0.000 
#
# Total GULP energy -200564.593612 kJ/mol
# GULP energy per Si atom -5571.238711 kJ/mol
# Density = 2.303279 g / cm^3
# Si number density = 23.085338 Si / 1000 Ang^3
#
#
#
# Elastic Constant Matrix: (Units=GPa)
#
#
# Indices 1 2 3 4 5 6 
#
# 1 110.6312 -12.4911 23.0917 0.0000 0.0000 0.0000
# 2 -12.4911 42.4653 12.9655 0.0000 0.0000 0.0000
# 3 23.0917 12.9655 130.5708 0.0000 0.0000 0.0000
# 4 0.0000 0.0000 0.0000 0.3191 0.0000 0.0000
# 5 0.0000 0.0000 0.0000 0.0000 21.8738 0.0000
# 6 0.0000 0.0000 0.0000 0.0000 0.0000 -7.4145
#
#
#
# Elastic Compliance Matrix: (Units=1/GPa)
#
#
# Indices 1 2 3 4 5 6 
#
# 1 0.009878 0.003546 -0.002099 0.000000 0.000000 0.000000
# 2 0.003546 0.025558 -0.003165 0.000000 0.000000 0.000000
# 3 -0.002099 -0.003165 0.008344 0.000000 0.000000 0.000000
# 4 0.000000 0.000000 0.000000 3.133656 0.000000 0.000000
# 5 0.000000 0.000000 0.000000 0.000000 0.045717 0.000000
# 6 0.000000 0.000000 0.000000 0.000000 0.000000 -0.134871
#
#
# Mechanical properties :
#
#
# Convention : Reuss Voigt Hill
#
# Bulk Modulus (GPa) = 24.78657 36.75550 30.77104
# Shear Modulus (GPa) = 1.61022 20.29575 10.95299
#
# Velocity S-wave (km/s) = 0.83608 2.96828 2.18057
# Velocity P-wave (km/s) = 3.41940 5.26344 4.43824
#
# Compressibility (1/GPa) = 0.04034443
#
# Stress axis : x y z
#
# Youngs Moduli (GPa) = 101.23948 39.12644 119.84391
#
# Poissons Ratio (x) = -0.13876 0.25155
# Poissons Ratio (y) = -0.35903 0.37932
# Poissons Ratio (z) = 0.21250 0.12384
#
# Static dielectric constant tensor:
#      x y z
#    x 1.948950 0.000000 0.000000 
#    y 0.000000 1.901580 0.000000 
#    z 0.000000 0.000000 1.951320 
# 
# From -- ./inp_files/5757.got.cif
#   From: 2010.05.17/outbox.cif.g08.bks.cpg/sg60_3_cif.got.tgz:5757.got - 2010.06.03 14:59:27.
