data_PCOD9454874
_publ_section_title
;
Structure prediction by ZEFSAII (Michael W. Deem and Ramdas Pophale) SiO2 
 PCOD9454874
Probable space group: P B C N
;
_chemical_formula_sum "Si O2"
_cell_formula_units_Z 28
_cell_length_a 12.711623
_cell_length_b 22.451065
_cell_length_c 5.196852
_cell_angle_alpha 90.000000
_cell_angle_beta 90.000000
_cell_angle_gamma 90.000000
_cell_volume 1483.126860
_symmetry_space_group_name_H-M "P B C N"
_symmetry_group_IT_number 60
_symmetry_cell_setting 'orthorhombic'
loop_
_space_group_symop_operation_xyz
x,y,z
1/2-x,1/2-y,1/2+z
1/2+x,1/2-y,-z
-x,y,1/2-z
-x,-y,-z
1/2+x,1/2+y,1/2-z
1/2-x,1/2+y,z
x,-y,1/2+z
loop_
_atom_site_type_symbol
_atom_site_label
_atom_site_fract_x
_atom_site_fract_y
_atom_site_fract_z
Si Si1 0.000000 0.750151 0.750000
Si Si2 0.225492 0.214697 0.201090
Si Si3 0.374586 0.031488 0.737688
Si Si4 0.907758 0.643370 0.080125
O O1 0.896551 0.790335 0.719474
O O2 0.035959 0.702850 0.530902
O O3 0.263431 0.265750 0.404493
O O4 0.306297 0.161925 0.257114
O O5 0.500000 0.022198 0.750000
O O6 0.368382 0.099678 0.643994
O O7 0.331180 0.989141 0.511078
O O8 0.000000 0.613693 0.250000
#
# Coordination Sequence:
#
# PCOD9454874 Si02
#       4
#     4   8   8   8
#     4  10  20  34  48  72 104 132 164 208 234 304
#     4  10  21  33  49  72  97 134 169 199 244 294
#     4  10  20  31  46  71 100 129 162 199 246 302
#     4  11  19  32  50  72 101 136 157 206 246 300
#
# _framework density 18.879033
#
# number of rings (size 3 to 8) (size 9 to 14) (size 15 to 20)
#    0.000    1.714    4.286    2.571    0.000    0.000 
#    0.000    0.000    0.000    0.000    0.000    2.000 
#    0.000    0.000    0.000    4.571    0.000    0.000 
#
# Total GULP energy -155972.834372 kJ/mol
# GULP energy per Si atom -5570.458370 kJ/mol
# Density = 1.883606 g / cm^3
# Si number density = 18.879033 Si / 1000 Ang^3
#
#
#
# Elastic Constant Matrix: (Units=GPa)
#
#
# Indices 1 2 3 4 5 6 
#
# 1 98.7663 20.3857 -12.9533 0.0000 0.0000 0.0000
# 2 20.3857 56.7185 14.9593 0.0000 0.0000 0.0000
# 3 -12.9533 14.9593 62.9773 0.0000 0.0000 0.0000
# 4 0.0000 0.0000 0.0000 22.0081 0.0000 0.0000
# 5 0.0000 0.0000 0.0000 0.0000 17.7866 0.0000
# 6 0.0000 0.0000 0.0000 0.0000 0.0000 4.7804
#
#
#
# Elastic Compliance Matrix: (Units=1/GPa)
#
#
# Indices 1 2 3 4 5 6 
#
# 1 0.011662 -0.005147 0.003621 0.000000 0.000000 0.000000
# 2 -0.005147 0.021081 -0.006066 0.000000 0.000000 0.000000
# 3 0.003621 -0.006066 0.018064 0.000000 0.000000 0.000000
# 4 0.000000 0.000000 0.000000 0.045438 0.000000 0.000000
# 5 0.000000 0.000000 0.000000 0.000000 0.056222 0.000000
# 6 0.000000 0.000000 0.000000 0.000000 0.000000 0.209187
#
#
# Mechanical properties :
#
#
# Convention : Reuss Voigt Hill
#
# Bulk Modulus (GPa) = 28.07070 29.24949 28.66010
# Shear Modulus (GPa) = 12.86300 21.98639 17.42470
#
# Velocity S-wave (km/s) = 2.61308 3.41632 3.04133
# Velocity P-wave (km/s) = 4.89951 5.57569 5.24850
#
# Compressibility (1/GPa) = 0.03562433
#
# Stress axis : x y z
#
# Youngs Moduli (GPa) = 85.74772 47.43693 55.35744
#
# Poissons Ratio (x) = 0.24414 -0.20046
# Poissons Ratio (y) = 0.44131 0.33580
# Poissons Ratio (z) = -0.31051 0.28775
#
# Static dielectric constant tensor:
#      x y z
#    x 1.660240 0.000000 0.000000 
#    y 0.000000 1.705820 0.000000 
#    z 0.000000 0.000000 1.767480 
# 
# From -- ./inp_files/614.got.cif
#   From: 2010.05.17/outbox.cif.g08.bks.cpg/sg60_1_cif.got.tgz:614.got - 2010.06.03 14:59:27.
