data_PCOD9454541
_publ_section_title
;
Structure prediction by ZEFSAII (Michael W. Deem and Ramdas Pophale) SiO2 
 PCOD9454541
Probable space group: P B C N
;
_chemical_formula_sum "Si O2"
_cell_formula_units_Z 56
_cell_length_a 8.580047
_cell_length_b 17.824530
_cell_length_c 14.620287
_cell_angle_alpha 90.000000
_cell_angle_beta 90.000000
_cell_angle_gamma 90.000000
_cell_volume 2235.958054
_symmetry_space_group_name_H-M "P B C N"
_symmetry_group_IT_number 60
_symmetry_cell_setting 'orthorhombic'
loop_
_space_group_symop_operation_xyz
x,y,z
1/2-x,1/2-y,1/2+z
1/2+x,1/2-y,-z
-x,y,1/2-z
-x,-y,-z
1/2+x,1/2+y,1/2-z
1/2-x,1/2+y,z
x,-y,1/2+z
loop_
_atom_site_type_symbol
_atom_site_label
_atom_site_fract_x
_atom_site_fract_y
_atom_site_fract_z
Si Si1 0.663151 0.625390 0.917073
Si Si2 0.454927 0.707538 0.059056
Si Si3 0.162326 0.491092 0.633739
Si Si4 0.687223 0.827509 0.082091
Si Si5 0.992408 0.013088 0.392541
Si Si6 0.660960 0.223695 0.774285
Si Si7 0.173972 0.496833 0.347497
O O1 0.308737 0.691204 0.996329
O O2 0.538348 0.573266 0.862021
O O3 0.724371 0.686849 0.847156
O O4 0.589117 0.657755 0.009751
O O5 0.500000 0.821270 0.250000
O O6 0.523112 0.791979 0.051131
O O7 0.409341 0.706872 0.166700
O O8 0.326387 0.446403 0.623881
O O9 0.200368 0.563331 0.570771
O O10 0.986581 0.463146 0.620439
O O11 0.163631 0.516596 0.739093
O O12 0.734482 0.779318 0.173511
O O13 0.682070 0.916013 0.102551
O O14 0.159728 0.037841 0.358549
O O15 0.000000 0.000000 0.500000
#
# Coordination Sequence:
#
# PCOD9454541 Si02
#       7
#     8   8   8   8   8   8   8
#     4  10  19  35  53  81 115 146 192 229 283 336
#     4  11  21  31  51  85 114 154 189 221 283 342
#     4   9  20  33  60  84 107 140 188 230 295 321
#     4  11  20  33  53  81 119 147 189 235 281 327
#     4  10  22  35  53  84 112 138 180 231 289 340
#     4  10  20  34  53  79 116 146 185 237 282 323
#     4  11  19  35  60  83 111 143 177 248 283 321
#
# _framework density 25.045193000000001
#
# number of rings (size 3 to 8) (size 9 to 14) (size 15 to 20)
#    0.857    0.857    4.286    2.143    2.000    2.286 
#    0.000    0.000    0.000    5.143    0.000    0.000 
#    0.000    0.000    0.000    0.000    0.000    0.000 
#
# Total GULP energy -311745.495062 kJ/mol
# GULP energy per Si atom -5566.883840 kJ/mol
# Density = 2.498819 g / cm^3
# Si number density = 25.045193 Si / 1000 Ang^3
#
#
#
# Elastic Constant Matrix: (Units=GPa)
#
#
# Indices 1 2 3 4 5 6 
#
# 1 186.4591 15.5586 42.3236 0.0000 0.0000 0.0000
# 2 15.5586 51.6322 5.0748 0.0000 0.0000 0.0000
# 3 42.3236 5.0748 123.7555 0.0000 0.0000 0.0000
# 4 0.0000 0.0000 0.0000 23.7533 0.0000 0.0000
# 5 0.0000 0.0000 0.0000 0.0000 44.0844 0.0000
# 6 0.0000 0.0000 0.0000 0.0000 0.0000 1.1570
#
#
#
# Elastic Compliance Matrix: (Units=1/GPa)
#
#
# Indices 1 2 3 4 5 6 
#
# 1 0.005943 -0.001597 -0.001967 0.000000 0.000000 0.000000
# 2 -0.001597 0.019876 -0.000269 0.000000 0.000000 0.000000
# 3 -0.001967 -0.000269 0.008764 0.000000 0.000000 0.000000
# 4 0.000000 0.000000 0.000000 0.042099 0.000000 0.000000
# 5 0.000000 0.000000 0.000000 0.000000 0.022684 0.000000
# 6 0.000000 0.000000 0.000000 0.000000 0.000000 0.864322
#
#
# Mechanical properties :
#
#
# Convention : Reuss Voigt Hill
#
# Bulk Modulus (GPa) = 37.15213 54.19566 45.67390
# Shear Modulus (GPa) = 5.10035 33.72493 19.41264
#
# Velocity S-wave (km/s) = 1.42859 3.67354 2.78709
# Velocity P-wave (km/s) = 4.19373 6.29915 5.35101
#
# Compressibility (1/GPa) = 0.02691635
#
# Stress axis : x y z
#
# Youngs Moduli (GPa) = 168.26894 50.31313 114.10130
#
# Poissons Ratio (x) = 0.08037 0.22443
# Poissons Ratio (y) = 0.26881 0.03066
# Poissons Ratio (z) = 0.33097 0.01352
#
# Static dielectric constant tensor:
#      x y z
#    x 2.120480 0.000000 0.000000 
#    y 0.000000 2.044150 0.000000 
#    z 0.000000 0.000000 1.989340 
# 
# From -- ./inp_files/11340.got.cif
#   From: 2010.05.17/outbox.cif.g08.bks.cpg/sg60_6_cif.got.tgz:11340.got - 2010.06.03 14:59:27.
