data_PCOD9454815
_publ_section_title
;
Structure prediction by ZEFSAII (Michael W. Deem and Ramdas Pophale) SiO2 
 PCOD9454815
Probable space group: P B C N
;
_chemical_formula_sum "Si O2"
_cell_formula_units_Z 60
_cell_length_a 8.556728
_cell_length_b 20.397011
_cell_length_c 15.575515
_cell_angle_alpha 90.000000
_cell_angle_beta 90.000000
_cell_angle_gamma 90.000000
_cell_volume 2718.420724
_symmetry_space_group_name_H-M "P B C N"
_symmetry_group_IT_number 60
_symmetry_cell_setting 'orthorhombic'
loop_
_space_group_symop_operation_xyz
x,y,z
1/2-x,1/2-y,1/2+z
1/2+x,1/2-y,-z
-x,y,1/2-z
-x,-y,-z
1/2+x,1/2+y,1/2-z
1/2-x,1/2+y,z
x,-y,1/2+z
loop_
_atom_site_type_symbol
_atom_site_label
_atom_site_fract_x
_atom_site_fract_y
_atom_site_fract_z
Si Si1 0.938327 0.512718 0.097521
Si Si2 0.172993 0.017355 0.524769
Si Si3 0.892099 0.196328 0.097718
Si Si4 0.500000 0.210278 0.750000
Si Si5 0.097773 0.356586 0.672883
Si Si6 0.616211 0.887819 0.377549
Si Si7 0.458717 0.208876 0.474462
Si Si8 0.588111 0.419753 0.831576
O O1 0.998596 0.578917 0.141554
O O2 0.006742 0.449873 0.145953
O O3 0.759812 0.513707 0.067777
O O4 0.000000 0.500000 0.000000
O O5 0.230097 0.082477 0.575406
O O6 0.187664 0.963556 0.601551
O O7 0.000000 0.000000 0.500000
O O8 0.712223 0.201941 0.068128
O O9 0.921022 0.243893 0.178824
O O10 0.960210 0.125424 0.121545
O O11 0.001788 0.223776 0.021168
O O12 0.377031 0.162323 0.701277
O O13 0.271613 0.373479 0.702169
O O14 0.000000 0.327048 0.750000
O O15 0.092411 0.307180 0.594057
O O16 0.532509 0.847143 0.452997
O O17 0.500000 0.451964 0.750000
#
# Coordination Sequence:
#
# PCOD9454815 Si02
#       8
#     8   8   8   4   8   8   8   8
#     4  10  19  40  62  92 127 171 225 256 336 415
#     4  11  22  39  67  96 135 172 216 281 340 409
#     4  11  24  44  68  96 131 180 231 281 341 405
#     4  10  24  42  70  90 136 180 232 280 334 414
#     4  12  24  38  67  98 132 175 222 285 338 408
#     4  10  20  42  68  95 125 174 228 273 340 408
#     4  11  22  43  70  92 128 176 231 279 337 411
#     4  12  24  40  63  99 138 171 220 279 342 405
#
# _framework density 22.071639000000001
#
# number of rings (size 3 to 8) (size 9 to 14) (size 15 to 20)
#    0.000    1.067    6.000    2.400    2.800    1.067 
#    0.000    0.000    0.000    0.000    0.000    0.000 
#    0.000    0.000    0.000    0.000    0.000    0.000 
#
# Total GULP energy -334513.756091 kJ/mol
# GULP energy per Si atom -5575.229268 kJ/mol
# Density = 2.202140 g / cm^3
# Si number density = 22.071639 Si / 1000 Ang^3
#
#
#
# Elastic Constant Matrix: (Units=GPa)
#
#
# Indices 1 2 3 4 5 6 
#
# 1 93.9054 -6.3367 4.6761 0.0000 0.0000 0.0000
# 2 -6.3367 75.1324 24.5021 0.0000 0.0000 0.0000
# 3 4.6761 24.5021 80.5114 0.0000 0.0000 0.0000
# 4 0.0000 0.0000 0.0000 29.4440 0.0000 0.0000
# 5 0.0000 0.0000 0.0000 0.0000 36.0397 0.0000
# 6 0.0000 0.0000 0.0000 0.0000 0.0000 25.9285
#
#
#
# Elastic Compliance Matrix: (Units=1/GPa)
#
#
# Indices 1 2 3 4 5 6 
#
# 1 0.010782 0.001236 -0.001002 0.000000 0.000000 0.000000
# 2 0.001236 0.014918 -0.004612 0.000000 0.000000 0.000000
# 3 -0.001002 -0.004612 0.013882 0.000000 0.000000 0.000000
# 4 0.000000 0.000000 0.000000 0.033963 0.000000 0.000000
# 5 0.000000 0.000000 0.000000 0.000000 0.027747 0.000000
# 6 0.000000 0.000000 0.000000 0.000000 0.000000 0.038568
#
#
# Mechanical properties :
#
#
# Convention : Reuss Voigt Hill
#
# Bulk Modulus (GPa) = 32.43930 32.80357 32.62143
# Shear Modulus (GPa) = 31.46793 33.39630 32.43212
#
# Velocity S-wave (km/s) = 3.77996 3.89406 3.83744
# Velocity P-wave (km/s) = 5.81206 5.92561 5.86911
#
# Compressibility (1/GPa) = 0.03082680
#
# Stress axis : x y z
#
# Youngs Moduli (GPa) = 92.74407 67.03259 72.03388
#
# Poissons Ratio (x) = -0.08287 0.07221
# Poissons Ratio (y) = -0.11466 0.33221
# Poissons Ratio (z) = 0.09298 0.30914
#
# Static dielectric constant tensor:
#      x y z
#    x 2.397060 0.000000 0.000000 
#    y 0.000000 1.870840 0.000000 
#    z 0.000000 0.000000 3.563530 
# 
# From -- ./inp_files/15374.got.cif
#   From: 2010.05.17/outbox.cif.g08.bks.cpg/sg60_8_cif.got.tgz:15374.got - 2010.06.03 14:59:27.
