data_PCOD9454065
_publ_section_title
;
Structure prediction by ZEFSAII (Michael W. Deem and Ramdas Pophale) SiO2 
 PCOD9454065
Probable space group: P B C N
;
_chemical_formula_sum "Si O2"
_cell_formula_units_Z 48
_cell_length_a 11.925779
_cell_length_b 8.157063
_cell_length_c 22.778888
_cell_angle_alpha 90.000000
_cell_angle_beta 90.000000
_cell_angle_gamma 90.000000
_cell_volume 2215.914977
_symmetry_space_group_name_H-M "P B C N"
_symmetry_group_IT_number 60
_symmetry_cell_setting 'orthorhombic'
loop_
_space_group_symop_operation_xyz
x,y,z
1/2-x,1/2-y,1/2+z
1/2+x,1/2-y,-z
-x,y,1/2-z
-x,-y,-z
1/2+x,1/2+y,1/2-z
1/2-x,1/2+y,z
x,-y,1/2+z
loop_
_atom_site_type_symbol
_atom_site_label
_atom_site_fract_x
_atom_site_fract_y
_atom_site_fract_z
Si Si1 0.249621 0.463893 0.447231
Si Si2 0.846895 0.106795 0.426117
Si Si3 0.466245 0.811912 0.483982
Si Si4 0.774552 0.152937 0.844810
Si Si5 0.422150 0.915615 0.695447
Si Si6 0.579994 0.755871 0.597073
O O1 0.305205 0.472389 0.512441
O O2 0.156642 0.321542 0.458507
O O3 0.172070 0.611567 0.425409
O O4 0.343695 0.407320 0.400603
O O5 0.752744 0.228001 0.399517
O O6 0.951677 0.222362 0.439175
O O7 0.857577 0.981751 0.372192
O O8 0.492111 0.722261 0.544723
O O9 0.500000 0.000000 0.500000
O O10 0.835055 0.263575 0.795985
O O11 0.659577 0.063361 0.825132
O O12 0.500000 0.960016 0.750000
O O13 0.509021 0.842724 0.647521
#
# Coordination Sequence:
#
# PCOD9454065 Si02
#       6
#     8   8   8   8   8   8
#     4  10  19  32  54  88 127 160 193 245 304 362
#     4  10  18  33  59  88 121 163 201 237 306 389
#     4   9  16  29  50  81 121 161 194 235 294 364
#     4  10  21  40  63  87 117 158 202 249 307 378
#     4  11  25  45  65  87 117 159 213 266 309 356
#     4  10  21  35  55  85 123 161 202 250 301 359
#
# _framework density 21.661479
#
# number of rings (size 3 to 8) (size 9 to 14) (size 15 to 20)
#    0.000    2.000    0.000    7.000    0.000    2.667 
#    0.000    7.500    0.000    0.000    0.000    0.000 
#    0.000    0.000    0.000    0.000    0.000    0.000 
#
# Total GULP energy -267573.690494 kJ/mol
# GULP energy per Si atom -5574.451885 kJ/mol
# Density = 2.161218 g / cm^3
# Si number density = 21.661479 Si / 1000 Ang^3
#
#
#
# Elastic Constant Matrix: (Units=GPa)
#
#
# Indices 1 2 3 4 5 6 
#
# 1 112.7872 31.9986 27.9103 0.0000 0.0000 0.0000
# 2 31.9986 67.9017 10.9177 0.0000 0.0000 0.0000
# 3 27.9103 10.9177 45.5863 0.0000 0.0000 0.0000
# 4 0.0000 0.0000 0.0000 17.1557 0.0000 0.0000
# 5 0.0000 0.0000 0.0000 0.0000 41.8848 0.0000
# 6 0.0000 0.0000 0.0000 0.0000 0.0000 50.5287
#
#
#
# Elastic Compliance Matrix: (Units=1/GPa)
#
#
# Indices 1 2 3 4 5 6 
#
# 1 0.011644 -0.004515 -0.006048 0.000000 0.000000 0.000000
# 2 -0.004515 0.017068 -0.001323 0.000000 0.000000 0.000000
# 3 -0.006048 -0.001323 0.025956 0.000000 0.000000 0.000000
# 4 0.000000 0.000000 0.000000 0.058290 0.000000 0.000000
# 5 0.000000 0.000000 0.000000 0.000000 0.023875 0.000000
# 6 0.000000 0.000000 0.000000 0.000000 0.000000 0.019791
#
#
# Mechanical properties :
#
#
# Convention : Reuss Voigt Hill
#
# Bulk Modulus (GPa) = 32.36694 40.88091 36.62393
# Shear Modulus (GPa) = 26.22023 32.27710 29.24866
#
# Velocity S-wave (km/s) = 3.48293 3.86433 3.67858
# Velocity P-wave (km/s) = 5.58113 6.23092 5.91495
#
# Compressibility (1/GPa) = 0.03089572
#
# Stress axis : x y z
#
# Youngs Moduli (GPa) = 85.88379 58.59087 38.52668
#
# Poissons Ratio (x) = 0.26452 0.23299
# Poissons Ratio (y) = 0.38774 0.05099
# Poissons Ratio (z) = 0.51939 0.07754
#
# Static dielectric constant tensor:
#      x y z
#    x 1.835840 0.000000 0.000000 
#    y 0.000000 2.110040 0.000000 
#    z 0.000000 0.000000 1.906500 
# 
# From -- ./inp_files/24222.got.cif
#   From: 2010.05.17/outbox.cif.g08.bks.cpg/sg60_13_cif.got.tgz:24222.got - 2010.06.03 14:59:27.
