data_PCOD9454222
_publ_section_title
;
Structure prediction by ZEFSAII (Michael W. Deem and Ramdas Pophale) SiO2 
 PCOD9454222
Probable space group: P B C N
;
_chemical_formula_sum "Si O2"
_cell_formula_units_Z 64
_cell_length_a 11.754028
_cell_length_b 18.489439
_cell_length_c 13.895670
_cell_angle_alpha 90.000000
_cell_angle_beta 90.000000
_cell_angle_gamma 90.000000
_cell_volume 3019.881815
_symmetry_space_group_name_H-M "P B C N"
_symmetry_group_IT_number 60
_symmetry_cell_setting 'orthorhombic'
loop_
_space_group_symop_operation_xyz
x,y,z
1/2-x,1/2-y,1/2+z
1/2+x,1/2-y,-z
-x,y,1/2-z
-x,-y,-z
1/2+x,1/2+y,1/2-z
1/2-x,1/2+y,z
x,-y,1/2+z
loop_
_atom_site_type_symbol
_atom_site_label
_atom_site_fract_x
_atom_site_fract_y
_atom_site_fract_z
Si Si1 0.375997 0.652813 0.135907
Si Si2 0.948336 0.361789 0.909304
Si Si3 0.170128 0.449770 0.912118
Si Si4 0.353685 0.659394 0.358030
Si Si5 0.294724 0.260814 0.054511
Si Si6 0.923301 0.396757 0.128105
Si Si7 0.724141 0.979118 0.879958
Si Si8 0.184905 0.624334 0.692838
O O1 0.338834 0.677005 0.244405
O O2 0.510672 0.655618 0.129286
O O3 0.310356 0.704981 0.062626
O O4 0.332639 0.572064 0.115059
O O5 0.902594 0.280921 0.896789
O O6 0.875922 0.422256 0.852005
O O7 0.079325 0.383950 0.905871
O O8 0.909237 0.375126 0.018924
O O9 0.286569 0.416469 0.872653
O O10 0.108719 0.518715 0.863938
O O11 0.192036 0.479859 0.020369
O O12 0.313816 0.710300 0.446555
O O13 0.256875 0.325826 0.123679
O O14 0.839931 0.352844 0.198009
O O15 0.054842 0.383761 0.154096
O O16 0.738510 0.044832 0.807749
#
# Coordination Sequence:
#
# PCOD9454222 Si02
#       8
#     8   8   8   8   8   8   8   8
#     4  10  26  44  63  99 130 181 231 269 348 419
#     4  10  20  37  61  92 132 168 217 273 344 391
#     4  11  19  39  66 101 125 172 221 285 348 390
#     4  11  24  42  68  88 135 183 226 275 340 420
#     4  11  25  40  63  94 136 178 223 283 332 414
#     4  10  20  32  65  91 130 159 224 283 322 395
#     4  10  18  39  61  94 130 159 221 279 324 404
#     4  11  20  35  59  99 122 169 219 273 334 393
#
# _framework density 21.192881
#
# number of rings (size 3 to 8) (size 9 to 14) (size 15 to 20)
#    0.000    1.500    3.750    1.500    5.250    1.500 
#    0.000    0.000    0.000    0.000    3.250    0.000 
#    0.000    0.000    0.000    0.000    0.000    0.000 
#
# Total GULP energy -357078.271311 kJ/mol
# GULP energy per Si atom -5579.347989 kJ/mol
# Density = 2.114464 g / cm^3
# Si number density = 21.192881 Si / 1000 Ang^3
#
#
#
# Elastic Constant Matrix: (Units=GPa)
#
#
# Indices 1 2 3 4 5 6 
#
# 1 85.8061 36.6540 46.6868 0.0000 0.0000 0.0000
# 2 36.6540 103.6618 34.9859 0.0000 0.0000 0.0000
# 3 46.6868 34.9859 68.1086 0.0000 0.0000 0.0000
# 4 0.0000 0.0000 0.0000 16.7726 0.0000 0.0000
# 5 0.0000 0.0000 0.0000 0.0000 28.1726 0.0000
# 6 0.0000 0.0000 0.0000 0.0000 0.0000 28.1278
#
#
#
# Elastic Compliance Matrix: (Units=1/GPa)
#
#
# Indices 1 2 3 4 5 6 
#
# 1 0.019257 -0.002848 -0.011737 0.000000 0.000000 0.000000
# 2 -0.002848 0.012091 -0.004259 0.000000 0.000000 0.000000
# 3 -0.011737 -0.004259 0.024916 0.000000 0.000000 0.000000
# 4 0.000000 0.000000 0.000000 0.059621 0.000000 0.000000
# 5 0.000000 0.000000 0.000000 0.000000 0.035495 0.000000
# 6 0.000000 0.000000 0.000000 0.000000 0.000000 0.035552
#
#
# Mechanical properties :
#
#
# Convention : Reuss Voigt Hill
#
# Bulk Modulus (GPa) = 53.83323 54.91445 54.37384
# Shear Modulus (GPa) = 21.66265 23.89793 22.78029
#
# Velocity S-wave (km/s) = 3.20060 3.36168 3.28213
# Velocity P-wave (km/s) = 6.25421 6.40592 6.33052
#
# Compressibility (1/GPa) = 0.01857589
#
# Stress axis : x y z
#
# Youngs Moduli (GPa) = 51.92949 82.70572 40.13521
#
# Poissons Ratio (x) = 0.23552 0.47108
# Poissons Ratio (y) = 0.14788 0.17093
# Poissons Ratio (z) = 0.60951 0.35223
#
# Static dielectric constant tensor:
#      x y z
#    x 1.759220 0.000000 0.000000 
#    y 0.000000 1.829390 0.000000 
#    z 0.000000 0.000000 1.866230 
# 
# From -- ./inp_files/16391.got.cif
#   From: 2010.05.17/outbox.cif.g08.bks.cpg/sg60_9_cif.got.tgz:16391.got - 2010.06.03 14:59:27.
