data_PCOD9454322
_publ_section_title
;
Structure prediction by ZEFSAII (Michael W. Deem and Ramdas Pophale) SiO2 
 PCOD9454322
Probable space group: P B C N
;
_chemical_formula_sum "Si O2"
_cell_formula_units_Z 48
_cell_length_a 19.450276
_cell_length_b 33.751383
_cell_length_c 5.177480
_cell_angle_alpha 90.000000
_cell_angle_beta 90.000000
_cell_angle_gamma 90.000000
_cell_volume 3398.879529
_symmetry_space_group_name_H-M "P B C N"
_symmetry_group_IT_number 60
_symmetry_cell_setting 'orthorhombic'
loop_
_space_group_symop_operation_xyz
x,y,z
1/2-x,1/2-y,1/2+z
1/2+x,1/2-y,-z
-x,y,1/2-z
-x,-y,-z
1/2+x,1/2+y,1/2-z
1/2-x,1/2+y,z
x,-y,1/2+z
loop_
_atom_site_type_symbol
_atom_site_label
_atom_site_fract_x
_atom_site_fract_y
_atom_site_fract_z
Si Si1 0.426324 0.889317 0.382588
Si Si2 0.453299 0.226879 0.497095
Si Si3 0.631448 0.851321 0.589867
Si Si4 0.577499 0.982061 0.006072
Si Si5 0.762631 0.803319 0.691575
Si Si6 0.829522 0.777141 0.186830
O O1 0.500000 0.878918 0.250000
O O2 0.405293 0.865145 0.641944
O O3 0.428132 0.935265 0.462556
O O4 0.375149 0.882501 0.142445
O O5 0.500000 0.233352 0.750000
O O6 0.405999 0.187913 0.525728
O O7 0.403659 0.262947 0.413277
O O8 0.500000 0.218797 0.250000
O O9 0.709525 0.838634 0.643212
O O10 0.612107 0.003593 0.245741
O O11 0.500000 0.000000 0.000000
O O12 0.818810 0.796400 0.467097
O O13 0.715602 0.763401 0.693346
O O14 0.796932 0.805125 0.970365
#
# Coordination Sequence:
#
# PCOD9454322 Si02
#       6
#     8   8   8   8   8   8
#     4  12  21  30  44  59  81 105 135 166 231 264
#     4  11  20  31  41  62  87 102 129 165 218 264
#     4  11  22  30  42  62  83 106 127 176 219 265
#     4  10  19  32  44  56  72 102 140 175 192 254
#     4   9  17  31  43  58  74  98 143 160 196 249
#     4   9  17  29  47  55  72 108 130 164 195 245
#
# _framework density 14.122301999999999
#
# number of rings (size 3 to 8) (size 9 to 14) (size 15 to 20)
#    0.000    1.667    1.667    6.000    2.333    5.333 
#    0.000    0.000    0.000    0.000    0.000    0.000 
#    0.000    0.000    0.000    0.000    0.000    0.000 
#
# Total GULP energy -267436.033521 kJ/mol
# GULP energy per Si atom -5571.584032 kJ/mol
# Density = 1.409016 g / cm^3
# Si number density = 14.122302 Si / 1000 Ang^3
#
#
#
# Elastic Constant Matrix: (Units=GPa)
#
#
# Indices 1 2 3 4 5 6 
#
# 1 14.2102 8.4333 -11.2353 0.0000 0.0000 0.0000
# 2 8.4333 42.4017 2.8800 0.0000 0.0000 0.0000
# 3 -11.2353 2.8800 74.0607 0.0000 0.0000 0.0000
# 4 0.0000 0.0000 0.0000 24.1986 0.0000 0.0000
# 5 0.0000 0.0000 0.0000 0.0000 13.6855 0.0000
# 6 0.0000 0.0000 0.0000 0.0000 0.0000 27.9148
#
#
#
# Elastic Compliance Matrix: (Units=1/GPa)
#
#
# Indices 1 2 3 4 5 6 
#
# 1 0.093939 -0.019703 0.015017 0.000000 0.000000 0.000000
# 2 -0.019703 0.027779 -0.004069 0.000000 0.000000 0.000000
# 3 0.015017 -0.004069 0.015939 0.000000 0.000000 0.000000
# 4 0.000000 0.000000 0.000000 0.041325 0.000000 0.000000
# 5 0.000000 0.000000 0.000000 0.000000 0.073070 0.000000
# 6 0.000000 0.000000 0.000000 0.000000 0.000000 0.035823
#
#
# Mechanical properties :
#
#
# Convention : Reuss Voigt Hill
#
# Bulk Modulus (GPa) = 8.32326 14.53650 11.42988
# Shear Modulus (GPa) = 14.47454 21.86610 18.17032
#
# Velocity S-wave (km/s) = 3.20494 3.93916 3.59087
# Velocity P-wave (km/s) = 4.42742 5.56821 5.03026
#
# Compressibility (1/GPa) = 0.12014524
#
# Stress axis : x y z
#
# Youngs Moduli (GPa) = 10.64526 35.99823 62.73988
#
# Poissons Ratio (x) = 0.70929 -0.94217
# Poissons Ratio (y) = 0.20975 0.25531
# Poissons Ratio (z) = -0.15986 0.14649
#
# Static dielectric constant tensor:
#      x y z
#    x 1.426590 0.000000 0.000000 
#    y 0.000000 1.465490 0.000000 
#    z 0.000000 0.000000 1.779620 
# 
# From -- ./inp_files/1864.got.cif
#   From: 2010.05.17/outbox.cif.g08.bks.cpg/sg60_1_cif.got.tgz:1864.got - 2010.06.03 14:59:27.
