data_PCOD9454086
_publ_section_title
;
Structure prediction by ZEFSAII (Michael W. Deem and Ramdas Pophale) SiO2 
 PCOD9454086
Probable space group: P B C N
;
_chemical_formula_sum "Si O2"
_cell_formula_units_Z 52
_cell_length_a 18.091641
_cell_length_b 14.174277
_cell_length_c 12.047516
_cell_angle_alpha 90.000000
_cell_angle_beta 90.000000
_cell_angle_gamma 90.000000
_cell_volume 3089.415981
_symmetry_space_group_name_H-M "P B C N"
_symmetry_group_IT_number 60
_symmetry_cell_setting 'orthorhombic'
loop_
_space_group_symop_operation_xyz
x,y,z
1/2-x,1/2-y,1/2+z
1/2+x,1/2-y,-z
-x,y,1/2-z
-x,-y,-z
1/2+x,1/2+y,1/2-z
1/2-x,1/2+y,z
x,-y,1/2+z
loop_
_atom_site_type_symbol
_atom_site_label
_atom_site_fract_x
_atom_site_fract_y
_atom_site_fract_z
Si Si1 0.162496 0.230820 0.034500
Si Si2 0.113769 0.049252 0.422480
Si Si3 0.771223 0.114346 0.889070
Si Si4 0.000000 0.766541 0.250000
Si Si5 0.718409 0.417602 0.783234
Si Si6 0.025362 0.859330 0.480436
Si Si7 0.834747 0.734958 0.216568
O O1 0.199497 0.328306 0.071444
O O2 0.191657 0.148280 0.114812
O O3 0.074065 0.223232 0.034027
O O4 0.180973 0.220655 0.904192
O O5 0.174738 0.084723 0.510539
O O6 0.151760 0.060133 0.302655
O O7 0.040291 0.111174 0.439067
O O8 0.082015 0.945848 0.454824
O O9 0.812969 0.187274 0.807810
O O10 0.753444 0.017746 0.826476
O O11 0.993509 0.829336 0.361090
O O12 0.078001 0.713731 0.267865
O O13 0.783356 0.356360 0.728103
#
# Coordination Sequence:
#
# PCOD9454086 Si02
#       7
#     8   8   8   4   8   8   8
#     4  10  21  37  55  83 114 150 188 231 282 334
#     4  11  21  35  56  88 119 149 181 232 292 337
#     4  11  21  37  56  84 113 148 191 226 283 336
#     4  10  18  34  56  82 110 148 190 226 282 334
#     4  11  22  36  58  83 115 151 189 234 275 344
#     4  10  21  34  56  86 120 148 180 233 287 343
#     4  10  21  36  59  80 110 149 190 233 281 334
#
# _framework density 16.831659999999999
#
# number of rings (size 3 to 8) (size 9 to 14) (size 15 to 20)
#    0.000    1.538    4.615    1.846    0.000    0.615 
#    0.000    0.000    0.000    7.385    0.000    0.000 
#    0.000    0.000    0.000    0.000    0.000    0.000 
#
# Total GULP energy -289750.693120 kJ/mol
# GULP energy per Si atom -5572.128714 kJ/mol
# Density = 1.679335 g / cm^3
# Si number density = 16.831660 Si / 1000 Ang^3
#
#
#
# Elastic Constant Matrix: (Units=GPa)
#
#
# Indices 1 2 3 4 5 6 
#
# 1 102.2532 53.5061 49.3548 0.0000 0.0000 0.0000
# 2 53.5061 75.0824 28.6179 0.0000 0.0000 0.0000
# 3 49.3548 28.6179 79.8224 0.0000 0.0000 0.0000
# 4 0.0000 0.0000 0.0000 26.1772 0.0000 0.0000
# 5 0.0000 0.0000 0.0000 0.0000 30.4822 0.0000
# 6 0.0000 0.0000 0.0000 0.0000 0.0000 31.7057
#
#
#
# Elastic Compliance Matrix: (Units=1/GPa)
#
#
# Indices 1 2 3 4 5 6 
#
# 1 0.019248 -0.010634 -0.008089 0.000000 0.000000 0.000000
# 2 -0.010634 0.021302 -0.001062 0.000000 0.000000 0.000000
# 3 -0.008089 -0.001062 0.017910 0.000000 0.000000 0.000000
# 4 0.000000 0.000000 0.000000 0.038201 0.000000 0.000000
# 5 0.000000 0.000000 0.000000 0.000000 0.032806 0.000000
# 6 0.000000 0.000000 0.000000 0.000000 0.000000 0.031540
#
#
# Mechanical properties :
#
#
# Convention : Reuss Voigt Hill
#
# Bulk Modulus (GPa) = 52.93738 57.79063 55.36400
# Shear Modulus (GPa) = 24.16937 26.05166 25.11051
#
# Velocity S-wave (km/s) = 3.79350 3.93845 3.86665
# Velocity P-wave (km/s) = 7.12088 7.42232 7.27316
#
# Compressibility (1/GPa) = 0.01889024
#
# Stress axis : x y z
#
# Youngs Moduli (GPa) = 51.95248 46.94503 55.83461
#
# Poissons Ratio (x) = 0.49921 0.45164
# Poissons Ratio (y) = 0.55246 0.05930
# Poissons Ratio (z) = 0.42024 0.04986
#
# Static dielectric constant tensor:
#      x y z
#    x 1.576130 0.000000 0.000000 
#    y 0.000000 1.563390 0.000000 
#    z 0.000000 0.000000 1.592260 
# 
# From -- ./inp_files/12486.got.cif
#   From: 2010.05.17/outbox.cif.g08.bks.cpg/sg60_7_cif.got.tgz:12486.got - 2010.06.03 14:59:27.
