data_PCOD9454288
_publ_section_title
;
Structure prediction by ZEFSAII (Michael W. Deem and Ramdas Pophale) SiO2 
 PCOD9454288
Probable space group: P B C N
;
_chemical_formula_sum "Si O2"
_cell_formula_units_Z 64
_cell_length_a 24.865085
_cell_length_b 16.937432
_cell_length_c 9.954931
_cell_angle_alpha 90.000000
_cell_angle_beta 90.000000
_cell_angle_gamma 90.000000
_cell_volume 4192.526023
_symmetry_space_group_name_H-M "P B C N"
_symmetry_group_IT_number 60
_symmetry_cell_setting 'orthorhombic'
loop_
_space_group_symop_operation_xyz
x,y,z
1/2-x,1/2-y,1/2+z
1/2+x,1/2-y,-z
-x,y,1/2-z
-x,-y,-z
1/2+x,1/2+y,1/2-z
1/2-x,1/2+y,z
x,-y,1/2+z
loop_
_atom_site_type_symbol
_atom_site_label
_atom_site_fract_x
_atom_site_fract_y
_atom_site_fract_z
Si Si1 0.668144 0.763140 0.013058
Si Si2 0.781950 0.489852 0.608478
Si Si3 0.323461 0.742772 0.790056
Si Si4 0.536969 0.023311 0.125202
Si Si5 0.629679 0.131155 0.009762
Si Si6 0.715674 0.651860 0.220602
Si Si7 0.278103 0.365444 0.490155
Si Si8 0.374845 0.105527 0.797738
O O1 0.677352 0.686016 0.105007
O O2 0.725791 0.808247 0.006906
O O3 0.631077 0.826351 0.090450
O O4 0.652606 0.743698 0.859751
O O5 0.821412 0.431403 0.527990
O O6 0.742674 0.432456 0.690161
O O7 0.745736 0.547274 0.519252
O O8 0.822297 0.547987 0.690169
O O9 0.355710 0.793551 0.900184
O O10 0.266213 0.787766 0.776567
O O11 0.311112 0.658902 0.858273
O O12 0.500000 0.047980 0.250000
O O13 0.577714 0.089965 0.073936
O O14 0.574022 0.949861 0.173232
O O15 0.500000 0.000000 0.000000
O O16 0.623093 0.142362 0.850790
O O17 0.691745 0.649494 0.369997
#
# Coordination Sequence:
#
# PCOD9454288 Si02
#       8
#     8   8   8   8   8   8   8   8
#     4   9  18  28  41  58  80 111 144 180 213 254
#     4   9  18  26  44  64  86 114 150 184 214 251
#     4   9  18  28  41  58  80 111 144 180 213 254
#     4  11  22  34  48  68  88 112 144 182 222 261
#     4  10  19  31  46  62  85 114 147 180 219 260
#     4   9  16  27  40  58  82 110 146 179 214 251
#     4   9  16  27  40  58  82 110 146 179 214 251
#     4  10  19  31  46  62  85 114 147 180 219 260
#
# _framework density 15.26526
#
# number of rings (size 3 to 8) (size 9 to 14) (size 15 to 20)
#    0.000    2.500    1.250    1.500    1.750   10.000 
#    0.000    0.000    0.000    0.000    0.000    0.000 
#    0.000    0.000    0.000    2.250    0.000    2.500 
#
# Total GULP energy -356309.159667 kJ/mol
# GULP energy per Si atom -5567.330620 kJ/mol
# Density = 1.523052 g / cm^3
# Si number density = 15.265260 Si / 1000 Ang^3
#
#
#
# Elastic Constant Matrix: (Units=GPa)
#
#
# Indices 1 2 3 4 5 6 
#
# 1 23.0547 12.5313 10.9753 0.0000 0.0000 0.0000
# 2 12.5313 43.6710 18.6759 0.0000 0.0000 0.0000
# 3 10.9753 18.6759 103.9788 0.0000 0.0000 0.0000
# 4 0.0000 0.0000 0.0000 9.8691 0.0000 0.0000
# 5 0.0000 0.0000 0.0000 0.0000 17.1245 0.0000
# 6 0.0000 0.0000 0.0000 0.0000 0.0000 10.1403
#
#
#
# Elastic Compliance Matrix: (Units=1/GPa)
#
#
# Indices 1 2 3 4 5 6 
#
# 1 0.052273 -0.013692 -0.003058 0.000000 0.000000 0.000000
# 2 -0.013692 0.028390 -0.003654 0.000000 0.000000 0.000000
# 3 -0.003058 -0.003654 0.010596 0.000000 0.000000 0.000000
# 4 0.000000 0.000000 0.000000 0.101327 0.000000 0.000000
# 5 0.000000 0.000000 0.000000 0.000000 0.058396 0.000000
# 6 0.000000 0.000000 0.000000 0.000000 0.000000 0.098617
#
#
# Mechanical properties :
#
#
# Convention : Reuss Voigt Hill
#
# Bulk Modulus (GPa) = 19.82110 28.34104 24.08107
# Shear Modulus (GPa) = 12.27824 15.99489 14.13657
#
# Velocity S-wave (km/s) = 2.83914 3.24048 3.04643
# Velocity P-wave (km/s) = 4.87445 5.71025 5.30882
#
# Compressibility (1/GPa) = 0.05045128
#
# Stress axis : x y z
#
# Youngs Moduli (GPa) = 19.13029 35.22370 94.37114
#
# Poissons Ratio (x) = 0.48228 0.28862
# Poissons Ratio (y) = 0.26193 0.34483
# Poissons Ratio (z) = 0.05851 0.12871
#
# Static dielectric constant tensor:
#      x y z
#    x 1.488740 0.000000 0.000000 
#    y 0.000000 1.511720 0.000000 
#    z 0.000000 0.000000 1.544870 
# 
# From -- ./inp_files/8038.got.cif
#   From: 2010.05.17/outbox.cif.g08.bks.cpg/sg60_5_cif.got.tgz:8038.got - 2010.06.03 14:59:27.
