data_PCOD9454173
_publ_section_title
;
Structure prediction by ZEFSAII (Michael W. Deem and Ramdas Pophale) SiO2 
 PCOD9454173
Probable space group: P B C N
;
_chemical_formula_sum "Si O2"
_cell_formula_units_Z 36
_cell_length_a 13.910561
_cell_length_b 12.079111
_cell_length_c 9.679041
_cell_angle_alpha 90.000000
_cell_angle_beta 90.000000
_cell_angle_gamma 90.000000
_cell_volume 1626.342258
_symmetry_space_group_name_H-M "P B C N"
_symmetry_group_IT_number 60
_symmetry_cell_setting 'orthorhombic'
loop_
_space_group_symop_operation_xyz
x,y,z
1/2-x,1/2-y,1/2+z
1/2+x,1/2-y,-z
-x,y,1/2-z
-x,-y,-z
1/2+x,1/2+y,1/2-z
1/2-x,1/2+y,z
x,-y,1/2+z
loop_
_atom_site_type_symbol
_atom_site_label
_atom_site_fract_x
_atom_site_fract_y
_atom_site_fract_z
Si Si1 0.818880 0.548789 0.615512
Si Si2 0.183971 0.819126 0.234286
Si Si3 0.348570 0.813511 0.018890
Si Si4 0.500000 0.961828 0.750000
Si Si5 0.055286 0.717230 0.025654
O O1 0.718689 0.566817 0.694037
O O2 0.825708 0.443940 0.513555
O O3 0.905049 0.529284 0.722299
O O4 0.852857 0.665128 0.550194
O O5 0.164533 0.740050 0.365361
O O6 0.093866 0.812308 0.128711
O O7 0.274504 0.781872 0.139822
O O8 0.456509 0.771664 0.059085
O O9 0.478191 0.884553 0.621698
#
# Coordination Sequence:
#
# PCOD9454173 Si02
#       5
#     8   8   8   4   8
#     4  11  21  36  62  94 122 154 206 256 311 364
#     4  12  22  39  62  95 127 161 204 254 310 370
#     4  11  24  39  64  92 127 161 205 257 307 368
#     4  10  18  36  62  92 118 154 200 266 312 352
#     4  11  20  38  60  93 123 157 198 257 315 355
#
# _framework density 22.135563000000001
#
# number of rings (size 3 to 8) (size 9 to 14) (size 15 to 20)
#    0.000    0.889    6.667    5.333    0.000    0.000 
#    0.000    0.000    0.000   12.000    0.000    0.000 
#    0.000    0.000    0.000    0.000    0.000    0.000 
#
# Total GULP energy -200462.812115 kJ/mol
# GULP energy per Si atom -5568.411448 kJ/mol
# Density = 2.208518 g / cm^3
# Si number density = 22.135563 Si / 1000 Ang^3
#
#
#
# Elastic Constant Matrix: (Units=GPa)
#
#
# Indices 1 2 3 4 5 6 
#
# 1 86.4693 27.9973 9.0275 0.0000 0.0000 0.0000
# 2 27.9973 28.3520 0.0483 0.0000 0.0000 0.0000
# 3 9.0275 0.0483 47.9702 0.0000 0.0000 0.0000
# 4 0.0000 0.0000 0.0000 19.1407 0.0000 0.0000
# 5 0.0000 0.0000 0.0000 0.0000 54.2283 0.0000
# 6 0.0000 0.0000 0.0000 0.0000 0.0000 35.3981
#
#
#
# Elastic Compliance Matrix: (Units=1/GPa)
#
#
# Indices 1 2 3 4 5 6 
#
# 1 0.017500 -0.017276 -0.003276 0.000000 0.000000 0.000000
# 2 -0.017276 0.052325 0.003199 0.000000 0.000000 0.000000
# 3 -0.003276 0.003199 0.021460 0.000000 0.000000 0.000000
# 4 0.000000 0.000000 0.000000 0.052245 0.000000 0.000000
# 5 0.000000 0.000000 0.000000 0.000000 0.018441 0.000000
# 6 0.000000 0.000000 0.000000 0.000000 0.000000 0.028250
#
#
# Mechanical properties :
#
#
# Convention : Reuss Voigt Hill
#
# Bulk Modulus (GPa) = 17.67462 26.32641 22.00052
# Shear Modulus (GPa) = 20.50972 30.13467 25.32219
#
# Velocity S-wave (km/s) = 3.04723 3.69368 3.38592
# Velocity P-wave (km/s) = 4.51474 5.48726 5.02459
#
# Compressibility (1/GPa) = 0.05657830
#
# Stress axis : x y z
#
# Youngs Moduli (GPa) = 57.14131 19.11126 46.59926
#
# Poissons Ratio (x) = 0.33016 0.15266
# Poissons Ratio (y) = 0.98717 -0.14905
# Poissons Ratio (z) = 0.18720 -0.06113
#
# Static dielectric constant tensor:
#      x y z
#    x 1.977790 0.000000 0.000000 
#    y 0.000000 1.837460 0.000000 
#    z 0.000000 0.000000 1.919460 
# 
# From -- ./inp_files/10774.got.cif
#   From: 2010.05.17/outbox.cif.g08.bks.cpg/sg60_6_cif.got.tgz:10774.got - 2010.06.03 14:59:27.
