data_PCOD9454064
_publ_section_title
;
Structure prediction by ZEFSAII (Michael W. Deem and Ramdas Pophale) SiO2 
 PCOD9454064
Probable space group: P B C N
;
_chemical_formula_sum "Si O2"
_cell_formula_units_Z 60
_cell_length_a 24.592866
_cell_length_b 8.298864
_cell_length_c 13.485441
_cell_angle_alpha 90.000000
_cell_angle_beta 90.000000
_cell_angle_gamma 90.000000
_cell_volume 2752.282091
_symmetry_space_group_name_H-M "P B C N"
_symmetry_group_IT_number 60
_symmetry_cell_setting 'orthorhombic'
loop_
_space_group_symop_operation_xyz
x,y,z
1/2-x,1/2-y,1/2+z
1/2+x,1/2-y,-z
-x,y,1/2-z
-x,-y,-z
1/2+x,1/2+y,1/2-z
1/2-x,1/2+y,z
x,-y,1/2+z
loop_
_atom_site_type_symbol
_atom_site_label
_atom_site_fract_x
_atom_site_fract_y
_atom_site_fract_z
Si Si1 0.872662 0.469962 0.745189
Si Si2 0.183894 0.055436 0.180504
Si Si3 0.654580 0.414222 0.044057
Si Si4 0.000000 0.289511 0.250000
Si Si5 0.105616 0.169259 0.323457
Si Si6 0.445403 0.817711 0.912804
Si Si7 0.553783 0.044624 0.404745
Si Si8 0.275915 0.745697 0.781472
O O1 0.877598 0.648788 0.703228
O O2 0.919622 0.367091 0.691381
O O3 0.886248 0.440117 0.859946
O O4 0.814675 0.400464 0.719942
O O5 0.125163 0.057680 0.232335
O O6 0.218334 0.180397 0.248799
O O7 0.209459 0.881090 0.195916
O O8 0.177869 0.095907 0.066072
O O9 0.634777 0.590426 0.081930
O O10 0.597469 0.314536 0.049236
O O11 0.701652 0.345952 0.119090
O O12 0.040827 0.181691 0.315039
O O13 0.029052 0.406468 0.169404
O O14 0.511016 0.807145 0.904493
O O15 0.440991 0.970387 0.986696
#
# Coordination Sequence:
#
# PCOD9454064 Si02
#       8
#     8   8   8   4   8   8   8   8
#     4  10  19  39  63  88 122 163 208 261 308 377
#     4  11  23  44  63  92 127 162 212 273 322 394
#     4  10  23  41  61  95 131 163 212 270 332 385
#     4  10  18  38  58  86 124 174 208 260 314 376
#     4  10  21  39  61  89 128 168 210 260 322 383
#     4  10  19  34  57  87 121 162 213 250 304 370
#     4  10  18  33  59  87 123 166 215 254 300 376
#     4  10  24  42  67  92 118 166 214 261 332 380
#
# _framework density 21.800091999999999
#
# number of rings (size 3 to 8) (size 9 to 14) (size 15 to 20)
#    0.000    1.867    2.667    2.400    0.000    3.200 
#    7.200    5.333    0.000    0.000    0.000    0.000 
#    0.000    0.000    0.000    0.000    0.000    0.000 
#
# Total GULP energy -334105.272947 kJ/mol
# GULP energy per Si atom -5568.421216 kJ/mol
# Density = 2.175047 g / cm^3
# Si number density = 21.800092 Si / 1000 Ang^3
#
#
#
# Elastic Constant Matrix: (Units=GPa)
#
#
# Indices 1 2 3 4 5 6 
#
# 1 59.7918 19.4526 9.5815 0.0000 0.0000 0.0000
# 2 19.4526 54.4521 -12.6987 0.0000 0.0000 0.0000
# 3 9.5815 -12.6987 56.3292 0.0000 0.0000 0.0000
# 4 0.0000 0.0000 0.0000 14.5915 0.0000 0.0000
# 5 0.0000 0.0000 0.0000 0.0000 20.7702 0.0000
# 6 0.0000 0.0000 0.0000 0.0000 0.0000 21.8108
#
#
#
# Elastic Compliance Matrix: (Units=1/GPa)
#
#
# Indices 1 2 3 4 5 6 
#
# 1 0.020363 -0.008531 -0.005387 0.000000 0.000000 0.000000
# 2 -0.008531 0.022958 0.006627 0.000000 0.000000 0.000000
# 3 -0.005387 0.006627 0.020163 0.000000 0.000000 0.000000
# 4 0.000000 0.000000 0.000000 0.068533 0.000000 0.000000
# 5 0.000000 0.000000 0.000000 0.000000 0.048146 0.000000
# 6 0.000000 0.000000 0.000000 0.000000 0.000000 0.045849
#
#
# Mechanical properties :
#
#
# Convention : Reuss Voigt Hill
#
# Bulk Modulus (GPa) = 20.44924 22.58267 21.51596
# Shear Modulus (GPa) = 19.46319 21.71701 20.59010
#
# Velocity S-wave (km/s) = 2.99122 3.15967 3.07660
# Velocity P-wave (km/s) = 4.61851 4.86753 4.74465
#
# Compressibility (1/GPa) = 0.04890156
#
# Stress axis : x y z
#
# Youngs Moduli (GPa) = 49.10765 43.55820 49.59578
#
# Poissons Ratio (x) = 0.37159 0.26717
# Poissons Ratio (y) = 0.41894 -0.32865
# Poissons Ratio (z) = 0.26454 -0.28865
#
# Static dielectric constant tensor:
#      x y z
#    x 1.945030 0.000000 0.000000 
#    y 0.000000 1.818080 0.000000 
#    z 0.000000 0.000000 1.841290 
# 
# From -- ./inp_files/17915.got.cif
#   From: 2010.05.17/outbox.cif.g08.bks.cpg/sg60_9_cif.got.tgz:17915.got - 2010.06.03 14:59:27.
