data_PCOD9454559
_publ_section_title
;
Structure prediction by ZEFSAII (Michael W. Deem and Ramdas Pophale) SiO2 
 PCOD9454559
Probable space group: P B C N
;
_chemical_formula_sum "Si O2"
_cell_formula_units_Z 60
_cell_length_a 20.663122
_cell_length_b 5.523601
_cell_length_c 29.158155
_cell_angle_alpha 90.000000
_cell_angle_beta 90.000000
_cell_angle_gamma 90.000000
_cell_volume 3327.961395
_symmetry_space_group_name_H-M "P B C N"
_symmetry_group_IT_number 60
_symmetry_cell_setting 'orthorhombic'
loop_
_space_group_symop_operation_xyz
x,y,z
1/2-x,1/2-y,1/2+z
1/2+x,1/2-y,-z
-x,y,1/2-z
-x,-y,-z
1/2+x,1/2+y,1/2-z
1/2-x,1/2+y,z
x,-y,1/2+z
loop_
_atom_site_type_symbol
_atom_site_label
_atom_site_fract_x
_atom_site_fract_y
_atom_site_fract_z
Si Si1 0.089595 0.511386 0.309779
Si Si2 0.710166 0.963929 0.361498
Si Si3 0.951221 0.295298 0.101953
Si Si4 0.500000 0.331767 0.750000
Si Si5 0.516197 0.596575 0.834578
Si Si6 0.211280 0.494735 0.245763
Si Si7 0.583651 0.108123 0.405162
Si Si8 0.041676 0.248842 0.499066
O O1 0.097326 0.417316 0.361928
O O2 0.039681 0.731394 0.314479
O O3 0.153857 0.547296 0.281277
O O4 0.048853 0.317383 0.280980
O O5 0.749631 0.215668 0.369226
O O6 0.690330 0.984179 0.307748
O O7 0.647396 0.958381 0.394087
O O8 0.925362 0.251021 0.051016
O O9 0.016281 0.458761 0.097598
O O10 0.978802 0.059941 0.127264
O O11 0.541004 0.468880 0.788747
O O12 0.574750 0.712395 0.862318
O O13 0.241125 0.225549 0.252630
O O14 0.583908 0.235701 0.454730
O O15 0.000000 0.500000 0.500000
O O16 0.000000 0.000000 0.500000
#
# Coordination Sequence:
#
# PCOD9454559 Si02
#       8
#     8   8   8   4   8   8   8   8
#     4  10  22  36  53  85 113 151 191 242 289 349
#     4  10  24  39  56  80 111 152 203 241 276 342
#     4   9  20  35  55  90 117 144 189 237 297 357
#     4  10  22  30  50  84 116 148 178 242 288 352
#     4  10  20  32  53  83 115 150 180 238 292 352
#     4  10  24  41  58  79 110 160 201 239 280 343
#     4  10  21  35  60  82 116 154 188 238 306 348
#     4  10  19  35  57  87 119 147 181 227 292 363
#
# _framework density 18.029056000000001
#
# number of rings (size 3 to 8) (size 9 to 14) (size 15 to 20)
#    0.000    2.133    1.333    0.400   13.067    1.067 
#    0.000    0.000    0.000    1.600    0.000    0.000 
#    0.000    0.000    0.000    0.000    0.000    0.000 
#
# Total GULP energy -334052.344637 kJ/mol
# GULP energy per Si atom -5567.539077 kJ/mol
# Density = 1.798802 g / cm^3
# Si number density = 18.029056 Si / 1000 Ang^3
#
#
#
# Elastic Constant Matrix: (Units=GPa)
#
#
# Indices 1 2 3 4 5 6 
#
# 1 32.0565 -4.8459 31.2422 0.0000 0.0000 0.0000
# 2 -4.8459 62.8556 21.1917 0.0000 0.0000 0.0000
# 3 31.2422 21.1917 127.8744 0.0000 0.0000 0.0000
# 4 0.0000 0.0000 0.0000 18.8992 0.0000 0.0000
# 5 0.0000 0.0000 0.0000 0.0000 24.3852 0.0000
# 6 0.0000 0.0000 0.0000 0.0000 0.0000 8.3271
#
#
#
# Elastic Compliance Matrix: (Units=1/GPa)
#
#
# Indices 1 2 3 4 5 6 
#
# 1 0.043994 0.007431 -0.011980 0.000000 0.000000 0.000000
# 2 0.007431 0.018106 -0.004816 0.000000 0.000000 0.000000
# 3 -0.011980 -0.004816 0.011545 0.000000 0.000000 0.000000
# 4 0.000000 0.000000 0.000000 0.052912 0.000000 0.000000
# 5 0.000000 0.000000 0.000000 0.000000 0.041008 0.000000
# 6 0.000000 0.000000 0.000000 0.000000 0.000000 0.120090
#
#
# Mechanical properties :
#
#
# Convention : Reuss Voigt Hill
#
# Bulk Modulus (GPa) = 18.21007 35.32917 26.76962
# Shear Modulus (GPa) = 15.39922 22.00219 18.70071
#
# Velocity S-wave (km/s) = 2.92573 3.49718 3.22414
# Velocity P-wave (km/s) = 4.64064 5.99543 5.36100
#
# Compressibility (1/GPa) = 0.05491467
#
# Stress axis : x y z
#
# Youngs Moduli (GPa) = 22.73040 55.23002 86.61570
#
# Poissons Ratio (x) = -0.41040 1.03766
# Poissons Ratio (y) = -0.16890 0.41715
# Poissons Ratio (z) = 0.27231 0.26599
#
# Static dielectric constant tensor:
#      x y z
#    x 1.669120 0.000000 0.000000 
#    y 0.000000 1.788070 0.000000 
#    z 0.000000 0.000000 1.664480 
# 
# From -- ./inp_files/25480.got.cif
#   From: 2010.05.17/outbox.cif.g08.bks.cpg/sg60_13_cif.got.tgz:25480.got - 2010.06.03 14:59:27.
