data_PCOD9454993
_publ_section_title
;
Structure prediction by ZEFSAII (Michael W. Deem and Ramdas Pophale) SiO2 
 PCOD9454993
Probable space group: P B C N
;
_chemical_formula_sum "Si O2"
_cell_formula_units_Z 48
_cell_length_a 12.290839
_cell_length_b 22.973719
_cell_length_c 9.890343
_cell_angle_alpha 90.000000
_cell_angle_beta 90.000000
_cell_angle_gamma 90.000000
_cell_volume 2792.699375
_symmetry_space_group_name_H-M "P B C N"
_symmetry_group_IT_number 60
_symmetry_cell_setting 'orthorhombic'
loop_
_space_group_symop_operation_xyz
x,y,z
1/2-x,1/2-y,1/2+z
1/2+x,1/2-y,-z
-x,y,1/2-z
-x,-y,-z
1/2+x,1/2+y,1/2-z
1/2-x,1/2+y,z
x,-y,1/2+z
loop_
_atom_site_type_symbol
_atom_site_label
_atom_site_fract_x
_atom_site_fract_y
_atom_site_fract_z
Si Si1 0.423862 0.250070 0.881926
Si Si2 0.136822 0.467454 0.602431
Si Si3 0.703577 0.813970 0.694160
Si Si4 0.620100 0.936023 0.600251
Si Si5 0.932577 0.201349 0.626664
Si Si6 0.781962 0.351696 0.005885
O O1 0.500000 0.246823 0.750000
O O2 0.319449 0.291297 0.857987
O O3 0.491885 0.277958 0.003810
O O4 0.374423 0.186694 0.919524
O O5 0.154910 0.529737 0.533894
O O6 0.166555 0.464083 0.760598
O O7 0.194773 0.419740 0.508505
O O8 0.010100 0.446764 0.601443
O O9 0.654909 0.868852 0.612276
O O10 0.621902 0.760262 0.683217
O O11 0.716519 0.830385 0.850525
O O12 0.833466 0.162507 0.572790
O O13 0.000000 0.174247 0.750000
#
# Coordination Sequence:
#
# PCOD9454993 Si02
#       6
#     8   8   8   8   8   8
#     4  11  21  35  52  81 107 137 179 216 259 317
#     4   9  18  35  53  78 105 136 174 217 266 315
#     4  10  20  34  57  77 106 147 174 209 271 321
#     4   9  18  34  55  76 105 138 172 216 268 314
#     4  11  21  35  54  78 110 140 175 218 264 314
#     4  10  20  35  55  79 106 142 177 214 265 319
#
# _framework density 17.187671000000002
#
# number of rings (size 3 to 8) (size 9 to 14) (size 15 to 20)
#    0.000    2.000    3.333    1.000    2.333    0.000 
#   12.000    0.000    0.000    2.000    0.000    0.000 
#    0.000    0.000    0.000    0.000    0.000    0.000 
#
# Total GULP energy -267620.689381 kJ/mol
# GULP energy per Si atom -5575.431029 kJ/mol
# Density = 1.714855 g / cm^3
# Si number density = 17.187671 Si / 1000 Ang^3
#
#
#
# Elastic Constant Matrix: (Units=GPa)
#
#
# Indices 1 2 3 4 5 6 
#
# 1 70.1392 9.2423 30.6077 0.0000 0.0000 0.0000
# 2 9.2423 50.0920 9.6051 0.0000 0.0000 0.0000
# 3 30.6077 9.6051 57.7103 0.0000 0.0000 0.0000
# 4 0.0000 0.0000 0.0000 22.1092 0.0000 0.0000
# 5 0.0000 0.0000 0.0000 0.0000 33.6271 0.0000
# 6 0.0000 0.0000 0.0000 0.0000 0.0000 13.1348
#
#
#
# Elastic Compliance Matrix: (Units=1/GPa)
#
#
# Indices 1 2 3 4 5 6 
#
# 1 0.018674 -0.001597 -0.009638 0.000000 0.000000 0.000000
# 2 -0.001597 0.020758 -0.002608 0.000000 0.000000 0.000000
# 3 -0.009638 -0.002608 0.022874 0.000000 0.000000 0.000000
# 4 0.000000 0.000000 0.000000 0.045230 0.000000 0.000000
# 5 0.000000 0.000000 0.000000 0.000000 0.029738 0.000000
# 6 0.000000 0.000000 0.000000 0.000000 0.000000 0.076134
#
#
# Mechanical properties :
#
#
# Convention : Reuss Voigt Hill
#
# Bulk Modulus (GPa) = 28.88575 30.76131 29.82353
# Shear Modulus (GPa) = 19.79154 22.33997 21.06575
#
# Velocity S-wave (km/s) = 3.39705 3.60914 3.50470
# Velocity P-wave (km/s) = 5.67708 5.94172 5.81090
#
# Compressibility (1/GPa) = 0.03461915
#
# Stress axis : x y z
#
# Youngs Moduli (GPa) = 53.55100 48.17413 43.71832
#
# Poissons Ratio (x) = 0.07695 0.42136
# Poissons Ratio (y) = 0.08554 0.11401
# Poissons Ratio (z) = 0.51613 0.12562
#
# Static dielectric constant tensor:
#      x y z
#    x 1.586400 0.000000 0.000000 
#    y 0.000000 1.575700 0.000000 
#    z 0.000000 0.000000 1.595170 
# 
# From -- ./inp_files/5047.got.cif
#   From: 2010.05.17/outbox.cif.g08.bks.cpg/sg60_3_cif.got.tgz:5047.got - 2010.06.03 14:59:27.
