data_PCOD9454223
_publ_section_title
;
Structure prediction by ZEFSAII (Michael W. Deem and Ramdas Pophale) SiO2 
 PCOD9454223
Probable space group: P B C N
;
_chemical_formula_sum "Si O2"
_cell_formula_units_Z 64
_cell_length_a 9.331293
_cell_length_b 19.703545
_cell_length_c 15.548039
_cell_angle_alpha 90.000000
_cell_angle_beta 90.000000
_cell_angle_gamma 90.000000
_cell_volume 2858.655478
_symmetry_space_group_name_H-M "P B C N"
_symmetry_group_IT_number 60
_symmetry_cell_setting 'orthorhombic'
loop_
_space_group_symop_operation_xyz
x,y,z
1/2-x,1/2-y,1/2+z
1/2+x,1/2-y,-z
-x,y,1/2-z
-x,-y,-z
1/2+x,1/2+y,1/2-z
1/2-x,1/2+y,z
x,-y,1/2+z
loop_
_atom_site_type_symbol
_atom_site_label
_atom_site_fract_x
_atom_site_fract_y
_atom_site_fract_z
Si Si1 0.738022 0.799440 0.949005
Si Si2 0.347141 0.830020 0.358279
Si Si3 0.895949 0.430228 0.396002
Si Si4 0.028933 0.181356 0.345146
Si Si5 0.475174 0.820501 0.841121
Si Si6 0.172001 0.065907 0.755333
Si Si7 0.099868 0.526521 0.330121
Si Si8 0.259135 0.835835 0.971179
O O1 0.889614 0.806389 0.902989
O O2 0.627016 0.832598 0.883643
O O3 0.709421 0.830545 0.043145
O O4 0.703302 0.719033 0.960010
O O5 0.493530 0.874175 0.356939
O O6 0.391861 0.754047 0.332437
O O7 0.229533 0.863887 0.296992
O O8 0.756317 0.441014 0.335640
O O9 0.837645 0.397209 0.483123
O O10 0.999332 0.495314 0.404015
O O11 0.000000 0.153078 0.250000
O O12 0.134947 0.141038 0.407655
O O13 0.500000 0.784993 0.750000
O O14 0.399490 0.892811 0.824634
O O15 0.375133 0.791720 0.916085
O O16 0.000000 0.061787 0.750000
O O17 0.247509 0.008866 0.816354
O O18 0.000000 0.503881 0.250000
#
# Coordination Sequence:
#
# PCOD9454223 Si02
#       8
#     8   8   8   8   8   8   8   8
#     4  11  22  39  59  88 129 161 220 269 311 394
#     4  10  20  38  60  89 123 171 210 263 334 390
#     4  10  18  39  62  92 130 163 210 271 336 376
#     4  11  22  37  55  82 126 174 205 262 329 383
#     4  11  22  43  67  95 120 173 226 259 317 400
#     4  10  21  37  64  99 128 167 215 273 332 401
#     4   8  19  39  67  93 128 168 218 270 322 389
#     4  11  22  38  59  91 127 167 207 271 326 381
#
# _framework density 22.388147
#
# number of rings (size 3 to 8) (size 9 to 14) (size 15 to 20)
#    0.000    1.750    2.500    3.375    1.750    0.500 
#    0.000    4.375    0.000    1.500    0.000    0.000 
#    0.000    0.000    0.000    0.000    0.000    0.000 
#
# Total GULP energy -357163.906600 kJ/mol
# GULP energy per Si atom -5580.686041 kJ/mol
# Density = 2.233719 g / cm^3
# Si number density = 22.388147 Si / 1000 Ang^3
#
#
#
# Elastic Constant Matrix: (Units=GPa)
#
#
# Indices 1 2 3 4 5 6 
#
# 1 174.0368 21.5159 47.4737 0.0000 0.0000 0.0000
# 2 21.5159 31.7283 -6.1786 0.0000 0.0000 0.0000
# 3 47.4737 -6.1786 112.9853 0.0000 0.0000 0.0000
# 4 0.0000 0.0000 0.0000 18.6303 0.0000 0.0000
# 5 0.0000 0.0000 0.0000 0.0000 44.0627 0.0000
# 6 0.0000 0.0000 0.0000 0.0000 0.0000 19.0783
#
#
#
# Elastic Compliance Matrix: (Units=1/GPa)
#
#
# Indices 1 2 3 4 5 6 
#
# 1 0.007376 -0.005666 -0.003409 0.000000 0.000000 0.000000
# 2 -0.005666 0.036209 0.004361 0.000000 0.000000 0.000000
# 3 -0.003409 0.004361 0.010522 0.000000 0.000000 0.000000
# 4 0.000000 0.000000 0.000000 0.053676 0.000000 0.000000
# 5 0.000000 0.000000 0.000000 0.000000 0.022695 0.000000
# 6 0.000000 0.000000 0.000000 0.000000 0.000000 0.052416
#
#
# Mechanical properties :
#
#
# Convention : Reuss Voigt Hill
#
# Bulk Modulus (GPa) = 22.38226 49.37472 35.87849
# Shear Modulus (GPa) = 24.12950 33.41688 28.77319
#
# Velocity S-wave (km/s) = 3.28652 3.86763 3.58885
# Velocity P-wave (km/s) = 4.94173 6.48433 5.76486
#
# Compressibility (1/GPa) = 0.04467823
#
# Stress axis : x y z
#
# Youngs Moduli (GPa) = 135.56836 27.61741 95.04216
#
# Poissons Ratio (x) = 0.15648 0.32402
# Poissons Ratio (y) = 0.76813 -0.41446
# Poissons Ratio (z) = 0.46218 -0.12043
#
# Static dielectric constant tensor:
#      x y z
#    x 1.854430 0.000000 0.000000 
#    y 0.000000 1.862450 0.000000 
#    z 0.000000 0.000000 1.935980 
# 
# From -- ./inp_files/15391.got.cif
#   From: 2010.05.17/outbox.cif.g08.bks.cpg/sg60_8_cif.got.tgz:15391.got - 2010.06.03 14:59:27.
