data_PCOD9454964
_publ_section_title
;
Structure prediction by ZEFSAII (Michael W. Deem and Ramdas Pophale) SiO2 
 PCOD9454964
Probable space group: P B C N
;
_chemical_formula_sum "Si O2"
_cell_formula_units_Z 60
_cell_length_a 14.833292
_cell_length_b 25.949871
_cell_length_c 9.012437
_cell_angle_alpha 90.000000
_cell_angle_beta 90.000000
_cell_angle_gamma 90.000000
_cell_volume 3469.085400
_symmetry_space_group_name_H-M "P B C N"
_symmetry_group_IT_number 60
_symmetry_cell_setting 'orthorhombic'
loop_
_space_group_symop_operation_xyz
x,y,z
1/2-x,1/2-y,1/2+z
1/2+x,1/2-y,-z
-x,y,1/2-z
-x,-y,-z
1/2+x,1/2+y,1/2-z
1/2-x,1/2+y,z
x,-y,1/2+z
loop_
_atom_site_type_symbol
_atom_site_label
_atom_site_fract_x
_atom_site_fract_y
_atom_site_fract_z
Si Si1 0.134237 0.981381 0.008952
Si Si2 0.292691 0.214122 0.390493
Si Si3 0.688855 0.808016 0.962254
Si Si4 0.818258 0.899786 0.942396
Si Si5 0.506479 0.346540 0.072664
Si Si6 0.671301 0.617539 0.091478
Si Si7 0.500000 0.506113 0.750000
Si Si8 0.006458 0.725815 0.428814
O O1 0.204760 0.936725 0.975108
O O2 0.078185 0.967281 0.156264
O O3 0.059468 0.978688 0.876788
O O4 0.174503 0.038899 0.024401
O O5 0.298818 0.209555 0.210801
O O6 0.246294 0.267543 0.439863
O O7 0.232433 0.166439 0.441841
O O8 0.391921 0.208346 0.461197
O O9 0.729765 0.865530 0.979605
O O10 0.581947 0.802069 0.993345
O O11 0.834033 0.890499 0.767572
O O12 0.901464 0.873462 0.025613
O O13 0.500000 0.350400 0.250000
O O14 0.504014 0.286161 0.032678
O O15 0.424474 0.371192 0.983076
O O16 0.000000 0.721653 0.250000
#
# Coordination Sequence:
#
# PCOD9454964 Si02
#       8
#     8   8   8   8   8   8   4   8
#     4  11  22  36  46  77 108 142 182 215 266 311
#     4  10  20  37  55  79 105 138 176 217 262 314
#     4  10  20  37  55  79 105 138 176 217 262 314
#     4  11  23  35  52  76 111 144 178 217 264 315
#     4  11  21  30  53  80 109 146 176 214 256 313
#     4  11  23  35  52  76 111 144 178 217 264 315
#     4  10  20  34  54  70 112 144 176 218 260 322
#     4   9  18  35  54  78 107 135 176 214 257 311
#
# _framework density 17.295625000000001
#
# number of rings (size 3 to 8) (size 9 to 14) (size 15 to 20)
#    0.000    1.600    4.000    2.000    3.733    0.000 
#    0.000    0.667    0.000    0.800    0.000    0.000 
#    0.000    0.000    0.000    0.000    0.000    0.133 
#
# Total GULP energy -334363.550754 kJ/mol
# GULP energy per Si atom -5572.725846 kJ/mol
# Density = 1.725626 g / cm^3
# Si number density = 17.295625 Si / 1000 Ang^3
#
#
#
# Elastic Constant Matrix: (Units=GPa)
#
#
# Indices 1 2 3 4 5 6 
#
# 1 48.3811 15.7207 5.3231 0.0000 0.0000 0.0000
# 2 15.7207 98.3325 21.5156 0.0000 0.0000 0.0000
# 3 5.3231 21.5156 41.0605 0.0000 0.0000 0.0000
# 4 0.0000 0.0000 0.0000 9.9200 0.0000 0.0000
# 5 0.0000 0.0000 0.0000 0.0000 10.1134 0.0000
# 6 0.0000 0.0000 0.0000 0.0000 0.0000 -29.2615
#
#
#
# Elastic Compliance Matrix: (Units=1/GPa)
#
#
# Indices 1 2 3 4 5 6 
#
# 1 0.021848 -0.003245 -0.001132 0.000000 0.000000 0.000000
# 2 -0.003245 0.011969 -0.005851 0.000000 0.000000 0.000000
# 3 -0.001132 -0.005851 0.027567 0.000000 0.000000 0.000000
# 4 0.000000 0.000000 0.000000 0.100807 0.000000 0.000000
# 5 0.000000 0.000000 0.000000 0.000000 0.098879 0.000000
# 6 0.000000 0.000000 0.000000 0.000000 0.000000 -0.034175
#
#
# Mechanical properties :
#
#
# Convention : Reuss Voigt Hill
#
# Bulk Modulus (GPa) = 24.43329 30.32142 27.37735
# Shear Modulus (GPa) = 19.15757 7.83534 13.49646
#
# Velocity S-wave (km/s) = 3.33175 2.13075 2.79649
# Velocity P-wave (km/s) = 5.38129 4.86033 5.12743
#
# Compressibility (1/GPa) = 0.04092778
#
# Stress axis : x y z
#
# Youngs Moduli (GPa) = 45.77020 83.55202 36.27548
#
# Poissons Ratio (x) = 0.27115 0.04106
# Poissons Ratio (y) = 0.14854 0.21224
# Poissons Ratio (z) = 0.05181 0.48885
#
# Static dielectric constant tensor:
#      x y z
#    x 1.586490 0.000000 0.000000 
#    y 0.000000 1.627040 0.000000 
#    z 0.000000 0.000000 1.611970 
# 
# From -- ./inp_files/6379.got.cif
#   From: 2010.05.17/outbox.cif.g08.bks.cpg/sg60_4_cif.got.tgz:6379.got - 2010.06.03 14:59:27.
