data_PCOD9454277
_publ_section_title
;
Structure prediction by ZEFSAII (Michael W. Deem and Ramdas Pophale) SiO2 
 PCOD9454277
Probable space group: P B C N
;
_chemical_formula_sum "Si O2"
_cell_formula_units_Z 60
_cell_length_a 20.234811
_cell_length_b 5.621153
_cell_length_c 28.112708
_cell_angle_alpha 90.000000
_cell_angle_beta 90.000000
_cell_angle_gamma 90.000000
_cell_volume 3197.622862
_symmetry_space_group_name_H-M "P B C N"
_symmetry_group_IT_number 60
_symmetry_cell_setting 'orthorhombic'
loop_
_space_group_symop_operation_xyz
x,y,z
1/2-x,1/2-y,1/2+z
1/2+x,1/2-y,-z
-x,y,1/2-z
-x,-y,-z
1/2+x,1/2+y,1/2-z
1/2-x,1/2+y,z
x,-y,1/2+z
loop_
_atom_site_type_symbol
_atom_site_label
_atom_site_fract_x
_atom_site_fract_y
_atom_site_fract_z
Si Si1 0.588858 0.323890 0.028912
Si Si2 0.039392 0.928105 0.568368
Si Si3 0.783210 0.022427 0.690752
Si Si4 0.784361 0.998517 0.575911
Si Si5 0.517390 0.350493 0.341320
Si Si6 0.912465 0.776352 0.691132
Si Si7 0.565522 0.036910 0.600869
Si Si8 0.000000 0.568315 0.250000
O O1 0.513924 0.394239 0.043844
O O2 0.641956 0.492568 0.054098
O O3 0.599672 0.070294 0.054364
O O4 0.589937 0.346084 0.972162
O O5 0.064959 0.055173 0.616591
O O6 0.993617 0.706868 0.584047
O O7 0.760206 0.288322 0.704909
O O8 0.785644 0.020908 0.633198
O O9 0.856235 0.953128 0.708550
O O10 0.749534 0.249315 0.561187
O O11 0.476378 0.576253 0.323966
O O12 0.466791 0.177315 0.368954
O O13 0.533637 0.216857 0.292731
O O14 0.888843 0.655818 0.641329
O O15 0.940794 0.586592 0.727652
#
# Coordination Sequence:
#
# PCOD9454277 Si02
#       8
#     8   8   8   8   8   8   8   4
#     4  10  19  30  48  72 104 144 179 227 259 322
#     4   9  18  31  48  75 104 136 178 219 280 312
#     4  10  22  34  53  77 109 149 184 220 266 328
#     4  10  22  35  50  75 108 151 192 221 264 319
#     4   9  18  32  49  74 104 131 170 217 275 339
#     4  10  20  33  50  76 107 139 176 224 279 340
#     4   9  17  28  48  71 103 135 169 215 267 323
#     4  10  20  32  56  76 104 140 172 228 290 350
#
# _framework density 18.763939000000001
#
# number of rings (size 3 to 8) (size 9 to 14) (size 15 to 20)
#    0.000    2.400    0.000    3.200   11.200    0.000 
#    0.000    0.000    0.000    0.000    0.000    1.867 
#    0.000    0.000    0.000    0.000    0.000    0.000 
#
# Total GULP energy -334035.358942 kJ/mol
# GULP energy per Si atom -5567.255982 kJ/mol
# Density = 1.872123 g / cm^3
# Si number density = 18.763939 Si / 1000 Ang^3
#
#
#
# Elastic Constant Matrix: (Units=GPa)
#
#
# Indices 1 2 3 4 5 6 
#
# 1 24.0271 -2.0120 0.4787 0.0000 0.0000 0.0000
# 2 -2.0120 65.1929 20.0204 0.0000 0.0000 0.0000
# 3 0.4787 20.0204 68.6673 0.0000 0.0000 0.0000
# 4 0.0000 0.0000 0.0000 19.9957 0.0000 0.0000
# 5 0.0000 0.0000 0.0000 0.0000 8.9889 0.0000
# 6 0.0000 0.0000 0.0000 0.0000 0.0000 18.0824
#
#
#
# Elastic Compliance Matrix: (Units=1/GPa)
#
#
# Indices 1 2 3 4 5 6 
#
# 1 0.041761 0.001514 -0.000733 0.000000 0.000000 0.000000
# 2 0.001514 0.016902 -0.004939 0.000000 0.000000 0.000000
# 3 -0.000733 -0.004939 0.016008 0.000000 0.000000 0.000000
# 4 0.000000 0.000000 0.000000 0.050011 0.000000 0.000000
# 5 0.000000 0.000000 0.000000 0.000000 0.111248 0.000000
# 6 0.000000 0.000000 0.000000 0.000000 0.000000 0.055302
#
#
# Mechanical properties :
#
#
# Convention : Reuss Voigt Hill
#
# Bulk Modulus (GPa) = 15.07002 21.65127 18.36064
# Shear Modulus (GPa) = 15.54407 18.70674 17.12541
#
# Velocity S-wave (km/s) = 2.88132 3.16088 3.02433
# Velocity P-wave (km/s) = 4.37243 4.98852 4.69060
#
# Compressibility (1/GPa) = 0.06635692
#
# Stress axis : x y z
#
# Youngs Moduli (GPa) = 23.94575 59.16307 62.46895
#
# Poissons Ratio (x) = -0.08956 0.04576
# Poissons Ratio (y) = -0.03625 0.30851
# Poissons Ratio (z) = 0.01754 0.29218
#
# Static dielectric constant tensor:
#      x y z
#    x 1.670120 0.000000 0.000000 
#    y 0.000000 1.757150 0.000000 
#    z 0.000000 0.000000 1.701600 
# 
# From -- ./inp_files/26235.got.cif
#   From: 2010.05.17/outbox.cif.g08.bks.cpg/sg60_14_cif.got.tgz:26235.got - 2010.06.03 14:59:27.
