data_PCOD9454969
_publ_section_title
;
Structure prediction by ZEFSAII (Michael W. Deem and Ramdas Pophale) SiO2 
 PCOD9454969
Probable space group: P B C N
;
_chemical_formula_sum "Si O2"
_cell_formula_units_Z 56
_cell_length_a 6.953424
_cell_length_b 21.839009
_cell_length_c 20.098822
_cell_angle_alpha 90.000000
_cell_angle_beta 90.000000
_cell_angle_gamma 90.000000
_cell_volume 3052.124489
_symmetry_space_group_name_H-M "P B C N"
_symmetry_group_IT_number 60
_symmetry_cell_setting 'orthorhombic'
loop_
_space_group_symop_operation_xyz
x,y,z
1/2-x,1/2-y,1/2+z
1/2+x,1/2-y,-z
-x,y,1/2-z
-x,-y,-z
1/2+x,1/2+y,1/2-z
1/2-x,1/2+y,z
x,-y,1/2+z
loop_
_atom_site_type_symbol
_atom_site_label
_atom_site_fract_x
_atom_site_fract_y
_atom_site_fract_z
Si Si1 0.580808 0.867189 0.099215
Si Si2 0.426814 0.342494 0.323005
Si Si3 0.316106 0.005476 0.427801
Si Si4 0.695488 0.702290 0.931220
Si Si5 0.015160 0.014180 0.671252
Si Si6 0.277571 0.955603 0.571121
Si Si7 0.640612 0.330560 0.977314
O O1 0.697729 0.844544 0.164283
O O2 0.589243 0.940339 0.093285
O O3 0.368806 0.841912 0.089949
O O4 0.716218 0.843263 0.039331
O O5 0.500000 0.328419 0.250000
O O6 0.536251 0.298239 0.373530
O O7 0.492156 0.412641 0.338360
O O8 0.238253 0.993952 0.502769
O O9 0.152347 0.016269 0.373645
O O10 0.491695 0.052710 0.429162
O O11 0.786632 0.768368 0.944127
O O12 0.575141 0.678412 0.995026
O O13 0.000000 0.001843 0.750000
O O14 0.208154 0.991006 0.636314
O O15 0.168608 0.891170 0.566189
#
# Coordination Sequence:
#
# PCOD9454969 Si02
#       7
#     8   8   8   8   8   8   8
#     4   9  18  33  54  82 108 137 174 221 279 323
#     4   9  20  35  55  81 107 141 186 228 271 326
#     4   9  19  34  56  85 110 139 182 231 277 331
#     4  11  19  35  56  77 110 142 178 233 276 329
#     4  10  20  36  56  81 115 149 181 224 279 338
#     4  10  20  34  54  82 113 144 184 227 282 336
#     4  10  21  33  54  80 106 139 183 224 277 328
#
# _framework density 18.347874999999998
#
# number of rings (size 3 to 8) (size 9 to 14) (size 15 to 20)
#    0.000    2.286    1.429    2.143    0.000    4.571 
#    0.000    4.286    6.286    0.000    0.000    0.000 
#    0.000    0.000    0.000    0.000    0.000    0.000 
#
# Total GULP energy -312257.449282 kJ/mol
# GULP energy per Si atom -5576.025880 kJ/mol
# Density = 1.830611 g / cm^3
# Si number density = 18.347875 Si / 1000 Ang^3
#
#
#
# Elastic Constant Matrix: (Units=GPa)
#
#
# Indices 1 2 3 4 5 6 
#
# 1 88.9279 22.4771 20.7183 0.0000 0.0000 0.0000
# 2 22.4771 45.6092 11.8557 0.0000 0.0000 0.0000
# 3 20.7183 11.8557 70.3167 0.0000 0.0000 0.0000
# 4 0.0000 0.0000 0.0000 16.9151 0.0000 0.0000
# 5 0.0000 0.0000 0.0000 0.0000 15.3502 0.0000
# 6 0.0000 0.0000 0.0000 0.0000 0.0000 25.2983
#
#
#
# Elastic Compliance Matrix: (Units=1/GPa)
#
#
# Indices 1 2 3 4 5 6 
#
# 1 0.013412 -0.005838 -0.002967 0.000000 0.000000 0.000000
# 2 -0.005838 0.025472 -0.002574 0.000000 0.000000 0.000000
# 3 -0.002967 -0.002574 0.015530 0.000000 0.000000 0.000000
# 4 0.000000 0.000000 0.000000 0.059119 0.000000 0.000000
# 5 0.000000 0.000000 0.000000 0.000000 0.065146 0.000000
# 6 0.000000 0.000000 0.000000 0.000000 0.000000 0.039528
#
#
# Mechanical properties :
#
#
# Convention : Reuss Voigt Hill
#
# Bulk Modulus (GPa) = 31.59230 34.99512 33.29371
# Shear Modulus (GPa) = 19.87930 21.49958 20.68944
#
# Velocity S-wave (km/s) = 3.29518 3.42683 3.36165
# Velocity P-wave (km/s) = 5.63325 5.89679 5.76652
#
# Compressibility (1/GPa) = 0.03165328
#
# Stress axis : x y z
#
# Youngs Moduli (GPa) = 74.55957 39.25895 64.39256
#
# Poissons Ratio (x) = 0.22921 0.19108
# Poissons Ratio (y) = 0.43531 0.16577
# Poissons Ratio (z) = 0.22125 0.10107
#
# Static dielectric constant tensor:
#      x y z
#    x 1.668450 0.000000 0.000000 
#    y 0.000000 1.630130 0.000000 
#    z 0.000000 0.000000 1.642930 
# 
# From -- ./inp_files/21737.got.cif
#   From: 2010.05.17/outbox.cif.g08.bks.cpg/sg60_11_cif.got.tgz:21737.got - 2010.06.03 14:59:27.
