data_PCOD9454330
_publ_section_title
;
Structure prediction by ZEFSAII (Michael W. Deem and Ramdas Pophale) SiO2 
 PCOD9454330
Probable space group: P B C N
;
_chemical_formula_sum "Si O2"
_cell_formula_units_Z 40
_cell_length_a 6.908646
_cell_length_b 16.146435
_cell_length_c 13.494881
_cell_angle_alpha 90.000000
_cell_angle_beta 90.000000
_cell_angle_gamma 90.000000
_cell_volume 1505.354024
_symmetry_space_group_name_H-M "P B C N"
_symmetry_group_IT_number 60
_symmetry_cell_setting 'orthorhombic'
loop_
_space_group_symop_operation_xyz
x,y,z
1/2-x,1/2-y,1/2+z
1/2+x,1/2-y,-z
-x,y,1/2-z
-x,-y,-z
1/2+x,1/2+y,1/2-z
1/2-x,1/2+y,z
x,-y,1/2+z
loop_
_atom_site_type_symbol
_atom_site_label
_atom_site_fract_x
_atom_site_fract_y
_atom_site_fract_z
Si Si1 0.309640 0.825203 0.927159
Si Si2 0.730005 0.866989 0.776410
Si Si3 0.664380 0.936363 0.965815
Si Si4 0.257778 0.641854 0.852447
Si Si5 0.198089 0.318119 0.147214
O O1 0.198588 0.873107 0.838250
O O2 0.527855 0.856540 0.945001
O O3 0.324169 0.731515 0.889861
O O4 0.220822 0.829823 0.036836
O O5 0.500000 0.863466 0.750000
O O6 0.759005 0.939898 0.856869
O O7 0.800425 0.778692 0.820358
O O8 0.800572 0.922553 0.060128
O O9 0.500000 0.000000 0.000000
O O10 0.301526 0.633780 0.736514
O O11 0.022394 0.649841 0.853457
#
# Coordination Sequence:
#
# PCOD9454330 Si02
#       5
#     8   8   8   8   8
#     4   9  17  31  48  70 102 134 170 211 257 318
#     4   9  17  30  48  73 101 133 169 211 264 309
#     4  10  19  32  49  76 107 134 170 220 274 309
#     4   9  17  30  50  73  98 133 176 212 260 315
#     4   9  16  29  49  74  97 131 174 217 251 310
#
# _framework density 26.571823999999999
#
# number of rings (size 3 to 8) (size 9 to 14) (size 15 to 20)
#    0.000    2.800    2.000    0.000    0.000    0.000 
#   21.600    0.000    0.000    1.200    0.000    0.000 
#    6.000    0.000    0.000    0.000    0.000    0.000 
#
# Total GULP energy -223006.177801 kJ/mol
# GULP energy per Si atom -5575.154445 kJ/mol
# Density = 2.651135 g / cm^3
# Si number density = 26.571824 Si / 1000 Ang^3
#
#
#
# Elastic Constant Matrix: (Units=GPa)
#
#
# Indices 1 2 3 4 5 6 
#
# 1 69.8971 -3.6354 -22.4985 0.0000 0.0000 0.0000
# 2 -3.6354 37.1082 29.6539 0.0000 0.0000 0.0000
# 3 -22.4985 29.6539 307.6194 0.0000 0.0000 0.0000
# 4 0.0000 0.0000 0.0000 15.9283 0.0000 0.0000
# 5 0.0000 0.0000 0.0000 0.0000 7.2216 0.0000
# 6 0.0000 0.0000 0.0000 0.0000 0.0000 33.2517
#
#
#
# Elastic Compliance Matrix: (Units=1/GPa)
#
#
# Indices 1 2 3 4 5 6 
#
# 1 0.014665 0.000628 0.001012 0.000000 0.000000 0.000000
# 2 0.000628 0.029224 -0.002771 0.000000 0.000000 0.000000
# 3 0.001012 -0.002771 0.003592 0.000000 0.000000 0.000000
# 4 0.000000 0.000000 0.000000 0.062781 0.000000 0.000000
# 5 0.000000 0.000000 0.000000 0.000000 0.138473 0.000000
# 6 0.000000 0.000000 0.000000 0.000000 0.000000 0.030074
#
#
# Mechanical properties :
#
#
# Convention : Reuss Voigt Hill
#
# Bulk Modulus (GPa) = 22.11464 46.85164 34.48314
# Shear Modulus (GPa) = 16.88361 38.68730 27.78545
#
# Velocity S-wave (km/s) = 2.52344 3.81983 3.23720
# Velocity P-wave (km/s) = 4.10256 6.09304 5.19404
#
# Compressibility (1/GPa) = 0.04521892
#
# Stress axis : x y z
#
# Youngs Moduli (GPa) = 68.18886 34.21808 278.40182
#
# Poissons Ratio (x) = -0.02149 -0.28175
# Poissons Ratio (y) = -0.04282 0.77152
# Poissons Ratio (z) = -0.06901 0.09483
#
# Static dielectric constant tensor:
#      x y z
#    x 2.118920 0.000000 0.000000 
#    y 0.000000 2.071380 0.000000 
#    z 0.000000 0.000000 2.437440 
# 
# From -- ./inp_files/10821.got.cif
#   From: 2010.05.17/outbox.cif.g08.bks.cpg/sg60_6_cif.got.tgz:10821.got - 2010.06.03 14:59:27.
