data_PCOD9454289
_publ_section_title
;
Structure prediction by ZEFSAII (Michael W. Deem and Ramdas Pophale) SiO2 
 PCOD9454289
Probable space group: P B C N
;
_chemical_formula_sum "Si O2"
_cell_formula_units_Z 56
_cell_length_a 24.003708
_cell_length_b 5.788308
_cell_length_c 14.240303
_cell_angle_alpha 90.000000
_cell_angle_beta 90.000000
_cell_angle_gamma 90.000000
_cell_volume 1978.559875
_symmetry_space_group_name_H-M "P B C N"
_symmetry_group_IT_number 60
_symmetry_cell_setting 'orthorhombic'
loop_
_space_group_symop_operation_xyz
x,y,z
1/2-x,1/2-y,1/2+z
1/2+x,1/2-y,-z
-x,y,1/2-z
-x,-y,-z
1/2+x,1/2+y,1/2-z
1/2-x,1/2+y,z
x,-y,1/2+z
loop_
_atom_site_type_symbol
_atom_site_label
_atom_site_fract_x
_atom_site_fract_y
_atom_site_fract_z
Si Si1 0.132857 0.369407 0.400027
Si Si2 0.371618 0.631012 0.894878
Si Si3 0.631285 0.631980 0.375608
Si Si4 0.138018 0.367959 0.623888
Si Si5 0.252739 0.626942 0.235834
Si Si6 0.000696 0.101030 0.603896
Si Si7 0.501853 0.096754 0.645679
O O1 0.152265 0.117742 0.362904
O O2 0.143862 0.368625 0.511323
O O3 0.066211 0.369943 0.385245
O O4 0.152104 0.620875 0.363222
O O5 0.436341 0.631396 0.865027
O O6 0.370335 0.632859 0.009691
O O7 0.611501 0.888303 0.345231
O O8 0.693860 0.627535 0.333956
O O9 0.609965 0.375371 0.348247
O O10 0.199204 0.368252 0.667526
O O11 0.250663 0.877045 0.286444
O O12 0.020258 0.368710 0.590956
O O13 0.021374 0.860150 0.650647
O O14 0.000000 0.000000 0.500000
O O15 0.500000 0.000394 0.750000
#
# Coordination Sequence:
#
# PCOD9454289 Si02
#       7
#     8   8   8   8   8   8   8
#     4   8  14  23  35  50  70  96 128 158 193 238
#     4   8  14  23  35  50  70  96 128 158 193 238
#     4   8  12  18  27  41  61  87 119 147 179 226
#     4   8  12  18  27  41  61  87 119 147 179 226
#     4   8  12  16  24  38  58  84 116 144 174 220
#     4  10  19  31  46  64  85 111 145 180 216 256
#     4  10  19  31  46  64  85 111 145 180 216 256
#
# _framework density 28.303417
#
# number of rings (size 3 to 8) (size 9 to 14) (size 15 to 20)
#    0.000    3.429    0.000    0.857    0.000    0.000 
#    0.000    0.000    0.000    0.000    0.000    0.000 
#    0.000    0.000    0.000    0.000    0.000  420.000 
#
# Total GULP energy -312783.356315 kJ/mol
# GULP energy per Si atom -5585.417077 kJ/mol
# Density = 2.823900 g / cm^3
# Si number density = 28.303417 Si / 1000 Ang^3
#
#
#
# Elastic Constant Matrix: (Units=GPa)
#
#
# Indices 1 2 3 4 5 6 
#
# 1 55.3438 98.5989 21.4809 0.0000 0.0000 0.0000
# 2 98.5989 424.7000 21.1912 0.0000 0.0000 0.0000
# 3 21.4809 21.1912 68.6959 0.0000 0.0000 0.0000
# 4 0.0000 0.0000 0.0000 46.7629 0.0000 0.0000
# 5 0.0000 0.0000 0.0000 0.0000 31.7407 0.0000
# 6 0.0000 0.0000 0.0000 0.0000 0.0000 75.4436
#
#
#
# Elastic Compliance Matrix: (Units=1/GPa)
#
#
# Indices 1 2 3 4 5 6 
#
# 1 0.035214 -0.007745 -0.008622 0.000000 0.000000 0.000000
# 2 -0.007745 0.004095 0.001159 0.000000 0.000000 0.000000
# 3 -0.008622 0.001159 0.016896 0.000000 0.000000 0.000000
# 4 0.000000 0.000000 0.000000 0.021384 0.000000 0.000000
# 5 0.000000 0.000000 0.000000 0.000000 0.031505 0.000000
# 6 0.000000 0.000000 0.000000 0.000000 0.000000 0.013255
#
#
# Mechanical properties :
#
#
# Convention : Reuss Voigt Hill
#
# Bulk Modulus (GPa) = 38.77861 92.36462 65.57161
# Shear Modulus (GPa) = 30.98634 57.95401 44.47018
#
# Velocity S-wave (km/s) = 3.31235 4.52995 3.96813
# Velocity P-wave (km/s) = 5.32538 7.75017 6.64924
#
# Compressibility (1/GPa) = 0.02578741
#
# Stress axis : x y z
#
# Youngs Moduli (GPa) = 28.39802 244.20680 59.18720
#
# Poissons Ratio (x) = 1.89139 0.51031
# Poissons Ratio (y) = 0.21994 -0.06858
# Poissons Ratio (z) = 0.24485 -0.28295
#
# Static dielectric constant tensor:
#      x y z
#    x 2.206590 0.000000 0.000000 
#    y 0.000000 2.780850 0.000000 
#    z 0.000000 0.000000 2.172170 
# 
# From -- ./inp_files/18173.got.cif
#   From: 2010.05.17/outbox.cif.g08.bks.cpg/sg60_10_cif.got.tgz:18173.got - 2010.06.03 14:59:27.
