data_PCOD9454433
_publ_section_title
;
Structure prediction by ZEFSAII (Michael W. Deem and Ramdas Pophale) SiO2 
 PCOD9454433
Probable space group: P B C N
;
_chemical_formula_sum "Si O2"
_cell_formula_units_Z 60
_cell_length_a 5.123641
_cell_length_b 21.289325
_cell_length_c 27.848214
_cell_angle_alpha 90.000000
_cell_angle_beta 90.000000
_cell_angle_gamma 90.000000
_cell_volume 3037.651392
_symmetry_space_group_name_H-M "P B C N"
_symmetry_group_IT_number 60
_symmetry_cell_setting 'orthorhombic'
loop_
_space_group_symop_operation_xyz
x,y,z
1/2-x,1/2-y,1/2+z
1/2+x,1/2-y,-z
-x,y,1/2-z
-x,-y,-z
1/2+x,1/2+y,1/2-z
1/2-x,1/2+y,z
x,-y,1/2+z
loop_
_atom_site_type_symbol
_atom_site_label
_atom_site_fract_x
_atom_site_fract_y
_atom_site_fract_z
Si Si1 0.165063 0.277631 0.326033
Si Si2 0.241797 0.586188 0.782413
Si Si3 0.373972 0.915558 0.610332
Si Si4 0.235647 0.320338 0.535565
Si Si5 0.161215 0.693657 0.189003
Si Si6 0.500000 0.605194 0.250000
Si Si7 0.763787 0.739764 0.563190
Si Si8 0.378565 0.526469 0.345401
O O1 0.180708 0.343635 0.299484
O O2 0.392105 0.231141 0.307493
O O3 0.207817 0.284684 0.383058
O O4 0.888108 0.244819 0.318015
O O5 0.500000 0.585723 0.750000
O O6 0.296629 0.542371 0.828238
O O7 0.000000 0.562237 0.750000
O O8 0.316255 0.888722 0.557562
O O9 0.350560 0.853213 0.643572
O O10 0.657400 0.943261 0.621119
O O11 0.155376 0.964123 0.628717
O O12 0.217587 0.312921 0.478135
O O13 0.511273 0.291473 0.552721
O O14 0.011291 0.274299 0.555859
O O15 0.267385 0.648260 0.230507
O O16 0.401157 0.564539 0.294960
#
# Coordination Sequence:
#
# PCOD9454433 Si02
#       8
#     8   8   8   8   8   4   8   8
#     4  12  23  40  57  85 121 153 192 237 283 351
#     4  12  27  45  60  79 113 164 210 235 272 346
#     4  11  20  37  60  90 114 147 184 255 286 349
#     4  10  19  33  58  89 121 150 185 229 302 364
#     4  11  23  35  57  86 118 145 185 237 305 344
#     4  10  24  38  56  86 114 154 182 256 294 348
#     4  10  19  35  56  85 124 157 182 229 293 371
#     4  11  24  40  60  78 114 154 203 237 289 332
#
# _framework density 19.752102000000001
#
# number of rings (size 3 to 8) (size 9 to 14) (size 15 to 20)
#    0.000    1.067    3.333    4.000    4.667    2.133 
#    0.000    0.000    0.000    1.600    0.000    0.000 
#    0.000    0.000    0.000    0.000    0.000    0.000 
#
# Total GULP energy -335572.856977 kJ/mol
# GULP energy per Si atom -5592.880950 kJ/mol
# Density = 1.970715 g / cm^3
# Si number density = 19.752102 Si / 1000 Ang^3
#
#
#
# Elastic Constant Matrix: (Units=GPa)
#
#
# Indices 1 2 3 4 5 6 
#
# 1 55.0480 7.0985 9.3125 0.0000 0.0000 0.0000
# 2 7.0985 53.5022 -12.1444 0.0000 0.0000 0.0000
# 3 9.3125 -12.1444 37.5252 0.0000 0.0000 0.0000
# 4 0.0000 0.0000 0.0000 0.9294 0.0000 0.0000
# 5 0.0000 0.0000 0.0000 0.0000 21.8066 0.0000
# 6 0.0000 0.0000 0.0000 0.0000 0.0000 13.0532
#
#
#
# Elastic Compliance Matrix: (Units=1/GPa)
#
#
# Indices 1 2 3 4 5 6 
#
# 1 0.019734 -0.004026 -0.006200 0.000000 0.000000 0.000000
# 2 -0.004026 0.020994 0.007793 0.000000 0.000000 0.000000
# 3 -0.006200 0.007793 0.030710 0.000000 0.000000 0.000000
# 4 0.000000 0.000000 0.000000 1.075996 0.000000 0.000000
# 5 0.000000 0.000000 0.000000 0.000000 0.045858 0.000000
# 6 0.000000 0.000000 0.000000 0.000000 0.000000 0.076609
#
#
# Mechanical properties :
#
#
# Convention : Reuss Voigt Hill
#
# Bulk Modulus (GPa) = 15.02116 17.17874 16.09995
# Shear Modulus (GPa) = 3.85518 16.61176 10.23347
#
# Velocity S-wave (km/s) = 1.39858 2.90317 2.27864
# Velocity P-wave (km/s) = 3.19834 4.46698 3.88480
#
# Compressibility (1/GPa) = 0.06657275
#
# Stress axis : x y z
#
# Youngs Moduli (GPa) = 50.67413 47.63282 32.56308
#
# Poissons Ratio (x) = 0.19175 0.20190
# Poissons Ratio (y) = 0.20399 -0.25378
# Poissons Ratio (z) = 0.31419 -0.37122
#
# Static dielectric constant tensor:
#      x y z
#    x 1.690160 0.000000 0.000000 
#    y 0.000000 1.677090 0.000000 
#    z 0.000000 0.000000 1.737430 
# 
# From -- ./inp_files/25794.got.cif
#   From: 2010.05.17/outbox.cif.g08.bks.cpg/sg60_13_cif.got.tgz:25794.got - 2010.06.03 14:59:27.
