data_PCOD9454394
_publ_section_title
;
Structure prediction by ZEFSAII (Michael W. Deem and Ramdas Pophale) SiO2 
 PCOD9454394
Probable space group: P B C N
;
_chemical_formula_sum "Si O2"
_cell_formula_units_Z 64
_cell_length_a 22.206694
_cell_length_b 27.228123
_cell_length_c 5.467707
_cell_angle_alpha 90.000000
_cell_angle_beta 90.000000
_cell_angle_gamma 90.000000
_cell_volume 3306.030424
_symmetry_space_group_name_H-M "P B C N"
_symmetry_group_IT_number 60
_symmetry_cell_setting 'orthorhombic'
loop_
_space_group_symop_operation_xyz
x,y,z
1/2-x,1/2-y,1/2+z
1/2+x,1/2-y,-z
-x,y,1/2-z
-x,-y,-z
1/2+x,1/2+y,1/2-z
1/2-x,1/2+y,z
x,-y,1/2+z
loop_
_atom_site_type_symbol
_atom_site_label
_atom_site_fract_x
_atom_site_fract_y
_atom_site_fract_z
Si Si1 0.569825 0.790233 0.668782
Si Si2 0.570120 0.678718 0.785770
Si Si3 0.863578 0.691003 0.669485
Si Si4 0.374025 0.514592 0.104090
Si Si5 0.257655 0.873325 0.147110
Si Si6 0.658516 0.383493 0.000961
Si Si7 0.761759 0.523276 0.005845
Si Si8 0.670155 0.301647 0.637703
O O1 0.500000 0.795723 0.750000
O O2 0.583426 0.731689 0.663168
O O3 0.589086 0.808098 0.398115
O O4 0.607476 0.812005 0.898525
O O5 0.500000 0.671697 0.750000
O O6 0.604135 0.633336 0.669362
O O7 0.601731 0.685981 0.048710
O O8 0.816701 0.648498 0.731341
O O9 0.828162 0.743522 0.667888
O O10 0.404500 0.489451 0.336666
O O11 0.362862 0.571872 0.163569
O O12 0.309314 0.490230 0.031986
O O13 0.214826 0.900334 0.341493
O O14 0.269826 0.917970 0.961455
O O15 0.217970 0.827571 0.044372
O O16 0.679881 0.333508 0.876547
O O17 0.787180 0.503753 0.746476
#
# Coordination Sequence:
#
# PCOD9454394 Si02
#       8
#     8   8   8   8   8   8   8   8
#     4  10  21  42  61  80 113 156 198 242 278 328
#     4   9  20  36  54  78 103 142 204 246 273 324
#     4  11  24  37  56  88 119 155 192 232 284 352
#     4  10  19  33  53  74 100 141 189 226 278 338
#     4  11  24  33  55  83 124 153 185 236 293 362
#     4  11  20  34  55  78 107 151 187 232 290 339
#     4  10  19  35  53  77 106 153 192 231 279 339
#     4  10  22  34  52  79 117 157 186 226 295 345
#
# _framework density 19.358564999999999
#
# number of rings (size 3 to 8) (size 9 to 14) (size 15 to 20)
#    0.000    1.750    3.750    1.875    5.250    0.500 
#    0.000    0.000    0.000    0.750    0.000    0.000 
#    0.000   10.000    0.000    0.000    0.000    0.000 
#
# Total GULP energy -356446.651440 kJ/mol
# GULP energy per Si atom -5569.478929 kJ/mol
# Density = 1.931450 g / cm^3
# Si number density = 19.358565 Si / 1000 Ang^3
#
#
#
# Elastic Constant Matrix: (Units=GPa)
#
#
# Indices 1 2 3 4 5 6 
#
# 1 49.5187 25.9247 10.9116 0.0000 0.0000 0.0000
# 2 25.9247 59.6734 12.4018 0.0000 0.0000 0.0000
# 3 10.9116 12.4018 81.5034 0.0000 0.0000 0.0000
# 4 0.0000 0.0000 0.0000 -16.5243 0.0000 0.0000
# 5 0.0000 0.0000 0.0000 0.0000 5.4950 0.0000
# 6 0.0000 0.0000 0.0000 0.0000 0.0000 2.4797
#
#
#
# Elastic Compliance Matrix: (Units=1/GPa)
#
#
# Indices 1 2 3 4 5 6 
#
# 1 0.026407 -0.011088 -0.001848 0.000000 0.000000 0.000000
# 2 -0.011088 0.021961 -0.001857 0.000000 0.000000 0.000000
# 3 -0.001848 -0.001857 0.012799 0.000000 0.000000 0.000000
# 4 0.000000 0.000000 0.000000 -0.060517 0.000000 0.000000
# 5 0.000000 0.000000 0.000000 0.000000 0.181983 0.000000
# 6 0.000000 0.000000 0.000000 0.000000 0.000000 0.403273
#
#
# Mechanical properties :
#
#
# Convention : Reuss Voigt Hill
#
# Bulk Modulus (GPa) = 31.66528 32.13017 31.89773
# Shear Modulus (GPa) = 7.98696 7.72056 7.85376
#
# Velocity S-wave (km/s) = 2.03341 1.99921 2.01638
# Velocity P-wave (km/s) = 4.68036 4.68642 4.68339
#
# Compressibility (1/GPa) = 0.03158033
#
# Stress axis : x y z
#
# Youngs Moduli (GPa) = 37.86927 45.53526 78.12835
#
# Poissons Ratio (x) = 0.50490 0.14439
# Poissons Ratio (y) = 0.41990 0.14510
# Poissons Ratio (z) = 0.06999 0.08457
#
# Static dielectric constant tensor:
#      x y z
#    x 1.670000 0.000000 0.000000 
#    y 0.000000 1.673880 0.000000 
#    z 0.000000 0.000000 1.834260 
# 
# From -- ./inp_files/2456.got.cif
#   From: 2010.05.17/outbox.cif.g08.bks.cpg/sg60_2_cif.got.tgz:2456.got - 2010.06.03 14:59:27.
