data_PCOD9454400
_publ_section_title
;
Structure prediction by ZEFSAII (Michael W. Deem and Ramdas Pophale) SiO2 
 PCOD9454400
Probable space group: P B C N
;
_chemical_formula_sum "Si O2"
_cell_formula_units_Z 48
_cell_length_a 10.050634
_cell_length_b 16.962061
_cell_length_c 15.776337
_cell_angle_alpha 90.000000
_cell_angle_beta 90.000000
_cell_angle_gamma 90.000000
_cell_volume 2689.541523
_symmetry_space_group_name_H-M "P B C N"
_symmetry_group_IT_number 60
_symmetry_cell_setting 'orthorhombic'
loop_
_space_group_symop_operation_xyz
x,y,z
1/2-x,1/2-y,1/2+z
1/2+x,1/2-y,-z
-x,y,1/2-z
-x,-y,-z
1/2+x,1/2+y,1/2-z
1/2-x,1/2+y,z
x,-y,1/2+z
loop_
_atom_site_type_symbol
_atom_site_label
_atom_site_fract_x
_atom_site_fract_y
_atom_site_fract_z
Si Si1 0.289187 0.092210 0.432092
Si Si2 0.664091 0.564534 0.490090
Si Si3 0.417733 0.333997 0.055204
Si Si4 0.113147 0.967484 0.178076
Si Si5 0.921865 0.350644 0.924604
Si Si6 0.356103 0.061753 0.244484
O O1 0.194974 0.151934 0.483417
O O2 0.444630 0.104465 0.456241
O O3 0.299666 0.099292 0.330628
O O4 0.223973 0.007904 0.455516
O O5 0.550728 0.618478 0.530004
O O6 0.600737 0.524747 0.404922
O O7 0.791263 0.618530 0.471627
O O8 0.374655 0.379716 0.140613
O O9 0.442360 0.242144 0.066727
O O10 0.000000 0.974176 0.250000
O O11 0.250200 0.997823 0.216293
O O12 0.887370 0.373746 0.827528
O O13 0.500000 0.021098 0.250000
#
# Coordination Sequence:
#
# PCOD9454400 Si02
#       6
#     8   8   8   8   8   8
#     4  10  19  36  56  76 103 141 181 216 256 315
#     4  10  20  35  55  78 103 140 181 213 256 315
#     4  11  21  34  54  82 109 136 173 221 267 311
#     4  10  19  33  54  77 104 137 176 219 259 310
#     4  10  21  35  54  78 109 138 170 218 270 312
#     4   9  19  35  54  75 102 140 178 215 261 315
#
# _framework density 17.846909
#
# number of rings (size 3 to 8) (size 9 to 14) (size 15 to 20)
#    0.000    2.000    0.000    5.500    0.000    3.333 
#    0.000    1.667    0.000    4.000    0.000    0.000 
#    0.000    0.000    0.000    0.000    0.000    0.000 
#
# Total GULP energy -267402.446850 kJ/mol
# GULP energy per Si atom -5570.884309 kJ/mol
# Density = 1.780629 g / cm^3
# Si number density = 17.846909 Si / 1000 Ang^3
#
#
#
# Elastic Constant Matrix: (Units=GPa)
#
#
# Indices 1 2 3 4 5 6 
#
# 1 144.5509 55.7964 63.8915 0.0000 0.0000 0.0000
# 2 55.7964 80.3409 20.1801 0.0000 0.0000 0.0000
# 3 63.8915 20.1801 73.9353 0.0000 0.0000 0.0000
# 4 0.0000 0.0000 0.0000 -4.0717 0.0000 0.0000
# 5 0.0000 0.0000 0.0000 0.0000 30.9987 0.0000
# 6 0.0000 0.0000 0.0000 0.0000 0.0000 -20.2139
#
#
#
# Elastic Compliance Matrix: (Units=1/GPa)
#
#
# Indices 1 2 3 4 5 6 
#
# 1 0.014352 -0.007356 -0.010394 0.000000 0.000000 0.000000
# 2 -0.007356 0.017134 0.001681 0.000000 0.000000 0.000000
# 3 -0.010394 0.001681 0.022049 0.000000 0.000000 0.000000
# 4 0.000000 0.000000 0.000000 -0.245601 0.000000 0.000000
# 5 0.000000 0.000000 0.000000 0.000000 0.032259 0.000000
# 6 0.000000 0.000000 0.000000 0.000000 0.000000 -0.049471
#
#
# Mechanical properties :
#
#
# Convention : Reuss Voigt Hill
#
# Bulk Modulus (GPa) = 46.74167 64.28479 55.51323
# Shear Modulus (GPa) = -29.41078 11.93990 -8.73544
#
# Velocity S-wave (km/s) = -4.06390 2.58934 -2.21479
# Velocity P-wave (km/s) = 2.05593 6.71103 4.96310
#
# Compressibility (1/GPa) = 0.02139419
#
# Stress axis : x y z
#
# Youngs Moduli (GPa) = 69.67750 58.36399 45.35365
#
# Poissons Ratio (x) = 0.42935 0.47142
# Poissons Ratio (y) = 0.51258 -0.07622
# Poissons Ratio (z) = 0.72425 -0.09808
#
# Static dielectric constant tensor:
#      x y z
#    x 1.624260 0.000000 0.000000 
#    y 0.000000 1.573960 0.000000 
#    z 0.000000 0.000000 1.671920 
# 
# From -- ./inp_files/19451.got.cif
#   From: 2010.05.17/outbox.cif.g08.bks.cpg/sg60_10_cif.got.tgz:19451.got - 2010.06.03 14:59:27.
