data_PCOD9454745
_publ_section_title
;
Structure prediction by ZEFSAII (Michael W. Deem and Ramdas Pophale) SiO2 
 PCOD9454745
Probable space group: P B C N
;
_chemical_formula_sum "Si O2"
_cell_formula_units_Z 64
_cell_length_a 16.143028
_cell_length_b 13.151261
_cell_length_c 14.844966
_cell_angle_alpha 90.000000
_cell_angle_beta 90.000000
_cell_angle_gamma 90.000000
_cell_volume 3151.603718
_symmetry_space_group_name_H-M "P B C N"
_symmetry_group_IT_number 60
_symmetry_cell_setting 'orthorhombic'
loop_
_space_group_symop_operation_xyz
x,y,z
1/2-x,1/2-y,1/2+z
1/2+x,1/2-y,-z
-x,y,1/2-z
-x,-y,-z
1/2+x,1/2+y,1/2-z
1/2-x,1/2+y,z
x,-y,1/2+z
loop_
_atom_site_type_symbol
_atom_site_label
_atom_site_fract_x
_atom_site_fract_y
_atom_site_fract_z
Si Si1 0.392533 0.424122 0.576665
Si Si2 0.724768 0.921182 0.820500
Si Si3 0.221792 0.703214 0.744715
Si Si4 0.645905 0.981690 0.001223
Si Si5 0.076313 0.923599 0.910859
Si Si6 0.572382 0.199112 0.613886
Si Si7 0.772109 0.975544 0.156561
Si Si8 0.387374 0.187717 0.581559
O O1 0.314363 0.452936 0.637516
O O2 0.406745 0.497858 0.491883
O O3 0.482318 0.430691 0.624523
O O4 0.377633 0.305116 0.549208
O O5 0.736418 0.807852 0.784057
O O6 0.706963 0.984590 0.730738
O O7 0.661734 0.937169 0.901737
O O8 0.138513 0.710569 0.805650
O O9 0.283883 0.637763 0.806431
O O10 0.188020 0.662311 0.648972
O O11 0.592493 0.900583 0.056176
O O12 0.730926 0.982511 0.058968
O O13 0.612976 0.096765 0.990755
O O14 0.084859 0.805826 0.939418
O O15 0.146828 0.955382 0.840834
O O16 0.475003 0.189822 0.634097
#
# Coordination Sequence:
#
# PCOD9454745 Si02
#       8
#     8   8   8   8   8   8   8   8
#     4   9  21  35  60  86 114 158 193 245 293 355
#     4  11  21  38  57  88 121 156 196 245 303 352
#     4  10  21  36  58  89 115 152 200 245 297 353
#     4  11  23  37  60  89 121 158 198 244 303 354
#     4  10  19  38  58  87 119 148 201 242 299 354
#     4  10  21  36  60  87 116 158 198 246 291 357
#     4  11  22  36  58  87 121 153 193 250 297 356
#     4  10  20  38  59  83 120 153 201 244 294 351
#
# _framework density 20.307122
#
# number of rings (size 3 to 8) (size 9 to 14) (size 15 to 20)
#    0.000    1.750    3.750    0.750    0.000    4.500 
#    0.000    0.000    0.000    0.000    0.000    0.000 
#    0.000    0.000    0.000    0.000    0.000    0.000 
#
# Total GULP energy -356468.305634 kJ/mol
# GULP energy per Si atom -5569.817276 kJ/mol
# Density = 2.026090 g / cm^3
# Si number density = 20.307122 Si / 1000 Ang^3
#
#
#
# Elastic Constant Matrix: (Units=GPa)
#
#
# Indices 1 2 3 4 5 6 
#
# 1 36.1399 14.1935 -11.7271 0.0000 0.0000 0.0000
# 2 14.1935 105.4618 28.0311 0.0000 0.0000 0.0000
# 3 -11.7271 28.0311 60.2682 0.0000 0.0000 0.0000
# 4 0.0000 0.0000 0.0000 34.1800 0.0000 0.0000
# 5 0.0000 0.0000 0.0000 0.0000 12.3112 0.0000
# 6 0.0000 0.0000 0.0000 0.0000 0.0000 22.5391
#
#
#
# Elastic Compliance Matrix: (Units=1/GPa)
#
#
# Indices 1 2 3 4 5 6 
#
# 1 0.033691 -0.007162 0.009887 0.000000 0.000000 0.000000
# 2 -0.007162 0.012342 -0.007134 0.000000 0.000000 0.000000
# 3 0.009887 -0.007134 0.021834 0.000000 0.000000 0.000000
# 4 0.000000 0.000000 0.000000 0.029257 0.000000 0.000000
# 5 0.000000 0.000000 0.000000 0.000000 0.081227 0.000000
# 6 0.000000 0.000000 0.000000 0.000000 0.000000 0.044367
#
#
# Mechanical properties :
#
#
# Convention : Reuss Voigt Hill
#
# Bulk Modulus (GPa) = 16.93502 29.20720 23.07111
# Shear Modulus (GPa) = 19.90279 25.23088 22.56683
#
# Velocity S-wave (km/s) = 3.13403 3.52868 3.33720
# Velocity P-wave (km/s) = 4.63182 5.56921 5.12201
#
# Compressibility (1/GPa) = 0.05904925
#
# Stress axis : x y z
#
# Youngs Moduli (GPa) = 29.68123 81.02265 45.79926
#
# Poissons Ratio (x) = 0.58030 -0.45281
# Poissons Ratio (y) = 0.21258 0.32674
# Poissons Ratio (z) = -0.29346 0.57802
#
# Static dielectric constant tensor:
#      x y z
#    x 1.759220 0.000000 0.000000 
#    y 0.000000 1.809660 0.000000 
#    z 0.000000 0.000000 1.733640 
# 
# From -- ./inp_files/17479.got.cif
#   From: 2010.05.17/outbox.cif.g08.bks.cpg/sg60_9_cif.got.tgz:17479.got - 2010.06.03 14:59:27.
