data_PCOD9454447
_publ_section_title
;
Structure prediction by ZEFSAII (Michael W. Deem and Ramdas Pophale) SiO2 
 PCOD9454447
Probable space group: P B C N
;
_chemical_formula_sum "Si O2"
_cell_formula_units_Z 48
_cell_length_a 15.067639
_cell_length_b 15.363494
_cell_length_c 7.736157
_cell_angle_alpha 90.000000
_cell_angle_beta 90.000000
_cell_angle_gamma 90.000000
_cell_volume 1790.855218
_symmetry_space_group_name_H-M "P B C N"
_symmetry_group_IT_number 60
_symmetry_cell_setting 'orthorhombic'
loop_
_space_group_symop_operation_xyz
x,y,z
1/2-x,1/2-y,1/2+z
1/2+x,1/2-y,-z
-x,y,1/2-z
-x,-y,-z
1/2+x,1/2+y,1/2-z
1/2-x,1/2+y,z
x,-y,1/2+z
loop_
_atom_site_type_symbol
_atom_site_label
_atom_site_fract_x
_atom_site_fract_y
_atom_site_fract_z
Si Si1 0.094333 0.886126 0.056681
Si Si2 0.281978 0.097769 0.897194
Si Si3 0.465931 0.251749 0.557703
Si Si4 0.185656 0.252274 0.819856
Si Si5 0.326495 0.460229 0.711933
Si Si6 0.575477 0.894775 0.857584
O O1 0.139702 0.815577 0.184747
O O2 0.093187 0.976615 0.157669
O O3 0.001445 0.845765 0.001379
O O4 0.150115 0.903381 0.879553
O O5 0.278118 0.200728 0.850715
O O6 0.251870 0.030451 0.751707
O O7 0.204673 0.087174 0.040007
O O8 0.373272 0.065713 0.980240
O O9 0.500000 0.237790 0.750000
O O10 0.364282 0.243801 0.504212
O O11 0.515436 0.181975 0.437908
O O12 0.157452 0.346465 0.743564
O O13 0.500000 0.945321 0.750000
#
# Coordination Sequence:
#
# PCOD9454447 Si02
#       6
#     8   8   8   8   8   8
#     4   9  17  33  49  70 107 140 168 213 259 307
#     4  10  19  36  55  77 106 139 176 220 265 313
#     4  10  19  34  52  75 105 134 169 217 268 324
#     4   9  19  33  52  77 103 133 173 220 270 321
#     4   9  19  33  52  77 105 140 183 216 251 318
#     4   9  20  37  55  78 108 138 175 224 274 321
#
# _framework density 26.802838000000001
#
# number of rings (size 3 to 8) (size 9 to 14) (size 15 to 20)
#    0.000    2.667    0.000    2.500    0.000    4.000 
#    0.000   30.000    0.000    0.000    0.000    0.000 
#    0.000    0.000    0.000    0.000    0.000    0.000 
#
# Total GULP energy -268087.781568 kJ/mol
# GULP energy per Si atom -5585.162116 kJ/mol
# Density = 2.674183 g / cm^3
# Si number density = 26.802838 Si / 1000 Ang^3
#
#
#
# Elastic Constant Matrix: (Units=GPa)
#
#
# Indices 1 2 3 4 5 6 
#
# 1 42.4981 3.7987 1.4850 0.0000 0.0000 0.0000
# 2 3.7987 42.9552 11.8907 0.0000 0.0000 0.0000
# 3 1.4850 11.8907 118.1582 0.0000 0.0000 0.0000
# 4 0.0000 0.0000 0.0000 33.4362 0.0000 0.0000
# 5 0.0000 0.0000 0.0000 0.0000 36.3389 0.0000
# 6 0.0000 0.0000 0.0000 0.0000 0.0000 21.3604
#
#
#
# Elastic Compliance Matrix: (Units=1/GPa)
#
#
# Indices 1 2 3 4 5 6 
#
# 1 0.023719 -0.002073 -0.000090 0.000000 0.000000 0.000000
# 2 -0.002073 0.024128 -0.002402 0.000000 0.000000 0.000000
# 3 -0.000090 -0.002402 0.008706 0.000000 0.000000 0.000000
# 4 0.000000 0.000000 0.000000 0.029908 0.000000 0.000000
# 5 0.000000 0.000000 0.000000 0.000000 0.027519 0.000000
# 6 0.000000 0.000000 0.000000 0.000000 0.000000 0.046816
#
#
# Mechanical properties :
#
#
# Convention : Reuss Voigt Hill
#
# Bulk Modulus (GPa) = 21.08613 26.44003 23.76308
# Shear Modulus (GPa) = 26.92051 30.65626 28.78838
#
# Velocity S-wave (km/s) = 3.17265 3.38563 3.28087
# Velocity P-wave (km/s) = 4.61575 5.01691 4.82051
#
# Compressibility (1/GPa) = 0.04742453
#
# Stress axis : x y z
#
# Youngs Moduli (GPa) = 42.16057 41.44515 114.86218
#
# Poissons Ratio (x) = 0.08591 0.01028
# Poissons Ratio (y) = 0.08739 0.27591
# Poissons Ratio (z) = 0.00377 0.09955
#
# Static dielectric constant tensor:
#      x y z
#    x 2.152340 0.000000 0.000000 
#    y 0.000000 2.128890 0.000000 
#    z 0.000000 0.000000 2.130900 
# 
# From -- ./inp_files/5923.got.cif
#   From: 2010.05.17/outbox.cif.g08.bks.cpg/sg60_3_cif.got.tgz:5923.got - 2010.06.03 14:59:27.
