data_PCOD9454090
_publ_section_title
;
Structure prediction by ZEFSAII (Michael W. Deem and Ramdas Pophale) SiO2 
 PCOD9454090
Probable space group: P B C N
;
_chemical_formula_sum "Si O2"
_cell_formula_units_Z 40
_cell_length_a 7.579564
_cell_length_b 24.868534
_cell_length_c 9.134407
_cell_angle_alpha 90.000000
_cell_angle_beta 90.000000
_cell_angle_gamma 90.000000
_cell_volume 1721.768536
_symmetry_space_group_name_H-M "P B C N"
_symmetry_group_IT_number 60
_symmetry_cell_setting 'orthorhombic'
loop_
_space_group_symop_operation_xyz
x,y,z
1/2-x,1/2-y,1/2+z
1/2+x,1/2-y,-z
-x,y,1/2-z
-x,-y,-z
1/2+x,1/2+y,1/2-z
1/2-x,1/2+y,z
x,-y,1/2+z
loop_
_atom_site_type_symbol
_atom_site_label
_atom_site_fract_x
_atom_site_fract_y
_atom_site_fract_z
Si Si1 0.135411 0.021276 0.378782
Si Si2 0.351025 0.187327 0.044179
Si Si3 0.254805 0.594666 0.860825
Si Si4 0.245836 0.716294 0.359307
Si Si5 0.158729 0.121052 0.551083
O O1 0.224544 0.074575 0.441036
O O2 0.000000 0.035527 0.250000
O O3 0.259317 0.969998 0.346975
O O4 0.000000 0.000000 0.500000
O O5 0.545139 0.204422 0.093307
O O6 0.235087 0.201242 0.188630
O O7 0.346272 0.126015 0.988578
O O8 0.291828 0.223503 0.906474
O O9 0.459802 0.606224 0.901771
O O10 0.228082 0.619365 0.699398
O O11 0.350706 0.676650 0.466424
#
# Coordination Sequence:
#
# PCOD9454090 Si02
#       5
#     8   8   8   8   8
#     4  10  18  34  57  92 125 158 199 243 288 349
#     4  11  25  42  61  85 121 152 202 248 303 362
#     4  10  20  37  59  91 122 155 197 249 289 351
#     4  11  25  42  60  88 116 157 198 250 301 364
#     4  10  21  35  61  91 121 155 201 242 295 351
#
# _framework density 23.231926999999999
#
# number of rings (size 3 to 8) (size 9 to 14) (size 15 to 20)
#    0.000    1.600    4.000    2.400    5.600    8.000 
#    0.000    1.000    0.000    0.000    0.000    0.000 
#    0.000    0.000    0.000    0.000    0.000    0.000 
#
# Total GULP energy -223474.209840 kJ/mol
# GULP energy per Si atom -5586.855246 kJ/mol
# Density = 2.317905 g / cm^3
# Si number density = 23.231927 Si / 1000 Ang^3
#
#
#
# Elastic Constant Matrix: (Units=GPa)
#
#
# Indices 1 2 3 4 5 6 
#
# 1 30.9767 2.8031 10.6976 0.0000 0.0000 0.0000
# 2 2.8031 103.7762 34.8796 0.0000 0.0000 0.0000
# 3 10.6976 34.8796 136.3904 0.0000 0.0000 0.0000
# 4 0.0000 0.0000 0.0000 36.4588 0.0000 0.0000
# 5 0.0000 0.0000 0.0000 0.0000 14.5515 0.0000
# 6 0.0000 0.0000 0.0000 0.0000 0.0000 1.3774
#
#
#
# Elastic Compliance Matrix: (Units=1/GPa)
#
#
# Indices 1 2 3 4 5 6 
#
# 1 0.033181 -0.000024 -0.002596 0.000000 0.000000 0.000000
# 2 -0.000024 0.010542 -0.002694 0.000000 0.000000 0.000000
# 3 -0.002596 -0.002694 0.008225 0.000000 0.000000 0.000000
# 4 0.000000 0.000000 0.000000 0.027428 0.000000 0.000000
# 5 0.000000 0.000000 0.000000 0.000000 0.068721 0.000000
# 6 0.000000 0.000000 0.000000 0.000000 0.000000 0.726001
#
#
# Mechanical properties :
#
#
# Convention : Reuss Voigt Hill
#
# Bulk Modulus (GPa) = 24.20164 40.87821 32.53992
# Shear Modulus (GPa) = 5.56483 25.32842 15.44663
#
# Velocity S-wave (km/s) = 1.54937 3.30546 2.58134
# Velocity P-wave (km/s) = 3.69334 5.67468 4.78763
#
# Compressibility (1/GPa) = 0.04131951
#
# Stress axis : x y z
#
# Youngs Moduli (GPa) = 30.13759 94.85617 121.58750
#
# Poissons Ratio (x) = 0.00224 0.31570
# Poissons Ratio (y) = 0.00071 0.32758
# Poissons Ratio (z) = 0.07825 0.25556
#
# Static dielectric constant tensor:
#      x y z
#    x 1.927480 0.000000 0.000000 
#    y 0.000000 1.966600 0.000000 
#    z 0.000000 0.000000 3.765500 
# 
# From -- ./inp_files/3810.got.cif
#   From: 2010.05.17/outbox.cif.g08.bks.cpg/sg60_2_cif.got.tgz:3810.got - 2010.06.03 14:59:27.
