data_PCOD9454614
_publ_section_title
;
Structure prediction by ZEFSAII (Michael W. Deem and Ramdas Pophale) SiO2 
 PCOD9454614
Probable space group: P B C N
;
_chemical_formula_sum "Si O2"
_cell_formula_units_Z 60
_cell_length_a 21.429855
_cell_length_b 13.075970
_cell_length_c 10.621856
_cell_angle_alpha 90.000000
_cell_angle_beta 90.000000
_cell_angle_gamma 90.000000
_cell_volume 2976.415499
_symmetry_space_group_name_H-M "P B C N"
_symmetry_group_IT_number 60
_symmetry_cell_setting 'orthorhombic'
loop_
_space_group_symop_operation_xyz
x,y,z
1/2-x,1/2-y,1/2+z
1/2+x,1/2-y,-z
-x,y,1/2-z
-x,-y,-z
1/2+x,1/2+y,1/2-z
1/2-x,1/2+y,z
x,-y,1/2+z
loop_
_atom_site_type_symbol
_atom_site_label
_atom_site_fract_x
_atom_site_fract_y
_atom_site_fract_z
Si Si1 0.500000 0.255438 0.750000
Si Si2 0.224567 0.497090 0.573644
Si Si3 0.168445 0.432276 0.331185
Si Si4 0.630964 0.562590 0.903802
Si Si5 0.300394 0.761170 0.628537
Si Si6 0.775056 0.214804 0.129793
Si Si7 0.606482 0.582885 0.181707
Si Si8 0.523040 0.054880 0.623038
O O1 0.440665 0.327754 0.774596
O O2 0.497296 0.171762 0.636461
O O3 0.206032 0.507510 0.426189
O O4 0.189229 0.554658 0.686728
O O5 0.298919 0.513619 0.586073
O O6 0.201657 0.381050 0.601636
O O7 0.182133 0.315368 0.364024
O O8 0.096791 0.447205 0.362520
O O9 0.641084 0.684871 0.885234
O O10 0.601855 0.507260 0.783469
O O11 0.596073 0.548520 0.036890
O O12 0.278038 0.758409 0.771720
O O13 0.256223 0.712446 0.517565
O O14 0.822125 0.126183 0.174504
O O15 0.500000 0.000354 0.750000
O O16 0.500000 0.000000 0.500000
#
# Coordination Sequence:
#
# PCOD9454614 Si02
#       8
#     4   8   8   8   8   8   8   8
#     4  10  24  44  70  86 124 174 218 278 330 370
#     4  11  22  35  57  92 129 156 196 253 315 389
#     4  11  21  35  59  90 121 159 201 246 320 379
#     4  11  23  39  62  92 125 172 207 258 323 398
#     4  10  22  33  55  85 127 158 197 242 307 386
#     4  10  19  36  55  84 120 159 194 248 308 387
#     4  11  23  42  65  87 123 169 223 268 324 377
#     4  10  21  41  66  92 124 167 218 264 323 382
#
# _framework density 20.158476
#
# number of rings (size 3 to 8) (size 9 to 14) (size 15 to 20)
#    0.400    1.067    4.000    1.600    3.733    0.533 
#    0.000    1.333    0.000    0.000    0.000    0.000 
#    0.000    0.000    0.000    0.000    0.000    0.000 
#
# Total GULP energy -334018.787468 kJ/mol
# GULP energy per Si atom -5566.979791 kJ/mol
# Density = 2.011259 g / cm^3
# Si number density = 20.158476 Si / 1000 Ang^3
#
#
#
# Elastic Constant Matrix: (Units=GPa)
#
#
# Indices 1 2 3 4 5 6 
#
# 1 44.7074 11.9439 34.9066 0.0000 0.0000 0.0000
# 2 11.9439 72.9106 25.3673 0.0000 0.0000 0.0000
# 3 34.9066 25.3673 136.7267 0.0000 0.0000 0.0000
# 4 0.0000 0.0000 0.0000 37.5861 0.0000 0.0000
# 5 0.0000 0.0000 0.0000 0.0000 16.6146 0.0000
# 6 0.0000 0.0000 0.0000 0.0000 0.0000 17.5188
#
#
#
# Elastic Compliance Matrix: (Units=1/GPa)
#
#
# Indices 1 2 3 4 5 6 
#
# 1 0.028283 -0.002267 -0.006800 0.000000 0.000000 0.000000
# 2 -0.002267 0.014844 -0.002175 0.000000 0.000000 0.000000
# 3 -0.006800 -0.002175 0.009453 0.000000 0.000000 0.000000
# 4 0.000000 0.000000 0.000000 0.026606 0.000000 0.000000
# 5 0.000000 0.000000 0.000000 0.000000 0.060188 0.000000
# 6 0.000000 0.000000 0.000000 0.000000 0.000000 0.057082
#
#
# Mechanical properties :
#
#
# Convention : Reuss Voigt Hill
#
# Bulk Modulus (GPa) = 33.22812 44.30893 38.76852
# Shear Modulus (GPa) = 21.83679 26.48569 24.16124
#
# Velocity S-wave (km/s) = 3.29486 3.62867 3.46579
# Velocity P-wave (km/s) = 5.56723 6.29161 5.94047
#
# Compressibility (1/GPa) = 0.03009499
#
# Stress axis : x y z
#
# Youngs Moduli (GPa) = 35.35733 67.36900 105.78126
#
# Poissons Ratio (x) = 0.15274 0.71931
# Poissons Ratio (y) = 0.08016 0.23009
# Poissons Ratio (z) = 0.24043 0.14654
#
# Static dielectric constant tensor:
#      x y z
#    x 1.722610 0.000000 0.000000 
#    y 0.000000 1.789680 0.000000 
#    z 0.000000 0.000000 1.843200 
# 
# From -- ./inp_files/7961.got.cif
#   From: 2010.05.17/outbox.cif.g08.bks.cpg/sg60_4_cif.got.tgz:7961.got - 2010.06.03 14:59:27.
