data_PCOD9454869
_publ_section_title
;
Structure prediction by ZEFSAII (Michael W. Deem and Ramdas Pophale) SiO2 
 PCOD9454869
Probable space group: P B C N
;
_chemical_formula_sum "Si O2"
_cell_formula_units_Z 64
_cell_length_a 18.982931
_cell_length_b 26.223899
_cell_length_c 8.078113
_cell_angle_alpha 90.000000
_cell_angle_beta 90.000000
_cell_angle_gamma 90.000000
_cell_volume 4021.336879
_symmetry_space_group_name_H-M "P B C N"
_symmetry_group_IT_number 60
_symmetry_cell_setting 'orthorhombic'
loop_
_space_group_symop_operation_xyz
x,y,z
1/2-x,1/2-y,1/2+z
1/2+x,1/2-y,-z
-x,y,1/2-z
-x,-y,-z
1/2+x,1/2+y,1/2-z
1/2-x,1/2+y,z
x,-y,1/2+z
loop_
_atom_site_type_symbol
_atom_site_label
_atom_site_fract_x
_atom_site_fract_y
_atom_site_fract_z
Si Si1 0.090604 0.564175 0.444251
Si Si2 0.372029 0.817550 0.000704
Si Si3 0.178155 0.514925 0.166718
Si Si4 0.454381 0.908466 0.416404
Si Si5 0.477883 0.801345 0.567108
Si Si6 0.833212 0.267417 0.842818
Si Si7 0.711009 0.927221 0.116884
Si Si8 0.770100 0.311610 0.187933
O O1 0.111020 0.621897 0.496523
O O2 0.126064 0.550408 0.271598
O O3 0.128395 0.522542 0.559620
O O4 0.006101 0.562826 0.455749
O O5 0.446902 0.787772 0.010596
O O6 0.337363 0.803965 0.821694
O O7 0.328154 0.805688 0.165442
O O8 0.225847 0.474813 0.265606
O O9 0.227507 0.553038 0.065223
O O10 0.500000 0.912675 0.250000
O O11 0.448440 0.849636 0.469121
O O12 0.375072 0.925511 0.388732
O O13 0.500000 0.820421 0.750000
O O14 0.414378 0.762399 0.596171
O O15 0.796489 0.217647 0.766493
O O16 0.792620 0.288705 0.007073
O O17 0.738985 0.872267 0.164217
#
# Coordination Sequence:
#
# PCOD9454869 Si02
#       8
#     8   8   8   8   8   8   8   8
#     4  10  20  31  44  64  92 126 171 214 244 287
#     4  10  20  37  52  74  99 131 174 214 250 310
#     4  10  21  32  44  63  91 131 172 210 258 278
#     4  11  19  29  43  64  90 128 165 212 249 284
#     4   9  20  33  50  72  94 128 170 210 254 304
#     4  11  22  34  54  74  96 131 171 213 263 307
#     4  11  21  33  46  64  92 127 170 211 253 293
#     4  12  21  36  53  74 100 131 174 214 262 306
#
# _framework density 15.915106
#
# number of rings (size 3 to 8) (size 9 to 14) (size 15 to 20)
#    0.000    1.500    5.000    1.500    3.500    3.000 
#    0.000    0.000    0.000    0.000    0.000    0.000 
#    0.000    0.000    0.000   10.125    2.250    0.125 
#
# Total GULP energy -356426.609047 kJ/mol
# GULP energy per Si atom -5569.165766 kJ/mol
# Density = 1.587888 g / cm^3
# Si number density = 15.915106 Si / 1000 Ang^3
#
#
#
# Elastic Constant Matrix: (Units=GPa)
#
#
# Indices 1 2 3 4 5 6 
#
# 1 43.2069 38.2609 23.9482 0.0000 0.0000 0.0000
# 2 38.2609 76.6757 33.0937 0.0000 0.0000 0.0000
# 3 23.9482 33.0937 81.4812 0.0000 0.0000 0.0000
# 4 0.0000 0.0000 0.0000 24.9373 0.0000 0.0000
# 5 0.0000 0.0000 0.0000 0.0000 18.6587 0.0000
# 6 0.0000 0.0000 0.0000 0.0000 0.0000 17.0080
#
#
#
# Elastic Compliance Matrix: (Units=1/GPa)
#
#
# Indices 1 2 3 4 5 6 
#
# 1 0.042933 -0.019373 -0.004750 0.000000 0.000000 0.000000
# 2 -0.019373 0.024556 -0.004280 0.000000 0.000000 0.000000
# 3 -0.004750 -0.004280 0.015407 0.000000 0.000000 0.000000
# 4 0.000000 0.000000 0.000000 0.040101 0.000000 0.000000
# 5 0.000000 0.000000 0.000000 0.000000 0.053594 0.000000
# 6 0.000000 0.000000 0.000000 0.000000 0.000000 0.058796
#
#
# Mechanical properties :
#
#
# Convention : Reuss Voigt Hill
#
# Bulk Modulus (GPa) = 38.32807 43.55215 40.94011
# Shear Modulus (GPa) = 16.61744 19.19152 17.90448
#
# Velocity S-wave (km/s) = 3.23481 3.47633 3.35774
# Velocity P-wave (km/s) = 6.17147 6.59832 6.38846
#
# Compressibility (1/GPa) = 0.02609054
#
# Stress axis : x y z
#
# Youngs Moduli (GPa) = 23.29232 40.72304 64.90570
#
# Poissons Ratio (x) = 0.78893 0.30830
# Poissons Ratio (y) = 0.45124 0.27777
# Poissons Ratio (z) = 0.11064 0.17428
#
# Static dielectric constant tensor:
#      x y z
#    x 1.534240 0.000000 0.000000 
#    y 0.000000 1.536140 0.000000 
#    z 0.000000 0.000000 1.669430 
# 
# From -- ./inp_files/7102.got.cif
#   From: 2010.05.17/outbox.cif.g08.bks.cpg/sg60_4_cif.got.tgz:7102.got - 2010.06.03 14:59:27.
