data_PCOD9454908
_publ_section_title
;
Structure prediction by ZEFSAII (Michael W. Deem and Ramdas Pophale) SiO2 
 PCOD9454908
Probable space group: P B C N
;
_chemical_formula_sum "Si O2"
_cell_formula_units_Z 60
_cell_length_a 26.520829
_cell_length_b 5.180786
_cell_length_c 16.705293
_cell_angle_alpha 90.000000
_cell_angle_beta 90.000000
_cell_angle_gamma 90.000000
_cell_volume 2295.286203
_symmetry_space_group_name_H-M "P B C N"
_symmetry_group_IT_number 60
_symmetry_cell_setting 'orthorhombic'
loop_
_space_group_symop_operation_xyz
x,y,z
1/2-x,1/2-y,1/2+z
1/2+x,1/2-y,-z
-x,y,1/2-z
-x,-y,-z
1/2+x,1/2+y,1/2-z
1/2-x,1/2+y,z
x,-y,1/2+z
loop_
_atom_site_type_symbol
_atom_site_label
_atom_site_fract_x
_atom_site_fract_y
_atom_site_fract_z
Si Si1 0.387816 0.633028 0.865430
Si Si2 0.234942 0.366268 0.053627
Si Si3 0.500000 0.680240 0.250000
Si Si4 0.414386 0.941074 0.720031
Si Si5 0.963340 0.901687 0.407454
Si Si6 0.127649 0.686472 0.586161
Si Si7 0.270690 0.464588 0.374372
Si Si8 0.077284 0.631561 0.956462
O O1 0.399514 0.700172 0.773571
O O2 0.327278 0.647302 0.875153
O O3 0.400882 0.357104 0.901876
O O4 0.421188 0.857480 0.909870
O O5 0.270679 0.150103 0.091855
O O6 0.181594 0.219969 0.058437
O O7 0.250588 0.453135 0.963538
O O8 0.495981 0.534169 0.164204
O O9 0.548338 0.860080 0.239146
O O10 0.446412 0.843447 0.644795
O O11 0.369930 0.095750 0.677906
O O12 0.917129 0.103706 0.420644
O O13 0.970286 0.766280 0.495976
O O14 0.116077 0.448084 0.526648
O O15 0.265292 0.748018 0.335661
#
# Coordination Sequence:
#
# PCOD9454908 Si02
#       8
#     8   8   4   8   8   8   8   8
#     4  12  24  42  67 105 143 183 229 290 360 409
#     4  10  20  32  57  91 125 173 226 280 323 383
#     4  10  22  48  72 102 134 186 238 278 366 430
#     4  10  25  42  73  99 139 183 229 291 353 435
#     4  10  22  43  74  99 135 183 236 287 343 441
#     4  10  21  41  66  97 132 186 238 278 335 413
#     4  10  20  36  59  91 133 184 225 272 333 406
#     4  11  22  39  68 101 136 176 229 282 338 418
#
# _framework density 26.140529999999998
#
# number of rings (size 3 to 8) (size 9 to 14) (size 15 to 20)
#    0.000    1.600    1.333    4.400    7.467    0.000 
#    0.000    2.667    0.000    0.000    0.000    0.000 
#    0.000    0.000    0.000    0.000    0.000    0.000 
#
# Total GULP energy -334545.541761 kJ/mol
# GULP energy per Si atom -5575.759029 kJ/mol
# Density = 2.608103 g / cm^3
# Si number density = 26.140530 Si / 1000 Ang^3
#
#
#
# Elastic Constant Matrix: (Units=GPa)
#
#
# Indices 1 2 3 4 5 6 
#
# 1 52.0141 0.6028 3.3523 0.0000 0.0000 0.0000
# 2 0.6028 169.3417 14.2921 0.0000 0.0000 0.0000
# 3 3.3523 14.2921 66.9619 0.0000 0.0000 0.0000
# 4 0.0000 0.0000 0.0000 70.3759 0.0000 0.0000
# 5 0.0000 0.0000 0.0000 0.0000 19.0287 0.0000
# 6 0.0000 0.0000 0.0000 0.0000 0.0000 35.2576
#
#
#
# Elastic Compliance Matrix: (Units=1/GPa)
#
#
# Indices 1 2 3 4 5 6 
#
# 1 0.019288 0.000013 -0.000968 0.000000 0.000000 0.000000
# 2 0.000013 0.006014 -0.001284 0.000000 0.000000 0.000000
# 3 -0.000968 -0.001284 0.015256 0.000000 0.000000 0.000000
# 4 0.000000 0.000000 0.000000 0.014209 0.000000 0.000000
# 5 0.000000 0.000000 0.000000 0.000000 0.052552 0.000000
# 6 0.000000 0.000000 0.000000 0.000000 0.000000 0.028363
#
#
# Mechanical properties :
#
#
# Convention : Reuss Voigt Hill
#
# Bulk Modulus (GPa) = 27.71708 36.09022 31.90365
# Shear Modulus (GPa) = 32.85427 42.93715 37.89571
#
# Velocity S-wave (km/s) = 3.54903 4.05724 3.81161
# Velocity P-wave (km/s) = 5.23644 5.98201 5.62160
#
# Compressibility (1/GPa) = 0.03607883
#
# Stress axis : x y z
#
# Youngs Moduli (GPa) = 51.84622 166.29099 65.54611
#
# Poissons Ratio (x) = -0.00217 0.06347
# Poissons Ratio (y) = -0.00068 0.08417
# Poissons Ratio (z) = 0.05021 0.21354
#
# Static dielectric constant tensor:
#      x y z
#    x 2.168160 0.000000 0.000000 
#    y 0.000000 2.240680 0.000000 
#    z 0.000000 0.000000 2.235520 
# 
# From -- ./inp_files/21279.got.cif
#   From: 2010.05.17/outbox.cif.g08.bks.cpg/sg60_11_cif.got.tgz:21279.got - 2010.06.03 14:59:27.
