data_PCOD9454758
_publ_section_title
;
Structure prediction by ZEFSAII (Michael W. Deem and Ramdas Pophale) SiO2 
 PCOD9454758
Probable space group: P B C N
;
_chemical_formula_sum "Si O2"
_cell_formula_units_Z 64
_cell_length_a 9.045081
_cell_length_b 19.547869
_cell_length_c 18.738147
_cell_angle_alpha 90.000000
_cell_angle_beta 90.000000
_cell_angle_gamma 90.000000
_cell_volume 3313.130343
_symmetry_space_group_name_H-M "P B C N"
_symmetry_group_IT_number 60
_symmetry_cell_setting 'orthorhombic'
loop_
_space_group_symop_operation_xyz
x,y,z
1/2-x,1/2-y,1/2+z
1/2+x,1/2-y,-z
-x,y,1/2-z
-x,-y,-z
1/2+x,1/2+y,1/2-z
1/2-x,1/2+y,z
x,-y,1/2+z
loop_
_atom_site_type_symbol
_atom_site_label
_atom_site_fract_x
_atom_site_fract_y
_atom_site_fract_z
Si Si1 0.612936 0.056941 0.101432
Si Si2 0.834667 0.635858 0.776820
Si Si3 0.971876 0.706381 0.056801
Si Si4 0.648026 0.736008 0.703135
Si Si5 0.814085 0.494667 0.844589
Si Si6 0.850449 0.041221 0.982382
Si Si7 0.239672 0.191217 0.565702
Si Si8 0.180295 0.377877 0.756797
O O1 0.528085 0.125527 0.074458
O O2 0.705665 0.082204 0.169796
O O3 0.482940 0.007277 0.126769
O O4 0.724702 0.029816 0.042457
O O5 0.733556 0.666894 0.715140
O O6 0.808618 0.555666 0.788014
O O7 0.789753 0.670965 0.853437
O O8 0.000000 0.648230 0.750000
O O9 0.884548 0.742491 0.122364
O O10 0.127981 0.744922 0.059892
O O11 0.881598 0.709177 0.983023
O O12 0.500000 0.729429 0.750000
O O13 0.734391 0.800698 0.737502
O O14 0.708576 0.510829 0.909050
O O15 0.771806 0.423334 0.808675
O O16 0.844556 0.124081 0.968194
O O17 0.000000 0.000000 0.000000
O O18 0.000000 0.374174 0.750000
#
# Coordination Sequence:
#
# PCOD9454758 Si02
#       8
#     8   8   8   8   8   8   8   8
#     4   9  18  37  64  82 110 156 209 239 290 363
#     4  11  23  38  56  91 130 154 200 259 308 375
#     4  10  21  39  62  89 118 162 208 258 306 364
#     4  10  19  38  62  83 116 159 201 249 312 361
#     4  10  20  38  60  87 116 156 201 243 296 365
#     4  10  22  40  55  87 125 154 194 250 304 360
#     4  10  23  40  59  91 125 160 210 254 307 371
#     4   8  16  33  60  84 102 143 203 244 276 346
#
# _framework density 19.317079
#
# number of rings (size 3 to 8) (size 9 to 14) (size 15 to 20)
#    0.000    2.250    1.250    2.250    1.750    1.000 
#    4.500    0.625    0.000    0.000    0.000    0.000 
#    0.000    0.000    0.000    0.000    0.000    0.000 
#
# Total GULP energy -356739.771976 kJ/mol
# GULP energy per Si atom -5574.058937 kJ/mol
# Density = 1.927311 g / cm^3
# Si number density = 19.317079 Si / 1000 Ang^3
#
#
#
# Elastic Constant Matrix: (Units=GPa)
#
#
# Indices 1 2 3 4 5 6 
#
# 1 34.4258 27.8843 -0.6133 0.0000 0.0000 0.0000
# 2 27.8843 55.3392 7.1322 0.0000 0.0000 0.0000
# 3 -0.6133 7.1322 32.8222 0.0000 0.0000 0.0000
# 4 0.0000 0.0000 0.0000 6.6346 0.0000 0.0000
# 5 0.0000 0.0000 0.0000 0.0000 17.5998 0.0000
# 6 0.0000 0.0000 0.0000 0.0000 0.0000 30.1811
#
#
#
# Elastic Compliance Matrix: (Units=1/GPa)
#
#
# Indices 1 2 3 4 5 6 
#
# 1 0.050452 -0.026279 0.006653 0.000000 0.000000 0.000000
# 2 -0.026279 0.032279 -0.007505 0.000000 0.000000 0.000000
# 3 0.006653 -0.007505 0.032222 0.000000 0.000000 0.000000
# 4 0.000000 0.000000 0.000000 0.150725 0.000000 0.000000
# 5 0.000000 0.000000 0.000000 0.000000 0.056819 0.000000
# 6 0.000000 0.000000 0.000000 0.000000 0.000000 0.033133
#
#
# Mechanical properties :
#
#
# Convention : Reuss Voigt Hill
#
# Bulk Modulus (GPa) = 16.47687 21.26596 18.87141
# Shear Modulus (GPa) = 11.62454 16.76203 14.19328
#
# Velocity S-wave (km/s) = 2.45577 2.94892 2.71357
# Velocity P-wave (km/s) = 4.07300 4.75685 4.42815
#
# Compressibility (1/GPa) = 0.06069113
#
# Stress axis : x y z
#
# Youngs Moduli (GPa) = 19.82067 30.97959 31.03428
#
# Poissons Ratio (x) = 0.81412 -0.20648
# Poissons Ratio (y) = 0.52088 0.23292
# Poissons Ratio (z) = -0.13187 0.23251
#
# Static dielectric constant tensor:
#      x y z
#    x 1.686380 0.000000 0.000000 
#    y 0.000000 1.706760 0.000000 
#    z 0.000000 0.000000 1.698550 
# 
# From -- ./inp_files/19685.got.cif
#   From: 2010.05.17/outbox.cif.g08.bks.cpg/sg60_10_cif.got.tgz:19685.got - 2010.06.03 14:59:27.
