data_PCOD9454217
_publ_section_title
;
Structure prediction by ZEFSAII (Michael W. Deem and Ramdas Pophale) SiO2 
 PCOD9454217
Probable space group: P B C N
;
_chemical_formula_sum "Si O2"
_cell_formula_units_Z 60
_cell_length_a 13.670117
_cell_length_b 12.486160
_cell_length_c 17.900031
_cell_angle_alpha 90.000000
_cell_angle_beta 90.000000
_cell_angle_gamma 90.000000
_cell_volume 3055.307390
_symmetry_space_group_name_H-M "P B C N"
_symmetry_group_IT_number 60
_symmetry_cell_setting 'orthorhombic'
loop_
_space_group_symop_operation_xyz
x,y,z
1/2-x,1/2-y,1/2+z
1/2+x,1/2-y,-z
-x,y,1/2-z
-x,-y,-z
1/2+x,1/2+y,1/2-z
1/2-x,1/2+y,z
x,-y,1/2+z
loop_
_atom_site_type_symbol
_atom_site_label
_atom_site_fract_x
_atom_site_fract_y
_atom_site_fract_z
Si Si1 0.530827 0.165855 0.170007
Si Si2 0.344641 0.201404 0.853454
Si Si3 0.500000 0.690289 0.250000
Si Si4 0.204245 0.107854 0.459308
Si Si5 0.529332 0.518275 0.134601
Si Si6 0.337894 0.633360 0.777269
Si Si7 0.406578 0.010446 0.945376
Si Si8 0.378814 0.669815 0.611816
O O1 0.500000 0.120775 0.250000
O O2 0.603365 0.263253 0.191898
O O3 0.573742 0.072388 0.121324
O O4 0.441751 0.223058 0.125941
O O5 0.411032 0.241681 0.784651
O O6 0.291058 0.300724 0.894847
O O7 0.262482 0.124417 0.820352
O O8 0.402122 0.131397 0.914253
O O9 0.477331 0.617586 0.176267
O O10 0.106005 0.047419 0.430551
O O11 0.298080 0.030497 0.470783
O O12 0.184234 0.167050 0.537559
O O13 0.594720 0.465913 0.200656
O O14 0.454581 0.429197 0.107120
O O15 0.323168 0.648520 0.689527
O O16 0.500000 0.000000 0.000000
#
# Coordination Sequence:
#
# PCOD9454217 Si02
#       8
#     8   8   4   8   8   8   8   8
#     4   9  20  40  64  88 121 165 209 260 311 374
#     4  11  24  41  63  91 130 177 208 265 325 382
#     4  10  22  38  62  98 124 158 222 272 302 370
#     4  11  23  40  61  92 132 165 203 259 331 374
#     4  10  18  39  66  93 124 161 210 264 319 371
#     4  10  18  38  68  89 121 164 216 256 313 381
#     4  12  25  42  62  90 131 176 211 255 323 397
#     4  10  20  37  66  99 119 156 215 269 308 382
#
# _framework density 19.637958999999999
#
# number of rings (size 3 to 8) (size 9 to 14) (size 15 to 20)
#    0.000    1.600    4.000    2.000    0.933    1.067 
#    0.000    4.000    0.000    0.000    0.000    0.000 
#    0.000    0.000    0.000    0.000    0.000    0.000 
#
# Total GULP energy -334410.270587 kJ/mol
# GULP energy per Si atom -5573.504510 kJ/mol
# Density = 1.959326 g / cm^3
# Si number density = 19.637959 Si / 1000 Ang^3
#
#
#
# Elastic Constant Matrix: (Units=GPa)
#
#
# Indices 1 2 3 4 5 6 
#
# 1 65.7409 8.4479 34.2474 0.0000 0.0000 0.0000
# 2 8.4479 43.0954 2.3673 0.0000 0.0000 0.0000
# 3 34.2474 2.3673 80.6006 0.0000 0.0000 0.0000
# 4 0.0000 0.0000 0.0000 17.8990 0.0000 0.0000
# 5 0.0000 0.0000 0.0000 0.0000 28.9600 0.0000
# 6 0.0000 0.0000 0.0000 0.0000 0.0000 22.3491
#
#
#
# Elastic Compliance Matrix: (Units=1/GPa)
#
#
# Indices 1 2 3 4 5 6 
#
# 1 0.020039 -0.003466 -0.008413 0.000000 0.000000 0.000000
# 2 -0.003466 0.023841 0.000773 0.000000 0.000000 0.000000
# 3 -0.008413 0.000773 0.015959 0.000000 0.000000 0.000000
# 4 0.000000 0.000000 0.000000 0.055869 0.000000 0.000000
# 5 0.000000 0.000000 0.000000 0.000000 0.034530 0.000000
# 6 0.000000 0.000000 0.000000 0.000000 0.000000 0.044745
#
#
# Mechanical properties :
#
#
# Convention : Reuss Voigt Hill
#
# Bulk Modulus (GPa) = 26.57706 31.06246 28.81976
# Shear Modulus (GPa) = 21.76384 23.46656 22.61520
#
# Velocity S-wave (km/s) = 3.33266 3.46057 3.39721
# Velocity P-wave (km/s) = 5.32651 5.64086 5.48593
#
# Compressibility (1/GPa) = 0.03762643
#
# Stress axis : x y z
#
# Youngs Moduli (GPa) = 49.90178 41.94388 62.66110
#
# Poissons Ratio (x) = 0.14538 0.52717
# Poissons Ratio (y) = 0.17297 -0.04841
# Poissons Ratio (z) = 0.41982 -0.03240
#
# Static dielectric constant tensor:
#      x y z
#    x 1.710940 0.000000 0.000000 
#    y 0.000000 1.693780 0.000000 
#    z 0.000000 0.000000 1.695740 
# 
# From -- ./inp_files/20620.got.cif
#   From: 2010.05.17/outbox.cif.g08.bks.cpg/sg60_11_cif.got.tgz:20620.got - 2010.06.03 14:59:27.
