data_PCOD9454994
_publ_section_title
;
Structure prediction by ZEFSAII (Michael W. Deem and Ramdas Pophale) SiO2 
 PCOD9454994
Probable space group: P B C N
;
_chemical_formula_sum "Si O2"
_cell_formula_units_Z 52
_cell_length_a 13.764601
_cell_length_b 21.743853
_cell_length_c 8.952200
_cell_angle_alpha 90.000000
_cell_angle_beta 90.000000
_cell_angle_gamma 90.000000
_cell_volume 2679.352824
_symmetry_space_group_name_H-M "P B C N"
_symmetry_group_IT_number 60
_symmetry_cell_setting 'orthorhombic'
loop_
_space_group_symop_operation_xyz
x,y,z
1/2-x,1/2-y,1/2+z
1/2+x,1/2-y,-z
-x,y,1/2-z
-x,-y,-z
1/2+x,1/2+y,1/2-z
1/2-x,1/2+y,z
x,-y,1/2+z
loop_
_atom_site_type_symbol
_atom_site_label
_atom_site_fract_x
_atom_site_fract_y
_atom_site_fract_z
Si Si1 0.877334 0.654728 0.381946
Si Si2 0.830192 0.178526 0.853376
Si Si3 0.390132 0.973841 0.500017
Si Si4 0.184172 0.582188 0.683320
Si Si5 0.951475 0.699660 0.898527
Si Si6 0.500000 0.754419 0.750000
Si Si7 0.220964 0.767695 0.462232
O O1 0.883036 0.581931 0.380621
O O2 0.912900 0.693152 0.238596
O O3 0.775340 0.679373 0.442827
O O4 0.959285 0.676999 0.500182
O O5 0.793305 0.109596 0.826341
O O6 0.780914 0.210999 0.707723
O O7 0.783632 0.206938 0.002412
O O8 0.939447 0.204211 0.847890
O O9 0.353151 0.945586 0.342038
O O10 0.500000 0.000000 0.500000
O O11 0.327276 0.030235 0.558866
O O12 0.113291 0.639880 0.643987
O O13 0.885041 0.751475 0.974615
O O14 0.000000 0.724957 0.750000
#
# Coordination Sequence:
#
# PCOD9454994 Si02
#       7
#     8   8   8   8   8   4   8
#     4  11  20  33  53  84 118 142 186 232 284 341
#     4  10  20  39  56  84 114 153 193 238 288 339
#     4  12  22  34  54  81 115 154 186 222 280 345
#     4  11  23  37  55  80 116 156 191 228 278 343
#     4  11  18  35  57  79 113 152 185 227 286 344
#     4  10  22  34  60  86 110 150 190 242 288 340
#     4  10  20  34  57  82 116 151 184 233 294 344
#
# _framework density 19.407672000000002
#
# number of rings (size 3 to 8) (size 9 to 14) (size 15 to 20)
#    0.000    1.231    6.154    1.385    2.154    0.000 
#    2.769    0.000    0.000    0.923    2.000    0.000 
#    0.000    0.000    0.000    0.000    0.000    0.000 
#
# Total GULP energy -289476.784310 kJ/mol
# GULP energy per Si atom -5566.861237 kJ/mol
# Density = 1.936350 g / cm^3
# Si number density = 19.407672 Si / 1000 Ang^3
#
#
#
# Elastic Constant Matrix: (Units=GPa)
#
#
# Indices 1 2 3 4 5 6 
#
# 1 74.7276 46.5249 20.3499 0.0000 0.0000 0.0000
# 2 46.5249 122.1283 27.3584 0.0000 0.0000 0.0000
# 3 20.3499 27.3584 66.9216 0.0000 0.0000 0.0000
# 4 0.0000 0.0000 0.0000 29.8691 0.0000 0.0000
# 5 0.0000 0.0000 0.0000 0.0000 27.2556 0.0000
# 6 0.0000 0.0000 0.0000 0.0000 0.0000 38.3957
#
#
#
# Elastic Compliance Matrix: (Units=1/GPa)
#
#
# Indices 1 2 3 4 5 6 
#
# 1 0.018056 -0.006218 -0.002949 0.000000 0.000000 0.000000
# 2 -0.006218 0.011155 -0.002669 0.000000 0.000000 0.000000
# 3 -0.002949 -0.002669 0.016931 0.000000 0.000000 0.000000
# 4 0.000000 0.000000 0.000000 0.033479 0.000000 0.000000
# 5 0.000000 0.000000 0.000000 0.000000 0.036690 0.000000
# 6 0.000000 0.000000 0.000000 0.000000 0.000000 0.026045
#
#
# Mechanical properties :
#
#
# Convention : Reuss Voigt Hill
#
# Bulk Modulus (GPa) = 44.50437 50.24933 47.37685
# Shear Modulus (GPa) = 28.81553 30.40705 29.61129
#
# Velocity S-wave (km/s) = 3.85743 3.96252 3.91032
# Velocity P-wave (km/s) = 6.54376 6.84712 6.69716
#
# Compressibility (1/GPa) = 0.02246971
#
# Stress axis : x y z
#
# Youngs Moduli (GPa) = 55.38268 89.64710 59.06399
#
# Poissons Ratio (x) = 0.55742 0.17416
# Poissons Ratio (y) = 0.34437 0.15767
# Poissons Ratio (z) = 0.16330 0.23931
#
# Static dielectric constant tensor:
#      x y z
#    x 1.766860 0.000000 0.000000 
#    y 0.000000 1.686010 0.000000 
#    z 0.000000 0.000000 2.028950 
# 
# From -- ./inp_files/6094.got.cif
#   From: 2010.05.17/outbox.cif.g08.bks.cpg/sg60_4_cif.got.tgz:6094.got - 2010.06.03 14:59:27.
