data_PCOD9454912
_publ_section_title
;
Structure prediction by ZEFSAII (Michael W. Deem and Ramdas Pophale) SiO2 
 PCOD9454912
Probable space group: P B C N
;
_chemical_formula_sum "Si O2"
_cell_formula_units_Z 64
_cell_length_a 22.025228
_cell_length_b 5.261973
_cell_length_c 27.907285
_cell_angle_alpha 90.000000
_cell_angle_beta 90.000000
_cell_angle_gamma 90.000000
_cell_volume 3234.347030
_symmetry_space_group_name_H-M "P B C N"
_symmetry_group_IT_number 60
_symmetry_cell_setting 'orthorhombic'
loop_
_space_group_symop_operation_xyz
x,y,z
1/2-x,1/2-y,1/2+z
1/2+x,1/2-y,-z
-x,y,1/2-z
-x,-y,-z
1/2+x,1/2+y,1/2-z
1/2-x,1/2+y,z
x,-y,1/2+z
loop_
_atom_site_type_symbol
_atom_site_label
_atom_site_fract_x
_atom_site_fract_y
_atom_site_fract_z
Si Si1 0.285523 0.257606 0.792849
Si Si2 0.932867 0.593742 0.983914
Si Si3 0.097994 0.210675 0.680779
Si Si4 0.265304 0.748147 0.687197
Si Si5 0.064142 0.885339 0.075666
Si Si6 0.097217 0.265864 0.355364
Si Si7 0.919869 0.223836 0.586614
Si Si8 0.473095 0.779653 0.199917
O O1 0.250763 0.509224 0.809625
O O2 0.277301 0.254319 0.734811
O O3 0.353189 0.252396 0.813161
O O4 0.909144 0.341094 0.957435
O O5 0.936327 0.838775 0.949287
O O6 0.902438 0.692769 0.032826
O O7 0.000000 0.500000 0.000000
O O8 0.164960 0.236654 0.701895
O O9 0.098887 0.115873 0.625935
O O10 0.067371 0.487392 0.681384
O O11 0.061805 0.985928 0.707096
O O12 0.247268 0.501018 0.658833
O O13 0.993424 0.812878 0.086173
O O14 0.097901 0.543923 0.378936
O O15 0.029614 0.229798 0.334800
O O16 0.106876 0.040642 0.393837
O O17 0.500000 0.869761 0.250000
#
# Coordination Sequence:
#
# PCOD9454912 Si02
#       8
#     8   8   8   8   8   8   8   8
#     4  10  23  39  60  80 110 158 213 259 293 336
#     4  10  20  32  58  87 129 167 190 232 296 384
#     4  12  24  41  63  89 126 164 207 258 305 373
#     4  10  23  42  62  82 111 158 213 265 293 340
#     4  11  19  36  55  92 128 161 196 237 305 375
#     4  12  22  38  59  87 124 162 202 251 299 367
#     4  11  20  36  56  91 126 162 194 238 301 376
#     4  12  26  38  58  91 125 169 199 244 327 372
#
# _framework density 19.787610999999998
#
# number of rings (size 3 to 8) (size 9 to 14) (size 15 to 20)
#    0.000    1.000    2.500    6.375    7.000    0.000 
#    0.000    0.000    0.000    0.000    0.000   17.500 
#    0.000    0.000    0.000    0.000    0.000    0.000 
#
# Total GULP energy -357304.807633 kJ/mol
# GULP energy per Si atom -5582.887619 kJ/mol
# Density = 1.974257 g / cm^3
# Si number density = 19.787611 Si / 1000 Ang^3
#
#
#
# Elastic Constant Matrix: (Units=GPa)
#
#
# Indices 1 2 3 4 5 6 
#
# 1 60.5866 30.2402 2.5138 0.0000 0.0000 0.0000
# 2 30.2402 156.1471 8.0453 0.0000 0.0000 0.0000
# 3 2.5138 8.0453 65.2003 0.0000 0.0000 0.0000
# 4 0.0000 0.0000 0.0000 24.3320 0.0000 0.0000
# 5 0.0000 0.0000 0.0000 0.0000 10.9924 0.0000
# 6 0.0000 0.0000 0.0000 0.0000 0.0000 -1.2824
#
#
#
# Elastic Compliance Matrix: (Units=1/GPa)
#
#
# Indices 1 2 3 4 5 6 
#
# 1 0.018276 -0.003526 -0.000270 0.000000 0.000000 0.000000
# 2 -0.003526 0.007125 -0.000743 0.000000 0.000000 0.000000
# 3 -0.000270 -0.000743 0.015439 0.000000 0.000000 0.000000
# 4 0.000000 0.000000 0.000000 0.041098 0.000000 0.000000
# 5 0.000000 0.000000 0.000000 0.000000 0.090972 0.000000
# 6 0.000000 0.000000 0.000000 0.000000 0.000000 -0.779771
#
#
# Mechanical properties :
#
#
# Convention : Reuss Voigt Hill
#
# Bulk Modulus (GPa) = 31.48216 40.39251 35.93734
# Shear Modulus (GPa) = -8.51505 22.88406 7.18450
#
# Velocity S-wave (km/s) = -2.07667 3.40440 1.90754
# Velocity P-wave (km/s) = 3.19288 5.99255 4.80131
#
# Compressibility (1/GPa) = 0.03176402
#
# Stress axis : x y z
#
# Youngs Moduli (GPa) = 54.71601 140.34511 64.76913
#
# Poissons Ratio (x) = 0.49480 0.01746
# Poissons Ratio (y) = 0.19290 0.04814
# Poissons Ratio (z) = 0.01475 0.10432
#
# Static dielectric constant tensor:
#      x y z
#    x 1.693130 0.000000 0.000000 
#    y 0.000000 1.771860 0.000000 
#    z 0.000000 0.000000 1.728750 
# 
# From -- ./inp_files/25505.got.cif
#   From: 2010.05.17/outbox.cif.g08.bks.cpg/sg60_13_cif.got.tgz:25505.got - 2010.06.03 14:59:27.
