data_PCOD9454662
_publ_section_title
;
Structure prediction by ZEFSAII (Michael W. Deem and Ramdas Pophale) SiO2 
 PCOD9454662
Probable space group: P B C N
;
_chemical_formula_sum "Si O2"
_cell_formula_units_Z 40
_cell_length_a 21.663250
_cell_length_b 8.936945
_cell_length_c 10.733363
_cell_angle_alpha 90.000000
_cell_angle_beta 90.000000
_cell_angle_gamma 90.000000
_cell_volume 2078.014215
_symmetry_space_group_name_H-M "P B C N"
_symmetry_group_IT_number 60
_symmetry_cell_setting 'orthorhombic'
loop_
_space_group_symop_operation_xyz
x,y,z
1/2-x,1/2-y,1/2+z
1/2+x,1/2-y,-z
-x,y,1/2-z
-x,-y,-z
1/2+x,1/2+y,1/2-z
1/2-x,1/2+y,z
x,-y,1/2+z
loop_
_atom_site_type_symbol
_atom_site_label
_atom_site_fract_x
_atom_site_fract_y
_atom_site_fract_z
Si Si1 0.535283 0.312983 0.876825
Si Si2 0.835626 0.251595 0.762790
Si Si3 0.751234 0.997937 0.870628
Si Si4 0.163130 0.257607 0.021445
Si Si5 0.960913 0.825170 0.373683
O O1 0.500000 0.271981 0.750000
O O2 0.602586 0.240497 0.892197
O O3 0.544887 0.493534 0.875990
O O4 0.494353 0.278640 0.998937
O O5 0.793112 0.394023 0.788813
O O6 0.857949 0.249699 0.621098
O O7 0.893406 0.243862 0.855654
O O8 0.793255 0.107223 0.788463
O O9 0.796195 0.888546 0.946834
O O10 0.707780 0.102248 0.955033
O O11 0.000000 0.787473 0.250000
#
# Coordination Sequence:
#
# PCOD9454662 Si02
#       5
#     8   8   8   8   8
#     4  10  21  36  60  92 122 157 205 253 300 361
#     4  11  21  41  63  89 123 161 203 253 303 369
#     4  10  24  38  60  93 121 162 201 247 311 360
#     4  11  21  42  62  90 124 158 203 255 300 368
#     4  10  19  36  62  88 117 161 201 246 303 360
#
# _framework density 19.249146
#
# number of rings (size 3 to 8) (size 9 to 14) (size 15 to 20)
#    0.000    1.600    4.000    1.200    0.000    0.000 
#   18.000    2.000    0.000    0.000    0.000    0.000 
#    0.000    0.000    0.000    0.000    0.000    0.000 
#
# Total GULP energy -223411.834287 kJ/mol
# GULP energy per Si atom -5585.295857 kJ/mol
# Density = 1.920533 g / cm^3
# Si number density = 19.249146 Si / 1000 Ang^3
#
#
#
# Elastic Constant Matrix: (Units=GPa)
#
#
# Indices 1 2 3 4 5 6 
#
# 1 141.1306 32.6835 50.0688 0.0000 0.0000 0.0000
# 2 32.6835 64.3177 18.2063 0.0000 0.0000 0.0000
# 3 50.0688 18.2063 113.7614 0.0000 0.0000 0.0000
# 4 0.0000 0.0000 0.0000 2.1582 0.0000 0.0000
# 5 0.0000 0.0000 0.0000 0.0000 35.7467 0.0000
# 6 0.0000 0.0000 0.0000 0.0000 0.0000 6.8443
#
#
#
# Elastic Compliance Matrix: (Units=1/GPa)
#
#
# Indices 1 2 3 4 5 6 
#
# 1 0.009159 -0.003680 -0.003442 0.000000 0.000000 0.000000
# 2 -0.003680 0.017764 -0.001223 0.000000 0.000000 0.000000
# 3 -0.003442 -0.001223 0.010501 0.000000 0.000000 0.000000
# 4 0.000000 0.000000 0.000000 0.463355 0.000000 0.000000
# 5 0.000000 0.000000 0.000000 0.000000 0.027975 0.000000
# 6 0.000000 0.000000 0.000000 0.000000 0.000000 0.146108
#
#
# Mechanical properties :
#
#
# Convention : Reuss Voigt Hill
#
# Bulk Modulus (GPa) = 48.23134 57.90298 53.06716
# Shear Modulus (GPa) = 7.15858 23.49992 15.32925
#
# Velocity S-wave (km/s) = 1.93054 3.49783 2.82505
# Velocity P-wave (km/s) = 5.48453 6.81610 6.18624
#
# Compressibility (1/GPa) = 0.02073341
#
# Stress axis : x y z
#
# Youngs Moduli (GPa) = 109.18235 56.29349 95.22834
#
# Poissons Ratio (x) = 0.20715 0.32779
# Poissons Ratio (y) = 0.40177 0.11650
# Poissons Ratio (z) = 0.37582 0.06887
#
# Static dielectric constant tensor:
#      x y z
#    x 1.651120 0.000000 0.000000 
#    y 0.000000 1.648250 0.000000 
#    z 0.000000 0.000000 1.654770 
# 
# From -- ./inp_files/7711.got.cif
#   From: 2010.05.17/outbox.cif.g08.bks.cpg/sg60_4_cif.got.tgz:7711.got - 2010.06.03 14:59:27.
