data_PCOD9454909
_publ_section_title
;
Structure prediction by ZEFSAII (Michael W. Deem and Ramdas Pophale) SiO2 
 PCOD9454909
Probable space group: P B C N
;
_chemical_formula_sum "Si O2"
_cell_formula_units_Z 48
_cell_length_a 7.716721
_cell_length_b 17.732578
_cell_length_c 13.961827
_cell_angle_alpha 90.000000
_cell_angle_beta 90.000000
_cell_angle_gamma 90.000000
_cell_volume 1910.499506
_symmetry_space_group_name_H-M "P B C N"
_symmetry_group_IT_number 60
_symmetry_cell_setting 'orthorhombic'
loop_
_space_group_symop_operation_xyz
x,y,z
1/2-x,1/2-y,1/2+z
1/2+x,1/2-y,-z
-x,y,1/2-z
-x,-y,-z
1/2+x,1/2+y,1/2-z
1/2-x,1/2+y,z
x,-y,1/2+z
loop_
_atom_site_type_symbol
_atom_site_label
_atom_site_fract_x
_atom_site_fract_y
_atom_site_fract_z
Si Si1 0.547360 0.816543 0.846999
Si Si2 0.571268 0.339280 0.093645
Si Si3 0.217109 0.038617 0.550186
Si Si4 0.051381 0.622443 0.934375
Si Si5 0.437159 0.281090 0.622502
Si Si6 0.039139 0.063263 0.355472
O O1 0.500000 0.861126 0.750000
O O2 0.442039 0.737177 0.845942
O O3 0.746770 0.793001 0.839187
O O4 0.532817 0.855619 0.951834
O O5 0.407878 0.396027 0.095813
O O6 0.750780 0.384454 0.099839
O O7 0.570216 0.302339 0.988974
O O8 0.413197 0.055884 0.578203
O O9 0.181764 0.042371 0.435617
O O10 0.137599 0.960830 0.588818
O O11 0.991445 0.695350 0.873906
O O12 0.562226 0.347198 0.658327
O O13 0.000000 0.030621 0.250000
#
# Coordination Sequence:
#
# PCOD9454909 Si02
#       6
#     8   8   8   8   8   8
#     4  10  20  32  57  96 126 155 205 274 319 379
#     4   9  19  36  61  87 120 164 207 254 325 385
#     4  10  21  43  64  91 126 177 218 266 328 397
#     4  10  20  38  67  89 126 168 215 263 327 394
#     4   9  19  36  57  92 119 160 209 254 322 385
#     4  10  23  39  67  91 133 178 220 272 335 395
#
# _framework density 25.124320999999998
#
# number of rings (size 3 to 8) (size 9 to 14) (size 15 to 20)
#    0.000    2.333    1.667    0.000    9.333    0.667 
#    0.000   13.333    0.000    0.000    0.000    0.000 
#    0.000    0.000    0.000    0.000    0.000    0.000 
#
# Total GULP energy -267867.710986 kJ/mol
# GULP energy per Si atom -5580.577312 kJ/mol
# Density = 2.506714 g / cm^3
# Si number density = 25.124321 Si / 1000 Ang^3
#
#
#
# Elastic Constant Matrix: (Units=GPa)
#
#
# Indices 1 2 3 4 5 6 
#
# 1 88.8974 21.1361 -10.7320 0.0000 0.0000 0.0000
# 2 21.1361 81.1000 -13.9036 0.0000 0.0000 0.0000
# 3 -10.7320 -13.9036 101.6577 0.0000 0.0000 0.0000
# 4 0.0000 0.0000 0.0000 11.1081 0.0000 0.0000
# 5 0.0000 0.0000 0.0000 0.0000 15.9712 0.0000
# 6 0.0000 0.0000 0.0000 0.0000 0.0000 39.2378
#
#
#
# Elastic Compliance Matrix: (Units=1/GPa)
#
#
# Indices 1 2 3 4 5 6 
#
# 1 0.012066 -0.002996 0.000864 0.000000 0.000000 0.000000
# 2 -0.002996 0.013371 0.001512 0.000000 0.000000 0.000000
# 3 0.000864 0.001512 0.010135 0.000000 0.000000 0.000000
# 4 0.000000 0.000000 0.000000 0.090025 0.000000 0.000000
# 5 0.000000 0.000000 0.000000 0.000000 0.062613 0.000000
# 6 0.000000 0.000000 0.000000 0.000000 0.000000 0.025486
#
#
# Mechanical properties :
#
#
# Convention : Reuss Voigt Hill
#
# Bulk Modulus (GPa) = 29.12813 29.40624 29.26719
# Shear Modulus (GPa) = 22.08694 31.60706 26.84700
#
# Velocity S-wave (km/s) = 2.96819 3.55071 3.27244
# Velocity P-wave (km/s) = 4.83380 5.34227 5.09438
#
# Compressibility (1/GPa) = 0.03433108
#
# Stress axis : x y z
#
# Youngs Moduli (GPa) = 82.87998 74.79068 98.66815
#
# Poissons Ratio (x) = 0.22410 -0.08524
# Poissons Ratio (y) = 0.24834 -0.14922
# Poissons Ratio (z) = -0.07160 -0.11311
#
# Static dielectric constant tensor:
#      x y z
#    x 2.005130 0.000000 0.000000 
#    y 0.000000 2.007630 0.000000 
#    z 0.000000 0.000000 2.078500 
# 
# From -- ./inp_files/15039.got.cif
#   From: 2010.05.17/outbox.cif.g08.bks.cpg/sg60_8_cif.got.tgz:15039.got - 2010.06.03 14:59:27.
