data_PCOD9454700
_publ_section_title
;
Structure prediction by ZEFSAII (Michael W. Deem and Ramdas Pophale) SiO2 
 PCOD9454700
Probable space group: P B C N
;
_chemical_formula_sum "Si O2"
_cell_formula_units_Z 48
_cell_length_a 21.606206
_cell_length_b 5.395581
_cell_length_c 17.984940
_cell_angle_alpha 90.000000
_cell_angle_beta 90.000000
_cell_angle_gamma 90.000000
_cell_volume 2096.648957
_symmetry_space_group_name_H-M "P B C N"
_symmetry_group_IT_number 60
_symmetry_cell_setting 'orthorhombic'
loop_
_space_group_symop_operation_xyz
x,y,z
1/2-x,1/2-y,1/2+z
1/2+x,1/2-y,-z
-x,y,1/2-z
-x,-y,-z
1/2+x,1/2+y,1/2-z
1/2-x,1/2+y,z
x,-y,1/2+z
loop_
_atom_site_type_symbol
_atom_site_label
_atom_site_fract_x
_atom_site_fract_y
_atom_site_fract_z
Si Si1 0.713790 0.208119 0.286899
Si Si2 0.444126 0.242754 0.546738
Si Si3 0.466800 0.573537 0.883763
Si Si4 0.407736 0.736246 0.617880
Si Si5 0.170567 0.174683 0.876115
Si Si6 0.736893 0.941807 0.513274
O O1 0.758005 0.440221 0.304392
O O2 0.648765 0.244860 0.327263
O O3 0.701133 0.227645 0.198471
O O4 0.506861 0.303201 0.593765
O O5 0.462853 0.273635 0.461510
O O6 0.403054 0.487142 0.567294
O O7 0.413557 0.989267 0.571596
O O8 0.525332 0.693853 0.842132
O O9 0.397409 0.579912 0.855898
O O10 0.212378 0.972346 0.919736
O O11 0.174259 0.384171 0.941517
O O12 0.758060 0.697249 0.470639
#
# Coordination Sequence:
#
# PCOD9454700 Si02
#       6
#     8   8   8   8   8   8
#     4  12  23  41  65  81 125 169 200 250 299 371
#     4   9  20  42  59  95 116 164 190 251 314 359
#     4   9  21  36  70  87 125 151 202 262 299 366
#     4  10  21  40  63  88 119 154 213 236 313 360
#     4  10  19  37  59  90 115 159 201 242 309 345
#     4   8  16  32  47  73 115 145 191 220 286 352
#
# _framework density 22.893675999999999
#
# number of rings (size 3 to 8) (size 9 to 14) (size 15 to 20)
#    2.000    0.333    1.667    1.500    0.000    2.000 
#    0.000    0.000   14.667    0.000    0.000    0.000 
#    0.000    0.000    0.000    0.000    0.000    0.000 
#
# Total GULP energy -267462.965501 kJ/mol
# GULP energy per Si atom -5572.145115 kJ/mol
# Density = 2.284157 g / cm^3
# Si number density = 22.893676 Si / 1000 Ang^3
#
#
#
# Elastic Constant Matrix: (Units=GPa)
#
#
# Indices 1 2 3 4 5 6 
#
# 1 103.9931 -1.3357 14.1808 0.0000 0.0000 0.0000
# 2 -1.3357 124.8219 15.4599 0.0000 0.0000 0.0000
# 3 14.1808 15.4599 39.6773 0.0000 0.0000 0.0000
# 4 0.0000 0.0000 0.0000 14.0399 0.0000 0.0000
# 5 0.0000 0.0000 0.0000 0.0000 39.8413 0.0000
# 6 0.0000 0.0000 0.0000 0.0000 0.0000 19.3376
#
#
#
# Elastic Compliance Matrix: (Units=1/GPa)
#
#
# Indices 1 2 3 4 5 6 
#
# 1 0.010149 0.000586 -0.003856 0.000000 0.000000 0.000000
# 2 0.000586 0.008451 -0.003503 0.000000 0.000000 0.000000
# 3 -0.003856 -0.003503 0.027946 0.000000 0.000000 0.000000
# 4 0.000000 0.000000 0.000000 0.071226 0.000000 0.000000
# 5 0.000000 0.000000 0.000000 0.000000 0.025100 0.000000
# 6 0.000000 0.000000 0.000000 0.000000 0.000000 0.051713
#
#
# Mechanical properties :
#
#
# Convention : Reuss Voigt Hill
#
# Bulk Modulus (GPa) = 30.30065 36.12249 33.21157
# Shear Modulus (GPa) = 22.81748 30.65624 26.73686
#
# Velocity S-wave (km/s) = 3.16044 3.66330 3.42112
# Velocity P-wave (km/s) = 5.15577 5.80566 5.49034
#
# Compressibility (1/GPa) = 0.03300259
#
# Stress axis : x y z
#
# Youngs Moduli (GPa) = 98.52854 118.32222 35.78310
#
# Poissons Ratio (x) = -0.06936 0.13797
# Poissons Ratio (y) = -0.05775 0.12533
# Poissons Ratio (z) = 0.37991 0.41443
#
# Static dielectric constant tensor:
#      x y z
#    x 1.920150 0.000000 0.000000 
#    y 0.000000 1.914600 0.000000 
#    z 0.000000 0.000000 1.816900 
# 
# From -- ./inp_files/23162.got.cif
#   From: 2010.05.17/outbox.cif.g08.bks.cpg/sg60_12_cif.got.tgz:23162.got - 2010.06.03 14:59:27.
