data_PCOD9454225
_publ_section_title
;
Structure prediction by ZEFSAII (Michael W. Deem and Ramdas Pophale) SiO2 
 PCOD9454225
Probable space group: P B C N
;
_chemical_formula_sum "Si O2"
_cell_formula_units_Z 64
_cell_length_a 14.312854
_cell_length_b 16.402758
_cell_length_c 12.536748
_cell_angle_alpha 90.000000
_cell_angle_beta 90.000000
_cell_angle_gamma 90.000000
_cell_volume 2943.255844
_symmetry_space_group_name_H-M "P B C N"
_symmetry_group_IT_number 60
_symmetry_cell_setting 'orthorhombic'
loop_
_space_group_symop_operation_xyz
x,y,z
1/2-x,1/2-y,1/2+z
1/2+x,1/2-y,-z
-x,y,1/2-z
-x,-y,-z
1/2+x,1/2+y,1/2-z
1/2-x,1/2+y,z
x,-y,1/2+z
loop_
_atom_site_type_symbol
_atom_site_label
_atom_site_fract_x
_atom_site_fract_y
_atom_site_fract_z
Si Si1 0.574496 0.727443 0.605546
Si Si2 0.099331 0.051054 0.810053
Si Si3 0.110371 0.610375 0.511737
Si Si4 0.278753 0.108147 0.722454
Si Si5 0.940007 0.626473 0.640147
Si Si6 0.218220 0.905313 0.883857
Si Si7 0.206718 0.710197 0.214955
Si Si8 0.875126 0.239171 0.989430
O O1 0.606022 0.633824 0.618842
O O2 0.608455 0.791706 0.515167
O O3 0.613931 0.772916 0.711740
O O4 0.464866 0.717843 0.582379
O O5 0.179502 0.065554 0.722367
O O6 0.000000 0.043446 0.750000
O O7 0.139098 0.973892 0.874263
O O8 0.164699 0.588567 0.618103
O O9 0.176395 0.572806 0.421431
O O10 0.003480 0.590007 0.544512
O O11 0.343355 0.086475 0.823041
O O12 0.261874 0.204917 0.725114
O O13 0.911178 0.713707 0.592814
O O14 0.000000 0.633065 0.750000
O O15 0.235144 0.861039 0.770265
O O16 0.182403 0.837790 0.968909
O O17 0.183058 0.702654 0.090379
#
# Coordination Sequence:
#
# PCOD9454225 Si02
#       8
#     8   8   8   8   8   8   8   8
#     4   9  20  38  63  91 120 165 218 268 323 385
#     4  11  25  42  56  89 141 182 206 255 338 409
#     4   9  19  38  65  95 116 159 222 281 324 375
#     4  10  18  39  65  85 125 166 212 280 319 380
#     4   9  19  35  65  97 115 152 217 286 331 362
#     4  11  23  38  57  91 134 173 213 267 325 409
#     4  10  19  35  61  86 121 165 222 270 316 372
#     4  11  19  35  64  90 123 165 218 276 318 377
#
# _framework density 21.744627000000001
#
# number of rings (size 3 to 8) (size 9 to 14) (size 15 to 20)
#    0.000    2.000    2.500    1.875    0.000    1.000 
#    2.250    1.875    0.000   12.000    0.000    0.000 
#    0.000    0.000    0.000    0.000    0.000    0.000 
#
# Total GULP energy -356324.144847 kJ/mol
# GULP energy per Si atom -5567.564763 kJ/mol
# Density = 2.169514 g / cm^3
# Si number density = 21.744627 Si / 1000 Ang^3
#
#
#
# Elastic Constant Matrix: (Units=GPa)
#
#
# Indices 1 2 3 4 5 6 
#
# 1 104.3217 22.6697 11.8860 0.0000 0.0000 0.0000
# 2 22.6697 64.9984 29.7818 0.0000 0.0000 0.0000
# 3 11.8860 29.7818 48.4916 0.0000 0.0000 0.0000
# 4 0.0000 0.0000 0.0000 11.1773 0.0000 0.0000
# 5 0.0000 0.0000 0.0000 0.0000 24.1313 0.0000
# 6 0.0000 0.0000 0.0000 0.0000 0.0000 -74.7024
#
#
#
# Elastic Compliance Matrix: (Units=1/GPa)
#
#
# Indices 1 2 3 4 5 6 
#
# 1 0.010379 -0.003415 -0.000446 0.000000 0.000000 0.000000
# 2 -0.003415 0.022534 -0.013002 0.000000 0.000000 0.000000
# 3 -0.000446 -0.013002 0.028717 0.000000 0.000000 0.000000
# 4 0.000000 0.000000 0.000000 0.089467 0.000000 0.000000
# 5 0.000000 0.000000 0.000000 0.000000 0.041440 0.000000
# 6 0.000000 0.000000 0.000000 0.000000 0.000000 -0.013386
#
#
# Mechanical properties :
#
#
# Convention : Reuss Voigt Hill
#
# Bulk Modulus (GPa) = 35.84025 38.49851 37.16938
# Shear Modulus (GPa) = 22.50443 2.35285 12.42864
#
# Velocity S-wave (km/s) = 3.22054 1.04134 2.39335
# Velocity P-wave (km/s) = 5.50884 4.38054 4.97677
#
# Compressibility (1/GPa) = 0.02790159
#
# Stress axis : x y z
#
# Youngs Moduli (GPa) = 96.35067 44.37803 34.82252
#
# Poissons Ratio (x) = 0.15156 0.01555
# Poissons Ratio (y) = 0.32906 0.45277
# Poissons Ratio (z) = 0.04302 0.57701
#
# Static dielectric constant tensor:
#      x y z
#    x 1.850910 0.000000 0.000000 
#    y 0.000000 1.799810 0.000000 
#    z 0.000000 0.000000 1.830860 
# 
# From -- ./inp_files/12134.got.cif
#   From: 2010.05.17/outbox.cif.g08.bks.cpg/sg60_7_cif.got.tgz:12134.got - 2010.06.03 14:59:27.
