data_PCOD9454227
_publ_section_title
;
Structure prediction by ZEFSAII (Michael W. Deem and Ramdas Pophale) SiO2 
 PCOD9454227
Probable space group: P B C N
;
_chemical_formula_sum "Si O2"
_cell_formula_units_Z 40
_cell_length_a 8.377245
_cell_length_b 14.162770
_cell_length_c 16.339246
_cell_angle_alpha 90.000000
_cell_angle_beta 90.000000
_cell_angle_gamma 90.000000
_cell_volume 1938.569746
_symmetry_space_group_name_H-M "P B C N"
_symmetry_group_IT_number 60
_symmetry_cell_setting 'orthorhombic'
loop_
_space_group_symop_operation_xyz
x,y,z
1/2-x,1/2-y,1/2+z
1/2+x,1/2-y,-z
-x,y,1/2-z
-x,-y,-z
1/2+x,1/2+y,1/2-z
1/2-x,1/2+y,z
x,-y,1/2+z
loop_
_atom_site_type_symbol
_atom_site_label
_atom_site_fract_x
_atom_site_fract_y
_atom_site_fract_z
Si Si1 0.212533 0.341657 0.643566
Si Si2 0.728194 0.480860 0.135923
Si Si3 0.000000 0.483124 0.750000
Si Si4 0.500000 0.386209 0.750000
Si Si5 0.540770 0.353370 0.346998
Si Si6 0.180113 0.997659 0.033967
O O1 0.372972 0.327326 0.697425
O O2 0.112225 0.247505 0.631138
O O3 0.264085 0.400864 0.564824
O O4 0.104167 0.413967 0.694296
O O5 0.604740 0.547883 0.187661
O O6 0.630671 0.385179 0.118110
O O7 0.879443 0.461353 0.192158
O O8 0.774323 0.528379 0.049147
O O9 0.500000 0.356590 0.250000
O O10 0.666407 0.428208 0.387393
O O11 0.000000 0.000000 0.000000
#
# Coordination Sequence:
#
# PCOD9454227 Si02
#       6
#     8   8   4   4   8   8
#     4  11  21  39  67 102 131 174 228 285 326 412
#     4  10  20  42  71  93 131 184 222 280 348 408
#     4  10  22  39  69  96 132 176 232 281 337 414
#     4  10  18  39  71  90 130 176 222 277 339 404
#     4  11  20  40  67  95 137 182 226 275 347 419
#     4  10  21  41  70  97 138 180 220 288 353 399
#
# _framework density 20.633769999999998
#
# number of rings (size 3 to 8) (size 9 to 14) (size 15 to 20)
#    0.000    1.600    6.000    1.200    0.000    0.800 
#    7.200    4.000    0.000    0.000    0.000    0.000 
#    0.000    0.000    0.000    0.000    0.000    0.000 
#
# Total GULP energy -222760.831687 kJ/mol
# GULP energy per Si atom -5569.020792 kJ/mol
# Density = 2.058681 g / cm^3
# Si number density = 20.633770 Si / 1000 Ang^3
#
#
#
# Elastic Constant Matrix: (Units=GPa)
#
#
# Indices 1 2 3 4 5 6 
#
# 1 101.7872 43.2714 36.5047 0.0000 0.0000 0.0000
# 2 43.2714 104.6421 43.8227 0.0000 0.0000 0.0000
# 3 36.5047 43.8227 140.5486 0.0000 0.0000 0.0000
# 4 0.0000 0.0000 0.0000 12.2378 0.0000 0.0000
# 5 0.0000 0.0000 0.0000 0.0000 36.4927 0.0000
# 6 0.0000 0.0000 0.0000 0.0000 0.0000 4.4428
#
#
#
# Elastic Compliance Matrix: (Units=1/GPa)
#
#
# Indices 1 2 3 4 5 6 
#
# 1 0.012326 -0.004321 -0.001854 0.000000 0.000000 0.000000
# 2 -0.004321 0.012506 -0.002777 0.000000 0.000000 0.000000
# 3 -0.001854 -0.002777 0.008463 0.000000 0.000000 0.000000
# 4 0.000000 0.000000 0.000000 0.081714 0.000000 0.000000
# 5 0.000000 0.000000 0.000000 0.000000 0.027403 0.000000
# 6 0.000000 0.000000 0.000000 0.000000 0.000000 0.225081
#
#
# Mechanical properties :
#
#
# Convention : Reuss Voigt Hill
#
# Bulk Modulus (GPa) = 64.97458 66.01951 65.49705
# Shear Modulus (GPa) = 12.80322 25.52660 19.16491
#
# Velocity S-wave (km/s) = 2.49368 3.52110 3.05095
# Velocity P-wave (km/s) = 6.31261 6.97109 6.65001
#
# Compressibility (1/GPa) = 0.01539063
#
# Stress axis : x y z
#
# Youngs Moduli (GPa) = 81.12812 79.96134 118.16800
#
# Poissons Ratio (x) = 0.34547 0.21913
# Poissons Ratio (y) = 0.35052 0.32817
# Poissons Ratio (z) = 0.15044 0.22207
#
# Static dielectric constant tensor:
#      x y z
#    x 1.776990 0.000000 0.000000 
#    y 0.000000 1.741340 0.000000 
#    z 0.000000 0.000000 1.964710 
# 
# From -- ./inp_files/19171.got.cif
#   From: 2010.05.17/outbox.cif.g08.bks.cpg/sg60_10_cif.got.tgz:19171.got - 2010.06.03 14:59:27.
