data_PCOD9454901
_publ_section_title
;
Structure prediction by ZEFSAII (Michael W. Deem and Ramdas Pophale) SiO2 
 PCOD9454901
Probable space group: P B C N
;
_chemical_formula_sum "Si O2"
_cell_formula_units_Z 60
_cell_length_a 14.824700
_cell_length_b 26.239641
_cell_length_c 8.767942
_cell_angle_alpha 90.000000
_cell_angle_beta 90.000000
_cell_angle_gamma 90.000000
_cell_volume 3410.683897
_symmetry_space_group_name_H-M "P B C N"
_symmetry_group_IT_number 60
_symmetry_cell_setting 'orthorhombic'
loop_
_space_group_symop_operation_xyz
x,y,z
1/2-x,1/2-y,1/2+z
1/2+x,1/2-y,-z
-x,y,1/2-z
-x,-y,-z
1/2+x,1/2+y,1/2-z
1/2-x,1/2+y,z
x,-y,1/2+z
loop_
_atom_site_type_symbol
_atom_site_label
_atom_site_fract_x
_atom_site_fract_y
_atom_site_fract_z
Si Si1 0.136351 0.016311 0.993142
Si Si2 0.298220 0.197655 0.456729
Si Si3 0.682402 0.792144 0.909943
Si Si4 0.800604 0.887718 0.920220
Si Si5 0.507337 0.346251 0.934147
Si Si6 0.677545 0.602065 0.054029
Si Si7 0.500000 0.503470 0.750000
Si Si8 0.993771 0.726647 0.933455
O O1 0.079162 0.029565 0.843177
O O2 0.170599 0.957898 0.988264
O O3 0.215742 0.056150 0.015643
O O4 0.060362 0.025376 0.124724
O O5 0.306274 0.206577 0.273843
O O6 0.235361 0.242802 0.524759
O O7 0.253040 0.142954 0.498140
O O8 0.399274 0.202264 0.518688
O O9 0.730911 0.844144 0.961148
O O10 0.581138 0.792812 0.975078
O O11 0.897657 0.869382 0.980728
O O12 0.810484 0.894068 0.737567
O O13 0.500000 0.349745 0.750000
O O14 0.419168 0.374716 0.993798
O O15 0.508217 0.286798 0.971329
O O16 0.000000 0.721763 0.750000
#
# Coordination Sequence:
#
# PCOD9454901 Si02
#       8
#     8   8   8   8   8   8   4   8
#     4  11  20  36  50  85 114 154 190 229 282 337
#     4  11  22  39  59  86 114 154 196 236 288 348
#     4  11  22  39  59  86 114 154 196 236 288 348
#     4  10  20  35  56  78 117 157 187 224 284 344
#     4   9  16  29  53  79 112 155 180 213 281 344
#     4  10  20  35  56  78 117 157 187 224 284 344
#     4  10  20  32  56  78 122 148 192 230 272 340
#     4  11  21  39  59  84 117 152 191 245 292 336
#
# _framework density 17.59178
#
# number of rings (size 3 to 8) (size 9 to 14) (size 15 to 20)
#    0.000    1.600    4.000    2.800    1.867    0.000 
#    4.800    0.000    0.000    0.800    0.000    0.000 
#    0.000    0.000    0.000    0.000    0.000    0.000 
#
# Total GULP energy -334325.834577 kJ/mol
# GULP energy per Si atom -5572.097243 kJ/mol
# Density = 1.755174 g / cm^3
# Si number density = 17.591780 Si / 1000 Ang^3
#
#
#
# Elastic Constant Matrix: (Units=GPa)
#
#
# Indices 1 2 3 4 5 6 
#
# 1 127.8836 78.8870 22.8572 0.0000 0.0000 0.0000
# 2 78.8870 158.2612 23.1050 0.0000 0.0000 0.0000
# 3 22.8572 23.1050 47.6743 0.0000 0.0000 0.0000
# 4 0.0000 0.0000 0.0000 15.3387 0.0000 0.0000
# 5 0.0000 0.0000 0.0000 0.0000 24.2201 0.0000
# 6 0.0000 0.0000 0.0000 0.0000 0.0000 5.5842
#
#
#
# Elastic Compliance Matrix: (Units=1/GPa)
#
#
# Indices 1 2 3 4 5 6 
#
# 1 0.011674 -0.005383 -0.002988 0.000000 0.000000 0.000000
# 2 -0.005383 0.009282 -0.001918 0.000000 0.000000 0.000000
# 3 -0.002988 -0.001918 0.023338 0.000000 0.000000 0.000000
# 4 0.000000 0.000000 0.000000 0.065195 0.000000 0.000000
# 5 0.000000 0.000000 0.000000 0.000000 0.041288 0.000000
# 6 0.000000 0.000000 0.000000 0.000000 0.000000 0.179077
#
#
# Mechanical properties :
#
#
# Convention : Reuss Voigt Hill
#
# Bulk Modulus (GPa) = 42.16538 64.83527 53.50032
# Shear Modulus (GPa) = 13.95336 22.95992 18.45664
#
# Velocity S-wave (km/s) = 2.81939 3.61661 3.24259
# Velocity P-wave (km/s) = 5.88383 7.37396 6.67063
#
# Compressibility (1/GPa) = 0.02371614
#
# Stress axis : x y z
#
# Youngs Moduli (GPa) = 85.65857 107.73811 42.84905
#
# Poissons Ratio (x) = 0.57994 0.12805
# Poissons Ratio (y) = 0.46109 0.08216
# Poissons Ratio (z) = 0.25598 0.20659
#
# Static dielectric constant tensor:
#      x y z
#    x 1.581890 0.000000 0.000000 
#    y 0.000000 1.635380 0.000000 
#    z 0.000000 0.000000 1.657420 
# 
# From -- ./inp_files/6378.got.cif
#   From: 2010.05.17/outbox.cif.g08.bks.cpg/sg60_4_cif.got.tgz:6378.got - 2010.06.03 14:59:27.
