data_PCOD9454770
_publ_section_title
;
Structure prediction by ZEFSAII (Michael W. Deem and Ramdas Pophale) SiO2 
 PCOD9454770
Probable space group: P B C N
;
_chemical_formula_sum "Si O2"
_cell_formula_units_Z 52
_cell_length_a 26.000740
_cell_length_b 5.177956
_cell_length_c 17.955226
_cell_angle_alpha 90.000000
_cell_angle_beta 90.000000
_cell_angle_gamma 90.000000
_cell_volume 2417.324424
_symmetry_space_group_name_H-M "P B C N"
_symmetry_group_IT_number 60
_symmetry_cell_setting 'orthorhombic'
loop_
_space_group_symop_operation_xyz
x,y,z
1/2-x,1/2-y,1/2+z
1/2+x,1/2-y,-z
-x,y,1/2-z
-x,-y,-z
1/2+x,1/2+y,1/2-z
1/2-x,1/2+y,z
x,-y,1/2+z
loop_
_atom_site_type_symbol
_atom_site_label
_atom_site_fract_x
_atom_site_fract_y
_atom_site_fract_z
Si Si1 0.098927 0.877858 0.758076
Si Si2 0.500000 0.257494 0.250000
Si Si3 0.860472 0.892244 0.107080
Si Si4 0.716244 0.801820 0.496835
Si Si5 0.082306 0.797014 0.007340
Si Si6 0.951595 0.493523 0.122314
Si Si7 0.887613 0.284513 0.407718
O O1 0.079055 0.663099 0.814988
O O2 0.112914 0.755002 0.680143
O O3 0.050841 0.069881 0.748034
O O4 0.141721 0.024974 0.807158
O O5 0.498100 0.099795 0.327803
O O6 0.812272 0.738078 0.076163
O O7 0.913010 0.723049 0.098224
O O8 0.871209 0.132004 0.050719
O O9 0.758848 0.580908 0.488902
O O10 0.670263 0.754784 0.438625
O O11 0.039615 0.690048 0.948930
O O12 0.095006 0.561609 0.061703
O O13 0.077797 0.055200 0.056000
#
# Coordination Sequence:
#
# PCOD9454770 Si02
#       7
#     8   4   8   8   8   8   8
#     4  10  23  39  67  92 133 169 213 267 319 391
#     4  10  22  40  62 100 124 170 222 264 316 372
#     4   9  20  39  64  92 121 175 212 257 307 382
#     4  11  22  39  65  93 124 164 214 261 308 381
#     4  10  19  38  64  88 125 166 214 245 311 393
#     4  10  19  40  67  89 126 171 216 257 312 389
#     4  11  23  40  64  97 129 171 203 265 339 372
#
# _framework density 21.511386000000002
#
# number of rings (size 3 to 8) (size 9 to 14) (size 15 to 20)
#    0.000    1.846    3.077    2.308    6.462    0.000 
#    0.000    3.077    0.000    0.000    0.000    0.000 
#    0.000    0.000    0.000    0.000    0.000    0.000 
#
# Total GULP energy -290332.939740 kJ/mol
# GULP energy per Si atom -5583.325764 kJ/mol
# Density = 2.146243 g / cm^3
# Si number density = 21.511386 Si / 1000 Ang^3
#
#
#
# Elastic Constant Matrix: (Units=GPa)
#
#
# Indices 1 2 3 4 5 6 
#
# 1 53.6974 5.1926 14.4379 0.0000 0.0000 0.0000
# 2 5.1926 80.5429 0.1269 0.0000 0.0000 0.0000
# 3 14.4379 0.1269 84.7353 0.0000 0.0000 0.0000
# 4 0.0000 0.0000 0.0000 42.1289 0.0000 0.0000
# 5 0.0000 0.0000 0.0000 0.0000 26.8453 0.0000
# 6 0.0000 0.0000 0.0000 0.0000 0.0000 14.7798
#
#
#
# Elastic Compliance Matrix: (Units=1/GPa)
#
#
# Indices 1 2 3 4 5 6 
#
# 1 0.019644 -0.001261 -0.003345 0.000000 0.000000 0.000000
# 2 -0.001261 0.012497 0.000196 0.000000 0.000000 0.000000
# 3 -0.003345 0.000196 0.012371 0.000000 0.000000 0.000000
# 4 0.000000 0.000000 0.000000 0.023737 0.000000 0.000000
# 5 0.000000 0.000000 0.000000 0.000000 0.037250 0.000000
# 6 0.000000 0.000000 0.000000 0.000000 0.000000 0.067660
#
#
# Mechanical properties :
#
#
# Convention : Reuss Voigt Hill
#
# Bulk Modulus (GPa) = 28.01779 28.72116 28.36948
# Shear Modulus (GPa) = 25.78958 30.03203 27.91081
#
# Velocity S-wave (km/s) = 3.46624 3.74049 3.60598
# Velocity P-wave (km/s) = 5.39191 5.66001 5.52758
#
# Compressibility (1/GPa) = 0.03569160
#
# Stress axis : x y z
#
# Youngs Moduli (GPa) = 50.90539 80.02080 80.83319
#
# Poissons Ratio (x) = 0.10092 0.27041
# Poissons Ratio (y) = 0.06420 -0.01586
# Poissons Ratio (z) = 0.17029 -0.01570
#
# Static dielectric constant tensor:
#      x y z
#    x 1.817650 0.000000 0.000000 
#    y 0.000000 1.870790 0.000000 
#    z 0.000000 0.000000 1.824640 
# 
# From -- ./inp_files/21205.got.cif
#   From: 2010.05.17/outbox.cif.g08.bks.cpg/sg60_11_cif.got.tgz:21205.got - 2010.06.03 14:59:27.
