data_PCOD9454535
_publ_section_title
;
Structure prediction by ZEFSAII (Michael W. Deem and Ramdas Pophale) SiO2 
 PCOD9454535
Probable space group: P B C N
;
_chemical_formula_sum "Si O2"
_cell_formula_units_Z 40
_cell_length_a 5.980682
_cell_length_b 25.277059
_cell_length_c 11.709889
_cell_angle_alpha 90.000000
_cell_angle_beta 90.000000
_cell_angle_gamma 90.000000
_cell_volume 1770.231366
_symmetry_space_group_name_H-M "P B C N"
_symmetry_group_IT_number 60
_symmetry_cell_setting 'orthorhombic'
loop_
_space_group_symop_operation_xyz
x,y,z
1/2-x,1/2-y,1/2+z
1/2+x,1/2-y,-z
-x,y,1/2-z
-x,-y,-z
1/2+x,1/2+y,1/2-z
1/2-x,1/2+y,z
x,-y,1/2+z
loop_
_atom_site_type_symbol
_atom_site_label
_atom_site_fract_x
_atom_site_fract_y
_atom_site_fract_z
Si Si1 0.135740 0.680127 0.063617
Si Si2 0.524656 0.375022 0.415677
Si Si3 0.669930 0.215225 0.852908
Si Si4 0.587440 0.076160 0.076594
Si Si5 0.699486 0.523585 0.578211
O O1 0.214643 0.727807 0.142278
O O2 0.023996 0.629361 0.123806
O O3 0.347501 0.657076 0.993409
O O4 0.963331 0.704902 0.971411
O O5 0.655522 0.332257 0.342417
O O6 0.715829 0.401456 0.495474
O O7 0.394500 0.424493 0.360291
O O8 0.500000 0.212864 0.750000
O O9 0.698555 0.027020 0.144911
O O10 0.393084 0.048411 0.001749
O O11 0.500000 0.500000 0.500000
#
# Coordination Sequence:
#
# PCOD9454535 Si02
#       5
#     8   8   8   8   8
#     4  10  19  35  52  77 121 152 195 245 290 357
#     4   9  17  31  49  75 118 147 189 243 290 354
#     4  11  22  35  54  80 118 160 202 242 297 354
#     4   8  15  26  49  77 112 140 186 236 294 355
#     4   8  13  25  47  79 112 134 187 236 299 361
#
# _framework density 22.595915999999999
#
# number of rings (size 3 to 8) (size 9 to 14) (size 15 to 20)
#    0.000    2.800    2.000    0.000    0.000    0.800 
#    0.000    0.000    0.000    0.000    0.000    0.000 
#  942.000    0.000    0.000    0.400    0.000    0.000 
#
# Total GULP energy -223060.914249 kJ/mol
# GULP energy per Si atom -5576.522856 kJ/mol
# Density = 2.254449 g / cm^3
# Si number density = 22.595916 Si / 1000 Ang^3
#
#
#
# Elastic Constant Matrix: (Units=GPa)
#
#
# Indices 1 2 3 4 5 6 
#
# 1 110.6532 81.9038 20.0964 0.0000 0.0000 0.0000
# 2 81.9038 266.7688 40.6760 0.0000 0.0000 0.0000
# 3 20.0964 40.6760 43.0896 0.0000 0.0000 0.0000
# 4 0.0000 0.0000 0.0000 -9.0332 0.0000 0.0000
# 5 0.0000 0.0000 0.0000 0.0000 22.1348 0.0000
# 6 0.0000 0.0000 0.0000 0.0000 0.0000 65.8590
#
#
#
# Elastic Compliance Matrix: (Units=1/GPa)
#
#
# Indices 1 2 3 4 5 6 
#
# 1 0.011914 -0.003283 -0.002457 0.000000 0.000000 0.000000
# 2 -0.003283 0.005284 -0.003456 0.000000 0.000000 0.000000
# 3 -0.002457 -0.003456 0.027616 0.000000 0.000000 0.000000
# 4 0.000000 0.000000 0.000000 -0.110703 0.000000 0.000000
# 5 0.000000 0.000000 0.000000 0.000000 0.045178 0.000000
# 6 0.000000 0.000000 0.000000 0.000000 0.000000 0.015184
#
#
# Mechanical properties :
#
#
# Convention : Reuss Voigt Hill
#
# Bulk Modulus (GPa) = 37.84996 78.42933 58.13965
# Shear Modulus (GPa) = 230.70740 34.31448 132.51094
#
# Velocity S-wave (km/s) = 10.11548 3.90117 7.66623
# Velocity P-wave (km/s) = 12.37812 7.42139 10.20527
#
# Compressibility (1/GPa) = 0.02642011
#
# Stress axis : x y z
#
# Youngs Moduli (GPa) = 83.93782 189.26625 36.21051
#
# Poissons Ratio (x) = 0.62137 0.08898
# Poissons Ratio (y) = 0.27557 0.12516
# Poissons Ratio (z) = 0.20625 0.65419
#
# Static dielectric constant tensor:
#      x y z
#    x 1.849900 0.000000 0.000000 
#    y 0.000000 1.858650 0.000000 
#    z 0.000000 0.000000 1.789300 
# 
# From -- ./inp_files/13813.got.cif
#   From: 2010.05.17/outbox.cif.g08.bks.cpg/sg60_7_cif.got.tgz:13813.got - 2010.06.03 14:59:27.
