data_PCOD9454159
_publ_section_title
;
Structure prediction by ZEFSAII (Michael W. Deem and Ramdas Pophale) SiO2 
 PCOD9454159
Probable space group: P B C N
;
_chemical_formula_sum "Si O2"
_cell_formula_units_Z 60
_cell_length_a 9.836987
_cell_length_b 20.463812
_cell_length_c 12.547464
_cell_angle_alpha 90.000000
_cell_angle_beta 90.000000
_cell_angle_gamma 90.000000
_cell_volume 2525.832768
_symmetry_space_group_name_H-M "P B C N"
_symmetry_group_IT_number 60
_symmetry_cell_setting 'orthorhombic'
loop_
_space_group_symop_operation_xyz
x,y,z
1/2-x,1/2-y,1/2+z
1/2+x,1/2-y,-z
-x,y,1/2-z
-x,-y,-z
1/2+x,1/2+y,1/2-z
1/2-x,1/2+y,z
x,-y,1/2+z
loop_
_atom_site_type_symbol
_atom_site_label
_atom_site_fract_x
_atom_site_fract_y
_atom_site_fract_z
Si Si1 0.528231 0.259095 0.414877
Si Si2 0.846827 0.123509 0.572233
Si Si3 0.185999 0.701384 0.254840
Si Si4 0.717349 0.580470 0.346400
Si Si5 0.000000 0.445320 0.250000
Si Si6 0.904906 0.715077 0.649874
Si Si7 0.128328 0.460796 0.046693
Si Si8 0.766084 0.015783 0.150670
O O1 0.475309 0.332479 0.400035
O O2 0.664793 0.248916 0.347311
O O3 0.422270 0.215837 0.346646
O O4 0.532066 0.234435 0.535657
O O5 0.846577 0.119911 0.443565
O O6 0.713011 0.161155 0.619887
O O7 0.843118 0.049490 0.613235
O O8 0.174874 0.630000 0.205678
O O9 0.328489 0.720201 0.306528
O O10 0.780325 0.517414 0.402190
O O11 0.649822 0.553253 0.239806
O O12 0.069953 0.416430 0.141759
O O13 0.124505 0.488293 0.298172
O O14 0.000000 0.695993 0.750000
O O15 0.218389 0.437904 0.947022
O O16 0.000000 0.500000 0.000000
#
# Coordination Sequence:
#
# PCOD9454159 Si02
#       8
#     8   8   8   8   4   8   8   8
#     4  10  22  41  65  97 131 174 223 279 343 401
#     4  10  21  39  60  93 141 174 223 277 336 410
#     4  10  22  40  68  96 126 175 220 282 344 395
#     4  10  18  36  59  87 130 173 223 271 329 413
#     4   8  14  26  42  68 116 162 208 256 324 384
#     4  11  23  39  67  98 131 169 221 283 342 401
#     4   8  15  26  43  73 116 158 205 255 316 392
#     4   9  18  30  52  84 123 175 212 271 331 398
#
# _framework density 23.754541
#
# number of rings (size 3 to 8) (size 9 to 14) (size 15 to 20)
#    0.000    2.400    1.333    0.800    2.800    6.400 
#    2.400    1.333    0.000    0.800   10.400    0.000 
#    0.000    0.000    0.000    0.000    0.000    0.000 
#
# Total GULP energy -334323.331817 kJ/mol
# GULP energy per Si atom -5572.055530 kJ/mol
# Density = 2.370047 g / cm^3
# Si number density = 23.754541 Si / 1000 Ang^3
#
#
#
# Elastic Constant Matrix: (Units=GPa)
#
#
# Indices 1 2 3 4 5 6 
#
# 1 38.1972 14.3508 38.8096 0.0000 0.0000 0.0000
# 2 14.3508 46.8991 31.2898 0.0000 0.0000 0.0000
# 3 38.8096 31.2898 192.0946 0.0000 0.0000 0.0000
# 4 0.0000 0.0000 0.0000 45.0667 0.0000 0.0000
# 5 0.0000 0.0000 0.0000 0.0000 8.6853 0.0000
# 6 0.0000 0.0000 0.0000 0.0000 0.0000 -3.4306
#
#
#
# Elastic Compliance Matrix: (Units=1/GPa)
#
#
# Indices 1 2 3 4 5 6 
#
# 1 0.034705 -0.006666 -0.005926 0.000000 0.000000 0.000000
# 2 -0.006666 0.025202 -0.002758 0.000000 0.000000 0.000000
# 3 -0.005926 -0.002758 0.006852 0.000000 0.000000 0.000000
# 4 0.000000 0.000000 0.000000 0.022189 0.000000 0.000000
# 5 0.000000 0.000000 0.000000 0.000000 0.115137 0.000000
# 6 0.000000 0.000000 0.000000 0.000000 0.000000 -0.291492
#
#
# Mechanical properties :
#
#
# Convention : Reuss Voigt Hill
#
# Bulk Modulus (GPa) = 27.73196 49.56571 38.64884
# Shear Modulus (GPa) = -111.89230 22.91364 -44.48933
#
# Velocity S-wave (km/s) = -6.87065 3.10917 -4.33237
# Velocity P-wave (km/s) = 7.15831 5.81381 2.95305
#
# Compressibility (1/GPa) = 0.03605948
#
# Stress axis : x y z
#
# Youngs Moduli (GPa) = 28.81412 39.67864 145.93647
#
# Poissons Ratio (x) = 0.26450 0.86479
# Poissons Ratio (y) = 0.19208 0.40255
# Poissons Ratio (z) = 0.17075 0.10945
#
# Static dielectric constant tensor:
#      x y z
#    x 1.958850 0.000000 0.000000 
#    y 0.000000 1.919350 0.000000 
#    z 0.000000 0.000000 1.978010 
# 
# From -- ./inp_files/11240.got.cif
#   From: 2010.05.17/outbox.cif.g08.bks.cpg/sg60_6_cif.got.tgz:11240.got - 2010.06.03 14:59:27.
