data_PCOD9454601
_publ_section_title
;
Structure prediction by ZEFSAII (Michael W. Deem and Ramdas Pophale) SiO2 
 PCOD9454601
Probable space group: P B C N
;
_chemical_formula_sum "Si O2"
_cell_formula_units_Z 52
_cell_length_a 8.518522
_cell_length_b 16.027667
_cell_length_c 17.847859
_cell_angle_alpha 90.000000
_cell_angle_beta 90.000000
_cell_angle_gamma 90.000000
_cell_volume 2436.804491
_symmetry_space_group_name_H-M "P B C N"
_symmetry_group_IT_number 60
_symmetry_cell_setting 'orthorhombic'
loop_
_space_group_symop_operation_xyz
x,y,z
1/2-x,1/2-y,1/2+z
1/2+x,1/2-y,-z
-x,y,1/2-z
-x,-y,-z
1/2+x,1/2+y,1/2-z
1/2-x,1/2+y,z
x,-y,1/2+z
loop_
_atom_site_type_symbol
_atom_site_label
_atom_site_fract_x
_atom_site_fract_y
_atom_site_fract_z
Si Si1 0.500000 0.063640 0.750000
Si Si2 0.980751 0.154552 0.380321
Si Si3 0.323457 0.174546 0.659775
Si Si4 0.325719 0.334220 0.017289
Si Si5 0.006915 0.320258 0.927060
Si Si6 0.786068 0.273229 0.704336
Si Si7 0.306799 0.077772 0.183026
O O1 0.481125 0.123249 0.677849
O O2 0.643504 0.002297 0.769230
O O3 0.044688 0.128613 0.461382
O O4 0.129395 0.187969 0.333311
O O5 0.871633 0.237360 0.377628
O O6 0.873090 0.084208 0.343095
O O7 0.205899 0.132923 0.600999
O O8 0.249921 0.196130 0.740780
O O9 0.389569 0.238902 0.026686
O O10 0.157042 0.343204 0.977086
O O11 0.084734 0.264673 0.860092
O O12 0.918693 0.398430 0.887953
O O13 0.833420 0.345807 0.760934
#
# Coordination Sequence:
#
# PCOD9454601 Si02
#       7
#     4   8   8   8   8   8   8
#     4  12  24  38  60  98 130 168 202 264 328 368
#     4  10  20  38  65  89 119 163 221 258 312 370
#     4  11  20  36  60  94 128 150 208 278 307 357
#     4  11  21  34  63  95 122 156 211 276 312 360
#     4  11  19  34  61  94 116 155 216 253 308 372
#     4  10  19  35  66  88 116 160 222 259 305 364
#     4  11  20  38  61  87 122 169 212 249 303 403
#
# _framework density 21.339421999999999
#
# number of rings (size 3 to 8) (size 9 to 14) (size 15 to 20)
#    0.000    1.231    7.692    1.385    0.000    0.000 
#    0.000    1.538    6.769    0.000    0.000    0.000 
#    0.000    0.000    0.000    0.000    0.000    0.000 
#
# Total GULP energy -289489.360719 kJ/mol
# GULP energy per Si atom -5567.103091 kJ/mol
# Density = 2.129085 g / cm^3
# Si number density = 21.339422 Si / 1000 Ang^3
#
#
#
# Elastic Constant Matrix: (Units=GPa)
#
#
# Indices 1 2 3 4 5 6 
#
# 1 72.0481 9.7646 24.8279 0.0000 0.0000 0.0000
# 2 9.7646 41.3525 13.5125 0.0000 0.0000 0.0000
# 3 24.8279 13.5125 95.4555 0.0000 0.0000 0.0000
# 4 0.0000 0.0000 0.0000 4.4839 0.0000 0.0000
# 5 0.0000 0.0000 0.0000 0.0000 60.7730 0.0000
# 6 0.0000 0.0000 0.0000 0.0000 0.0000 5.9088
#
#
#
# Elastic Compliance Matrix: (Units=1/GPa)
#
#
# Indices 1 2 3 4 5 6 
#
# 1 0.015480 -0.002453 -0.003679 0.000000 0.000000 0.000000
# 2 -0.002453 0.025744 -0.003006 0.000000 0.000000 0.000000
# 3 -0.003679 -0.003006 0.011859 0.000000 0.000000 0.000000
# 4 0.000000 0.000000 0.000000 0.223019 0.000000 0.000000
# 5 0.000000 0.000000 0.000000 0.000000 0.016455 0.000000
# 6 0.000000 0.000000 0.000000 0.000000 0.000000 0.169239
#
#
# Mechanical properties :
#
#
# Convention : Reuss Voigt Hill
#
# Bulk Modulus (GPa) = 28.73098 33.89624 31.31361
# Shear Modulus (GPa) = 10.16936 24.94989 17.55963
#
# Velocity S-wave (km/s) = 2.18538 3.42305 2.87169
# Velocity P-wave (km/s) = 4.45655 5.61622 5.06965
#
# Compressibility (1/GPa) = 0.03480563
#
# Stress axis : x y z
#
# Youngs Moduli (GPa) = 64.59998 38.84409 84.32735
#
# Poissons Ratio (x) = 0.09529 0.31024
# Poissons Ratio (y) = 0.15847 0.25351
# Poissons Ratio (z) = 0.23767 0.11677
#
# Static dielectric constant tensor:
#      x y z
#    x 1.877720 0.000000 0.000000 
#    y 0.000000 1.802390 0.000000 
#    z 0.000000 0.000000 1.840150 
# 
# From -- ./inp_files/19534.got.cif
#   From: 2010.05.17/outbox.cif.g08.bks.cpg/sg60_10_cif.got.tgz:19534.got - 2010.06.03 14:59:27.
