data_PCOD9454814
_publ_section_title
;
Structure prediction by ZEFSAII (Michael W. Deem and Ramdas Pophale) SiO2 
 PCOD9454814
Probable space group: P B C N
;
_chemical_formula_sum "Si O2"
_cell_formula_units_Z 48
_cell_length_a 9.877710
_cell_length_b 13.746156
_cell_length_c 16.048537
_cell_angle_alpha 90.000000
_cell_angle_beta 90.000000
_cell_angle_gamma 90.000000
_cell_volume 2179.079062
_symmetry_space_group_name_H-M "P B C N"
_symmetry_group_IT_number 60
_symmetry_cell_setting 'orthorhombic'
loop_
_space_group_symop_operation_xyz
x,y,z
1/2-x,1/2-y,1/2+z
1/2+x,1/2-y,-z
-x,y,1/2-z
-x,-y,-z
1/2+x,1/2+y,1/2-z
1/2-x,1/2+y,z
x,-y,1/2+z
loop_
_atom_site_type_symbol
_atom_site_label
_atom_site_fract_x
_atom_site_fract_y
_atom_site_fract_z
Si Si1 0.406435 0.767999 0.397739
Si Si2 0.837700 0.793385 0.994845
Si Si3 0.759955 0.530736 0.379560
Si Si4 0.685281 0.582839 0.190959
Si Si5 0.997871 0.940026 0.412819
Si Si6 0.052947 0.516876 0.845378
O O1 0.555793 0.760956 0.436430
O O2 0.293233 0.742766 0.467014
O O3 0.379740 0.687083 0.327796
O O4 0.387713 0.877754 0.367156
O O5 0.781834 0.884625 0.942429
O O6 0.927738 0.839218 0.069833
O O7 0.724904 0.568512 0.286864
O O8 0.659903 0.438871 0.389962
O O9 0.916064 0.506737 0.394155
O O10 0.579881 0.503449 0.154864
O O11 0.827847 0.561364 0.144319
O O12 0.000000 0.000000 0.500000
O O13 0.000000 0.519289 0.750000
#
# Coordination Sequence:
#
# PCOD9454814 Si02
#       6
#     8   8   8   8   8   8
#     4  12  26  42  69  96 140 174 230 275 339 400
#     4  11  26  40  63 101 132 179 220 277 337 403
#     4  10  23  43  69  92 128 177 228 272 341 400
#     4  11  22  44  69  93 134 178 221 281 339 392
#     4  10  19  40  62  92 125 169 217 266 334 394
#     4  10  25  43  67 100 131 177 224 274 333 400
#
# _framework density 22.027653999999998
#
# number of rings (size 3 to 8) (size 9 to 14) (size 15 to 20)
#    0.000    1.333    5.000    0.500    7.000    0.667 
#    0.000    0.000    0.000    0.000    0.000    0.000 
#    0.000    0.000    0.000    0.000    0.000    0.000 
#
# Total GULP energy -268190.017248 kJ/mol
# GULP energy per Si atom -5587.292026 kJ/mol
# Density = 2.197752 g / cm^3
# Si number density = 22.027654 Si / 1000 Ang^3
#
#
#
# Elastic Constant Matrix: (Units=GPa)
#
#
# Indices 1 2 3 4 5 6 
#
# 1 134.7954 1.6086 9.4301 0.0000 0.0000 0.0000
# 2 1.6086 33.2670 15.1976 0.0000 0.0000 0.0000
# 3 9.4301 15.1976 40.4089 0.0000 0.0000 0.0000
# 4 0.0000 0.0000 0.0000 18.5264 0.0000 0.0000
# 5 0.0000 0.0000 0.0000 0.0000 37.8932 0.0000
# 6 0.0000 0.0000 0.0000 0.0000 0.0000 31.6233
#
#
#
# Elastic Compliance Matrix: (Units=1/GPa)
#
#
# Indices 1 2 3 4 5 6 
#
# 1 0.007550 0.000531 -0.001962 0.000000 0.000000 0.000000
# 2 0.000531 0.036333 -0.013789 0.000000 0.000000 0.000000
# 3 -0.001962 -0.013789 0.030391 0.000000 0.000000 0.000000
# 4 0.000000 0.000000 0.000000 0.053977 0.000000 0.000000
# 5 0.000000 0.000000 0.000000 0.000000 0.026390 0.000000
# 6 0.000000 0.000000 0.000000 0.000000 0.000000 0.031622
#
#
# Mechanical properties :
#
#
# Convention : Reuss Voigt Hill
#
# Bulk Modulus (GPa) = 22.81278 28.99378 25.90328
# Shear Modulus (GPa) = 21.61574 29.75759 25.68666
#
# Velocity S-wave (km/s) = 3.13597 3.67947 3.41854
# Velocity P-wave (km/s) = 4.84678 5.58949 5.23133
#
# Compressibility (1/GPa) = 0.04383508
#
# Stress axis : x y z
#
# Youngs Moduli (GPa) = 132.45844 27.52293 32.90483
#
# Poissons Ratio (x) = -0.01462 0.06454
# Poissons Ratio (y) = -0.07034 0.45372
# Poissons Ratio (z) = 0.25982 0.37951
#
# Static dielectric constant tensor:
#      x y z
#    x 1.853240 0.000000 0.000000 
#    y 0.000000 1.799310 0.000000 
#    z 0.000000 0.000000 1.838210 
# 
# From -- ./inp_files/19328.got.cif
#   From: 2010.05.17/outbox.cif.g08.bks.cpg/sg60_10_cif.got.tgz:19328.got - 2010.06.03 14:59:27.
