data_PCOD9454418
_publ_section_title
;
Structure prediction by ZEFSAII (Michael W. Deem and Ramdas Pophale) SiO2 
 PCOD9454418
Probable space group: P B C N
;
_chemical_formula_sum "Si O2"
_cell_formula_units_Z 40
_cell_length_a 5.199201
_cell_length_b 18.919456
_cell_length_c 20.127058
_cell_angle_alpha 90.000000
_cell_angle_beta 90.000000
_cell_angle_gamma 90.000000
_cell_volume 1979.819285
_symmetry_space_group_name_H-M "P B C N"
_symmetry_group_IT_number 60
_symmetry_cell_setting 'orthorhombic'
loop_
_space_group_symop_operation_xyz
x,y,z
1/2-x,1/2-y,1/2+z
1/2+x,1/2-y,-z
-x,y,1/2-z
-x,-y,-z
1/2+x,1/2+y,1/2-z
1/2-x,1/2+y,z
x,-y,1/2+z
loop_
_atom_site_type_symbol
_atom_site_label
_atom_site_fract_x
_atom_site_fract_y
_atom_site_fract_z
Si Si1 0.024127 0.923699 0.674269
Si Si2 0.687950 0.461052 0.073739
Si Si3 0.998801 0.719139 0.033742
Si Si4 0.188745 0.420515 0.032489
Si Si5 0.974280 0.670639 0.173609
O O1 0.809077 0.862748 0.666307
O O2 0.000000 0.948807 0.750000
O O3 0.305791 0.889973 0.664228
O O4 0.941967 0.985867 0.625381
O O5 0.471867 0.402423 0.059353
O O6 0.971535 0.431560 0.088562
O O7 0.751572 0.507840 0.008216
O O8 0.012396 0.724719 0.113327
O O9 0.768606 0.762289 0.999795
O O10 0.923966 0.637934 0.016669
O O11 0.000000 0.696117 0.250000
#
# Coordination Sequence:
#
# PCOD9454418 Si02
#       5
#     8   8   8   8   8
#     4  10  19  33  57  85 115 145 180 234 293 347
#     4  10  19  33  56  81 114 140 172 230 279 352
#     4  12  24  38  59  83 117 152 199 247 277 338
#     4  10  21  33  54  81 111 145 178 223 288 328
#     4  10  21  37  57  83 114 146 191 243 291 337
#
# _framework density 20.203863999999999
#
# number of rings (size 3 to 8) (size 9 to 14) (size 15 to 20)
#    0.000    1.600    2.000    3.600    5.600    0.000 
#    0.000    0.000    0.000    7.200    0.000    0.000 
#    0.000    0.000    0.000    0.000    0.000    0.000 
#
# Total GULP energy -223066.930475 kJ/mol
# GULP energy per Si atom -5576.673262 kJ/mol
# Density = 2.015788 g / cm^3
# Si number density = 20.203864 Si / 1000 Ang^3
#
#
#
# Elastic Constant Matrix: (Units=GPa)
#
#
# Indices 1 2 3 4 5 6 
#
# 1 116.7308 16.0219 30.1743 0.0000 0.0000 0.0000
# 2 16.0219 20.2797 19.4774 0.0000 0.0000 0.0000
# 3 30.1743 19.4774 130.1446 0.0000 0.0000 0.0000
# 4 0.0000 0.0000 0.0000 26.1799 0.0000 0.0000
# 5 0.0000 0.0000 0.0000 0.0000 21.2970 0.0000
# 6 0.0000 0.0000 0.0000 0.0000 0.0000 28.7063
#
#
#
# Elastic Compliance Matrix: (Units=1/GPa)
#
#
# Indices 1 2 3 4 5 6 
#
# 1 0.009793 -0.006489 -0.001299 0.000000 0.000000 0.000000
# 2 -0.006489 0.061888 -0.007758 0.000000 0.000000 0.000000
# 3 -0.001299 -0.007758 0.009146 0.000000 0.000000 0.000000
# 4 0.000000 0.000000 0.000000 0.038197 0.000000 0.000000
# 5 0.000000 0.000000 0.000000 0.000000 0.046955 0.000000
# 6 0.000000 0.000000 0.000000 0.000000 0.000000 0.034836
#
#
# Mechanical properties :
#
#
# Convention : Reuss Voigt Hill
#
# Bulk Modulus (GPa) = 20.10661 44.27802 32.19232
# Shear Modulus (GPa) = 20.12189 28.66873 24.39531
#
# Velocity S-wave (km/s) = 3.15928 3.77101 3.47862
# Velocity P-wave (km/s) = 4.82509 6.39718 5.66593
#
# Compressibility (1/GPa) = 0.04973490
#
# Stress axis : x y z
#
# Youngs Moduli (GPa) = 102.11082 16.15825 109.33706
#
# Poissons Ratio (x) = 0.10485 0.14208
# Poissons Ratio (y) = 0.66261 0.84819
# Poissons Ratio (z) = 0.13269 0.12535
#
# Static dielectric constant tensor:
#      x y z
#    x 1.799730 0.000000 0.000000 
#    y 0.000000 1.733230 0.000000 
#    z 0.000000 0.000000 1.729430 
# 
# From -- ./inp_files/18527.got.cif
#   From: 2010.05.17/outbox.cif.g08.bks.cpg/sg60_10_cif.got.tgz:18527.got - 2010.06.03 14:59:27.
