data_PCOD9454022
_publ_section_title
;
Structure prediction by ZEFSAII (Michael W. Deem and Ramdas Pophale) SiO2 
 PCOD9454022
Probable space group: P B C N
;
_chemical_formula_sum "Si O2"
_cell_formula_units_Z 52
_cell_length_a 8.276321
_cell_length_b 13.405416
_cell_length_c 17.542562
_cell_angle_alpha 90.000000
_cell_angle_beta 90.000000
_cell_angle_gamma 90.000000
_cell_volume 1946.303853
_symmetry_space_group_name_H-M "P B C N"
_symmetry_group_IT_number 60
_symmetry_cell_setting 'orthorhombic'
loop_
_space_group_symop_operation_xyz
x,y,z
1/2-x,1/2-y,1/2+z
1/2+x,1/2-y,-z
-x,y,1/2-z
-x,-y,-z
1/2+x,1/2+y,1/2-z
1/2-x,1/2+y,z
x,-y,1/2+z
loop_
_atom_site_type_symbol
_atom_site_label
_atom_site_fract_x
_atom_site_fract_y
_atom_site_fract_z
Si Si1 0.574195 0.622277 0.556882
Si Si2 0.662173 0.700757 0.276256
Si Si3 0.809881 0.430618 0.652883
Si Si4 0.963184 0.562292 0.922061
Si Si5 0.750062 0.696939 0.009723
Si Si6 0.500000 0.212260 0.250000
Si Si7 0.867474 0.035925 0.392946
O O1 0.714636 0.703991 0.557883
O O2 0.411464 0.685835 0.539073
O O3 0.513969 0.543212 0.620264
O O4 0.623742 0.560317 0.482394
O O5 0.500000 0.754148 0.250000
O O6 0.692729 0.603781 0.220677
O O7 0.633698 0.643484 0.354331
O O8 0.828302 0.761984 0.267856
O O9 0.740908 0.386474 0.575087
O O10 0.962513 0.359773 0.678069
O O11 0.887011 0.537507 0.633658
O O12 0.803460 0.517928 0.881410
O O13 0.899329 0.667674 0.953846
O O14 0.000000 0.500000 0.000000
#
# Coordination Sequence:
#
# PCOD9454022 Si02
#       7
#     8   8   8   8   8   4   8
#     4  10  23  35  56  83 118 148 196 245 298 354
#     4  10  18  32  58  84 109 147 193 234 283 352
#     4   9  17  34  55  87 108 146 196 230 289 361
#     4   9  17  31  58  82 113 145 187 237 296 346
#     4  10  21  35  53  85 114 155 186 245 304 343
#     4   8  18  30  54  84 106 148 188 238 270 358
#     4  10  19  38  56  85 114 153 197 242 290 358
#
# _framework density 26.717310999999999
#
# number of rings (size 3 to 8) (size 9 to 14) (size 15 to 20)
#    0.923    1.538    1.538    0.923    4.308    1.231 
#    0.000    0.000    1.692    0.000   22.000    0.000 
#    0.000    0.000    0.000    0.000    0.000    0.000 
#
# Total GULP energy -290032.795909 kJ/mol
# GULP energy per Si atom -5577.553767 kJ/mol
# Density = 2.665650 g / cm^3
# Si number density = 26.717311 Si / 1000 Ang^3
#
#
#
# Elastic Constant Matrix: (Units=GPa)
#
#
# Indices 1 2 3 4 5 6 
#
# 1 124.9894 19.3244 -5.7141 0.0000 0.0000 0.0000
# 2 19.3244 71.8155 7.0655 0.0000 0.0000 0.0000
# 3 -5.7141 7.0655 51.9021 0.0000 0.0000 0.0000
# 4 0.0000 0.0000 0.0000 9.6476 0.0000 0.0000
# 5 0.0000 0.0000 0.0000 0.0000 34.6692 0.0000
# 6 0.0000 0.0000 0.0000 0.0000 0.0000 17.6340
#
#
#
# Elastic Compliance Matrix: (Units=1/GPa)
#
#
# Indices 1 2 3 4 5 6 
#
# 1 0.008428 -0.002391 0.001253 0.000000 0.000000 0.000000
# 2 -0.002391 0.014792 -0.002277 0.000000 0.000000 0.000000
# 3 0.001253 -0.002277 0.019715 0.000000 0.000000 0.000000
# 4 0.000000 0.000000 0.000000 0.103653 0.000000 0.000000
# 5 0.000000 0.000000 0.000000 0.000000 0.028844 0.000000
# 6 0.000000 0.000000 0.000000 0.000000 0.000000 0.056709
#
#
# Mechanical properties :
#
#
# Convention : Reuss Voigt Hill
#
# Bulk Modulus (GPa) = 27.69670 32.22873 29.96271
# Shear Modulus (GPa) = 19.91996 27.59224 23.75610
#
# Velocity S-wave (km/s) = 2.73350 3.21713 2.98512
# Velocity P-wave (km/s) = 4.51129 5.08812 4.80836
#
# Compressibility (1/GPa) = 0.03610539
#
# Stress axis : x y z
#
# Youngs Moduli (GPa) = 118.65699 67.60422 50.72285
#
# Poissons Ratio (x) = 0.16165 -0.06357
# Poissons Ratio (y) = 0.28372 0.11549
# Poissons Ratio (z) = -0.14872 0.15393
#
# Static dielectric constant tensor:
#      x y z
#    x 2.232340 0.000000 0.000000 
#    y 0.000000 2.266410 0.000000 
#    z 0.000000 0.000000 2.094930 
# 
# From -- ./inp_files/24005.got.cif
#   From: 2010.05.17/outbox.cif.g08.bks.cpg/sg60_13_cif.got.tgz:24005.got - 2010.06.03 14:59:27.
