data_PCOD9454689
_publ_section_title
;
Structure prediction by ZEFSAII (Michael W. Deem and Ramdas Pophale) SiO2 
 PCOD9454689
Probable space group: P B C N
;
_chemical_formula_sum "Si O2"
_cell_formula_units_Z 64
_cell_length_a 5.425470
_cell_length_b 28.818657
_cell_length_c 23.154064
_cell_angle_alpha 90.000000
_cell_angle_beta 90.000000
_cell_angle_gamma 90.000000
_cell_volume 3620.248096
_symmetry_space_group_name_H-M "P B C N"
_symmetry_group_IT_number 60
_symmetry_cell_setting 'orthorhombic'
loop_
_space_group_symop_operation_xyz
x,y,z
1/2-x,1/2-y,1/2+z
1/2+x,1/2-y,-z
-x,y,1/2-z
-x,-y,-z
1/2+x,1/2+y,1/2-z
1/2-x,1/2+y,z
x,-y,1/2+z
loop_
_atom_site_type_symbol
_atom_site_label
_atom_site_fract_x
_atom_site_fract_y
_atom_site_fract_z
Si Si1 0.096936 0.055197 0.309826
Si Si2 0.719710 0.802786 0.536079
Si Si3 0.605733 0.964137 0.187522
Si Si4 0.668073 0.102300 0.587884
Si Si5 0.222528 0.198795 0.959955
Si Si6 0.338771 0.436871 0.029859
Si Si7 0.210169 0.525909 0.095919
Si Si8 0.321321 0.901379 0.912864
O O1 0.287488 0.086422 0.345442
O O2 0.000000 0.075143 0.250000
O O3 0.898796 0.047129 0.359098
O O4 0.195669 0.003632 0.297802
O O5 0.727314 0.751423 0.563608
O O6 0.462849 0.803963 0.501050
O O7 0.702433 0.846954 0.577515
O O8 0.964568 0.807629 0.495384
O O9 0.500000 0.952163 0.250000
O O10 0.673920 0.918350 0.152354
O O11 0.447200 0.992265 0.139140
O O12 0.732553 0.156577 0.583506
O O13 0.400951 0.090614 0.557726
O O14 0.900095 0.077342 0.557091
O O15 0.293253 0.490549 0.046186
O O16 0.351402 0.424323 0.962342
O O17 0.066406 0.569977 0.071272
#
# Coordination Sequence:
#
# PCOD9454689 Si02
#       8
#     8   8   8   8   8   8   8   8
#     4  11  22  37  56  73 110 155 202 234 271 332
#     4  10  21  35  58  82 113 151 184 230 287 346
#     4  10  20  36  54  78 111 151 198 233 276 332
#     4  11  20  35  59  84 115 147 184 237 285 339
#     4  10  19  37  57  83 115 146 184 233 286 350
#     4  11  22  36  53  86 119 150 182 226 294 349
#     4  10  22  35  53  78 114 155 184 239 278 335
#     4  11  23  34  54  83 115 152 189 238 285 348
#
# _framework density 17.678345
#
# number of rings (size 3 to 8) (size 9 to 14) (size 15 to 20)
#    0.000    1.500    5.000    0.375    3.500    0.500 
#    0.000    0.000    0.000    0.750    0.000    0.000 
#   11.250    0.000    0.000    0.000    0.000    0.000 
#
# Total GULP energy -356325.209710 kJ/mol
# GULP energy per Si atom -5567.581402 kJ/mol
# Density = 1.763811 g / cm^3
# Si number density = 17.678345 Si / 1000 Ang^3
#
#
#
# Elastic Constant Matrix: (Units=GPa)
#
#
# Indices 1 2 3 4 5 6 
#
# 1 78.5511 26.4416 27.9703 0.0000 0.0000 0.0000
# 2 26.4416 142.8025 49.8089 0.0000 0.0000 0.0000
# 3 27.9703 49.8089 109.6901 0.0000 0.0000 0.0000
# 4 0.0000 0.0000 0.0000 11.7716 0.0000 0.0000
# 5 0.0000 0.0000 0.0000 0.0000 22.0685 0.0000
# 6 0.0000 0.0000 0.0000 0.0000 0.0000 6.6211
#
#
#
# Elastic Compliance Matrix: (Units=1/GPa)
#
#
# Indices 1 2 3 4 5 6 
#
# 1 0.014317 -0.001637 -0.002907 0.000000 0.000000 0.000000
# 2 -0.001637 0.008508 -0.003446 0.000000 0.000000 0.000000
# 3 -0.002907 -0.003446 0.011423 0.000000 0.000000 0.000000
# 4 0.000000 0.000000 0.000000 0.084950 0.000000 0.000000
# 5 0.000000 0.000000 0.000000 0.000000 0.045314 0.000000
# 6 0.000000 0.000000 0.000000 0.000000 0.000000 0.151033
#
#
# Mechanical properties :
#
#
# Convention : Reuss Voigt Hill
#
# Bulk Modulus (GPa) = 54.74368 59.94282 57.34325
# Shear Modulus (GPa) = 14.80985 23.21376 19.01181
#
# Velocity S-wave (km/s) = 2.89751 3.62763 3.28293
# Velocity P-wave (km/s) = 6.49830 7.17826 6.84672
#
# Compressibility (1/GPa) = 0.01826695
#
# Stress axis : x y z
#
# Youngs Moduli (GPa) = 69.84787 117.54124 87.54509
#
# Poissons Ratio (x) = 0.19240 0.25453
# Poissons Ratio (y) = 0.11433 0.30167
# Poissons Ratio (z) = 0.20308 0.40503
#
# Static dielectric constant tensor:
#      x y z
#    x 1.740850 0.000000 0.000000 
#    y 0.000000 1.649310 0.000000 
#    z 0.000000 0.000000 1.515860 
# 
# From -- ./inp_files/21816.got.cif
#   From: 2010.05.17/outbox.cif.g08.bks.cpg/sg60_11_cif.got.tgz:21816.got - 2010.06.03 14:59:27.
