data_PCOD9454174
_publ_section_title
;
Structure prediction by ZEFSAII (Michael W. Deem and Ramdas Pophale) SiO2 
 PCOD9454174
Probable space group: P B C N
;
_chemical_formula_sum "Si O2"
_cell_formula_units_Z 52
_cell_length_a 15.741997
_cell_length_b 14.247194
_cell_length_c 11.266572
_cell_angle_alpha 90.000000
_cell_angle_beta 90.000000
_cell_angle_gamma 90.000000
_cell_volume 2526.858715
_symmetry_space_group_name_H-M "P B C N"
_symmetry_group_IT_number 60
_symmetry_cell_setting 'orthorhombic'
loop_
_space_group_symop_operation_xyz
x,y,z
1/2-x,1/2-y,1/2+z
1/2+x,1/2-y,-z
-x,y,1/2-z
-x,-y,-z
1/2+x,1/2+y,1/2-z
1/2-x,1/2+y,z
x,-y,1/2+z
loop_
_atom_site_type_symbol
_atom_site_label
_atom_site_fract_x
_atom_site_fract_y
_atom_site_fract_z
Si Si1 0.387018 0.420852 0.435122
Si Si2 0.919599 0.265828 0.667355
Si Si3 0.539901 0.614886 0.119628
Si Si4 0.326476 0.057146 0.292284
Si Si5 0.000000 0.548849 0.750000
Si Si6 0.708427 0.060306 0.469216
Si Si7 0.044543 0.318263 0.464166
O O1 0.399403 0.344232 0.332569
O O2 0.394708 0.528316 0.392073
O O3 0.463332 0.406166 0.528124
O O4 0.297947 0.394903 0.494701
O O5 0.839916 0.331231 0.696676
O O6 0.000000 0.281349 0.750000
O O7 0.962232 0.297460 0.544161
O O8 0.500000 0.617666 0.250000
O O9 0.575196 0.717359 0.085319
O O10 0.418656 0.015800 0.260567
O O11 0.303607 0.014455 0.421703
O O12 0.278770 0.030770 0.169169
O O13 0.007384 0.615629 0.862567
O O14 0.624874 0.127314 0.477607
#
# Coordination Sequence:
#
# PCOD9454174 Si02
#       7
#     8   8   8   8   4   8   8
#     4  10  25  40  61  93 125 168 217 263 321 383
#     4  11  20  40  64  91 120 172 211 258 308 393
#     4  10  21  43  68  87 120 175 219 263 305 395
#     4  11  22  39  67  93 134 167 211 262 329 379
#     4  10  18  36  62  96 124 162 208 254 304 392
#     4  11  24  42  59 101 130 166 205 275 326 380
#     4  10  20  37  65  93 124 160 215 257 323 369
#
# _framework density 20.578911000000002
#
# number of rings (size 3 to 8) (size 9 to 14) (size 15 to 20)
#    0.000    1.538    3.077    1.385    2.154    3.692 
#    0.000    0.000    0.000    0.000    0.000    0.000 
#    0.000    0.000    0.000    0.000    0.000    0.000 
#
# Total GULP energy -289768.007861 kJ/mol
# GULP energy per Si atom -5572.461690 kJ/mol
# Density = 2.053207 g / cm^3
# Si number density = 20.578911 Si / 1000 Ang^3
#
#
#
# Elastic Constant Matrix: (Units=GPa)
#
#
# Indices 1 2 3 4 5 6 
#
# 1 33.9797 -9.6512 -8.6359 0.0000 0.0000 0.0000
# 2 -9.6512 64.3307 40.6540 0.0000 0.0000 0.0000
# 3 -8.6359 40.6540 80.8361 0.0000 0.0000 0.0000
# 4 0.0000 0.0000 0.0000 26.8546 0.0000 0.0000
# 5 0.0000 0.0000 0.0000 0.0000 13.2163 0.0000
# 6 0.0000 0.0000 0.0000 0.0000 0.0000 11.0457
#
#
#
# Elastic Compliance Matrix: (Units=1/GPa)
#
#
# Indices 1 2 3 4 5 6 
#
# 1 0.030850 0.003731 0.001419 0.000000 0.000000 0.000000
# 2 0.003731 0.023238 -0.011288 0.000000 0.000000 0.000000
# 3 0.001419 -0.011288 0.018199 0.000000 0.000000 0.000000
# 4 0.000000 0.000000 0.000000 0.037238 0.000000 0.000000
# 5 0.000000 0.000000 0.000000 0.000000 0.075664 0.000000
# 6 0.000000 0.000000 0.000000 0.000000 0.000000 0.090533
#
#
# Mechanical properties :
#
#
# Convention : Reuss Voigt Hill
#
# Bulk Modulus (GPa) = 16.66335 24.87559 20.76947
# Shear Modulus (GPa) = 16.23369 20.67530 18.45449
#
# Velocity S-wave (km/s) = 2.81170 3.17311 2.99786
# Velocity P-wave (km/s) = 4.31923 5.05361 4.70078
#
# Compressibility (1/GPa) = 0.06001194
#
# Stress axis : x y z
#
# Youngs Moduli (GPa) = 32.41512 43.03272 54.94693
#
# Poissons Ratio (x) = -0.16057 -0.07798
# Poissons Ratio (y) = -0.12095 0.62025
# Poissons Ratio (z) = -0.04600 0.48576
#
# Static dielectric constant tensor:
#      x y z
#    x 1.736890 0.000000 0.000000 
#    y 0.000000 1.764310 0.000000 
#    z 0.000000 0.000000 1.782370 
# 
# From -- ./inp_files/12499.got.cif
#   From: 2010.05.17/outbox.cif.g08.bks.cpg/sg60_7_cif.got.tgz:12499.got - 2010.06.03 14:59:27.
