data_PCOD9454114
_publ_section_title
;
Structure prediction by ZEFSAII (Michael W. Deem and Ramdas Pophale) SiO2 
 PCOD9454114
Probable space group: P B C N
;
_chemical_formula_sum "Si O2"
_cell_formula_units_Z 64
_cell_length_a 16.973425
_cell_length_b 8.687253
_cell_length_c 21.506904
_cell_angle_alpha 90.000000
_cell_angle_beta 90.000000
_cell_angle_gamma 90.000000
_cell_volume 3171.245413
_symmetry_space_group_name_H-M "P B C N"
_symmetry_group_IT_number 60
_symmetry_cell_setting 'orthorhombic'
loop_
_space_group_symop_operation_xyz
x,y,z
1/2-x,1/2-y,1/2+z
1/2+x,1/2-y,-z
-x,y,1/2-z
-x,-y,-z
1/2+x,1/2+y,1/2-z
1/2-x,1/2+y,z
x,-y,1/2+z
loop_
_atom_site_type_symbol
_atom_site_label
_atom_site_fract_x
_atom_site_fract_y
_atom_site_fract_z
Si Si1 0.035911 0.477938 0.319413
Si Si2 0.083661 0.535092 0.069602
Si Si3 0.080111 0.148413 0.290059
Si Si4 0.961396 0.745994 0.994435
Si Si5 0.370365 0.307985 0.141549
Si Si6 0.143808 0.696545 0.270042
Si Si7 0.478549 0.486972 0.406896
Si Si8 0.278429 0.521927 0.733100
O O1 0.083617 0.318261 0.319526
O O2 0.090939 0.628361 0.323898
O O3 0.000000 0.483751 0.250000
O O4 0.970965 0.482380 0.372510
O O5 0.144349 0.656820 0.100040
O O6 0.029856 0.640847 0.024704
O O7 0.101025 0.376546 0.033319
O O8 0.000000 0.142051 0.250000
O O9 0.069428 0.026742 0.345383
O O10 0.153510 0.103093 0.247179
O O11 0.999962 0.854924 0.942128
O O12 0.935624 0.867668 0.047052
O O13 0.403933 0.256847 0.209648
O O14 0.437391 0.410789 0.110711
O O15 0.294718 0.403533 0.165324
O O16 0.203288 0.837395 0.280397
O O17 0.195576 0.555377 0.243882
#
# Coordination Sequence:
#
# PCOD9454114 Si02
#       8
#     8   8   8   8   8   8   8   8
#     4  11  20  31  54  84 115 141 172 223 277 328
#     4  10  18  35  52  83 113 144 176 226 271 321
#     4  11  20  31  54  84 115 141 172 223 277 328
#     4   9  20  31  52  80 117 138 183 221 271 309
#     4   9  20  32  54  72 112 146 172 223 268 329
#     4  10  21  35  50  78 113 148 174 213 272 339
#     4  10  18  35  52  83 113 144 176 226 271 321
#     4  10  21  35  50  78 113 148 174 213 272 339
#
# _framework density 20.181345
#
# number of rings (size 3 to 8) (size 9 to 14) (size 15 to 20)
#    0.750    1.250    3.750    0.750    3.500    1.500 
#    2.250    0.000    0.000    0.000    0.000   26.250 
#    0.000    0.000    0.000    0.000    0.000    0.000 
#
# Total GULP energy -356353.644332 kJ/mol
# GULP energy per Si atom -5568.025693 kJ/mol
# Density = 2.013541 g / cm^3
# Si number density = 20.181345 Si / 1000 Ang^3
#
#
#
# Elastic Constant Matrix: (Units=GPa)
#
#
# Indices 1 2 3 4 5 6 
#
# 1 21.8772 6.4820 6.1143 0.0000 0.0000 0.0000
# 2 6.4820 103.8877 20.3973 0.0000 0.0000 0.0000
# 3 6.1143 20.3973 58.0881 0.0000 0.0000 0.0000
# 4 0.0000 0.0000 0.0000 27.7038 0.0000 0.0000
# 5 0.0000 0.0000 0.0000 0.0000 10.1963 0.0000
# 6 0.0000 0.0000 0.0000 0.0000 0.0000 21.2839
#
#
#
# Elastic Compliance Matrix: (Units=1/GPa)
#
#
# Indices 1 2 3 4 5 6 
#
# 1 0.047530 -0.002130 -0.004255 0.000000 0.000000 0.000000
# 2 -0.002130 0.010434 -0.003440 0.000000 0.000000 0.000000
# 3 -0.004255 -0.003440 0.018871 0.000000 0.000000 0.000000
# 4 0.000000 0.000000 0.000000 0.036096 0.000000 0.000000
# 5 0.000000 0.000000 0.000000 0.000000 0.098075 0.000000
# 6 0.000000 0.000000 0.000000 0.000000 0.000000 0.046984
#
#
# Mechanical properties :
#
#
# Convention : Reuss Voigt Hill
#
# Bulk Modulus (GPa) = 17.48697 27.76003 22.62350
# Shear Modulus (GPa) = 16.85194 21.89407 19.37300
#
# Velocity S-wave (km/s) = 2.89282 3.29730 3.10166
# Velocity P-wave (km/s) = 4.45439 5.31803 4.90525
#
# Compressibility (1/GPa) = 0.05718542
#
# Stress axis : x y z
#
# Youngs Moduli (GPa) = 21.03929 95.84031 52.99160
#
# Poissons Ratio (x) = 0.20416 0.22548
# Poissons Ratio (y) = 0.04482 0.18227
# Poissons Ratio (z) = 0.08952 0.32965
#
# Static dielectric constant tensor:
#      x y z
#    x 1.724760 0.000000 0.000000 
#    y 0.000000 1.892040 0.000000 
#    z 0.000000 0.000000 1.730860 
# 
# From -- ./inp_files/23223.got.cif
#   From: 2010.05.17/outbox.cif.g08.bks.cpg/sg60_12_cif.got.tgz:23223.got - 2010.06.03 14:59:27.
