data_PCOD9454408
_publ_section_title
;
Structure prediction by ZEFSAII (Michael W. Deem and Ramdas Pophale) SiO2 
 PCOD9454408
Probable space group: P B C N
;
_chemical_formula_sum "Si O2"
_cell_formula_units_Z 48
_cell_length_a 31.743451
_cell_length_b 7.285631
_cell_length_c 7.652340
_cell_angle_alpha 90.000000
_cell_angle_beta 90.000000
_cell_angle_gamma 90.000000
_cell_volume 1769.764865
_symmetry_space_group_name_H-M "P B C N"
_symmetry_group_IT_number 60
_symmetry_cell_setting 'orthorhombic'
loop_
_space_group_symop_operation_xyz
x,y,z
1/2-x,1/2-y,1/2+z
1/2+x,1/2-y,-z
-x,y,1/2-z
-x,-y,-z
1/2+x,1/2+y,1/2-z
1/2-x,1/2+y,z
x,-y,1/2+z
loop_
_atom_site_type_symbol
_atom_site_label
_atom_site_fract_x
_atom_site_fract_y
_atom_site_fract_z
Si Si1 0.868469 0.598122 0.268331
Si Si2 0.698563 0.415006 0.794032
Si Si3 0.948443 0.686028 0.113972
Si Si4 0.715370 0.216935 0.158138
Si Si5 0.114046 0.219973 0.357069
Si Si6 0.030361 0.260240 0.480111
O O1 0.897905 0.704062 0.127733
O O2 0.872736 0.696590 0.453870
O O3 0.820641 0.571006 0.204265
O O4 0.887728 0.395207 0.270925
O O5 0.703643 0.306508 0.973774
O O6 0.737109 0.346472 0.673607
O O7 0.708000 0.629332 0.804830
O O8 0.652128 0.399693 0.713952
O O9 0.960067 0.736518 0.313389
O O10 0.980413 0.781392 0.975864
O O11 0.960558 0.469685 0.084812
O O12 0.066964 0.143344 0.385923
#
# Coordination Sequence:
#
# PCOD9454408 Si02
#       6
#     8   8   8   8   8   8
#     4  10  19  33  54  82 114 147 183 223 268 316
#     4  12  25  42  61  82 108 139 177 220 269 322
#     4   8  14  25  44  72 106 142 179 219 261 306
#     4  12  25  42  61  82 108 139 177 220 269 322
#     4  10  19  33  54  82 114 147 183 223 268 316
#     4   8  14  25  44  72 106 142 179 219 261 306
#
# _framework density 27.122246000000001
#
# number of rings (size 3 to 8) (size 9 to 14) (size 15 to 20)
#    0.000    2.000    0.000    5.000    0.000    1.333 
#    0.000    0.000    0.000    1.000    0.000    0.000 
#    0.000    0.000    0.000    0.000    0.000    0.000 
#
# Total GULP energy -268445.880427 kJ/mol
# GULP energy per Si atom -5592.622509 kJ/mol
# Density = 2.706051 g / cm^3
# Si number density = 27.122246 Si / 1000 Ang^3
#
#
#
# Elastic Constant Matrix: (Units=GPa)
#
#
# Indices 1 2 3 4 5 6 
#
# 1 117.9146 6.9330 48.3347 0.0000 0.0000 0.0000
# 2 6.9330 25.6523 -0.3030 0.0000 0.0000 0.0000
# 3 48.3347 -0.3030 131.6788 0.0000 0.0000 0.0000
# 4 0.0000 0.0000 0.0000 18.3994 0.0000 0.0000
# 5 0.0000 0.0000 0.0000 0.0000 21.8101 0.0000
# 6 0.0000 0.0000 0.0000 0.0000 0.0000 39.6581
#
#
#
# Elastic Compliance Matrix: (Units=1/GPa)
#
#
# Indices 1 2 3 4 5 6 
#
# 1 0.010179 -0.002795 -0.003743 0.000000 0.000000 0.000000
# 2 -0.002795 0.039752 0.001118 0.000000 0.000000 0.000000
# 3 -0.003743 0.001118 0.008971 0.000000 0.000000 0.000000
# 4 0.000000 0.000000 0.000000 0.054350 0.000000 0.000000
# 5 0.000000 0.000000 0.000000 0.000000 0.045850 0.000000
# 6 0.000000 0.000000 0.000000 0.000000 0.000000 0.025216
#
#
# Mechanical properties :
#
#
# Convention : Reuss Voigt Hill
#
# Bulk Modulus (GPa) = 20.80729 42.79725 31.80227
# Shear Modulus (GPa) = 23.67664 30.65891 27.16778
#
# Velocity S-wave (km/s) = 2.95780 3.36579 3.16836
# Velocity P-wave (km/s) = 4.39921 5.56043 5.01355
#
# Compressibility (1/GPa) = 0.04806009
#
# Stress axis : x y z
#
# Youngs Moduli (GPa) = 98.23822 25.15628 111.47405
#
# Poissons Ratio (x) = 0.07032 0.41724
# Poissons Ratio (y) = 0.27461 -0.12458
# Poissons Ratio (z) = 0.36770 -0.02811
#
# Static dielectric constant tensor:
#      x y z
#    x 2.455280 0.000000 0.000000 
#    y 0.000000 2.127720 0.000000 
#    z 0.000000 0.000000 2.090160 
# 
# From -- ./inp_files/8403.got.cif
#   From: 2010.05.17/outbox.cif.g08.bks.cpg/sg60_5_cif.got.tgz:8403.got - 2010.06.03 14:59:27.
