data_PCOD9454037
_publ_section_title
;
Structure prediction by ZEFSAII (Michael W. Deem and Ramdas Pophale) SiO2 
 PCOD9454037
Probable space group: P B C N
;
_chemical_formula_sum "Si O2"
_cell_formula_units_Z 64
_cell_length_a 7.593423
_cell_length_b 32.582468
_cell_length_c 12.888066
_cell_angle_alpha 90.000000
_cell_angle_beta 90.000000
_cell_angle_gamma 90.000000
_cell_volume 3188.668138
_symmetry_space_group_name_H-M "P B C N"
_symmetry_group_IT_number 60
_symmetry_cell_setting 'orthorhombic'
loop_
_space_group_symop_operation_xyz
x,y,z
1/2-x,1/2-y,1/2+z
1/2+x,1/2-y,-z
-x,y,1/2-z
-x,-y,-z
1/2+x,1/2+y,1/2-z
1/2-x,1/2+y,z
x,-y,1/2+z
loop_
_atom_site_type_symbol
_atom_site_label
_atom_site_fract_x
_atom_site_fract_y
_atom_site_fract_z
Si Si1 0.550808 0.544687 0.038361
Si Si2 0.844597 0.268529 0.609271
Si Si3 0.756022 0.236057 0.327168
Si Si4 0.857710 0.813639 0.011011
Si Si5 0.315279 0.598318 0.293889
Si Si6 0.243853 0.819532 0.090973
Si Si7 0.838724 0.600522 0.989473
Si Si8 0.288965 0.100961 0.065851
O O1 0.632659 0.553744 0.154302
O O2 0.701140 0.564670 0.966138
O O3 0.378463 0.573272 0.037798
O O4 0.500000 0.500000 0.000000
O O5 0.752755 0.282763 0.714007
O O6 0.778987 0.222438 0.582461
O O7 0.809690 0.296513 0.511931
O O8 0.055414 0.267228 0.628326
O O9 0.884300 0.212154 0.404311
O O10 0.782502 0.285166 0.323314
O O11 0.747797 0.853174 0.976714
O O12 0.036277 0.826604 0.069168
O O13 0.500000 0.616063 0.250000
O O14 0.234155 0.618191 0.398004
O O15 0.196648 0.599345 0.191488
O O16 0.333322 0.863537 0.094199
O O17 0.032953 0.585529 0.013881
#
# Coordination Sequence:
#
# PCOD9454037 Si02
#       8
#     8   8   8   8   8   8   8   8
#     4   9  20  36  54  80 110 137 174 223 281 339
#     4   9  19  33  48  73 103 146 191 232 276 327
#     4   9  19  32  50  69 104 148 190 231 277 324
#     4  10  19  32  51  75 110 144 185 233 279 324
#     4   8  17  33  52  79 108 137 172 218 271 322
#     4  10  18  33  48  75 108 143 188 230 276 327
#     4  10  20  32  56  81 109 143 177 225 272 330
#     4  11  19  34  57  82 109 142 183 223 276 329
#
# _framework density 20.071076999999999
#
# number of rings (size 3 to 8) (size 9 to 14) (size 15 to 20)
#    0.750    1.750    1.250    1.125    1.750    2.000 
#    0.000    0.000    0.000    4.500    0.000    0.000 
#    0.000    0.000    0.000    0.000    0.000    0.000 
#
# Total GULP energy -356299.410275 kJ/mol
# GULP energy per Si atom -5567.178286 kJ/mol
# Density = 2.002539 g / cm^3
# Si number density = 20.071077 Si / 1000 Ang^3
#
#
#
# Elastic Constant Matrix: (Units=GPa)
#
#
# Indices 1 2 3 4 5 6 
#
# 1 56.9149 13.4922 -5.7707 0.0000 0.0000 0.0000
# 2 13.4922 85.3729 -1.8285 0.0000 0.0000 0.0000
# 3 -5.7707 -1.8285 24.5645 0.0000 0.0000 0.0000
# 4 0.0000 0.0000 0.0000 15.4794 0.0000 0.0000
# 5 0.0000 0.0000 0.0000 0.0000 11.0736 0.0000
# 6 0.0000 0.0000 0.0000 0.0000 0.0000 10.6569
#
#
#
# Elastic Compliance Matrix: (Units=1/GPa)
#
#
# Indices 1 2 3 4 5 6 
#
# 1 0.018672 -0.002861 0.004173 0.000000 0.000000 0.000000
# 2 -0.002861 0.012171 0.000234 0.000000 0.000000 0.000000
# 3 0.004173 0.000234 0.041707 0.000000 0.000000 0.000000
# 4 0.000000 0.000000 0.000000 0.064602 0.000000 0.000000
# 5 0.000000 0.000000 0.000000 0.000000 0.090305 0.000000
# 6 0.000000 0.000000 0.000000 0.000000 0.000000 0.093836
#
#
# Mechanical properties :
#
#
# Convention : Reuss Voigt Hill
#
# Bulk Modulus (GPa) = 13.22047 19.84871 16.53459
# Shear Modulus (GPa) = 14.55969 18.17260 16.36614
#
# Velocity S-wave (km/s) = 2.69626 3.01227 2.85864
# Velocity P-wave (km/s) = 4.03661 4.69138 4.37626
#
# Compressibility (1/GPa) = 0.07564029
#
# Stress axis : x y z
#
# Youngs Moduli (GPa) = 53.55740 82.16563 23.97679
#
# Poissons Ratio (x) = 0.23511 -0.10006
# Poissons Ratio (y) = 0.15325 -0.00560
# Poissons Ratio (z) = -0.22351 -0.01920
#
# Static dielectric constant tensor:
#      x y z
#    x 1.798610 0.000000 0.000000 
#    y 0.000000 1.715370 0.000000 
#    z 0.000000 0.000000 1.770470 
# 
# From -- ./inp_files/15453.got.cif
#   From: 2010.05.17/outbox.cif.g08.bks.cpg/sg60_8_cif.got.tgz:15453.got - 2010.06.03 14:59:27.
