data_PCOD9454999
_publ_section_title
;
Structure prediction by ZEFSAII (Michael W. Deem and Ramdas Pophale) SiO2 
 PCOD9454999
Probable space group: P B C N
;
_chemical_formula_sum "Si O2"
_cell_formula_units_Z 48
_cell_length_a 23.917018
_cell_length_b 23.706790
_cell_length_c 5.282581
_cell_angle_alpha 90.000000
_cell_angle_beta 90.000000
_cell_angle_gamma 90.000000
_cell_volume 2995.200834
_symmetry_space_group_name_H-M "P B C N"
_symmetry_group_IT_number 60
_symmetry_cell_setting 'orthorhombic'
loop_
_space_group_symop_operation_xyz
x,y,z
1/2-x,1/2-y,1/2+z
1/2+x,1/2-y,-z
-x,y,1/2-z
-x,-y,-z
1/2+x,1/2+y,1/2-z
1/2-x,1/2+y,z
x,-y,1/2+z
loop_
_atom_site_type_symbol
_atom_site_label
_atom_site_fract_x
_atom_site_fract_y
_atom_site_fract_z
Si Si1 0.875549 0.239296 0.685584
Si Si2 0.000000 0.796072 0.250000
Si Si3 0.712393 0.466619 0.888642
Si Si4 0.715526 0.663409 0.496847
Si Si5 0.814922 0.733410 0.698892
Si Si6 0.077904 0.031981 0.113430
Si Si7 0.500000 0.368079 0.750000
O O1 0.843956 0.178625 0.633516
O O2 0.852400 0.275101 0.448281
O O3 0.942116 0.235621 0.689542
O O4 0.851843 0.262446 0.948233
O O5 0.987009 0.832113 0.501509
O O6 0.730918 0.505135 0.125518
O O7 0.726186 0.401035 0.930765
O O8 0.644758 0.466490 0.883472
O O9 0.765513 0.689076 0.663182
O O10 0.712642 0.704969 0.253228
O O11 0.051557 0.091716 0.179606
O O12 0.060332 0.989821 0.338550
#
# Coordination Sequence:
#
# PCOD9454999 Si02
#       7
#     8   4   8   8   8   8   4
#     4  10  21  34  50  77 100 133 170 218 260 311
#     4  12  24  33  48  72 106 130 166 213 276 310
#     4  10  23  32  48  72 102 135 159 209 269 309
#     4  10  20  36  56  77 101 128 183 211 255 314
#     4  10  20  34  58  78  94 131 178 219 258 292
#     4  10  20  35  46  63  90 128 180 223 255 290
#     4  12  22  33  48  66  82 142 178 223 258 284
#
# _framework density 16.025635999999999
#
# number of rings (size 3 to 8) (size 9 to 14) (size 15 to 20)
#    1.000    0.667    1.667    3.500    4.667    1.333 
#    0.000    0.000    0.000    0.000    0.000    0.000 
#    0.000    0.000    0.000   15.000    0.000    0.000 
#
# Total GULP energy -267535.089433 kJ/mol
# GULP energy per Si atom -5573.647697 kJ/mol
# Density = 1.598916 g / cm^3
# Si number density = 16.025636 Si / 1000 Ang^3
#
#
#
# Elastic Constant Matrix: (Units=GPa)
#
#
# Indices 1 2 3 4 5 6 
#
# 1 88.2367 34.1479 42.2374 0.0000 0.0000 0.0000
# 2 34.1479 57.3418 38.5128 0.0000 0.0000 0.0000
# 3 42.2374 38.5128 120.9754 0.0000 0.0000 0.0000
# 4 0.0000 0.0000 0.0000 23.1845 0.0000 0.0000
# 5 0.0000 0.0000 0.0000 0.0000 16.8130 0.0000
# 6 0.0000 0.0000 0.0000 0.0000 0.0000 -45.9616
#
#
#
# Elastic Compliance Matrix: (Units=1/GPa)
#
#
# Indices 1 2 3 4 5 6 
#
# 1 0.015629 -0.007177 -0.003172 0.000000 0.000000 0.000000
# 2 -0.007177 0.025478 -0.005605 0.000000 0.000000 0.000000
# 3 -0.003172 -0.005605 0.011158 0.000000 0.000000 0.000000
# 4 0.000000 0.000000 0.000000 0.043132 0.000000 0.000000
# 5 0.000000 0.000000 0.000000 0.000000 0.059478 0.000000
# 6 0.000000 0.000000 0.000000 0.000000 0.000000 -0.021757
#
#
# Mechanical properties :
#
#
# Convention : Reuss Voigt Hill
#
# Bulk Modulus (GPa) = 49.12358 55.15001 52.13679
# Shear Modulus (GPa) = 29.10165 8.91754 19.00960
#
# Velocity S-wave (km/s) = 4.26601 2.36149 3.44786
# Velocity P-wave (km/s) = 7.41517 6.47486 6.96091
#
# Compressibility (1/GPa) = 0.02035682
#
# Stress axis : x y z
#
# Youngs Moduli (GPa) = 63.98359 39.24971 89.62170
#
# Poissons Ratio (x) = 0.28169 0.28427
# Poissons Ratio (y) = 0.45921 0.50235
# Poissons Ratio (z) = 0.20295 0.22000
#
# Static dielectric constant tensor:
#      x y z
#    x 1.549340 0.000000 0.000000 
#    y 0.000000 1.524540 0.000000 
#    z 0.000000 0.000000 1.577470 
# 
# From -- ./inp_files/2370.got.cif
#   From: 2010.05.17/outbox.cif.g08.bks.cpg/sg60_2_cif.got.tgz:2370.got - 2010.06.03 14:59:27.
