data_PCOD9454600
_publ_section_title
;
Structure prediction by ZEFSAII (Michael W. Deem and Ramdas Pophale) SiO2 
 PCOD9454600
Probable space group: P B C N
;
_chemical_formula_sum "Si O2"
_cell_formula_units_Z 56
_cell_length_a 19.271519
_cell_length_b 9.762871
_cell_length_c 13.169491
_cell_angle_alpha 90.000000
_cell_angle_beta 90.000000
_cell_angle_gamma 90.000000
_cell_volume 2477.778546
_symmetry_space_group_name_H-M "P B C N"
_symmetry_group_IT_number 60
_symmetry_cell_setting 'orthorhombic'
loop_
_space_group_symop_operation_xyz
x,y,z
1/2-x,1/2-y,1/2+z
1/2+x,1/2-y,-z
-x,y,1/2-z
-x,-y,-z
1/2+x,1/2+y,1/2-z
1/2-x,1/2+y,z
x,-y,1/2+z
loop_
_atom_site_type_symbol
_atom_site_label
_atom_site_fract_x
_atom_site_fract_y
_atom_site_fract_z
Si Si1 0.670530 0.099991 0.652391
Si Si2 0.072561 0.979694 0.771085
Si Si3 0.417911 0.929171 0.734242
Si Si4 0.123221 0.016287 0.545669
Si Si5 0.435981 0.198969 0.017888
Si Si6 0.575551 0.270957 0.086183
Si Si7 0.788890 0.112561 0.110543
O O1 0.610579 0.127010 0.567321
O O2 0.719174 0.232257 0.642928
O O3 0.627305 0.066159 0.753846
O O4 0.725387 0.980131 0.638628
O O5 0.138187 0.925005 0.834409
O O6 0.000000 0.899512 0.750000
O O7 0.107869 0.006782 0.663310
O O8 0.047095 0.111827 0.835938
O O9 0.500000 0.954335 0.750000
O O10 0.409343 0.852043 0.627773
O O11 0.395273 0.834417 0.830328
O O12 0.070122 0.135661 0.508949
O O13 0.194993 0.084104 0.508234
O O14 0.116804 0.867087 0.492842
O O15 0.518889 0.183627 0.023055
#
# Coordination Sequence:
#
# PCOD9454600 Si02
#       7
#     8   8   8   8   8   8   8
#     4  11  26  47  66  93 140 185 233 297 341 434
#     4  11  20  37  68 105 137 178 227 292 346 411
#     4  10  22  42  69  99 137 181 232 296 365 409
#     4  10  20  36  66 100 135 177 228 275 343 421
#     4  10  20  40  65  98 134 182 226 276 356 414
#     4  10  19  35  66 105 136 176 219 284 348 413
#     4  10  27  43  64  97 136 182 236 289 351 413
#
# _framework density 22.600888999999999
#
# number of rings (size 3 to 8) (size 9 to 14) (size 15 to 20)
#    0.000    1.714    2.857    0.857    8.000    4.000 
#    2.571    2.857    0.000    0.000    0.000    0.000 
#    0.000    0.000    0.000    0.000    0.000    0.000 
#
# Total GULP energy -311802.223390 kJ/mol
# GULP energy per Si atom -5567.896846 kJ/mol
# Density = 2.254945 g / cm^3
# Si number density = 22.600889 Si / 1000 Ang^3
#
#
#
# Elastic Constant Matrix: (Units=GPa)
#
#
# Indices 1 2 3 4 5 6 
#
# 1 66.8705 46.1050 11.2031 0.0000 0.0000 0.0000
# 2 46.1050 97.7489 24.0419 0.0000 0.0000 0.0000
# 3 11.2031 24.0419 64.3153 0.0000 0.0000 0.0000
# 4 0.0000 0.0000 0.0000 11.9694 0.0000 0.0000
# 5 0.0000 0.0000 0.0000 0.0000 3.3717 0.0000
# 6 0.0000 0.0000 0.0000 0.0000 0.0000 9.5759
#
#
#
# Elastic Compliance Matrix: (Units=1/GPa)
#
#
# Indices 1 2 3 4 5 6 
#
# 1 0.022161 -0.010465 0.000052 0.000000 0.000000 0.000000
# 2 -0.010465 0.016208 -0.004236 0.000000 0.000000 0.000000
# 3 0.000052 -0.004236 0.017123 0.000000 0.000000 0.000000
# 4 0.000000 0.000000 0.000000 0.083546 0.000000 0.000000
# 5 0.000000 0.000000 0.000000 0.000000 0.296588 0.000000
# 6 0.000000 0.000000 0.000000 0.000000 0.000000 0.104429
#
#
# Mechanical properties :
#
#
# Convention : Reuss Voigt Hill
#
# Bulk Modulus (GPa) = 38.17766 43.51494 40.84630
# Shear Modulus (GPa) = 8.64924 14.82239 11.73581
#
# Velocity S-wave (km/s) = 1.95838 2.56370 2.28121
# Velocity P-wave (km/s) = 4.69494 5.29706 5.00506
#
# Compressibility (1/GPa) = 0.02619333
#
# Stress axis : x y z
#
# Youngs Moduli (GPa) = 45.12395 61.69653 58.40167
#
# Poissons Ratio (x) = 0.64568 -0.00303
# Poissons Ratio (y) = 0.47224 0.24738
# Poissons Ratio (z) = -0.00234 0.26134
#
# Static dielectric constant tensor:
#      x y z
#    x 1.752560 0.000000 0.000000 
#    y 0.000000 1.937960 0.000000 
#    z 0.000000 0.000000 1.874890 
# 
# From -- ./inp_files/17738.got.cif
#   From: 2010.05.17/outbox.cif.g08.bks.cpg/sg60_9_cif.got.tgz:17738.got - 2010.06.03 14:59:27.
