data_PCOD9454625
_publ_section_title
;
Structure prediction by ZEFSAII (Michael W. Deem and Ramdas Pophale) SiO2 
 PCOD9454625
Probable space group: P B C N
;
_chemical_formula_sum "Si O2"
_cell_formula_units_Z 28
_cell_length_a 18.447304
_cell_length_b 13.149160
_cell_length_c 5.015512
_cell_angle_alpha 90.000000
_cell_angle_beta 90.000000
_cell_angle_gamma 90.000000
_cell_volume 1216.595452
_symmetry_space_group_name_H-M "P B C N"
_symmetry_group_IT_number 60
_symmetry_cell_setting 'orthorhombic'
loop_
_space_group_symop_operation_xyz
x,y,z
1/2-x,1/2-y,1/2+z
1/2+x,1/2-y,-z
-x,y,1/2-z
-x,-y,-z
1/2+x,1/2+y,1/2-z
1/2-x,1/2+y,z
x,-y,1/2+z
loop_
_atom_site_type_symbol
_atom_site_label
_atom_site_fract_x
_atom_site_fract_y
_atom_site_fract_z
Si Si1 0.355321 0.562155 0.603431
Si Si2 0.273319 0.807795 0.293041
Si Si3 0.583087 0.927607 0.276518
Si Si4 0.000000 0.923703 0.250000
O O1 0.361993 0.536952 0.293363
O O2 0.277835 0.604603 0.676970
O O3 0.423058 0.631094 0.707300
O O4 0.247412 0.783153 0.591300
O O5 0.356236 0.842532 0.274354
O O6 0.500000 0.889945 0.250000
O O7 0.592492 0.981525 0.561840
O O8 0.000000 0.000000 0.500000
#
# Coordination Sequence:
#
# PCOD9454625 Si02
#       4
#     8   8   8   4
#     4  10  19  36  58  78 106 148 193 228 268 336
#     4  12  24  38  55  90 124 152 191 242 313 358
#     4  10  21  41  67  89 115 160 214 256 292 354
#     4   8  16  30  52  78  98 128 180 222 258 316
#
# _framework density 23.015044
#
# number of rings (size 3 to 8) (size 9 to 14) (size 15 to 20)
#    0.000    1.714    0.000    5.143    0.000    0.000 
#    5.143    0.000    0.000    0.000    0.000    0.000 
#    0.000    0.000    0.000    0.000    0.000    0.000 
#
# Total GULP energy -156229.897589 kJ/mol
# GULP energy per Si atom -5579.639200 kJ/mol
# Density = 2.296266 g / cm^3
# Si number density = 23.015044 Si / 1000 Ang^3
#
#
#
# Elastic Constant Matrix: (Units=GPa)
#
#
# Indices 1 2 3 4 5 6 
#
# 1 179.0806 42.9169 5.7227 0.0000 0.0000 0.0000
# 2 42.9169 18.9132 1.5819 0.0000 0.0000 0.0000
# 3 5.7227 1.5819 93.7123 0.0000 0.0000 0.0000
# 4 0.0000 0.0000 0.0000 25.2266 0.0000 0.0000
# 5 0.0000 0.0000 0.0000 0.0000 29.1661 0.0000
# 6 0.0000 0.0000 0.0000 0.0000 0.0000 15.2845
#
#
#
# Elastic Compliance Matrix: (Units=1/GPa)
#
#
# Indices 1 2 3 4 5 6 
#
# 1 0.012248 -0.027769 -0.000279 0.000000 0.000000 0.000000
# 2 -0.027769 0.115907 -0.000261 0.000000 0.000000 0.000000
# 3 -0.000279 -0.000261 0.010692 0.000000 0.000000 0.000000
# 4 0.000000 0.000000 0.000000 0.039641 0.000000 0.000000
# 5 0.000000 0.000000 0.000000 0.000000 0.034286 0.000000
# 6 0.000000 0.000000 0.000000 0.000000 0.000000 0.065426
#
#
# Mechanical properties :
#
#
# Convention : Reuss Voigt Hill
#
# Bulk Modulus (GPa) = 12.16112 43.57213 27.86662
# Shear Modulus (GPa) = 13.80349 30.03441 21.91895
#
# Velocity S-wave (km/s) = 2.45166 3.61638 3.08941
# Velocity P-wave (km/s) = 3.64823 6.03413 4.98600
#
# Compressibility (1/GPa) = 0.08222929
#
# Stress axis : x y z
#
# Youngs Moduli (GPa) = 81.64698 8.62763 93.52433
#
# Poissons Ratio (x) = 0.23958 0.02611
# Poissons Ratio (y) = 2.26724 0.02439
# Poissons Ratio (z) = 0.02280 0.00225
#
# Static dielectric constant tensor:
#      x y z
#    x 2.017310 0.000000 0.000000 
#    y 0.000000 1.822400 0.000000 
#    z 0.000000 0.000000 1.822780 
# 
# From -- ./inp_files/1536.got.cif
#   From: 2010.05.17/outbox.cif.g08.bks.cpg/sg60_1_cif.got.tgz:1536.got - 2010.06.03 14:59:27.
