data_PCOD9454230
_publ_section_title
;
Structure prediction by ZEFSAII (Michael W. Deem and Ramdas Pophale) SiO2 
 PCOD9454230
Probable space group: P B C N
;
_chemical_formula_sum "Si O2"
_cell_formula_units_Z 44
_cell_length_a 15.283365
_cell_length_b 8.574084
_cell_length_c 15.531340
_cell_angle_alpha 90.000000
_cell_angle_beta 90.000000
_cell_angle_gamma 90.000000
_cell_volume 2035.240078
_symmetry_space_group_name_H-M "P B C N"
_symmetry_group_IT_number 60
_symmetry_cell_setting 'orthorhombic'
loop_
_space_group_symop_operation_xyz
x,y,z
1/2-x,1/2-y,1/2+z
1/2+x,1/2-y,-z
-x,y,1/2-z
-x,-y,-z
1/2+x,1/2+y,1/2-z
1/2-x,1/2+y,z
x,-y,1/2+z
loop_
_atom_site_type_symbol
_atom_site_label
_atom_site_fract_x
_atom_site_fract_y
_atom_site_fract_z
Si Si1 0.500000 0.690553 0.750000
Si Si2 0.687059 0.094730 0.089562
Si Si3 0.474341 0.738902 0.937566
Si Si4 0.714440 0.174263 0.712557
Si Si5 0.653801 0.531217 0.306450
Si Si6 0.625819 0.446880 0.500932
O O1 0.493222 0.784009 0.838734
O O2 0.419179 0.576032 0.735958
O O3 0.603211 0.146103 0.034222
O O4 0.711359 0.227625 0.160476
O O5 0.670719 0.935637 0.141283
O O6 0.778021 0.081246 0.037801
O O7 0.565250 0.706270 0.986566
O O8 0.428470 0.567339 0.940409
O O9 0.656823 0.301619 0.761301
O O10 0.757010 0.058849 0.782364
O O11 0.637010 0.528465 0.407903
#
# Coordination Sequence:
#
# PCOD9454230 Si02
#       6
#     4   8   8   8   8   8
#     4  10  18  40  62  84 120 168 214 252 312 402
#     4  11  19  39  62  93 127 174 212 268 323 386
#     4  10  20  38  62  94 121 175 209 262 322 389
#     4  10  21  36  62  88 122 166 218 256 320 383
#     4  10  21  36  61  91 119 163 214 263 313 388
#     4  10  22  36  65  94 131 163 222 264 328 383
#
# _framework density 21.619073
#
# number of rings (size 3 to 8) (size 9 to 14) (size 15 to 20)
#    0.000    1.818    3.636    1.091    2.545    0.000 
#    0.000    1.818    0.000    0.000    0.000    0.000 
#    0.000    0.000    0.000    0.000    0.000    0.000 
#
# Total GULP energy -245479.141111 kJ/mol
# GULP energy per Si atom -5579.071389 kJ/mol
# Density = 2.156987 g / cm^3
# Si number density = 21.619073 Si / 1000 Ang^3
#
#
#
# Elastic Constant Matrix: (Units=GPa)
#
#
# Indices 1 2 3 4 5 6 
#
# 1 102.1505 21.2792 22.5384 0.0000 0.0000 0.0000
# 2 21.2792 66.5759 8.1825 0.0000 0.0000 0.0000
# 3 22.5384 8.1825 80.0332 0.0000 0.0000 0.0000
# 4 0.0000 0.0000 0.0000 26.2339 0.0000 0.0000
# 5 0.0000 0.0000 0.0000 0.0000 26.7051 0.0000
# 6 0.0000 0.0000 0.0000 0.0000 0.0000 21.1752
#
#
#
# Elastic Compliance Matrix: (Units=1/GPa)
#
#
# Indices 1 2 3 4 5 6 
#
# 1 0.011071 -0.003195 -0.002791 0.000000 0.000000 0.000000
# 2 -0.003195 0.016134 -0.000750 0.000000 0.000000 0.000000
# 3 -0.002791 -0.000750 0.013357 0.000000 0.000000 0.000000
# 4 0.000000 0.000000 0.000000 0.038119 0.000000 0.000000
# 5 0.000000 0.000000 0.000000 0.000000 0.037446 0.000000
# 6 0.000000 0.000000 0.000000 0.000000 0.000000 0.047225
#
#
# Mechanical properties :
#
#
# Convention : Reuss Voigt Hill
#
# Bulk Modulus (GPa) = 36.91393 39.19553 38.05473
# Shear Modulus (GPa) = 26.90279 27.94014 27.42146
#
# Velocity S-wave (km/s) = 3.53143 3.59887 3.56531
# Velocity P-wave (km/s) = 5.80860 5.95303 5.88126
#
# Compressibility (1/GPa) = 0.02709005
#
# Stress axis : x y z
#
# Youngs Moduli (GPa) = 90.32648 61.98113 74.86458
#
# Poissons Ratio (x) = 0.19806 0.20895
# Poissons Ratio (y) = 0.28864 0.05612
# Poissons Ratio (z) = 0.25210 0.04646
#
# Static dielectric constant tensor:
#      x y z
#    x 1.853470 0.000000 0.000000 
#    y 0.000000 1.791200 0.000000 
#    z 0.000000 0.000000 1.811070 
# 
# From -- ./inp_files/20430.got.cif
#   From: 2010.05.17/outbox.cif.g08.bks.cpg/sg60_11_cif.got.tgz:20430.got - 2010.06.03 14:59:27.
