data_PCOD9454296
_publ_section_title
;
Structure prediction by ZEFSAII (Michael W. Deem and Ramdas Pophale) SiO2 
 PCOD9454296
Probable space group: P B C N
;
_chemical_formula_sum "Si O2"
_cell_formula_units_Z 64
_cell_length_a 17.702175
_cell_length_b 17.555494
_cell_length_c 10.789528
_cell_angle_alpha 90.000000
_cell_angle_beta 90.000000
_cell_angle_gamma 90.000000
_cell_volume 3353.066224
_symmetry_space_group_name_H-M "P B C N"
_symmetry_group_IT_number 60
_symmetry_cell_setting 'orthorhombic'
loop_
_space_group_symop_operation_xyz
x,y,z
1/2-x,1/2-y,1/2+z
1/2+x,1/2-y,-z
-x,y,1/2-z
-x,-y,-z
1/2+x,1/2+y,1/2-z
1/2-x,1/2+y,z
x,-y,1/2+z
loop_
_atom_site_type_symbol
_atom_site_label
_atom_site_fract_x
_atom_site_fract_y
_atom_site_fract_z
Si Si1 0.928115 0.975314 0.826056
Si Si2 0.906985 0.125160 0.955555
Si Si3 0.727407 0.460377 0.724829
Si Si4 0.581420 0.261597 0.232775
Si Si5 0.059716 0.170879 0.030383
Si Si6 0.312426 0.212096 0.586124
Si Si7 0.739014 0.213246 0.181216
Si Si8 0.260618 0.050634 0.534900
O O1 0.858625 0.989858 0.733690
O O2 0.000000 0.950472 0.750000
O O3 0.948628 0.051134 0.900090
O O4 0.905396 0.906678 0.916597
O O5 0.897723 0.188542 0.850961
O O6 0.823840 0.089616 0.977499
O O7 0.968327 0.162847 0.049177
O O8 0.726387 0.368766 0.713421
O O9 0.769882 0.486235 0.600225
O O10 0.761770 0.492221 0.852000
O O11 0.500000 0.224042 0.250000
O O12 0.571361 0.318536 0.116616
O O13 0.649627 0.206084 0.205658
O O14 0.108418 0.241784 0.082955
O O15 0.273756 0.229250 0.718370
O O16 0.261402 0.237440 0.464600
O O17 0.315524 0.121504 0.563037
#
# Coordination Sequence:
#
# PCOD9454296 Si02
#       8
#     8   8   8   8   8   8   8   8
#     4  11  20  30  45  70 112 146 183 205 257 307
#     4  10  19  31  49  74 108 141 184 209 258 314
#     4  10  22  35  52  77 105 140 183 215 265 320
#     4   9  18  32  52  76 100 133 180 222 268 314
#     4  10  19  31  48  72 103 144 181 216 266 314
#     4  10  20  35  54  76 106 144 177 228 266 317
#     4  10  19  36  54  78 107 135 181 223 271 320
#     4  10  21  36  54  77 109 143 182 222 264 316
#
# _framework density 19.087007
#
# number of rings (size 3 to 8) (size 9 to 14) (size 15 to 20)
#    0.000    2.000    2.500    2.250    0.000    6.000 
#    0.000    0.000    0.000    0.000    0.000   14.875 
#    0.000    0.000    0.000    0.000    0.000    0.000 
#
# Total GULP energy -356273.840602 kJ/mol
# GULP energy per Si atom -5566.778759 kJ/mol
# Density = 1.904356 g / cm^3
# Si number density = 19.087007 Si / 1000 Ang^3
#
#
#
# Elastic Constant Matrix: (Units=GPa)
#
#
# Indices 1 2 3 4 5 6 
#
# 1 36.5153 9.2970 -4.8337 0.0000 0.0000 0.0000
# 2 9.2970 40.1704 16.9878 0.0000 0.0000 0.0000
# 3 -4.8337 16.9878 75.8779 0.0000 0.0000 0.0000
# 4 0.0000 0.0000 0.0000 14.1109 0.0000 0.0000
# 5 0.0000 0.0000 0.0000 0.0000 16.8211 0.0000
# 6 0.0000 0.0000 0.0000 0.0000 0.0000 28.4269
#
#
#
# Elastic Compliance Matrix: (Units=1/GPa)
#
#
# Indices 1 2 3 4 5 6 
#
# 1 0.030080 -0.008585 0.003838 0.000000 0.000000 0.000000
# 2 -0.008585 0.029947 -0.007252 0.000000 0.000000 0.000000
# 3 0.003838 -0.007252 0.015047 0.000000 0.000000 0.000000
# 4 0.000000 0.000000 0.000000 0.070867 0.000000 0.000000
# 5 0.000000 0.000000 0.000000 0.000000 0.059449 0.000000
# 6 0.000000 0.000000 0.000000 0.000000 0.000000 0.035178
#
#
# Mechanical properties :
#
#
# Convention : Reuss Voigt Hill
#
# Bulk Modulus (GPa) = 19.57798 21.71840 20.64819
# Shear Modulus (GPa) = 17.75626 20.61261 19.18444
#
# Velocity S-wave (km/s) = 3.05336 3.28979 3.17378
# Velocity P-wave (km/s) = 4.76552 5.08268 4.92665
#
# Compressibility (1/GPa) = 0.05107779
#
# Stress axis : x y z
#
# Youngs Moduli (GPa) = 33.24516 33.39181 66.45805
#
# Poissons Ratio (x) = 0.28666 -0.25508
# Poissons Ratio (y) = 0.28540 0.48193
# Poissons Ratio (z) = -0.12760 0.24214
#
# Static dielectric constant tensor:
#      x y z
#    x 1.726160 0.000000 0.000000 
#    y 0.000000 1.645950 0.000000 
#    z 0.000000 0.000000 1.758920 
# 
# From -- ./inp_files/12628.got.cif
#   From: 2010.05.17/outbox.cif.g08.bks.cpg/sg60_7_cif.got.tgz:12628.got - 2010.06.03 14:59:27.
