data_PCOD9454244
_publ_section_title
;
Structure prediction by ZEFSAII (Michael W. Deem and Ramdas Pophale) SiO2 
 PCOD9454244
Probable space group: P B C N
;
_chemical_formula_sum "Si O2"
_cell_formula_units_Z 36
_cell_length_a 17.413779
_cell_length_b 5.278554
_cell_length_c 15.201330
_cell_angle_alpha 90.000000
_cell_angle_beta 90.000000
_cell_angle_gamma 90.000000
_cell_volume 1397.299760
_symmetry_space_group_name_H-M "P B C N"
_symmetry_group_IT_number 60
_symmetry_cell_setting 'orthorhombic'
loop_
_space_group_symop_operation_xyz
x,y,z
1/2-x,1/2-y,1/2+z
1/2+x,1/2-y,-z
-x,y,1/2-z
-x,-y,-z
1/2+x,1/2+y,1/2-z
1/2-x,1/2+y,z
x,-y,1/2+z
loop_
_atom_site_type_symbol
_atom_site_label
_atom_site_fract_x
_atom_site_fract_y
_atom_site_fract_z
Si Si1 0.792166 0.019494 0.624073
Si Si2 0.547444 0.102622 0.897619
Si Si3 0.855019 0.038554 0.309530
Si Si4 0.905579 0.100226 0.981625
Si Si5 0.000000 0.301173 0.750000
O O1 0.765539 0.296902 0.596655
O O2 0.872138 0.959756 0.576166
O O3 0.798634 0.992297 0.729229
O O4 0.570249 0.888572 0.966569
O O5 0.484247 0.980625 0.834135
O O6 0.616272 0.175269 0.829098
O O7 0.539189 0.374194 0.944182
O O8 0.837104 0.934794 0.407082
O O9 0.929863 0.876887 0.278173
#
# Coordination Sequence:
#
# PCOD9454244 Si02
#       5
#     8   8   8   8   4
#     4  12  27  42  64  95 128 171 224 273 314 383
#     4   9  19  38  64  90 128 166 203 257 322 385
#     4   9  23  41  68  96 130 168 216 263 333 383
#     4   9  21  41  60  88 130 165 206 257 320 377
#     4  10  18  40  72 100 128 172 206 272 326 394
#
# _framework density 25.763974999999999
#
# number of rings (size 3 to 8) (size 9 to 14) (size 15 to 20)
#    1.333    0.889    0.000    2.000    6.222    1.778 
#    0.000    5.556    0.000    0.000    0.000    0.000 
#    0.000    0.000    0.000    0.000    0.000    0.000 
#
# Total GULP energy -201019.817873 kJ/mol
# GULP energy per Si atom -5583.883830 kJ/mol
# Density = 2.570534 g / cm^3
# Si number density = 25.763975 Si / 1000 Ang^3
#
#
#
# Elastic Constant Matrix: (Units=GPa)
#
#
# Indices 1 2 3 4 5 6 
#
# 1 31.8118 30.3940 -1.8014 0.0000 0.0000 0.0000
# 2 30.3940 135.5696 45.1459 0.0000 0.0000 0.0000
# 3 -1.8014 45.1459 90.7176 0.0000 0.0000 0.0000
# 4 0.0000 0.0000 0.0000 57.9594 0.0000 0.0000
# 5 0.0000 0.0000 0.0000 0.0000 45.5785 0.0000
# 6 0.0000 0.0000 0.0000 0.0000 0.0000 30.1134
#
#
#
# Elastic Compliance Matrix: (Units=1/GPa)
#
#
# Indices 1 2 3 4 5 6 
#
# 1 0.043254 -0.011966 0.006814 0.000000 0.000000 0.000000
# 2 -0.011966 0.012152 -0.006285 0.000000 0.000000 0.000000
# 3 0.006814 -0.006285 0.014286 0.000000 0.000000 0.000000
# 4 0.000000 0.000000 0.000000 0.017253 0.000000 0.000000
# 5 0.000000 0.000000 0.000000 0.000000 0.021940 0.000000
# 6 0.000000 0.000000 0.000000 0.000000 0.000000 0.033208
#
#
# Mechanical properties :
#
#
# Convention : Reuss Voigt Hill
#
# Bulk Modulus (GPa) = 21.35970 45.06402 33.21186
# Shear Modulus (GPa) = 27.68940 39.02095 33.35517
#
# Velocity S-wave (km/s) = 3.28187 3.89595 3.60202
# Velocity P-wave (km/s) = 4.76124 6.14548 5.49711
#
# Compressibility (1/GPa) = 0.04681714
#
# Stress axis : x y z
#
# Youngs Moduli (GPa) = 23.11937 82.29024 69.99685
#
# Poissons Ratio (x) = 0.98472 -0.47696
# Poissons Ratio (y) = 0.27666 0.43994
# Poissons Ratio (z) = -0.15754 0.51721
#
# Static dielectric constant tensor:
#      x y z
#    x 2.229870 0.000000 0.000000 
#    y 0.000000 2.008650 0.000000 
#    z 0.000000 0.000000 2.081310 
# 
# From -- ./inp_files/17979.got.cif
#   From: 2010.05.17/outbox.cif.g08.bks.cpg/sg60_9_cif.got.tgz:17979.got - 2010.06.03 14:59:27.
