data_PCOD9454134
_publ_section_title
;
Structure prediction by ZEFSAII (Michael W. Deem and Ramdas Pophale) SiO2 
 PCOD9454134
Probable space group: P B C N
;
_chemical_formula_sum "Si O2"
_cell_formula_units_Z 48
_cell_length_a 9.966346
_cell_length_b 14.094818
_cell_length_c 12.208491
_cell_angle_alpha 90.000000
_cell_angle_beta 90.000000
_cell_angle_gamma 90.000000
_cell_volume 1714.973526
_symmetry_space_group_name_H-M "P B C N"
_symmetry_group_IT_number 60
_symmetry_cell_setting 'orthorhombic'
loop_
_space_group_symop_operation_xyz
x,y,z
1/2-x,1/2-y,1/2+z
1/2+x,1/2-y,-z
-x,y,1/2-z
-x,-y,-z
1/2+x,1/2+y,1/2-z
1/2-x,1/2+y,z
x,-y,1/2+z
loop_
_atom_site_type_symbol
_atom_site_label
_atom_site_fract_x
_atom_site_fract_y
_atom_site_fract_z
Si Si1 0.826399 0.089081 0.451769
Si Si2 0.560024 0.778658 0.131115
Si Si3 0.087154 0.002649 0.336469
Si Si4 0.644256 0.082243 0.943459
Si Si5 0.805457 0.660537 0.182880
Si Si6 0.340849 0.258770 0.101002
O O1 0.790106 0.195898 0.428993
O O2 0.968323 0.061205 0.397178
O O3 0.846172 0.065156 0.578168
O O4 0.693338 0.024882 0.427981
O O5 0.500000 0.745644 0.250000
O O6 0.489705 0.881424 0.115879
O O7 0.714335 0.751561 0.152073
O O8 0.558852 0.741840 0.002498
O O9 0.195796 0.076809 0.289956
O O10 0.000000 0.945494 0.250000
O O11 0.773339 0.138272 0.893173
O O12 0.634907 0.114688 0.071351
O O13 0.879457 0.701530 0.289859
#
# Coordination Sequence:
#
# PCOD9454134 Si02
#       6
#     8   8   8   8   8   8
#     4  10  22  36  61  96 122 164 219 260 322 382
#     4  11  22  39  65  89 129 174 206 259 325 381
#     4  10  18  35  63  90 125 158 204 279 326 366
#     4  10  23  40  61  95 130 161 222 265 315 396
#     4  10  20  40  67  92 124 167 219 270 323 382
#     4  11  22  41  68  89 127 174 215 264 320 383
#
# _framework density 27.988771
#
# number of rings (size 3 to 8) (size 9 to 14) (size 15 to 20)
#    0.000    1.667    3.333    1.500    0.000    4.000 
#    0.000    0.000    0.000    0.000    0.000    0.000 
#    0.000    0.000    0.000    0.000    0.000    0.000 
#
# Total GULP energy -267750.455155 kJ/mol
# GULP energy per Si atom -5578.134482 kJ/mol
# Density = 2.792507 g / cm^3
# Si number density = 27.988771 Si / 1000 Ang^3
#
#
#
# Elastic Constant Matrix: (Units=GPa)
#
#
# Indices 1 2 3 4 5 6 
#
# 1 83.1414 34.5903 43.2486 0.0000 0.0000 0.0000
# 2 34.5903 44.2164 21.3137 0.0000 0.0000 0.0000
# 3 43.2486 21.3137 172.0356 0.0000 0.0000 0.0000
# 4 0.0000 0.0000 0.0000 36.8820 0.0000 0.0000
# 5 0.0000 0.0000 0.0000 0.0000 52.5030 0.0000
# 6 0.0000 0.0000 0.0000 0.0000 0.0000 28.1362
#
#
#
# Elastic Compliance Matrix: (Units=1/GPa)
#
#
# Indices 1 2 3 4 5 6 
#
# 1 0.019336 -0.013596 -0.003177 0.000000 0.000000 0.000000
# 2 -0.013596 0.033612 -0.000746 0.000000 0.000000 0.000000
# 3 -0.003177 -0.000746 0.006704 0.000000 0.000000 0.000000
# 4 0.000000 0.000000 0.000000 0.027113 0.000000 0.000000
# 5 0.000000 0.000000 0.000000 0.000000 0.019047 0.000000
# 6 0.000000 0.000000 0.000000 0.000000 0.000000 0.035541
#
#
# Mechanical properties :
#
#
# Convention : Reuss Voigt Hill
#
# Bulk Modulus (GPa) = 40.62623 55.29984 47.96303
# Shear Modulus (GPa) = 27.08627 36.85363 31.96995
#
# Velocity S-wave (km/s) = 3.11425 3.63261 3.38337
# Velocity P-wave (km/s) = 5.24196 6.11517 5.69532
#
# Compressibility (1/GPa) = 0.02461464
#
# Stress axis : x y z
#
# Youngs Moduli (GPa) = 51.71575 29.75168 149.16886
#
# Poissons Ratio (x) = 0.40449 0.47386
# Poissons Ratio (y) = 0.70310 0.11133
# Poissons Ratio (z) = 0.16428 0.02220
#
# Static dielectric constant tensor:
#      x y z
#    x 2.224970 0.000000 0.000000 
#    y 0.000000 2.082840 0.000000 
#    z 0.000000 0.000000 2.322540 
# 
# From -- ./inp_files/11022.got.cif
#   From: 2010.05.17/outbox.cif.g08.bks.cpg/sg60_6_cif.got.tgz:11022.got - 2010.06.03 14:59:27.
