data_PCOD9454252
_publ_section_title
;
Structure prediction by ZEFSAII (Michael W. Deem and Ramdas Pophale) SiO2 
 PCOD9454252
Probable space group: P B C N
;
_chemical_formula_sum "Si O2"
_cell_formula_units_Z 64
_cell_length_a 27.042416
_cell_length_b 9.233240
_cell_length_c 11.688476
_cell_angle_alpha 90.000000
_cell_angle_beta 90.000000
_cell_angle_gamma 90.000000
_cell_volume 2918.485253
_symmetry_space_group_name_H-M "P B C N"
_symmetry_group_IT_number 60
_symmetry_cell_setting 'orthorhombic'
loop_
_space_group_symop_operation_xyz
x,y,z
1/2-x,1/2-y,1/2+z
1/2+x,1/2-y,-z
-x,y,1/2-z
-x,-y,-z
1/2+x,1/2+y,1/2-z
1/2-x,1/2+y,z
x,-y,1/2+z
loop_
_atom_site_type_symbol
_atom_site_label
_atom_site_fract_x
_atom_site_fract_y
_atom_site_fract_z
Si Si1 0.467736 0.709336 0.535011
Si Si2 0.776216 0.402036 0.706133
Si Si3 0.931168 0.897569 0.921681
Si Si4 0.366138 0.191192 0.438793
Si Si5 0.076016 0.294202 0.291778
Si Si6 0.188002 0.712812 0.854021
Si Si7 0.434382 0.113784 0.231042
Si Si8 0.160995 0.399773 0.578081
O O1 0.521109 0.657642 0.491708
O O2 0.435293 0.569889 0.571404
O O3 0.442890 0.778272 0.421547
O O4 0.473587 0.809427 0.647238
O O5 0.816336 0.301016 0.638346
O O6 0.782325 0.562749 0.657013
O O7 0.722031 0.339282 0.691366
O O8 0.793308 0.415995 0.836737
O O9 0.936549 0.838169 0.792224
O O10 0.883281 0.823916 0.981268
O O11 0.412503 0.160975 0.353909
O O12 0.354986 0.048245 0.514592
O O13 0.135578 0.306016 0.292146
O O14 0.056003 0.442875 0.239188
O O15 0.174213 0.722496 0.986694
O O16 0.385852 0.139301 0.153058
#
# Coordination Sequence:
#
# PCOD9454252 Si02
#       8
#     8   8   8   8   8   8   8   8
#     4  11  27  46  66 107 140 185 235 295 356 428
#     4  10  23  38  65  95 133 173 232 281 354 413
#     4  11  26  46  69  96 150 184 229 293 367 421
#     4  10  20  41  69  94 132 188 224 281 356 415
#     4  12  23  46  73  95 140 187 239 290 352 429
#     4  11  22  41  64  96 132 173 227 288 351 416
#     4  11  20  42  73  95 132 182 229 288 341 409
#     4  10  18  42  64  89 137 175 215 290 339 401
#
# _framework density 21.929183999999999
#
# number of rings (size 3 to 8) (size 9 to 14) (size 15 to 20)
#    0.000    1.250    6.250    0.375    1.750    5.000 
#    4.500    1.250    0.000    0.000    0.000    0.000 
#    0.000    0.000    0.000    0.000    0.000    0.000 
#
# Total GULP energy -357482.237378 kJ/mol
# GULP energy per Si atom -5585.659959 kJ/mol
# Density = 2.187927 g / cm^3
# Si number density = 21.929184 Si / 1000 Ang^3
#
#
#
# Elastic Constant Matrix: (Units=GPa)
#
#
# Indices 1 2 3 4 5 6 
#
# 1 80.5586 32.3490 20.0251 0.0000 0.0000 0.0000
# 2 32.3490 88.7605 38.5168 0.0000 0.0000 0.0000
# 3 20.0251 38.5168 127.0571 0.0000 0.0000 0.0000
# 4 0.0000 0.0000 0.0000 15.0295 0.0000 0.0000
# 5 0.0000 0.0000 0.0000 0.0000 29.5546 0.0000
# 6 0.0000 0.0000 0.0000 0.0000 0.0000 31.7196
#
#
#
# Elastic Compliance Matrix: (Units=1/GPa)
#
#
# Indices 1 2 3 4 5 6 
#
# 1 0.014610 -0.004981 -0.000793 0.000000 0.000000 0.000000
# 2 -0.004981 0.014671 -0.003662 0.000000 0.000000 0.000000
# 3 -0.000793 -0.003662 0.009106 0.000000 0.000000 0.000000
# 4 0.000000 0.000000 0.000000 0.066536 0.000000 0.000000
# 5 0.000000 0.000000 0.000000 0.000000 0.033836 0.000000
# 6 0.000000 0.000000 0.000000 0.000000 0.000000 0.031526
#
#
# Mechanical properties :
#
#
# Convention : Reuss Voigt Hill
#
# Bulk Modulus (GPa) = 51.24270 53.12865 52.18567
# Shear Modulus (GPa) = 25.55433 28.95976 27.25705
#
# Velocity S-wave (km/s) = 3.41737 3.63795 3.52939
# Velocity P-wave (km/s) = 6.24414 6.47505 6.36064
#
# Compressibility (1/GPa) = 0.01951498
#
# Stress axis : x y z
#
# Youngs Moduli (GPa) = 68.44406 68.16263 109.82173
#
# Poissons Ratio (x) = 0.33950 0.08707
# Poissons Ratio (y) = 0.34091 0.40221
# Poissons Ratio (z) = 0.05426 0.24964
#
# Static dielectric constant tensor:
#      x y z
#    x 1.854330 0.000000 0.000000 
#    y 0.000000 1.779890 0.000000 
#    z 0.000000 0.000000 1.856600 
# 
# From -- ./inp_files/13397.got.cif
#   From: 2010.05.17/outbox.cif.g08.bks.cpg/sg60_7_cif.got.tgz:13397.got - 2010.06.03 14:59:27.
