data_PCOD9454776
_publ_section_title
;
Structure prediction by ZEFSAII (Michael W. Deem and Ramdas Pophale) SiO2 
 PCOD9454776
Probable space group: P B C N
;
_chemical_formula_sum "Si O2"
_cell_formula_units_Z 44
_cell_length_a 11.930481
_cell_length_b 22.753690
_cell_length_c 7.136471
_cell_angle_alpha 90.000000
_cell_angle_beta 90.000000
_cell_angle_gamma 90.000000
_cell_volume 1937.284018
_symmetry_space_group_name_H-M "P B C N"
_symmetry_group_IT_number 60
_symmetry_cell_setting 'orthorhombic'
loop_
_space_group_symop_operation_xyz
x,y,z
1/2-x,1/2-y,1/2+z
1/2+x,1/2-y,-z
-x,y,1/2-z
-x,-y,-z
1/2+x,1/2+y,1/2-z
1/2-x,1/2+y,z
x,-y,1/2+z
loop_
_atom_site_type_symbol
_atom_site_label
_atom_site_fract_x
_atom_site_fract_y
_atom_site_fract_z
Si Si1 0.111746 0.056247 0.186736
Si Si2 0.676775 0.149057 0.736838
Si Si3 0.922052 0.832697 0.068566
Si Si4 0.326447 0.085474 0.398485
Si Si5 0.500000 0.243314 0.750000
Si Si6 0.839950 0.540489 0.485077
O O1 0.191987 0.080807 0.352900
O O2 0.000000 0.022474 0.250000
O O3 0.066446 0.108532 0.056340
O O4 0.208351 0.026275 0.062914
O O5 0.797347 0.165678 0.654742
O O6 0.593961 0.199485 0.671961
O O7 0.651305 0.083814 0.658356
O O8 0.662759 0.139109 0.960165
O O9 0.000000 0.830849 0.250000
O O10 0.949222 0.781992 0.918351
O O11 0.380753 0.025124 0.480180
O O12 0.374992 0.081775 0.188228
#
# Coordination Sequence:
#
# PCOD9454776 Si02
#       6
#     8   8   8   8   4   8
#     4   9  18  34  58  89 128 162 219 259 320 397
#     4  11  24  44  68  96 137 170 218 284 323 396
#     4  11  25  43  68  91 132 177 218 278 339 383
#     4  10  19  38  65  94 130 175 213 267 334 394
#     4  12  30  44  68 102 124 176 242 264 336 402
#     4   9  20  36  65  92 131 174 211 265 335 389
#
# _framework density 22.712208
#
# number of rings (size 3 to 8) (size 9 to 14) (size 15 to 20)
#    1.091    0.727    2.727    1.091    2.545    2.182 
#    0.000    2.727    0.000    0.000    0.000    0.000 
#    0.000    0.000    0.000    0.000    0.000    0.000 
#
# Total GULP energy -245074.612846 kJ/mol
# GULP energy per Si atom -5569.877565 kJ/mol
# Density = 2.266051 g / cm^3
# Si number density = 22.712208 Si / 1000 Ang^3
#
#
#
# Elastic Constant Matrix: (Units=GPa)
#
#
# Indices 1 2 3 4 5 6 
#
# 1 64.1425 16.8072 18.1997 0.0000 0.0000 0.0000
# 2 16.8072 55.5867 28.3300 0.0000 0.0000 0.0000
# 3 18.1997 28.3300 90.2932 0.0000 0.0000 0.0000
# 4 0.0000 0.0000 0.0000 7.1740 0.0000 0.0000
# 5 0.0000 0.0000 0.0000 0.0000 17.4400 0.0000
# 6 0.0000 0.0000 0.0000 0.0000 0.0000 145.4265
#
#
#
# Elastic Compliance Matrix: (Units=1/GPa)
#
#
# Indices 1 2 3 4 5 6 
#
# 1 0.017290 -0.004109 -0.002196 0.000000 0.000000 0.000000
# 2 -0.004109 0.022391 -0.006197 0.000000 0.000000 0.000000
# 3 -0.002196 -0.006197 0.013462 0.000000 0.000000 0.000000
# 4 0.000000 0.000000 0.000000 0.139391 0.000000 0.000000
# 5 0.000000 0.000000 0.000000 0.000000 0.057340 0.000000
# 6 0.000000 0.000000 0.000000 0.000000 0.000000 0.006876
#
#
# Mechanical properties :
#
#
# Convention : Reuss Voigt Hill
#
# Bulk Modulus (GPa) = 35.53738 37.41069 36.47403
# Shear Modulus (GPa) = 17.17430 43.78713 30.48072
#
# Velocity S-wave (km/s) = 2.75284 4.39556 3.66736
# Velocity P-wave (km/s) = 5.07789 6.50144 5.83325
#
# Compressibility (1/GPa) = 0.02813939
#
# Stress axis : x y z
#
# Youngs Moduli (GPa) = 57.83711 44.66170 74.28319
#
# Poissons Ratio (x) = 0.18350 0.16312
# Poissons Ratio (y) = 0.23763 0.46033
# Poissons Ratio (z) = 0.12700 0.27677
#
# Static dielectric constant tensor:
#      x y z
#    x 2.084960 0.000000 0.000000 
#    y 0.000000 1.784780 0.000000 
#    z 0.000000 0.000000 1.908730 
# 
# From -- ./inp_files/5005.got.cif
#   From: 2010.05.17/outbox.cif.g08.bks.cpg/sg60_3_cif.got.tgz:5005.got - 2010.06.03 14:59:27.
