data_PCOD9454012
_publ_section_title
;
Structure prediction by ZEFSAII (Michael W. Deem and Ramdas Pophale) SiO2 
 PCOD9454012
Probable space group: P B C N
;
_chemical_formula_sum "Si O2"
_cell_formula_units_Z 48
_cell_length_a 9.469657
_cell_length_b 23.050237
_cell_length_c 8.787149
_cell_angle_alpha 90.000000
_cell_angle_beta 90.000000
_cell_angle_gamma 90.000000
_cell_volume 1918.039887
_symmetry_space_group_name_H-M "P B C N"
_symmetry_group_IT_number 60
_symmetry_cell_setting 'orthorhombic'
loop_
_space_group_symop_operation_xyz
x,y,z
1/2-x,1/2-y,1/2+z
1/2+x,1/2-y,-z
-x,y,1/2-z
-x,-y,-z
1/2+x,1/2+y,1/2-z
1/2-x,1/2+y,z
x,-y,1/2+z
loop_
_atom_site_type_symbol
_atom_site_label
_atom_site_fract_x
_atom_site_fract_y
_atom_site_fract_z
Si Si1 0.834653 0.519926 0.239831
Si Si2 0.739328 0.877374 0.929347
Si Si3 0.240314 0.893659 0.232983
Si Si4 0.692908 0.288444 0.698925
Si Si5 0.410696 0.130342 0.462069
Si Si6 0.610280 0.709060 0.881121
O O1 0.772594 0.555448 0.382975
O O2 0.743775 0.461877 0.232887
O O3 0.000000 0.502220 0.250000
O O4 0.847184 0.570560 0.111923
O O5 0.836873 0.841481 0.814768
O O6 0.777086 0.865750 0.101984
O O7 0.572819 0.860858 0.916967
O O8 0.382287 0.879072 0.139295
O O9 0.127211 0.861192 0.125692
O O10 0.822122 0.316644 0.603388
O O11 0.748409 0.238384 0.809415
O O12 0.591379 0.272115 0.557577
O O13 0.500000 0.724373 0.750000
#
# Coordination Sequence:
#
# PCOD9454012 Si02
#       6
#     8   8   8   8   8   8
#     4   9  17  30  51  82 120 155 191 246 307 353
#     4  10  18  32  56  87 119 148 194 251 300 351
#     4  11  20  30  51  82 117 158 194 229 293 359
#     4  10  21  39  61  82 109 151 192 237 302 355
#     4   9  18  31  54  85 118 152 187 244 306 348
#     4  11  24  42  61  84 119 152 190 243 293 356
#
# _framework density 25.025548000000001
#
# number of rings (size 3 to 8) (size 9 to 14) (size 15 to 20)
#    0.000    2.000    0.000    6.000    0.000    2.667 
#    0.000    5.000    0.000   16.000    0.000    0.000 
#    0.000    0.000    0.000    0.000    0.000    0.000 
#
# Total GULP energy -267755.542713 kJ/mol
# GULP energy per Si atom -5578.240473 kJ/mol
# Density = 2.496859 g / cm^3
# Si number density = 25.025548 Si / 1000 Ang^3
#
#
#
# Elastic Constant Matrix: (Units=GPa)
#
#
# Indices 1 2 3 4 5 6 
#
# 1 39.3745 13.4513 15.5843 0.0000 0.0000 0.0000
# 2 13.4513 106.3608 20.2103 0.0000 0.0000 0.0000
# 3 15.5843 20.2103 170.9186 0.0000 0.0000 0.0000
# 4 0.0000 0.0000 0.0000 27.7644 0.0000 0.0000
# 5 0.0000 0.0000 0.0000 0.0000 33.3882 0.0000
# 6 0.0000 0.0000 0.0000 0.0000 0.0000 22.9395
#
#
#
# Elastic Compliance Matrix: (Units=1/GPa)
#
#
# Indices 1 2 3 4 5 6 
#
# 1 0.027280 -0.003046 -0.002127 0.000000 0.000000 0.000000
# 2 -0.003046 0.009958 -0.000900 0.000000 0.000000 0.000000
# 3 -0.002127 -0.000900 0.006151 0.000000 0.000000 0.000000
# 4 0.000000 0.000000 0.000000 0.036017 0.000000 0.000000
# 5 0.000000 0.000000 0.000000 0.000000 0.029951 0.000000
# 6 0.000000 0.000000 0.000000 0.000000 0.000000 0.043593
#
#
# Mechanical properties :
#
#
# Convention : Reuss Voigt Hill
#
# Bulk Modulus (GPa) = 32.00691 46.12731 39.06711
# Shear Modulus (GPa) = 28.48842 34.64561 31.56702
#
# Velocity S-wave (km/s) = 3.37764 3.72480 3.55546
# Velocity P-wave (km/s) = 5.29422 6.08038 5.70086
#
# Compressibility (1/GPa) = 0.03124325
#
# Stress axis : x y z
#
# Youngs Moduli (GPa) = 36.65738 100.42039 162.57285
#
# Poissons Ratio (x) = 0.30586 0.34582
# Poissons Ratio (y) = 0.11165 0.14628
# Poissons Ratio (z) = 0.07798 0.09036
#
# Static dielectric constant tensor:
#      x y z
#    x 2.056870 0.000000 0.000000 
#    y 0.000000 1.992040 0.000000 
#    z 0.000000 0.000000 2.042350 
# 
# From -- ./inp_files/5053.got.cif
#   From: 2010.05.17/outbox.cif.g08.bks.cpg/sg60_3_cif.got.tgz:5053.got - 2010.06.03 14:59:27.
