data_PCOD9454182
_publ_section_title
;
Structure prediction by ZEFSAII (Michael W. Deem and Ramdas Pophale) SiO2 
 PCOD9454182
Probable space group: P B C N
;
_chemical_formula_sum "Si O2"
_cell_formula_units_Z 64
_cell_length_a 14.720335
_cell_length_b 11.808343
_cell_length_c 17.141282
_cell_angle_alpha 90.000000
_cell_angle_beta 90.000000
_cell_angle_gamma 90.000000
_cell_volume 2979.545029
_symmetry_space_group_name_H-M "P B C N"
_symmetry_group_IT_number 60
_symmetry_cell_setting 'orthorhombic'
loop_
_space_group_symop_operation_xyz
x,y,z
1/2-x,1/2-y,1/2+z
1/2+x,1/2-y,-z
-x,y,1/2-z
-x,-y,-z
1/2+x,1/2+y,1/2-z
1/2-x,1/2+y,z
x,-y,1/2+z
loop_
_atom_site_type_symbol
_atom_site_label
_atom_site_fract_x
_atom_site_fract_y
_atom_site_fract_z
Si Si1 0.370395 0.669359 0.844294
Si Si2 0.986632 0.383965 0.107147
Si Si3 0.251357 0.353510 0.021601
Si Si4 0.397318 0.545951 0.006050
Si Si5 0.945141 0.368302 0.562451
Si Si6 0.357460 0.724261 0.138137
Si Si7 0.895608 0.061829 0.229832
Si Si8 0.319283 0.254641 0.872364
O O1 0.438112 0.769171 0.873016
O O2 0.388059 0.573278 0.779584
O O3 0.274166 0.728232 0.829064
O O4 0.366009 0.596924 0.923966
O O5 0.066471 0.320273 0.153660
O O6 0.984814 0.518973 0.101623
O O7 0.892110 0.341828 0.141239
O O8 0.996938 0.345188 0.015941
O O9 0.322989 0.453587 0.031267
O O10 0.225726 0.293732 0.102166
O O11 0.156929 0.387641 0.975647
O O12 0.295437 0.263372 0.963115
O O13 0.395555 0.646838 0.068091
O O14 0.500000 0.500000 0.000000
O O15 0.340875 0.633373 0.205548
O O16 0.864556 0.126839 0.151974
O O17 0.000000 0.085888 0.250000
#
# Coordination Sequence:
#
# PCOD9454182 Si02
#       8
#     8   8   8   8   8   8   8   8
#     4  11  23  40  66 100 136 184 239 281 354 437
#     4  10  18  36  64  98 132 168 223 286 347 414
#     4  10  21  37  62  99 132 173 230 288 345 421
#     4  12  21  38  65 101 134 177 233 295 352 423
#     4   9  20  35  63 101 132 169 227 289 340 415
#     4  11  23  41  61 103 137 171 237 298 357 421
#     4  12  25  44  68  99 140 189 233 295 367 438
#     4  11  21  38  70  93 126 185 230 278 354 426
#
# _framework density 21.479789
#
# number of rings (size 3 to 8) (size 9 to 14) (size 15 to 20)
#    0.000    1.250    6.250    2.250    1.750    1.000 
#    0.000    0.000    2.750    0.000    0.000    0.000 
#    0.000    0.000    0.000    0.000    0.000    0.000 
#
# Total GULP energy -357031.155446 kJ/mol
# GULP energy per Si atom -5578.611804 kJ/mol
# Density = 2.143090 g / cm^3
# Si number density = 21.479789 Si / 1000 Ang^3
#
#
#
# Elastic Constant Matrix: (Units=GPa)
#
#
# Indices 1 2 3 4 5 6 
#
# 1 72.2433 29.1636 12.1634 0.0000 0.0000 0.0000
# 2 29.1636 135.8925 36.8484 0.0000 0.0000 0.0000
# 3 12.1634 36.8484 46.7036 0.0000 0.0000 0.0000
# 4 0.0000 0.0000 0.0000 41.9484 0.0000 0.0000
# 5 0.0000 0.0000 0.0000 0.0000 7.3142 0.0000
# 6 0.0000 0.0000 0.0000 0.0000 0.0000 35.5648
#
#
#
# Elastic Compliance Matrix: (Units=1/GPa)
#
#
# Indices 1 2 3 4 5 6 
#
# 1 0.015269 -0.002797 -0.001770 0.000000 0.000000 0.000000
# 2 -0.002797 0.009874 -0.007062 0.000000 0.000000 0.000000
# 3 -0.001770 -0.007062 0.027444 0.000000 0.000000 0.000000
# 4 0.000000 0.000000 0.000000 0.023839 0.000000 0.000000
# 5 0.000000 0.000000 0.000000 0.000000 0.136721 0.000000
# 6 0.000000 0.000000 0.000000 0.000000 0.000000 0.028118
#
#
# Mechanical properties :
#
#
# Convention : Reuss Voigt Hill
#
# Bulk Modulus (GPa) = 34.09498 45.68781 39.89139
# Shear Modulus (GPa) = 18.22828 28.74306 23.48567
#
# Velocity S-wave (km/s) = 2.91628 3.66203 3.31022
# Velocity P-wave (km/s) = 5.21987 6.26075 5.76385
#
# Compressibility (1/GPa) = 0.02932983
#
# Stress axis : x y z
#
# Youngs Moduli (GPa) = 65.49124 101.27699 36.43741
#
# Poissons Ratio (x) = 0.28327 0.06449
# Poissons Ratio (y) = 0.18318 0.25732
# Poissons Ratio (z) = 0.11591 0.71521
#
# Static dielectric constant tensor:
#      x y z
#    x 1.810500 0.000000 0.000000 
#    y 0.000000 1.806620 0.000000 
#    z 0.000000 0.000000 1.863450 
# 
# From -- ./inp_files/20650.got.cif
#   From: 2010.05.17/outbox.cif.g08.bks.cpg/sg60_11_cif.got.tgz:20650.got - 2010.06.03 14:59:27.
