data_PCOD9454710
_publ_section_title
;
Structure prediction by ZEFSAII (Michael W. Deem and Ramdas Pophale) SiO2 
 PCOD9454710
Probable space group: P B C N
;
_chemical_formula_sum "Si O2"
_cell_formula_units_Z 40
_cell_length_a 7.605583
_cell_length_b 14.925319
_cell_length_c 14.960705
_cell_angle_alpha 90.000000
_cell_angle_beta 90.000000
_cell_angle_gamma 90.000000
_cell_volume 1698.275685
_symmetry_space_group_name_H-M "P B C N"
_symmetry_group_IT_number 60
_symmetry_cell_setting 'orthorhombic'
loop_
_space_group_symop_operation_xyz
x,y,z
1/2-x,1/2-y,1/2+z
1/2+x,1/2-y,-z
-x,y,1/2-z
-x,-y,-z
1/2+x,1/2+y,1/2-z
1/2-x,1/2+y,z
x,-y,1/2+z
loop_
_atom_site_type_symbol
_atom_site_label
_atom_site_fract_x
_atom_site_fract_y
_atom_site_fract_z
Si Si1 0.806265 0.310276 0.274741
Si Si2 0.112417 0.786481 0.404494
Si Si3 0.668268 0.872160 0.471728
Si Si4 0.143159 0.360695 0.680528
Si Si5 0.230197 0.565419 0.000865
O O1 0.686398 0.326381 0.188412
O O2 0.767354 0.355180 0.370578
O O3 0.796173 0.201144 0.280022
O O4 0.000000 0.339422 0.250000
O O5 0.214200 0.715201 0.469070
O O6 0.110112 0.873931 0.466710
O O7 0.964925 0.718004 0.370432
O O8 0.455272 0.890958 0.466191
O O9 0.736488 0.961177 0.520683
O O10 0.211962 0.428793 0.607945
O O11 0.000000 0.398208 0.750000
#
# Coordination Sequence:
#
# PCOD9454710 Si02
#       5
#     8   8   8   8   8
#     4  11  20  36  62  85 116 159 200 242 293 365
#     4  10  20  38  60  85 122 156 194 248 304 349
#     4  10  21  36  60  92 117 156 204 242 302 362
#     4   9  20  36  59  84 119 158 196 244 306 349
#     4  10  19  37  61  88 120 155 197 253 299 357
#
# _framework density 23.553301000000001
#
# number of rings (size 3 to 8) (size 9 to 14) (size 15 to 20)
#    0.000    2.000    4.000    0.000    0.000    0.800 
#    7.200    1.000    0.000    0.000    0.000    0.000 
#    0.000    0.000    0.000    0.000    0.000    0.000 
#
# Total GULP energy -222780.368653 kJ/mol
# GULP energy per Si atom -5569.509216 kJ/mol
# Density = 2.349969 g / cm^3
# Si number density = 23.553301 Si / 1000 Ang^3
#
#
#
# Elastic Constant Matrix: (Units=GPa)
#
#
# Indices 1 2 3 4 5 6 
#
# 1 26.8766 10.6144 10.4622 0.0000 0.0000 0.0000
# 2 10.6144 66.1946 17.2004 0.0000 0.0000 0.0000
# 3 10.4622 17.2004 120.5534 0.0000 0.0000 0.0000
# 4 0.0000 0.0000 0.0000 12.7417 0.0000 0.0000
# 5 0.0000 0.0000 0.0000 0.0000 27.8550 0.0000
# 6 0.0000 0.0000 0.0000 0.0000 0.0000 16.2097
#
#
#
# Elastic Compliance Matrix: (Units=1/GPa)
#
#
# Indices 1 2 3 4 5 6 
#
# 1 0.040546 -0.005802 -0.002691 0.000000 0.000000 0.000000
# 2 -0.005802 0.016519 -0.001853 0.000000 0.000000 0.000000
# 3 -0.002691 -0.001853 0.008793 0.000000 0.000000 0.000000
# 4 0.000000 0.000000 0.000000 0.078482 0.000000 0.000000
# 5 0.000000 0.000000 0.000000 0.000000 0.035900 0.000000
# 6 0.000000 0.000000 0.000000 0.000000 0.000000 0.061692
#
#
# Mechanical properties :
#
#
# Convention : Reuss Voigt Hill
#
# Bulk Modulus (GPa) = 22.14114 32.24208 27.19161
# Shear Modulus (GPa) = 18.00630 23.05111 20.52871
#
# Velocity S-wave (km/s) = 2.76794 3.13178 2.95547
# Velocity P-wave (km/s) = 4.43128 5.17649 4.81831
#
# Compressibility (1/GPa) = 0.04516479
#
# Stress axis : x y z
#
# Youngs Moduli (GPa) = 24.66330 60.53642 113.72626
#
# Poissons Ratio (x) = 0.35126 0.30603
# Poissons Ratio (y) = 0.14311 0.21077
# Poissons Ratio (z) = 0.06637 0.11220
#
# Static dielectric constant tensor:
#      x y z
#    x 2.085490 0.000000 0.000000 
#    y 0.000000 1.864620 0.000000 
#    z 0.000000 0.000000 1.988860 
# 
# From -- ./inp_files/14649.got.cif
#   From: 2010.05.17/outbox.cif.g08.bks.cpg/sg60_8_cif.got.tgz:14649.got - 2010.06.03 14:59:27.
