data_PCOD9454049
_publ_section_title
;
Structure prediction by ZEFSAII (Michael W. Deem and Ramdas Pophale) SiO2 
 PCOD9454049
Probable space group: P B C N
;
_chemical_formula_sum "Si O2"
_cell_formula_units_Z 64
_cell_length_a 13.226931
_cell_length_b 8.243350
_cell_length_c 23.053834
_cell_angle_alpha 90.000000
_cell_angle_beta 90.000000
_cell_angle_gamma 90.000000
_cell_volume 2513.656846
_symmetry_space_group_name_H-M "P B C N"
_symmetry_group_IT_number 60
_symmetry_cell_setting 'orthorhombic'
loop_
_space_group_symop_operation_xyz
x,y,z
1/2-x,1/2-y,1/2+z
1/2+x,1/2-y,-z
-x,y,1/2-z
-x,-y,-z
1/2+x,1/2+y,1/2-z
1/2-x,1/2+y,z
x,-y,1/2+z
loop_
_atom_site_type_symbol
_atom_site_label
_atom_site_fract_x
_atom_site_fract_y
_atom_site_fract_z
Si Si1 0.299182 0.198734 0.324461
Si Si2 0.301990 0.158805 0.002553
Si Si3 0.122481 0.357720 0.371907
Si Si4 0.374524 0.509709 0.048444
Si Si5 0.429417 0.012123 0.099556
Si Si6 0.757041 0.878344 0.837485
Si Si7 0.533905 0.650504 0.613320
Si Si8 0.864245 0.875827 0.290725
O O1 0.180113 0.217141 0.336910
O O2 0.351320 0.327542 0.369129
O O3 0.345697 0.262048 0.263913
O O4 0.341593 0.021605 0.339048
O O5 0.333188 0.330749 0.030981
O O6 0.359973 0.021707 0.041975
O O7 0.181213 0.127501 0.003394
O O8 0.340611 0.148040 0.937927
O O9 0.001478 0.366275 0.381186
O O10 0.324850 0.584618 0.106779
O O11 0.491059 0.478279 0.066589
O O12 0.500278 0.170533 0.092070
O O13 0.355020 0.051325 0.152360
O O14 0.821821 0.943085 0.783372
O O15 0.724433 0.692262 0.833296
O O16 0.467965 0.624814 0.673344
#
# Coordination Sequence:
#
# PCOD9454049 Si02
#       8
#     8   8   8   8   8   8   8   8
#     4  11  22  36  50  72 104 140 175 210 252 309
#     4  10  18  33  55  79 105 139 171 212 263 308
#     4  11  22  36  51  74 108 142 175 211 254 310
#     4   9  17  32  55  81 103 128 172 218 258 305
#     4   8  17  33  55  77  99 131 175 215 252 303
#     4   9  17  32  56  82 100 124 168 220 263 303
#     4   8  17  33  54  74  98 132 171 209 254 312
#     4  10  18  33  55  77 100 132 168 211 262 310
#
# _framework density 25.460913999999999
#
# number of rings (size 3 to 8) (size 9 to 14) (size 15 to 20)
#    0.000    2.500    0.000    4.500    0.000    0.000 
#    0.000    7.500    0.000    0.000    0.000    0.000 
#    0.000    0.000    0.000    0.000    0.000    0.000 
#
# Total GULP energy -356795.563974 kJ/mol
# GULP energy per Si atom -5574.930687 kJ/mol
# Density = 2.540296 g / cm^3
# Si number density = 25.460914 Si / 1000 Ang^3
#
#
#
# Elastic Constant Matrix: (Units=GPa)
#
#
# Indices 1 2 3 4 5 6 
#
# 1 41.0830 8.2303 -12.3077 0.0000 0.0000 0.0000
# 2 8.2303 41.8003 0.4355 0.0000 0.0000 0.0000
# 3 -12.3077 0.4355 94.5545 0.0000 0.0000 0.0000
# 4 0.0000 0.0000 0.0000 28.1057 0.0000 0.0000
# 5 0.0000 0.0000 0.0000 0.0000 15.6296 0.0000
# 6 0.0000 0.0000 0.0000 0.0000 0.0000 31.0528
#
#
#
# Elastic Compliance Matrix: (Units=1/GPa)
#
#
# Indices 1 2 3 4 5 6 
#
# 1 0.026428 -0.005240 0.003464 0.000000 0.000000 0.000000
# 2 -0.005240 0.024963 -0.000797 0.000000 0.000000 0.000000
# 3 0.003464 -0.000797 0.011031 0.000000 0.000000 0.000000
# 4 0.000000 0.000000 0.000000 0.035580 0.000000 0.000000
# 5 0.000000 0.000000 0.000000 0.000000 0.063981 0.000000
# 6 0.000000 0.000000 0.000000 0.000000 0.000000 0.032203
#
#
# Mechanical properties :
#
#
# Convention : Reuss Voigt Hill
#
# Bulk Modulus (GPa) = 17.45899 18.90601 18.18250
# Shear Modulus (GPa) = 22.89124 27.02960 24.96042
#
# Velocity S-wave (km/s) = 3.00171 3.26177 3.13444
# Velocity P-wave (km/s) = 4.34577 4.65050 4.50072
#
# Compressibility (1/GPa) = 0.05727708
#
# Stress axis : x y z
#
# Youngs Moduli (GPa) = 37.83801 40.05890 90.65771
#
# Poissons Ratio (x) = 0.20990 -0.31406
# Poissons Ratio (y) = 0.19826 0.07226
# Poissons Ratio (z) = -0.13108 0.03193
#
# Static dielectric constant tensor:
#      x y z
#    x 2.033080 0.000000 0.000000 
#    y 0.000000 2.131990 0.000000 
#    z 0.000000 0.000000 2.097980 
# 
# From -- ./inp_files/24448.got.cif
#   From: 2010.05.17/outbox.cif.g08.bks.cpg/sg60_13_cif.got.tgz:24448.got - 2010.06.03 14:59:27.
