data_PCOD9454123
_publ_section_title
;
Structure prediction by ZEFSAII (Michael W. Deem and Ramdas Pophale) SiO2 
 PCOD9454123
Probable space group: P B C N
;
_chemical_formula_sum "Si O2"
_cell_formula_units_Z 64
_cell_length_a 22.901679
_cell_length_b 11.970564
_cell_length_c 13.594557
_cell_angle_alpha 90.000000
_cell_angle_beta 90.000000
_cell_angle_gamma 90.000000
_cell_volume 3726.893616
_symmetry_space_group_name_H-M "P B C N"
_symmetry_group_IT_number 60
_symmetry_cell_setting 'orthorhombic'
loop_
_space_group_symop_operation_xyz
x,y,z
1/2-x,1/2-y,1/2+z
1/2+x,1/2-y,-z
-x,y,1/2-z
-x,-y,-z
1/2+x,1/2+y,1/2-z
1/2-x,1/2+y,z
x,-y,1/2+z
loop_
_atom_site_type_symbol
_atom_site_label
_atom_site_fract_x
_atom_site_fract_y
_atom_site_fract_z
Si Si1 0.893070 0.954514 0.786554
Si Si2 0.677601 0.124461 0.194420
Si Si3 0.112641 0.166749 0.836723
Si Si4 0.034630 0.112589 0.022337
Si Si5 0.284135 0.685745 0.176034
Si Si6 0.773576 0.208740 0.555616
Si Si7 0.044920 0.237482 0.334797
Si Si8 0.164169 0.637199 0.824554
O O1 0.920318 0.921296 0.891222
O O2 0.826109 0.915881 0.791661
O O3 0.926975 0.877695 0.707300
O O4 0.899429 0.081188 0.751161
O O5 0.621257 0.205212 0.196000
O O6 0.720099 0.161636 0.282378
O O7 0.665482 0.994503 0.193161
O O8 0.712799 0.166559 0.096754
O O9 0.066882 0.153252 0.924537
O O10 0.176496 0.139605 0.885039
O O11 0.991830 0.205122 0.069202
O O12 0.000000 0.000000 0.000000
O O13 0.283133 0.699707 0.059579
O O14 0.311819 0.793878 0.229955
O O15 0.710128 0.170055 0.590292
O O16 0.099235 0.319676 0.347887
O O17 0.000000 0.277053 0.250000
#
# Coordination Sequence:
#
# PCOD9454123 Si02
#       8
#     8   8   8   8   8   8   8   8
#     4  10  18  35  58  85 114 149 190 243 287 341
#     4   9  21  37  54  83 121 149 184 238 293 345
#     4  10  20  37  56  85 123 147 188 245 297 347
#     4  11  20  36  59  86 114 155 197 244 296 340
#     4  10  19  35  60  86 112 152 192 227 295 356
#     4   9  20  37  57  88 114 154 185 240 293 351
#     4   9  20  35  59  81 105 150 206 237 277 340
#     4  10  20  39  58  83 120 151 196 243 284 355
#
# _framework density 17.172478000000002
#
# number of rings (size 3 to 8) (size 9 to 14) (size 15 to 20)
#    0.750    1.500    2.500    0.750    0.000    1.000 
#    2.250    0.625    2.750    0.000    0.000    0.000 
#    0.000    0.000    0.000    0.000    0.000    0.000 
#
# Total GULP energy -356490.653508 kJ/mol
# GULP energy per Si atom -5570.166461 kJ/mol
# Density = 1.713339 g / cm^3
# Si number density = 17.172478 Si / 1000 Ang^3
#
#
#
# Elastic Constant Matrix: (Units=GPa)
#
#
# Indices 1 2 3 4 5 6 
#
# 1 52.4439 7.1323 -20.2561 0.0000 0.0000 0.0000
# 2 7.1323 96.1308 -5.9468 0.0000 0.0000 0.0000
# 3 -20.2561 -5.9468 22.8637 0.0000 0.0000 0.0000
# 4 0.0000 0.0000 0.0000 9.2380 0.0000 0.0000
# 5 0.0000 0.0000 0.0000 0.0000 25.6628 0.0000
# 6 0.0000 0.0000 0.0000 0.0000 0.0000 18.4527
#
#
#
# Elastic Compliance Matrix: (Units=1/GPa)
#
#
# Indices 1 2 3 4 5 6 
#
# 1 0.029018 -0.000572 0.025560 0.000000 0.000000 0.000000
# 2 -0.000572 0.010584 0.002246 0.000000 0.000000 0.000000
# 3 0.025560 0.002246 0.066967 0.000000 0.000000 0.000000
# 4 0.000000 0.000000 0.000000 0.108249 0.000000 0.000000
# 5 0.000000 0.000000 0.000000 0.000000 0.038967 0.000000
# 6 0.000000 0.000000 0.000000 0.000000 0.000000 0.054193
#
#
# Mechanical properties :
#
#
# Convention : Reuss Voigt Hill
#
# Bulk Modulus (GPa) = 6.20973 14.81078 10.51026
# Shear Modulus (GPa) = 16.27671 23.37129 19.82400
#
# Velocity S-wave (km/s) = 3.08204 3.69314 3.40134
# Velocity P-wave (km/s) = 4.03599 5.17969 4.64319
#
# Compressibility (1/GPa) = 0.16103747
#
# Stress axis : x y z
#
# Youngs Moduli (GPa) = 34.46122 94.48333 14.93282
#
# Poissons Ratio (x) = 0.05402 -0.38168
# Poissons Ratio (y) = 0.01970 -0.03354
# Poissons Ratio (z) = -0.88083 -0.21224
#
# Static dielectric constant tensor:
#      x y z
#    x 1.608650 0.000000 0.000000 
#    y 0.000000 1.566640 0.000000 
#    z 0.000000 0.000000 1.583780 
# 
# From -- ./inp_files/13144.got.cif
#   From: 2010.05.17/outbox.cif.g08.bks.cpg/sg60_7_cif.got.tgz:13144.got - 2010.06.03 14:59:27.
