data_PCOD9454319
_publ_section_title
;
Structure prediction by ZEFSAII (Michael W. Deem and Ramdas Pophale) SiO2 
 PCOD9454319
Probable space group: P B C N
;
_chemical_formula_sum "Si O2"
_cell_formula_units_Z 60
_cell_length_a 25.664813
_cell_length_b 20.375591
_cell_length_c 5.220620
_cell_angle_alpha 90.000000
_cell_angle_beta 90.000000
_cell_angle_gamma 90.000000
_cell_volume 2730.048745
_symmetry_space_group_name_H-M "P B C N"
_symmetry_group_IT_number 60
_symmetry_cell_setting 'orthorhombic'
loop_
_space_group_symop_operation_xyz
x,y,z
1/2-x,1/2-y,1/2+z
1/2+x,1/2-y,-z
-x,y,1/2-z
-x,-y,-z
1/2+x,1/2+y,1/2-z
1/2-x,1/2+y,z
x,-y,1/2+z
loop_
_atom_site_type_symbol
_atom_site_label
_atom_site_fract_x
_atom_site_fract_y
_atom_site_fract_z
Si Si1 0.417576 0.749360 0.126733
Si Si2 0.226115 0.165186 0.840787
Si Si3 0.302168 0.956235 0.422028
Si Si4 0.812019 0.221052 0.165132
Si Si5 0.500000 0.144567 0.750000
Si Si6 0.077679 0.456364 0.478978
Si Si7 0.943032 0.177129 0.861016
Si Si8 0.060152 0.025740 0.537953
O O1 0.362334 0.763937 0.259949
O O2 0.457755 0.809264 0.109946
O O3 0.439692 0.700161 0.345447
O O4 0.409876 0.717397 0.847980
O O5 0.262097 0.101199 0.852938
O O6 0.264949 0.227682 0.846419
O O7 0.190724 0.177717 0.591615
O O8 0.194224 0.170701 0.101626
O O9 0.362747 0.932636 0.431626
O O10 0.295294 0.989013 0.700899
O O11 0.465202 0.098970 0.932167
O O12 0.071300 0.488305 0.758046
O O13 0.936122 0.099248 0.861256
O O14 0.000000 0.190009 0.750000
O O15 0.084192 0.019418 0.257727
O O16 0.000000 0.000000 0.500000
#
# Coordination Sequence:
#
# PCOD9454319 Si02
#       8
#     8   8   8   8   4   8   8   8
#     4  12  26  39  59  88 125 162 204 250 306 357
#     4  10  20  40  68  91 117 154 201 248 321 363
#     4  10  20  37  64  99 123 160 201 251 303 383
#     4  10  22  40  63  91 119 155 200 259 302 367
#     4  12  24  40  62  86 126 178 210 248 296 364
#     4  10  23  40  60  90 131 163 210 250 297 351
#     4  12  22  39  55  84 117 154 201 244 300 352
#     4  10  19  31  57  79  97 135 195 249 279 328
#
# _framework density 21.977632
#
# number of rings (size 3 to 8) (size 9 to 14) (size 15 to 20)
#    0.000    1.333    2.667    3.600    1.867    2.133 
#    0.000    5.333    0.000   16.000    0.000    0.000 
#    0.000    0.000    0.000    0.000    0.000    0.000 
#
# Total GULP energy -334928.066915 kJ/mol
# GULP energy per Si atom -5582.134449 kJ/mol
# Density = 2.192761 g / cm^3
# Si number density = 21.977632 Si / 1000 Ang^3
#
#
#
# Elastic Constant Matrix: (Units=GPa)
#
#
# Indices 1 2 3 4 5 6 
#
# 1 65.8260 18.0954 16.8292 0.0000 0.0000 0.0000
# 2 18.0954 56.9842 11.0702 0.0000 0.0000 0.0000
# 3 16.8292 11.0702 110.8297 0.0000 0.0000 0.0000
# 4 0.0000 0.0000 0.0000 7.7132 0.0000 0.0000
# 5 0.0000 0.0000 0.0000 0.0000 26.5174 0.0000
# 6 0.0000 0.0000 0.0000 0.0000 0.0000 24.7714
#
#
#
# Elastic Compliance Matrix: (Units=1/GPa)
#
#
# Indices 1 2 3 4 5 6 
#
# 1 0.017109 -0.005026 -0.002096 0.000000 0.000000 0.000000
# 2 -0.005026 0.019372 -0.001172 0.000000 0.000000 0.000000
# 3 -0.002096 -0.001172 0.009458 0.000000 0.000000 0.000000
# 4 0.000000 0.000000 0.000000 0.129648 0.000000 0.000000
# 5 0.000000 0.000000 0.000000 0.000000 0.037711 0.000000
# 6 0.000000 0.000000 0.000000 0.000000 0.000000 0.040369
#
#
# Mechanical properties :
#
#
# Convention : Reuss Voigt Hill
#
# Bulk Modulus (GPa) = 34.06889 36.18105 35.12497
# Shear Modulus (GPa) = 17.85464 24.31009 21.08236
#
# Velocity S-wave (km/s) = 2.85336 3.32946 3.10056
# Velocity P-wave (km/s) = 5.13720 5.59275 5.36980
#
# Compressibility (1/GPa) = 0.02935229
#
# Stress axis : x y z
#
# Youngs Moduli (GPa) = 58.44882 51.61999 105.72878
#
# Poissons Ratio (x) = 0.25943 0.22160
# Poissons Ratio (y) = 0.29375 0.12390
# Poissons Ratio (z) = 0.12251 0.06049
#
# Static dielectric constant tensor:
#      x y z
#    x 1.801700 0.000000 0.000000 
#    y 0.000000 1.772190 0.000000 
#    z 0.000000 0.000000 1.817490 
# 
# From -- ./inp_files/2603.got.cif
#   From: 2010.05.17/outbox.cif.g08.bks.cpg/sg60_2_cif.got.tgz:2603.got - 2010.06.03 14:59:27.
