data_PCOD9454177
_publ_section_title
;
Structure prediction by ZEFSAII (Michael W. Deem and Ramdas Pophale) SiO2 
 PCOD9454177
Probable space group: P B C N
;
_chemical_formula_sum "Si O2"
_cell_formula_units_Z 60
_cell_length_a 18.977071
_cell_length_b 10.638528
_cell_length_c 13.684293
_cell_angle_alpha 90.000000
_cell_angle_beta 90.000000
_cell_angle_gamma 90.000000
_cell_volume 2762.695930
_symmetry_space_group_name_H-M "P B C N"
_symmetry_group_IT_number 60
_symmetry_cell_setting 'orthorhombic'
loop_
_space_group_symop_operation_xyz
x,y,z
1/2-x,1/2-y,1/2+z
1/2+x,1/2-y,-z
-x,y,1/2-z
-x,-y,-z
1/2+x,1/2+y,1/2-z
1/2-x,1/2+y,z
x,-y,1/2+z
loop_
_atom_site_type_symbol
_atom_site_label
_atom_site_fract_x
_atom_site_fract_y
_atom_site_fract_z
Si Si1 0.641789 0.672312 0.897913
Si Si2 0.060388 0.393173 0.106965
Si Si3 0.500000 0.921935 0.750000
Si Si4 0.163278 0.950476 0.456882
Si Si5 0.908315 0.611229 0.543622
Si Si6 0.295897 0.219227 0.573074
Si Si7 0.893800 0.760170 0.189322
Si Si8 0.794634 0.446590 0.622414
O O1 0.724847 0.685676 0.870680
O O2 0.601743 0.675287 0.795060
O O3 0.632164 0.554036 0.970360
O O4 0.619982 0.790481 0.964719
O O5 0.055105 0.489820 0.196303
O O6 0.126772 0.301364 0.118821
O O7 0.980874 0.341332 0.093106
O O8 0.073845 0.482604 0.013866
O O9 0.540184 0.832017 0.675513
O O10 0.208264 0.857578 0.526654
O O11 0.111527 0.858058 0.398572
O O12 0.214122 0.008363 0.372720
O O13 0.846493 0.566642 0.616920
O O14 0.293404 0.122043 0.482930
O O15 0.827287 0.663080 0.188881
#
# Coordination Sequence:
#
# PCOD9454177 Si02
#       8
#     8   8   4   8   8   8   8   8
#     4  11  22  39  66  93 130 176 217 263 324 395
#     4  10  21  36  63  92 123 157 210 275 323 370
#     4  12  22  40  62  96 124 158 218 282 320 376
#     4  10  22  40  60  93 133 173 204 266 324 385
#     4  10  18  36  63  93 115 161 211 262 327 370
#     4   9  20  37  61  90 126 167 212 258 321 388
#     4  11  24  39  63  95 122 169 224 264 323 391
#     4   9  18  37  62  88 124 154 207 272 314 368
#
# _framework density 21.717915999999999
#
# number of rings (size 3 to 8) (size 9 to 14) (size 15 to 20)
#    0.000    1.867    4.000    0.000    1.867    2.133 
#    0.000    4.000    0.000    0.000    0.000    0.000 
#    0.000    0.000    0.000    0.000    0.000    0.000 
#
# Total GULP energy -334525.620044 kJ/mol
# GULP energy per Si atom -5575.427001 kJ/mol
# Density = 2.166848 g / cm^3
# Si number density = 21.717916 Si / 1000 Ang^3
#
#
#
# Elastic Constant Matrix: (Units=GPa)
#
#
# Indices 1 2 3 4 5 6 
#
# 1 47.1712 14.9860 9.0695 0.0000 0.0000 0.0000
# 2 14.9860 65.8585 24.6935 0.0000 0.0000 0.0000
# 3 9.0695 24.6935 64.3084 0.0000 0.0000 0.0000
# 4 0.0000 0.0000 0.0000 31.2634 0.0000 0.0000
# 5 0.0000 0.0000 0.0000 0.0000 25.3719 0.0000
# 6 0.0000 0.0000 0.0000 0.0000 0.0000 24.4674
#
#
#
# Elastic Compliance Matrix: (Units=1/GPa)
#
#
# Indices 1 2 3 4 5 6 
#
# 1 0.022965 -0.004686 -0.001439 0.000000 0.000000 0.000000
# 2 -0.004686 0.018694 -0.006517 0.000000 0.000000 0.000000
# 3 -0.001439 -0.006517 0.018256 0.000000 0.000000 0.000000
# 4 0.000000 0.000000 0.000000 0.031986 0.000000 0.000000
# 5 0.000000 0.000000 0.000000 0.000000 0.039414 0.000000
# 6 0.000000 0.000000 0.000000 0.000000 0.000000 0.040871
#
#
# Mechanical properties :
#
#
# Convention : Reuss Voigt Hill
#
# Bulk Modulus (GPa) = 28.87748 30.53734 29.70741
# Shear Modulus (GPa) = 23.92189 24.79314 24.35751
#
# Velocity S-wave (km/s) = 3.32246 3.38242 3.35257
# Velocity P-wave (km/s) = 5.29564 5.41717 5.35675
#
# Compressibility (1/GPa) = 0.03462906
#
# Stress axis : x y z
#
# Youngs Moduli (GPa) = 43.54486 53.49305 54.77759
#
# Poissons Ratio (x) = 0.25066 0.07885
# Poissons Ratio (y) = 0.20405 0.35701
# Poissons Ratio (z) = 0.06268 0.34863
#
# Static dielectric constant tensor:
#      x y z
#    x 1.917930 0.000000 0.000000 
#    y 0.000000 1.783700 0.000000 
#    z 0.000000 0.000000 1.802230 
# 
# From -- ./inp_files/17447.got.cif
#   From: 2010.05.17/outbox.cif.g08.bks.cpg/sg60_9_cif.got.tgz:17447.got - 2010.06.03 14:59:27.
