data_PCOD9454391
_publ_section_title
;
Structure prediction by ZEFSAII (Michael W. Deem and Ramdas Pophale) SiO2 
 PCOD9454391
Probable space group: P B C N
;
_chemical_formula_sum "Si O2"
_cell_formula_units_Z 32
_cell_length_a 7.761859
_cell_length_b 36.342916
_cell_length_c 5.231541
_cell_angle_alpha 90.000000
_cell_angle_beta 90.000000
_cell_angle_gamma 90.000000
_cell_volume 1475.758022
_symmetry_space_group_name_H-M "P B C N"
_symmetry_group_IT_number 60
_symmetry_cell_setting 'orthorhombic'
loop_
_space_group_symop_operation_xyz
x,y,z
1/2-x,1/2-y,1/2+z
1/2+x,1/2-y,-z
-x,y,1/2-z
-x,-y,-z
1/2+x,1/2+y,1/2-z
1/2-x,1/2+y,z
x,-y,1/2+z
loop_
_atom_site_type_symbol
_atom_site_label
_atom_site_fract_x
_atom_site_fract_y
_atom_site_fract_z
Si Si1 0.312965 0.767049 0.644653
Si Si2 0.289216 0.521863 0.744807
Si Si3 0.289541 0.393921 0.248452
Si Si4 0.708929 0.649452 0.252739
O O1 0.301051 0.755681 0.349170
O O2 0.500000 0.758317 0.750000
O O3 0.273323 0.809828 0.687586
O O4 0.500000 0.522270 0.750000
O O5 0.234237 0.496519 0.509441
O O6 0.233341 0.564022 0.713617
O O7 0.500000 0.394194 0.250000
O O8 0.235809 0.377553 0.519756
O O9 0.234940 0.367340 0.017946
O O10 0.500000 0.650892 0.250000
#
# Coordination Sequence:
#
# PCOD9454391 Si02
#       4
#     8   8   8   8
#     4  12  25  42  63  88 117 150 191 237 289 345
#     4   9  15  23  37  61  97 137 174 215 267 323
#     4   9  17  28  45  70 102 141 180 221 273 329
#     4  10  19  33  52  75 106 142 181 225 277 333
#
# _framework density 21.683772999999999
#
# number of rings (size 3 to 8) (size 9 to 14) (size 15 to 20)
#    0.000    2.000    0.000    5.250    0.000    8.000 
#    0.000    0.000    0.000    0.000    0.000    0.000 
#    0.000   20.000    0.000    0.000    0.000    0.000 
#
# Total GULP energy -178886.700614 kJ/mol
# GULP energy per Si atom -5590.209394 kJ/mol
# Density = 2.163442 g / cm^3
# Si number density = 21.683773 Si / 1000 Ang^3
#
#
#
# Elastic Constant Matrix: (Units=GPa)
#
#
# Indices 1 2 3 4 5 6 
#
# 1 33.0701 -18.1521 -11.0773 0.0000 0.0000 0.0000
# 2 -18.1521 107.7716 12.0825 0.0000 0.0000 0.0000
# 3 -11.0773 12.0825 100.6608 0.0000 0.0000 0.0000
# 4 0.0000 0.0000 0.0000 45.5886 0.0000 0.0000
# 5 0.0000 0.0000 0.0000 0.0000 5.7705 0.0000
# 6 0.0000 0.0000 0.0000 0.0000 0.0000 -14.4664
#
#
#
# Elastic Compliance Matrix: (Units=1/GPa)
#
#
# Indices 1 2 3 4 5 6 
#
# 1 0.034259 0.005421 0.003119 0.000000 0.000000 0.000000
# 2 0.005421 0.010263 -0.000635 0.000000 0.000000 0.000000
# 3 0.003119 -0.000635 0.010354 0.000000 0.000000 0.000000
# 4 0.000000 0.000000 0.000000 0.021935 0.000000 0.000000
# 5 0.000000 0.000000 0.000000 0.000000 0.173296 0.000000
# 6 0.000000 0.000000 0.000000 0.000000 0.000000 -0.069126
#
#
# Mechanical properties :
#
#
# Convention : Reuss Voigt Hill
#
# Bulk Modulus (GPa) = 14.14722 23.02318 18.58520
# Shear Modulus (GPa) = 26.49236 24.62184 25.55710
#
# Velocity S-wave (km/s) = 3.49916 3.37337 3.43684
# Velocity P-wave (km/s) = 4.78163 5.08071 4.93344
#
# Compressibility (1/GPa) = 0.07068525
#
# Stress axis : x y z
#
# Youngs Moduli (GPa) = 29.18941 97.43637 96.58198
#
# Poissons Ratio (x) = -0.52816 -0.30128
# Poissons Ratio (y) = -0.15822 0.06137
# Poissons Ratio (z) = -0.09105 0.06191
#
# Static dielectric constant tensor:
#      x y z
#    x 1.844530 0.000000 0.000000 
#    y 0.000000 1.732390 0.000000 
#    z 0.000000 0.000000 1.948190 
# 
# From -- ./inp_files/358.got.cif
#   From: 2010.05.17/outbox.cif.g08.bks.cpg/sg60_1_cif.got.tgz:358.got - 2010.06.03 14:59:27.
