data_PCOD9454819
_publ_section_title
;
Structure prediction by ZEFSAII (Michael W. Deem and Ramdas Pophale) SiO2 
 PCOD9454819
Probable space group: P B C N
;
_chemical_formula_sum "Si O2"
_cell_formula_units_Z 56
_cell_length_a 12.178432
_cell_length_b 13.763779
_cell_length_c 12.386508
_cell_angle_alpha 90.000000
_cell_angle_beta 90.000000
_cell_angle_gamma 90.000000
_cell_volume 2076.241912
_symmetry_space_group_name_H-M "P B C N"
_symmetry_group_IT_number 60
_symmetry_cell_setting 'orthorhombic'
loop_
_space_group_symop_operation_xyz
x,y,z
1/2-x,1/2-y,1/2+z
1/2+x,1/2-y,-z
-x,y,1/2-z
-x,-y,-z
1/2+x,1/2+y,1/2-z
1/2-x,1/2+y,z
x,-y,1/2+z
loop_
_atom_site_type_symbol
_atom_site_label
_atom_site_fract_x
_atom_site_fract_y
_atom_site_fract_z
Si Si1 0.329284 0.716850 0.578604
Si Si2 0.176407 0.066484 0.206246
Si Si3 0.592401 0.951278 0.139985
Si Si4 0.379876 0.145664 0.225159
Si Si5 0.325266 0.623543 0.815938
Si Si6 0.472501 0.386564 0.517892
Si Si7 0.150252 0.571794 0.572869
O O1 0.358786 0.829289 0.598234
O O2 0.349140 0.683245 0.705909
O O3 0.415737 0.671337 0.498219
O O4 0.210620 0.674423 0.553507
O O5 0.252064 0.148507 0.262204
O O6 0.136648 0.987233 0.291205
O O7 0.251026 0.993771 0.127788
O O8 0.087408 0.116888 0.132062
O O9 0.603285 0.035849 0.230235
O O10 0.694617 0.879950 0.162460
O O11 0.469613 0.909537 0.127048
O O12 0.620353 0.014772 0.034746
O O13 0.500000 0.186115 0.250000
O O14 0.392326 0.651353 0.921886
O O15 0.500000 0.500000 0.500000
#
# Coordination Sequence:
#
# PCOD9454819 Si02
#       7
#     8   8   8   8   8   8   8
#     4  11  24  38  60  92 133 166 211 268 337 398
#     4  10  21  36  61  89 121 159 214 263 313 393
#     4  10  20  37  70  90 121 164 227 280 319 391
#     4  11  22  40  59  92 130 173 213 269 346 402
#     4  10  20  35  61  92 114 164 212 261 315 388
#     4  12  20  37  62  90 123 156 207 268 316 386
#     4  10  19  40  63  97 116 165 226 275 316 389
#
# _framework density 26.971806999999998
#
# number of rings (size 3 to 8) (size 9 to 14) (size 15 to 20)
#    0.000    1.429    5.714    1.286    0.000    0.000 
#    5.143    0.000    0.000    5.143    0.000    0.000 
#    0.000    0.000    0.000    0.000    0.000    0.000 
#
# Total GULP energy -312271.987191 kJ/mol
# GULP energy per Si atom -5576.285486 kJ/mol
# Density = 2.691042 g / cm^3
# Si number density = 26.971807 Si / 1000 Ang^3
#
#
#
# Elastic Constant Matrix: (Units=GPa)
#
#
# Indices 1 2 3 4 5 6 
#
# 1 196.8782 36.9232 54.9732 0.0000 0.0000 0.0000
# 2 36.9232 78.6749 10.5392 0.0000 0.0000 0.0000
# 3 54.9732 10.5392 52.6096 0.0000 0.0000 0.0000
# 4 0.0000 0.0000 0.0000 26.1876 0.0000 0.0000
# 5 0.0000 0.0000 0.0000 0.0000 57.8797 0.0000
# 6 0.0000 0.0000 0.0000 0.0000 0.0000 10.5145
#
#
#
# Elastic Compliance Matrix: (Units=1/GPa)
#
#
# Indices 1 2 3 4 5 6 
#
# 1 0.007653 -0.002590 -0.007478 0.000000 0.000000 0.000000
# 2 -0.002590 0.013938 -0.000086 0.000000 0.000000 0.000000
# 3 -0.007478 -0.000086 0.026839 0.000000 0.000000 0.000000
# 4 0.000000 0.000000 0.000000 0.038186 0.000000 0.000000
# 5 0.000000 0.000000 0.000000 0.000000 0.017277 0.000000
# 6 0.000000 0.000000 0.000000 0.000000 0.000000 0.095107
#
#
# Mechanical properties :
#
#
# Convention : Reuss Voigt Hill
#
# Bulk Modulus (GPa) = 35.55914 59.22597 47.39256
# Shear Modulus (GPa) = 21.86448 33.96484 27.91466
#
# Velocity S-wave (km/s) = 2.85027 3.55247 3.22056
# Velocity P-wave (km/s) = 4.90352 6.23160 5.60702
#
# Compressibility (1/GPa) = 0.02812217
#
# Stress axis : x y z
#
# Youngs Moduli (GPa) = 130.66672 71.74880 37.25906
#
# Poissons Ratio (x) = 0.18582 0.27862
# Poissons Ratio (y) = 0.33842 0.00320
# Poissons Ratio (z) = 0.97713 0.00615
#
# Static dielectric constant tensor:
#      x y z
#    x 2.620780 0.000000 0.000000 
#    y 0.000000 3.167860 0.000000 
#    z 0.000000 0.000000 2.358900 
# 
# From -- ./inp_files/16141.got.cif
#   From: 2010.05.17/outbox.cif.g08.bks.cpg/sg60_9_cif.got.tgz:16141.got - 2010.06.03 14:59:27.
