data_PCOD9454482
_publ_section_title
;
Structure prediction by ZEFSAII (Michael W. Deem and Ramdas Pophale) SiO2 
 PCOD9454482
Probable space group: P B C N
;
_chemical_formula_sum "Si O2"
_cell_formula_units_Z 60
_cell_length_a 14.587796
_cell_length_b 9.821890
_cell_length_c 19.312145
_cell_angle_alpha 90.000000
_cell_angle_beta 90.000000
_cell_angle_gamma 90.000000
_cell_volume 2767.038876
_symmetry_space_group_name_H-M "P B C N"
_symmetry_group_IT_number 60
_symmetry_cell_setting 'orthorhombic'
loop_
_space_group_symop_operation_xyz
x,y,z
1/2-x,1/2-y,1/2+z
1/2+x,1/2-y,-z
-x,y,1/2-z
-x,-y,-z
1/2+x,1/2+y,1/2-z
1/2-x,1/2+y,z
x,-y,1/2+z
loop_
_atom_site_type_symbol
_atom_site_label
_atom_site_fract_x
_atom_site_fract_y
_atom_site_fract_z
Si Si1 0.854726 0.893941 0.005550
Si Si2 0.353628 0.301643 0.829980
Si Si3 0.500000 0.180600 0.750000
Si Si4 0.899111 0.485731 0.834566
Si Si5 0.272652 0.115869 0.551910
Si Si6 0.008978 0.013769 0.396133
Si Si7 0.376331 0.674866 0.673565
Si Si8 0.754816 0.439380 0.213319
O O1 0.812835 0.748175 0.986228
O O2 0.776992 0.010010 0.999267
O O3 0.916358 0.907609 0.073906
O O4 0.929703 0.939484 0.948155
O O5 0.410370 0.271929 0.759137
O O6 0.432862 0.352046 0.880076
O O7 0.300053 0.162608 0.841780
O O8 0.286972 0.426891 0.819416
O O9 0.484778 0.080804 0.685058
O O10 0.850740 0.536971 0.904401
O O11 0.917184 0.325642 0.832785
O O12 0.827521 0.513297 0.771653
O O13 0.197449 0.160965 0.610242
O O14 0.954511 0.938522 0.335481
O O15 0.321206 0.645493 0.743795
#
# Coordination Sequence:
#
# PCOD9454482 Si02
#       8
#     8   8   4   8   8   8   8   8
#     4  10  21  40  61  88 108 159 197 258 283 360
#     4  11  21  39  54  86 113 161 180 246 284 365
#     4  10  22  32  58  84 126 144 192 238 310 338
#     4  10  19  34  56  91 113 148 194 245 283 361
#     4  10  19  35  65  83 112 146 207 242 293 341
#     4  10  23  37  60  83 126 147 202 240 317 329
#     4  10  19  36  59  90 112 155 189 247 282 366
#     4  10  21  34  60  84 119 147 204 223 292 353
#
# _framework density 21.683831000000001
#
# number of rings (size 3 to 8) (size 9 to 14) (size 15 to 20)
#    0.000    1.867    2.667    1.600    0.000    2.133 
#    0.000    0.667    2.933    0.000    0.000    0.000 
#    0.000    0.000    0.000    0.000    0.000    0.000 
#
# Total GULP energy -335007.982843 kJ/mol
# GULP energy per Si atom -5583.466381 kJ/mol
# Density = 2.163448 g / cm^3
# Si number density = 21.683831 Si / 1000 Ang^3
#
#
#
# Elastic Constant Matrix: (Units=GPa)
#
#
# Indices 1 2 3 4 5 6 
#
# 1 85.1326 41.5112 12.6979 0.0000 0.0000 0.0000
# 2 41.5112 111.5008 -2.1098 0.0000 0.0000 0.0000
# 3 12.6979 -2.1098 15.8112 0.0000 0.0000 0.0000
# 4 0.0000 0.0000 0.0000 19.6679 0.0000 0.0000
# 5 0.0000 0.0000 0.0000 0.0000 22.0036 0.0000
# 6 0.0000 0.0000 0.0000 0.0000 0.0000 32.3111
#
#
#
# Elastic Compliance Matrix: (Units=1/GPa)
#
#
# Indices 1 2 3 4 5 6 
#
# 1 0.017197 -0.006680 -0.014702 0.000000 0.000000 0.000000
# 2 -0.006680 0.011586 0.006911 0.000000 0.000000 0.000000
# 3 -0.014702 0.006911 0.075976 0.000000 0.000000 0.000000
# 4 0.000000 0.000000 0.000000 0.050844 0.000000 0.000000
# 5 0.000000 0.000000 0.000000 0.000000 0.045447 0.000000
# 6 0.000000 0.000000 0.000000 0.000000 0.000000 0.030949
#
#
# Mechanical properties :
#
#
# Convention : Reuss Voigt Hill
#
# Bulk Modulus (GPa) = 13.18983 35.18258 24.18620
# Shear Modulus (GPa) = 17.46946 25.48621 21.47783
#
# Velocity S-wave (km/s) = 2.84147 3.43206 3.15064
# Velocity P-wave (km/s) = 4.10624 5.65384 4.94101
#
# Compressibility (1/GPa) = 0.07581600
#
# Stress axis : x y z
#
# Youngs Moduli (GPa) = 58.15081 86.30801 13.16212
#
# Poissons Ratio (x) = 0.57657 0.19351
# Poissons Ratio (y) = 0.38847 -0.09096
# Poissons Ratio (z) = 0.85493 -0.59648
#
# Static dielectric constant tensor:
#      x y z
#    x 1.809970 0.000000 0.000000 
#    y 0.000000 1.774370 0.000000 
#    z 0.000000 0.000000 1.815170 
# 
# From -- ./inp_files/24425.got.cif
#   From: 2010.05.17/outbox.cif.g08.bks.cpg/sg60_13_cif.got.tgz:24425.got - 2010.06.03 14:59:27.
