data_PCOD9454066
_publ_section_title
;
Structure prediction by ZEFSAII (Michael W. Deem and Ramdas Pophale) SiO2 
 PCOD9454066
Probable space group: P B C N
;
_chemical_formula_sum "Si O2"
_cell_formula_units_Z 40
_cell_length_a 12.552543
_cell_length_b 14.432977
_cell_length_c 9.074792
_cell_angle_alpha 90.000000
_cell_angle_beta 90.000000
_cell_angle_gamma 90.000000
_cell_volume 1644.085189
_symmetry_space_group_name_H-M "P B C N"
_symmetry_group_IT_number 60
_symmetry_cell_setting 'orthorhombic'
loop_
_space_group_symop_operation_xyz
x,y,z
1/2-x,1/2-y,1/2+z
1/2+x,1/2-y,-z
-x,y,1/2-z
-x,-y,-z
1/2+x,1/2+y,1/2-z
1/2-x,1/2+y,z
x,-y,1/2+z
loop_
_atom_site_type_symbol
_atom_site_label
_atom_site_fract_x
_atom_site_fract_y
_atom_site_fract_z
Si Si1 0.504023 0.403297 0.582085
Si Si2 0.515258 0.884307 0.098124
Si Si3 0.677045 0.019859 0.424523
Si Si4 0.419366 0.260356 0.380205
Si Si5 0.766900 0.130083 0.144230
O O1 0.500000 0.431374 0.750000
O O2 0.500000 0.500000 0.500000
O O3 0.417093 0.339578 0.503293
O O4 0.614153 0.345605 0.592419
O O5 0.500000 0.829180 0.250000
O O6 0.634243 0.911639 0.052389
O O7 0.471675 0.828458 0.959154
O O8 0.434760 0.971645 0.125326
O O9 0.740929 0.068760 0.291912
O O10 0.735641 0.937003 0.507901
O O11 0.500000 0.289456 0.250000
O O12 0.695113 0.221378 0.164999
#
# Coordination Sequence:
#
# PCOD9454066 Si02
#       5
#     8   8   8   8   8
#     4  12  28  52  73  98 142 195 249 305 369 452
#     4  10  18  33  61 103 148 174 219 291 356 411
#     4  10  19  33  64 104 141 183 223 284 355 436
#     4  11  24  43  71 106 143 185 244 311 361 433
#     4  11  23  43  71 106 144 192 241 294 377 437
#
# _framework density 24.329639
#
# number of rings (size 3 to 8) (size 9 to 14) (size 15 to 20)
#    0.000    1.200    4.000    2.400    0.000    1.600 
#    3.600    0.000    0.000    0.000    0.000    0.000 
#    0.000    0.000    0.000    0.000    0.000    0.000 
#
# Total GULP energy -223266.843431 kJ/mol
# GULP energy per Si atom -5581.671086 kJ/mol
# Density = 2.427426 g / cm^3
# Si number density = 24.329639 Si / 1000 Ang^3
#
#
#
# Elastic Constant Matrix: (Units=GPa)
#
#
# Indices 1 2 3 4 5 6 
#
# 1 68.4637 10.0683 20.5441 0.0000 0.0000 0.0000
# 2 10.0683 88.0071 26.1685 0.0000 0.0000 0.0000
# 3 20.5441 26.1685 131.8053 0.0000 0.0000 0.0000
# 4 0.0000 0.0000 0.0000 25.5113 0.0000 0.0000
# 5 0.0000 0.0000 0.0000 0.0000 18.9716 0.0000
# 6 0.0000 0.0000 0.0000 0.0000 0.0000 21.9218
#
#
#
# Elastic Compliance Matrix: (Units=1/GPa)
#
#
# Indices 1 2 3 4 5 6 
#
# 1 0.015425 -0.001116 -0.002183 0.000000 0.000000 0.000000
# 2 -0.001116 0.012156 -0.002240 0.000000 0.000000 0.000000
# 3 -0.002183 -0.002240 0.008372 0.000000 0.000000 0.000000
# 4 0.000000 0.000000 0.000000 0.039198 0.000000 0.000000
# 5 0.000000 0.000000 0.000000 0.000000 0.052710 0.000000
# 6 0.000000 0.000000 0.000000 0.000000 0.000000 0.045617
#
#
# Mechanical properties :
#
#
# Convention : Reuss Voigt Hill
#
# Bulk Modulus (GPa) = 40.19726 44.64868 42.42297
# Shear Modulus (GPa) = 25.92721 28.71394 27.32057
#
# Velocity S-wave (km/s) = 3.26799 3.43914 3.35466
# Velocity P-wave (km/s) = 5.54955 5.84479 5.69908
#
# Compressibility (1/GPa) = 0.02487732
#
# Stress axis : x y z
#
# Youngs Moduli (GPa) = 64.82839 82.26194 119.44826
#
# Poissons Ratio (x) = 0.09178 0.26073
# Poissons Ratio (y) = 0.07233 0.26752
# Poissons Ratio (z) = 0.14151 0.18423
#
# Static dielectric constant tensor:
#      x y z
#    x 2.035210 0.000000 0.000000 
#    y 0.000000 1.948950 0.000000 
#    z 0.000000 0.000000 2.026680 
# 
# From -- ./inp_files/5674.got.cif
#   From: 2010.05.17/outbox.cif.g08.bks.cpg/sg60_3_cif.got.tgz:5674.got - 2010.06.03 14:59:27.
