data_PCOD9454142
_publ_section_title
;
Structure prediction by ZEFSAII (Michael W. Deem and Ramdas Pophale) SiO2 
 PCOD9454142
Probable space group: P B C N
;
_chemical_formula_sum "Si O2"
_cell_formula_units_Z 52
_cell_length_a 8.413283
_cell_length_b 23.471171
_cell_length_c 11.913926
_cell_angle_alpha 90.000000
_cell_angle_beta 90.000000
_cell_angle_gamma 90.000000
_cell_volume 2352.638249
_symmetry_space_group_name_H-M "P B C N"
_symmetry_group_IT_number 60
_symmetry_cell_setting 'orthorhombic'
loop_
_space_group_symop_operation_xyz
x,y,z
1/2-x,1/2-y,1/2+z
1/2+x,1/2-y,-z
-x,y,1/2-z
-x,-y,-z
1/2+x,1/2+y,1/2-z
1/2-x,1/2+y,z
x,-y,1/2+z
loop_
_atom_site_type_symbol
_atom_site_label
_atom_site_fract_x
_atom_site_fract_y
_atom_site_fract_z
Si Si1 0.348413 0.807857 0.588267
Si Si2 0.665869 0.917813 0.753015
Si Si3 0.906768 0.991963 0.350065
Si Si4 0.647067 0.417800 0.538294
Si Si5 0.004889 0.812916 0.873517
Si Si6 0.000000 0.782062 0.250000
Si Si7 0.848359 0.695204 0.668499
O O1 0.353485 0.862168 0.670628
O O2 0.458001 0.759033 0.642874
O O3 0.373344 0.826836 0.459288
O O4 0.165380 0.786789 0.597729
O O5 0.500000 0.949381 0.750000
O O6 0.790731 0.959998 0.805798
O O7 0.716144 0.903825 0.626287
O O8 0.000000 0.961770 0.250000
O O9 0.040645 0.030950 0.410601
O O10 0.813290 0.944855 0.420229
O O11 0.546616 0.360025 0.535300
O O12 0.131346 0.763405 0.854659
O O13 0.000000 0.843001 0.750000
O O14 0.830654 0.812928 0.218444
O O15 0.000000 0.680602 0.750000
#
# Coordination Sequence:
#
# PCOD9454142 Si02
#       7
#     8   8   8   8   8   4   8
#     4  12  22  39  66  92 130 170 222 271 320 387
#     4  11  21  35  61  94 123 163 211 258 321 387
#     4   9  19  36  62  89 120 155 202 260 320 374
#     4  10  18  35  65  88 118 159 208 259 307 384
#     4  11  18  39  63  90 121 162 211 266 315 380
#     4  12  22  38  66  96 120 180 220 266 334 380
#     4  11  25  42  63  93 136 174 220 277 324 382
#
# _framework density 22.102844999999999
#
# number of rings (size 3 to 8) (size 9 to 14) (size 15 to 20)
#    0.000    1.231    6.923    1.385    0.000    0.615 
#    0.000    0.000   10.154    0.923    0.000    0.000 
#    0.000    0.000    0.000    0.000    0.000    0.000 
#
# Total GULP energy -289964.633880 kJ/mol
# GULP energy per Si atom -5576.242959 kJ/mol
# Density = 2.205254 g / cm^3
# Si number density = 22.102845 Si / 1000 Ang^3
#
#
#
# Elastic Constant Matrix: (Units=GPa)
#
#
# Indices 1 2 3 4 5 6 
#
# 1 107.3705 -2.4191 46.5590 0.0000 0.0000 0.0000
# 2 -2.4191 40.1851 23.6502 0.0000 0.0000 0.0000
# 3 46.5590 23.6502 99.5028 0.0000 0.0000 0.0000
# 4 0.0000 0.0000 0.0000 30.6707 0.0000 0.0000
# 5 0.0000 0.0000 0.0000 0.0000 21.9675 0.0000
# 6 0.0000 0.0000 0.0000 0.0000 0.0000 8.5719
#
#
#
# Elastic Compliance Matrix: (Units=1/GPa)
#
#
# Indices 1 2 3 4 5 6 
#
# 1 0.012450 0.004857 -0.006980 0.000000 0.000000 0.000000
# 2 0.004857 0.030827 -0.009600 0.000000 0.000000 0.000000
# 3 -0.006980 -0.009600 0.015598 0.000000 0.000000 0.000000
# 4 0.000000 0.000000 0.000000 0.032604 0.000000 0.000000
# 5 0.000000 0.000000 0.000000 0.000000 0.045522 0.000000
# 6 0.000000 0.000000 0.000000 0.000000 0.000000 0.116661
#
#
# Mechanical properties :
#
#
# Convention : Reuss Voigt Hill
#
# Bulk Modulus (GPa) = 28.22503 42.51542 35.37023
# Shear Modulus (GPa) = 17.30604 24.19324 20.74964
#
# Velocity S-wave (km/s) = 2.80121 3.31203 3.06727
# Velocity P-wave (km/s) = 4.82286 5.82263 5.34617
#
# Compressibility (1/GPa) = 0.03542954
#
# Stress axis : x y z
#
# Youngs Moduli (GPa) = 80.32326 32.43894 64.11177
#
# Poissons Ratio (x) = -0.15757 0.44750
# Poissons Ratio (y) = -0.39016 0.61547
# Poissons Ratio (z) = 0.56065 0.31141
#
# Static dielectric constant tensor:
#      x y z
#    x 1.878470 0.000000 0.000000 
#    y 0.000000 1.757430 0.000000 
#    z 0.000000 0.000000 1.978660 
# 
# From -- ./inp_files/10254.got.cif
#   From: 2010.05.17/outbox.cif.g08.bks.cpg/sg60_6_cif.got.tgz:10254.got - 2010.06.03 14:59:27.
