data_PCOD9454305
_publ_section_title
;
Structure prediction by ZEFSAII (Michael W. Deem and Ramdas Pophale) SiO2 
 PCOD9454305
Probable space group: P B C N
;
_chemical_formula_sum "Si O2"
_cell_formula_units_Z 56
_cell_length_a 22.753252
_cell_length_b 16.972540
_cell_length_c 5.363030
_cell_angle_alpha 90.000000
_cell_angle_beta 90.000000
_cell_angle_gamma 90.000000
_cell_volume 2071.097498
_symmetry_space_group_name_H-M "P B C N"
_symmetry_group_IT_number 60
_symmetry_cell_setting 'orthorhombic'
loop_
_space_group_symop_operation_xyz
x,y,z
1/2-x,1/2-y,1/2+z
1/2+x,1/2-y,-z
-x,y,1/2-z
-x,-y,-z
1/2+x,1/2+y,1/2-z
1/2-x,1/2+y,z
x,-y,1/2+z
loop_
_atom_site_type_symbol
_atom_site_label
_atom_site_fract_x
_atom_site_fract_y
_atom_site_fract_z
Si Si1 0.556669 0.160168 0.134367
Si Si2 0.252516 0.549602 0.941145
Si Si3 0.343592 0.872299 0.163390
Si Si4 0.500000 0.281845 0.750000
Si Si5 0.260958 0.298659 0.919691
Si Si6 0.379970 0.446579 0.399999
Si Si7 0.113605 0.223513 0.460066
Si Si8 0.500000 0.555494 0.750000
O O1 0.500000 0.117223 0.250000
O O2 0.595290 0.217035 0.316946
O O3 0.599728 0.100596 0.988358
O O4 0.523457 0.222962 0.959834
O O5 0.255141 0.491522 0.705656
O O6 0.188795 0.588701 0.897179
O O7 0.315744 0.594295 0.917659
O O8 0.289084 0.861056 0.978471
O O9 0.365935 0.787148 0.252850
O O10 0.442999 0.323377 0.860202
O O11 0.251510 0.235806 0.145954
O O12 0.327404 0.327227 0.965087
O O13 0.382498 0.492518 0.664712
O O14 0.439428 0.398021 0.326544
O O15 0.500000 0.500000 0.500000
#
# Coordination Sequence:
#
# PCOD9454305 Si02
#       8
#     8   8   8   4   8   8   8   4
#     4   9  16  30  51  77 105 135 178 221 260 318
#     4  10  22  35  51  73 104 140 183 226 275 322
#     4  10  20  32  52  77 107 142 180 224 274 318
#     4   8  16  28  48  78 105 142 172 212 259 314
#     4  10  19  31  50  80 110 135 167 215 264 326
#     4   8  14  26  41  65  88 113 153 203 250 299
#     4   9  17  30  50  79 108 136 178 214 265 322
#     4   8  12  20  40  62  83 106 144 198 249 286
#
# _framework density 27.038805
#
# number of rings (size 3 to 8) (size 9 to 14) (size 15 to 20)
#    0.000    2.857    1.429    0.000    2.000    0.000 
#    0.000    0.000    0.000    0.857    5.571    9.000 
#    0.000    0.000    0.000    0.000    0.000    0.000 
#
# Total GULP energy -312313.748666 kJ/mol
# GULP energy per Si atom -5577.031226 kJ/mol
# Density = 2.697726 g / cm^3
# Si number density = 27.038805 Si / 1000 Ang^3
#
#
#
# Elastic Constant Matrix: (Units=GPa)
#
#
# Indices 1 2 3 4 5 6 
#
# 1 194.2335 17.5733 39.3210 0.0000 0.0000 0.0000
# 2 17.5733 18.6531 26.7667 0.0000 0.0000 0.0000
# 3 39.3210 26.7667 152.6947 0.0000 0.0000 0.0000
# 4 0.0000 0.0000 0.0000 52.6135 0.0000 0.0000
# 5 0.0000 0.0000 0.0000 0.0000 30.6362 0.0000
# 6 0.0000 0.0000 0.0000 0.0000 0.0000 -1.3410
#
#
#
# Elastic Compliance Matrix: (Units=1/GPa)
#
#
# Indices 1 2 3 4 5 6 
#
# 1 0.005684 -0.004348 -0.000701 0.000000 0.000000 0.000000
# 2 -0.004348 0.074955 -0.012019 0.000000 0.000000 0.000000
# 3 -0.000701 -0.012019 0.008837 0.000000 0.000000 0.000000
# 4 0.000000 0.000000 0.000000 0.019007 0.000000 0.000000
# 5 0.000000 0.000000 0.000000 0.000000 0.032641 0.000000
# 6 0.000000 0.000000 0.000000 0.000000 0.000000 -0.745693
#
#
# Mechanical properties :
#
#
# Convention : Reuss Voigt Hill
#
# Bulk Modulus (GPa) = 18.07116 59.21147 38.64132
# Shear Modulus (GPa) = -9.05820 35.17640 13.05910
#
# Velocity S-wave (km/s) = -1.83231 3.61080 2.20006
# Velocity P-wave (km/s) = 1.49046 6.27137 4.55804
#
# Compressibility (1/GPa) = 0.05533679
#
# Stress axis : x y z
#
# Youngs Moduli (GPa) = 175.93689 13.34138 113.16570
#
# Poissons Ratio (x) = 0.05801 0.07938
# Poissons Ratio (y) = 0.76503 1.36019
# Poissons Ratio (z) = 0.12341 0.16036
#
# Static dielectric constant tensor:
#      x y z
#    x 2.501430 0.000000 0.000000 
#    y 0.000000 2.116040 0.000000 
#    z 0.000000 0.000000 2.218800 
# 
# From -- ./inp_files/2150.got.cif
#   From: 2010.05.17/outbox.cif.g08.bks.cpg/sg60_2_cif.got.tgz:2150.got - 2010.06.03 14:59:27.
