data_PCOD9454380
_publ_section_title
;
Structure prediction by ZEFSAII (Michael W. Deem and Ramdas Pophale) SiO2 
 PCOD9454380
Probable space group: P B C N
;
_chemical_formula_sum "Si O2"
_cell_formula_units_Z 64
_cell_length_a 23.413087
_cell_length_b 5.519677
_cell_length_c 28.262587
_cell_angle_alpha 90.000000
_cell_angle_beta 90.000000
_cell_angle_gamma 90.000000
_cell_volume 3652.449800
_symmetry_space_group_name_H-M "P B C N"
_symmetry_group_IT_number 60
_symmetry_cell_setting 'orthorhombic'
loop_
_space_group_symop_operation_xyz
x,y,z
1/2-x,1/2-y,1/2+z
1/2+x,1/2-y,-z
-x,y,1/2-z
-x,-y,-z
1/2+x,1/2+y,1/2-z
1/2-x,1/2+y,z
x,-y,1/2+z
loop_
_atom_site_type_symbol
_atom_site_label
_atom_site_fract_x
_atom_site_fract_y
_atom_site_fract_z
Si Si1 0.032628 0.752467 0.486889
Si Si2 0.447730 0.157415 0.287971
Si Si3 0.007732 0.300032 0.613304
Si Si4 0.569355 0.335194 0.747548
Si Si5 0.393087 0.527332 0.149844
Si Si6 0.773488 0.878773 0.341213
Si Si7 0.730365 0.014135 0.948312
Si Si8 0.109036 0.616437 0.568521
O O1 0.087657 0.742721 0.520511
O O2 0.000000 0.500000 0.500000
O O3 0.034773 0.754082 0.430009
O O4 0.000000 0.000000 0.500000
O O5 0.500000 0.167162 0.250000
O O6 0.474602 0.124282 0.339756
O O7 0.417253 0.416255 0.280414
O O8 0.412502 0.917232 0.275718
O O9 0.054914 0.485613 0.592673
O O10 0.048078 0.079333 0.629665
O O11 0.500000 0.327464 0.750000
O O12 0.592653 0.349179 0.800627
O O13 0.341771 0.340001 0.159470
O O14 0.370135 0.700579 0.108827
O O15 0.742466 0.642942 0.319988
O O16 0.753962 0.924424 0.395604
O O17 0.738670 0.281802 0.970902
O O18 0.663188 0.953170 0.944176
#
# Coordination Sequence:
#
# PCOD9454380 Si02
#       8
#     8   8   8   8   8   8   8   8
#     4  10  22  34  47  73 103 134 181 204 238 312
#     4  10  19  33  46  66 101 125 172 211 237 289
#     4  11  21  33  51  72 102 148 171 210 253 301
#     4  10  20  32  44  74  94 127 174 206 237 310
#     4  12  20  30  56  68 103 147 161 203 269 295
#     4  10  20  32  44  72  99 128 166 203 240 311
#     4  10  19  33  47  70  99 127 163 213 243 299
#     4  11  21  32  52  71 104 142 171 199 259 304
#
# _framework density 17.522487000000002
#
# number of rings (size 3 to 8) (size 9 to 14) (size 15 to 20)
#    0.000    1.500    6.250    3.000    0.000    0.000 
#    0.000    0.000    0.000    0.000    0.000    0.000 
#    0.000    6.000    0.000    0.000    0.000    0.000 
#
# Total GULP energy -356280.767567 kJ/mol
# GULP energy per Si atom -5566.886993 kJ/mol
# Density = 1.748261 g / cm^3
# Si number density = 17.522487 Si / 1000 Ang^3
#
#
#
# Elastic Constant Matrix: (Units=GPa)
#
#
# Indices 1 2 3 4 5 6 
#
# 1 41.9733 1.2890 24.5028 0.0000 0.0000 0.0000
# 2 1.2890 116.2581 13.5042 0.0000 0.0000 0.0000
# 3 24.5028 13.5042 104.0233 0.0000 0.0000 0.0000
# 4 0.0000 0.0000 0.0000 -3.7752 0.0000 0.0000
# 5 0.0000 0.0000 0.0000 0.0000 6.3091 0.0000
# 6 0.0000 0.0000 0.0000 0.0000 0.0000 13.5175
#
#
#
# Elastic Compliance Matrix: (Units=1/GPa)
#
#
# Indices 1 2 3 4 5 6 
#
# 1 0.027647 0.000457 -0.006572 0.000000 0.000000 0.000000
# 2 0.000457 0.008741 -0.001242 0.000000 0.000000 0.000000
# 3 -0.006572 -0.001242 0.011322 0.000000 0.000000 0.000000
# 4 0.000000 0.000000 0.000000 -0.264883 0.000000 0.000000
# 5 0.000000 0.000000 0.000000 0.000000 0.158502 0.000000
# 6 0.000000 0.000000 0.000000 0.000000 0.000000 0.073978
#
#
# Mechanical properties :
#
#
# Convention : Reuss Voigt Hill
#
# Bulk Modulus (GPa) = 30.30672 37.87185 34.08929
# Shear Modulus (GPa) = 121.89317 18.07419 69.98368
#
# Velocity S-wave (km/s) = 8.34954 3.21516 6.32662
# Velocity P-wave (km/s) = 10.50174 5.95342 8.53609
#
# Compressibility (1/GPa) = 0.03299598
#
# Stress axis : x y z
#
# Youngs Moduli (GPa) = 36.17043 114.40613 88.32022
#
# Poissons Ratio (x) = -0.05226 0.58040
# Poissons Ratio (y) = -0.01652 0.10972
# Poissons Ratio (z) = 0.23770 0.14213
#
# Static dielectric constant tensor:
#      x y z
#    x 1.575560 0.000000 0.000000 
#    y 0.000000 1.919620 0.000000 
#    z 0.000000 0.000000 1.580390 
# 
# From -- ./inp_files/24636.got.cif
#   From: 2010.05.17/outbox.cif.g08.bks.cpg/sg60_13_cif.got.tgz:24636.got - 2010.06.03 14:59:27.
