data_PCOD9454098
_publ_section_title
;
Structure prediction by ZEFSAII (Michael W. Deem and Ramdas Pophale) SiO2 
 PCOD9454098
Probable space group: P B C N
;
_chemical_formula_sum "Si O2"
_cell_formula_units_Z 44
_cell_length_a 7.934541
_cell_length_b 15.736958
_cell_length_c 14.154507
_cell_angle_alpha 90.000000
_cell_angle_beta 90.000000
_cell_angle_gamma 90.000000
_cell_volume 1767.410138
_symmetry_space_group_name_H-M "P B C N"
_symmetry_group_IT_number 60
_symmetry_cell_setting 'orthorhombic'
loop_
_space_group_symop_operation_xyz
x,y,z
1/2-x,1/2-y,1/2+z
1/2+x,1/2-y,-z
-x,y,1/2-z
-x,-y,-z
1/2+x,1/2+y,1/2-z
1/2-x,1/2+y,z
x,-y,1/2+z
loop_
_atom_site_type_symbol
_atom_site_label
_atom_site_fract_x
_atom_site_fract_y
_atom_site_fract_z
Si Si1 0.267891 0.222273 0.618801
Si Si2 0.120538 0.404573 0.625910
Si Si3 0.132693 0.211872 0.428319
Si Si4 0.260863 0.442752 0.820494
Si Si5 0.724928 0.099928 0.586227
Si Si6 0.000000 0.628344 0.750000
O O1 0.157588 0.304517 0.641899
O O2 0.177366 0.174979 0.531689
O O3 0.444959 0.252322 0.573988
O O4 0.333089 0.176528 0.712708
O O5 0.220701 0.451711 0.709726
O O6 0.186419 0.423725 0.521397
O O7 0.921202 0.417756 0.634021
O O8 0.136111 0.140810 0.348116
O O9 0.244849 0.297635 0.412244
O O10 0.340318 0.527415 0.866937
O O11 0.562388 0.085203 0.654646
#
# Coordination Sequence:
#
# PCOD9454098 Si02
#       6
#     8   8   8   8   8   4
#     4  10  20  37  61  88 119 156 197 240 293 352
#     4  10  21  36  58  88 118 149 197 246 292 351
#     4  10  21  38  61  86 117 155 195 239 291 349
#     4  11  21  36  60  86 117 155 194 246 298 343
#     4  10  21  36  56  86 115 151 201 241 285 352
#     4  10  18  34  60  86 114 154 194 238 288 350
#
# _framework density 24.895182999999999
#
# number of rings (size 3 to 8) (size 9 to 14) (size 15 to 20)
#    0.000    1.818    0.000    7.091    0.000    1.455 
#    0.000    3.636    0.000   17.455    0.000    0.000 
#    0.000    0.000    0.000    0.000    0.000    0.000 
#
# Total GULP energy -245488.430974 kJ/mol
# GULP energy per Si atom -5579.282522 kJ/mol
# Density = 2.483852 g / cm^3
# Si number density = 24.895183 Si / 1000 Ang^3
#
#
#
# Elastic Constant Matrix: (Units=GPa)
#
#
# Indices 1 2 3 4 5 6 
#
# 1 19.7224 -0.0376 -10.7710 0.0000 0.0000 0.0000
# 2 -0.0376 89.3946 12.8434 0.0000 0.0000 0.0000
# 3 -10.7710 12.8434 151.4789 0.0000 0.0000 0.0000
# 4 0.0000 0.0000 0.0000 27.3994 0.0000 0.0000
# 5 0.0000 0.0000 0.0000 0.0000 36.8837 0.0000
# 6 0.0000 0.0000 0.0000 0.0000 0.0000 15.8665
#
#
#
# Elastic Compliance Matrix: (Units=1/GPa)
#
#
# Indices 1 2 3 4 5 6 
#
# 1 0.052776 -0.000523 0.003797 0.000000 0.000000 0.000000
# 2 -0.000523 0.011329 -0.000998 0.000000 0.000000 0.000000
# 3 0.003797 -0.000998 0.006956 0.000000 0.000000 0.000000
# 4 0.000000 0.000000 0.000000 0.036497 0.000000 0.000000
# 5 0.000000 0.000000 0.000000 0.000000 0.027112 0.000000
# 6 0.000000 0.000000 0.000000 0.000000 0.000000 0.063026
#
#
# Mechanical properties :
#
#
# Convention : Reuss Voigt Hill
#
# Bulk Modulus (GPa) = 13.22505 29.40727 21.31616
# Shear Modulus (GPa) = 22.89899 33.26732 28.08316
#
# Velocity S-wave (km/s) = 3.03614 3.65950 3.36230
# Velocity P-wave (km/s) = 4.19698 5.44922 4.86357
#
# Compressibility (1/GPa) = 0.07561408
#
# Stress axis : x y z
#
# Youngs Moduli (GPa) = 18.94783 88.26526 143.75722
#
# Poissons Ratio (x) = 0.04619 -0.54586
# Poissons Ratio (y) = 0.00992 0.14344
# Poissons Ratio (z) = -0.07195 0.08807
#
# Static dielectric constant tensor:
#      x y z
#    x 2.078310 0.000000 0.000000 
#    y 0.000000 2.186740 0.000000 
#    z 0.000000 0.000000 2.004530 
# 
# From -- ./inp_files/14915.got.cif
#   From: 2010.05.17/outbox.cif.g08.bks.cpg/sg60_8_cif.got.tgz:14915.got - 2010.06.03 14:59:27.
