data_PCOD9454002
_publ_section_title
;
Structure prediction by ZEFSAII (Michael W. Deem and Ramdas Pophale) SiO2 
 PCOD9454002
Probable space group: P B C N
;
_chemical_formula_sum "Si O2"
_cell_formula_units_Z 64
_cell_length_a 5.247879
_cell_length_b 28.467870
_cell_length_c 21.451632
_cell_angle_alpha 90.000000
_cell_angle_beta 90.000000
_cell_angle_gamma 90.000000
_cell_volume 3204.786666
_symmetry_space_group_name_H-M "P B C N"
_symmetry_group_IT_number 60
_symmetry_cell_setting 'orthorhombic'
loop_
_space_group_symop_operation_xyz
x,y,z
1/2-x,1/2-y,1/2+z
1/2+x,1/2-y,-z
-x,y,1/2-z
-x,-y,-z
1/2+x,1/2+y,1/2-z
1/2-x,1/2+y,z
x,-y,1/2+z
loop_
_atom_site_type_symbol
_atom_site_label
_atom_site_fract_x
_atom_site_fract_y
_atom_site_fract_z
Si Si1 0.488417 0.329518 0.565804
Si Si2 0.624778 0.759625 0.128049
Si Si3 0.869089 0.199024 0.816813
Si Si4 0.356088 0.090122 0.920898
Si Si5 0.499443 0.569059 0.464586
Si Si6 0.017151 0.092577 0.677657
Si Si7 0.474234 0.178461 0.512493
Si Si8 0.741893 0.022124 0.925108
O O1 0.562715 0.295603 0.622461
O O2 0.553256 0.384739 0.575399
O O3 0.198244 0.324133 0.540117
O O4 0.694525 0.314005 0.514024
O O5 0.915960 0.775634 0.140037
O O6 0.411899 0.780250 0.174747
O O7 0.549965 0.782362 0.061747
O O8 0.846783 0.142908 0.826763
O O9 0.000000 0.205097 0.750000
O O10 0.254969 0.104162 0.853635
O O11 0.452602 0.036912 0.914737
O O12 0.149484 0.089218 0.975469
O O13 0.540645 0.129477 0.948825
O O14 0.662634 0.530762 0.426983
O O15 0.286281 0.540931 0.503582
O O16 0.000000 0.078353 0.750000
O O17 0.127096 0.053125 0.630269
#
# Coordination Sequence:
#
# PCOD9454002 Si02
#       8
#     8   8   8   8   8   8   8   8
#     4  11  22  36  54  87 119 153 190 232 283 352
#     4  12  22  37  59  82 117 155 191 235 290 343
#     4  11  24  40  59  84 111 150 199 244 291 346
#     4  10  18  32  55  80 113 153 186 233 284 357
#     4   9  20  32  53  83 114 146 186 230 284 350
#     4  10  22  36  54  82 112 148 195 244 290 345
#     4  11  20  34  54  85 122 152 186 227 287 352
#     4  10  18  35  55  78 114 148 186 229 292 345
#
# _framework density 19.970127999999999
#
# number of rings (size 3 to 8) (size 9 to 14) (size 15 to 20)
#    0.000    1.500    2.500    3.750    1.750    0.500 
#    0.000    0.000    0.000    1.500    0.000    0.000 
#    0.000    0.000    0.000    0.000    0.000    0.000 
#
# Total GULP energy -356511.217243 kJ/mol
# GULP energy per Si atom -5570.487769 kJ/mol
# Density = 1.992467 g / cm^3
# Si number density = 19.970128 Si / 1000 Ang^3
#
#
#
# Elastic Constant Matrix: (Units=GPa)
#
#
# Indices 1 2 3 4 5 6 
#
# 1 47.4237 -10.6237 8.1125 0.0000 0.0000 0.0000
# 2 -10.6237 98.2111 24.1590 0.0000 0.0000 0.0000
# 3 8.1125 24.1590 59.0664 0.0000 0.0000 0.0000
# 4 0.0000 0.0000 0.0000 15.3985 0.0000 0.0000
# 5 0.0000 0.0000 0.0000 0.0000 19.5379 0.0000
# 6 0.0000 0.0000 0.0000 0.0000 0.0000 21.3419
#
#
#
# Elastic Compliance Matrix: (Units=1/GPa)
#
#
# Indices 1 2 3 4 5 6 
#
# 1 0.022671 0.003578 -0.004577 0.000000 0.000000 0.000000
# 2 0.003578 0.011886 -0.005353 0.000000 0.000000 0.000000
# 3 -0.004577 -0.005353 0.019748 0.000000 0.000000 0.000000
# 4 0.000000 0.000000 0.000000 0.064942 0.000000 0.000000
# 5 0.000000 0.000000 0.000000 0.000000 0.051183 0.000000
# 6 0.000000 0.000000 0.000000 0.000000 0.000000 0.046856
#
#
# Mechanical properties :
#
#
# Convention : Reuss Voigt Hill
#
# Bulk Modulus (GPa) = 24.03770 27.55522 25.79646
# Shear Modulus (GPa) = 20.50382 23.45921 21.98151
#
# Velocity S-wave (km/s) = 3.20773 3.43113 3.32131
# Velocity P-wave (km/s) = 5.07763 5.43369 5.25868
#
# Compressibility (1/GPa) = 0.04160131
#
# Stress axis : x y z
#
# Youngs Moduli (GPa) = 44.10893 84.13246 50.63735
#
# Poissons Ratio (x) = -0.30106 0.23179
# Poissons Ratio (y) = -0.15784 0.27106
# Poissons Ratio (z) = 0.20190 0.45036
#
# Static dielectric constant tensor:
#      x y z
#    x 1.811320 0.000000 0.000000 
#    y 0.000000 1.826930 0.000000 
#    z 0.000000 0.000000 1.713470 
# 
# From -- ./inp_files/18850.got.cif
#   From: 2010.05.17/outbox.cif.g08.bks.cpg/sg60_10_cif.got.tgz:18850.got - 2010.06.03 14:59:27.
