data_PCOD9454694
_publ_section_title
;
Structure prediction by ZEFSAII (Michael W. Deem and Ramdas Pophale) SiO2 
 PCOD9454694
Probable space group: P B C N
;
_chemical_formula_sum "Si O2"
_cell_formula_units_Z 64
_cell_length_a 23.625364
_cell_length_b 9.567383
_cell_length_c 13.446854
_cell_angle_alpha 90.000000
_cell_angle_beta 90.000000
_cell_angle_gamma 90.000000
_cell_volume 3039.431485
_symmetry_space_group_name_H-M "P B C N"
_symmetry_group_IT_number 60
_symmetry_cell_setting 'orthorhombic'
loop_
_space_group_symop_operation_xyz
x,y,z
1/2-x,1/2-y,1/2+z
1/2+x,1/2-y,-z
-x,y,1/2-z
-x,-y,-z
1/2+x,1/2+y,1/2-z
1/2-x,1/2+y,z
x,-y,1/2+z
loop_
_atom_site_type_symbol
_atom_site_label
_atom_site_fract_x
_atom_site_fract_y
_atom_site_fract_z
Si Si1 0.887381 0.891127 0.691449
Si Si2 0.039153 0.114545 0.902289
Si Si3 0.190340 0.311107 0.025743
Si Si4 0.079950 0.993598 0.092377
Si Si5 0.158300 0.392645 0.252296
Si Si6 0.370087 0.181247 0.325785
Si Si7 0.298637 0.516309 0.550663
Si Si8 0.714393 0.426531 0.220187
O O1 0.877352 0.727541 0.693622
O O2 0.937704 0.961198 0.630071
O O3 0.902284 0.939589 0.803599
O O4 0.827732 0.967042 0.663973
O O5 0.073418 0.226107 0.837486
O O6 0.972051 0.111574 0.893484
O O7 0.058726 0.114292 0.017018
O O8 0.147945 0.355132 0.938682
O O9 0.169354 0.346346 0.137573
O O10 0.249573 0.388753 0.007026
O O11 0.199469 0.144304 0.016390
O O12 0.137230 0.927032 0.048523
O O13 0.128360 0.541972 0.261540
O O14 0.220127 0.405960 0.304972
O O15 0.320109 0.281234 0.283468
O O16 0.283457 0.513568 0.668186
#
# Coordination Sequence:
#
# PCOD9454694 Si02
#       8
#     8   8   8   8   8   8   8   8
#     4  10  19  37  58  85 115 157 206 243 304 366
#     4  10  21  37  64  86 113 154 212 254 294 364
#     4  11  23  40  57  92 132 164 199 251 312 372
#     4  10  19  39  62  84 113 157 202 255 294 348
#     4  11  21  36  58  84 129 162 194 256 320 364
#     4  11  23  37  58  94 129 160 206 256 307 366
#     4  10  21  39  61  87 122 161 203 246 309 369
#     4   9  20  35  57  84 119 165 199 249 305 370
#
# _framework density 21.056571000000002
#
# number of rings (size 3 to 8) (size 9 to 14) (size 15 to 20)
#    0.000    1.750    3.750    1.125    7.000    1.000 
#    0.000    0.000    0.000   13.500    0.000    0.000 
#    0.000    0.000    0.000    0.000    0.000    0.000 
#
# Total GULP energy -357416.526641 kJ/mol
# GULP energy per Si atom -5584.633229 kJ/mol
# Density = 2.100865 g / cm^3
# Si number density = 21.056571 Si / 1000 Ang^3
#
#
#
# Elastic Constant Matrix: (Units=GPa)
#
#
# Indices 1 2 3 4 5 6 
#
# 1 113.3772 32.7343 15.0789 0.0000 0.0000 0.0000
# 2 32.7343 97.0552 18.3031 0.0000 0.0000 0.0000
# 3 15.0789 18.3031 60.6154 0.0000 0.0000 0.0000
# 4 0.0000 0.0000 0.0000 25.7101 0.0000 0.0000
# 5 0.0000 0.0000 0.0000 0.0000 24.6360 0.0000
# 6 0.0000 0.0000 0.0000 0.0000 0.0000 16.1329
#
#
#
# Elastic Compliance Matrix: (Units=1/GPa)
#
#
# Indices 1 2 3 4 5 6 
#
# 1 0.009906 -0.003050 -0.001543 0.000000 0.000000 0.000000
# 2 -0.003050 0.011865 -0.002824 0.000000 0.000000 0.000000
# 3 -0.001543 -0.002824 0.017734 0.000000 0.000000 0.000000
# 4 0.000000 0.000000 0.000000 0.038895 0.000000 0.000000
# 5 0.000000 0.000000 0.000000 0.000000 0.040591 0.000000
# 6 0.000000 0.000000 0.000000 0.000000 0.000000 0.061985
#
#
# Mechanical properties :
#
#
# Convention : Reuss Voigt Hill
#
# Bulk Modulus (GPa) = 40.53444 44.80894 42.67169
# Shear Modulus (GPa) = 24.50578 26.95793 25.73186
#
# Velocity S-wave (km/s) = 3.41516 3.58196 3.49955
# Velocity P-wave (km/s) = 5.90281 6.19949 6.05297
#
# Compressibility (1/GPa) = 0.02467038
#
# Stress axis : x y z
#
# Youngs Moduli (GPa) = 100.94930 84.28408 56.38876
#
# Poissons Ratio (x) = 0.25707 0.08702
# Poissons Ratio (y) = 0.30790 0.15923
# Poissons Ratio (z) = 0.15579 0.23801
#
# Static dielectric constant tensor:
#      x y z
#    x 1.762550 0.000000 0.000000 
#    y 0.000000 1.730790 0.000000 
#    z 0.000000 0.000000 1.870400 
# 
# From -- ./inp_files/17930.got.cif
#   From: 2010.05.17/outbox.cif.g08.bks.cpg/sg60_9_cif.got.tgz:17930.got - 2010.06.03 14:59:27.
