data_PCOD9454504
_publ_section_title
;
Structure prediction by ZEFSAII (Michael W. Deem and Ramdas Pophale) SiO2 
 PCOD9454504
Probable space group: P B C N
;
_chemical_formula_sum "Si O2"
_cell_formula_units_Z 64
_cell_length_a 12.958638
_cell_length_b 26.827864
_cell_length_c 8.312274
_cell_angle_alpha 90.000000
_cell_angle_beta 90.000000
_cell_angle_gamma 90.000000
_cell_volume 2889.783484
_symmetry_space_group_name_H-M "P B C N"
_symmetry_group_IT_number 60
_symmetry_cell_setting 'orthorhombic'
loop_
_space_group_symop_operation_xyz
x,y,z
1/2-x,1/2-y,1/2+z
1/2+x,1/2-y,-z
-x,y,1/2-z
-x,-y,-z
1/2+x,1/2+y,1/2-z
1/2-x,1/2+y,z
x,-y,1/2+z
loop_
_atom_site_type_symbol
_atom_site_label
_atom_site_fract_x
_atom_site_fract_y
_atom_site_fract_z
Si Si1 0.922368 0.024270 0.374382
Si Si2 0.831808 0.704522 0.874364
Si Si3 0.891414 0.557782 0.174985
Si Si4 0.601188 0.733553 0.858235
Si Si5 0.726123 0.467049 0.151957
Si Si6 0.392168 0.098314 0.687455
Si Si7 0.394778 0.304984 0.776753
Si Si8 0.671075 0.834909 0.744671
O O1 0.828376 0.045588 0.482255
O O2 0.000000 0.051908 0.250000
O O3 0.865417 0.981361 0.272664
O O4 0.000000 0.000000 0.500000
O O5 0.714647 0.712379 0.806707
O O6 0.884227 0.657402 0.793804
O O7 0.887974 0.755970 0.835648
O O8 0.837074 0.689387 0.063618
O O9 0.804017 0.515004 0.161317
O O10 0.868319 0.609278 0.270603
O O11 0.000000 0.539038 0.250000
O O12 0.892611 0.579775 0.995407
O O13 0.500000 0.720871 0.750000
O O14 0.615070 0.793617 0.853654
O O15 0.599247 0.713653 0.039650
O O16 0.794962 0.423196 0.219355
O O17 0.500000 0.079296 0.750000
O O18 0.500000 0.333425 0.750000
O O19 0.293799 0.335685 0.735155
#
# Coordination Sequence:
#
# PCOD9454504 Si02
#       8
#     8   8   8   8   8   8   8   8
#     4   9  20  40  66  89 113 153 200 244 299 350
#     4   9  20  38  57  81 116 154 195 244 291 358
#     4  11  24  39  59  87 123 159 199 248 303 356
#     4  10  19  34  58  84 113 151 193 241 299 352
#     4  11  21  40  65  89 123 156 201 252 291 362
#     4  11  24  39  59  88 122 159 200 246 305 356
#     4  10  19  34  58  84 114 149 193 242 296 355
#     4   9  20  38  57  80 117 154 194 243 293 355
#
# _framework density 22.146985999999998
#
# number of rings (size 3 to 8) (size 9 to 14) (size 15 to 20)
#    0.000    2.000    1.250    1.875    1.750    5.000 
#    0.000    3.750    2.750    0.000    0.000    0.000 
#    0.000    0.000    0.000    0.000    0.000    0.000 
#
# Total GULP energy -356850.374335 kJ/mol
# GULP energy per Si atom -5575.787099 kJ/mol
# Density = 2.209658 g / cm^3
# Si number density = 22.146986 Si / 1000 Ang^3
#
#
#
# Elastic Constant Matrix: (Units=GPa)
#
#
# Indices 1 2 3 4 5 6 
#
# 1 137.4467 24.4643 26.2780 0.0000 0.0000 0.0000
# 2 24.4643 73.4914 6.4873 0.0000 0.0000 0.0000
# 3 26.2780 6.4873 42.7549 0.0000 0.0000 0.0000
# 4 0.0000 0.0000 0.0000 17.9613 0.0000 0.0000
# 5 0.0000 0.0000 0.0000 0.0000 48.4648 0.0000
# 6 0.0000 0.0000 0.0000 0.0000 0.0000 -23.1713
#
#
#
# Elastic Compliance Matrix: (Units=1/GPa)
#
#
# Indices 1 2 3 4 5 6 
#
# 1 0.008657 -0.002445 -0.004950 0.000000 0.000000 0.000000
# 2 -0.002445 0.014482 -0.000695 0.000000 0.000000 0.000000
# 3 -0.004950 -0.000695 0.026537 0.000000 0.000000 0.000000
# 4 0.000000 0.000000 0.000000 0.055675 0.000000 0.000000
# 5 0.000000 0.000000 0.000000 0.000000 0.020634 0.000000
# 6 0.000000 0.000000 0.000000 0.000000 0.000000 -0.043157
#
#
# Mechanical properties :
#
#
# Convention : Reuss Voigt Hill
#
# Bulk Modulus (GPa) = 29.85327 40.90581 35.37954
# Shear Modulus (GPa) = 45.38326 21.74852 33.56589
#
# Velocity S-wave (km/s) = 4.53170 3.13710 3.89729
# Velocity P-wave (km/s) = 6.39458 5.62424 6.02174
#
# Compressibility (1/GPa) = 0.03349716
#
# Stress axis : x y z
#
# Youngs Moduli (GPa) = 115.51265 69.05015 37.68347
#
# Poissons Ratio (x) = 0.16882 0.18653
# Poissons Ratio (y) = 0.28242 0.02618
# Poissons Ratio (z) = 0.57177 0.04797
#
# Static dielectric constant tensor:
#      x y z
#    x 1.877790 0.000000 0.000000 
#    y 0.000000 1.770370 0.000000 
#    z 0.000000 0.000000 1.898220 
# 
# From -- ./inp_files/5354.got.cif
#   From: 2010.05.17/outbox.cif.g08.bks.cpg/sg60_3_cif.got.tgz:5354.got - 2010.06.03 14:59:27.
