data_PCOD9454606
_publ_section_title
;
Structure prediction by ZEFSAII (Michael W. Deem and Ramdas Pophale) SiO2 
 PCOD9454606
Probable space group: P B C N
;
_chemical_formula_sum "Si O2"
_cell_formula_units_Z 64
_cell_length_a 26.875083
_cell_length_b 5.721529
_cell_length_c 21.536549
_cell_angle_alpha 90.000000
_cell_angle_beta 90.000000
_cell_angle_gamma 90.000000
_cell_volume 3311.601200
_symmetry_space_group_name_H-M "P B C N"
_symmetry_group_IT_number 60
_symmetry_cell_setting 'orthorhombic'
loop_
_space_group_symop_operation_xyz
x,y,z
1/2-x,1/2-y,1/2+z
1/2+x,1/2-y,-z
-x,y,1/2-z
-x,-y,-z
1/2+x,1/2+y,1/2-z
1/2-x,1/2+y,z
x,-y,1/2+z
loop_
_atom_site_type_symbol
_atom_site_label
_atom_site_fract_x
_atom_site_fract_y
_atom_site_fract_z
Si Si1 0.260076 0.958144 0.324386
Si Si2 0.275571 0.541954 0.683765
Si Si3 0.458071 0.926058 0.579568
Si Si4 0.625584 0.029624 0.204176
Si Si5 0.053757 0.838938 0.364936
Si Si6 0.524990 0.690958 0.043594
Si Si7 0.551686 0.647004 0.249579
Si Si8 0.886469 0.168255 0.829485
O O1 0.250518 0.708062 0.356180
O O2 0.228055 0.957977 0.259750
O O3 0.317782 0.966335 0.306681
O O4 0.251821 0.288597 0.665893
O O5 0.331878 0.562272 0.658823
O O6 0.506432 0.793135 0.607106
O O7 0.451057 0.867413 0.506331
O O8 0.411454 0.836211 0.619213
O O9 0.479493 0.188066 0.580314
O O10 0.593736 0.801136 0.218016
O O11 0.600347 0.172195 0.147855
O O12 0.621253 0.182910 0.266617
O O13 0.039483 0.938413 0.297833
O O14 0.061840 0.059770 0.410038
O O15 0.500000 0.500000 0.000000
O O16 0.500000 0.788643 0.250000
O O17 0.575000 0.537415 0.311303
#
# Coordination Sequence:
#
# PCOD9454606 Si02
#       8
#     8   8   8   8   8   8   8   8
#     4  10  19  36  53  74 111 151 197 243 281 353
#     4  10  19  36  54  77 113 150 193 243 290 354
#     4  10  20  37  56  81 108 148 198 245 296 352
#     4  11  23  30  53  79 115 157 190 232 297 362
#     4  10  21  36  49  79 112 154 187 234 283 350
#     4   9  20  38  57  74 109 147 197 245 282 342
#     4  11  22  33  49  78 123 155 186 228 284 364
#     4  11  22  33  54  83 112 153 194 233 302 358
#
# _framework density 19.325998999999999
#
# number of rings (size 3 to 8) (size 9 to 14) (size 15 to 20)
#    0.000    1.750    3.750    2.250    5.250    0.000 
#    0.000    0.000    0.000    0.000    0.000    1.750 
#    0.000    0.000    0.000    0.000    0.000    0.000 
#
# Total GULP energy -356644.283639 kJ/mol
# GULP energy per Si atom -5572.566932 kJ/mol
# Density = 1.928201 g / cm^3
# Si number density = 19.325999 Si / 1000 Ang^3
#
#
#
# Elastic Constant Matrix: (Units=GPa)
#
#
# Indices 1 2 3 4 5 6 
#
# 1 92.0304 30.5667 27.5127 0.0000 0.0000 0.0000
# 2 30.5667 114.9589 26.3677 0.0000 0.0000 0.0000
# 3 27.5127 26.3677 53.9665 0.0000 0.0000 0.0000
# 4 0.0000 0.0000 0.0000 26.3255 0.0000 0.0000
# 5 0.0000 0.0000 0.0000 0.0000 9.2113 0.0000
# 6 0.0000 0.0000 0.0000 0.0000 0.0000 30.9681
#
#
#
# Elastic Compliance Matrix: (Units=1/GPa)
#
#
# Indices 1 2 3 4 5 6 
#
# 1 0.013310 -0.002233 -0.005695 0.000000 0.000000 0.000000
# 2 -0.002233 0.010171 -0.003831 0.000000 0.000000 0.000000
# 3 -0.005695 -0.003831 0.023305 0.000000 0.000000 0.000000
# 4 0.000000 0.000000 0.000000 0.037986 0.000000 0.000000
# 5 0.000000 0.000000 0.000000 0.000000 0.108562 0.000000
# 6 0.000000 0.000000 0.000000 0.000000 0.000000 0.032291
#
#
# Mechanical properties :
#
#
# Convention : Reuss Voigt Hill
#
# Bulk Modulus (GPa) = 42.97590 47.76113 45.36852
# Shear Modulus (GPa) = 19.46285 25.06823 22.26554
#
# Velocity S-wave (km/s) = 3.17690 3.60547 3.39795
# Velocity P-wave (km/s) = 5.97851 6.48842 6.23867
#
# Compressibility (1/GPa) = 0.02326885
#
# Stress axis : x y z
#
# Youngs Moduli (GPa) = 75.13139 98.31654 42.90903
#
# Poissons Ratio (x) = 0.21953 0.24435
# Poissons Ratio (y) = 0.16776 0.16440
# Poissons Ratio (z) = 0.42784 0.37668
#
# Static dielectric constant tensor:
#      x y z
#    x 1.696210 0.000000 0.000000 
#    y 0.000000 1.800080 0.000000 
#    z 0.000000 0.000000 1.681970 
# 
# From -- ./inp_files/24659.got.cif
#   From: 2010.05.17/outbox.cif.g08.bks.cpg/sg60_13_cif.got.tgz:24659.got - 2010.06.03 14:59:27.
