data_PCOD9454968
_publ_section_title
;
Structure prediction by ZEFSAII (Michael W. Deem and Ramdas Pophale) SiO2 
 PCOD9454968
Probable space group: P B C N
;
_chemical_formula_sum "Si O2"
_cell_formula_units_Z 28
_cell_length_a 20.464520
_cell_length_b 6.858904
_cell_length_c 7.034004
_cell_angle_alpha 90.000000
_cell_angle_beta 90.000000
_cell_angle_gamma 90.000000
_cell_volume 987.322190
_symmetry_space_group_name_H-M "P B C N"
_symmetry_group_IT_number 60
_symmetry_cell_setting 'orthorhombic'
loop_
_space_group_symop_operation_xyz
x,y,z
1/2-x,1/2-y,1/2+z
1/2+x,1/2-y,-z
-x,y,1/2-z
-x,-y,-z
1/2+x,1/2+y,1/2-z
1/2-x,1/2+y,z
x,-y,1/2+z
loop_
_atom_site_type_symbol
_atom_site_label
_atom_site_fract_x
_atom_site_fract_y
_atom_site_fract_z
Si Si1 0.420080 0.771405 0.403735
Si Si2 0.337202 0.715471 0.102310
Si Si3 0.500000 0.138762 0.250000
Si Si4 0.188712 0.338141 0.684833
O O1 0.403961 0.654647 0.209256
O O2 0.447296 0.986410 0.339842
O O3 0.349883 0.743176 0.510179
O O4 0.470171 0.737884 0.577374
O O5 0.266431 0.638676 0.164905
O O6 0.334006 0.940234 0.170098
O O7 0.332833 0.729371 0.875542
#
# Coordination Sequence:
#
# PCOD9454968 Si02
#       4
#     8   8   4   8
#     4  11  20  34  52  82 117 144 199 223 301 317
#     4  12  21  36  56  85 121 149 188 239 291 345
#     4  10  20  34  54  80 120 158 180 252 260 352
#     4  12  21  36  56  85 121 149 188 239 291 345
#
# _framework density 28.359535999999999
#
# number of rings (size 3 to 8) (size 9 to 14) (size 15 to 20)
#    0.000    0.571    8.571    0.000    4.000    0.000 
#    0.000    0.000    0.000    0.000    0.000    6.000 
#    0.000    0.000    0.000    0.000    0.000    0.000 
#
# Total GULP energy -156370.429554 kJ/mol
# GULP energy per Si atom -5584.658198 kJ/mol
# Density = 2.829499 g / cm^3
# Si number density = 28.359536 Si / 1000 Ang^3
#
#
#
# Elastic Constant Matrix: (Units=GPa)
#
#
# Indices 1 2 3 4 5 6 
#
# 1 136.9660 17.9101 68.6646 0.0000 0.0000 0.0000
# 2 17.9101 64.2404 16.8599 0.0000 0.0000 0.0000
# 3 68.6646 16.8599 212.2608 0.0000 0.0000 0.0000
# 4 0.0000 0.0000 0.0000 9.3750 0.0000 0.0000
# 5 0.0000 0.0000 0.0000 0.0000 81.6955 0.0000
# 6 0.0000 0.0000 0.0000 0.0000 0.0000 25.1436
#
#
#
# Elastic Compliance Matrix: (Units=1/GPa)
#
#
# Indices 1 2 3 4 5 6 
#
# 1 0.008906 -0.001764 -0.002741 0.000000 0.000000 0.000000
# 2 -0.001764 0.016247 -0.000720 0.000000 0.000000 0.000000
# 3 -0.002741 -0.000720 0.005655 0.000000 0.000000 0.000000
# 4 0.000000 0.000000 0.000000 0.106667 0.000000 0.000000
# 5 0.000000 0.000000 0.000000 0.000000 0.012241 0.000000
# 6 0.000000 0.000000 0.000000 0.000000 0.000000 0.039772
#
#
# Mechanical properties :
#
#
# Convention : Reuss Voigt Hill
#
# Bulk Modulus (GPa) = 49.11813 68.92624 59.02219
# Shear Modulus (GPa) = 24.18706 43.91165 34.04935
#
# Velocity S-wave (km/s) = 2.92357 3.93923 3.46877
# Velocity P-wave (km/s) = 5.36225 6.71172 6.07458
#
# Compressibility (1/GPa) = 0.02035908
#
# Stress axis : x y z
#
# Youngs Moduli (GPa) = 112.28695 61.54915 176.83399
#
# Poissons Ratio (x) = 0.10855 0.48468
# Poissons Ratio (y) = 0.19803 0.12732
# Poissons Ratio (z) = 0.30776 0.04432
#
# Static dielectric constant tensor:
#      x y z
#    x 2.280440 0.000000 0.000000 
#    y 0.000000 2.526550 0.000000 
#    z 0.000000 0.000000 2.275160 
# 
# From -- ./inp_files/7221.got.cif
#   From: 2010.05.17/outbox.cif.g08.bks.cpg/sg60_4_cif.got.tgz:7221.got - 2010.06.03 14:59:27.
