data_PCOD9454080
_publ_section_title
;
Structure prediction by ZEFSAII (Michael W. Deem and Ramdas Pophale) SiO2 
 PCOD9454080
Probable space group: P B C N
;
_chemical_formula_sum "Si O2"
_cell_formula_units_Z 48
_cell_length_a 12.751097
_cell_length_b 13.311370
_cell_length_c 15.677325
_cell_angle_alpha 90.000000
_cell_angle_beta 90.000000
_cell_angle_gamma 90.000000
_cell_volume 2660.984019
_symmetry_space_group_name_H-M "P B C N"
_symmetry_group_IT_number 60
_symmetry_cell_setting 'orthorhombic'
loop_
_space_group_symop_operation_xyz
x,y,z
1/2-x,1/2-y,1/2+z
1/2+x,1/2-y,-z
-x,y,1/2-z
-x,-y,-z
1/2+x,1/2+y,1/2-z
1/2-x,1/2+y,z
x,-y,1/2+z
loop_
_atom_site_type_symbol
_atom_site_label
_atom_site_fract_x
_atom_site_fract_y
_atom_site_fract_z
Si Si1 0.140979 0.693345 0.873645
Si Si2 0.585600 0.761673 0.430722
Si Si3 0.212757 0.856258 0.005422
Si Si4 0.197360 0.982427 0.351315
Si Si5 0.622911 0.359745 0.768130
Si Si6 0.002315 0.098291 0.938944
O O1 0.185762 0.752681 0.955798
O O2 0.207160 0.594337 0.856774
O O3 0.152242 0.767491 0.793454
O O4 0.016492 0.685544 0.890057
O O5 0.674007 0.840837 0.454767
O O6 0.630332 0.679938 0.363627
O O7 0.547363 0.694049 0.509901
O O8 0.208514 0.940412 0.931202
O O9 0.120748 0.878827 0.073646
O O10 0.085194 0.927201 0.365587
O O11 0.189414 0.046365 0.264761
O O12 0.500000 0.382376 0.750000
O O13 0.000000 0.000000 0.000000
#
# Coordination Sequence:
#
# PCOD9454080 Si02
#       6
#     8   8   8   8   8   8
#     4   9  18  33  51  77 105 141 169 219 270 311
#     4  10  18  34  55  76 111 135 178 220 264 316
#     4   9  18  31  53  80 103 135 175 222 258 307
#     4  10  18  34  55  78 106 138 177 212 270 314
#     4   9  19  35  52  74 104 143 178 215 262 313
#     4   9  17  31  54  78 100 129 181 223 245 306
#
# _framework density 18.038440000000001
#
# number of rings (size 3 to 8) (size 9 to 14) (size 15 to 20)
#    0.000    2.667    1.667    3.000    0.000    0.667 
#    9.000    0.000    0.000    0.000    0.000    0.000 
#    0.000    0.000    0.000    0.000    0.000    0.000 
#
# Total GULP energy -267441.678073 kJ/mol
# GULP energy per Si atom -5571.701627 kJ/mol
# Density = 1.799738 g / cm^3
# Si number density = 18.038440 Si / 1000 Ang^3
#
#
#
# Elastic Constant Matrix: (Units=GPa)
#
#
# Indices 1 2 3 4 5 6 
#
# 1 94.2137 56.5965 9.2906 0.0000 0.0000 0.0000
# 2 56.5965 79.5957 12.2083 0.0000 0.0000 0.0000
# 3 9.2906 12.2083 23.8475 0.0000 0.0000 0.0000
# 4 0.0000 0.0000 0.0000 8.7092 0.0000 0.0000
# 5 0.0000 0.0000 0.0000 0.0000 21.8800 0.0000
# 6 0.0000 0.0000 0.0000 0.0000 0.0000 38.9025
#
#
#
# Elastic Compliance Matrix: (Units=1/GPa)
#
#
# Indices 1 2 3 4 5 6 
#
# 1 0.018534 -0.013100 -0.000514 0.000000 0.000000 0.000000
# 2 -0.013100 0.022893 -0.006616 0.000000 0.000000 0.000000
# 3 -0.000514 -0.006616 0.045521 0.000000 0.000000 0.000000
# 4 0.000000 0.000000 0.000000 0.114822 0.000000 0.000000
# 5 0.000000 0.000000 0.000000 0.000000 0.045704 0.000000
# 6 0.000000 0.000000 0.000000 0.000000 0.000000 0.025705
#
#
# Mechanical properties :
#
#
# Convention : Reuss Voigt Hill
#
# Bulk Modulus (GPa) = 21.51142 39.31643 30.41392
# Shear Modulus (GPa) = 15.19132 21.86910 18.53021
#
# Velocity S-wave (km/s) = 2.90515 3.48567 3.20857
# Velocity P-wave (km/s) = 4.81710 6.16791 5.53388
#
# Compressibility (1/GPa) = 0.04648695
#
# Stress axis : x y z
#
# Youngs Moduli (GPa) = 53.95387 43.68150 21.96808
#
# Poissons Ratio (x) = 0.57223 0.01130
# Poissons Ratio (y) = 0.70679 0.14534
# Poissons Ratio (z) = 0.02775 0.28900
#
# Static dielectric constant tensor:
#      x y z
#    x 1.631130 0.000000 0.000000 
#    y 0.000000 1.611640 0.000000 
#    z 0.000000 0.000000 1.642970 
# 
# From -- ./inp_files/16071.got.cif
#   From: 2010.05.17/outbox.cif.g08.bks.cpg/sg60_9_cif.got.tgz:16071.got - 2010.06.03 14:59:27.
