data_PCOD9454476
_publ_section_title
;
Structure prediction by ZEFSAII (Michael W. Deem and Ramdas Pophale) SiO2 
 PCOD9454476
Probable space group: P B C N
;
_chemical_formula_sum "Si O2"
_cell_formula_units_Z 40
_cell_length_a 8.193945
_cell_length_b 17.038959
_cell_length_c 13.249928
_cell_angle_alpha 90.000000
_cell_angle_beta 90.000000
_cell_angle_gamma 90.000000
_cell_volume 1849.905829
_symmetry_space_group_name_H-M "P B C N"
_symmetry_group_IT_number 60
_symmetry_cell_setting 'orthorhombic'
loop_
_space_group_symop_operation_xyz
x,y,z
1/2-x,1/2-y,1/2+z
1/2+x,1/2-y,-z
-x,y,1/2-z
-x,-y,-z
1/2+x,1/2+y,1/2-z
1/2-x,1/2+y,z
x,-y,1/2+z
loop_
_atom_site_type_symbol
_atom_site_label
_atom_site_fract_x
_atom_site_fract_y
_atom_site_fract_z
Si Si1 0.806024 0.455093 0.101910
Si Si2 0.500000 0.837221 0.250000
Si Si3 0.305746 0.215203 0.563918
Si Si4 0.069050 0.167117 0.912796
Si Si5 0.505758 0.898965 0.916060
Si Si6 0.000000 0.282536 0.750000
O O1 0.621486 0.422539 0.105030
O O2 0.872915 0.540620 0.130115
O O3 0.895358 0.394458 0.177420
O O4 0.866416 0.445135 0.985688
O O5 0.608685 0.787106 0.327431
O O6 0.327109 0.297078 0.505143
O O7 0.407301 0.155925 0.493250
O O8 0.121696 0.183087 0.568915
O O9 0.107184 0.223315 0.817034
O O10 0.578214 0.841866 0.830901
#
# Coordination Sequence:
#
# PCOD9454476 Si02
#       6
#     8   4   8   8   8   4
#     4  10  20  35  56  82 113 150 194 241 297 359
#     4  10  19  34  56  80 109 146 190 242 297 356
#     4  10  21  36  56  81 113 150 194 245 298 356
#     4  11  21  35  57  85 114 151 198 246 296 356
#     4   9  20  37  56  80 113 154 192 238 299 357
#     4  10  19  34  58  82 111 150 194 240 297 356
#
# _framework density 21.622720999999999
#
# number of rings (size 3 to 8) (size 9 to 14) (size 15 to 20)
#    0.000    2.000    0.000    5.400    0.000    2.400 
#    0.000    0.000    0.000    7.200    0.000    0.000 
#    0.000    0.000    0.000    0.000    0.000    0.000 
#
# Total GULP energy -222970.039749 kJ/mol
# GULP energy per Si atom -5574.250994 kJ/mol
# Density = 2.157351 g / cm^3
# Si number density = 21.622721 Si / 1000 Ang^3
#
#
#
# Elastic Constant Matrix: (Units=GPa)
#
#
# Indices 1 2 3 4 5 6 
#
# 1 76.3580 -2.8407 27.0648 0.0000 0.0000 0.0000
# 2 -2.8407 65.5115 17.2430 0.0000 0.0000 0.0000
# 3 27.0648 17.2430 122.3630 0.0000 0.0000 0.0000
# 4 0.0000 0.0000 0.0000 5.4270 0.0000 0.0000
# 5 0.0000 0.0000 0.0000 0.0000 28.4930 0.0000
# 6 0.0000 0.0000 0.0000 0.0000 0.0000 34.7509
#
#
#
# Elastic Compliance Matrix: (Units=1/GPa)
#
#
# Indices 1 2 3 4 5 6 
#
# 1 0.014353 0.001514 -0.003388 0.000000 0.000000 0.000000
# 2 0.001514 0.016012 -0.002591 0.000000 0.000000 0.000000
# 3 -0.003388 -0.002591 0.009287 0.000000 0.000000 0.000000
# 4 0.000000 0.000000 0.000000 0.184264 0.000000 0.000000
# 5 0.000000 0.000000 0.000000 0.000000 0.035096 0.000000
# 6 0.000000 0.000000 0.000000 0.000000 0.000000 0.028776
#
#
# Mechanical properties :
#
#
# Convention : Reuss Voigt Hill
#
# Bulk Modulus (GPa) = 32.54986 38.57408 35.56197
# Shear Modulus (GPa) = 16.28876 28.58520 22.43698
#
# Velocity S-wave (km/s) = 2.74764 3.63987 3.22476
# Velocity P-wave (km/s) = 5.01520 5.96182 5.50888
#
# Compressibility (1/GPa) = 0.03072210
#
# Stress axis : x y z
#
# Youngs Moduli (GPa) = 69.66969 62.45235 107.67778
#
# Poissons Ratio (x) = -0.09456 0.36483
# Poissons Ratio (y) = -0.10549 0.27903
# Poissons Ratio (z) = 0.23605 0.16183
#
# Static dielectric constant tensor:
#      x y z
#    x 1.839430 0.000000 0.000000 
#    y 0.000000 1.807470 0.000000 
#    z 0.000000 0.000000 1.827690 
# 
# From -- ./inp_files/14852.got.cif
#   From: 2010.05.17/outbox.cif.g08.bks.cpg/sg60_8_cif.got.tgz:14852.got - 2010.06.03 14:59:27.
