data_PCOD9454635
_publ_section_title
;
Structure prediction by ZEFSAII (Michael W. Deem and Ramdas Pophale) SiO2 
 PCOD9454635
Probable space group: P B C N
;
_chemical_formula_sum "Si O2"
_cell_formula_units_Z 48
_cell_length_a 7.451079
_cell_length_b 14.691375
_cell_length_c 18.993051
_cell_angle_alpha 90.000000
_cell_angle_beta 90.000000
_cell_angle_gamma 90.000000
_cell_volume 2079.104636
_symmetry_space_group_name_H-M "P B C N"
_symmetry_group_IT_number 60
_symmetry_cell_setting 'orthorhombic'
loop_
_space_group_symop_operation_xyz
x,y,z
1/2-x,1/2-y,1/2+z
1/2+x,1/2-y,-z
-x,y,1/2-z
-x,-y,-z
1/2+x,1/2+y,1/2-z
1/2-x,1/2+y,z
x,-y,1/2+z
loop_
_atom_site_type_symbol
_atom_site_label
_atom_site_fract_x
_atom_site_fract_y
_atom_site_fract_z
Si Si1 0.791308 0.172610 0.221419
Si Si2 0.371838 0.821305 0.376793
Si Si3 0.417257 0.569055 0.567197
Si Si4 0.276525 0.255363 0.137716
Si Si5 0.346306 0.473611 0.306960
Si Si6 0.740184 0.400274 0.975636
O O1 0.778008 0.227146 0.148217
O O2 0.687210 0.222677 0.283681
O O3 0.749498 0.066972 0.213464
O O4 0.000000 0.173509 0.250000
O O5 0.579024 0.799448 0.367254
O O6 0.334941 0.861179 0.454379
O O7 0.295741 0.894989 0.321827
O O8 0.393728 0.662843 0.608592
O O9 0.543437 0.512199 0.620559
O O10 0.245709 0.506716 0.547452
O O11 0.530549 0.597849 0.498931
O O12 0.280837 0.167479 0.087461
O O13 0.500000 0.451545 0.250000
#
# Coordination Sequence:
#
# PCOD9454635 Si02
#       6
#     8   8   8   8   8   8
#     4   9  19  35  58  80 107 148 186 226 281 340
#     4  10  21  35  57  86 113 145 190 240 284 328
#     4  10  21  36  57  82 112 152 195 229 280 352
#     4  11  21  37  59  86 116 147 190 244 290 329
#     4  10  19  36  59  79 108 150 191 227 278 348
#     4  10  21  37  57  82 114 157 193 229 284 352
#
# _framework density 23.086860999999999
#
# number of rings (size 3 to 8) (size 9 to 14) (size 15 to 20)
#    0.000    2.000    0.000    5.000    0.000    3.333 
#    0.000    3.333    0.000   15.000    0.000    0.000 
#    0.000    0.000    0.000    0.000    0.000    0.000 
#
# Total GULP energy -268045.389569 kJ/mol
# GULP energy per Si atom -5584.278949 kJ/mol
# Density = 2.303431 g / cm^3
# Si number density = 23.086861 Si / 1000 Ang^3
#
#
#
# Elastic Constant Matrix: (Units=GPa)
#
#
# Indices 1 2 3 4 5 6 
#
# 1 24.4416 12.6165 14.1219 0.0000 0.0000 0.0000
# 2 12.6165 95.2177 6.8623 0.0000 0.0000 0.0000
# 3 14.1219 6.8623 72.9810 0.0000 0.0000 0.0000
# 4 0.0000 0.0000 0.0000 23.5752 0.0000 0.0000
# 5 0.0000 0.0000 0.0000 0.0000 24.5406 0.0000
# 6 0.0000 0.0000 0.0000 0.0000 0.0000 5.1452
#
#
#
# Elastic Compliance Matrix: (Units=1/GPa)
#
#
# Indices 1 2 3 4 5 6 
#
# 1 0.049112 -0.005862 -0.008952 0.000000 0.000000 0.000000
# 2 -0.005862 0.011274 0.000074 0.000000 0.000000 0.000000
# 3 -0.008952 0.000074 0.015427 0.000000 0.000000 0.000000
# 4 0.000000 0.000000 0.000000 0.042417 0.000000 0.000000
# 5 0.000000 0.000000 0.000000 0.000000 0.040749 0.000000
# 6 0.000000 0.000000 0.000000 0.000000 0.000000 0.194356
#
#
# Mechanical properties :
#
#
# Convention : Reuss Voigt Hill
#
# Bulk Modulus (GPa) = 21.58277 28.87132 25.22704
# Shear Modulus (GPa) = 12.55461 21.25483 16.90472
#
# Velocity S-wave (km/s) = 2.33448 3.03751 2.70890
# Velocity P-wave (km/s) = 4.07863 4.98343 4.55356
#
# Compressibility (1/GPa) = 0.04633325
#
# Stress axis : x y z
#
# Youngs Moduli (GPa) = 20.36153 88.70242 64.81952
#
# Poissons Ratio (x) = 0.52000 0.58027
# Poissons Ratio (y) = 0.11936 -0.00482
# Poissons Ratio (z) = 0.18228 -0.00659
#
# Static dielectric constant tensor:
#      x y z
#    x 1.922550 0.000000 0.000000 
#    y 0.000000 1.911010 0.000000 
#    z 0.000000 0.000000 1.851360 
# 
# From -- ./inp_files/22067.got.cif
#   From: 2010.05.17/outbox.cif.g08.bks.cpg/sg60_12_cif.got.tgz:22067.got - 2010.06.03 14:59:27.
