data_PCOD9454561
_publ_section_title
;
Structure prediction by ZEFSAII (Michael W. Deem and Ramdas Pophale) SiO2 
 PCOD9454561
Probable space group: P B C N
;
_chemical_formula_sum "Si O2"
_cell_formula_units_Z 48
_cell_length_a 12.526528
_cell_length_b 23.374630
_cell_length_c 10.070591
_cell_angle_alpha 90.000000
_cell_angle_beta 90.000000
_cell_angle_gamma 90.000000
_cell_volume 2948.698825
_symmetry_space_group_name_H-M "P B C N"
_symmetry_group_IT_number 60
_symmetry_cell_setting 'orthorhombic'
loop_
_space_group_symop_operation_xyz
x,y,z
1/2-x,1/2-y,1/2+z
1/2+x,1/2-y,-z
-x,y,1/2-z
-x,-y,-z
1/2+x,1/2+y,1/2-z
1/2-x,1/2+y,z
x,-y,1/2+z
loop_
_atom_site_type_symbol
_atom_site_label
_atom_site_fract_x
_atom_site_fract_y
_atom_site_fract_z
Si Si1 0.072678 0.261962 0.121328
Si Si2 0.077477 0.281176 0.629801
Si Si3 0.419703 0.431789 0.133627
Si Si4 0.067593 0.064241 0.124704
Si Si5 0.719034 0.658023 0.473374
Si Si6 0.779081 0.170568 0.793399
O O1 0.136564 0.205712 0.078340
O O2 0.163558 0.309081 0.154176
O O3 0.000000 0.252748 0.250000
O O4 0.995183 0.275574 0.999871
O O5 0.169115 0.326327 0.593976
O O6 0.137755 0.221580 0.668390
O O7 0.000000 0.297157 0.750000
O O8 0.500000 0.412191 0.250000
O O9 0.397828 0.499009 0.156366
O O10 0.321871 0.387990 0.140916
O O11 0.484686 0.431280 0.996970
O O12 0.170292 0.099187 0.078844
O O13 0.000000 0.086541 0.250000
O O14 0.724867 0.662512 0.633554
#
# Coordination Sequence:
#
# PCOD9454561 Si02
#       6
#     8   8   8   8   8   8
#     4  11  22  35  53  84 111 140 183 222 264 322
#     4  11  22  36  55  82 113 143 179 223 268 317
#     4  10  19  35  58  79 111 141 178 223 277 326
#     4  10  21  34  54  87 109 137 178 231 273 316
#     4  11  21  35  58  80 109 147 181 218 271 327
#     4  11  21  35  59  79 108 151 178 216 274 328
#
# _framework density 16.278365999999998
#
# number of rings (size 3 to 8) (size 9 to 14) (size 15 to 20)
#    0.000    1.333    5.000    2.000    0.000    1.333 
#    0.000    0.000    0.000    2.000    0.000    0.000 
#    0.000    0.000    0.000    0.000    0.000    0.000 
#
# Total GULP energy -267787.862179 kJ/mol
# GULP energy per Si atom -5578.913795 kJ/mol
# Density = 1.624132 g / cm^3
# Si number density = 16.278366 Si / 1000 Ang^3
#
#
#
# Elastic Constant Matrix: (Units=GPa)
#
#
# Indices 1 2 3 4 5 6 
#
# 1 99.5484 31.3707 36.6423 0.0000 0.0000 0.0000
# 2 31.3707 56.8770 11.5452 0.0000 0.0000 0.0000
# 3 36.6423 11.5452 107.2167 0.0000 0.0000 0.0000
# 4 0.0000 0.0000 0.0000 14.3625 0.0000 0.0000
# 5 0.0000 0.0000 0.0000 0.0000 31.4421 0.0000
# 6 0.0000 0.0000 0.0000 0.0000 0.0000 205.1051
#
#
#
# Elastic Compliance Matrix: (Units=1/GPa)
#
#
# Indices 1 2 3 4 5 6 
#
# 1 0.013604 -0.006706 -0.003927 0.000000 0.000000 0.000000
# 2 -0.006706 0.021281 0.000000 0.000000 0.000000 0.000000
# 3 -0.003927 0.000000 0.010669 0.000000 0.000000 0.000000
# 4 0.000000 0.000000 0.000000 0.069626 0.000000 0.000000
# 5 0.000000 0.000000 0.000000 0.000000 0.031804 0.000000
# 6 0.000000 0.000000 0.000000 0.000000 0.000000 0.004876
#
#
# Mechanical properties :
#
#
# Convention : Reuss Voigt Hill
#
# Bulk Modulus (GPa) = 41.17320 46.97317 44.07319
# Shear Modulus (GPa) = 27.59047 62.45420 45.02234
#
# Velocity S-wave (km/s) = 4.12140 6.20078 5.26477
# Velocity P-wave (km/s) = 6.92792 8.95461 8.00566
#
# Compressibility (1/GPa) = 0.02428764
#
# Stress axis : x y z
#
# Youngs Moduli (GPa) = 73.50625 46.99117 93.72922
#
# Poissons Ratio (x) = 0.31514 0.36810
# Poissons Ratio (y) = 0.49296 -0.00004
# Poissons Ratio (z) = 0.28868 -0.00002
#
# Static dielectric constant tensor:
#      x y z
#    x 1.497400 0.000000 0.000000 
#    y 0.000000 1.557100 0.000000 
#    z 0.000000 0.000000 1.577850 
# 
# From -- ./inp_files/5041.got.cif
#   From: 2010.05.17/outbox.cif.g08.bks.cpg/sg60_3_cif.got.tgz:5041.got - 2010.06.03 14:59:27.
