data_PCOD9454951
_publ_section_title
;
Structure prediction by ZEFSAII (Michael W. Deem and Ramdas Pophale) SiO2 
 PCOD9454951
Probable space group: P B C N
;
_chemical_formula_sum "Si O2"
_cell_formula_units_Z 44
_cell_length_a 16.152392
_cell_length_b 24.556006
_cell_length_c 5.405082
_cell_angle_alpha 90.000000
_cell_angle_beta 90.000000
_cell_angle_gamma 90.000000
_cell_volume 2143.862184
_symmetry_space_group_name_H-M "P B C N"
_symmetry_group_IT_number 60
_symmetry_cell_setting 'orthorhombic'
loop_
_space_group_symop_operation_xyz
x,y,z
1/2-x,1/2-y,1/2+z
1/2+x,1/2-y,-z
-x,y,1/2-z
-x,-y,-z
1/2+x,1/2+y,1/2-z
1/2-x,1/2+y,z
x,-y,1/2+z
loop_
_atom_site_type_symbol
_atom_site_label
_atom_site_fract_x
_atom_site_fract_y
_atom_site_fract_z
Si Si1 0.817573 0.190975 0.247898
Si Si2 0.330031 0.017481 0.257605
Si Si3 0.279744 0.180152 0.753891
Si Si4 0.500000 0.053748 0.750000
Si Si5 0.000000 0.791849 0.750000
Si Si6 0.902210 0.375116 0.573923
Si Si7 0.000000 0.721204 0.250000
O O1 0.811037 0.257216 0.251617
O O2 0.765811 0.171384 0.486325
O O3 0.913853 0.176420 0.270940
O O4 0.780703 0.173872 0.983687
O O5 0.349781 0.080803 0.278934
O O6 0.286308 0.998992 0.507423
O O7 0.417765 0.983232 0.266603
O O8 0.355220 0.141061 0.679957
O O9 0.484051 0.093173 0.518424
O O10 0.992897 0.755739 0.499559
O O11 0.922513 0.319441 0.712683
#
# Coordination Sequence:
#
# PCOD9454951 Si02
#       7
#     8   8   8   4   4   8   4
#     4  10  22  39  50  72 102 134 173 228 291 305
#     4  10  20  34  48  69 105 144 169 211 260 289
#     4  10  22  35  53  72 105 135 170 230 275 315
#     4  10  20  36  50  76 112 146 176 218 254 302
#     4  12  23  38  56  73  98 138 182 235 274 325
#     4  11  21  33  53  77 105 141 190 219 252 316
#     4  12  23  30  52  81  96 132 196 231 250 307
#
# _framework density 20.523706000000001
#
# number of rings (size 3 to 8) (size 9 to 14) (size 15 to 20)
#    0.000    1.455    1.818    5.455    5.091    4.364 
#    0.000    0.000    0.000    0.000    0.000    0.000 
#    0.000    0.000    0.000   65.455    0.000    0.000 
#
# Total GULP energy -245990.798401 kJ/mol
# GULP energy per Si atom -5590.699964 kJ/mol
# Density = 2.047699 g / cm^3
# Si number density = 20.523706 Si / 1000 Ang^3
#
#
#
# Elastic Constant Matrix: (Units=GPa)
#
#
# Indices 1 2 3 4 5 6 
#
# 1 69.0712 4.2448 20.5894 0.0000 0.0000 0.0000
# 2 4.2448 39.6777 18.0483 0.0000 0.0000 0.0000
# 3 20.5894 18.0483 153.0048 0.0000 0.0000 0.0000
# 4 0.0000 0.0000 0.0000 27.2479 0.0000 0.0000
# 5 0.0000 0.0000 0.0000 0.0000 26.7026 0.0000
# 6 0.0000 0.0000 0.0000 0.0000 0.0000 11.3443
#
#
#
# Elastic Compliance Matrix: (Units=1/GPa)
#
#
# Indices 1 2 3 4 5 6 
#
# 1 0.015103 -0.000730 -0.001946 0.000000 0.000000 0.000000
# 2 -0.000730 0.026667 -0.003047 0.000000 0.000000 0.000000
# 3 -0.001946 -0.003047 0.007157 0.000000 0.000000 0.000000
# 4 0.000000 0.000000 0.000000 0.036700 0.000000 0.000000
# 5 0.000000 0.000000 0.000000 0.000000 0.037450 0.000000
# 6 0.000000 0.000000 0.000000 0.000000 0.000000 0.088150
#
#
# Mechanical properties :
#
#
# Convention : Reuss Voigt Hill
#
# Bulk Modulus (GPa) = 26.68138 38.61318 32.64728
# Shear Modulus (GPa) = 21.26136 27.65035 24.45586
#
# Velocity S-wave (km/s) = 3.22210 3.67446 3.45569
# Velocity P-wave (km/s) = 5.18373 6.07099 5.64482
#
# Compressibility (1/GPa) = 0.03747932
#
# Stress axis : x y z
#
# Youngs Moduli (GPa) = 66.21276 37.49895 139.72138
#
# Poissons Ratio (x) = 0.02739 0.27192
# Poissons Ratio (y) = 0.04837 0.42578
# Poissons Ratio (z) = 0.12886 0.11427
#
# Static dielectric constant tensor:
#      x y z
#    x 1.787730 0.000000 0.000000 
#    y 0.000000 1.720530 0.000000 
#    z 0.000000 0.000000 1.873750 
# 
# From -- ./inp_files/1301.got.cif
#   From: 2010.05.17/outbox.cif.g08.bks.cpg/sg60_1_cif.got.tgz:1301.got - 2010.06.03 14:59:27.
