data_PCOD9454931
_publ_section_title
;
Structure prediction by ZEFSAII (Michael W. Deem and Ramdas Pophale) SiO2 
 PCOD9454931
Probable space group: P B C N
;
_chemical_formula_sum "Si O2"
_cell_formula_units_Z 52
_cell_length_a 27.441105
_cell_length_b 13.809957
_cell_length_c 7.332022
_cell_angle_alpha 90.000000
_cell_angle_beta 90.000000
_cell_angle_gamma 90.000000
_cell_volume 2778.546577
_symmetry_space_group_name_H-M "P B C N"
_symmetry_group_IT_number 60
_symmetry_cell_setting 'orthorhombic'
loop_
_space_group_symop_operation_xyz
x,y,z
1/2-x,1/2-y,1/2+z
1/2+x,1/2-y,-z
-x,y,1/2-z
-x,-y,-z
1/2+x,1/2+y,1/2-z
1/2-x,1/2+y,z
x,-y,1/2+z
loop_
_atom_site_type_symbol
_atom_site_label
_atom_site_fract_x
_atom_site_fract_y
_atom_site_fract_z
Si Si1 0.573612 0.923108 0.443021
Si Si2 0.768593 0.089709 0.949323
Si Si3 0.670569 0.809765 0.551665
Si Si4 0.427841 0.857476 0.455718
Si Si5 0.168061 0.260170 0.537590
Si Si6 0.731842 0.368268 0.021607
Si Si7 0.500000 0.848525 0.750000
O O1 0.624404 0.867415 0.476827
O O2 0.554732 0.885330 0.247371
O O3 0.534843 0.903421 0.604339
O O4 0.582810 0.038308 0.448862
O O5 0.717874 0.118929 0.047375
O O6 0.777044 0.975815 0.951682
O O7 0.812637 0.155331 0.023653
O O8 0.766454 0.124310 0.740549
O O9 0.654831 0.770907 0.749667
O O10 0.692887 0.712665 0.459442
O O11 0.378128 0.798992 0.431562
O O12 0.463107 0.802625 0.600003
O O13 0.214818 0.329619 0.524764
#
# Coordination Sequence:
#
# PCOD9454931 Si02
#       7
#     8   8   8   8   8   8   4
#     4  12  23  36  57  79 113 147 183 227 277 326
#     4  10  20  33  54  78 112 147 184 223 268 324
#     4  10  20  36  52  78 112 148 184 225 268 326
#     4  12  23  36  57  79 113 147 183 227 277 326
#     4  10  20  36  52  78 112 148 184 225 268 326
#     4  10  20  33  54  78 112 147 184 223 268 324
#     4  12  24  40  54  82 110 144 186 232 270 340
#
# _framework density 18.714818999999999
#
# number of rings (size 3 to 8) (size 9 to 14) (size 15 to 20)
#    0.000    1.231    3.077    3.692    0.000    3.692 
#    0.000    0.000    0.000    0.000    0.000    1.077 
#    0.000    0.000    0.000    0.000    0.000    0.000 
#
# Total GULP energy -289867.999649 kJ/mol
# GULP energy per Si atom -5574.384609 kJ/mol
# Density = 1.867222 g / cm^3
# Si number density = 18.714819 Si / 1000 Ang^3
#
#
#
# Elastic Constant Matrix: (Units=GPa)
#
#
# Indices 1 2 3 4 5 6 
#
# 1 109.5226 44.1468 14.0083 0.0000 0.0000 0.0000
# 2 44.1468 95.8195 6.6931 0.0000 0.0000 0.0000
# 3 14.0083 6.6931 60.3434 0.0000 0.0000 0.0000
# 4 0.0000 0.0000 0.0000 12.6769 0.0000 0.0000
# 5 0.0000 0.0000 0.0000 0.0000 28.9543 0.0000
# 6 0.0000 0.0000 0.0000 0.0000 0.0000 -1.0935
#
#
#
# Elastic Compliance Matrix: (Units=1/GPa)
#
#
# Indices 1 2 3 4 5 6 
#
# 1 0.011469 -0.005138 -0.002093 0.000000 0.000000 0.000000
# 2 -0.005138 0.012820 -0.000229 0.000000 0.000000 0.000000
# 3 -0.002093 -0.000229 0.017083 0.000000 0.000000 0.000000
# 4 0.000000 0.000000 0.000000 0.078883 0.000000 0.000000
# 5 0.000000 0.000000 0.000000 0.000000 0.034537 0.000000
# 6 0.000000 0.000000 0.000000 0.000000 0.000000 -0.914471
#
#
# Mechanical properties :
#
#
# Convention : Reuss Voigt Hill
#
# Bulk Modulus (GPa) = 37.80401 43.93133 40.86767
# Shear Modulus (GPa) = -6.79401 21.49670 7.35135
#
# Velocity S-wave (km/s) = -1.90740 3.39285 1.98409
# Velocity P-wave (km/s) = 3.92339 6.23487 5.20896
#
# Compressibility (1/GPa) = 0.02645222
#
# Stress axis : x y z
#
# Youngs Moduli (GPa) = 87.18967 78.00596 58.53767
#
# Poissons Ratio (x) = 0.40080 0.12250
# Poissons Ratio (y) = 0.44798 0.01341
# Poissons Ratio (z) = 0.18245 0.01787
#
# Static dielectric constant tensor:
#      x y z
#    x 1.672640 0.000000 0.000000 
#    y 0.000000 1.642510 0.000000 
#    z 0.000000 0.000000 1.747230 
# 
# From -- ./inp_files/8224.got.cif
#   From: 2010.05.17/outbox.cif.g08.bks.cpg/sg60_5_cif.got.tgz:8224.got - 2010.06.03 14:59:27.
