data_PCOD9454824
_publ_section_title
;
Structure prediction by ZEFSAII (Michael W. Deem and Ramdas Pophale) SiO2 
 PCOD9454824
Probable space group: P B C N
;
_chemical_formula_sum "Si O2"
_cell_formula_units_Z 64
_cell_length_a 9.561697
_cell_length_b 14.346887
_cell_length_c 21.416517
_cell_angle_alpha 90.000000
_cell_angle_beta 90.000000
_cell_angle_gamma 90.000000
_cell_volume 2937.930360
_symmetry_space_group_name_H-M "P B C N"
_symmetry_group_IT_number 60
_symmetry_cell_setting 'orthorhombic'
loop_
_space_group_symop_operation_xyz
x,y,z
1/2-x,1/2-y,1/2+z
1/2+x,1/2-y,-z
-x,y,1/2-z
-x,-y,-z
1/2+x,1/2+y,1/2-z
1/2-x,1/2+y,z
x,-y,1/2+z
loop_
_atom_site_type_symbol
_atom_site_label
_atom_site_fract_x
_atom_site_fract_y
_atom_site_fract_z
Si Si1 0.378744 0.168478 0.174764
Si Si2 0.850075 0.784284 0.722666
Si Si3 0.611582 0.682244 0.652177
Si Si4 0.609481 0.481864 0.693133
Si Si5 0.373764 0.982868 0.450911
Si Si6 0.359732 0.190294 0.467202
Si Si7 0.680365 0.825338 0.968372
Si Si8 0.570226 0.015101 0.690260
O O1 0.250393 0.176942 0.222033
O O2 0.475851 0.261301 0.177746
O O3 0.322649 0.153791 0.104672
O O4 0.483806 0.082057 0.184814
O O5 0.751244 0.706181 0.692018
O O6 0.000000 0.757095 0.750000
O O7 0.887152 0.871802 0.676640
O O8 0.581392 0.571861 0.649308
O O9 0.642435 0.735669 0.588363
O O10 0.500000 0.490169 0.750000
O O11 0.770788 0.498603 0.710031
O O12 0.274481 0.911647 0.487841
O O13 0.422802 0.949425 0.382063
O O14 0.500000 0.000000 0.500000
O O15 0.317087 0.087988 0.443315
O O16 0.263042 0.231128 0.520317
O O17 0.520029 0.189601 0.488838
O O18 0.500000 0.063926 0.750000
#
# Coordination Sequence:
#
# PCOD9454824 Si02
#       8
#     8   8   8   8   8   8   8   8
#     4  11  20  41  66  86 126 178 211 254 333 400
#     4  11  23  39  58  90 127 159 206 267 322 373
#     4  11  21  41  63  86 125 173 206 258 330 398
#     4  11  23  36  57  91 127 159 206 269 320 377
#     4  10  19  40  65  93 124 169 219 267 318 383
#     4  10  21  38  63  89 118 164 214 259 319 377
#     4  10  22  40  64  91 127 167 219 269 318 383
#     4  12  20  38  68  92 120 171 219 261 327 402
#
# _framework density 21.784043
#
# number of rings (size 3 to 8) (size 9 to 14) (size 15 to 20)
#    0.000    1.250    6.250    1.875    0.000    1.500 
#    0.000   14.375    0.000    0.000    0.000    0.000 
#    0.000    0.000    0.000    0.000    0.000    0.000 
#
# Total GULP energy -356662.584429 kJ/mol
# GULP energy per Si atom -5572.852882 kJ/mol
# Density = 2.173446 g / cm^3
# Si number density = 21.784043 Si / 1000 Ang^3
#
#
#
# Elastic Constant Matrix: (Units=GPa)
#
#
# Indices 1 2 3 4 5 6 
#
# 1 77.4709 3.5350 17.3620 0.0000 0.0000 0.0000
# 2 3.5350 124.1484 27.7083 0.0000 0.0000 0.0000
# 3 17.3620 27.7083 108.5755 0.0000 0.0000 0.0000
# 4 0.0000 0.0000 0.0000 14.9189 0.0000 0.0000
# 5 0.0000 0.0000 0.0000 0.0000 21.8783 0.0000
# 6 0.0000 0.0000 0.0000 0.0000 0.0000 -0.4529
#
#
#
# Elastic Compliance Matrix: (Units=1/GPa)
#
#
# Indices 1 2 3 4 5 6 
#
# 1 0.013389 0.000102 -0.002167 0.000000 0.000000 0.000000
# 2 0.000102 0.008542 -0.002196 0.000000 0.000000 0.000000
# 3 -0.002167 -0.002196 0.010117 0.000000 0.000000 0.000000
# 4 0.000000 0.000000 0.000000 0.067029 0.000000 0.000000
# 5 0.000000 0.000000 0.000000 0.000000 0.045707 0.000000
# 6 0.000000 0.000000 0.000000 0.000000 0.000000 -2.207926
#
#
# Mechanical properties :
#
#
# Convention : Reuss Voigt Hill
#
# Bulk Modulus (GPa) = 42.50551 45.26729 43.88640
# Shear Modulus (GPa) = -2.44287 24.70815 11.13264
#
# Velocity S-wave (km/s) = -1.06011 3.37149 2.26308
# Velocity P-wave (km/s) = 4.24925 5.99842 5.19794
#
# Compressibility (1/GPa) = 0.02352636
#
# Stress axis : x y z
#
# Youngs Moduli (GPa) = 74.68775 117.06649 98.84137
#
# Poissons Ratio (x) = -0.01199 0.21420
# Poissons Ratio (y) = -0.00765 0.21709
# Poissons Ratio (z) = 0.16186 0.25712
#
# Static dielectric constant tensor:
#      x y z
#    x 1.516230 0.000000 0.000000 
#    y 0.000000 1.957000 0.000000 
#    z 0.000000 0.000000 1.859080 
# 
# From -- ./inp_files/24076.got.cif
#   From: 2010.05.17/outbox.cif.g08.bks.cpg/sg60_13_cif.got.tgz:24076.got - 2010.06.03 14:59:27.
