data_PCOD9454078
_publ_section_title
;
Structure prediction by ZEFSAII (Michael W. Deem and Ramdas Pophale) SiO2 
 PCOD9454078
Probable space group: P B C N
;
_chemical_formula_sum "Si O2"
_cell_formula_units_Z 64
_cell_length_a 15.707767
_cell_length_b 9.499557
_cell_length_c 21.580782
_cell_angle_alpha 90.000000
_cell_angle_beta 90.000000
_cell_angle_gamma 90.000000
_cell_volume 3220.215835
_symmetry_space_group_name_H-M "P B C N"
_symmetry_group_IT_number 60
_symmetry_cell_setting 'orthorhombic'
loop_
_space_group_symop_operation_xyz
x,y,z
1/2-x,1/2-y,1/2+z
1/2+x,1/2-y,-z
-x,y,1/2-z
-x,-y,-z
1/2+x,1/2+y,1/2-z
1/2-x,1/2+y,z
x,-y,1/2+z
loop_
_atom_site_type_symbol
_atom_site_label
_atom_site_fract_x
_atom_site_fract_y
_atom_site_fract_z
Si Si1 0.835398 0.220331 0.701950
Si Si2 0.724703 0.058167 0.894240
Si Si3 0.159042 0.361573 0.975343
Si Si4 0.165594 0.292604 0.658627
Si Si5 0.049608 0.074471 0.427401
Si Si6 0.871736 0.918906 0.964852
Si Si7 0.786515 0.925840 0.637170
Si Si8 0.019038 0.748193 0.391587
O O1 0.847343 0.219164 0.775192
O O2 0.805627 0.077676 0.667223
O O3 0.762282 0.332177 0.686540
O O4 0.922888 0.269554 0.669537
O O5 0.683992 0.959468 0.842076
O O6 0.811895 0.981973 0.913669
O O7 0.754971 0.210515 0.872094
O O8 0.670449 0.064429 0.958162
O O9 0.225658 0.420227 0.924260
O O10 0.066474 0.348183 0.943012
O O11 0.175454 0.196515 0.992686
O O12 0.079214 0.278757 0.619529
O O13 0.096746 0.048257 0.492534
O O14 0.121023 0.134922 0.382368
O O15 0.029469 0.913684 0.407371
O O16 0.958887 0.146874 0.437166
#
# Coordination Sequence:
#
# PCOD9454078 Si02
#       8
#     8   8   8   8   8   8   8   8
#     4  10  22  40  62  86 114 156 211 254 300 356
#     4  12  23  36  60  87 125 156 193 250 305 383
#     4  10  21  36  58  93 122 153 196 240 311 362
#     4  12  24  40  60  86 119 162 200 251 310 363
#     4   9  17  32  61  86 116 154 196 244 297 355
#     4  10  18  34  54  89 123 150 189 238 297 372
#     4  10  20  38  63  89 115 155 205 260 293 359
#     4   9  20  38  62  85 115 156 206 254 297 360
#
# _framework density 19.874444
#
# number of rings (size 3 to 8) (size 9 to 14) (size 15 to 20)
#    0.000    1.750    3.750    1.875    0.000    0.500 
#    0.000    2.500    0.000    0.000    0.000    0.000 
#    0.000    0.000    0.000    0.000    0.000    0.000 
#
# Total GULP energy -356587.889124 kJ/mol
# GULP energy per Si atom -5571.685768 kJ/mol
# Density = 1.982921 g / cm^3
# Si number density = 19.874444 Si / 1000 Ang^3
#
#
#
# Elastic Constant Matrix: (Units=GPa)
#
#
# Indices 1 2 3 4 5 6 
#
# 1 59.4937 25.6342 11.5645 0.0000 0.0000 0.0000
# 2 25.6342 51.6663 8.7793 0.0000 0.0000 0.0000
# 3 11.5645 8.7793 69.9079 0.0000 0.0000 0.0000
# 4 0.0000 0.0000 0.0000 18.0861 0.0000 0.0000
# 5 0.0000 0.0000 0.0000 0.0000 25.4200 0.0000
# 6 0.0000 0.0000 0.0000 0.0000 0.0000 15.9710
#
#
#
# Elastic Compliance Matrix: (Units=1/GPa)
#
#
# Indices 1 2 3 4 5 6 
#
# 1 0.021732 -0.010393 -0.002290 0.000000 0.000000 0.000000
# 2 -0.010393 0.024747 -0.001389 0.000000 0.000000 0.000000
# 3 -0.002290 -0.001389 0.014858 0.000000 0.000000 0.000000
# 4 0.000000 0.000000 0.000000 0.055291 0.000000 0.000000
# 5 0.000000 0.000000 0.000000 0.000000 0.039339 0.000000
# 6 0.000000 0.000000 0.000000 0.000000 0.000000 0.062614
#
#
# Mechanical properties :
#
#
# Convention : Reuss Voigt Hill
#
# Bulk Modulus (GPa) = 30.12598 30.33600 30.23099
# Shear Modulus (GPa) = 19.39577 20.90141 20.14859
#
# Velocity S-wave (km/s) = 3.12735 3.24647 3.18747
# Velocity P-wave (km/s) = 5.31333 5.41754 5.36569
#
# Compressibility (1/GPa) = 0.03319394
#
# Stress axis : x y z
#
# Youngs Moduli (GPa) = 46.01575 40.40817 67.30518
#
# Poissons Ratio (x) = 0.41997 0.15411
# Poissons Ratio (y) = 0.47825 0.09346
# Poissons Ratio (z) = 0.10536 0.05611
#
# Static dielectric constant tensor:
#      x y z
#    x 1.730030 0.000000 0.000000 
#    y 0.000000 1.713510 0.000000 
#    z 0.000000 0.000000 1.746240 
# 
# From -- ./inp_files/24450.got.cif
#   From: 2010.05.17/outbox.cif.g08.bks.cpg/sg60_13_cif.got.tgz:24450.got - 2010.06.03 14:59:27.
