data_PCOD9454862
_publ_section_title
;
Structure prediction by ZEFSAII (Michael W. Deem and Ramdas Pophale) SiO2 
 PCOD9454862
Probable space group: P B C N
;
_chemical_formula_sum "Si O2"
_cell_formula_units_Z 56
_cell_length_a 17.062890
_cell_length_b 23.946168
_cell_length_c 8.569534
_cell_angle_alpha 90.000000
_cell_angle_beta 90.000000
_cell_angle_gamma 90.000000
_cell_volume 3501.433014
_symmetry_space_group_name_H-M "P B C N"
_symmetry_group_IT_number 60
_symmetry_cell_setting 'orthorhombic'
loop_
_space_group_symop_operation_xyz
x,y,z
1/2-x,1/2-y,1/2+z
1/2+x,1/2-y,-z
-x,y,1/2-z
-x,-y,-z
1/2+x,1/2+y,1/2-z
1/2-x,1/2+y,z
x,-y,1/2+z
loop_
_atom_site_type_symbol
_atom_site_label
_atom_site_fract_x
_atom_site_fract_y
_atom_site_fract_z
Si Si1 0.705251 0.315995 0.936284
Si Si2 0.016054 0.438616 0.565006
Si Si3 0.898599 0.349087 0.410978
Si Si4 0.789239 0.709843 0.132533
Si Si5 0.535571 0.278734 0.914980
Si Si6 0.429307 0.774087 0.644066
Si Si7 0.649593 0.870604 0.058575
O O1 0.724594 0.310653 0.753078
O O2 0.612036 0.314779 0.956084
O O3 0.735994 0.258396 0.016029
O O4 0.759536 0.363375 0.012377
O O5 0.960576 0.393721 0.475660
O O6 0.000000 0.435974 0.750000
O O7 0.000000 0.500000 0.500000
O O8 0.104983 0.422178 0.520171
O O9 0.828848 0.339762 0.534902
O O10 0.935456 0.286421 0.398104
O O11 0.866746 0.367010 0.242334
O O12 0.858849 0.736858 0.237499
O O13 0.500000 0.295644 0.750000
O O14 0.469653 0.275690 0.048777
O O15 0.500000 0.798629 0.750000
O O16 0.394675 0.818175 0.522606
#
# Coordination Sequence:
#
# PCOD9454862 Si02
#       7
#     8   8   8   8   8   8   8
#     4  10  20  29  43  65  89 126 167 203 246 287
#     4  12  23  35  53  74  95 127 168 202 243 289
#     4  11  19  32  48  66  92 128 164 206 246 285
#     4  10  20  28  44  64  90 123 169 201 243 291
#     4  11  19  30  45  66  93 131 170 202 242 293
#     4  11  17  28  44  61  86 123 160 202 236 280
#     4  11  20  33  47  64  95 124 163 204 242 286
#
# _framework density 15.993451
#
# number of rings (size 3 to 8) (size 9 to 14) (size 15 to 20)
#    0.000    1.143    5.714    5.143    2.000    0.000 
#    0.000    0.000    0.000    0.000    0.000    0.000 
#    0.000    0.000    0.000   11.571    5.429    8.429 
#
# Total GULP energy -312328.100566 kJ/mol
# GULP energy per Si atom -5577.287510 kJ/mol
# Density = 1.595705 g / cm^3
# Si number density = 15.993451 Si / 1000 Ang^3
#
#
#
# Elastic Constant Matrix: (Units=GPa)
#
#
# Indices 1 2 3 4 5 6 
#
# 1 74.6750 30.8501 31.7961 0.0000 0.0000 0.0000
# 2 30.8501 48.9122 15.3682 0.0000 0.0000 0.0000
# 3 31.7961 15.3682 113.0234 0.0000 0.0000 0.0000
# 4 0.0000 0.0000 0.0000 16.1408 0.0000 0.0000
# 5 0.0000 0.0000 0.0000 0.0000 33.4831 0.0000
# 6 0.0000 0.0000 0.0000 0.0000 0.0000 14.6298
#
#
#
# Elastic Compliance Matrix: (Units=1/GPa)
#
#
# Indices 1 2 3 4 5 6 
#
# 1 0.019723 -0.011174 -0.004029 0.000000 0.000000 0.000000
# 2 -0.011174 0.027688 -0.000621 0.000000 0.000000 0.000000
# 3 -0.004029 -0.000621 0.010066 0.000000 0.000000 0.000000
# 4 0.000000 0.000000 0.000000 0.061955 0.000000 0.000000
# 5 0.000000 0.000000 0.000000 0.000000 0.029866 0.000000
# 6 0.000000 0.000000 0.000000 0.000000 0.000000 0.068354
#
#
# Mechanical properties :
#
#
# Convention : Reuss Voigt Hill
#
# Bulk Modulus (GPa) = 38.71817 43.62659 41.17238
# Shear Modulus (GPa) = 19.38666 23.42381 21.40524
#
# Velocity S-wave (km/s) = 3.48539 3.83114 3.66235
# Velocity P-wave (km/s) = 6.36071 6.84889 6.60930
#
# Compressibility (1/GPa) = 0.02582767
#
# Stress axis : x y z
#
# Youngs Moduli (GPa) = 50.70170 36.11719 99.34706
#
# Poissons Ratio (x) = 0.40357 0.40029
# Poissons Ratio (y) = 0.56654 0.06173
# Poissons Ratio (z) = 0.20429 0.02244
#
# Static dielectric constant tensor:
#      x y z
#    x 1.593700 0.000000 0.000000 
#    y 0.000000 1.503220 0.000000 
#    z 0.000000 0.000000 1.588650 
# 
# From -- ./inp_files/6961.got.cif
#   From: 2010.05.17/outbox.cif.g08.bks.cpg/sg60_4_cif.got.tgz:6961.got - 2010.06.03 14:59:27.
