data_PCOD9454311
_publ_section_title
;
Structure prediction by ZEFSAII (Michael W. Deem and Ramdas Pophale) SiO2 
 PCOD9454311
Probable space group: P B C N
;
_chemical_formula_sum "Si O2"
_cell_formula_units_Z 56
_cell_length_a 9.476516
_cell_length_b 18.960548
_cell_length_c 12.944933
_cell_angle_alpha 90.000000
_cell_angle_beta 90.000000
_cell_angle_gamma 90.000000
_cell_volume 2325.944739
_symmetry_space_group_name_H-M "P B C N"
_symmetry_group_IT_number 60
_symmetry_cell_setting 'orthorhombic'
loop_
_space_group_symop_operation_xyz
x,y,z
1/2-x,1/2-y,1/2+z
1/2+x,1/2-y,-z
-x,y,1/2-z
-x,-y,-z
1/2+x,1/2+y,1/2-z
1/2-x,1/2+y,z
x,-y,1/2+z
loop_
_atom_site_type_symbol
_atom_site_label
_atom_site_fract_x
_atom_site_fract_y
_atom_site_fract_z
Si Si1 0.318161 0.371810 0.397229
Si Si2 0.314007 0.427236 0.016962
Si Si3 0.331477 0.879655 0.839912
Si Si4 0.497223 0.489000 0.639615
Si Si5 0.842645 0.638387 0.385134
Si Si6 0.878499 0.744773 0.665075
Si Si7 0.904755 0.217982 0.934907
O O1 0.392753 0.444400 0.359620
O O2 0.240690 0.381460 0.510081
O O3 0.202822 0.330403 0.328189
O O4 0.448721 0.316023 0.398122
O O5 0.346212 0.479047 0.109055
O O6 0.301380 0.348788 0.056332
O O7 0.207473 0.438652 0.924553
O O8 0.458689 0.434680 0.949168
O O9 0.486900 0.860834 0.878797
O O10 0.313961 0.902755 0.721303
O O11 0.229597 0.811321 0.840964
O O12 0.500000 0.454074 0.750000
O O13 0.821816 0.722664 0.371881
O O14 0.936615 0.748617 0.547201
O O15 0.000000 0.753404 0.750000
#
# Coordination Sequence:
#
# PCOD9454311 Si02
#       7
#     8   8   8   8   8   8   8
#     4  10  20  36  53  83 121 157 201 258 302 366
#     4   9  21  39  63  88 117 154 214 261 299 352
#     4  10  20  36  59  90 120 163 199 248 308 383
#     4  10  22  41  63  88 116 164 214 264 310 349
#     4  10  20  34  58  89 126 162 195 241 322 381
#     4  10  19  31  51  82 114 153 199 248 306 369
#     4   9  18  35  55  83 119 151 190 252 308 358
#
# _framework density 24.076238
#
# number of rings (size 3 to 8) (size 9 to 14) (size 15 to 20)
#    0.000    2.286    1.429    0.857    0.000    8.000 
#    5.143    0.714    3.143    0.000    0.000    0.000 
#    0.000    0.000    0.000    0.000    0.000    0.000 
#
# Total GULP energy -311923.535203 kJ/mol
# GULP energy per Si atom -5570.063129 kJ/mol
# Density = 2.402144 g / cm^3
# Si number density = 24.076238 Si / 1000 Ang^3
#
#
#
# Elastic Constant Matrix: (Units=GPa)
#
#
# Indices 1 2 3 4 5 6 
#
# 1 78.1667 20.8014 16.3261 0.0000 0.0000 0.0000
# 2 20.8014 68.4798 -9.6132 0.0000 0.0000 0.0000
# 3 16.3261 -9.6132 77.4524 0.0000 0.0000 0.0000
# 4 0.0000 0.0000 0.0000 22.2150 0.0000 0.0000
# 5 0.0000 0.0000 0.0000 0.0000 23.3317 0.0000
# 6 0.0000 0.0000 0.0000 0.0000 0.0000 25.1387
#
#
#
# Elastic Compliance Matrix: (Units=1/GPa)
#
#
# Indices 1 2 3 4 5 6 
#
# 1 0.014930 -0.005065 -0.003776 0.000000 0.000000 0.000000
# 2 -0.005065 0.016580 0.003126 0.000000 0.000000 0.000000
# 3 -0.003776 0.003126 0.014095 0.000000 0.000000 0.000000
# 4 0.000000 0.000000 0.000000 0.045015 0.000000 0.000000
# 5 0.000000 0.000000 0.000000 0.000000 0.042860 0.000000
# 6 0.000000 0.000000 0.000000 0.000000 0.000000 0.039779
#
#
# Mechanical properties :
#
#
# Convention : Reuss Voigt Hill
#
# Bulk Modulus (GPa) = 29.26167 31.01420 30.13793
# Shear Modulus (GPa) = 25.49972 27.24273 26.37122
#
# Velocity S-wave (km/s) = 3.25795 3.36746 3.31315
# Velocity P-wave (km/s) = 5.13151 5.29427 5.21353
#
# Compressibility (1/GPa) = 0.03417440
#
# Stress axis : x y z
#
# Youngs Moduli (GPa) = 66.98075 60.31302 70.94735
#
# Poissons Ratio (x) = 0.30549 0.26787
# Poissons Ratio (y) = 0.33926 -0.22175
# Poissons Ratio (z) = 0.25290 -0.18851
#
# Static dielectric constant tensor:
#      x y z
#    x 2.077760 0.000000 0.000000 
#    y 0.000000 2.016810 0.000000 
#    z 0.000000 0.000000 1.987580 
# 
# From -- ./inp_files/11188.got.cif
#   From: 2010.05.17/outbox.cif.g08.bks.cpg/sg60_6_cif.got.tgz:11188.got - 2010.06.03 14:59:27.
