data_PCOD9454263
_publ_section_title
;
Structure prediction by ZEFSAII (Michael W. Deem and Ramdas Pophale) SiO2 
 PCOD9454263
Probable space group: P B C N
;
_chemical_formula_sum "Si O2"
_cell_formula_units_Z 40
_cell_length_a 20.264043
_cell_length_b 15.511603
_cell_length_c 5.427653
_cell_angle_alpha 90.000000
_cell_angle_beta 90.000000
_cell_angle_gamma 90.000000
_cell_volume 1706.062173
_symmetry_space_group_name_H-M "P B C N"
_symmetry_group_IT_number 60
_symmetry_cell_setting 'orthorhombic'
loop_
_space_group_symop_operation_xyz
x,y,z
1/2-x,1/2-y,1/2+z
1/2+x,1/2-y,-z
-x,y,1/2-z
-x,-y,-z
1/2+x,1/2+y,1/2-z
1/2-x,1/2+y,z
x,-y,1/2+z
loop_
_atom_site_type_symbol
_atom_site_label
_atom_site_fract_x
_atom_site_fract_y
_atom_site_fract_z
Si Si1 0.020514 0.143878 0.507242
Si Si2 0.409689 0.240920 0.302215
Si Si3 0.256358 0.519177 0.639863
Si Si4 0.279028 0.217396 0.603198
Si Si5 0.890647 0.452287 0.856068
O O1 0.971661 0.228105 0.533517
O O2 0.000000 0.105920 0.250000
O O3 0.090116 0.186691 0.584185
O O4 0.000000 0.090726 0.750000
O O5 0.348593 0.242482 0.485730
O O6 0.411634 0.145645 0.189024
O O7 0.294170 0.502447 0.891306
O O8 0.229529 0.615489 0.632053
O O9 0.190001 0.459425 0.642656
O O10 0.268273 0.254398 0.876369
O O11 0.912279 0.491805 0.117681
#
# Coordination Sequence:
#
# PCOD9454263 Si02
#       5
#     8   8   8   8   8
#     4   8  20  32  55  66  99 136 180 230 258 296
#     4   9  21  36  52  73 102 139 184 219 269 310
#     4  10  19  35  53  70 100 151 184 207 268 328
#     4  12  25  33  54  84 111 138 182 237 271 315
#     4  10  19  28  54  65  92 138 183 214 252 308
#
# _framework density 23.445803000000002
#
# number of rings (size 3 to 8) (size 9 to 14) (size 15 to 20)
#    1.200    0.800    4.000    1.200    8.400    0.000 
#    0.000    4.000    0.000    0.000    0.000    0.000 
#    0.000    0.000    0.000   72.000    0.000    0.000 
#
# Total GULP energy -222823.118709 kJ/mol
# GULP energy per Si atom -5570.577968 kJ/mol
# Density = 2.339244 g / cm^3
# Si number density = 23.445803 Si / 1000 Ang^3
#
#
#
# Elastic Constant Matrix: (Units=GPa)
#
#
# Indices 1 2 3 4 5 6 
#
# 1 17.6560 -3.0625 -3.5286 0.0000 0.0000 0.0000
# 2 -3.0625 76.4449 31.9071 0.0000 0.0000 0.0000
# 3 -3.5286 31.9071 196.7431 0.0000 0.0000 0.0000
# 4 0.0000 0.0000 0.0000 57.7130 0.0000 0.0000
# 5 0.0000 0.0000 0.0000 0.0000 30.6550 0.0000
# 6 0.0000 0.0000 0.0000 0.0000 0.0000 -0.0732
#
#
#
# Elastic Compliance Matrix: (Units=1/GPa)
#
#
# Indices 1 2 3 4 5 6 
#
# 1 0.057124 0.001996 0.000701 0.000000 0.000000 0.000000
# 2 0.001996 0.014101 -0.002251 0.000000 0.000000 0.000000
# 3 0.000701 -0.002251 0.005460 0.000000 0.000000 0.000000
# 4 0.000000 0.000000 0.000000 0.017327 0.000000 0.000000
# 5 0.000000 0.000000 0.000000 0.000000 0.032621 0.000000
# 6 0.000000 0.000000 0.000000 0.000000 0.000000-13.661347
#
#
# Mechanical properties :
#
#
# Convention : Reuss Voigt Hill
#
# Bulk Modulus (GPa) = 12.89037 37.94175 25.41606
# Shear Modulus (GPa) = -0.37010 35.36083 17.49537
#
# Velocity S-wave (km/s) = -0.39774 3.88776 2.73464
# Velocity P-wave (km/s) = 2.30194 6.03082 4.56452
#
# Compressibility (1/GPa) = 0.07757727
#
# Stress axis : x y z
#
# Youngs Moduli (GPa) = 17.50565 70.91784 183.13670
#
# Poissons Ratio (x) = -0.14155 -0.12835
# Poissons Ratio (y) = -0.03494 0.41224
# Poissons Ratio (z) = -0.01227 0.15964
#
# Static dielectric constant tensor:
#      x y z
#    x 1.985690 0.000000 0.000000 
#    y 0.000000 1.841690 0.000000 
#    z 0.000000 0.000000 2.068680 
# 
# From -- ./inp_files/2004.got.cif
#   From: 2010.05.17/outbox.cif.g08.bks.cpg/sg60_2_cif.got.tgz:2004.got - 2010.06.03 14:59:27.
