data_PCOD9454283
_publ_section_title
;
Structure prediction by ZEFSAII (Michael W. Deem and Ramdas Pophale) SiO2 
 PCOD9454283
Probable space group: P B C N
;
_chemical_formula_sum "Si O2"
_cell_formula_units_Z 40
_cell_length_a 13.613663
_cell_length_b 22.958393
_cell_length_c 7.550397
_cell_angle_alpha 90.000000
_cell_angle_beta 90.000000
_cell_angle_gamma 90.000000
_cell_volume 2359.860163
_symmetry_space_group_name_H-M "P B C N"
_symmetry_group_IT_number 60
_symmetry_cell_setting 'orthorhombic'
loop_
_space_group_symop_operation_xyz
x,y,z
1/2-x,1/2-y,1/2+z
1/2+x,1/2-y,-z
-x,y,1/2-z
-x,-y,-z
1/2+x,1/2+y,1/2-z
1/2-x,1/2+y,z
x,-y,1/2+z
loop_
_atom_site_type_symbol
_atom_site_label
_atom_site_fract_x
_atom_site_fract_y
_atom_site_fract_z
Si Si1 0.878685 0.931601 0.942333
Si Si2 0.400445 0.327262 0.144497
Si Si3 0.394100 0.247524 0.810603
Si Si4 0.112305 0.938683 0.973565
Si Si5 0.709191 0.307626 0.031244
O O1 0.874035 0.925791 0.731570
O O2 0.820904 0.875584 0.012869
O O3 0.993651 0.934021 0.000801
O O4 0.846591 0.997272 0.988545
O O5 0.500000 0.338007 0.250000
O O6 0.346795 0.387896 0.097703
O O7 0.341830 0.288247 0.284216
O O8 0.322512 0.205126 0.922627
O O9 0.500000 0.223458 0.750000
O O10 0.417755 0.298056 0.954280
O O11 0.337598 0.274275 0.638194
#
# Coordination Sequence:
#
# PCOD9454283 Si02
#       5
#     8   8   8   8   8
#     4  10  19  31  48  80 114 149 186 227 292 362
#     4  12  21  34  57  83 120 153 190 241 291 350
#     4  12  24  39  57  84 116 160 202 243 290 347
#     4  10  19  30  51  80 115 147 182 233 294 355
#     4  12  23  37  56  82 117 156 195 239 292 355
#
# _framework density 16.950157999999998
#
# number of rings (size 3 to 8) (size 9 to 14) (size 15 to 20)
#    0.000    0.800    8.000    1.200    2.800    0.000 
#    0.000    0.000    0.000    0.000    0.000    5.600 
#    0.000    0.000    0.000    0.200    0.000    0.000 
#
# Total GULP energy -222680.663977 kJ/mol
# GULP energy per Si atom -5567.016599 kJ/mol
# Density = 1.691158 g / cm^3
# Si number density = 16.950158 Si / 1000 Ang^3
#
#
#
# Elastic Constant Matrix: (Units=GPa)
#
#
# Indices 1 2 3 4 5 6 
#
# 1 75.6563 37.5473 36.2305 0.0000 0.0000 0.0000
# 2 37.5473 69.6338 27.4163 0.0000 0.0000 0.0000
# 3 36.2305 27.4163 96.4394 0.0000 0.0000 0.0000
# 4 0.0000 0.0000 0.0000 27.0537 0.0000 0.0000
# 5 0.0000 0.0000 0.0000 0.0000 24.5662 0.0000
# 6 0.0000 0.0000 0.0000 0.0000 0.0000 18.1247
#
#
#
# Elastic Compliance Matrix: (Units=1/GPa)
#
#
# Indices 1 2 3 4 5 6 
#
# 1 0.019984 -0.008805 -0.005004 0.000000 0.000000 0.000000
# 2 -0.008805 0.020051 -0.002392 0.000000 0.000000 0.000000
# 3 -0.005004 -0.002392 0.012929 0.000000 0.000000 0.000000
# 4 0.000000 0.000000 0.000000 0.036963 0.000000 0.000000
# 5 0.000000 0.000000 0.000000 0.000000 0.040706 0.000000
# 6 0.000000 0.000000 0.000000 0.000000 0.000000 0.055173
#
#
# Mechanical properties :
#
#
# Convention : Reuss Voigt Hill
#
# Bulk Modulus (GPa) = 48.63733 49.34642 48.99188
# Shear Modulus (GPa) = 22.21586 23.31796 22.76691
#
# Velocity S-wave (km/s) = 3.62423 3.71304 3.66890
# Velocity P-wave (km/s) = 6.80221 6.89623 6.84938
#
# Compressibility (1/GPa) = 0.02056034
#
# Stress axis : x y z
#
# Youngs Moduli (GPa) = 50.03948 49.87381 77.34356
#
# Poissons Ratio (x) = 0.43916 0.38706
# Poissons Ratio (y) = 0.44061 0.18501
# Poissons Ratio (z) = 0.25042 0.11930
#
# Static dielectric constant tensor:
#      x y z
#    x 1.617870 0.000000 0.000000 
#    y 0.000000 1.630570 0.000000 
#    z 0.000000 0.000000 1.631760 
# 
# From -- ./inp_files/5992.got.cif
#   From: 2010.05.17/outbox.cif.g08.bks.cpg/sg60_3_cif.got.tgz:5992.got - 2010.06.03 14:59:27.
