data_PCOD9454213
_publ_section_title
;
Structure prediction by ZEFSAII (Michael W. Deem and Ramdas Pophale) SiO2 
 PCOD9454213
Probable space group: P B C N
;
_chemical_formula_sum "Si O2"
_cell_formula_units_Z 60
_cell_length_a 17.478085
_cell_length_b 12.801501
_cell_length_c 13.981144
_cell_angle_alpha 90.000000
_cell_angle_beta 90.000000
_cell_angle_gamma 90.000000
_cell_volume 3128.221167
_symmetry_space_group_name_H-M "P B C N"
_symmetry_group_IT_number 60
_symmetry_cell_setting 'orthorhombic'
loop_
_space_group_symop_operation_xyz
x,y,z
1/2-x,1/2-y,1/2+z
1/2+x,1/2-y,-z
-x,y,1/2-z
-x,-y,-z
1/2+x,1/2+y,1/2-z
1/2-x,1/2+y,z
x,-y,1/2+z
loop_
_atom_site_type_symbol
_atom_site_label
_atom_site_fract_x
_atom_site_fract_y
_atom_site_fract_z
Si Si1 0.692266 0.202211 0.456676
Si Si2 0.027990 0.170409 0.026773
Si Si3 0.365314 0.380855 0.914516
Si Si4 0.417139 0.442640 0.712613
Si Si5 0.000000 0.696957 0.250000
Si Si6 0.152814 0.165268 0.722030
Si Si7 0.323518 0.609703 0.928758
Si Si8 0.525860 0.109283 0.454666
O O1 0.675191 0.281179 0.543377
O O2 0.695632 0.271025 0.360568
O O3 0.770984 0.149598 0.486035
O O4 0.618194 0.126095 0.451738
O O5 0.067716 0.132776 0.124099
O O6 0.945828 0.113273 0.027272
O O7 0.087292 0.137600 0.945444
O O8 0.008165 0.292446 0.014880
O O9 0.383588 0.378968 0.802247
O O10 0.318108 0.485485 0.928504
O O11 0.500000 0.481293 0.750000
O O12 0.368170 0.546400 0.691648
O O13 0.925829 0.770231 0.262796
O O14 0.003822 0.627781 0.346307
O O15 0.195022 0.154829 0.823892
O O16 0.500000 0.000000 0.500000
#
# Coordination Sequence:
#
# PCOD9454213 Si02
#       8
#     8   8   8   8   4   8   8   8
#     4  10  23  38  57  85 127 152 205 249 297 359
#     4  10  19  35  61  91 117 150 204 254 300 356
#     4   9  20  36  56  87 120 156 194 251 295 360
#     4   9  17  31  60  94 122 146 194 251 312 348
#     4  10  18  38  64  88 108 156 214 260 280 364
#     4  10  19  35  60  89 117 158 201 248 301 366
#     4  11  21  35  59  86 118 161 192 245 320 362
#     4  10  22  41  61  87 118 166 211 254 295 356
#
# _framework density 19.180230000000002
#
# number of rings (size 3 to 8) (size 9 to 14) (size 15 to 20)
#    0.000    2.133    2.000    1.200    0.000    2.133 
#    6.000    0.000    5.867    0.000    0.000    0.000 
#    0.000    0.000    0.000    0.000    0.000    0.000 
#
# Total GULP energy -334748.028198 kJ/mol
# GULP energy per Si atom -5579.133803 kJ/mol
# Density = 1.913658 g / cm^3
# Si number density = 19.180230 Si / 1000 Ang^3
#
#
#
# Elastic Constant Matrix: (Units=GPa)
#
#
# Indices 1 2 3 4 5 6 
#
# 1 36.6076 15.4949 24.6090 0.0000 0.0000 0.0000
# 2 15.4949 79.6625 52.5577 0.0000 0.0000 0.0000
# 3 24.6090 52.5577 120.4845 0.0000 0.0000 0.0000
# 4 0.0000 0.0000 0.0000 26.7094 0.0000 0.0000
# 5 0.0000 0.0000 0.0000 0.0000 29.7905 0.0000
# 6 0.0000 0.0000 0.0000 0.0000 0.0000 10.9077
#
#
#
# Elastic Compliance Matrix: (Units=1/GPa)
#
#
# Indices 1 2 3 4 5 6 
#
# 1 0.032070 -0.002691 -0.005377 0.000000 0.000000 0.000000
# 2 -0.002691 0.017851 -0.007238 0.000000 0.000000 0.000000
# 3 -0.005377 -0.007238 0.012555 0.000000 0.000000 0.000000
# 4 0.000000 0.000000 0.000000 0.037440 0.000000 0.000000
# 5 0.000000 0.000000 0.000000 0.000000 0.033568 0.000000
# 6 0.000000 0.000000 0.000000 0.000000 0.000000 0.091678
#
#
# Mechanical properties :
#
#
# Convention : Reuss Voigt Hill
#
# Bulk Modulus (GPa) = 31.38047 46.89752 39.13900
# Shear Modulus (GPa) = 18.76918 23.08772 20.92845
#
# Velocity S-wave (km/s) = 3.13160 3.47324 3.30683
# Velocity P-wave (km/s) = 5.42884 6.37091 5.91865
#
# Compressibility (1/GPa) = 0.03186695
#
# Stress axis : x y z
#
# Youngs Moduli (GPa) = 31.18182 56.01837 79.64859
#
# Poissons Ratio (x) = 0.15072 0.42824
# Poissons Ratio (y) = 0.08390 0.57646
# Poissons Ratio (z) = 0.16765 0.40543
#
# Static dielectric constant tensor:
#      x y z
#    x 1.688620 0.000000 0.000000 
#    y 0.000000 1.653890 0.000000 
#    z 0.000000 0.000000 1.698110 
# 
# From -- ./inp_files/17446.got.cif
#   From: 2010.05.17/outbox.cif.g08.bks.cpg/sg60_9_cif.got.tgz:17446.got - 2010.06.03 14:59:27.
