data_PCOD9454417
_publ_section_title
;
Structure prediction by ZEFSAII (Michael W. Deem and Ramdas Pophale) SiO2 
 PCOD9454417
Probable space group: P B C N
;
_chemical_formula_sum "Si O2"
_cell_formula_units_Z 48
_cell_length_a 13.048193
_cell_length_b 11.672202
_cell_length_c 13.896207
_cell_angle_alpha 90.000000
_cell_angle_beta 90.000000
_cell_angle_gamma 90.000000
_cell_volume 2116.408229
_symmetry_space_group_name_H-M "P B C N"
_symmetry_group_IT_number 60
_symmetry_cell_setting 'orthorhombic'
loop_
_space_group_symop_operation_xyz
x,y,z
1/2-x,1/2-y,1/2+z
1/2+x,1/2-y,-z
-x,y,1/2-z
-x,-y,-z
1/2+x,1/2+y,1/2-z
1/2-x,1/2+y,z
x,-y,1/2+z
loop_
_atom_site_type_symbol
_atom_site_label
_atom_site_fract_x
_atom_site_fract_y
_atom_site_fract_z
Si Si1 0.582758 0.097576 0.370921
Si Si2 0.115446 0.450349 0.939927
Si Si3 0.809286 0.957269 0.821935
Si Si4 0.652932 0.292989 0.989429
Si Si5 0.863882 0.823728 0.448716
Si Si6 0.354136 0.516456 0.391305
O O1 0.468652 0.047979 0.354905
O O2 0.686619 0.066015 0.314384
O O3 0.577630 0.234902 0.380797
O O4 0.600995 0.045033 0.478201
O O5 0.099093 0.327500 0.992517
O O6 0.232323 0.461123 0.907024
O O7 0.867162 0.968621 0.721469
O O8 0.821185 0.073858 0.882634
O O9 0.855180 0.855120 0.886701
O O10 0.627460 0.388824 0.068921
O O11 0.771896 0.253313 0.991549
O O12 0.911008 0.891259 0.540027
#
# Coordination Sequence:
#
# PCOD9454417 Si02
#       6
#     8   8   8   8   8   8
#     4  10  19  35  56  78 108 138 173 221 270 317
#     4  10  19  35  56  78 108 138 173 221 270 317
#     4  10  19  33  56  80 106 139 183 224 260 314
#     4   9  17  35  52  79 104 141 181 214 265 314
#     4   9  17  35  52  79 104 141 181 214 265 314
#     4  10  19  33  56  80 106 139 183 224 260 314
#
# _framework density 22.679933999999999
#
# number of rings (size 3 to 8) (size 9 to 14) (size 15 to 20)
#    0.000    2.333    6.667    0.000    0.000    6.000 
#    0.000    3.333    0.000    3.000    0.000    0.000 
#    0.000    0.000    0.000    0.000    0.000    0.000 
#
# Total GULP energy -267603.368673 kJ/mol
# GULP energy per Si atom -5575.070181 kJ/mol
# Density = 2.262831 g / cm^3
# Si number density = 22.679934 Si / 1000 Ang^3
#
#
#
# Elastic Constant Matrix: (Units=GPa)
#
#
# Indices 1 2 3 4 5 6 
#
# 1 62.8644 0.6870 7.7633 0.0000 0.0000 0.0000
# 2 0.6870 144.7033 48.8064 0.0000 0.0000 0.0000
# 3 7.7633 48.8064 112.1920 0.0000 0.0000 0.0000
# 4 0.0000 0.0000 0.0000 2.0034 0.0000 0.0000
# 5 0.0000 0.0000 0.0000 0.0000 21.8466 0.0000
# 6 0.0000 0.0000 0.0000 0.0000 0.0000 17.1242
#
#
#
# Elastic Compliance Matrix: (Units=1/GPa)
#
#
# Indices 1 2 3 4 5 6 
#
# 1 0.016059 0.000350 -0.001263 0.000000 0.000000 0.000000
# 2 0.000350 0.008107 -0.003551 0.000000 0.000000 0.000000
# 3 -0.001263 -0.003551 0.010545 0.000000 0.000000 0.000000
# 4 0.000000 0.000000 0.000000 0.499146 0.000000 0.000000
# 5 0.000000 0.000000 0.000000 0.000000 0.045774 0.000000
# 6 0.000000 0.000000 0.000000 0.000000 0.000000 0.058397
#
#
# Mechanical properties :
#
#
# Convention : Reuss Voigt Hill
#
# Bulk Modulus (GPa) = 38.78560 48.25257 43.51909
# Shear Modulus (GPa) = 7.62717 25.69504 16.66110
#
# Velocity S-wave (km/s) = 1.83583 3.36957 2.71333
# Velocity P-wave (km/s) = 4.65103 6.03824 5.38945
#
# Compressibility (1/GPa) = 0.02578276
#
# Stress axis : x y z
#
# Youngs Moduli (GPa) = 62.26860 123.35518 94.82792
#
# Poissons Ratio (x) = -0.04316 0.11981
# Poissons Ratio (y) = -0.02179 0.33672
# Poissons Ratio (z) = 0.07868 0.43801
#
# Static dielectric constant tensor:
#      x y z
#    x 1.994910 0.000000 0.000000 
#    y 0.000000 1.815340 0.000000 
#    z 0.000000 0.000000 1.893500 
# 
# From -- ./inp_files/17399.got.cif
#   From: 2010.05.17/outbox.cif.g08.bks.cpg/sg60_9_cif.got.tgz:17399.got - 2010.06.03 14:59:27.
