data_PCOD9454419
_publ_section_title
;
Structure prediction by ZEFSAII (Michael W. Deem and Ramdas Pophale) SiO2 
 PCOD9454419
Probable space group: P B C N
;
_chemical_formula_sum "Si O2"
_cell_formula_units_Z 56
_cell_length_a 6.029153
_cell_length_b 28.201429
_cell_length_c 17.384524
_cell_angle_alpha 90.000000
_cell_angle_beta 90.000000
_cell_angle_gamma 90.000000
_cell_volume 2955.903311
_symmetry_space_group_name_H-M "P B C N"
_symmetry_group_IT_number 60
_symmetry_cell_setting 'orthorhombic'
loop_
_space_group_symop_operation_xyz
x,y,z
1/2-x,1/2-y,1/2+z
1/2+x,1/2-y,-z
-x,y,1/2-z
-x,-y,-z
1/2+x,1/2+y,1/2-z
1/2-x,1/2+y,z
x,-y,1/2+z
loop_
_atom_site_type_symbol
_atom_site_label
_atom_site_fract_x
_atom_site_fract_y
_atom_site_fract_z
Si Si1 0.751424 0.744585 0.393145
Si Si2 0.950160 0.819721 0.501431
Si Si3 0.370705 0.173355 0.351985
Si Si4 0.947219 0.073238 0.003512
Si Si5 0.232412 0.004050 0.099655
Si Si6 0.000000 0.783763 0.750000
Si Si7 0.500000 0.532970 0.250000
Si Si8 0.375456 0.930494 0.850477
O O1 0.642382 0.712992 0.461556
O O2 0.579620 0.747253 0.322635
O O3 0.840134 0.792726 0.430039
O O4 0.953264 0.714860 0.358192
O O5 0.020643 0.873573 0.483593
O O6 0.768609 0.823984 0.569090
O O7 0.196020 0.183405 0.283950
O O8 0.482674 0.121659 0.345016
O O9 0.150075 0.040263 0.032376
O O10 0.801726 0.047092 0.938511
O O11 0.792619 0.074333 0.078486
O O12 0.463251 0.025767 0.130049
O O13 0.071818 0.005255 0.173764
O O14 0.281423 0.561452 0.276641
#
# Coordination Sequence:
#
# PCOD9454419 Si02
#       8
#     8   8   8   8   8   4   4   8
#     4  11  20  36  57  79 111 146 185 234 283 335
#     4  10  20  35  58  82 107 141 186 234 278 334
#     4  10  20  35  54  84 112 144 181 230 286 338
#     4   9  20  35  55  81 107 137 184 229 271 331
#     4  10  19  35  54  78 111 142 177 225 276 330
#     4  10  23  34  52  78 118 148 182 230 285 338
#     4  10  21  32  52  76 116 146 176 226 269 332
#     4  10  19  33  56  82 108 142 183 223 284 326
#
# _framework density 18.945139000000001
#
# number of rings (size 3 to 8) (size 9 to 14) (size 15 to 20)
#    0.000    2.000    1.429    2.571    0.000    4.571 
#    0.000    0.000    6.286    0.000    0.000    0.000 
#    0.000    0.000    0.000    0.000    0.000    0.000 
#
# Total GULP energy -312203.999634 kJ/mol
# GULP energy per Si atom -5575.071422 kJ/mol
# Density = 1.890202 g / cm^3
# Si number density = 18.945139 Si / 1000 Ang^3
#
#
#
# Elastic Constant Matrix: (Units=GPa)
#
#
# Indices 1 2 3 4 5 6 
#
# 1 42.9088 9.8513 4.1834 0.0000 0.0000 0.0000
# 2 9.8513 86.5787 38.8025 0.0000 0.0000 0.0000
# 3 4.1834 38.8025 82.6928 0.0000 0.0000 0.0000
# 4 0.0000 0.0000 0.0000 8.2597 0.0000 0.0000
# 5 0.0000 0.0000 0.0000 0.0000 29.0163 0.0000
# 6 0.0000 0.0000 0.0000 0.0000 0.0000 15.0909
#
#
#
# Elastic Compliance Matrix: (Units=1/GPa)
#
#
# Indices 1 2 3 4 5 6 
#
# 1 0.023931 -0.002761 0.000085 0.000000 0.000000 0.000000
# 2 -0.002761 0.014945 -0.006873 0.000000 0.000000 0.000000
# 3 0.000085 -0.006873 0.015314 0.000000 0.000000 0.000000
# 4 0.000000 0.000000 0.000000 0.121070 0.000000 0.000000
# 5 0.000000 0.000000 0.000000 0.000000 0.034463 0.000000
# 6 0.000000 0.000000 0.000000 0.000000 0.000000 0.066265
#
#
# Mechanical properties :
#
#
# Convention : Reuss Voigt Hill
#
# Bulk Modulus (GPa) = 28.49721 35.31719 31.90720
# Shear Modulus (GPa) = 16.29817 21.09625 18.69721
#
# Velocity S-wave (km/s) = 2.93624 3.34060 3.14493
# Velocity P-wave (km/s) = 5.15460 5.79325 5.48323
#
# Compressibility (1/GPa) = 0.03509115
#
# Stress axis : x y z
#
# Youngs Moduli (GPa) = 41.78709 66.91376 65.30113
#
# Poissons Ratio (x) = 0.18475 -0.00555
# Poissons Ratio (y) = 0.11537 0.44881
# Poissons Ratio (z) = -0.00355 0.45989
#
# Static dielectric constant tensor:
#      x y z
#    x 1.701020 0.000000 0.000000 
#    y 0.000000 1.652890 0.000000 
#    z 0.000000 0.000000 1.671820 
# 
# From -- ./inp_files/14117.got.cif
#   From: 2010.05.17/outbox.cif.g08.bks.cpg/sg60_8_cif.got.tgz:14117.got - 2010.06.03 14:59:27.
