data_PCOD9454003
_publ_section_title
;
Structure prediction by ZEFSAII (Michael W. Deem and Ramdas Pophale) SiO2 
 PCOD9454003
Probable space group: P B C N
;
_chemical_formula_sum "Si O2"
_cell_formula_units_Z 48
_cell_length_a 14.793802
_cell_length_b 9.284366
_cell_length_c 15.538476
_cell_angle_alpha 90.000000
_cell_angle_beta 90.000000
_cell_angle_gamma 90.000000
_cell_volume 2134.226341
_symmetry_space_group_name_H-M "P B C N"
_symmetry_group_IT_number 60
_symmetry_cell_setting 'orthorhombic'
loop_
_space_group_symop_operation_xyz
x,y,z
1/2-x,1/2-y,1/2+z
1/2+x,1/2-y,-z
-x,y,1/2-z
-x,-y,-z
1/2+x,1/2+y,1/2-z
1/2-x,1/2+y,z
x,-y,1/2+z
loop_
_atom_site_type_symbol
_atom_site_label
_atom_site_fract_x
_atom_site_fract_y
_atom_site_fract_z
Si Si1 0.518616 0.562579 0.593811
Si Si2 0.841304 0.867836 0.341515
Si Si3 0.164592 0.304704 0.417699
Si Si4 0.519297 0.747546 0.348713
Si Si5 0.715553 0.662986 0.410684
Si Si6 0.304517 0.509761 0.842617
O O1 0.500000 0.500000 0.500000
O O2 0.441860 0.669333 0.626239
O O3 0.503884 0.422618 0.653247
O O4 0.622918 0.601505 0.600286
O O5 0.803871 0.992263 0.406316
O O6 0.779870 0.727316 0.336214
O O7 0.835370 0.952525 0.252587
O O8 0.219751 0.306333 0.507181
O O9 0.205788 0.432572 0.361575
O O10 0.055753 0.312872 0.413719
O O11 0.187280 0.154313 0.370820
O O12 0.500000 0.800045 0.250000
O O13 0.620053 0.745533 0.390773
#
# Coordination Sequence:
#
# PCOD9454003 Si02
#       6
#     8   8   8   8   8   8
#     4  10  18  32  55  82 111 146 189 238 286 340
#     4  11  21  37  58  84 114 151 192 237 287 344
#     4  11  22  38  60  86 114 150 194 241 286 340
#     4  10  20  38  58  80 114 160 193 222 285 366
#     4  11  22  38  60  86 114 150 194 241 286 340
#     4  11  21  37  58  84 114 151 192 237 287 344
#
# _framework density 22.490583999999998
#
# number of rings (size 3 to 8) (size 9 to 14) (size 15 to 20)
#    0.000    1.333    0.000   11.500    0.000    0.000 
#    0.000    5.000    0.000    0.000    0.000    0.000 
#    0.000    0.000    0.000    0.000    0.000    0.000 
#
# Total GULP energy -267551.137451 kJ/mol
# GULP energy per Si atom -5573.982030 kJ/mol
# Density = 2.243939 g / cm^3
# Si number density = 22.490584 Si / 1000 Ang^3
#
#
#
# Elastic Constant Matrix: (Units=GPa)
#
#
# Indices 1 2 3 4 5 6 
#
# 1 94.4374 -17.0660 -2.1215 0.0000 0.0000 0.0000
# 2 -17.0660 14.9664 -18.9375 0.0000 0.0000 0.0000
# 3 -2.1215 -18.9375 108.8516 0.0000 0.0000 0.0000
# 4 0.0000 0.0000 0.0000 24.0800 0.0000 0.0000
# 5 0.0000 0.0000 0.0000 0.0000 32.2984 0.0000
# 6 0.0000 0.0000 0.0000 0.0000 0.0000 30.7663
#
#
#
# Elastic Compliance Matrix: (Units=1/GPa)
#
#
# Indices 1 2 3 4 5 6 
#
# 1 0.014630 0.021854 0.004087 0.000000 0.000000 0.000000
# 2 0.021854 0.118323 0.021011 0.000000 0.000000 0.000000
# 3 0.004087 0.021011 0.012922 0.000000 0.000000 0.000000
# 4 0.000000 0.000000 0.000000 0.041528 0.000000 0.000000
# 5 0.000000 0.000000 0.000000 0.000000 0.030961 0.000000
# 6 0.000000 0.000000 0.000000 0.000000 0.000000 0.032503
#
#
# Mechanical properties :
#
#
# Convention : Reuss Voigt Hill
#
# Bulk Modulus (GPa) = 4.17047 15.77837 9.97442
# Shear Modulus (GPa) = 21.10694 34.52096 27.81395
#
# Velocity S-wave (km/s) = 3.06678 3.92204 3.52048
# Velocity P-wave (km/s) = 3.79454 5.24792 4.57926
#
# Compressibility (1/GPa) = 0.23978096
#
# Stress axis : x y z
#
# Youngs Moduli (GPa) = 68.35180 8.45144 77.38785
#
# Poissons Ratio (x) = -0.18470 -0.31631
# Poissons Ratio (y) = -1.49379 -1.62602
# Poissons Ratio (z) = -0.27937 -0.17758
#
# Static dielectric constant tensor:
#      x y z
#    x 1.935810 0.000000 0.000000 
#    y 0.000000 1.800820 0.000000 
#    z 0.000000 0.000000 1.992060 
# 
# From -- ./inp_files/16777.got.cif
#   From: 2010.05.17/outbox.cif.g08.bks.cpg/sg60_9_cif.got.tgz:16777.got - 2010.06.03 14:59:27.
