data_PCOD9454187
_publ_section_title
;
Structure prediction by ZEFSAII (Michael W. Deem and Ramdas Pophale) SiO2 
 PCOD9454187
Probable space group: P B C N
;
_chemical_formula_sum "Si O2"
_cell_formula_units_Z 64
_cell_length_a 15.301480
_cell_length_b 14.515475
_cell_length_c 11.972285
_cell_angle_alpha 90.000000
_cell_angle_beta 90.000000
_cell_angle_gamma 90.000000
_cell_volume 2659.143275
_symmetry_space_group_name_H-M "P B C N"
_symmetry_group_IT_number 60
_symmetry_cell_setting 'orthorhombic'
loop_
_space_group_symop_operation_xyz
x,y,z
1/2-x,1/2-y,1/2+z
1/2+x,1/2-y,-z
-x,y,1/2-z
-x,-y,-z
1/2+x,1/2+y,1/2-z
1/2-x,1/2+y,z
x,-y,1/2+z
loop_
_atom_site_type_symbol
_atom_site_label
_atom_site_fract_x
_atom_site_fract_y
_atom_site_fract_z
Si Si1 0.315289 0.179543 0.020141
Si Si2 0.001378 0.700551 0.564514
Si Si3 0.735338 0.666715 0.252987
Si Si4 0.066127 0.476398 0.322751
Si Si5 0.672402 0.601446 0.940226
Si Si6 0.059491 0.099891 0.352087
Si Si7 0.763813 0.377096 0.223953
Si Si8 0.154834 0.615128 0.456639
O O1 0.271138 0.138309 0.128233
O O2 0.309652 0.291239 0.025074
O O3 0.420798 0.176277 0.018551
O O4 0.266795 0.139548 0.910412
O O5 0.098394 0.692964 0.517118
O O6 0.985694 0.615713 0.646259
O O7 0.983243 0.800352 0.618416
O O8 0.652075 0.613278 0.208519
O O9 0.709789 0.774278 0.261802
O O10 0.810167 0.654412 0.160547
O O11 0.156900 0.448667 0.263391
O O12 0.088870 0.533303 0.431161
O O13 0.000000 0.535235 0.250000
O O14 0.680949 0.597958 0.804086
O O15 0.592761 0.566770 0.020905
O O16 0.765331 0.565207 0.981934
O O17 0.000000 0.057669 0.250000
#
# Coordination Sequence:
#
# PCOD9454187 Si02
#       8
#     8   8   8   8   8   8   8   8
#     4   9  18  33  55  77 106 155 199 242 285 340
#     4  10  20  33  51  83 120 165 194 221 292 369
#     4  10  20  35  55  79 113 150 203 247 296 338
#     4  11  22  34  51  84 121 171 191 228 294 379
#     4   9  19  35  53  81 105 151 196 251 287 340
#     4  10  19  33  58  88 108 143 205 247 292 349
#     4  10  18  37  56  71 109 155 203 234 282 357
#     4  11  22  33  51  83 125 151 191 247 290 349
#
# _framework density 24.067902
#
# number of rings (size 3 to 8) (size 9 to 14) (size 15 to 20)
#    0.000    2.000    5.000    1.500    5.250    0.000 
#    2.250    0.000    0.000    0.750    0.000    3.500 
#   37.500    0.250    0.000    0.000    0.000    0.000 
#
# Total GULP energy -356414.917564 kJ/mol
# GULP energy per Si atom -5568.983087 kJ/mol
# Density = 2.401312 g / cm^3
# Si number density = 24.067902 Si / 1000 Ang^3
#
#
#
# Elastic Constant Matrix: (Units=GPa)
#
#
# Indices 1 2 3 4 5 6 
#
# 1 86.4757 7.8863 61.1748 0.0000 0.0000 0.0000
# 2 7.8863 40.4271 12.5894 0.0000 0.0000 0.0000
# 3 61.1748 12.5894 124.0477 0.0000 0.0000 0.0000
# 4 0.0000 0.0000 0.0000 12.1529 0.0000 0.0000
# 5 0.0000 0.0000 0.0000 0.0000 55.8179 0.0000
# 6 0.0000 0.0000 0.0000 0.0000 0.0000 16.2068
#
#
#
# Elastic Compliance Matrix: (Units=1/GPa)
#
#
# Indices 1 2 3 4 5 6 
#
# 1 0.017783 -0.000762 -0.008692 0.000000 0.000000 0.000000
# 2 -0.000762 0.025576 -0.002220 0.000000 0.000000 0.000000
# 3 -0.008692 -0.002220 0.012573 0.000000 0.000000 0.000000
# 4 0.000000 0.000000 0.000000 0.082285 0.000000 0.000000
# 5 0.000000 0.000000 0.000000 0.000000 0.017915 0.000000
# 6 0.000000 0.000000 0.000000 0.000000 0.000000 0.061702
#
#
# Mechanical properties :
#
#
# Convention : Reuss Voigt Hill
#
# Bulk Modulus (GPa) = 30.69047 46.02795 38.35921
# Shear Modulus (GPa) = 19.83784 28.12218 23.98001
#
# Velocity S-wave (km/s) = 2.87408 3.42197 3.15992
# Velocity P-wave (km/s) = 4.87782 5.89736 5.41165
#
# Compressibility (1/GPa) = 0.03258340
#
# Stress axis : x y z
#
# Youngs Moduli (GPa) = 56.23504 39.09945 79.53361
#
# Poissons Ratio (x) = 0.02980 0.69132
# Poissons Ratio (y) = 0.04286 0.17655
# Poissons Ratio (z) = 0.48881 0.08679
#
# Static dielectric constant tensor:
#      x y z
#    x 2.318950 0.000000 0.000000 
#    y 0.000000 2.006720 0.000000 
#    z 0.000000 0.000000 2.072620 
# 
# From -- ./inp_files/12147.got.cif
#   From: 2010.05.17/outbox.cif.g08.bks.cpg/sg60_7_cif.got.tgz:12147.got - 2010.06.03 14:59:27.
