data_PCOD9454091
_publ_section_title
;
Structure prediction by ZEFSAII (Michael W. Deem and Ramdas Pophale) SiO2 
 PCOD9454091
Probable space group: P B C N
;
_chemical_formula_sum "Si O2"
_cell_formula_units_Z 52
_cell_length_a 9.498185
_cell_length_b 19.769486
_cell_length_c 13.904238
_cell_angle_alpha 90.000000
_cell_angle_beta 90.000000
_cell_angle_gamma 90.000000
_cell_volume 2610.857659
_symmetry_space_group_name_H-M "P B C N"
_symmetry_group_IT_number 60
_symmetry_cell_setting 'orthorhombic'
loop_
_space_group_symop_operation_xyz
x,y,z
1/2-x,1/2-y,1/2+z
1/2+x,1/2-y,-z
-x,y,1/2-z
-x,-y,-z
1/2+x,1/2+y,1/2-z
1/2-x,1/2+y,z
x,-y,1/2+z
loop_
_atom_site_type_symbol
_atom_site_label
_atom_site_fract_x
_atom_site_fract_y
_atom_site_fract_z
Si Si1 0.877436 0.454417 0.402173
Si Si2 0.324614 0.196107 0.372332
Si Si3 0.000000 0.643250 0.750000
Si Si4 0.862940 0.861323 0.456001
Si Si5 0.837058 0.171801 0.499901
Si Si6 0.727545 0.246163 0.818806
Si Si7 0.561599 0.902408 0.928303
O O1 0.977473 0.407475 0.337688
O O2 0.721534 0.423168 0.408275
O O3 0.879760 0.532517 0.371352
O O4 0.943641 0.438703 0.506081
O O5 0.213234 0.158800 0.443269
O O6 0.329825 0.270948 0.418364
O O7 0.284478 0.203270 0.261350
O O8 0.473135 0.157453 0.380450
O O9 0.131801 0.693072 0.739532
O O10 0.836469 0.798261 0.382445
O O11 0.026512 0.872215 0.475719
O O12 0.859274 0.213057 0.399866
O O13 0.692517 0.130874 0.485085
#
# Coordination Sequence:
#
# PCOD9454091 Si02
#       7
#     8   8   4   8   8   8   8
#     4   9  20  38  55  75 104 150 190 219 267 328
#     4  10  19  35  55  80 112 142 182 229 277 332
#     4  10  18  34  58  80 108 144 186 224 270 336
#     4   9  20  35  52  78 111 144 184 226 271 336
#     4  11  21  33  53  84 114 140 180 234 284 326
#     4  10  20  33  56  84 112 147 182 230 289 329
#     4  10  21  36  56  78 109 145 183 228 273 326
#
# _framework density 19.916827999999999
#
# number of rings (size 3 to 8) (size 9 to 14) (size 15 to 20)
#    0.000    2.154    0.000    4.615    0.000    4.308 
#    0.000    0.000    0.000    0.000    0.000    4.308 
#    0.000    0.000    0.000    0.000    0.000    0.154 
#
# Total GULP energy -289703.895314 kJ/mol
# GULP energy per Si atom -5571.228756 kJ/mol
# Density = 1.987150 g / cm^3
# Si number density = 19.916828 Si / 1000 Ang^3
#
#
#
# Elastic Constant Matrix: (Units=GPa)
#
#
# Indices 1 2 3 4 5 6 
#
# 1 63.6772 17.7730 5.3184 0.0000 0.0000 0.0000
# 2 17.7730 79.8765 0.1672 0.0000 0.0000 0.0000
# 3 5.3184 0.1672 67.8381 0.0000 0.0000 0.0000
# 4 0.0000 0.0000 0.0000 26.7314 0.0000 0.0000
# 5 0.0000 0.0000 0.0000 0.0000 21.1436 0.0000
# 6 0.0000 0.0000 0.0000 0.0000 0.0000 76.9652
#
#
#
# Elastic Compliance Matrix: (Units=1/GPa)
#
#
# Indices 1 2 3 4 5 6 
#
# 1 0.016860 -0.003749 -0.001313 0.000000 0.000000 0.000000
# 2 -0.003749 0.013353 0.000261 0.000000 0.000000 0.000000
# 3 -0.001313 0.000261 0.014843 0.000000 0.000000 0.000000
# 4 0.000000 0.000000 0.000000 0.037409 0.000000 0.000000
# 5 0.000000 0.000000 0.000000 0.000000 0.047296 0.000000
# 6 0.000000 0.000000 0.000000 0.000000 0.000000 0.012993
#
#
# Mechanical properties :
#
#
# Convention : Reuss Voigt Hill
#
# Bulk Modulus (GPa) = 28.20427 28.65657 28.43042
# Shear Modulus (GPa) = 30.45564 37.51023 33.98294
#
# Velocity S-wave (km/s) = 3.91467 4.34446 4.13515
# Velocity P-wave (km/s) = 5.88427 6.29167 6.09138
#
# Compressibility (1/GPa) = 0.03545562
#
# Stress axis : x y z
#
# Youngs Moduli (GPa) = 59.31143 74.89006 67.37070
#
# Poissons Ratio (x) = 0.28074 0.08843
# Poissons Ratio (y) = 0.22234 -0.01758
# Poissons Ratio (z) = 0.07785 -0.01954
#
# Static dielectric constant tensor:
#      x y z
#    x 1.722940 0.000000 0.000000 
#    y 0.000000 1.740260 0.000000 
#    z 0.000000 0.000000 1.735500 
# 
# From -- ./inp_files/15211.got.cif
#   From: 2010.05.17/outbox.cif.g08.bks.cpg/sg60_8_cif.got.tgz:15211.got - 2010.06.03 14:59:27.
