data_PCOD9454618
_publ_section_title
;
Structure prediction by ZEFSAII (Michael W. Deem and Ramdas Pophale) SiO2 
 PCOD9454618
Probable space group: P B C N
;
_chemical_formula_sum "Si O2"
_cell_formula_units_Z 60
_cell_length_a 8.410405
_cell_length_b 25.646342
_cell_length_c 15.383761
_cell_angle_alpha 90.000000
_cell_angle_beta 90.000000
_cell_angle_gamma 90.000000
_cell_volume 3318.217605
_symmetry_space_group_name_H-M "P B C N"
_symmetry_group_IT_number 60
_symmetry_cell_setting 'orthorhombic'
loop_
_space_group_symop_operation_xyz
x,y,z
1/2-x,1/2-y,1/2+z
1/2+x,1/2-y,-z
-x,y,1/2-z
-x,-y,-z
1/2+x,1/2+y,1/2-z
1/2-x,1/2+y,z
x,-y,1/2+z
loop_
_atom_site_type_symbol
_atom_site_label
_atom_site_fract_x
_atom_site_fract_y
_atom_site_fract_z
Si Si1 0.393827 0.864427 0.541609
Si Si2 0.595584 0.577887 0.521102
Si Si3 0.894576 0.822466 0.501991
Si Si4 0.674236 0.182616 0.277024
Si Si5 0.199123 0.604416 0.368688
Si Si6 0.544976 0.518885 0.145893
Si Si7 0.923947 0.722597 0.934183
Si Si8 0.500000 0.745845 0.250000
O O1 0.269671 0.897925 0.487986
O O2 0.318826 0.832717 0.622422
O O3 0.533192 0.899806 0.582006
O O4 0.479504 0.820763 0.485507
O O5 0.480704 0.627360 0.538213
O O6 0.562851 0.551505 0.425076
O O7 0.567428 0.536402 0.597703
O O8 0.800657 0.850424 0.581473
O O9 0.760899 0.792111 0.446541
O O10 0.023546 0.779512 0.530781
O O11 0.500000 0.206781 0.250000
O O12 0.675594 0.128516 0.225443
O O13 0.834366 0.213200 0.250938
O O14 0.292438 0.551223 0.361600
O O15 0.500000 0.517258 0.250000
O O16 0.983054 0.720936 0.836144
#
# Coordination Sequence:
#
# PCOD9454618 Si02
#       8
#     8   8   8   8   8   8   8   4
#     4  10  21  37  58  86 120 151 194 248 299 358
#     4  10  21  38  59  86 117 154 193 245 303 352
#     4  10  19  36  56  81 116 153 193 238 284 352
#     4  10  20  35  57  89 120 145 201 261 297 344
#     4   9  19  34  59  86 110 143 194 256 298 336
#     4  10  21  37  61  87 113 150 199 242 301 368
#     4  11  22  36  58  84 116 159 201 233 295 357
#     4  12  22  36  56  86 118 164 200 246 296 356
#
# _framework density 18.081996
#
# number of rings (size 3 to 8) (size 9 to 14) (size 15 to 20)
#    0.000    1.867    1.333    3.200    2.800    0.533 
#    4.800    0.000    0.000    0.000    0.000    0.000 
#    0.000    0.000    0.000    0.000    0.000    0.000 
#
# Total GULP energy -334212.467519 kJ/mol
# GULP energy per Si atom -5570.207792 kJ/mol
# Density = 1.804084 g / cm^3
# Si number density = 18.081996 Si / 1000 Ang^3
#
#
#
# Elastic Constant Matrix: (Units=GPa)
#
#
# Indices 1 2 3 4 5 6 
#
# 1 120.1068 61.2340 38.7394 0.0000 0.0000 0.0000
# 2 61.2340 98.9389 51.4763 0.0000 0.0000 0.0000
# 3 38.7394 51.4763 91.5407 0.0000 0.0000 0.0000
# 4 0.0000 0.0000 0.0000 12.7698 0.0000 0.0000
# 5 0.0000 0.0000 0.0000 0.0000 22.4208 0.0000
# 6 0.0000 0.0000 0.0000 0.0000 0.0000 13.2131
#
#
#
# Elastic Compliance Matrix: (Units=1/GPa)
#
#
# Indices 1 2 3 4 5 6 
#
# 1 0.012273 -0.006918 -0.001304 0.000000 0.000000 0.000000
# 2 -0.006918 0.018186 -0.007299 0.000000 0.000000 0.000000
# 3 -0.001304 -0.007299 0.015581 0.000000 0.000000 0.000000
# 4 0.000000 0.000000 0.000000 0.078310 0.000000 0.000000
# 5 0.000000 0.000000 0.000000 0.000000 0.044601 0.000000
# 6 0.000000 0.000000 0.000000 0.000000 0.000000 0.075683
#
#
# Mechanical properties :
#
#
# Convention : Reuss Voigt Hill
#
# Bulk Modulus (GPa) = 66.67354 68.16510 67.41932
# Shear Modulus (GPa) = 17.81417 20.28983 19.05200
#
# Velocity S-wave (km/s) = 3.14218 3.35341 3.24951
# Velocity P-wave (km/s) = 7.07936 7.26453 7.17254
#
# Compressibility (1/GPa) = 0.01499845
#
# Stress axis : x y z
#
# Youngs Moduli (GPa) = 81.47755 54.98647 64.18252
#
# Poissons Ratio (x) = 0.38037 0.08369
# Poissons Ratio (y) = 0.56363 0.46849
# Poissons Ratio (z) = 0.10625 0.40136
#
# Static dielectric constant tensor:
#      x y z
#    x 1.649030 0.000000 0.000000 
#    y 0.000000 1.603560 0.000000 
#    z 0.000000 0.000000 1.643340 
# 
# From -- ./inp_files/15382.got.cif
#   From: 2010.05.17/outbox.cif.g08.bks.cpg/sg60_8_cif.got.tgz:15382.got - 2010.06.03 14:59:27.
