data_PCOD9454388
_publ_section_title
;
Structure prediction by ZEFSAII (Michael W. Deem and Ramdas Pophale) SiO2 
 PCOD9454388
Probable space group: P B C N
;
_chemical_formula_sum "Si O2"
_cell_formula_units_Z 64
_cell_length_a 5.436915
_cell_length_b 21.232942
_cell_length_c 27.821130
_cell_angle_alpha 90.000000
_cell_angle_beta 90.000000
_cell_angle_gamma 90.000000
_cell_volume 3211.718567
_symmetry_space_group_name_H-M "P B C N"
_symmetry_group_IT_number 60
_symmetry_cell_setting 'orthorhombic'
loop_
_space_group_symop_operation_xyz
x,y,z
1/2-x,1/2-y,1/2+z
1/2+x,1/2-y,-z
-x,y,1/2-z
-x,-y,-z
1/2+x,1/2+y,1/2-z
1/2-x,1/2+y,z
x,-y,1/2+z
loop_
_atom_site_type_symbol
_atom_site_label
_atom_site_fract_x
_atom_site_fract_y
_atom_site_fract_z
Si Si1 0.826688 0.649529 0.944521
Si Si2 0.209464 0.149544 0.125762
Si Si3 0.239549 0.636387 0.235092
Si Si4 0.753120 0.220300 0.725706
Si Si5 0.535169 0.563771 0.063277
Si Si6 0.881500 0.313041 0.549787
Si Si7 0.616109 0.232346 0.620196
Si Si8 0.677028 0.572764 0.540625
O O1 0.561776 0.615158 0.944634
O O2 0.891572 0.689363 0.897312
O O3 0.057189 0.601627 0.949003
O O4 0.864903 0.692916 0.992240
O O5 0.311836 0.148717 0.178975
O O6 0.373784 0.172807 0.080790
O O7 0.114683 0.081200 0.110607
O O8 0.989754 0.198939 0.131550
O O9 0.500000 0.607344 0.250000
O O10 0.244025 0.704296 0.262486
O O11 0.000000 0.598264 0.250000
O O12 0.500000 0.197070 0.750000
O O13 0.745286 0.209556 0.668526
O O14 0.000000 0.194614 0.750000
O O15 0.720256 0.622835 0.056895
O O16 0.658458 0.496100 0.063831
O O17 0.358331 0.564258 0.016710
O O18 0.784402 0.248916 0.574389
#
# Coordination Sequence:
#
# PCOD9454388 Si02
#       8
#     8   8   8   8   8   8   8   8
#     4  11  25  38  57  83 122 164 196 236 283 346
#     4  11  20  35  57  87 116 152 192 235 306 357
#     4  10  19  33  51  77 114 140 179 234 285 350
#     4  10  19  35  54  78 109 149 191 239 285 342
#     4   9  21  36  61  82 111 155 199 250 282 336
#     4  10  22  34  55  85 120 155 194 233 299 355
#     4  11  24  35  55  86 124 158 191 237 301 373
#     4  10  22  42  57  82 115 156 209 240 275 331
#
# _framework density 19.927028
#
# number of rings (size 3 to 8) (size 9 to 14) (size 15 to 20)
#    0.000    1.750    3.750    1.500    7.000    1.500 
#    0.000    0.000    0.000    0.000    0.000    5.250 
#    0.000    0.000    0.000    0.000    0.000    0.000 
#
# Total GULP energy -356613.149637 kJ/mol
# GULP energy per Si atom -5572.080463 kJ/mol
# Density = 1.988167 g / cm^3
# Si number density = 19.927028 Si / 1000 Ang^3
#
#
#
# Elastic Constant Matrix: (Units=GPa)
#
#
# Indices 1 2 3 4 5 6 
#
# 1 83.2521 -2.0921 2.8983 0.0000 0.0000 0.0000
# 2 -2.0921 33.1657 8.1211 0.0000 0.0000 0.0000
# 3 2.8983 8.1211 90.0482 0.0000 0.0000 0.0000
# 4 0.0000 0.0000 0.0000 5.2639 0.0000 0.0000
# 5 0.0000 0.0000 0.0000 0.0000 25.5470 0.0000
# 6 0.0000 0.0000 0.0000 0.0000 0.0000 16.4439
#
#
#
# Elastic Compliance Matrix: (Units=1/GPa)
#
#
# Indices 1 2 3 4 5 6 
#
# 1 0.012050 0.000874 -0.000467 0.000000 0.000000 0.000000
# 2 0.000874 0.030896 -0.002815 0.000000 0.000000 0.000000
# 3 -0.000467 -0.002815 0.011374 0.000000 0.000000 0.000000
# 4 0.000000 0.000000 0.000000 0.189975 0.000000 0.000000
# 5 0.000000 0.000000 0.000000 0.000000 0.039144 0.000000
# 6 0.000000 0.000000 0.000000 0.000000 0.000000 0.060813
#
#
# Mechanical properties :
#
#
# Convention : Reuss Voigt Hill
#
# Bulk Modulus (GPa) = 20.19946 24.92451 22.56199
# Shear Modulus (GPa) = 13.67738 22.62019 18.14878
#
# Velocity S-wave (km/s) = 2.62271 3.37286 3.02116
# Velocity P-wave (km/s) = 4.39662 5.26339 4.84941
#
# Compressibility (1/GPa) = 0.04950628
#
# Stress axis : x y z
#
# Youngs Moduli (GPa) = 82.98807 32.36663 87.91967
#
# Poissons Ratio (x) = -0.02830 0.04103
# Poissons Ratio (y) = -0.07257 0.24745
# Poissons Ratio (z) = 0.03873 0.09110
#
# Static dielectric constant tensor:
#      x y z
#    x 1.823210 0.000000 0.000000 
#    y 0.000000 1.679850 0.000000 
#    z 0.000000 0.000000 1.790140 
# 
# From -- ./inp_files/23765.got.cif
#   From: 2010.05.17/outbox.cif.g08.bks.cpg/sg60_12_cif.got.tgz:23765.got - 2010.06.03 14:59:27.
