data_PCOD9454287
_publ_section_title
;
Structure prediction by ZEFSAII (Michael W. Deem and Ramdas Pophale) SiO2 
 PCOD9454287
Probable space group: P B C N
;
_chemical_formula_sum "Si O2"
_cell_formula_units_Z 64
_cell_length_a 7.282075
_cell_length_b 24.880023
_cell_length_c 14.753772
_cell_angle_alpha 90.000000
_cell_angle_beta 90.000000
_cell_angle_gamma 90.000000
_cell_volume 2673.061758
_symmetry_space_group_name_H-M "P B C N"
_symmetry_group_IT_number 60
_symmetry_cell_setting 'orthorhombic'
loop_
_space_group_symop_operation_xyz
x,y,z
1/2-x,1/2-y,1/2+z
1/2+x,1/2-y,-z
-x,y,1/2-z
-x,-y,-z
1/2+x,1/2+y,1/2-z
1/2-x,1/2+y,z
x,-y,1/2+z
loop_
_atom_site_type_symbol
_atom_site_label
_atom_site_fract_x
_atom_site_fract_y
_atom_site_fract_z
Si Si1 0.738138 0.555968 0.360707
Si Si2 0.218707 0.661624 0.777412
Si Si3 0.693942 0.340069 0.755562
Si Si4 0.791821 0.754564 0.367277
Si Si5 0.283741 0.960687 0.273377
Si Si6 0.609665 0.114079 0.080093
Si Si7 0.215809 0.493873 0.972146
Si Si8 0.068199 0.294612 0.454416
O O1 0.647699 0.607657 0.316232
O O2 0.712361 0.504997 0.296144
O O3 0.681314 0.532339 0.457417
O O4 0.948480 0.578819 0.370766
O O5 0.322987 0.697437 0.703075
O O6 0.283414 0.600264 0.771110
O O7 0.218368 0.685453 0.880301
O O8 0.000000 0.660778 0.750000
O O9 0.500000 0.310381 0.750000
O O10 0.821329 0.300577 0.812926
O O11 0.781066 0.355928 0.659835
O O12 0.882703 0.746082 0.464766
O O13 0.582987 0.764173 0.396715
O O14 0.500000 0.958489 0.250000
O O15 0.256131 0.983719 0.372849
O O16 0.739191 0.070338 0.030233
O O17 0.518036 0.153213 0.005805
O O18 0.000000 0.500000 0.000000
#
# Coordination Sequence:
#
# PCOD9454287 Si02
#       8
#     8   8   8   8   8   8   8   8
#     4  11  21  38  63 103 126 165 211 270 327 383
#     4   9  21  38  59  94 129 170 206 270 332 378
#     4  12  25  43  64  91 134 176 220 274 327 386
#     4  11  26  43  66  92 132 170 224 276 328 392
#     4  11  17  31  58  91 131 154 198 261 316 381
#     4  11  22  40  68 100 126 165 224 270 324 397
#     4  10  19  30  60  98 127 150 206 262 316 381
#     4  11  24  43  68  97 129 172 224 272 337 395
#
# _framework density 23.942581000000001
#
# number of rings (size 3 to 8) (size 9 to 14) (size 15 to 20)
#    0.000    1.250    5.000    3.000    7.000    0.000 
#    0.000    0.625    0.000    1.500    0.000    0.000 
#    0.000    0.000    0.000    0.000    0.000    0.000 
#
# Total GULP energy -357639.101123 kJ/mol
# GULP energy per Si atom -5588.110955 kJ/mol
# Density = 2.388809 g / cm^3
# Si number density = 23.942581 Si / 1000 Ang^3
#
#
#
# Elastic Constant Matrix: (Units=GPa)
#
#
# Indices 1 2 3 4 5 6 
#
# 1 47.0961 7.1622 16.0294 0.0000 0.0000 0.0000
# 2 7.1622 141.1423 66.5191 0.0000 0.0000 0.0000
# 3 16.0294 66.5191 158.5411 0.0000 0.0000 0.0000
# 4 0.0000 0.0000 0.0000 46.8445 0.0000 0.0000
# 5 0.0000 0.0000 0.0000 0.0000 34.5290 0.0000
# 6 0.0000 0.0000 0.0000 0.0000 0.0000 -47.3299
#
#
#
# Elastic Compliance Matrix: (Units=1/GPa)
#
#
# Indices 1 2 3 4 5 6 
#
# 1 0.021991 -0.000085 -0.002188 0.000000 0.000000 0.000000
# 2 -0.000085 0.008832 -0.003697 0.000000 0.000000 0.000000
# 3 -0.002188 -0.003697 0.008080 0.000000 0.000000 0.000000
# 4 0.000000 0.000000 0.000000 0.021347 0.000000 0.000000
# 5 0.000000 0.000000 0.000000 0.000000 0.028961 0.000000
# 6 0.000000 0.000000 0.000000 0.000000 0.000000 -0.021128
#
#
# Mechanical properties :
#
#
# Convention : Reuss Voigt Hill
#
# Bulk Modulus (GPa) = 37.08768 58.46675 47.77722
# Shear Modulus (GPa) = 56.17403 23.94664 40.06034
#
# Velocity S-wave (km/s) = 4.84901 3.16598 4.09489
# Velocity P-wave (km/s) = 6.84649 6.15119 6.50813
#
# Compressibility (1/GPa) = 0.02696313
#
# Stress axis : x y z
#
# Youngs Moduli (GPa) = 45.47377 113.22862 123.76489
#
# Poissons Ratio (x) = 0.00960 0.27077
# Poissons Ratio (y) = 0.00386 0.45755
# Poissons Ratio (z) = 0.09949 0.41860
#
# Static dielectric constant tensor:
#      x y z
#    x 2.029580 0.000000 0.000000 
#    y 0.000000 1.922250 0.000000 
#    z 0.000000 0.000000 1.897450 
# 
# From -- ./inp_files/15398.got.cif
#   From: 2010.05.17/outbox.cif.g08.bks.cpg/sg60_8_cif.got.tgz:15398.got - 2010.06.03 14:59:27.
