data_PCOD9454556
_publ_section_title
;
Structure prediction by ZEFSAII (Michael W. Deem and Ramdas Pophale) SiO2 
 PCOD9454556
Probable space group: P B C N
;
_chemical_formula_sum "Si O2"
_cell_formula_units_Z 40
_cell_length_a 5.032124
_cell_length_b 16.165844
_cell_length_c 25.083166
_cell_angle_alpha 90.000000
_cell_angle_beta 90.000000
_cell_angle_gamma 90.000000
_cell_volume 2040.478721
_symmetry_space_group_name_H-M "P B C N"
_symmetry_group_IT_number 60
_symmetry_cell_setting 'orthorhombic'
loop_
_space_group_symop_operation_xyz
x,y,z
1/2-x,1/2-y,1/2+z
1/2+x,1/2-y,-z
-x,y,1/2-z
-x,-y,-z
1/2+x,1/2+y,1/2-z
1/2-x,1/2+y,z
x,-y,1/2+z
loop_
_atom_site_type_symbol
_atom_site_label
_atom_site_fract_x
_atom_site_fract_y
_atom_site_fract_z
Si Si1 0.000000 0.683267 0.250000
Si Si2 0.745666 0.533334 0.967169
Si Si3 0.000000 0.938774 0.750000
Si Si4 0.952659 0.062742 0.365535
Si Si5 0.042672 0.683795 0.365777
Si Si6 0.902083 0.221547 0.970437
O O1 0.248671 0.621531 0.248757
O O2 0.050170 0.726668 0.307073
O O3 0.673790 0.498989 0.908591
O O4 0.732465 0.632105 0.966710
O O5 0.500000 0.500000 0.000000
O O6 0.000000 0.500000 0.000000
O O7 0.005110 0.981088 0.692123
O O8 0.729933 0.133276 0.363241
O O9 0.223796 0.115575 0.375912
O O10 0.020105 0.746034 0.414781
O O11 0.658321 0.279201 0.990486
#
# Coordination Sequence:
#
# PCOD9454556 Si02
#       6
#     4   8   4   8   8   8
#     4   8  16  30  53  80 105 138 180 222 270 328
#     4  12  24  38  56  81 112 148 186 229 278 330
#     4   8  16  30  53  80 105 138 180 222 270 328
#     4  10  19  35  57  81 109 143 184 228 273 329
#     4  10  19  35  57  81 109 143 184 228 273 329
#     4  12  24  38  56  81 112 148 186 229 277 328
#
# _framework density 19.603242000000002
#
# number of rings (size 3 to 8) (size 9 to 14) (size 15 to 20)
#    0.000    1.600    0.000    7.200    0.000    0.000 
#    0.000    1.000    0.000    0.000    0.000   22.400 
#    0.000    0.000    0.000    0.000    0.000    0.000 
#
# Total GULP energy -222669.611061 kJ/mol
# GULP energy per Si atom -5566.740277 kJ/mol
# Density = 1.955862 g / cm^3
# Si number density = 19.603242 Si / 1000 Ang^3
#
#
#
# Elastic Constant Matrix: (Units=GPa)
#
#
# Indices 1 2 3 4 5 6 
#
# 1 123.5702 5.6587 37.2431 0.0000 0.0000 0.0000
# 2 5.6587 59.8824 52.3421 0.0000 0.0000 0.0000
# 3 37.2431 52.3421 183.8040 0.0000 0.0000 0.0000
# 4 0.0000 0.0000 0.0000 19.7703 0.0000 0.0000
# 5 0.0000 0.0000 0.0000 0.0000 28.6002 0.0000
# 6 0.0000 0.0000 0.0000 0.0000 0.0000 17.3048
#
#
#
# Elastic Compliance Matrix: (Units=1/GPa)
#
#
# Indices 1 2 3 4 5 6 
#
# 1 0.008660 0.000952 -0.002026 0.000000 0.000000 0.000000
# 2 0.000952 0.022338 -0.006554 0.000000 0.000000 0.000000
# 3 -0.002026 -0.006554 0.007718 0.000000 0.000000 0.000000
# 4 0.000000 0.000000 0.000000 0.050581 0.000000 0.000000
# 5 0.000000 0.000000 0.000000 0.000000 0.034965 0.000000
# 6 0.000000 0.000000 0.000000 0.000000 0.000000 0.057788
#
#
# Mechanical properties :
#
#
# Convention : Reuss Voigt Hill
#
# Bulk Modulus (GPa) = 42.62569 61.97160 52.29864
# Shear Modulus (GPa) = 24.37549 31.26924 27.82237
#
# Velocity S-wave (km/s) = 3.53007 3.99821 3.77141
# Velocity P-wave (km/s) = 6.19731 7.27982 6.76027
#
# Compressibility (1/GPa) = 0.02346003
#
# Stress axis : x y z
#
# Youngs Moduli (GPa) = 115.47974 44.76593 129.57474
#
# Poissons Ratio (x) = -0.04264 0.26250
# Poissons Ratio (y) = -0.10999 0.84928
# Poissons Ratio (z) = 0.23395 0.29341
#
# Static dielectric constant tensor:
#      x y z
#    x 1.671290 0.000000 0.000000 
#    y 0.000000 1.683480 0.000000 
#    z 0.000000 0.000000 1.854180 
# 
# From -- ./inp_files/23564.got.cif
#   From: 2010.05.17/outbox.cif.g08.bks.cpg/sg60_12_cif.got.tgz:23564.got - 2010.06.03 14:59:27.
