data_PCOD9454598
_publ_section_title
;
Structure prediction by ZEFSAII (Michael W. Deem and Ramdas Pophale) SiO2 
 PCOD9454598
Probable space group: P B C N
;
_chemical_formula_sum "Si O2"
_cell_formula_units_Z 64
_cell_length_a 16.673264
_cell_length_b 9.488882
_cell_length_c 17.899021
_cell_angle_alpha 90.000000
_cell_angle_beta 90.000000
_cell_angle_gamma 90.000000
_cell_volume 2831.815472
_symmetry_space_group_name_H-M "P B C N"
_symmetry_group_IT_number 60
_symmetry_cell_setting 'orthorhombic'
loop_
_space_group_symop_operation_xyz
x,y,z
1/2-x,1/2-y,1/2+z
1/2+x,1/2-y,-z
-x,y,1/2-z
-x,-y,-z
1/2+x,1/2+y,1/2-z
1/2-x,1/2+y,z
x,-y,1/2+z
loop_
_atom_site_type_symbol
_atom_site_label
_atom_site_fract_x
_atom_site_fract_y
_atom_site_fract_z
Si Si1 0.815077 0.427997 0.780298
Si Si2 0.918354 0.110745 0.087865
Si Si3 0.049008 0.124937 0.576309
Si Si4 0.808192 0.134670 0.814799
Si Si5 0.884957 0.395238 0.157109
Si Si6 0.810642 0.466815 0.432887
Si Si7 0.780844 0.104157 0.574765
Si Si8 0.408440 0.845112 0.946916
O O1 0.811360 0.265830 0.758678
O O2 0.726425 0.495090 0.776184
O O3 0.874768 0.532813 0.737839
O O4 0.835786 0.424577 0.868314
O O5 0.925547 0.245886 0.140809
O O6 0.844909 0.007569 0.106769
O O7 0.902208 0.147099 0.000618
O O8 0.000336 0.022045 0.081507
O O9 0.106661 0.123114 0.646693
O O10 0.981917 0.244287 0.569758
O O11 0.742193 0.143088 0.883073
O O12 0.794665 0.374383 0.127209
O O13 0.917576 0.519168 0.104659
O O14 0.756576 0.541801 0.496787
O O15 0.889305 0.401003 0.470249
O O16 0.828616 0.250214 0.565975
#
# Coordination Sequence:
#
# PCOD9454598 Si02
#       8
#     8   8   8   8   8   8   8   8
#     4  10  24  39  66  91 129 170 230 271 328 398
#     4  10  21  38  64  95 134 166 215 269 346 401
#     4  10  22  42  65  97 132 176 214 273 341 414
#     4  10  22  41  67  94 128 174 220 278 327 402
#     4  11  23  38  62  99 129 171 218 283 327 392
#     4   9  19  35  64  95 122 165 222 279 320 392
#     4  10  19  35  64  97 128 159 219 280 330 381
#     4  10  22  36  65  97 130 165 217 281 339 387
#
# _framework density 22.600342000000001
#
# number of rings (size 3 to 8) (size 9 to 14) (size 15 to 20)
#    0.750    1.250    1.250    2.250    7.000    0.500 
#    0.000    0.625    0.000    1.500    0.000    0.000 
#    0.000    0.000    0.000    0.000    0.000    0.000 
#
# Total GULP energy -357014.937268 kJ/mol
# GULP energy per Si atom -5578.358395 kJ/mol
# Density = 2.254890 g / cm^3
# Si number density = 22.600342 Si / 1000 Ang^3
#
#
#
# Elastic Constant Matrix: (Units=GPa)
#
#
# Indices 1 2 3 4 5 6 
#
# 1 43.6280 8.3474 6.4667 0.0000 0.0000 0.0000
# 2 8.3474 94.4261 9.5982 0.0000 0.0000 0.0000
# 3 6.4667 9.5982 63.5094 0.0000 0.0000 0.0000
# 4 0.0000 0.0000 0.0000 27.7465 0.0000 0.0000
# 5 0.0000 0.0000 0.0000 0.0000 13.7137 0.0000
# 6 0.0000 0.0000 0.0000 0.0000 0.0000 18.4735
#
#
#
# Elastic Compliance Matrix: (Units=1/GPa)
#
#
# Indices 1 2 3 4 5 6 
#
# 1 0.023593 -0.001870 -0.002120 0.000000 0.000000 0.000000
# 2 -0.001870 0.010904 -0.001457 0.000000 0.000000 0.000000
# 3 -0.002120 -0.001457 0.016182 0.000000 0.000000 0.000000
# 4 0.000000 0.000000 0.000000 0.036041 0.000000 0.000000
# 5 0.000000 0.000000 0.000000 0.000000 0.072920 0.000000
# 6 0.000000 0.000000 0.000000 0.000000 0.000000 0.054132
#
#
# Mechanical properties :
#
#
# Convention : Reuss Voigt Hill
#
# Bulk Modulus (GPa) = 25.13576 27.82090 26.47833
# Shear Modulus (GPa) = 21.01489 23.79682 22.40586
#
# Velocity S-wave (km/s) = 3.05265 3.24843 3.15206
# Velocity P-wave (km/s) = 4.85499 5.13871 4.99886
#
# Compressibility (1/GPa) = 0.03978396
#
# Stress axis : x y z
#
# Youngs Moduli (GPa) = 42.38537 91.71142 61.79783
#
# Poissons Ratio (x) = 0.17152 0.13099
# Poissons Ratio (y) = 0.07927 0.09007
# Poissons Ratio (z) = 0.08984 0.13367
#
# Static dielectric constant tensor:
#      x y z
#    x 1.833220 0.000000 0.000000 
#    y 0.000000 1.908930 0.000000 
#    z 0.000000 0.000000 1.907490 
# 
# From -- ./inp_files/23087.got.cif
#   From: 2010.05.17/outbox.cif.g08.bks.cpg/sg60_12_cif.got.tgz:23087.got - 2010.06.03 14:59:27.
