data_PCOD9454294
_publ_section_title
;
Structure prediction by ZEFSAII (Michael W. Deem and Ramdas Pophale) SiO2 
 PCOD9454294
Probable space group: P B C N
;
_chemical_formula_sum "Si O2"
_cell_formula_units_Z 64
_cell_length_a 27.718582
_cell_length_b 23.711075
_cell_length_c 5.162893
_cell_angle_alpha 90.000000
_cell_angle_beta 90.000000
_cell_angle_gamma 90.000000
_cell_volume 3393.246251
_symmetry_space_group_name_H-M "P B C N"
_symmetry_group_IT_number 60
_symmetry_cell_setting 'orthorhombic'
loop_
_space_group_symop_operation_xyz
x,y,z
1/2-x,1/2-y,1/2+z
1/2+x,1/2-y,-z
-x,y,1/2-z
-x,-y,-z
1/2+x,1/2+y,1/2-z
1/2-x,1/2+y,z
x,-y,1/2+z
loop_
_atom_site_type_symbol
_atom_site_label
_atom_site_fract_x
_atom_site_fract_y
_atom_site_fract_z
Si Si1 0.763530 0.216337 0.037257
Si Si2 0.727246 0.533198 0.922631
Si Si3 0.529697 0.266440 0.499493
Si Si4 0.859507 0.267099 0.939217
Si Si5 0.167418 0.336758 0.061614
Si Si6 0.659545 0.962827 0.488862
Si Si7 0.029027 0.097569 0.499791
Si Si8 0.370956 0.538423 0.436550
O O1 0.744633 0.264325 0.833621
O O2 0.820593 0.216390 0.978634
O O3 0.725950 0.166237 0.978814
O O4 0.721630 0.520837 0.618040
O O5 0.782482 0.546147 0.976661
O O6 0.680924 0.568262 0.015476
O O7 0.500000 0.246735 0.250000
O O8 0.585343 0.248678 0.489213
O O9 0.529054 0.334570 0.499233
O O10 0.500000 0.247074 0.750000
O O11 0.852614 0.293619 0.654716
O O12 0.843546 0.313322 0.153077
O O13 0.143486 0.397956 0.023147
O O14 0.646791 0.997826 0.745004
O O15 0.083467 0.076993 0.487407
O O16 0.000000 0.077380 0.750000
O O17 0.000000 0.077420 0.250000
O O18 0.373133 0.511228 0.152294
#
# Coordination Sequence:
#
# PCOD9454294 Si02
#       8
#     8   8   8   8   8   8   8   8
#     4   8  16  29  46  71 102 132 162 201 246 291
#     4   8  16  29  43  61  88 124 161 194 226 267
#     4  10  21  37  54  73 100 131 166 211 260 312
#     4  10  19  34  54  77 104 133 169 215 261 298
#     4  10  19  32  52  79 108 136 171 207 245 303
#     4  10  19  32  49  72 106 140 165 193 234 285
#     4  10  21  34  47  66  91 122 160 204 260 309
#     4  10  19  31  47  67  91 122 168 214 246 286
#
# _framework density 18.860996
#
# number of rings (size 3 to 8) (size 9 to 14) (size 15 to 20)
#    0.000    2.500    0.000    2.250    0.000    2.500 
#    0.000    0.000    0.000   15.000    0.000    0.000 
#    0.000   35.000    0.000    0.000    0.000    0.000 
#
# Total GULP energy -356409.437519 kJ/mol
# GULP energy per Si atom -5568.897461 kJ/mol
# Density = 1.881807 g / cm^3
# Si number density = 18.860996 Si / 1000 Ang^3
#
#
#
# Elastic Constant Matrix: (Units=GPa)
#
#
# Indices 1 2 3 4 5 6 
#
# 1 87.1549 -12.8422 12.2802 0.0000 0.0000 0.0000
# 2 -12.8422 36.3786 6.0015 0.0000 0.0000 0.0000
# 3 12.2802 6.0015 100.7767 0.0000 0.0000 0.0000
# 4 0.0000 0.0000 0.0000 4.4559 0.0000 0.0000
# 5 0.0000 0.0000 0.0000 0.0000 16.1523 0.0000
# 6 0.0000 0.0000 0.0000 0.0000 0.0000 9.7764
#
#
#
# Elastic Compliance Matrix: (Units=1/GPa)
#
#
# Indices 1 2 3 4 5 6 
#
# 1 0.012416 0.004678 -0.001792 0.000000 0.000000 0.000000
# 2 0.004678 0.029524 -0.002328 0.000000 0.000000 0.000000
# 3 -0.001792 -0.002328 0.010280 0.000000 0.000000 0.000000
# 4 0.000000 0.000000 0.000000 0.224421 0.000000 0.000000
# 5 0.000000 0.000000 0.000000 0.000000 0.061911 0.000000
# 6 0.000000 0.000000 0.000000 0.000000 0.000000 0.102287
#
#
# Mechanical properties :
#
#
# Convention : Reuss Voigt Hill
#
# Bulk Modulus (GPa) = 18.74871 26.13216 22.44043
# Shear Modulus (GPa) = 10.92894 20.66830 15.79862
#
# Velocity S-wave (km/s) = 2.40978 3.31391 2.89733
# Velocity P-wave (km/s) = 4.20770 5.34115 4.80794
#
# Compressibility (1/GPa) = 0.05333700
#
# Stress axis : x y z
#
# Youngs Moduli (GPa) = 80.54376 33.87032 97.27723
#
# Poissons Ratio (x) = -0.15846 0.17428
# Poissons Ratio (y) = -0.37682 0.22650
# Poissons Ratio (z) = 0.14430 0.07886
#
# Static dielectric constant tensor:
#      x y z
#    x 1.676240 0.000000 0.000000 
#    y 0.000000 1.659920 0.000000 
#    z 0.000000 0.000000 1.662980 
# 
# From -- ./inp_files/2454.got.cif
#   From: 2010.05.17/outbox.cif.g08.bks.cpg/sg60_2_cif.got.tgz:2454.got - 2010.06.03 14:59:27.
