data_PCOD9454872
_publ_section_title
;
Structure prediction by ZEFSAII (Michael W. Deem and Ramdas Pophale) SiO2 
 PCOD9454872
Probable space group: P B C N
;
_chemical_formula_sum "Si O2"
_cell_formula_units_Z 56
_cell_length_a 14.961710
_cell_length_b 20.274970
_cell_length_c 8.593751
_cell_angle_alpha 90.000000
_cell_angle_beta 90.000000
_cell_angle_gamma 90.000000
_cell_volume 2606.899081
_symmetry_space_group_name_H-M "P B C N"
_symmetry_group_IT_number 60
_symmetry_cell_setting 'orthorhombic'
loop_
_space_group_symop_operation_xyz
x,y,z
1/2-x,1/2-y,1/2+z
1/2+x,1/2-y,-z
-x,y,1/2-z
-x,-y,-z
1/2+x,1/2+y,1/2-z
1/2-x,1/2+y,z
x,-y,1/2+z
loop_
_atom_site_type_symbol
_atom_site_label
_atom_site_fract_x
_atom_site_fract_y
_atom_site_fract_z
Si Si1 0.252431 0.091323 0.952451
Si Si2 0.373152 0.222030 0.373641
Si Si3 0.035064 0.585834 0.919079
Si Si4 0.028704 0.743969 0.920746
Si Si5 0.767553 0.522937 0.848183
Si Si6 0.118872 0.572635 0.368171
Si Si7 0.780459 0.259314 0.939779
O O1 0.359743 0.078759 0.940721
O O2 0.222982 0.071912 0.777117
O O3 0.248305 0.165222 0.020557
O O4 0.211926 0.034240 0.063032
O O5 0.460465 0.259791 0.437062
O O6 0.388728 0.147873 0.312036
O O7 0.315528 0.252286 0.234072
O O8 0.306252 0.217279 0.519602
O O9 0.018532 0.664647 0.920172
O O10 0.000000 0.564759 0.750000
O O11 0.978142 0.558042 0.062357
O O12 0.000000 0.768848 0.750000
O O13 0.132257 0.757347 0.956654
O O14 0.837127 0.475599 0.755302
O O15 0.817380 0.565119 0.980084
#
# Coordination Sequence:
#
# PCOD9454872 Si02
#       7
#     8   8   8   8   8   8   8
#     4  10  20  32  45  68  97 134 175 209 260 297
#     4  11  22  36  56  78 107 141 180 221 268 320
#     4   9  16  27  44  63  96 132 171 209 243 292
#     4   9  19  35  54  76 105 139 175 223 270 305
#     4  10  20  31  46  64  98 135 172 218 242 307
#     4  10  20  32  45  68  97 134 175 209 260 297
#     4  11  22  36  56  78 107 141 180 221 268 320
#
# _framework density 21.481460999999999
#
# number of rings (size 3 to 8) (size 9 to 14) (size 15 to 20)
#    0.000    2.000    2.857    1.286    4.000    4.000 
#    0.000    0.000    0.000    0.000    0.000    0.000 
#    0.000    6.857    0.000    0.000    0.000    0.000 
#
# Total GULP energy -312317.314512 kJ/mol
# GULP energy per Si atom -5577.094902 kJ/mol
# Density = 2.143257 g / cm^3
# Si number density = 21.481461 Si / 1000 Ang^3
#
#
#
# Elastic Constant Matrix: (Units=GPa)
#
#
# Indices 1 2 3 4 5 6 
#
# 1 35.5423 -1.7443 -10.5676 0.0000 0.0000 0.0000
# 2 -1.7443 40.2941 -1.7729 0.0000 0.0000 0.0000
# 3 -10.5676 -1.7729 78.8895 0.0000 0.0000 0.0000
# 4 0.0000 0.0000 0.0000 29.2123 0.0000 0.0000
# 5 0.0000 0.0000 0.0000 0.0000 27.3363 0.0000
# 6 0.0000 0.0000 0.0000 0.0000 0.0000 11.7953
#
#
#
# Elastic Compliance Matrix: (Units=1/GPa)
#
#
# Indices 1 2 3 4 5 6 
#
# 1 0.029387 0.001447 0.003969 0.000000 0.000000 0.000000
# 2 0.001447 0.024913 0.000754 0.000000 0.000000 0.000000
# 3 0.003969 0.000754 0.013225 0.000000 0.000000 0.000000
# 4 0.000000 0.000000 0.000000 0.034232 0.000000 0.000000
# 5 0.000000 0.000000 0.000000 0.000000 0.036581 0.000000
# 6 0.000000 0.000000 0.000000 0.000000 0.000000 0.084779
#
#
# Mechanical properties :
#
#
# Convention : Reuss Voigt Hill
#
# Bulk Modulus (GPa) = 12.52143 14.06183 13.29163
# Shear Modulus (GPa) = 21.06154 24.92285 22.99220
#
# Velocity S-wave (km/s) = 3.13461 3.40987 3.27514
# Velocity P-wave (km/s) = 4.35232 4.69715 4.52802
#
# Compressibility (1/GPa) = 0.07986311
#
# Stress axis : x y z
#
# Youngs Moduli (GPa) = 34.02920 40.13921 75.61694
#
# Poissons Ratio (x) = -0.05807 -0.30012
# Poissons Ratio (y) = -0.04923 -0.05699
# Poissons Ratio (z) = -0.13506 -0.03025
#
# Static dielectric constant tensor:
#      x y z
#    x 1.779330 0.000000 0.000000 
#    y 0.000000 1.858480 0.000000 
#    z 0.000000 0.000000 1.912760 
# 
# From -- ./inp_files/7060.got.cif
#   From: 2010.05.17/outbox.cif.g08.bks.cpg/sg60_4_cif.got.tgz:7060.got - 2010.06.03 14:59:27.
