data_PCOD9454846
_publ_section_title
;
Structure prediction by ZEFSAII (Michael W. Deem and Ramdas Pophale) SiO2 
 PCOD9454846
Probable space group: P B C N
;
_chemical_formula_sum "Si O2"
_cell_formula_units_Z 40
_cell_length_a 8.946588
_cell_length_b 14.064986
_cell_length_c 13.715201
_cell_angle_alpha 90.000000
_cell_angle_beta 90.000000
_cell_angle_gamma 90.000000
_cell_volume 1725.833596
_symmetry_space_group_name_H-M "P B C N"
_symmetry_group_IT_number 60
_symmetry_cell_setting 'orthorhombic'
loop_
_space_group_symop_operation_xyz
x,y,z
1/2-x,1/2-y,1/2+z
1/2+x,1/2-y,-z
-x,y,1/2-z
-x,-y,-z
1/2+x,1/2+y,1/2-z
1/2-x,1/2+y,z
x,-y,1/2+z
loop_
_atom_site_type_symbol
_atom_site_label
_atom_site_fract_x
_atom_site_fract_y
_atom_site_fract_z
Si Si1 0.670240 0.815051 0.231844
Si Si2 0.243698 0.462764 0.765403
Si Si3 0.962966 0.997219 0.886273
Si Si4 0.637501 0.300902 0.409072
Si Si5 0.345844 0.811078 0.911355
O O1 0.500000 0.788165 0.250000
O O2 0.760761 0.767745 0.320595
O O3 0.746453 0.772769 0.136220
O O4 0.682406 0.929629 0.231615
O O5 0.310576 0.449910 0.655526
O O6 0.395380 0.456971 0.829811
O O7 0.140382 0.391162 0.826992
O O8 0.946445 0.108450 0.863147
O O9 0.000000 0.000000 0.000000
O O10 0.748866 0.337419 0.493582
O O11 0.509079 0.227882 0.439763
#
# Coordination Sequence:
#
# PCOD9454846 Si02
#       5
#     8   8   8   8   8
#     4  11  25  45  64  95 139 177 226 288 346 408
#     4  10  23  40  69  96 133 181 228 281 343 418
#     4  10  19  41  69  97 132 180 230 279 347 412
#     4  11  24  43  69  99 138 178 223 295 344 414
#     4  12  24  43  70 103 134 181 233 280 354 422
#
# _framework density 23.177204
#
# number of rings (size 3 to 8) (size 9 to 14) (size 15 to 20)
#    0.000    1.200    4.000    1.800    2.800    3.200 
#    0.000    6.000    0.000    0.000    0.000    0.000 
#    0.000    0.000    0.000    0.000    0.000    0.000 
#
# Total GULP energy -223300.029633 kJ/mol
# GULP energy per Si atom -5582.500741 kJ/mol
# Density = 2.312445 g / cm^3
# Si number density = 23.177204 Si / 1000 Ang^3
#
#
#
# Elastic Constant Matrix: (Units=GPa)
#
#
# Indices 1 2 3 4 5 6 
#
# 1 63.1593 -1.3223 -0.4169 0.0000 0.0000 0.0000
# 2 -1.3223 71.4040 -10.7439 0.0000 0.0000 0.0000
# 3 -0.4169 -10.7439 98.6122 0.0000 0.0000 0.0000
# 4 0.0000 0.0000 0.0000 27.1716 0.0000 0.0000
# 5 0.0000 0.0000 0.0000 0.0000 32.3869 0.0000
# 6 0.0000 0.0000 0.0000 0.0000 0.0000 21.3327
#
#
#
# Elastic Compliance Matrix: (Units=1/GPa)
#
#
# Indices 1 2 3 4 5 6 
#
# 1 0.015840 0.000308 0.000101 0.000000 0.000000 0.000000
# 2 0.000308 0.014244 0.001553 0.000000 0.000000 0.000000
# 3 0.000101 0.001553 0.010310 0.000000 0.000000 0.000000
# 4 0.000000 0.000000 0.000000 0.036803 0.000000 0.000000
# 5 0.000000 0.000000 0.000000 0.000000 0.030877 0.000000
# 6 0.000000 0.000000 0.000000 0.000000 0.000000 0.046876
#
#
# Mechanical properties :
#
#
# Convention : Reuss Voigt Hill
#
# Bulk Modulus (GPa) = 22.56354 23.13436 22.84895
# Shear Modulus (GPa) = 30.15690 32.55547 31.35618
#
# Velocity S-wave (km/s) = 3.61105 3.75191 3.68215
# Velocity P-wave (km/s) = 5.20986 5.36398 5.28748
#
# Compressibility (1/GPa) = 0.04431929
#
# Stress axis : x y z
#
# Youngs Moduli (GPa) = 63.13086 70.20379 96.98957
#
# Poissons Ratio (x) = -0.02166 -0.00975
# Poissons Ratio (y) = -0.01947 -0.15065
# Poissons Ratio (z) = -0.00635 -0.10904
#
# Static dielectric constant tensor:
#      x y z
#    x 1.912200 0.000000 0.000000 
#    y 0.000000 1.918410 0.000000 
#    z 0.000000 0.000000 1.954950 
# 
# From -- ./inp_files/14653.got.cif
#   From: 2010.05.17/outbox.cif.g08.bks.cpg/sg60_8_cif.got.tgz:14653.got - 2010.06.03 14:59:27.
