data_PCOD9454879
_publ_section_title
;
Structure prediction by ZEFSAII (Michael W. Deem and Ramdas Pophale) SiO2 
 PCOD9454879
Probable space group: P B C N
;
_chemical_formula_sum "Si O2"
_cell_formula_units_Z 52
_cell_length_a 11.614649
_cell_length_b 27.462409
_cell_length_c 8.729378
_cell_angle_alpha 90.000000
_cell_angle_beta 90.000000
_cell_angle_gamma 90.000000
_cell_volume 2784.376889
_symmetry_space_group_name_H-M "P B C N"
_symmetry_group_IT_number 60
_symmetry_cell_setting 'orthorhombic'
loop_
_space_group_symop_operation_xyz
x,y,z
1/2-x,1/2-y,1/2+z
1/2+x,1/2-y,-z
-x,y,1/2-z
-x,-y,-z
1/2+x,1/2+y,1/2-z
1/2-x,1/2+y,z
x,-y,1/2+z
loop_
_atom_site_type_symbol
_atom_site_label
_atom_site_fract_x
_atom_site_fract_y
_atom_site_fract_z
Si Si1 0.319565 0.483887 0.266912
Si Si2 0.659824 0.829930 0.524623
Si Si3 0.500000 0.775502 0.750000
Si Si4 0.000000 0.854046 0.750000
Si Si5 0.056234 0.937694 0.551776
Si Si6 0.222242 0.066889 0.478290
Si Si7 0.000000 0.304936 0.250000
Si Si8 0.114583 0.773198 0.960627
O O1 0.402096 0.517304 0.157920
O O2 0.385379 0.449562 0.389403
O O3 0.250578 0.450659 0.149678
O O4 0.247270 0.523641 0.361346
O O5 0.593947 0.810490 0.673417
O O6 0.720371 0.881619 0.550887
O O7 0.572141 0.832390 0.381068
O O8 0.756622 0.788560 0.496788
O O9 0.450656 0.742004 0.614734
O O10 0.916293 0.889368 0.849633
O O11 0.938498 0.819494 0.627703
O O12 0.918505 0.932069 0.530794
O O13 0.091030 0.270870 0.342377
#
# Coordination Sequence:
#
# PCOD9454879 Si02
#       8
#     8   8   4   4   8   8   4   8
#     4  10  20  31  54  84 125 159 181 226 290 345
#     4  11  21  40  60  83 110 150 198 236 286 344
#     4  10  24  40  62  84 110 152 192 246 292 338
#     4  11  20  30  52  91 122 151 182 232 270 361
#     4  11  17  31  47  83 123 157 181 220 278 346
#     4  11  19  33  55  81 115 149 190 228 283 349
#     4   9  22  38  60  81 114 145 186 248 286 333
#     4  10  20  39  60  85 116 147 187 233 297 345
#
# _framework density 18.675633999999999
#
# number of rings (size 3 to 8) (size 9 to 14) (size 15 to 20)
#    0.000    1.538    3.077    4.154    0.000    1.231 
#    0.000   10.769    0.000    2.769    0.000    0.000 
#    0.000    0.000    0.000    0.000    0.000    0.000 
#
# Total GULP energy -289763.229539 kJ/mol
# GULP energy per Si atom -5572.369799 kJ/mol
# Density = 1.863313 g / cm^3
# Si number density = 18.675634 Si / 1000 Ang^3
#
#
#
# Elastic Constant Matrix: (Units=GPa)
#
#
# Indices 1 2 3 4 5 6 
#
# 1 53.2003 41.6246 32.1400 0.0000 0.0000 0.0000
# 2 41.6246 106.7943 56.0173 0.0000 0.0000 0.0000
# 3 32.1400 56.0173 130.9043 0.0000 0.0000 0.0000
# 4 0.0000 0.0000 0.0000 5.6295 0.0000 0.0000
# 5 0.0000 0.0000 0.0000 0.0000 15.3411 0.0000
# 6 0.0000 0.0000 0.0000 0.0000 0.0000 -18.7349
#
#
#
# Elastic Compliance Matrix: (Units=1/GPa)
#
#
# Indices 1 2 3 4 5 6 
#
# 1 0.027832 -0.009366 -0.002825 0.000000 0.000000 0.000000
# 2 -0.009366 0.015226 -0.004216 0.000000 0.000000 0.000000
# 3 -0.002825 -0.004216 0.010137 0.000000 0.000000 0.000000
# 4 0.000000 0.000000 0.000000 0.177634 0.000000 0.000000
# 5 0.000000 0.000000 0.000000 0.000000 0.065184 0.000000
# 6 0.000000 0.000000 0.000000 0.000000 0.000000 -0.053376
#
#
# Mechanical properties :
#
#
# Convention : Reuss Voigt Hill
#
# Bulk Modulus (GPa) = 49.06762 61.16254 55.11508
# Shear Modulus (GPa) = 17.71513 11.18826 14.45170
#
# Velocity S-wave (km/s) = 3.08323 2.45027 2.78479
# Velocity P-wave (km/s) = 6.24545 6.38953 6.31790
#
# Compressibility (1/GPa) = 0.02038004
#
# Stress axis : x y z
#
# Youngs Moduli (GPa) = 35.93014 65.67868 98.64852
#
# Poissons Ratio (x) = 0.61513 0.27873
# Poissons Ratio (y) = 0.33651 0.41590
# Poissons Ratio (z) = 0.10152 0.27690
#
# Static dielectric constant tensor:
#      x y z
#    x 1.670710 0.000000 0.000000 
#    y 0.000000 1.666400 0.000000 
#    z 0.000000 0.000000 1.729470 
# 
# From -- ./inp_files/5289.got.cif
#   From: 2010.05.17/outbox.cif.g08.bks.cpg/sg60_3_cif.got.tgz:5289.got - 2010.06.03 14:59:27.
