data_PCOD9454547
_publ_section_title
;
Structure prediction by ZEFSAII (Michael W. Deem and Ramdas Pophale) SiO2 
 PCOD9454547
Probable space group: P B C N
;
_chemical_formula_sum "Si O2"
_cell_formula_units_Z 56
_cell_length_a 14.416367
_cell_length_b 5.574338
_cell_length_c 27.835126
_cell_angle_alpha 90.000000
_cell_angle_beta 90.000000
_cell_angle_gamma 90.000000
_cell_volume 2236.878112
_symmetry_space_group_name_H-M "P B C N"
_symmetry_group_IT_number 60
_symmetry_cell_setting 'orthorhombic'
loop_
_space_group_symop_operation_xyz
x,y,z
1/2-x,1/2-y,1/2+z
1/2+x,1/2-y,-z
-x,y,1/2-z
-x,-y,-z
1/2+x,1/2+y,1/2-z
1/2-x,1/2+y,z
x,-y,1/2+z
loop_
_atom_site_type_symbol
_atom_site_label
_atom_site_fract_x
_atom_site_fract_y
_atom_site_fract_z
Si Si1 0.203896 0.912336 0.283258
Si Si2 0.829093 0.850357 0.915016
Si Si3 0.972817 0.538821 0.379106
Si Si4 0.215865 0.655632 0.986777
Si Si5 0.344833 0.411398 0.175251
Si Si6 0.461551 0.291648 0.033547
Si Si7 0.523170 0.280919 0.698634
O O1 0.266698 0.143181 0.299332
O O2 0.207576 0.880618 0.225102
O O3 0.100566 0.012039 0.295256
O O4 0.766439 0.809335 0.961166
O O5 0.784334 0.960840 0.866738
O O6 0.898979 0.635234 0.905234
O O7 0.894152 0.067393 0.930675
O O8 0.043561 0.396513 0.345106
O O9 0.021547 0.665816 0.424895
O O10 0.908470 0.692897 0.343013
O O11 0.259710 0.415733 0.963848
O O12 0.106686 0.634954 0.999785
O O13 0.425017 0.606158 0.184921
O O14 0.500000 0.500000 0.000000
O O15 0.500000 0.160111 0.750000
#
# Coordination Sequence:
#
# PCOD9454547 Si02
#       7
#     8   8   8   8   8   8   8
#     4  11  26  40  58  94 129 171 215 272 328 388
#     4   9  19  35  55  90 117 162 199 259 326 385
#     4  10  19  37  63  87 120 165 222 268 329 399
#     4  10  19  35  55  83 123 156 190 245 320 376
#     4   9  21  36  60  88 123 162 209 261 326 400
#     4  10  21  36  57  91 127 169 211 263 323 409
#     4   9  21  39  61  86 121 170 216 266 322 398
#
# _framework density 25.034889
#
# number of rings (size 3 to 8) (size 9 to 14) (size 15 to 20)
#    0.000    2.286    1.429    0.000    8.000    4.571 
#    0.000    0.000    0.000    3.429    0.000    0.000 
#    0.000    0.000    0.000    0.000    0.000    0.000 
#
# Total GULP energy -312342.260344 kJ/mol
# GULP energy per Si atom -5577.540363 kJ/mol
# Density = 2.497791 g / cm^3
# Si number density = 25.034889 Si / 1000 Ang^3
#
#
#
# Elastic Constant Matrix: (Units=GPa)
#
#
# Indices 1 2 3 4 5 6 
#
# 1 35.5020 -8.9448 13.1166 0.0000 0.0000 0.0000
# 2 -8.9448 115.4374 33.0096 0.0000 0.0000 0.0000
# 3 13.1166 33.0096 45.5424 0.0000 0.0000 0.0000
# 4 0.0000 0.0000 0.0000 37.5793 0.0000 0.0000
# 5 0.0000 0.0000 0.0000 0.0000 11.3067 0.0000
# 6 0.0000 0.0000 0.0000 0.0000 0.0000 29.5508
#
#
#
# Elastic Compliance Matrix: (Units=1/GPa)
#
#
# Indices 1 2 3 4 5 6 
#
# 1 0.035709 0.007200 -0.015503 0.000000 0.000000 0.000000
# 2 0.007200 0.012379 -0.011046 0.000000 0.000000 0.000000
# 3 -0.015503 -0.011046 0.034429 0.000000 0.000000 0.000000
# 4 0.000000 0.000000 0.000000 0.026610 0.000000 0.000000
# 5 0.000000 0.000000 0.000000 0.000000 0.088443 0.000000
# 6 0.000000 0.000000 0.000000 0.000000 0.000000 0.033840
#
#
# Mechanical properties :
#
#
# Convention : Reuss Voigt Hill
#
# Bulk Modulus (GPa) = 22.82125 30.09384 26.45755
# Shear Modulus (GPa) = 17.56127 26.30738 21.93433
#
# Velocity S-wave (km/s) = 2.65140 3.24517 2.96319
# Velocity P-wave (km/s) = 4.30219 5.10767 4.72214
#
# Compressibility (1/GPa) = 0.04381881
#
# Stress axis : x y z
#
# Youngs Moduli (GPa) = 28.00379 80.77959 29.04510
#
# Poissons Ratio (x) = -0.58163 0.45030
# Poissons Ratio (y) = -0.20163 0.32084
# Poissons Ratio (z) = 0.43415 0.89232
#
# Static dielectric constant tensor:
#      x y z
#    x 2.025930 0.000000 0.000000 
#    y 0.000000 2.253560 0.000000 
#    z 0.000000 0.000000 2.221400 
# 
# From -- ./inp_files/26144.got.cif
#   From: 2010.05.17/outbox.cif.g08.bks.cpg/sg60_14_cif.got.tgz:26144.got - 2010.06.03 14:59:27.
