data_PCOD9454398
_publ_section_title
;
Structure prediction by ZEFSAII (Michael W. Deem and Ramdas Pophale) SiO2 
 PCOD9454398
Probable space group: P B C N
;
_chemical_formula_sum "Si O2"
_cell_formula_units_Z 44
_cell_length_a 8.743477
_cell_length_b 8.139698
_cell_length_c 23.697582
_cell_angle_alpha 90.000000
_cell_angle_beta 90.000000
_cell_angle_gamma 90.000000
_cell_volume 1686.539428
_symmetry_space_group_name_H-M "P B C N"
_symmetry_group_IT_number 60
_symmetry_cell_setting 'orthorhombic'
loop_
_space_group_symop_operation_xyz
x,y,z
1/2-x,1/2-y,1/2+z
1/2+x,1/2-y,-z
-x,y,1/2-z
-x,-y,-z
1/2+x,1/2+y,1/2-z
1/2-x,1/2+y,z
x,-y,1/2+z
loop_
_atom_site_type_symbol
_atom_site_label
_atom_site_fract_x
_atom_site_fract_y
_atom_site_fract_z
Si Si1 0.602970 0.016720 0.562554
Si Si2 0.040355 0.996099 0.597352
Si Si3 0.500000 0.959478 0.250000
Si Si4 0.905917 0.225360 0.498917
Si Si5 0.684894 0.245838 0.660609
Si Si6 0.957637 0.318336 0.846287
O O1 0.544430 0.156051 0.520866
O O2 0.689824 0.110932 0.611273
O O3 0.689470 0.870980 0.529662
O O4 0.466477 0.931928 0.598143
O O5 0.956268 0.100488 0.547631
O O6 0.109247 0.141058 0.636696
O O7 0.931365 0.884572 0.636961
O O8 0.138026 0.869658 0.558294
O O9 0.389250 0.842834 0.285978
O O10 0.595819 0.075493 0.293244
O O11 0.861091 0.293063 0.668547
#
# Coordination Sequence:
#
# PCOD9454398 Si02
#       6
#     8   8   4   8   8   8
#     4   8  15  28  48  76 109 134 161 209 272 321
#     4   9  16  27  48  77 104 134 178 220 264 322
#     4  10  22  36  52  78 110 148 186 236 300 316
#     4   8  14  26  46  76 100 128 162 196 262 332
#     4  10  19  33  53  82 110 140 189 237 272 322
#     4  10  19  33  53  82 110 140 189 237 272 322
#
# _framework density 26.088925
#
# number of rings (size 3 to 8) (size 9 to 14) (size 15 to 20)
#    0.000    2.909    0.000    2.182    0.000    0.727 
#    0.000    0.000    0.000    0.000    0.000  534.545 
#    0.000    0.000    0.000    0.000    0.000    0.000 
#
# Total GULP energy -245696.334855 kJ/mol
# GULP energy per Si atom -5584.007610 kJ/mol
# Density = 2.602955 g / cm^3
# Si number density = 26.088925 Si / 1000 Ang^3
#
#
#
# Elastic Constant Matrix: (Units=GPa)
#
#
# Indices 1 2 3 4 5 6 
#
# 1 53.9942 41.3835 40.2773 0.0000 0.0000 0.0000
# 2 41.3835 171.6278 82.8637 0.0000 0.0000 0.0000
# 3 40.2773 82.8637 170.3178 0.0000 0.0000 0.0000
# 4 0.0000 0.0000 0.0000 94.2743 0.0000 0.0000
# 5 0.0000 0.0000 0.0000 0.0000 24.5455 0.0000
# 6 0.0000 0.0000 0.0000 0.0000 0.0000 30.8467
#
#
#
# Elastic Compliance Matrix: (Units=1/GPa)
#
#
# Indices 1 2 3 4 5 6 
#
# 1 0.024477 -0.004061 -0.003813 0.000000 0.000000 0.000000
# 2 -0.004061 0.008289 -0.003072 0.000000 0.000000 0.000000
# 3 -0.003813 -0.003072 0.008268 0.000000 0.000000 0.000000
# 4 0.000000 0.000000 0.000000 0.010607 0.000000 0.000000
# 5 0.000000 0.000000 0.000000 0.000000 0.040741 0.000000
# 6 0.000000 0.000000 0.000000 0.000000 0.000000 0.032418
#
#
# Mechanical properties :
#
#
# Convention : Reuss Voigt Hill
#
# Bulk Modulus (GPa) = 52.24203 80.55428 66.39816
# Shear Modulus (GPa) = 32.66393 45.36098 39.01245
#
# Velocity S-wave (km/s) = 3.54223 4.17430 3.87119
# Velocity P-wave (km/s) = 6.06613 7.36050 6.74444
#
# Compressibility (1/GPa) = 0.01914168
#
# Stress axis : x y z
#
# Youngs Moduli (GPa) = 40.85424 120.63786 120.95086
#
# Poissons Ratio (x) = 0.48995 0.46113
# Poissons Ratio (y) = 0.16592 0.37162
# Poissons Ratio (z) = 0.15576 0.37066
#
# Static dielectric constant tensor:
#      x y z
#    x 2.098930 0.000000 0.000000 
#    y 0.000000 2.088300 0.000000 
#    z 0.000000 0.000000 2.063490 
# 
# From -- ./inp_files/24190.got.cif
#   From: 2010.05.17/outbox.cif.g08.bks.cpg/sg60_13_cif.got.tgz:24190.got - 2010.06.03 14:59:27.
