data_PCOD9454603
_publ_section_title
;
Structure prediction by ZEFSAII (Michael W. Deem and Ramdas Pophale) SiO2 
 PCOD9454603
Probable space group: P B C N
;
_chemical_formula_sum "Si O2"
_cell_formula_units_Z 48
_cell_length_a 17.296139
_cell_length_b 26.847854
_cell_length_c 5.835554
_cell_angle_alpha 90.000000
_cell_angle_beta 90.000000
_cell_angle_gamma 90.000000
_cell_volume 2709.822450
_symmetry_space_group_name_H-M "P B C N"
_symmetry_group_IT_number 60
_symmetry_cell_setting 'orthorhombic'
loop_
_space_group_symop_operation_xyz
x,y,z
1/2-x,1/2-y,1/2+z
1/2+x,1/2-y,-z
-x,y,1/2-z
-x,-y,-z
1/2+x,1/2+y,1/2-z
1/2-x,1/2+y,z
x,-y,1/2+z
loop_
_atom_site_type_symbol
_atom_site_label
_atom_site_fract_x
_atom_site_fract_y
_atom_site_fract_z
Si Si1 0.789105 0.817807 0.249333
Si Si2 0.500000 0.765833 0.750000
Si Si3 0.348462 0.779226 0.493645
Si Si4 0.653227 0.487361 0.703611
Si Si5 0.914486 0.792659 0.877002
Si Si6 0.110512 0.884240 0.931311
Si Si7 0.500000 0.552529 0.750000
O O1 0.797345 0.764704 0.385149
O O2 0.708499 0.820616 0.112040
O O3 0.819619 0.861719 0.414039
O O4 0.852749 0.813255 0.054693
O O5 0.420056 0.792330 0.665439
O O6 0.519967 0.730165 0.537527
O O7 0.383254 0.753384 0.269107
O O8 0.688741 0.494173 0.445982
O O9 0.640880 0.428446 0.728449
O O10 0.570944 0.516828 0.674194
O O11 0.922690 0.837897 0.703770
O O12 0.041984 0.910721 0.072296
#
# Coordination Sequence:
#
# PCOD9454603 Si02
#       7
#     8   4   8   8   8   8   4
#     4  10  20  34  51  69  96 134 177 226 273 330
#     4  10  22  33  48  76 100 132 176 224 282 321
#     4  10  19  36  50  66  99 135 171 221 284 324
#     4  10  21  39  51  69 102 144 175 221 279 329
#     4  10  21  35  48  74  97 131 176 231 264 326
#     4  10  22  33  51  72  95 134 186 226 263 325
#     4  10  22  41  48  72 108 144 182 228 288 327
#
# _framework density 17.713336999999999
#
# number of rings (size 3 to 8) (size 9 to 14) (size 15 to 20)
#    0.000    2.000    1.667    2.500    4.667    7.333 
#   15.000    0.000    0.000    0.000    0.000    0.000 
#    0.000    0.000    0.000    6.000    0.333    7.667 
#
# Total GULP energy -267282.867975 kJ/mol
# GULP energy per Si atom -5568.393083 kJ/mol
# Density = 1.767302 g / cm^3
# Si number density = 17.713337 Si / 1000 Ang^3
#
#
#
# Elastic Constant Matrix: (Units=GPa)
#
#
# Indices 1 2 3 4 5 6 
#
# 1 66.9813 18.5759 21.0444 0.0000 0.0000 0.0000
# 2 18.5759 37.2612 7.1048 0.0000 0.0000 0.0000
# 3 21.0444 7.1048 62.7214 0.0000 0.0000 0.0000
# 4 0.0000 0.0000 0.0000 15.6928 0.0000 0.0000
# 5 0.0000 0.0000 0.0000 0.0000 33.0838 0.0000
# 6 0.0000 0.0000 0.0000 0.0000 0.0000 16.2829
#
#
#
# Elastic Compliance Matrix: (Units=1/GPa)
#
#
# Indices 1 2 3 4 5 6 
#
# 1 0.018965 -0.008423 -0.005409 0.000000 0.000000 0.000000
# 2 -0.008423 0.031171 -0.000705 0.000000 0.000000 0.000000
# 3 -0.005409 -0.000705 0.017838 0.000000 0.000000 0.000000
# 4 0.000000 0.000000 0.000000 0.063724 0.000000 0.000000
# 5 0.000000 0.000000 0.000000 0.000000 0.030226 0.000000
# 6 0.000000 0.000000 0.000000 0.000000 0.000000 0.061414
#
#
# Mechanical properties :
#
#
# Convention : Reuss Voigt Hill
#
# Bulk Modulus (GPa) = 25.70672 28.93490 27.32081
# Shear Modulus (GPa) = 18.84096 21.02781 19.93439
#
# Velocity S-wave (km/s) = 3.26492 3.44920 3.35832
# Velocity P-wave (km/s) = 5.36256 5.67742 5.52224
#
# Compressibility (1/GPa) = 0.03890033
#
# Stress axis : x y z
#
# Youngs Moduli (GPa) = 52.72881 32.08089 56.05948
#
# Poissons Ratio (x) = 0.27023 0.30323
# Poissons Ratio (y) = 0.44415 0.03951
# Poissons Ratio (z) = 0.28521 0.02261
#
# Static dielectric constant tensor:
#      x y z
#    x 1.663790 0.000000 0.000000 
#    y 0.000000 1.587400 0.000000 
#    z 0.000000 0.000000 1.700610 
# 
# From -- ./inp_files/1794.got.cif
#   From: 2010.05.17/outbox.cif.g08.bks.cpg/sg60_1_cif.got.tgz:1794.got - 2010.06.03 14:59:27.
