data_PCOD9454881
_publ_section_title
;
Structure prediction by ZEFSAII (Michael W. Deem and Ramdas Pophale) SiO2 
 PCOD9454881
Probable space group: P B C N
;
_chemical_formula_sum "Si O2"
_cell_formula_units_Z 40
_cell_length_a 16.571267
_cell_length_b 32.561043
_cell_length_c 5.065635
_cell_angle_alpha 90.000000
_cell_angle_beta 90.000000
_cell_angle_gamma 90.000000
_cell_volume 2733.303872
_symmetry_space_group_name_H-M "P B C N"
_symmetry_group_IT_number 60
_symmetry_cell_setting 'orthorhombic'
loop_
_space_group_symop_operation_xyz
x,y,z
1/2-x,1/2-y,1/2+z
1/2+x,1/2-y,-z
-x,y,1/2-z
-x,-y,-z
1/2+x,1/2+y,1/2-z
1/2-x,1/2+y,z
x,-y,1/2+z
loop_
_atom_site_type_symbol
_atom_site_label
_atom_site_fract_x
_atom_site_fract_y
_atom_site_fract_z
Si Si1 0.275777 0.724383 0.647056
Si Si2 0.446496 0.747674 0.490043
Si Si3 0.402011 0.975524 0.756419
Si Si4 0.642708 0.167705 0.654436
Si Si5 0.593840 0.118469 0.162557
O O1 0.230413 0.743713 0.392534
O O2 0.368641 0.720631 0.564711
O O3 0.228691 0.684311 0.743956
O O4 0.500000 0.754082 0.750000
O O5 0.410089 0.791205 0.391783
O O6 0.500000 0.730951 0.250000
O O7 0.500000 0.976067 0.750000
O O8 0.380505 0.929108 0.830342
O O9 0.374871 0.991474 0.472759
O O10 0.643681 0.143944 0.378906
O O11 0.604445 0.138881 0.877816
O O12 0.500000 0.120801 0.250000
#
# Coordination Sequence:
#
# PCOD9454881 Si02
#       5
#     8   8   8   8   8
#     4  10  20  32  44  59  83 113 139 172 220 262
#     4  11  20  31  46  62  81 109 147 182 212 247
#     4   9  17  29  41  55  78 106 136 169 202 241
#     4  11  20  30  42  61  85 106 137 180 218 243
#     4  11  20  28  43  63  81 107 143 178 210 240
#
# _framework density 14.634302999999999
#
# number of rings (size 3 to 8) (size 9 to 14) (size 15 to 20)
#    0.000    1.600    0.000    9.600    0.000    3.200 
#    0.000    0.000    0.000    0.000    0.000    0.000 
#    0.000    0.000    0.000    0.000    0.000   70.000 
#
# Total GULP energy -223263.890157 kJ/mol
# GULP energy per Si atom -5581.597254 kJ/mol
# Density = 1.460099 g / cm^3
# Si number density = 14.634303 Si / 1000 Ang^3
#
#
#
# Elastic Constant Matrix: (Units=GPa)
#
#
# Indices 1 2 3 4 5 6 
#
# 1 65.4805 20.2281 18.4440 0.0000 0.0000 0.0000
# 2 20.2281 44.5233 2.7230 0.0000 0.0000 0.0000
# 3 18.4440 2.7230 79.7477 0.0000 0.0000 0.0000
# 4 0.0000 0.0000 0.0000 12.3194 0.0000 0.0000
# 5 0.0000 0.0000 0.0000 0.0000 26.2507 0.0000
# 6 0.0000 0.0000 0.0000 0.0000 0.0000 6.5619
#
#
#
# Elastic Compliance Matrix: (Units=1/GPa)
#
#
# Indices 1 2 3 4 5 6 
#
# 1 0.019022 -0.008391 -0.004113 0.000000 0.000000 0.000000
# 2 -0.008391 0.026208 0.001046 0.000000 0.000000 0.000000
# 3 -0.004113 0.001046 0.013455 0.000000 0.000000 0.000000
# 4 0.000000 0.000000 0.000000 0.081173 0.000000 0.000000
# 5 0.000000 0.000000 0.000000 0.000000 0.038094 0.000000
# 6 0.000000 0.000000 0.000000 0.000000 0.000000 0.152394
#
#
# Mechanical properties :
#
#
# Convention : Reuss Voigt Hill
#
# Bulk Modulus (GPa) = 27.95661 30.28240 29.11951
# Shear Modulus (GPa) = 13.69167 18.91686 16.30426
#
# Velocity S-wave (km/s) = 3.06206 3.59923 3.34145
# Velocity P-wave (km/s) = 5.62553 6.16525 5.90156
#
# Compressibility (1/GPa) = 0.03576971
#
# Stress axis : x y z
#
# Youngs Moduli (GPa) = 52.56997 38.15579 74.32138
#
# Poissons Ratio (x) = 0.32016 0.30568
# Poissons Ratio (y) = 0.44110 -0.07772
# Poissons Ratio (z) = 0.21622 -0.03990
#
# Static dielectric constant tensor:
#      x y z
#    x 1.490000 0.000000 0.000000 
#    y 0.000000 1.478730 0.000000 
#    z 0.000000 0.000000 1.514210 
# 
# From -- ./inp_files/1382.got.cif
#   From: 2010.05.17/outbox.cif.g08.bks.cpg/sg60_1_cif.got.tgz:1382.got - 2010.06.03 14:59:27.
