data_PCOD9454792
_publ_section_title
;
Structure prediction by ZEFSAII (Michael W. Deem and Ramdas Pophale) SiO2 
 PCOD9454792
Probable space group: P B C N
;
_chemical_formula_sum "Si O2"
_cell_formula_units_Z 48
_cell_length_a 8.205871
_cell_length_b 15.677351
_cell_length_c 17.433645
_cell_angle_alpha 90.000000
_cell_angle_beta 90.000000
_cell_angle_gamma 90.000000
_cell_volume 2242.774272
_symmetry_space_group_name_H-M "P B C N"
_symmetry_group_IT_number 60
_symmetry_cell_setting 'orthorhombic'
loop_
_space_group_symop_operation_xyz
x,y,z
1/2-x,1/2-y,1/2+z
1/2+x,1/2-y,-z
-x,y,1/2-z
-x,-y,-z
1/2+x,1/2+y,1/2-z
1/2-x,1/2+y,z
x,-y,1/2+z
loop_
_atom_site_type_symbol
_atom_site_label
_atom_site_fract_x
_atom_site_fract_y
_atom_site_fract_z
Si Si1 0.240310 0.136897 0.953460
Si Si2 0.652910 0.270205 0.807506
Si Si3 0.831181 0.448056 0.795596
Si Si4 0.915522 0.293022 0.478481
Si Si5 0.693011 0.109764 0.724407
Si Si6 0.822894 0.521453 0.965844
O O1 0.403698 0.172916 0.993587
O O2 0.285263 0.123879 0.865130
O O3 0.118425 0.214838 0.965180
O O4 0.202868 0.046074 0.993047
O O5 0.500000 0.281445 0.750000
O O6 0.747827 0.358251 0.809147
O O7 0.596266 0.243693 0.892242
O O8 0.754381 0.190882 0.772121
O O9 0.735542 0.517603 0.744547
O O10 0.841247 0.497569 0.876669
O O11 0.000000 0.431905 0.750000
O O12 0.800459 0.377573 0.481082
O O13 0.500000 0.104921 0.750000
O O14 0.000000 0.500000 0.000000
#
# Coordination Sequence:
#
# PCOD9454792 Si02
#       6
#     8   8   8   8   8   8
#     4  11  22  38  64  90 122 154 207 252 302 359
#     4  11  21  40  62  83 122 167 195 237 314 371
#     4  11  21  37  64  92 114 155 214 249 285 363
#     4  11  21  40  60  90 119 162 198 252 304 354
#     4  10  19  39  63  85 117 168 200 238 302 368
#     4  10  20  36  62  88 121 154 199 252 299 353
#
# _framework density 21.402066000000001
#
# number of rings (size 3 to 8) (size 9 to 14) (size 15 to 20)
#    0.000    1.333    6.667    3.000    0.000    4.000 
#    0.000    3.333    0.000    0.000    0.000    0.000 
#    0.000    0.000    0.000    0.000    0.000    0.000 
#
# Total GULP energy -267772.540711 kJ/mol
# GULP energy per Si atom -5578.594598 kJ/mol
# Density = 2.135335 g / cm^3
# Si number density = 21.402066 Si / 1000 Ang^3
#
#
#
# Elastic Constant Matrix: (Units=GPa)
#
#
# Indices 1 2 3 4 5 6 
#
# 1 6.0744 10.0863 -0.6173 0.0000 0.0000 0.0000
# 2 10.0863 123.8305 10.2931 0.0000 0.0000 0.0000
# 3 -0.6173 10.2931 89.2108 0.0000 0.0000 0.0000
# 4 0.0000 0.0000 0.0000 38.5010 0.0000 0.0000
# 5 0.0000 0.0000 0.0000 0.0000 13.0379 0.0000
# 6 0.0000 0.0000 0.0000 0.0000 0.0000 24.2804
#
#
#
# Elastic Compliance Matrix: (Units=1/GPa)
#
#
# Indices 1 2 3 4 5 6 
#
# 1 0.191245 -0.015839 0.003151 0.000000 0.000000 0.000000
# 2 -0.015839 0.009466 -0.001202 0.000000 0.000000 0.000000
# 3 0.003151 -0.001202 0.011370 0.000000 0.000000 0.000000
# 4 0.000000 0.000000 0.000000 0.025973 0.000000 0.000000
# 5 0.000000 0.000000 0.000000 0.000000 0.076699 0.000000
# 6 0.000000 0.000000 0.000000 0.000000 0.000000 0.041185
#
#
# Mechanical properties :
#
#
# Convention : Reuss Voigt Hill
#
# Bulk Modulus (GPa) = 5.42593 28.73779 17.08186
# Shear Modulus (GPa) = 11.23210 28.45411 19.84310
#
# Velocity S-wave (km/s) = 2.29337 3.65019 3.04823
# Velocity P-wave (km/s) = 3.09087 5.58766 4.51527
#
# Compressibility (1/GPa) = 0.18430017
#
# Stress axis : x y z
#
# Youngs Moduli (GPa) = 5.22889 105.64574 87.95183
#
# Poissons Ratio (x) = 1.67336 -0.27712
# Poissons Ratio (y) = 0.08282 0.10569
# Poissons Ratio (z) = -0.01648 0.12696
#
# Static dielectric constant tensor:
#      x y z
#    x 1.848140 0.000000 0.000000 
#    y 0.000000 1.936060 0.000000 
#    z 0.000000 0.000000 1.794480 
# 
# From -- ./inp_files/20061.got.cif
#   From: 2010.05.17/outbox.cif.g08.bks.cpg/sg60_11_cif.got.tgz:20061.got - 2010.06.03 14:59:27.
