data_PCOD9454233
_publ_section_title
;
Structure prediction by ZEFSAII (Michael W. Deem and Ramdas Pophale) SiO2 
 PCOD9454233
Probable space group: P B C N
;
_chemical_formula_sum "Si O2"
_cell_formula_units_Z 44
_cell_length_a 8.734874
_cell_length_b 16.264359
_cell_length_c 13.319659
_cell_angle_alpha 90.000000
_cell_angle_beta 90.000000
_cell_angle_gamma 90.000000
_cell_volume 1892.285681
_symmetry_space_group_name_H-M "P B C N"
_symmetry_group_IT_number 60
_symmetry_cell_setting 'orthorhombic'
loop_
_space_group_symop_operation_xyz
x,y,z
1/2-x,1/2-y,1/2+z
1/2+x,1/2-y,-z
-x,y,1/2-z
-x,-y,-z
1/2+x,1/2+y,1/2-z
1/2-x,1/2+y,z
x,-y,1/2+z
loop_
_atom_site_type_symbol
_atom_site_label
_atom_site_fract_x
_atom_site_fract_y
_atom_site_fract_z
Si Si1 0.910867 0.281617 0.429175
Si Si2 0.306104 0.986591 0.386072
Si Si3 0.579897 0.900321 0.932210
Si Si4 0.337073 0.228018 0.211701
Si Si5 0.896662 0.856486 0.653780
Si Si6 0.500000 0.899976 0.250000
O O1 0.739052 0.270416 0.386368
O O2 0.960591 0.330610 0.527679
O O3 0.994437 0.193687 0.422065
O O4 0.975564 0.341989 0.344465
O O5 0.476486 0.023149 0.402821
O O6 0.187404 0.061596 0.384965
O O7 0.297476 0.925397 0.482171
O O8 0.338523 0.944168 0.278854
O O9 0.644527 0.864509 0.830098
O O10 0.500000 0.260273 0.250000
O O11 0.220900 0.213238 0.303388
O O12 0.000000 0.878819 0.750000
#
# Coordination Sequence:
#
# PCOD9454233 Si02
#       6
#     8   8   8   8   8   4
#     4  10  22  39  61  89 125 160 203 261 312 348
#     4  10  20  36  61  89 121 162 204 245 312 369
#     4  10  22  35  60  91 120 155 206 258 303 368
#     4  11  20  36  63  91 114 161 213 248 298 376
#     4  10  20  39  62  87 124 168 201 252 308 366
#     4  10  18  40  64  84 120 168 206 244 300 382
#
# _framework density 23.252303999999999
#
# number of rings (size 3 to 8) (size 9 to 14) (size 15 to 20)
#    0.000    1.818    4.545    1.091    2.545    0.000 
#    0.000    4.545    0.000    0.000    0.000    0.000 
#    0.000    0.000    0.000    0.000    0.000    0.000 
#
# Total GULP energy -245141.283238 kJ/mol
# GULP energy per Si atom -5571.392801 kJ/mol
# Density = 2.319938 g / cm^3
# Si number density = 23.252304 Si / 1000 Ang^3
#
#
#
# Elastic Constant Matrix: (Units=GPa)
#
#
# Indices 1 2 3 4 5 6 
#
# 1 96.8630 18.2292 12.9844 0.0000 0.0000 0.0000
# 2 18.2292 61.4821 4.0998 0.0000 0.0000 0.0000
# 3 12.9844 4.0998 35.8800 0.0000 0.0000 0.0000
# 4 0.0000 0.0000 0.0000 30.0866 0.0000 0.0000
# 5 0.0000 0.0000 0.0000 0.0000 32.2566 0.0000
# 6 0.0000 0.0000 0.0000 0.0000 0.0000 44.4369
#
#
#
# Elastic Compliance Matrix: (Units=1/GPa)
#
#
# Indices 1 2 3 4 5 6 
#
# 1 0.011420 -0.003134 -0.003774 0.000000 0.000000 0.000000
# 2 -0.003134 0.017250 -0.000837 0.000000 0.000000 0.000000
# 3 -0.003774 -0.000837 0.029332 0.000000 0.000000 0.000000
# 4 0.000000 0.000000 0.000000 0.033237 0.000000 0.000000
# 5 0.000000 0.000000 0.000000 0.000000 0.031001 0.000000
# 6 0.000000 0.000000 0.000000 0.000000 0.000000 0.022504
#
#
# Mechanical properties :
#
#
# Convention : Reuss Voigt Hill
#
# Bulk Modulus (GPa) = 23.52339 29.42799 26.47569
# Shear Modulus (GPa) = 28.66877 31.95013 30.30945
#
# Velocity S-wave (km/s) = 3.51514 3.71086 3.61432
# Velocity P-wave (km/s) = 5.15883 5.57172 5.36924
#
# Compressibility (1/GPa) = 0.04251087
#
# Stress axis : x y z
#
# Youngs Moduli (GPa) = 87.56818 57.97107 34.09218
#
# Poissons Ratio (x) = 0.18169 0.12868
# Poissons Ratio (y) = 0.27446 0.02853
# Poissons Ratio (z) = 0.33053 0.04851
#
# Static dielectric constant tensor:
#      x y z
#    x 1.984500 0.000000 0.000000 
#    y 0.000000 1.950360 0.000000 
#    z 0.000000 0.000000 1.923510 
# 
# From -- ./inp_files/14887.got.cif
#   From: 2010.05.17/outbox.cif.g08.bks.cpg/sg60_8_cif.got.tgz:14887.got - 2010.06.03 14:59:27.
