data_PCOD9454489
_publ_section_title
;
Structure prediction by ZEFSAII (Michael W. Deem and Ramdas Pophale) SiO2 
 PCOD9454489
Probable space group: P B C N
;
_chemical_formula_sum "Si O2"
_cell_formula_units_Z 32
_cell_length_a 7.055976
_cell_length_b 20.641544
_cell_length_c 10.436079
_cell_angle_alpha 90.000000
_cell_angle_beta 90.000000
_cell_angle_gamma 90.000000
_cell_volume 1519.975657
_symmetry_space_group_name_H-M "P B C N"
_symmetry_group_IT_number 60
_symmetry_cell_setting 'orthorhombic'
loop_
_space_group_symop_operation_xyz
x,y,z
1/2-x,1/2-y,1/2+z
1/2+x,1/2-y,-z
-x,y,1/2-z
-x,-y,-z
1/2+x,1/2+y,1/2-z
1/2-x,1/2+y,z
x,-y,1/2+z
loop_
_atom_site_type_symbol
_atom_site_label
_atom_site_fract_x
_atom_site_fract_y
_atom_site_fract_z
Si Si1 0.128924 0.020706 0.376933
Si Si2 0.577124 0.275026 0.107332
Si Si3 0.771265 0.353495 0.494745
Si Si4 0.730955 0.609443 0.717602
O O1 0.240979 0.085414 0.413871
O O2 0.000000 0.032184 0.250000
O O3 0.263485 0.959223 0.347617
O O4 0.000000 0.000000 0.500000
O O5 0.500000 0.261957 0.250000
O O6 0.608092 0.205849 0.045850
O O7 0.747908 0.325934 0.132606
O O8 0.430616 0.317467 0.025905
O O9 0.827399 0.379821 0.354279
O O10 0.500000 0.605542 0.750000
#
# Coordination Sequence:
#
# PCOD9454489 Si02
#       4
#     8   8   8   8
#     4  11  17  31  56  85 107 145 200 242 272 328
#     4   9  19  35  53  81 118 146 184 243 289 340
#     4  10  19  34  57  82 112 148 186 243 288 335
#     4   8  16  32  50  76 111 137 184 244 269 319
#
# _framework density 21.052970999999999
#
# number of rings (size 3 to 8) (size 9 to 14) (size 15 to 20)
#    0.000    3.000    7.500    0.000    0.000    4.000 
#    0.000    0.000    0.000    6.000    0.000    0.000 
#    0.000    0.000    0.000    0.000    0.000    0.000 
#
# Total GULP energy -178279.066648 kJ/mol
# GULP energy per Si atom -5571.220833 kJ/mol
# Density = 2.100505 g / cm^3
# Si number density = 21.052971 Si / 1000 Ang^3
#
#
#
# Elastic Constant Matrix: (Units=GPa)
#
#
# Indices 1 2 3 4 5 6 
#
# 1 24.6156 29.8458 19.2853 0.0000 0.0000 0.0000
# 2 29.8458 235.5162 89.2237 0.0000 0.0000 0.0000
# 3 19.2853 89.2237 110.0325 0.0000 0.0000 0.0000
# 4 0.0000 0.0000 0.0000 47.0184 0.0000 0.0000
# 5 0.0000 0.0000 0.0000 0.0000 14.9428 0.0000
# 6 0.0000 0.0000 0.0000 0.0000 0.0000 31.7331
#
#
#
# Elastic Compliance Matrix: (Units=1/GPa)
#
#
# Indices 1 2 3 4 5 6 
#
# 1 0.050004 -0.004354 -0.005233 0.000000 0.000000 0.000000
# 2 -0.004354 0.006508 -0.004514 0.000000 0.000000 0.000000
# 3 -0.005233 -0.004514 0.013666 0.000000 0.000000 0.000000
# 4 0.000000 0.000000 0.000000 0.021268 0.000000 0.000000
# 5 0.000000 0.000000 0.000000 0.000000 0.066922 0.000000
# 6 0.000000 0.000000 0.000000 0.000000 0.000000 0.031513
#
#
# Mechanical properties :
#
#
# Convention : Reuss Voigt Hill
#
# Bulk Modulus (GPa) = 23.82394 71.87485 47.84939
# Shear Modulus (GPa) = 21.54472 34.19282 27.86877
#
# Velocity S-wave (km/s) = 3.20247 4.03443 3.64228
# Velocity P-wave (km/s) = 5.00151 7.47772 6.36126
#
# Compressibility (1/GPa) = 0.04197459
#
# Stress axis : x y z
#
# Youngs Moduli (GPa) = 19.99839 153.66045 73.17528
#
# Poissons Ratio (x) = 0.66905 0.38296
# Poissons Ratio (y) = 0.08707 0.33031
# Poissons Ratio (z) = 0.10466 0.69362
#
# Static dielectric constant tensor:
#      x y z
#    x 1.853650 0.000000 0.000000 
#    y 0.000000 1.795870 0.000000 
#    z 0.000000 0.000000 1.771740 
# 
# From -- ./inp_files/3596.got.cif
#   From: 2010.05.17/outbox.cif.g08.bks.cpg/sg60_2_cif.got.tgz:3596.got - 2010.06.03 14:59:27.
