data_PCOD9454733
_publ_section_title
;
Structure prediction by ZEFSAII (Michael W. Deem and Ramdas Pophale) SiO2 
 PCOD9454733
Probable space group: P B C N
;
_chemical_formula_sum "Si O2"
_cell_formula_units_Z 28
_cell_length_a 10.027273
_cell_length_b 14.971909
_cell_length_c 8.645723
_cell_angle_alpha 90.000000
_cell_angle_beta 90.000000
_cell_angle_gamma 90.000000
_cell_volume 1297.960078
_symmetry_space_group_name_H-M "P B C N"
_symmetry_group_IT_number 60
_symmetry_cell_setting 'orthorhombic'
loop_
_space_group_symop_operation_xyz
x,y,z
1/2-x,1/2-y,1/2+z
1/2+x,1/2-y,-z
-x,y,1/2-z
-x,-y,-z
1/2+x,1/2+y,1/2-z
1/2-x,1/2+y,z
x,-y,1/2+z
loop_
_atom_site_type_symbol
_atom_site_label
_atom_site_fract_x
_atom_site_fract_y
_atom_site_fract_z
Si Si1 0.000000 0.356893 0.250000
Si Si2 0.064874 0.185003 0.092169
Si Si3 0.749468 0.438030 0.098847
Si Si4 0.111565 0.930131 0.073090
O O1 0.080671 0.287586 0.138808
O O2 0.104965 0.412963 0.345584
O O3 0.000000 0.144084 0.250000
O O4 0.193305 0.134401 0.025712
O O5 0.947957 0.165621 0.968910
O O6 0.652939 0.435712 0.249420
O O7 0.738748 0.535088 0.021900
O O8 0.000000 0.000000 0.000000
#
# Coordination Sequence:
#
# PCOD9454733 Si02
#       4
#     4   8   8   8
#     4  10  26  36  64  96 136 164 206 276 344 368
#     4   9  20  38  62  90 122 170 215 255 318 387
#     4  11  22  40  63  96 126 165 220 268 323 387
#     4  10  19  37  67  90 118 168 221 261 307 388
#
# _framework density 21.572312
#
# number of rings (size 3 to 8) (size 9 to 14) (size 15 to 20)
#    0.857    1.143    0.000    6.857    4.000    1.143 
#    0.000    0.000    0.000    0.000    0.000    0.000 
#    0.000    0.000    0.000    0.000    0.000    0.000 
#
# Total GULP energy -155881.582357 kJ/mol
# GULP energy per Si atom -5567.199370 kJ/mol
# Density = 2.152321 g / cm^3
# Si number density = 21.572312 Si / 1000 Ang^3
#
#
#
# Elastic Constant Matrix: (Units=GPa)
#
#
# Indices 1 2 3 4 5 6 
#
# 1 86.9768 14.0898 20.7678 0.0000 0.0000 0.0000
# 2 14.0898 34.4605 -4.9835 0.0000 0.0000 0.0000
# 3 20.7678 -4.9835 110.6388 0.0000 0.0000 0.0000
# 4 0.0000 0.0000 0.0000 17.4108 0.0000 0.0000
# 5 0.0000 0.0000 0.0000 0.0000 43.6185 0.0000
# 6 0.0000 0.0000 0.0000 0.0000 0.0000 23.9139
#
#
#
# Elastic Compliance Matrix: (Units=1/GPa)
#
#
# Indices 1 2 3 4 5 6 
#
# 1 0.013075 -0.005738 -0.002713 0.000000 0.000000 0.000000
# 2 -0.005738 0.031727 0.002506 0.000000 0.000000 0.000000
# 3 -0.002713 0.002506 0.009660 0.000000 0.000000 0.000000
# 4 0.000000 0.000000 0.000000 0.057436 0.000000 0.000000
# 5 0.000000 0.000000 0.000000 0.000000 0.022926 0.000000
# 6 0.000000 0.000000 0.000000 0.000000 0.000000 0.041817
#
#
# Mechanical properties :
#
#
# Convention : Reuss Voigt Hill
#
# Bulk Modulus (GPa) = 23.48892 32.42490 27.95691
# Shear Modulus (GPa) = 24.66445 30.46877 27.56661
#
# Velocity S-wave (km/s) = 3.38500 3.76227 3.57861
# Velocity P-wave (km/s) = 5.11759 5.82549 5.48298
#
# Compressibility (1/GPa) = 0.04257326
#
# Stress axis : x y z
#
# Youngs Moduli (GPa) = 76.48429 31.51859 103.51431
#
# Poissons Ratio (x) = 0.18086 0.28080
# Poissons Ratio (y) = 0.43887 -0.25943
# Poissons Ratio (z) = 0.20748 -0.07899
#
# Static dielectric constant tensor:
#      x y z
#    x 1.883250 0.000000 0.000000 
#    y 0.000000 1.843350 0.000000 
#    z 0.000000 0.000000 1.841540 
# 
# From -- ./inp_files/3518.got.cif
#   From: 2010.05.17/outbox.cif.g08.bks.cpg/sg60_2_cif.got.tgz:3518.got - 2010.06.03 14:59:27.
