data_PCOD9454455
_publ_section_title
;
Structure prediction by ZEFSAII (Michael W. Deem and Ramdas Pophale) SiO2 
 PCOD9454455
Probable space group: P B C N
;
_chemical_formula_sum "Si O2"
_cell_formula_units_Z 52
_cell_length_a 20.079571
_cell_length_b 5.311724
_cell_length_c 22.746478
_cell_angle_alpha 90.000000
_cell_angle_beta 90.000000
_cell_angle_gamma 90.000000
_cell_volume 2426.074270
_symmetry_space_group_name_H-M "P B C N"
_symmetry_group_IT_number 60
_symmetry_cell_setting 'orthorhombic'
loop_
_space_group_symop_operation_xyz
x,y,z
1/2-x,1/2-y,1/2+z
1/2+x,1/2-y,-z
-x,y,1/2-z
-x,-y,-z
1/2+x,1/2+y,1/2-z
1/2-x,1/2+y,z
x,-y,1/2+z
loop_
_atom_site_type_symbol
_atom_site_label
_atom_site_fract_x
_atom_site_fract_y
_atom_site_fract_z
Si Si1 0.291358 0.236211 0.634820
Si Si2 0.000000 0.687112 0.250000
Si Si3 0.952450 0.275768 0.936086
Si Si4 0.791892 0.749015 0.004232
Si Si5 0.088851 0.046662 0.446842
Si Si6 0.476153 0.842874 0.361592
Si Si7 0.087973 0.016874 0.675960
O O1 0.261902 0.960295 0.645528
O O2 0.309897 0.253588 0.565475
O O3 0.354103 0.313598 0.674410
O O4 0.022003 0.542777 0.309457
O O5 0.069316 0.823246 0.232240
O O6 0.980736 0.545427 0.916555
O O7 0.905575 0.187845 0.882379
O O8 0.914077 0.228737 0.996237
O O9 0.019055 0.104903 0.941267
O O10 0.762318 0.471825 0.014787
O O11 0.854587 0.841212 0.042081
O O12 0.089965 0.225799 0.389719
O O13 0.518308 0.621808 0.333423
#
# Coordination Sequence:
#
# PCOD9454455 Si02
#       7
#     8   4   8   8   8   8   8
#     4  10  22  37  58  88 122 165 200 241 297 364
#     4  10  22  38  58  86 112 154 200 266 316 356
#     4   9  19  32  54  88 116 153 184 246 302 358
#     4  10  22  36  56  84 124 170 201 237 292 366
#     4  10  19  34  53  87 122 151 198 238 298 363
#     4  10  21  34  60  85 113 156 195 254 312 357
#     4  10  20  37  57  86 119 151 204 253 307 363
#
# _framework density 21.433802
#
# number of rings (size 3 to 8) (size 9 to 14) (size 15 to 20)
#    0.000    2.154    1.538    0.923    6.462    1.231 
#    0.000    0.000    0.000    1.846    0.000    0.000 
#    0.000    0.000    0.000    0.000    0.000    0.000 
#
# Total GULP energy -290116.048930 kJ/mol
# GULP energy per Si atom -5579.154787 kJ/mol
# Density = 2.138502 g / cm^3
# Si number density = 21.433802 Si / 1000 Ang^3
#
#
#
# Elastic Constant Matrix: (Units=GPa)
#
#
# Indices 1 2 3 4 5 6 
#
# 1 48.5058 -3.6706 21.2493 0.0000 0.0000 0.0000
# 2 -3.6706 49.8872 9.8496 0.0000 0.0000 0.0000
# 3 21.2493 9.8496 51.1944 0.0000 0.0000 0.0000
# 4 0.0000 0.0000 0.0000 20.8026 0.0000 0.0000
# 5 0.0000 0.0000 0.0000 0.0000 13.9072 0.0000
# 6 0.0000 0.0000 0.0000 0.0000 0.0000 24.4068
#
#
#
# Elastic Compliance Matrix: (Units=1/GPa)
#
#
# Indices 1 2 3 4 5 6 
#
# 1 0.026020 0.004207 -0.011610 0.000000 0.000000 0.000000
# 2 0.004207 0.021517 -0.005886 0.000000 0.000000 0.000000
# 3 -0.011610 -0.005886 0.025485 0.000000 0.000000 0.000000
# 4 0.000000 0.000000 0.000000 0.048071 0.000000 0.000000
# 5 0.000000 0.000000 0.000000 0.000000 0.071905 0.000000
# 6 0.000000 0.000000 0.000000 0.000000 0.000000 0.040972
#
#
# Mechanical properties :
#
#
# Convention : Reuss Voigt Hill
#
# Bulk Modulus (GPa) = 21.53117 22.71598 22.12357
# Shear Modulus (GPa) = 18.11406 19.96727 19.04066
#
# Velocity S-wave (km/s) = 2.91024 3.05549 2.98375
# Velocity P-wave (km/s) = 4.62168 4.80304 4.71323
#
# Compressibility (1/GPa) = 0.04644430
#
# Stress axis : x y z
#
# Youngs Moduli (GPa) = 38.43152 46.47529 39.23942
#
# Poissons Ratio (x) = -0.19551 0.45555
# Poissons Ratio (y) = -0.16167 0.23096
# Poissons Ratio (z) = 0.44617 0.27354
#
# Static dielectric constant tensor:
#      x y z
#    x 1.797550 0.000000 0.000000 
#    y 0.000000 1.877090 0.000000 
#    z 0.000000 0.000000 1.800130 
# 
# From -- ./inp_files/23195.got.cif
#   From: 2010.05.17/outbox.cif.g08.bks.cpg/sg60_12_cif.got.tgz:23195.got - 2010.06.03 14:59:27.
