data_PCOD9454983
_publ_section_title
;
Structure prediction by ZEFSAII (Michael W. Deem and Ramdas Pophale) SiO2 
 PCOD9454983
Probable space group: P B C N
;
_chemical_formula_sum "Si O2"
_cell_formula_units_Z 64
_cell_length_a 8.599925
_cell_length_b 27.451189
_cell_length_c 12.798661
_cell_angle_alpha 90.000000
_cell_angle_beta 90.000000
_cell_angle_gamma 90.000000
_cell_volume 3021.484423
_symmetry_space_group_name_H-M "P B C N"
_symmetry_group_IT_number 60
_symmetry_cell_setting 'orthorhombic'
loop_
_space_group_symop_operation_xyz
x,y,z
1/2-x,1/2-y,1/2+z
1/2+x,1/2-y,-z
-x,y,1/2-z
-x,-y,-z
1/2+x,1/2+y,1/2-z
1/2-x,1/2+y,z
x,-y,1/2+z
loop_
_atom_site_type_symbol
_atom_site_label
_atom_site_fract_x
_atom_site_fract_y
_atom_site_fract_z
Si Si1 0.803006 0.694523 0.090846
Si Si2 0.619958 0.601458 0.338623
Si Si3 0.281936 0.113743 0.955114
Si Si4 0.172337 0.461032 0.790982
Si Si5 0.643290 0.910068 0.495104
Si Si6 0.310662 0.932807 0.239865
Si Si7 0.648324 0.289628 0.797929
Si Si8 0.356885 0.775863 0.519993
O O1 0.776366 0.693811 0.213913
O O2 0.969631 0.716718 0.060812
O O3 0.797464 0.641601 0.039349
O O4 0.666405 0.730541 0.054794
O O5 0.500000 0.580849 0.250000
O O6 0.658472 0.591376 0.460878
O O7 0.773484 0.584405 0.278696
O O8 0.585947 0.658854 0.341442
O O9 0.455111 0.092914 0.982210
O O10 0.248822 0.100891 0.834476
O O11 0.300766 0.172120 0.972932
O O12 0.249907 0.512662 0.763756
O O13 0.000000 0.468973 0.750000
O O14 0.180285 0.448702 0.913515
O O15 0.716445 0.919974 0.381455
O O16 0.500000 0.929955 0.250000
O O17 0.500000 0.262669 0.750000
O O18 0.740383 0.262375 0.886343
#
# Coordination Sequence:
#
# PCOD9454983 Si02
#       8
#     8   8   8   8   8   8   8   8
#     4  11  21  37  58  86 123 154 201 247 298 365
#     4  10  20  34  56  84 112 151 192 247 297 350
#     4   9  19  37  56  81 122 154 197 247 300 351
#     4  11  20  33  62  88 114 147 196 254 294 352
#     4  10  20  35  58  90 119 152 199 250 302 350
#     4   9  21  34  57  89 118 152 194 244 303 362
#     4  10  20  36  57  83 111 149 205 250 300 350
#     4  10  22  35  58  85 116 161 199 248 302 362
#
# _framework density 21.181642
#
# number of rings (size 3 to 8) (size 9 to 14) (size 15 to 20)
#    0.000    2.000    2.500    1.125    1.750    2.500 
#    0.000    3.125    0.000    0.000    0.000    0.000 
#    0.000    0.000    0.000    0.000    0.000    0.000 
#
# Total GULP energy -356412.571604 kJ/mol
# GULP energy per Si atom -5568.946431 kJ/mol
# Density = 2.113343 g / cm^3
# Si number density = 21.181642 Si / 1000 Ang^3
#
#
#
# Elastic Constant Matrix: (Units=GPa)
#
#
# Indices 1 2 3 4 5 6 
#
# 1 37.2139 18.2281 29.2770 0.0000 0.0000 0.0000
# 2 18.2281 30.1938 23.4537 0.0000 0.0000 0.0000
# 3 29.2770 23.4537 168.1735 0.0000 0.0000 0.0000
# 4 0.0000 0.0000 0.0000 120.3338 0.0000 0.0000
# 5 0.0000 0.0000 0.0000 0.0000 35.1594 0.0000
# 6 0.0000 0.0000 0.0000 0.0000 0.0000 15.8515
#
#
#
# Elastic Compliance Matrix: (Units=1/GPa)
#
#
# Indices 1 2 3 4 5 6 
#
# 1 0.040510 -0.021284 -0.004084 0.000000 0.000000 0.000000
# 2 -0.021284 0.048325 -0.003034 0.000000 0.000000 0.000000
# 3 -0.004084 -0.003034 0.007080 0.000000 0.000000 0.000000
# 4 0.000000 0.000000 0.000000 0.008310 0.000000 0.000000
# 5 0.000000 0.000000 0.000000 0.000000 0.028442 0.000000
# 6 0.000000 0.000000 0.000000 0.000000 0.000000 0.063086
#
#
# Mechanical properties :
#
#
# Convention : Reuss Voigt Hill
#
# Bulk Modulus (GPa) = 25.56778 41.94431 33.75604
# Shear Modulus (GPa) = 18.82572 45.24376 32.03474
#
# Velocity S-wave (km/s) = 2.98447 4.62669 3.89315
# Velocity P-wave (km/s) = 4.89622 6.95607 6.01498
#
# Compressibility (1/GPa) = 0.03911173
#
# Stress axis : x y z
#
# Youngs Moduli (GPa) = 24.68541 20.69310 141.23516
#
# Poissons Ratio (x) = 0.44042 0.57681
# Poissons Ratio (y) = 0.52539 0.42855
# Poissons Ratio (z) = 0.10082 0.06279
#
# Static dielectric constant tensor:
#      x y z
#    x 1.992810 0.000000 0.000000 
#    y 0.000000 1.763080 0.000000 
#    z 0.000000 0.000000 1.583280 
# 
# From -- ./inp_files/10385.got.cif
#   From: 2010.05.17/outbox.cif.g08.bks.cpg/sg60_6_cif.got.tgz:10385.got - 2010.06.03 14:59:27.
