data_PCOD9454839
_publ_section_title
;
Structure prediction by ZEFSAII (Michael W. Deem and Ramdas Pophale) SiO2 
 PCOD9454839
Probable space group: P B C N
;
_chemical_formula_sum "Si O2"
_cell_formula_units_Z 64
_cell_length_a 6.378731
_cell_length_b 20.056933
_cell_length_c 20.141349
_cell_angle_alpha 90.000000
_cell_angle_beta 90.000000
_cell_angle_gamma 90.000000
_cell_volume 2576.839483
_symmetry_space_group_name_H-M "P B C N"
_symmetry_group_IT_number 60
_symmetry_cell_setting 'orthorhombic'
loop_
_space_group_symop_operation_xyz
x,y,z
1/2-x,1/2-y,1/2+z
1/2+x,1/2-y,-z
-x,y,1/2-z
-x,-y,-z
1/2+x,1/2+y,1/2-z
1/2-x,1/2+y,z
x,-y,1/2+z
loop_
_atom_site_type_symbol
_atom_site_label
_atom_site_fract_x
_atom_site_fract_y
_atom_site_fract_z
Si Si1 0.329062 0.327998 0.305684
Si Si2 0.194877 0.630779 0.119984
Si Si3 0.818330 0.028053 0.694927
Si Si4 0.252928 0.886352 0.770196
Si Si5 0.118590 0.154017 0.565609
Si Si6 0.614078 0.492402 0.429433
Si Si7 0.748566 0.785499 0.989052
Si Si8 0.121695 0.784359 0.871696
O O1 0.500000 0.310714 0.250000
O O2 0.217340 0.399657 0.300950
O O3 0.488880 0.335087 0.367470
O O4 0.152751 0.273308 0.317351
O O5 0.143392 0.631182 0.198972
O O6 0.248425 0.555313 0.095665
O O7 0.403689 0.677582 0.121140
O O8 0.091317 0.669526 0.056571
O O9 0.000000 0.033147 0.750000
O O10 0.931086 0.015935 0.624961
O O11 0.694346 0.961932 0.710592
O O12 0.261890 0.841853 0.836905
O O13 0.000000 0.886223 0.750000
O O14 0.220592 0.080986 0.566855
O O15 0.268917 0.216138 0.552390
O O16 0.935480 0.164213 0.510489
O O17 0.500000 0.500000 0.500000
O O18 0.687067 0.752607 0.060363
#
# Coordination Sequence:
#
# PCOD9454839 Si02
#       8
#     8   8   8   8   8   8   8   8
#     4   9  21  37  63  95 124 166 214 275 328 402
#     4  12  24  42  69  94 134 174 229 274 340 412
#     4  10  19  41  66  89 128 166 218 268 335 397
#     4  12  26  41  66  96 128 172 225 285 339 401
#     4  10  22  37  64  89 130 166 220 261 333 386
#     4  11  19  38  66  98 120 174 222 263 314 418
#     4  11  22  40  60  98 128 172 211 281 324 404
#     4  11  22  41  62  94 127 175 218 269 337 402
#
# _framework density 24.836625999999999
#
# number of rings (size 3 to 8) (size 9 to 14) (size 15 to 20)
#    0.000    1.250    5.000    0.750    5.250    0.000 
#    0.000    2.500    0.000    1.500    0.000    0.000 
#    0.000    0.000    0.000    0.000    0.000    0.000 
#
# Total GULP energy -356486.072691 kJ/mol
# GULP energy per Si atom -5570.094886 kJ/mol
# Density = 2.478010 g / cm^3
# Si number density = 24.836626 Si / 1000 Ang^3
#
#
#
# Elastic Constant Matrix: (Units=GPa)
#
#
# Indices 1 2 3 4 5 6 
#
# 1 26.1675 13.0323 10.3455 0.0000 0.0000 0.0000
# 2 13.0323 189.5352 38.8446 0.0000 0.0000 0.0000
# 3 10.3455 38.8446 164.8207 0.0000 0.0000 0.0000
# 4 0.0000 0.0000 0.0000 42.2587 0.0000 0.0000
# 5 0.0000 0.0000 0.0000 0.0000 35.4444 0.0000
# 6 0.0000 0.0000 0.0000 0.0000 0.0000 34.6821
#
#
#
# Elastic Compliance Matrix: (Units=1/GPa)
#
#
# Indices 1 2 3 4 5 6 
#
# 1 0.040167 -0.002359 -0.001965 0.000000 0.000000 0.000000
# 2 -0.002359 0.005682 -0.001191 0.000000 0.000000 0.000000
# 3 -0.001965 -0.001191 0.006471 0.000000 0.000000 0.000000
# 4 0.000000 0.000000 0.000000 0.023664 0.000000 0.000000
# 5 0.000000 0.000000 0.000000 0.000000 0.028213 0.000000
# 6 0.000000 0.000000 0.000000 0.000000 0.000000 0.028833
#
#
# Mechanical properties :
#
#
# Convention : Reuss Voigt Hill
#
# Bulk Modulus (GPa) = 24.21894 56.10757 40.16326
# Shear Modulus (GPa) = 31.68057 43.69712 37.68885
#
# Velocity S-wave (km/s) = 3.57537 4.19905 3.89970
# Velocity P-wave (km/s) = 5.17850 6.79331 6.04011
#
# Compressibility (1/GPa) = 0.04128999
#
# Stress axis : x y z
#
# Youngs Moduli (GPa) = 24.89589 175.98214 154.52899
#
# Poissons Ratio (x) = 0.41516 0.30369
# Poissons Ratio (y) = 0.05873 0.18407
# Poissons Ratio (z) = 0.04893 0.20962
#
# Static dielectric constant tensor:
#      x y z
#    x 2.254930 0.000000 0.000000 
#    y 0.000000 2.023380 0.000000 
#    z 0.000000 0.000000 2.103650 
# 
# From -- ./inp_files/22392.got.cif
#   From: 2010.05.17/outbox.cif.g08.bks.cpg/sg60_12_cif.got.tgz:22392.got - 2010.06.03 14:59:27.
