data_PCOD9454490
_publ_section_title
;
Structure prediction by ZEFSAII (Michael W. Deem and Ramdas Pophale) SiO2 
 PCOD9454490
Probable space group: P B C N
;
_chemical_formula_sum "Si O2"
_cell_formula_units_Z 48
_cell_length_a 13.169916
_cell_length_b 17.711315
_cell_length_c 9.470792
_cell_angle_alpha 90.000000
_cell_angle_beta 90.000000
_cell_angle_gamma 90.000000
_cell_volume 2209.124086
_symmetry_space_group_name_H-M "P B C N"
_symmetry_group_IT_number 60
_symmetry_cell_setting 'orthorhombic'
loop_
_space_group_symop_operation_xyz
x,y,z
1/2-x,1/2-y,1/2+z
1/2+x,1/2-y,-z
-x,y,1/2-z
-x,-y,-z
1/2+x,1/2+y,1/2-z
1/2-x,1/2+y,z
x,-y,1/2+z
loop_
_atom_site_type_symbol
_atom_site_label
_atom_site_fract_x
_atom_site_fract_y
_atom_site_fract_z
Si Si1 0.564366 0.202309 0.894766
Si Si2 0.072331 0.464063 0.117059
Si Si3 0.242634 0.713294 0.787384
Si Si4 0.384340 0.719157 0.541357
Si Si5 0.606403 0.541494 0.977965
Si Si6 0.264920 0.533126 0.784441
O O1 0.500000 0.196613 0.750000
O O2 0.599433 0.119056 0.940713
O O3 0.663527 0.241626 0.833151
O O4 0.489946 0.239260 0.006813
O O5 0.171878 0.499915 0.190533
O O6 0.000000 0.454951 0.250000
O O7 0.000000 0.500000 0.000000
O O8 0.347977 0.727220 0.704247
O O9 0.201092 0.750066 0.930644
O O10 0.237007 0.621774 0.809308
O O11 0.399970 0.631348 0.503859
O O12 0.697385 0.508814 0.076051
O O13 0.500000 0.500000 0.000000
O O14 0.638922 0.529923 0.817180
#
# Coordination Sequence:
#
# PCOD9454490 Si02
#       6
#     8   8   8   8   8   8
#     4   8  17  34  53  75 107 147 186 227 285 353
#     4  10  19  34  57  83 113 150 194 244 297 356
#     4   9  20  37  56  80 113 149 192 244 298 359
#     4  10  21  38  60  86 114 152 200 247 299 359
#     4  11  24  40  60  89 123 161 207 254 305 373
#     4  10  22  39  57  85 122 157 198 252 310 368
#
# _framework density 21.728066999999999
#
# number of rings (size 3 to 8) (size 9 to 14) (size 15 to 20)
#    0.000    2.333    0.000    2.500    0.000    8.000 
#    0.000    2.500    0.000    0.000    0.000    0.000 
#    0.000    0.000    0.000    0.000    0.000    0.000 
#
# Total GULP energy -267303.628337 kJ/mol
# GULP energy per Si atom -5568.825590 kJ/mol
# Density = 2.167861 g / cm^3
# Si number density = 21.728067 Si / 1000 Ang^3
#
#
#
# Elastic Constant Matrix: (Units=GPa)
#
#
# Indices 1 2 3 4 5 6 
#
# 1 76.4956 14.0882 16.8777 0.0000 0.0000 0.0000
# 2 14.0882 48.2776 26.6562 0.0000 0.0000 0.0000
# 3 16.8777 26.6562 74.9978 0.0000 0.0000 0.0000
# 4 0.0000 0.0000 0.0000 20.5583 0.0000 0.0000
# 5 0.0000 0.0000 0.0000 0.0000 42.8068 0.0000
# 6 0.0000 0.0000 0.0000 0.0000 0.0000 26.2639
#
#
#
# Elastic Compliance Matrix: (Units=1/GPa)
#
#
# Indices 1 2 3 4 5 6 
#
# 1 0.014082 -0.002936 -0.002126 0.000000 0.000000 0.000000
# 2 -0.002936 0.026383 -0.008717 0.000000 0.000000 0.000000
# 3 -0.002126 -0.008717 0.016910 0.000000 0.000000 0.000000
# 4 0.000000 0.000000 0.000000 0.048642 0.000000 0.000000
# 5 0.000000 0.000000 0.000000 0.000000 0.023361 0.000000
# 6 0.000000 0.000000 0.000000 0.000000 0.000000 0.038075
#
#
# Mechanical properties :
#
#
# Convention : Reuss Voigt Hill
#
# Bulk Modulus (GPa) = 33.53504 35.00169 34.26837
# Shear Modulus (GPa) = 24.39626 27.40239 25.89933
#
# Velocity S-wave (km/s) = 3.35445 3.55512 3.45625
# Velocity P-wave (km/s) = 5.52002 5.74420 5.63323
#
# Compressibility (1/GPa) = 0.02981955
#
# Stress axis : x y z
#
# Youngs Moduli (GPa) = 71.01101 37.90308 59.13592
#
# Poissons Ratio (x) = 0.11127 0.12570
# Poissons Ratio (y) = 0.20847 0.51546
# Poissons Ratio (z) = 0.15095 0.33039
#
# Static dielectric constant tensor:
#      x y z
#    x 1.858210 0.000000 0.000000 
#    y 0.000000 1.828130 0.000000 
#    z 0.000000 0.000000 1.796970 
# 
# From -- ./inp_files/5931.got.cif
#   From: 2010.05.17/outbox.cif.g08.bks.cpg/sg60_3_cif.got.tgz:5931.got - 2010.06.03 14:59:27.
