data_PCOD9454325
_publ_section_title
;
Structure prediction by ZEFSAII (Michael W. Deem and Ramdas Pophale) SiO2 
 PCOD9454325
Probable space group: P B C N
;
_chemical_formula_sum "Si O2"
_cell_formula_units_Z 40
_cell_length_a 15.070351
_cell_length_b 17.581277
_cell_length_c 8.267150
_cell_angle_alpha 90.000000
_cell_angle_beta 90.000000
_cell_angle_gamma 90.000000
_cell_volume 2190.431123
_symmetry_space_group_name_H-M "P B C N"
_symmetry_group_IT_number 60
_symmetry_cell_setting 'orthorhombic'
loop_
_space_group_symop_operation_xyz
x,y,z
1/2-x,1/2-y,1/2+z
1/2+x,1/2-y,-z
-x,y,1/2-z
-x,-y,-z
1/2+x,1/2+y,1/2-z
1/2-x,1/2+y,z
x,-y,1/2+z
loop_
_atom_site_type_symbol
_atom_site_label
_atom_site_fract_x
_atom_site_fract_y
_atom_site_fract_z
Si Si1 0.465901 0.752285 0.913708
Si Si2 0.136199 0.315260 0.420502
Si Si3 0.397311 0.970905 0.247478
Si Si4 0.154169 0.390826 0.913738
Si Si5 0.291340 0.247625 0.582462
O O1 0.500000 0.713546 0.750000
O O2 0.424113 0.833737 0.862193
O O3 0.546322 0.771203 0.033642
O O4 0.380510 0.716728 0.002973
O O5 0.114888 0.402377 0.376765
O O6 0.207181 0.301371 0.563169
O O7 0.181924 0.280278 0.259845
O O8 0.500000 0.995476 0.250000
O O9 0.334582 0.042301 0.286336
O O10 0.377388 0.934522 0.074786
O O11 0.226529 0.330262 0.978335
#
# Coordination Sequence:
#
# PCOD9454325 Si02
#       5
#     8   8   8   8   8
#     4  10  19  32  47  70  99 132 167 203 252 300
#     4  11  19  34  49  69 102 136 171 217 246 305
#     4  11  18  30  47  74 103 135 161 207 252 311
#     4   9  21  29  45  73 103 133 170 195 255 308
#     4   9  21  33  46  72  99 136 178 205 251 307
#
# _framework density 18.261246
#
# number of rings (size 3 to 8) (size 9 to 14) (size 15 to 20)
#    1.200    0.800    2.000    3.000    2.800    0.000 
#    0.000    0.000    0.000    0.000    0.000    1.400 
#    0.000    1.600    0.000    0.000    0.000    0.000 
#
# Total GULP energy -222686.434581 kJ/mol
# GULP energy per Si atom -5567.160865 kJ/mol
# Density = 1.821968 g / cm^3
# Si number density = 18.261246 Si / 1000 Ang^3
#
#
#
# Elastic Constant Matrix: (Units=GPa)
#
#
# Indices 1 2 3 4 5 6 
#
# 1 66.6327 16.2720 7.0824 0.0000 0.0000 0.0000
# 2 16.2720 36.1689 10.8990 0.0000 0.0000 0.0000
# 3 7.0824 10.8990 38.8281 0.0000 0.0000 0.0000
# 4 0.0000 0.0000 0.0000 24.2105 0.0000 0.0000
# 5 0.0000 0.0000 0.0000 0.0000 33.3760 0.0000
# 6 0.0000 0.0000 0.0000 0.0000 0.0000 18.5269
#
#
#
# Elastic Compliance Matrix: (Units=1/GPa)
#
#
# Indices 1 2 3 4 5 6 
#
# 1 0.016898 -0.007290 -0.001036 0.000000 0.000000 0.000000
# 2 -0.007290 0.033348 -0.008031 0.000000 0.000000 0.000000
# 3 -0.001036 -0.008031 0.028198 0.000000 0.000000 0.000000
# 4 0.000000 0.000000 0.000000 0.041304 0.000000 0.000000
# 5 0.000000 0.000000 0.000000 0.000000 0.029962 0.000000
# 6 0.000000 0.000000 0.000000 0.000000 0.000000 0.053976
#
#
# Mechanical properties :
#
#
# Convention : Reuss Voigt Hill
#
# Bulk Modulus (GPa) = 21.86762 23.34848 22.60805
# Shear Modulus (GPa) = 19.86947 22.38111 21.12529
#
# Velocity S-wave (km/s) = 3.30217 3.50467 3.40492
# Velocity P-wave (km/s) = 5.15169 5.40282 5.27875
#
# Compressibility (1/GPa) = 0.04572972
#
# Stress axis : x y z
#
# Youngs Moduli (GPa) = 59.17856 29.98695 35.46374
#
# Poissons Ratio (x) = 0.21861 0.03674
# Poissons Ratio (y) = 0.43142 0.28481
# Poissons Ratio (z) = 0.06131 0.24082
#
# Static dielectric constant tensor:
#      x y z
#    x 1.607680 0.000000 0.000000 
#    y 0.000000 1.606660 0.000000 
#    z 0.000000 0.000000 1.730930 
# 
# From -- ./inp_files/6780.got.cif
#   From: 2010.05.17/outbox.cif.g08.bks.cpg/sg60_4_cif.got.tgz:6780.got - 2010.06.03 14:59:27.
