data_PCOD9454681
_publ_section_title
;
Structure prediction by ZEFSAII (Michael W. Deem and Ramdas Pophale) SiO2 
 PCOD9454681
Probable space group: P B C N
;
_chemical_formula_sum "Si O2"
_cell_formula_units_Z 48
_cell_length_a 25.078960
_cell_length_b 5.708744
_cell_length_c 13.687670
_cell_angle_alpha 90.000000
_cell_angle_beta 90.000000
_cell_angle_gamma 90.000000
_cell_volume 1959.654987
_symmetry_space_group_name_H-M "P B C N"
_symmetry_group_IT_number 60
_symmetry_cell_setting 'orthorhombic'
loop_
_space_group_symop_operation_xyz
x,y,z
1/2-x,1/2-y,1/2+z
1/2+x,1/2-y,-z
-x,y,1/2-z
-x,-y,-z
1/2+x,1/2+y,1/2-z
1/2-x,1/2+y,z
x,-y,1/2+z
loop_
_atom_site_type_symbol
_atom_site_label
_atom_site_fract_x
_atom_site_fract_y
_atom_site_fract_z
Si Si1 0.108671 0.506178 0.604990
Si Si2 0.541887 0.303402 0.534281
Si Si3 0.257745 0.351220 0.340872
Si Si4 0.550265 0.021165 0.202434
Si Si5 0.778570 0.341358 0.941452
Si Si6 0.625633 0.663368 0.569224
O O1 0.059418 0.376238 0.550144
O O2 0.089110 0.567791 0.712467
O O3 0.162260 0.350120 0.603639
O O4 0.125066 0.725667 0.538417
O O5 0.500000 0.500000 0.500000
O O6 0.598294 0.415183 0.562381
O O7 0.524931 0.177682 0.633744
O O8 0.250457 0.601525 0.288893
O O9 0.220338 0.348447 0.438447
O O10 0.317117 0.344943 0.383489
O O11 0.500000 0.152719 0.250000
O O12 0.586010 0.180548 0.133601
O O13 0.749191 0.590745 0.918345
#
# Coordination Sequence:
#
# PCOD9454681 Si02
#       6
#     8   8   8   8   8   8
#     4  11  23  42  71  98 142 188 240 305 368 446
#     4  11  24  43  71  99 133 192 245 305 382 443
#     4  10  19  36  68 100 138 184 236 293 358 446
#     4  11  26  45  64 102 141 180 245 311 366 446
#     4  10  19  37  67 102 140 188 237 290 369 443
#     4  11  23  41  70  99 137 190 239 295 377 438
#
# _framework density 24.494108000000001
#
# number of rings (size 3 to 8) (size 9 to 14) (size 15 to 20)
#    0.000    1.333    3.333    4.000    2.333    6.000 
#    0.000    1.667    0.000    0.000    0.000    0.000 
#    0.000    0.000    0.000    0.000    0.000    0.000 
#
# Total GULP energy -268578.400182 kJ/mol
# GULP energy per Si atom -5595.383337 kJ/mol
# Density = 2.443836 g / cm^3
# Si number density = 24.494108 Si / 1000 Ang^3
#
#
#
# Elastic Constant Matrix: (Units=GPa)
#
#
# Indices 1 2 3 4 5 6 
#
# 1 101.0520 25.0720 25.7774 0.0000 0.0000 0.0000
# 2 25.0720 141.5579 36.3970 0.0000 0.0000 0.0000
# 3 25.7774 36.3970 95.4979 0.0000 0.0000 0.0000
# 4 0.0000 0.0000 0.0000 6.0724 0.0000 0.0000
# 5 0.0000 0.0000 0.0000 0.0000 14.6673 0.0000
# 6 0.0000 0.0000 0.0000 0.0000 0.0000 52.9805
#
#
#
# Elastic Compliance Matrix: (Units=1/GPa)
#
#
# Indices 1 2 3 4 5 6 
#
# 1 0.010837 -0.001294 -0.002432 0.000000 0.000000 0.000000
# 2 -0.001294 0.007986 -0.002694 0.000000 0.000000 0.000000
# 3 -0.002432 -0.002694 0.012155 0.000000 0.000000 0.000000
# 4 0.000000 0.000000 0.000000 0.164680 0.000000 0.000000
# 5 0.000000 0.000000 0.000000 0.000000 0.068179 0.000000
# 6 0.000000 0.000000 0.000000 0.000000 0.000000 0.018875
#
#
# Mechanical properties :
#
#
# Convention : Reuss Voigt Hill
#
# Bulk Modulus (GPa) = 55.13545 56.95561 56.04553
# Shear Modulus (GPa) = 16.57829 31.46812 24.02320
#
# Velocity S-wave (km/s) = 2.60441 3.58819 3.13513
# Velocity P-wave (km/s) = 5.62161 6.36161 6.00302
#
# Compressibility (1/GPa) = 0.01813715
#
# Stress axis : x y z
#
# Youngs Moduli (GPa) = 92.27318 125.21518 82.27170
#
# Poissons Ratio (x) = 0.16204 0.20009
# Poissons Ratio (y) = 0.11941 0.22168
# Poissons Ratio (z) = 0.22441 0.33739
#
# Static dielectric constant tensor:
#      x y z
#    x 1.947740 0.000000 0.000000 
#    y 0.000000 1.997840 0.000000 
#    z 0.000000 0.000000 1.962280 
# 
# From -- ./inp_files/18069.got.cif
#   From: 2010.05.17/outbox.cif.g08.bks.cpg/sg60_10_cif.got.tgz:18069.got - 2010.06.03 14:59:27.
