data_PCOD9454832
_publ_section_title
;
Structure prediction by ZEFSAII (Michael W. Deem and Ramdas Pophale) SiO2 
 PCOD9454832
Probable space group: P B C N
;
_chemical_formula_sum "Si O2"
_cell_formula_units_Z 32
_cell_length_a 10.628158
_cell_length_b 13.503965
_cell_length_c 9.140944
_cell_angle_alpha 90.000000
_cell_angle_beta 90.000000
_cell_angle_gamma 90.000000
_cell_volume 1311.929066
_symmetry_space_group_name_H-M "P B C N"
_symmetry_group_IT_number 60
_symmetry_cell_setting 'orthorhombic'
loop_
_space_group_symop_operation_xyz
x,y,z
1/2-x,1/2-y,1/2+z
1/2+x,1/2-y,-z
-x,y,1/2-z
-x,-y,-z
1/2+x,1/2+y,1/2-z
1/2-x,1/2+y,z
x,-y,1/2+z
loop_
_atom_site_type_symbol
_atom_site_label
_atom_site_fract_x
_atom_site_fract_y
_atom_site_fract_z
Si Si1 0.171098 0.202968 0.502630
Si Si2 0.720092 0.463584 0.255095
Si Si3 0.645312 0.145471 0.256554
Si Si4 0.419187 0.403535 0.534420
O O1 0.211342 0.116890 0.617617
O O2 0.187184 0.304954 0.590213
O O3 0.268604 0.192241 0.370660
O O4 0.023523 0.183513 0.462210
O O5 0.847672 0.525872 0.239292
O O6 0.669937 0.412299 0.109221
O O7 0.640076 0.559983 0.312117
O O8 0.500000 0.176777 0.250000
O O9 0.500000 0.500000 0.500000
#
# Coordination Sequence:
#
# PCOD9454832 Si02
#       4
#     8   8   8   8
#     4  11  26  45  71 102 141 188 237 291 344 435
#     4  11  22  44  76  99 135 182 243 286 344 410
#     4  12  28  46  68 105 146 180 230 297 365 416
#     4  10  19  40  73 104 124 177 244 285 323 413
#
# _framework density 24.391563999999999
#
# number of rings (size 3 to 8) (size 9 to 14) (size 15 to 20)
#    0.000    1.000    5.000    4.500    7.000    1.000 
#    0.000    0.000    0.000    0.000    0.000    0.000 
#    0.000    0.000    0.000    0.000    0.000    0.000 
#
# Total GULP energy -178461.858169 kJ/mol
# GULP energy per Si atom -5576.933068 kJ/mol
# Density = 2.433605 g / cm^3
# Si number density = 24.391564 Si / 1000 Ang^3
#
#
#
# Elastic Constant Matrix: (Units=GPa)
#
#
# Indices 1 2 3 4 5 6 
#
# 1 105.3007 36.0548 97.5083 0.0000 0.0000 0.0000
# 2 36.0548 87.7384 37.1948 0.0000 0.0000 0.0000
# 3 97.5083 37.1948 171.0423 0.0000 0.0000 0.0000
# 4 0.0000 0.0000 0.0000 46.9817 0.0000 0.0000
# 5 0.0000 0.0000 0.0000 0.0000 33.2935 0.0000
# 6 0.0000 0.0000 0.0000 0.0000 0.0000 2.5680
#
#
#
# Elastic Compliance Matrix: (Units=1/GPa)
#
#
# Indices 1 2 3 4 5 6 
#
# 1 0.021302 -0.003972 -0.011280 0.000000 0.000000 0.000000
# 2 -0.003972 0.013295 -0.000627 0.000000 0.000000 0.000000
# 3 -0.011280 -0.000627 0.012413 0.000000 0.000000 0.000000
# 4 0.000000 0.000000 0.000000 0.021285 0.000000 0.000000
# 5 0.000000 0.000000 0.000000 0.000000 0.030036 0.000000
# 6 0.000000 0.000000 0.000000 0.000000 0.000000 0.389401
#
#
# Mechanical properties :
#
#
# Convention : Reuss Voigt Hill
#
# Bulk Modulus (GPa) = 65.56068 78.39968 71.98018
# Shear Modulus (GPa) = 9.53153 29.45690 19.49422
#
# Velocity S-wave (km/s) = 1.97894 3.47892 2.83011
# Velocity P-wave (km/s) = 5.67084 6.95335 6.34458
#
# Compressibility (1/GPa) = 0.01525305
#
# Stress axis : x y z
#
# Youngs Moduli (GPa) = 46.94406 75.21376 80.55750
#
# Poissons Ratio (x) = 0.29873 0.90870
# Poissons Ratio (y) = 0.18645 0.05051
# Poissons Ratio (z) = 0.52954 0.04716
#
# Static dielectric constant tensor:
#      x y z
#    x 2.422370 0.000000 0.000000 
#    y 0.000000 1.925170 0.000000 
#    z 0.000000 0.000000 2.002230 
# 
# From -- ./inp_files/4542.got.cif
#   From: 2010.05.17/outbox.cif.g08.bks.cpg/sg60_3_cif.got.tgz:4542.got - 2010.06.03 14:59:27.
