data_PCOD9454503
_publ_section_title
;
Structure prediction by ZEFSAII (Michael W. Deem and Ramdas Pophale) SiO2 
 PCOD9454503
Probable space group: P B C N
;
_chemical_formula_sum "Si O2"
_cell_formula_units_Z 32
_cell_length_a 7.520393
_cell_length_b 35.066939
_cell_length_c 5.240427
_cell_angle_alpha 90.000000
_cell_angle_beta 90.000000
_cell_angle_gamma 90.000000
_cell_volume 1381.990539
_symmetry_space_group_name_H-M "P B C N"
_symmetry_group_IT_number 60
_symmetry_cell_setting 'orthorhombic'
loop_
_space_group_symop_operation_xyz
x,y,z
1/2-x,1/2-y,1/2+z
1/2+x,1/2-y,-z
-x,y,1/2-z
-x,-y,-z
1/2+x,1/2+y,1/2-z
1/2-x,1/2+y,z
x,-y,1/2+z
loop_
_atom_site_type_symbol
_atom_site_label
_atom_site_fract_x
_atom_site_fract_y
_atom_site_fract_z
Si Si1 0.717098 0.142847 0.754914
Si Si2 0.207306 0.728217 0.700351
Si Si3 0.284366 0.097412 0.246684
Si Si4 0.300018 0.514559 0.439129
O O1 0.500000 0.143520 0.750000
O O2 0.782744 0.186310 0.738715
O O3 0.771742 0.115496 0.522403
O O4 0.769058 0.125588 0.025926
O O5 0.227055 0.741249 0.408162
O O6 0.000000 0.725400 0.750000
O O7 0.500000 0.094100 0.250000
O O8 0.209043 0.056199 0.317989
O O9 0.500000 0.500000 0.500000
O O10 0.216191 0.487541 0.221204
#
# Coordination Sequence:
#
# PCOD9454503 Si02
#       4
#     8   8   8   8
#     4   9  19  35  58  88 114 154 195 245 310 354
#     4  11  22  39  66  92 131 169 211 261 315 382
#     4  10  19  34  58  84 111 143 201 254 292 355
#     4  10  21  36  55  75 110 149 191 232 306 364
#
# _framework density 23.155004999999999
#
# number of rings (size 3 to 8) (size 9 to 14) (size 15 to 20)
#    0.000    2.000    0.000    3.750    0.000    5.000 
#    0.000    0.000   55.000    0.000    0.000    0.000 
#    0.000    0.000    0.000    0.000    0.000    0.000 
#
# Total GULP energy -178828.905640 kJ/mol
# GULP energy per Si atom -5588.403301 kJ/mol
# Density = 2.310230 g / cm^3
# Si number density = 23.155005 Si / 1000 Ang^3
#
#
#
# Elastic Constant Matrix: (Units=GPa)
#
#
# Indices 1 2 3 4 5 6 
#
# 1 65.3238 7.8284 0.4288 0.0000 0.0000 0.0000
# 2 7.8284 136.0605 34.2744 0.0000 0.0000 0.0000
# 3 0.4288 34.2744 157.5923 0.0000 0.0000 0.0000
# 4 0.0000 0.0000 0.0000 44.0072 0.0000 0.0000
# 5 0.0000 0.0000 0.0000 0.0000 10.1698 0.0000
# 6 0.0000 0.0000 0.0000 0.0000 0.0000 42.2588
#
#
#
# Elastic Compliance Matrix: (Units=1/GPa)
#
#
# Indices 1 2 3 4 5 6 
#
# 1 0.015418 -0.000927 0.000160 0.000000 0.000000 0.000000
# 2 -0.000927 0.007831 -0.001701 0.000000 0.000000 0.000000
# 3 0.000160 -0.001701 0.006715 0.000000 0.000000 0.000000
# 4 0.000000 0.000000 0.000000 0.022724 0.000000 0.000000
# 5 0.000000 0.000000 0.000000 0.000000 0.098330 0.000000
# 6 0.000000 0.000000 0.000000 0.000000 0.000000 0.023664
#
#
# Mechanical properties :
#
#
# Convention : Reuss Voigt Hill
#
# Bulk Modulus (GPa) = 39.95500 49.33774 44.64637
# Shear Modulus (GPa) = 26.60118 40.38349 33.49233
#
# Velocity S-wave (km/s) = 3.39312 4.18071 3.80734
# Velocity P-wave (km/s) = 5.71348 6.68269 6.21700
#
# Compressibility (1/GPa) = 0.02502816
#
# Stress axis : x y z
#
# Youngs Moduli (GPa) = 64.85734 127.69027 148.92164
#
# Poissons Ratio (x) = 0.11842 -0.02379
# Poissons Ratio (y) = 0.06015 0.25327
# Poissons Ratio (z) = -0.01036 0.21717
#
# Static dielectric constant tensor:
#      x y z
#    x 1.943330 0.000000 0.000000 
#    y 0.000000 1.874170 0.000000 
#    z 0.000000 0.000000 1.912760 
# 
# From -- ./inp_files/424.got.cif
#   From: 2010.05.17/outbox.cif.g08.bks.cpg/sg60_1_cif.got.tgz:424.got - 2010.06.03 14:59:27.
