data_PCOD9454176
_publ_section_title
;
Structure prediction by ZEFSAII (Michael W. Deem and Ramdas Pophale) SiO2 
 PCOD9454176
Probable space group: P B C N
;
_chemical_formula_sum "Si O2"
_cell_formula_units_Z 52
_cell_length_a 9.756441
_cell_length_b 8.806672
_cell_length_c 27.504674
_cell_angle_alpha 90.000000
_cell_angle_beta 90.000000
_cell_angle_gamma 90.000000
_cell_volume 2363.250432
_symmetry_space_group_name_H-M "P B C N"
_symmetry_group_IT_number 60
_symmetry_cell_setting 'orthorhombic'
loop_
_space_group_symop_operation_xyz
x,y,z
1/2-x,1/2-y,1/2+z
1/2+x,1/2-y,-z
-x,y,1/2-z
-x,-y,-z
1/2+x,1/2+y,1/2-z
1/2-x,1/2+y,z
x,-y,1/2+z
loop_
_atom_site_type_symbol
_atom_site_label
_atom_site_fract_x
_atom_site_fract_y
_atom_site_fract_z
Si Si1 0.393420 0.245865 0.789804
Si Si2 0.945335 0.451318 0.129133
Si Si3 0.678239 0.365229 0.506083
Si Si4 0.897633 0.566858 0.459864
Si Si5 0.167024 0.879833 0.427341
Si Si6 0.500000 0.457715 0.250000
Si Si7 0.912869 0.240642 0.675149
O O1 0.500000 0.176463 0.750000
O O2 0.395038 0.421513 0.773416
O O3 0.233776 0.206434 0.798592
O O4 0.459718 0.206849 0.842326
O O5 0.810184 0.440872 0.095839
O O6 0.926689 0.579292 0.170153
O O7 0.060878 0.509468 0.092917
O O8 0.755939 0.487284 0.473423
O O9 0.602878 0.245742 0.471403
O O10 0.603259 0.474757 0.545000
O O11 0.782695 0.256642 0.537201
O O12 0.000000 0.500000 0.500000
O O13 0.089977 0.819071 0.380105
O O14 0.470545 0.343798 0.205775
#
# Coordination Sequence:
#
# PCOD9454176 Si02
#       7
#     8   8   8   8   8   4   8
#     4   9  22  41  64  95 123 158 208 270 321 368
#     4  11  21  37  65  86 124 169 209 255 319 371
#     4  10  20  35  61  91 125 163 209 257 307 370
#     4  11  21  39  60  91 130 168 208 259 317 368
#     4  10  18  36  63  92 116 160 212 261 298 366
#     4  10  24  38  62  96 122 154 212 270 320 370
#     4  11  21  39  66  96 119 160 222 262 312 394
#
# _framework density 22.003591
#
# number of rings (size 3 to 8) (size 9 to 14) (size 15 to 20)
#    0.462    1.231    4.615    1.846    3.231    0.000 
#    0.000   13.077    0.000    0.000    0.000    0.000 
#    0.000    0.000    0.000    0.000    0.000    0.000 
#
# Total GULP energy -289602.038575 kJ/mol
# GULP energy per Si atom -5569.269973 kJ/mol
# Density = 2.195351 g / cm^3
# Si number density = 22.003591 Si / 1000 Ang^3
#
#
#
# Elastic Constant Matrix: (Units=GPa)
#
#
# Indices 1 2 3 4 5 6 
#
# 1 25.5942 18.4047 24.3622 0.0000 0.0000 0.0000
# 2 18.4047 104.7242 30.3848 0.0000 0.0000 0.0000
# 3 24.3622 30.3848 101.2063 0.0000 0.0000 0.0000
# 4 0.0000 0.0000 0.0000 44.9975 0.0000 0.0000
# 5 0.0000 0.0000 0.0000 0.0000 37.1683 0.0000
# 6 0.0000 0.0000 0.0000 0.0000 0.0000 21.9041
#
#
#
# Elastic Compliance Matrix: (Units=1/GPa)
#
#
# Indices 1 2 3 4 5 6 
#
# 1 0.054220 -0.006290 -0.011163 0.000000 0.000000 0.000000
# 2 -0.006290 0.011190 -0.001845 0.000000 0.000000 0.000000
# 3 -0.011163 -0.001845 0.013122 0.000000 0.000000 0.000000
# 4 0.000000 0.000000 0.000000 0.022223 0.000000 0.000000
# 5 0.000000 0.000000 0.000000 0.000000 0.026905 0.000000
# 6 0.000000 0.000000 0.000000 0.000000 0.000000 0.045653
#
#
# Mechanical properties :
#
#
# Convention : Reuss Voigt Hill
#
# Bulk Modulus (GPa) = 25.04083 41.98090 33.51087
# Shear Modulus (GPa) = 22.20023 31.37220 26.78622
#
# Velocity S-wave (km/s) = 3.17982 3.78004 3.49285
# Velocity P-wave (km/s) = 4.98866 6.17836 5.61511
#
# Compressibility (1/GPa) = 0.03993478
#
# Stress axis : x y z
#
# Youngs Moduli (GPa) = 18.44322 89.36775 76.20749
#
# Poissons Ratio (x) = 0.56212 0.85074
# Poissons Ratio (y) = 0.11601 0.14063
# Poissons Ratio (z) = 0.20589 0.16491
#
# Static dielectric constant tensor:
#      x y z
#    x 1.857420 0.000000 0.000000 
#    y 0.000000 1.843490 0.000000 
#    z 0.000000 0.000000 1.831130 
# 
# From -- ./inp_files/25307.got.cif
#   From: 2010.05.17/outbox.cif.g08.bks.cpg/sg60_13_cif.got.tgz:25307.got - 2010.06.03 14:59:27.
