data_PCOD9454677
_publ_section_title
;
Structure prediction by ZEFSAII (Michael W. Deem and Ramdas Pophale) SiO2 
 PCOD9454677
Probable space group: P B C N
;
_chemical_formula_sum "Si O2"
_cell_formula_units_Z 56
_cell_length_a 13.037365
_cell_length_b 13.447308
_cell_length_c 13.776022
_cell_angle_alpha 90.000000
_cell_angle_beta 90.000000
_cell_angle_gamma 90.000000
_cell_volume 2415.177223
_symmetry_space_group_name_H-M "P B C N"
_symmetry_group_IT_number 60
_symmetry_cell_setting 'orthorhombic'
loop_
_space_group_symop_operation_xyz
x,y,z
1/2-x,1/2-y,1/2+z
1/2+x,1/2-y,-z
-x,y,1/2-z
-x,-y,-z
1/2+x,1/2+y,1/2-z
1/2-x,1/2+y,z
x,-y,1/2+z
loop_
_atom_site_type_symbol
_atom_site_label
_atom_site_fract_x
_atom_site_fract_y
_atom_site_fract_z
Si Si1 0.710197 0.581579 0.309544
Si Si2 0.993454 0.352874 0.928393
Si Si3 0.766918 0.274483 0.956639
Si Si4 0.316707 0.060030 0.531168
Si Si5 0.000000 0.504122 0.750000
Si Si6 0.119075 0.165309 0.874851
Si Si7 0.500000 0.491401 0.250000
Si Si8 0.801051 0.449995 0.166696
O O1 0.736201 0.689191 0.349565
O O2 0.766601 0.501387 0.380357
O O3 0.591618 0.556232 0.294579
O O4 0.762304 0.555767 0.208255
O O5 0.056819 0.266744 0.872645
O O6 0.886319 0.306831 0.966411
O O7 0.976385 0.435168 0.844099
O O8 0.067268 0.395879 0.014076
O O9 0.753153 0.158333 0.977112
O O10 0.676836 0.327539 0.020931
O O11 0.313036 0.980619 0.444249
O O12 0.906172 0.571519 0.718617
O O13 0.219168 0.135601 0.812562
O O14 0.043030 0.078615 0.837508
#
# Coordination Sequence:
#
# PCOD9454677 Si02
#       8
#     8   8   8   8   4   8   4   8
#     4  11  22  43  65  96 135 175 227 286 341 412
#     4  10  21  37  63  99 131 181 225 275 344 404
#     4  11  22  41  66  97 134 177 223 289 336 413
#     4  10  23  41  63  98 136 180 231 272 351 413
#     4  10  19  36  66  93 138 172 228 281 330 403
#     4  10  21  40  64  95 130 175 226 273 343 413
#     4  10  23  40  66  97 126 176 230 277 356 409
#     4  10  21  40  64 102 131 179 228 286 336 409
#
# _framework density 23.186705
#
# number of rings (size 3 to 8) (size 9 to 14) (size 15 to 20)
#    0.000    1.714    2.857    1.286    0.000    3.429 
#   15.429    0.000    0.000    0.857    0.000    0.000 
#    0.000    0.000    0.000    0.000    0.000    0.000 
#
# Total GULP energy -312088.905256 kJ/mol
# GULP energy per Si atom -5573.016165 kJ/mol
# Density = 2.313393 g / cm^3
# Si number density = 23.186705 Si / 1000 Ang^3
#
#
#
# Elastic Constant Matrix: (Units=GPa)
#
#
# Indices 1 2 3 4 5 6 
#
# 1 161.4288 49.8034 36.6100 0.0000 0.0000 0.0000
# 2 49.8034 77.6379 24.9450 0.0000 0.0000 0.0000
# 3 36.6100 24.9450 41.6655 0.0000 0.0000 0.0000
# 4 0.0000 0.0000 0.0000 14.1749 0.0000 0.0000
# 5 0.0000 0.0000 0.0000 0.0000 17.2965 0.0000
# 6 0.0000 0.0000 0.0000 0.0000 0.0000 34.1587
#
#
#
# Elastic Compliance Matrix: (Units=1/GPa)
#
#
# Indices 1 2 3 4 5 6 
#
# 1 0.008557 -0.003806 -0.005241 0.000000 0.000000 0.000000
# 2 -0.003806 0.017640 -0.007218 0.000000 0.000000 0.000000
# 3 -0.005241 -0.007218 0.032927 0.000000 0.000000 0.000000
# 4 0.000000 0.000000 0.000000 0.070547 0.000000 0.000000
# 5 0.000000 0.000000 0.000000 0.000000 0.057815 0.000000
# 6 0.000000 0.000000 0.000000 0.000000 0.000000 0.029275
#
#
# Mechanical properties :
#
#
# Convention : Reuss Voigt Hill
#
# Bulk Modulus (GPa) = 37.59830 55.93879 46.76855
# Shear Modulus (GPa) = 19.36824 24.41760 21.89292
#
# Velocity S-wave (km/s) = 2.89332 3.24865 3.07612
# Velocity P-wave (km/s) = 5.23568 6.18461 5.72982
#
# Compressibility (1/GPa) = 0.02659695
#
# Stress axis : x y z
#
# Youngs Moduli (GPa) = 116.85990 56.68775 30.37065
#
# Poissons Ratio (x) = 0.21573 0.15916
# Poissons Ratio (y) = 0.44471 0.21920
# Poissons Ratio (z) = 0.61242 0.40915
#
# Static dielectric constant tensor:
#      x y z
#    x 1.951040 0.000000 0.000000 
#    y 0.000000 1.876920 0.000000 
#    z 0.000000 0.000000 1.951070 
# 
# From -- ./inp_files/16215.got.cif
#   From: 2010.05.17/outbox.cif.g08.bks.cpg/sg60_9_cif.got.tgz:16215.got - 2010.06.03 14:59:27.
