data_PCOD9454698
_publ_section_title
;
Structure prediction by ZEFSAII (Michael W. Deem and Ramdas Pophale) SiO2 
 PCOD9454698
Probable space group: P B C N
;
_chemical_formula_sum "Si O2"
_cell_formula_units_Z 56
_cell_length_a 10.708035
_cell_length_b 18.862319
_cell_length_c 12.786656
_cell_angle_alpha 90.000000
_cell_angle_beta 90.000000
_cell_angle_gamma 90.000000
_cell_volume 2582.627963
_symmetry_space_group_name_H-M "P B C N"
_symmetry_group_IT_number 60
_symmetry_cell_setting 'orthorhombic'
loop_
_space_group_symop_operation_xyz
x,y,z
1/2-x,1/2-y,1/2+z
1/2+x,1/2-y,-z
-x,y,1/2-z
-x,-y,-z
1/2+x,1/2+y,1/2-z
1/2-x,1/2+y,z
x,-y,1/2+z
loop_
_atom_site_type_symbol
_atom_site_label
_atom_site_fract_x
_atom_site_fract_y
_atom_site_fract_z
Si Si1 0.008686 0.248562 0.133838
Si Si2 0.800697 0.338248 0.076506
Si Si3 0.117577 0.398608 0.816561
Si Si4 0.215625 0.154156 0.157378
Si Si5 0.354111 0.300960 0.221100
Si Si6 0.298805 0.859040 0.039816
Si Si7 0.498449 0.046501 0.628948
O O1 0.068963 0.172509 0.155263
O O2 0.108435 0.294399 0.069994
O O3 0.000000 0.280920 0.250000
O O4 0.877689 0.263842 0.079767
O O5 0.713544 0.336591 0.178377
O O6 0.900984 0.400927 0.080690
O O7 0.742076 0.349405 0.964558
O O8 0.225031 0.407750 0.728022
O O9 0.049120 0.466505 0.869474
O O10 0.000000 0.366533 0.750000
O O11 0.188615 0.362728 0.914345
O O12 0.287865 0.223936 0.204437
O O13 0.500000 0.296331 0.250000
O O14 0.321397 0.343226 0.113177
O O15 0.365059 0.930985 0.082987
O O16 0.500000 0.064527 0.750000
#
# Coordination Sequence:
#
# PCOD9454698 Si02
#       7
#     8   8   8   8   8   8   8
#     4  10  19  37  59  85 123 163 203 257 327 391
#     4  11  21  42  62  93 128 165 221 260 335 394
#     4  11  23  38  60 102 131 160 218 273 332 384
#     4  11  25  36  60  94 134 166 206 276 330 399
#     4  11  24  39  63  96 130 175 217 274 330 404
#     4  10  19  37  62  93 126 168 211 269 328 389
#     4  10  19  38  67  93 123 165 213 273 321 385
#
# _framework density 21.683340000000001
#
# number of rings (size 3 to 8) (size 9 to 14) (size 15 to 20)
#    0.000    1.429    4.286    3.429    6.000    1.143 
#    0.000    0.000    0.000    1.714    0.000    0.000 
#    0.000    0.000    0.000    0.000    0.000    0.000 
#
# Total GULP energy -311851.455583 kJ/mol
# GULP energy per Si atom -5568.775993 kJ/mol
# Density = 2.163399 g / cm^3
# Si number density = 21.683340 Si / 1000 Ang^3
#
#
#
# Elastic Constant Matrix: (Units=GPa)
#
#
# Indices 1 2 3 4 5 6 
#
# 1 67.9631 16.1126 22.8498 0.0000 0.0000 0.0000
# 2 16.1126 51.7876 6.6166 0.0000 0.0000 0.0000
# 3 22.8498 6.6166 145.2803 0.0000 0.0000 0.0000
# 4 0.0000 0.0000 0.0000 30.5290 0.0000 0.0000
# 5 0.0000 0.0000 0.0000 0.0000 34.4478 0.0000
# 6 0.0000 0.0000 0.0000 0.0000 0.0000 27.1144
#
#
#
# Elastic Compliance Matrix: (Units=1/GPa)
#
#
# Indices 1 2 3 4 5 6 
#
# 1 0.016679 -0.004882 -0.002401 0.000000 0.000000 0.000000
# 2 -0.004882 0.020852 -0.000182 0.000000 0.000000 0.000000
# 3 -0.002401 -0.000182 0.007269 0.000000 0.000000 0.000000
# 4 0.000000 0.000000 0.000000 0.032756 0.000000 0.000000
# 5 0.000000 0.000000 0.000000 0.000000 0.029029 0.000000
# 6 0.000000 0.000000 0.000000 0.000000 0.000000 0.036881
#
#
# Mechanical properties :
#
#
# Convention : Reuss Voigt Hill
#
# Bulk Modulus (GPa) = 33.47892 39.57654 36.52773
# Shear Modulus (GPa) = 29.69962 33.04836 31.37399
#
# Velocity S-wave (km/s) = 3.70496 3.90825 3.80796
# Velocity P-wave (km/s) = 5.81169 6.21752 6.01803
#
# Compressibility (1/GPa) = 0.02986955
#
# Stress axis : x y z
#
# Youngs Moduli (GPa) = 59.95715 47.95719 137.56806
#
# Poissons Ratio (x) = 0.23415 0.33028
# Poissons Ratio (y) = 0.29274 0.02500
# Poissons Ratio (z) = 0.14395 0.00872
#
# Static dielectric constant tensor:
#      x y z
#    x 1.780520 0.000000 0.000000 
#    y 0.000000 1.892300 0.000000 
#    z 0.000000 0.000000 2.055950 
# 
# From -- ./inp_files/11180.got.cif
#   From: 2010.05.17/outbox.cif.g08.bks.cpg/sg60_6_cif.got.tgz:11180.got - 2010.06.03 14:59:27.
