data_PCOD9454381
_publ_section_title
;
Structure prediction by ZEFSAII (Michael W. Deem and Ramdas Pophale) SiO2 
 PCOD9454381
Probable space group: P B C N
;
_chemical_formula_sum "Si O2"
_cell_formula_units_Z 64
_cell_length_a 27.055583
_cell_length_b 25.596197
_cell_length_c 5.496545
_cell_angle_alpha 90.000000
_cell_angle_beta 90.000000
_cell_angle_gamma 90.000000
_cell_volume 3806.467522
_symmetry_space_group_name_H-M "P B C N"
_symmetry_group_IT_number 60
_symmetry_cell_setting 'orthorhombic'
loop_
_space_group_symop_operation_xyz
x,y,z
1/2-x,1/2-y,1/2+z
1/2+x,1/2-y,-z
-x,y,1/2-z
-x,-y,-z
1/2+x,1/2+y,1/2-z
1/2-x,1/2+y,z
x,-y,1/2+z
loop_
_atom_site_type_symbol
_atom_site_label
_atom_site_fract_x
_atom_site_fract_y
_atom_site_fract_z
Si Si1 0.489093 0.906986 0.496951
Si Si2 0.860729 0.715737 0.081936
Si Si3 0.768212 0.519939 0.823376
Si Si4 0.268613 0.276651 0.415174
Si Si5 0.119574 0.625419 0.092879
Si Si6 0.527116 0.208621 0.997166
Si Si7 0.295781 0.132682 0.726748
Si Si8 0.380089 0.020119 0.281637
O O1 0.500000 0.934735 0.750000
O O2 0.434286 0.882890 0.485067
O O3 0.523770 0.854899 0.505122
O O4 0.500000 0.936174 0.250000
O O5 0.827372 0.767091 0.095620
O O6 0.871257 0.684849 0.332234
O O7 0.915433 0.723658 0.980285
O O8 0.826365 0.673680 0.938283
O O9 0.745473 0.489823 0.054883
O O10 0.772253 0.581184 0.890076
O O11 0.824078 0.499024 0.769626
O O12 0.250758 0.258076 0.683613
O O13 0.246005 0.333292 0.361949
O O14 0.163684 0.610950 0.914639
O O15 0.120905 0.582599 0.308676
O O16 0.500000 0.225360 0.750000
O O17 0.500000 0.225469 0.250000
O O18 0.403268 0.994113 0.519221
#
# Coordination Sequence:
#
# PCOD9454381 Si02
#       8
#     8   8   8   8   8   8   8   8
#     4  10  20  32  44  69  82 106 152 191 231 283
#     4  11  21  33  51  72  97 127 154 199 243 282
#     4  10  19  33  47  70  89 114 160 200 228 283
#     4  10  22  34  47  73 103 125 158 184 236 304
#     4  12  20  31  56  65  89 124 149 206 245 269
#     4  10  19  33  47  69  89 115 161 200 230 283
#     4  11  21  32  52  71  97 125 156 196 244 282
#     4  10  20  32  45  70  83 109 157 195 235 287
#
# _framework density 16.813490999999999
#
# number of rings (size 3 to 8) (size 9 to 14) (size 15 to 20)
#    0.000    1.500    6.250    3.000    0.000    0.000 
#    0.000    0.000    0.000    2.250    0.000    0.000 
#    0.000    0.000    0.000    0.000    0.000    3.750 
#
# Total GULP energy -356778.984017 kJ/mol
# GULP energy per Si atom -5574.671625 kJ/mol
# Density = 1.677522 g / cm^3
# Si number density = 16.813491 Si / 1000 Ang^3
#
#
#
# Elastic Constant Matrix: (Units=GPa)
#
#
# Indices 1 2 3 4 5 6 
#
# 1 51.1609 20.0285 9.6393 0.0000 0.0000 0.0000
# 2 20.0285 31.6117 1.3962 0.0000 0.0000 0.0000
# 3 9.6393 1.3962 110.2124 0.0000 0.0000 0.0000
# 4 0.0000 0.0000 0.0000 14.3918 0.0000 0.0000
# 5 0.0000 0.0000 0.0000 0.0000 17.9327 0.0000
# 6 0.0000 0.0000 0.0000 0.0000 0.0000 11.2638
#
#
#
# Elastic Compliance Matrix: (Units=1/GPa)
#
#
# Indices 1 2 3 4 5 6 
#
# 1 0.026472 -0.016679 -0.002104 0.000000 0.000000 0.000000
# 2 -0.016679 0.042161 0.000925 0.000000 0.000000 0.000000
# 3 -0.002104 0.000925 0.009246 0.000000 0.000000 0.000000
# 4 0.000000 0.000000 0.000000 0.069484 0.000000 0.000000
# 5 0.000000 0.000000 0.000000 0.000000 0.055764 0.000000
# 6 0.000000 0.000000 0.000000 0.000000 0.000000 0.088780
#
#
# Mechanical properties :
#
#
# Convention : Reuss Voigt Hill
#
# Bulk Modulus (GPa) = 23.71839 28.34589 26.03214
# Shear Modulus (GPa) = 14.63369 19.51240 17.07304
#
# Velocity S-wave (km/s) = 2.95338 3.41034 3.19005
# Velocity P-wave (km/s) = 5.07615 5.69235 5.39306
#
# Compressibility (1/GPa) = 0.04216138
#
# Stress axis : x y z
#
# Youngs Moduli (GPa) = 37.77548 23.71876 108.15853
#
# Poissons Ratio (x) = 0.39561 0.22756
# Poissons Ratio (y) = 0.63007 -0.10001
# Poissons Ratio (z) = 0.07948 -0.02193
#
# Static dielectric constant tensor:
#      x y z
#    x 1.593940 0.000000 0.000000 
#    y 0.000000 1.579660 0.000000 
#    z 0.000000 0.000000 1.763790 
# 
# From -- ./inp_files/2478.got.cif
#   From: 2010.05.17/outbox.cif.g08.bks.cpg/sg60_2_cif.got.tgz:2478.got - 2010.06.03 14:59:27.
