data_PCOD9454737
_publ_section_title
;
Structure prediction by ZEFSAII (Michael W. Deem and Ramdas Pophale) SiO2 
 PCOD9454737
Probable space group: P B C N
;
_chemical_formula_sum "Si O2"
_cell_formula_units_Z 32
_cell_length_a 9.488056
_cell_length_b 8.693863
_cell_length_c 16.610127
_cell_angle_alpha 90.000000
_cell_angle_beta 90.000000
_cell_angle_gamma 90.000000
_cell_volume 1370.133814
_symmetry_space_group_name_H-M "P B C N"
_symmetry_group_IT_number 60
_symmetry_cell_setting 'orthorhombic'
loop_
_space_group_symop_operation_xyz
x,y,z
1/2-x,1/2-y,1/2+z
1/2+x,1/2-y,-z
-x,y,1/2-z
-x,-y,-z
1/2+x,1/2+y,1/2-z
1/2-x,1/2+y,z
x,-y,1/2+z
loop_
_atom_site_type_symbol
_atom_site_label
_atom_site_fract_x
_atom_site_fract_y
_atom_site_fract_z
Si Si1 0.333508 0.113574 0.033701
Si Si2 0.939079 0.638460 0.165624
Si Si3 0.302959 0.537925 0.875478
Si Si4 0.479237 0.356064 0.560945
O O1 0.436018 0.076482 0.107860
O O2 0.185827 0.177938 0.069473
O O3 0.273678 0.003543 0.962762
O O4 0.432758 0.222491 0.980215
O O5 0.859794 0.788397 0.127965
O O6 0.823974 0.506476 0.182485
O O7 0.000000 0.692963 0.250000
O O8 0.433942 0.422374 0.863879
O O9 0.500000 0.500000 0.500000
#
# Coordination Sequence:
#
# PCOD9454737 Si02
#       4
#     8   8   8   8
#     4  11  20  41  72  98 133 175 233 277 329 405
#     4  12  27  46  67 102 141 178 223 290 352 397
#     4  11  23  47  67  97 136 179 235 275 328 425
#     4  10  19  37  70  99 128 168 229 275 320 392
#
# _framework density 23.355383
#
# number of rings (size 3 to 8) (size 9 to 14) (size 15 to 20)
#    0.000    1.000    7.500    0.750    0.000    4.000 
#    4.500    1.250    0.000    0.000    0.000    0.000 
#    0.000    0.000    0.000    0.000    0.000    0.000 
#
# Total GULP energy -178246.048145 kJ/mol
# GULP energy per Si atom -5570.189005 kJ/mol
# Density = 2.330223 g / cm^3
# Si number density = 23.355383 Si / 1000 Ang^3
#
#
#
# Elastic Constant Matrix: (Units=GPa)
#
#
# Indices 1 2 3 4 5 6 
#
# 1 217.3661 44.7437 20.7729 0.0000 0.0000 0.0000
# 2 44.7437 48.7115 18.0652 0.0000 0.0000 0.0000
# 3 20.7729 18.0652 50.8142 0.0000 0.0000 0.0000
# 4 0.0000 0.0000 0.0000 11.6071 0.0000 0.0000
# 5 0.0000 0.0000 0.0000 0.0000 18.8390 0.0000
# 6 0.0000 0.0000 0.0000 0.0000 0.0000 42.7618
#
#
#
# Elastic Compliance Matrix: (Units=1/GPa)
#
#
# Indices 1 2 3 4 5 6 
#
# 1 0.005686 -0.005023 -0.000539 0.000000 0.000000 0.000000
# 2 -0.005023 0.028084 -0.007931 0.000000 0.000000 0.000000
# 3 -0.000539 -0.007931 0.022719 0.000000 0.000000 0.000000
# 4 0.000000 0.000000 0.000000 0.086154 0.000000 0.000000
# 5 0.000000 0.000000 0.000000 0.000000 0.053081 0.000000
# 6 0.000000 0.000000 0.000000 0.000000 0.000000 0.023385
#
#
# Mechanical properties :
#
#
# Convention : Reuss Voigt Hill
#
# Bulk Modulus (GPa) = 33.89348 53.78394 43.83871
# Shear Modulus (GPa) = 19.53656 30.19558 24.86607
#
# Velocity S-wave (km/s) = 2.89535 3.59956 3.26649
# Velocity P-wave (km/s) = 5.07159 6.35250 5.74784
#
# Compressibility (1/GPa) = 0.02950420
#
# Stress axis : x y z
#
# Youngs Moduli (GPa) = 175.87104 35.60720 44.01539
#
# Poissons Ratio (x) = 0.17886 0.02371
# Poissons Ratio (y) = 0.88341 0.34908
# Poissons Ratio (z) = 0.09473 0.28240
#
# Static dielectric constant tensor:
#      x y z
#    x 2.023090 0.000000 0.000000 
#    y 0.000000 1.923070 0.000000 
#    z 0.000000 0.000000 2.003880 
# 
# From -- ./inp_files/18951.got.cif
#   From: 2010.05.17/outbox.cif.g08.bks.cpg/sg60_10_cif.got.tgz:18951.got - 2010.06.03 14:59:27.
