data_PCOD9454384
_publ_section_title
;
Structure prediction by ZEFSAII (Michael W. Deem and Ramdas Pophale) SiO2 
 PCOD9454384
Probable space group: P B C N
;
_chemical_formula_sum "Si O2"
_cell_formula_units_Z 60
_cell_length_a 5.591149
_cell_length_b 12.335609
_cell_length_c 32.655273
_cell_angle_alpha 90.000000
_cell_angle_beta 90.000000
_cell_angle_gamma 90.000000
_cell_volume 2252.241622
_symmetry_space_group_name_H-M "P B C N"
_symmetry_group_IT_number 60
_symmetry_cell_setting 'orthorhombic'
loop_
_space_group_symop_operation_xyz
x,y,z
1/2-x,1/2-y,1/2+z
1/2+x,1/2-y,-z
-x,y,1/2-z
-x,-y,-z
1/2+x,1/2+y,1/2-z
1/2-x,1/2+y,z
x,-y,1/2+z
loop_
_atom_site_type_symbol
_atom_site_label
_atom_site_fract_x
_atom_site_fract_y
_atom_site_fract_z
Si Si1 0.100597 0.658385 0.102419
Si Si2 0.878500 0.767233 0.709243
Si Si3 0.880040 0.080472 0.883520
Si Si4 0.120310 0.589862 0.924224
Si Si5 0.401946 0.300817 0.875800
Si Si6 0.000000 0.617046 0.250000
Si Si7 0.582653 0.183744 0.493163
Si Si8 0.605385 0.508578 0.791607
O O1 0.124593 0.789359 0.108987
O O2 0.361420 0.626136 0.120348
O O3 0.077386 0.644730 0.053722
O O4 0.849905 0.636855 0.125333
O O5 0.920989 0.723483 0.664469
O O6 0.610047 0.795613 0.718843
O O7 0.000000 0.719827 0.750000
O O8 0.972729 0.891920 0.705763
O O9 0.618865 0.044274 0.901855
O O10 0.908997 0.067237 0.834517
O O11 0.122580 0.049527 0.908345
O O12 0.114738 0.719033 0.913590
O O13 0.104739 0.589827 0.972931
O O14 0.864346 0.533960 0.279435
O O15 0.329256 0.245589 0.501814
O O16 0.500000 0.561579 0.750000
#
# Coordination Sequence:
#
# PCOD9454384 Si02
#       8
#     8   8   8   8   8   4   8   8
#     4  10  20  32  51  80 106 135 164 205 257 306
#     4   9  20  35  53  74  97 135 177 217 254 295
#     4  10  19  33  50  76 107 130 169 213 249 304
#     4  10  20  32  51  80 106 135 164 205 257 306
#     4  10  19  33  50  76 107 130 169 213 249 304
#     4   8  18  36  52  74  88 134 178 216 256 288
#     4  12  16  32  50  78 108 135 171 200 248 306
#     4   9  20  35  53  74  97 135 177 217 254 295
#
# _framework density 26.640122999999999
#
# number of rings (size 3 to 8) (size 9 to 14) (size 15 to 20)
#    0.000    2.400    5.333    0.000    7.467    0.000 
#    0.000    5.333    0.000    0.000    0.000   10.267 
#    0.000    0.000    0.000    0.000    0.000    0.000 
#
# Total GULP energy -335135.167971 kJ/mol
# GULP energy per Si atom -5585.586133 kJ/mol
# Density = 2.657949 g / cm^3
# Si number density = 26.640123 Si / 1000 Ang^3
#
#
#
# Elastic Constant Matrix: (Units=GPa)
#
#
# Indices 1 2 3 4 5 6 
#
# 1 192.1484 16.9523 45.3737 0.0000 0.0000 0.0000
# 2 16.9523 37.6276 21.3802 0.0000 0.0000 0.0000
# 3 45.3737 21.3802 223.9775 0.0000 0.0000 0.0000
# 4 0.0000 0.0000 0.0000 -44.7943 0.0000 0.0000
# 5 0.0000 0.0000 0.0000 0.0000 73.4108 0.0000
# 6 0.0000 0.0000 0.0000 0.0000 0.0000 38.0173
#
#
#
# Elastic Compliance Matrix: (Units=1/GPa)
#
#
# Indices 1 2 3 4 5 6 
#
# 1 0.005603 -0.001987 -0.000945 0.000000 0.000000 0.000000
# 2 -0.001987 0.028805 -0.002347 0.000000 0.000000 0.000000
# 3 -0.000945 -0.002347 0.004880 0.000000 0.000000 0.000000
# 4 0.000000 0.000000 0.000000 -0.022324 0.000000 0.000000
# 5 0.000000 0.000000 0.000000 0.000000 0.013622 0.000000
# 6 0.000000 0.000000 0.000000 0.000000 0.000000 0.026304
#
#
# Mechanical properties :
#
#
# Convention : Reuss Voigt Hill
#
# Bulk Modulus (GPa) = 34.80783 69.01843 51.91313
# Shear Modulus (GPa) = 64.91377 37.99657 51.45517
#
# Velocity S-wave (km/s) = 4.94164 3.78072 4.39964
# Velocity P-wave (km/s) = 6.75678 6.70988 6.73337
#
# Compressibility (1/GPa) = 0.02872916
#
# Stress axis : x y z
#
# Youngs Moduli (GPa) = 178.48033 34.71607 204.90581
#
# Poissons Ratio (x) = 0.06898 0.19371
# Poissons Ratio (y) = 0.35466 0.48093
# Poissons Ratio (z) = 0.16873 0.08148
#
# Static dielectric constant tensor:
#      x y z
#    x 2.374610 0.000000 0.000000 
#    y 0.000000 2.239690 0.000000 
#    z 0.000000 0.000000 2.057830 
# 
# From -- ./inp_files/25792.got.cif
#   From: 2010.05.17/outbox.cif.g08.bks.cpg/sg60_13_cif.got.tgz:25792.got - 2010.06.03 14:59:27.
