data_PCOD9454876
_publ_section_title
;
Structure prediction by ZEFSAII (Michael W. Deem and Ramdas Pophale) SiO2 
 PCOD9454876
Probable space group: P B C N
;
_chemical_formula_sum "Si O2"
_cell_formula_units_Z 64
_cell_length_a 32.002520
_cell_length_b 12.259164
_cell_length_c 9.359692
_cell_angle_alpha 90.000000
_cell_angle_beta 90.000000
_cell_angle_gamma 90.000000
_cell_volume 3672.033125
_symmetry_space_group_name_H-M "P B C N"
_symmetry_group_IT_number 60
_symmetry_cell_setting 'orthorhombic'
loop_
_space_group_symop_operation_xyz
x,y,z
1/2-x,1/2-y,1/2+z
1/2+x,1/2-y,-z
-x,y,1/2-z
-x,-y,-z
1/2+x,1/2+y,1/2-z
1/2-x,1/2+y,z
x,-y,1/2+z
loop_
_atom_site_type_symbol
_atom_site_label
_atom_site_fract_x
_atom_site_fract_y
_atom_site_fract_z
Si Si1 0.869546 0.680838 0.223477
Si Si2 0.324112 0.778237 0.487822
Si Si3 0.192416 0.663194 0.517629
Si Si4 0.264975 0.374851 0.579785
Si Si5 0.460638 0.083952 0.656460
Si Si6 0.539174 0.854160 0.679600
Si Si7 0.723489 0.436285 0.608548
Si Si8 0.368303 0.079731 0.744913
O O1 0.854341 0.723591 0.375595
O O2 0.835151 0.713943 0.108425
O O3 0.917196 0.709320 0.187050
O O4 0.869535 0.547923 0.217219
O O5 0.281729 0.841359 0.534767
O O6 0.308967 0.659123 0.434047
O O7 0.347863 0.848099 0.368266
O O8 0.211141 0.762163 0.608347
O O9 0.231809 0.598971 0.456950
O O10 0.161985 0.589626 0.609838
O O11 0.268422 0.442963 0.723760
O O12 0.285981 0.446430 0.456764
O O13 0.500000 0.128082 0.750000
O O14 0.466097 0.103507 0.485491
O O15 0.414501 0.122984 0.703520
O O16 0.458210 0.957277 0.709148
O O17 0.500000 0.791746 0.750000
#
# Coordination Sequence:
#
# PCOD9454876 Si02
#       8
#     8   8   8   8   8   8   8   8
#     4  11  21  33  54  77 103 143 176 215 255 305
#     4  11  24  36  53  78 104 139 181 218 256 313
#     4  11  22  38  51  76 106 135 181 216 255 309
#     4  11  24  38  55  74 105 138 174 222 265 308
#     4  10  20  31  47  70 103 141 173 211 258 308
#     4  10  20  31  47  71 103 139 175 209 257 310
#     4  11  24  38  55  75 103 140 174 220 270 302
#     4  11  21  35  52  75 107 141 180 213 256 306
#
# _framework density 17.429034999999999
#
# number of rings (size 3 to 8) (size 9 to 14) (size 15 to 20)
#    0.000    1.250    3.750    3.750   10.500    0.000 
#    0.000    0.000    0.000    0.000    0.000    0.000 
#    0.000    6.000    0.000    0.000    0.000    0.000 
#
# Total GULP energy -356928.874819 kJ/mol
# GULP energy per Si atom -5577.013669 kJ/mol
# Density = 1.738937 g / cm^3
# Si number density = 17.429035 Si / 1000 Ang^3
#
#
#
# Elastic Constant Matrix: (Units=GPa)
#
#
# Indices 1 2 3 4 5 6 
#
# 1 103.6441 7.7430 19.2183 0.0000 0.0000 0.0000
# 2 7.7430 18.7836 -11.5040 0.0000 0.0000 0.0000
# 3 19.2183 -11.5040 75.9707 0.0000 0.0000 0.0000
# 4 0.0000 0.0000 0.0000 23.0104 0.0000 0.0000
# 5 0.0000 0.0000 0.0000 0.0000 170.9480 0.0000
# 6 0.0000 0.0000 0.0000 0.0000 0.0000 -2.1776
#
#
#
# Elastic Compliance Matrix: (Units=1/GPa)
#
#
# Indices 1 2 3 4 5 6 
#
# 1 0.010855 -0.006786 -0.003774 0.000000 0.000000 0.000000
# 2 -0.006786 0.062922 0.011245 0.000000 0.000000 0.000000
# 3 -0.003774 0.011245 0.015820 0.000000 0.000000 0.000000
# 4 0.000000 0.000000 0.000000 0.043459 0.000000 0.000000
# 5 0.000000 0.000000 0.000000 0.000000 0.005850 0.000000
# 6 0.000000 0.000000 0.000000 0.000000 0.000000 -0.459223
#
#
# Mechanical properties :
#
#
# Convention : Reuss Voigt Hill
#
# Bulk Modulus (GPa) = 10.99290 25.47922 18.23606
# Shear Modulus (GPa) = -17.16056 50.55224 16.69584
#
# Velocity S-wave (km/s) = -3.14123 5.39144 3.09841
# Velocity P-wave (km/s) = 2.61448 7.30803 4.82555
#
# Compressibility (1/GPa) = 0.09096779
#
# Stress axis : x y z
#
# Youngs Moduli (GPa) = 92.12297 15.89274 63.20992
#
# Poissons Ratio (x) = 0.10784 0.23853
# Poissons Ratio (y) = 0.62512 -0.71077
# Poissons Ratio (z) = 0.34763 -0.17871
#
# Static dielectric constant tensor:
#      x y z
#    x 1.642890 0.000000 0.000000 
#    y 0.000000 1.582370 0.000000 
#    z 0.000000 0.000000 1.651310 
# 
# From -- ./inp_files/8493.got.cif
#   From: 2010.05.17/outbox.cif.g08.bks.cpg/sg60_5_cif.got.tgz:8493.got - 2010.06.03 14:59:27.
