data_PCOD9454343
_publ_section_title
;
Structure prediction by ZEFSAII (Michael W. Deem and Ramdas Pophale) SiO2 
 PCOD9454343
Probable space group: P B C N
;
_chemical_formula_sum "Si O2"
_cell_formula_units_Z 64
_cell_length_a 13.603139
_cell_length_b 8.639436
_cell_length_c 21.367375
_cell_angle_alpha 90.000000
_cell_angle_beta 90.000000
_cell_angle_gamma 90.000000
_cell_volume 2511.167602
_symmetry_space_group_name_H-M "P B C N"
_symmetry_group_IT_number 60
_symmetry_cell_setting 'orthorhombic'
loop_
_space_group_symop_operation_xyz
x,y,z
1/2-x,1/2-y,1/2+z
1/2+x,1/2-y,-z
-x,y,1/2-z
-x,-y,-z
1/2+x,1/2+y,1/2-z
1/2-x,1/2+y,z
x,-y,1/2+z
loop_
_atom_site_type_symbol
_atom_site_label
_atom_site_fract_x
_atom_site_fract_y
_atom_site_fract_z
Si Si1 0.963693 0.854566 0.342927
Si Si2 0.117818 0.426558 0.419930
Si Si3 0.797115 0.877289 0.565505
Si Si4 0.137334 0.730158 0.282760
Si Si5 0.858800 0.168781 0.492337
Si Si6 0.042105 0.348542 0.549310
Si Si7 0.853229 0.142147 0.345453
Si Si8 0.197098 0.572893 0.732298
O O1 0.913319 0.787786 0.281416
O O2 0.913462 0.773123 0.402057
O O3 0.076074 0.799929 0.339914
O O4 0.949951 0.036409 0.339948
O O5 0.213544 0.523579 0.398904
O O6 0.133073 0.248093 0.400953
O O7 0.113123 0.419697 0.497322
O O8 0.015835 0.519317 0.410915
O O9 0.726512 0.770526 0.523373
O O10 0.857354 0.000788 0.525108
O O11 0.241143 0.814276 0.277601
O O12 0.136533 0.546974 0.273836
O O13 0.837907 0.158230 0.419091
O O14 0.960583 0.253083 0.509866
O O15 0.858103 0.308089 0.312824
O O16 0.768563 0.037986 0.310537
#
# Coordination Sequence:
#
# PCOD9454343 Si02
#       8
#     8   8   8   8   8   8   8   8
#     4  10  21  38  57  81 116 151 183 234 292 341
#     4   9  19  34  51  73 106 145 188 229 267 326
#     4   9  18  32  50  71 107 151 188 228 266 306
#     4   9  20  40  60  80 109 139 188 246 287 334
#     4  10  19  32  52  83 118 148 185 229 274 338
#     4  10  21  35  53  79 116 155 185 224 285 343
#     4  10  19  32  59  90 115 144 183 229 286 343
#     4   9  19  37  62  87 107 142 188 237 291 334
#
# _framework density 25.486153000000002
#
# number of rings (size 3 to 8) (size 9 to 14) (size 15 to 20)
#    0.000    2.500    0.000    1.500    0.000   10.000 
#    0.000   12.500    0.000    0.000    0.000    0.000 
#    0.000    0.000    0.000    0.000    0.000    0.000 
#
# Total GULP energy -357874.377577 kJ/mol
# GULP energy per Si atom -5591.787150 kJ/mol
# Density = 2.542815 g / cm^3
# Si number density = 25.486153 Si / 1000 Ang^3
#
#
#
# Elastic Constant Matrix: (Units=GPa)
#
#
# Indices 1 2 3 4 5 6 
#
# 1 43.9819 44.5953 8.1235 0.0000 0.0000 0.0000
# 2 44.5953 190.1087 31.5739 0.0000 0.0000 0.0000
# 3 8.1235 31.5739 88.2305 0.0000 0.0000 0.0000
# 4 0.0000 0.0000 0.0000 14.7930 0.0000 0.0000
# 5 0.0000 0.0000 0.0000 0.0000 20.9954 0.0000
# 6 0.0000 0.0000 0.0000 0.0000 0.0000 39.5654
#
#
#
# Elastic Compliance Matrix: (Units=1/GPa)
#
#
# Indices 1 2 3 4 5 6 
#
# 1 0.029838 -0.006956 -0.000258 0.000000 0.000000 0.000000
# 2 -0.006956 0.007214 -0.001941 0.000000 0.000000 0.000000
# 3 -0.000258 -0.001941 0.012052 0.000000 0.000000 0.000000
# 4 0.000000 0.000000 0.000000 0.067600 0.000000 0.000000
# 5 0.000000 0.000000 0.000000 0.000000 0.047629 0.000000
# 6 0.000000 0.000000 0.000000 0.000000 0.000000 0.025275
#
#
# Mechanical properties :
#
#
# Convention : Reuss Voigt Hill
#
# Bulk Modulus (GPa) = 32.47435 54.54515 43.50975
# Shear Modulus (GPa) = 22.91648 30.93932 26.92790
#
# Velocity S-wave (km/s) = 3.00188 3.48798 3.25402
# Velocity P-wave (km/s) = 4.97842 6.13756 5.58813
#
# Compressibility (1/GPa) = 0.03079353
#
# Stress axis : x y z
#
# Youngs Moduli (GPa) = 33.51468 138.61200 82.97123
#
# Poissons Ratio (x) = 0.96425 0.02139
# Poissons Ratio (y) = 0.23314 0.16107
# Poissons Ratio (z) = 0.00864 0.26908
#
# Static dielectric constant tensor:
#      x y z
#    x 2.162420 0.000000 0.000000 
#    y 0.000000 2.054490 0.000000 
#    z 0.000000 0.000000 1.998890 
# 
# From -- ./inp_files/24459.got.cif
#   From: 2010.05.17/outbox.cif.g08.bks.cpg/sg60_13_cif.got.tgz:24459.got - 2010.06.03 14:59:27.
