data_PCOD9454194
_publ_section_title
;
Structure prediction by ZEFSAII (Michael W. Deem and Ramdas Pophale) SiO2 
 PCOD9454194
Probable space group: P B C N
;
_chemical_formula_sum "Si O2"
_cell_formula_units_Z 48
_cell_length_a 9.969364
_cell_length_b 15.753087
_cell_length_c 12.893093
_cell_angle_alpha 90.000000
_cell_angle_beta 90.000000
_cell_angle_gamma 90.000000
_cell_volume 2024.837801
_symmetry_space_group_name_H-M "P B C N"
_symmetry_group_IT_number 60
_symmetry_cell_setting 'orthorhombic'
loop_
_space_group_symop_operation_xyz
x,y,z
1/2-x,1/2-y,1/2+z
1/2+x,1/2-y,-z
-x,y,1/2-z
-x,-y,-z
1/2+x,1/2+y,1/2-z
1/2-x,1/2+y,z
x,-y,1/2+z
loop_
_atom_site_type_symbol
_atom_site_label
_atom_site_fract_x
_atom_site_fract_y
_atom_site_fract_z
Si Si1 0.654762 0.387096 0.971226
Si Si2 0.333054 0.208071 0.860346
Si Si3 0.500000 0.522270 0.750000
Si Si4 0.000000 0.519622 0.250000
Si Si5 0.228802 0.113366 0.265557
Si Si6 0.373041 0.413775 0.042845
Si Si7 0.612313 0.135338 0.865847
O O1 0.733984 0.336782 0.059254
O O2 0.494487 0.375518 0.977856
O O3 0.709191 0.365744 0.856868
O O4 0.665936 0.489415 0.986251
O O5 0.297210 0.303816 0.832444
O O6 0.486662 0.192996 0.896104
O O7 0.333180 0.162216 0.747491
O O8 0.380169 0.460252 0.785441
O O9 0.559287 0.576343 0.843310
O O10 0.124711 0.575979 0.284075
O O11 0.053444 0.458739 0.157400
O O12 0.235181 0.364024 0.055804
#
# Coordination Sequence:
#
# PCOD9454194 Si02
#       7
#     8   8   4   4   8   8   8
#     4  10  22  40  65 103 133 171 238 277 346 408
#     4  10  23  41  67  92 144 179 223 278 355 407
#     4  10  18  37  67  90 132 172 230 268 362 399
#     4  10  20  41  65  94 134 184 228 274 338 415
#     4  11  23  43  64  97 140 186 226 284 346 424
#     4  10  20  38  69 101 129 167 227 298 332 411
#     4  10  21  43  66  99 132 179 227 283 343 404
#
# _framework density 23.705601999999999
#
# number of rings (size 3 to 8) (size 9 to 14) (size 15 to 20)
#    0.000    2.000    3.333    2.000    2.333    2.000 
#    0.000   15.000    0.000    0.000    0.000    0.000 
#    0.000    0.000    0.000    0.000    0.000    0.000 
#
# Total GULP energy -268854.044574 kJ/mol
# GULP energy per Si atom -5601.125929 kJ/mol
# Density = 2.365165 g / cm^3
# Si number density = 23.705602 Si / 1000 Ang^3
#
#
#
# Elastic Constant Matrix: (Units=GPa)
#
#
# Indices 1 2 3 4 5 6 
#
# 1 174.8771 62.3954 47.9341 0.0000 0.0000 0.0000
# 2 62.3954 96.5325 43.7295 0.0000 0.0000 0.0000
# 3 47.9341 43.7295 102.1126 0.0000 0.0000 0.0000
# 4 0.0000 0.0000 0.0000 28.0578 0.0000 0.0000
# 5 0.0000 0.0000 0.0000 0.0000 34.7541 0.0000
# 6 0.0000 0.0000 0.0000 0.0000 0.0000 -7.9170
#
#
#
# Elastic Compliance Matrix: (Units=1/GPa)
#
#
# Indices 1 2 3 4 5 6 
#
# 1 0.007701 -0.004144 -0.001840 0.000000 0.000000 0.000000
# 2 -0.004144 0.015083 -0.004514 0.000000 0.000000 0.000000
# 3 -0.001840 -0.004514 0.012590 0.000000 0.000000 0.000000
# 4 0.000000 0.000000 0.000000 0.035641 0.000000 0.000000
# 5 0.000000 0.000000 0.000000 0.000000 0.028774 0.000000
# 6 0.000000 0.000000 0.000000 0.000000 0.000000 -0.126310
#
#
# Mechanical properties :
#
#
# Convention : Reuss Voigt Hill
#
# Bulk Modulus (GPa) = 69.55408 75.73780 72.64594
# Shear Modulus (GPa) = -6821.78391 25.60986 -3398.08702
#
# Velocity S-wave (km/s) = -53.70248 3.29040 -37.90205
# Velocity P-wave (km/s) = 61.77274 6.81574 43.41323
#
# Compressibility (1/GPa) = 0.01437730
#
# Stress axis : x y z
#
# Youngs Moduli (GPa) = 129.84634 66.30156 79.42765
#
# Poissons Ratio (x) = 0.27477 0.14619
# Poissons Ratio (y) = 0.53811 0.35851
# Poissons Ratio (z) = 0.23898 0.29927
#
# Static dielectric constant tensor:
#      x y z
#    x 1.862950 0.000000 0.000000 
#    y 0.000000 1.914280 0.000000 
#    z 0.000000 0.000000 1.942330 
# 
# From -- ./inp_files/15061.got.cif
#   From: 2010.05.17/outbox.cif.g08.bks.cpg/sg60_8_cif.got.tgz:15061.got - 2010.06.03 14:59:27.
