data_PCOD9454531
_publ_section_title
;
Structure prediction by ZEFSAII (Michael W. Deem and Ramdas Pophale) SiO2 
 PCOD9454531
Probable space group: P B C N
;
_chemical_formula_sum "Si O2"
_cell_formula_units_Z 48
_cell_length_a 8.767478
_cell_length_b 29.746355
_cell_length_c 9.474614
_cell_angle_alpha 90.000000
_cell_angle_beta 90.000000
_cell_angle_gamma 90.000000
_cell_volume 2470.984192
_symmetry_space_group_name_H-M "P B C N"
_symmetry_group_IT_number 60
_symmetry_cell_setting 'orthorhombic'
loop_
_space_group_symop_operation_xyz
x,y,z
1/2-x,1/2-y,1/2+z
1/2+x,1/2-y,-z
-x,y,1/2-z
-x,-y,-z
1/2+x,1/2+y,1/2-z
1/2-x,1/2+y,z
x,-y,1/2+z
loop_
_atom_site_type_symbol
_atom_site_label
_atom_site_fract_x
_atom_site_fract_y
_atom_site_fract_z
Si Si1 0.573213 0.437240 0.103954
Si Si2 0.324844 0.879293 0.786867
Si Si3 0.300802 0.307107 0.963679
Si Si4 0.647388 0.656809 0.478540
Si Si5 0.640936 0.532725 0.141340
Si Si6 0.682017 0.726548 0.724117
O O1 0.500000 0.422717 0.250000
O O2 0.643849 0.394144 0.033039
O O3 0.683514 0.480231 0.125884
O O4 0.432644 0.452996 0.006626
O O5 0.500000 0.882445 0.750000
O O6 0.298169 0.851026 0.929096
O O7 0.239439 0.849633 0.666362
O O8 0.254440 0.928980 0.805653
O O9 0.260838 0.269289 0.848095
O O10 0.476519 0.323826 0.953243
O O11 0.264711 0.287665 0.119447
O O12 0.706424 0.687691 0.606695
O O13 0.500000 0.532488 0.250000
O O14 0.500000 0.734573 0.750000
#
# Coordination Sequence:
#
# PCOD9454531 Si02
#       6
#     8   8   8   8   8   8
#     4  10  19  34  68  97 122 153 213 258 294 366
#     4  12  24  40  60  88 127 165 206 254 313 368
#     4  11  21  40  64  90 122 160 205 255 309 369
#     4  11  22  42  66  92 123 166 211 255 308 366
#     4  10  19  37  64  95 121 163 209 251 305 362
#     4  10  23  39  63  96 124 157 204 259 311 367
#
# _framework density 19.425457000000002
#
# number of rings (size 3 to 8) (size 9 to 14) (size 15 to 20)
#    0.000    1.333    3.333    3.500    0.000    2.667 
#    0.000    5.000    0.000    0.000    0.000    0.000 
#    0.000    0.000    0.000    0.000    0.000    0.000 
#
# Total GULP energy -267809.432859 kJ/mol
# GULP energy per Si atom -5579.363185 kJ/mol
# Density = 1.938124 g / cm^3
# Si number density = 19.425457 Si / 1000 Ang^3
#
#
#
# Elastic Constant Matrix: (Units=GPa)
#
#
# Indices 1 2 3 4 5 6 
#
# 1 53.2408 54.5177 31.0877 0.0000 0.0000 0.0000
# 2 54.5177 162.4784 44.6224 0.0000 0.0000 0.0000
# 3 31.0877 44.6224 112.0823 0.0000 0.0000 0.0000
# 4 0.0000 0.0000 0.0000 250.4420 0.0000 0.0000
# 5 0.0000 0.0000 0.0000 0.0000 19.1153 0.0000
# 6 0.0000 0.0000 0.0000 0.0000 0.0000 -85.1482
#
#
#
# Elastic Compliance Matrix: (Units=1/GPa)
#
#
# Indices 1 2 3 4 5 6 
#
# 1 0.030915 -0.009003 -0.004991 0.000000 0.000000 0.000000
# 2 -0.009003 0.009532 -0.001298 0.000000 0.000000 0.000000
# 3 -0.004991 -0.001298 0.010823 0.000000 0.000000 0.000000
# 4 0.000000 0.000000 0.000000 0.003993 0.000000 0.000000
# 5 0.000000 0.000000 0.000000 0.000000 0.052314 0.000000
# 6 0.000000 0.000000 0.000000 0.000000 0.000000 -0.011744
#
#
# Mechanical properties :
#
#
# Convention : Reuss Voigt Hill
#
# Bulk Modulus (GPa) = 48.33769 65.36190 56.84980
# Shear Modulus (GPa) = 37.50631 50.05339 43.77985
#
# Velocity S-wave (km/s) = 4.39883 5.08162 4.75250
# Velocity P-wave (km/s) = 7.12301 8.25536 7.71001
#
# Compressibility (1/GPa) = 0.02068779
#
# Stress axis : x y z
#
# Youngs Moduli (GPa) = 32.34651 104.91172 92.39639
#
# Poissons Ratio (x) = 0.94448 0.46112
# Poissons Ratio (y) = 0.29120 0.11991
# Poissons Ratio (z) = 0.16143 0.13616
#
# Static dielectric constant tensor:
#      x y z
#    x 1.650530 0.000000 0.000000 
#    y 0.000000 1.727670 0.000000 
#    z 0.000000 0.000000 1.659430 
# 
# From -- ./inp_files/4231.got.cif
#   From: 2010.05.17/outbox.cif.g08.bks.cpg/sg60_3_cif.got.tgz:4231.got - 2010.06.03 14:59:27.
