data_PCOD9454806
_publ_section_title
;
Structure prediction by ZEFSAII (Michael W. Deem and Ramdas Pophale) SiO2 
 PCOD9454806
Probable space group: P B C N
;
_chemical_formula_sum "Si O2"
_cell_formula_units_Z 64
_cell_length_a 16.542356
_cell_length_b 7.597002
_cell_length_c 21.901375
_cell_angle_alpha 90.000000
_cell_angle_beta 90.000000
_cell_angle_gamma 90.000000
_cell_volume 2752.396424
_symmetry_space_group_name_H-M "P B C N"
_symmetry_group_IT_number 60
_symmetry_cell_setting 'orthorhombic'
loop_
_space_group_symop_operation_xyz
x,y,z
1/2-x,1/2-y,1/2+z
1/2+x,1/2-y,-z
-x,y,1/2-z
-x,-y,-z
1/2+x,1/2+y,1/2-z
1/2-x,1/2+y,z
x,-y,1/2+z
loop_
_atom_site_type_symbol
_atom_site_label
_atom_site_fract_x
_atom_site_fract_y
_atom_site_fract_z
Si Si1 0.532109 0.774199 0.875268
Si Si2 0.502537 0.638839 0.400253
Si Si3 0.845675 0.799853 0.836385
Si Si4 0.858329 0.561329 0.112309
Si Si5 0.286165 0.625970 0.826847
Si Si6 0.676681 0.292540 0.304585
Si Si7 0.424510 0.132302 0.996671
Si Si8 0.418569 0.342699 0.782304
O O1 0.505838 0.570000 0.886628
O O2 0.450978 0.888264 0.871653
O O3 0.592418 0.799998 0.818827
O O4 0.588915 0.820748 0.933335
O O5 0.593414 0.713876 0.392728
O O6 0.457208 0.695218 0.461076
O O7 0.455688 0.732530 0.344339
O O8 0.754223 0.746125 0.846097
O O9 0.883101 0.724703 0.772782
O O10 0.842669 0.004432 0.817329
O O11 0.815204 0.751863 0.117656
O O12 0.000000 0.072648 0.250000
O O13 0.860551 0.465663 0.046533
O O14 0.292627 0.736080 0.764021
O O15 0.350624 0.472882 0.810441
O O16 0.198019 0.555513 0.843480
O O17 0.500000 0.000000 0.000000
#
# Coordination Sequence:
#
# PCOD9454806 Si02
#       8
#     8   8   8   8   8   8   8   8
#     4  10  22  45  67  95 127 188 229 277 339 413
#     4  10  19  39  70  90 126 174 227 273 335 401
#     4   9  20  35  60  96 132 166 209 273 333 404
#     4  11  25  40  64  95 138 172 225 289 339 403
#     4  11  22  38  63  99 134 169 220 280 348 402
#     4  10  21  38  64  93 135 170 216 269 341 417
#     4  10  24  43  64  94 132 174 232 288 327 405
#     4   9  18  35  64  96 130 168 213 270 338 410
#
# _framework density 23.252464
#
# number of rings (size 3 to 8) (size 9 to 14) (size 15 to 20)
#    0.000    2.000    1.250    2.625    3.500    2.000 
#    0.000    6.250    0.000    0.000    0.000    0.000 
#    0.000    0.000    0.000    0.000    0.000    0.000 
#
# Total GULP energy -356789.149014 kJ/mol
# GULP energy per Si atom -5574.830453 kJ/mol
# Density = 2.319954 g / cm^3
# Si number density = 23.252464 Si / 1000 Ang^3
#
#
#
# Elastic Constant Matrix: (Units=GPa)
#
#
# Indices 1 2 3 4 5 6 
#
# 1 150.4001 31.6130 42.7086 0.0000 0.0000 0.0000
# 2 31.6130 77.3706 26.6119 0.0000 0.0000 0.0000
# 3 42.7086 26.6119 58.9511 0.0000 0.0000 0.0000
# 4 0.0000 0.0000 0.0000 20.2776 0.0000 0.0000
# 5 0.0000 0.0000 0.0000 0.0000 34.7514 0.0000
# 6 0.0000 0.0000 0.0000 0.0000 0.0000 25.8109
#
#
#
# Elastic Compliance Matrix: (Units=1/GPa)
#
#
# Indices 1 2 3 4 5 6 
#
# 1 0.008537 -0.001611 -0.005458 0.000000 0.000000 0.000000
# 2 -0.001611 0.015605 -0.005877 0.000000 0.000000 0.000000
# 3 -0.005458 -0.005877 0.023570 0.000000 0.000000 0.000000
# 4 0.000000 0.000000 0.000000 0.049315 0.000000 0.000000
# 5 0.000000 0.000000 0.000000 0.000000 0.028776 0.000000
# 6 0.000000 0.000000 0.000000 0.000000 0.000000 0.038743
#
#
# Mechanical properties :
#
#
# Convention : Reuss Voigt Hill
#
# Bulk Modulus (GPa) = 45.82891 54.28762 50.05826
# Shear Modulus (GPa) = 25.28928 28.55388 26.92158
#
# Velocity S-wave (km/s) = 3.30145 3.50808 3.40633
# Velocity P-wave (km/s) = 5.85532 6.30924 6.08652
#
# Compressibility (1/GPa) = 0.02182029
#
# Stress axis : x y z
#
# Youngs Moduli (GPa) = 117.13134 64.08405 42.42615
#
# Poissons Ratio (x) = 0.10324 0.23156
# Poissons Ratio (y) = 0.18871 0.24934
# Poissons Ratio (z) = 0.63929 0.37663
#
# Static dielectric constant tensor:
#      x y z
#    x 1.897940 0.000000 0.000000 
#    y 0.000000 1.966750 0.000000 
#    z 0.000000 0.000000 1.936240 
# 
# From -- ./inp_files/23116.got.cif
#   From: 2010.05.17/outbox.cif.g08.bks.cpg/sg60_12_cif.got.tgz:23116.got - 2010.06.03 14:59:27.
