data_PCOD9454291
_publ_section_title
;
Structure prediction by ZEFSAII (Michael W. Deem and Ramdas Pophale) SiO2 
 PCOD9454291
Probable space group: P B C N
;
_chemical_formula_sum "Si O2"
_cell_formula_units_Z 56
_cell_length_a 14.589552
_cell_length_b 37.579958
_cell_length_c 5.320784
_cell_angle_alpha 90.000000
_cell_angle_beta 90.000000
_cell_angle_gamma 90.000000
_cell_volume 2917.251525
_symmetry_space_group_name_H-M "P B C N"
_symmetry_group_IT_number 60
_symmetry_cell_setting 'orthorhombic'
loop_
_space_group_symop_operation_xyz
x,y,z
1/2-x,1/2-y,1/2+z
1/2+x,1/2-y,-z
-x,y,1/2-z
-x,-y,-z
1/2+x,1/2+y,1/2-z
1/2-x,1/2+y,z
x,-y,1/2+z
loop_
_atom_site_type_symbol
_atom_site_label
_atom_site_fract_x
_atom_site_fract_y
_atom_site_fract_z
Si Si1 0.892133 0.522967 0.756517
Si Si2 0.799815 0.597838 0.683362
Si Si3 0.132192 0.830975 0.823849
Si Si4 0.103309 0.715468 0.261857
Si Si5 0.891132 0.747227 0.738986
Si Si6 0.595044 0.372737 0.174963
Si Si7 0.663219 0.860251 0.686195
O O1 0.876709 0.495919 0.524694
O O2 0.828705 0.557160 0.716926
O O3 0.000000 0.533609 0.750000
O O4 0.689431 0.604614 0.677862
O O5 0.841149 0.613748 0.425326
O O6 0.839354 0.619016 0.923874
O O7 0.116596 0.789325 0.790188
O O8 0.087827 0.853317 0.594343
O O9 0.238369 0.840994 0.798994
O O10 0.104783 0.843678 0.102310
O O11 0.150365 0.733063 0.501947
O O12 0.097412 0.673386 0.299527
O O13 0.000000 0.730648 0.250000
O O14 0.148121 0.726213 0.999441
O O15 0.000000 0.738053 0.750000
O O16 0.500000 0.392210 0.250000
#
# Coordination Sequence:
#
# PCOD9454291 Si02
#       7
#     8   8   8   8   8   8   8
#     4  10  21  38  61  88 114 140 171 205 244 292
#     4  10  21  36  56  81 107 136 169 207 252 304
#     4  10  20  32  50  73  97 130 176 225 265 307
#     4  10  21  33  46  66  95 132 172 216 264 317
#     4  10  19  31  46  65  91 128 175 222 269 311
#     4  10  19  33  53  77 105 135 171 216 261 303
#     4  10  21  35  50  74 103 133 171 211 259 310
#
# _framework density 19.196151
#
# number of rings (size 3 to 8) (size 9 to 14) (size 15 to 20)
#    0.000    2.000    0.000    3.857    0.000    3.429 
#    0.000    0.000    0.000    0.857    0.000    0.000 
#    0.000    0.000    0.000    0.000    0.000    0.000 
#
# Total GULP energy -312535.279154 kJ/mol
# GULP energy per Si atom -5580.987128 kJ/mol
# Density = 1.915246 g / cm^3
# Si number density = 19.196151 Si / 1000 Ang^3
#
#
#
# Elastic Constant Matrix: (Units=GPa)
#
#
# Indices 1 2 3 4 5 6 
#
# 1 31.1658 17.7768 16.5674 0.0000 0.0000 0.0000
# 2 17.7768 76.5147 27.7006 0.0000 0.0000 0.0000
# 3 16.5674 27.7006 141.7729 0.0000 0.0000 0.0000
# 4 0.0000 0.0000 0.0000 24.8037 0.0000 0.0000
# 5 0.0000 0.0000 0.0000 0.0000 5.4231 0.0000
# 6 0.0000 0.0000 0.0000 0.0000 0.0000 -5.6503
#
#
#
# Elastic Compliance Matrix: (Units=1/GPa)
#
#
# Indices 1 2 3 4 5 6 
#
# 1 0.038086 -0.007788 -0.002929 0.000000 0.000000 0.000000
# 2 -0.007788 0.015657 -0.002149 0.000000 0.000000 0.000000
# 3 -0.002929 -0.002149 0.007816 0.000000 0.000000 0.000000
# 4 0.000000 0.000000 0.000000 0.040316 0.000000 0.000000
# 5 0.000000 0.000000 0.000000 0.000000 0.184395 0.000000
# 6 0.000000 0.000000 0.000000 0.000000 0.000000 -0.176982
#
#
# Mechanical properties :
#
#
# Convention : Reuss Voigt Hill
#
# Bulk Modulus (GPa) = 27.91266 41.50478 34.70872
# Shear Modulus (GPa) = 34.02227 17.40922 25.71575
#
# Velocity S-wave (km/s) = 4.21449 3.01476 3.66407
# Velocity P-wave (km/s) = 6.18506 5.81264 6.00174
#
# Compressibility (1/GPa) = 0.03582603
#
# Stress axis : x y z
#
# Youngs Moduli (GPa) = 26.25649 63.86988 127.94754
#
# Poissons Ratio (x) = 0.49743 0.37475
# Poissons Ratio (y) = 0.20449 0.27496
# Poissons Ratio (z) = 0.07690 0.13726
#
# Static dielectric constant tensor:
#      x y z
#    x 1.814270 0.000000 0.000000 
#    y 0.000000 1.606410 0.000000 
#    z 0.000000 0.000000 1.562240 
# 
# From -- ./inp_files/1493.got.cif
#   From: 2010.05.17/outbox.cif.g08.bks.cpg/sg60_1_cif.got.tgz:1493.got - 2010.06.03 14:59:27.
