data_PCOD9454771
_publ_section_title
;
Structure prediction by ZEFSAII (Michael W. Deem and Ramdas Pophale) SiO2 
 PCOD9454771
Probable space group: P B C N
;
_chemical_formula_sum "Si O2"
_cell_formula_units_Z 56
_cell_length_a 15.955145
_cell_length_b 9.344332
_cell_length_c 14.940311
_cell_angle_alpha 90.000000
_cell_angle_beta 90.000000
_cell_angle_gamma 90.000000
_cell_volume 2227.453537
_symmetry_space_group_name_H-M "P B C N"
_symmetry_group_IT_number 60
_symmetry_cell_setting 'orthorhombic'
loop_
_space_group_symop_operation_xyz
x,y,z
1/2-x,1/2-y,1/2+z
1/2+x,1/2-y,-z
-x,y,1/2-z
-x,-y,-z
1/2+x,1/2+y,1/2-z
1/2-x,1/2+y,z
x,-y,1/2+z
loop_
_atom_site_type_symbol
_atom_site_label
_atom_site_fract_x
_atom_site_fract_y
_atom_site_fract_z
Si Si1 0.859090 0.255421 0.553006
Si Si2 0.200616 0.359743 0.243475
Si Si3 0.554537 0.967253 0.836209
Si Si4 0.617242 0.306327 0.255838
Si Si5 0.419334 0.624804 0.299323
Si Si6 0.291657 0.058619 0.954752
Si Si7 0.464156 0.807984 0.463257
O O1 0.866803 0.271168 0.660691
O O2 0.799838 0.122820 0.525335
O O3 0.806135 0.393850 0.523990
O O4 0.953425 0.254230 0.515560
O O5 0.143203 0.457822 0.181699
O O6 0.292269 0.341615 0.204630
O O7 0.160088 0.203667 0.257249
O O8 0.202394 0.419340 0.345949
O O9 0.500000 0.003000 0.750000
O O10 0.566749 0.795506 0.823215
O O11 0.501971 0.051580 0.911298
O O12 0.583540 0.458276 0.221535
O O13 0.500000 0.685553 0.250000
O O14 0.434086 0.677623 0.399688
O O15 0.373423 0.136199 0.998341
#
# Coordination Sequence:
#
# PCOD9454771 Si02
#       7
#     8   8   8   8   8   8   8
#     4  11  24  43  66 100 132 185 233 277 337 418
#     4  10  19  38  64  90 125 173 217 276 336 398
#     4  12  19  41  67  95 126 175 222 273 344 406
#     4  11  24  36  67  98 130 169 236 282 329 410
#     4  11  21  40  63  97 132 172 220 282 343 395
#     4  10  22  41  67  93 128 179 234 271 331 411
#     4  11  23  42  72  92 145 184 220 284 356 405
#
# _framework density 25.140816999999998
#
# number of rings (size 3 to 8) (size 9 to 14) (size 15 to 20)
#    0.000    1.143    5.714    1.714   10.000    0.571 
#    2.571    0.000    0.000    0.000    0.000    0.000 
#    0.000    0.000    0.000    0.000    0.000    0.000 
#
# Total GULP energy -313119.795057 kJ/mol
# GULP energy per Si atom -5591.424912 kJ/mol
# Density = 2.508360 g / cm^3
# Si number density = 25.140817 Si / 1000 Ang^3
#
#
#
# Elastic Constant Matrix: (Units=GPa)
#
#
# Indices 1 2 3 4 5 6 
#
# 1 157.4523 48.7787 22.7610 0.0000 0.0000 0.0000
# 2 48.7787 163.3981 30.0858 0.0000 0.0000 0.0000
# 3 22.7610 30.0858 54.2134 0.0000 0.0000 0.0000
# 4 0.0000 0.0000 0.0000 22.2142 0.0000 0.0000
# 5 0.0000 0.0000 0.0000 0.0000 30.6690 0.0000
# 6 0.0000 0.0000 0.0000 0.0000 0.0000 32.7812
#
#
#
# Elastic Compliance Matrix: (Units=1/GPa)
#
#
# Indices 1 2 3 4 5 6 
#
# 1 0.007195 -0.001773 -0.002037 0.000000 0.000000 0.000000
# 2 -0.001773 0.007253 -0.003281 0.000000 0.000000 0.000000
# 3 -0.002037 -0.003281 0.021122 0.000000 0.000000 0.000000
# 4 0.000000 0.000000 0.000000 0.045016 0.000000 0.000000
# 5 0.000000 0.000000 0.000000 0.000000 0.032606 0.000000
# 6 0.000000 0.000000 0.000000 0.000000 0.000000 0.030505
#
#
# Mechanical properties :
#
#
# Convention : Reuss Voigt Hill
#
# Bulk Modulus (GPa) = 46.75414 64.25720 55.50567
# Shear Modulus (GPa) = 30.30153 35.36210 32.83182
#
# Velocity S-wave (km/s) = 3.47547 3.75448 3.61767
# Velocity P-wave (km/s) = 5.89427 6.66403 6.29094
#
# Compressibility (1/GPa) = 0.02138848
#
# Stress axis : x y z
#
# Youngs Moduli (GPa) = 138.98956 137.86717 47.34498
#
# Poissons Ratio (x) = 0.24441 0.09643
# Poissons Ratio (y) = 0.24640 0.15534
# Poissons Ratio (z) = 0.28310 0.45234
#
# Static dielectric constant tensor:
#      x y z
#    x 2.008330 0.000000 0.000000 
#    y 0.000000 2.000660 0.000000 
#    z 0.000000 0.000000 1.917690 
# 
# From -- ./inp_files/22933.got.cif
#   From: 2010.05.17/outbox.cif.g08.bks.cpg/sg60_12_cif.got.tgz:22933.got - 2010.06.03 14:59:27.
