data_PCOD9454667
_publ_section_title
;
Structure prediction by ZEFSAII (Michael W. Deem and Ramdas Pophale) SiO2 
 PCOD9454667
Probable space group: P B C N
;
_chemical_formula_sum "Si O2"
_cell_formula_units_Z 48
_cell_length_a 9.117096
_cell_length_b 17.114165
_cell_length_c 14.954773
_cell_angle_alpha 90.000000
_cell_angle_beta 90.000000
_cell_angle_gamma 90.000000
_cell_volume 2333.415443
_symmetry_space_group_name_H-M "P B C N"
_symmetry_group_IT_number 60
_symmetry_cell_setting 'orthorhombic'
loop_
_space_group_symop_operation_xyz
x,y,z
1/2-x,1/2-y,1/2+z
1/2+x,1/2-y,-z
-x,y,1/2-z
-x,-y,-z
1/2+x,1/2+y,1/2-z
1/2-x,1/2+y,z
x,-y,1/2+z
loop_
_atom_site_type_symbol
_atom_site_label
_atom_site_fract_x
_atom_site_fract_y
_atom_site_fract_z
Si Si1 0.197560 0.561809 0.551074
Si Si2 0.417178 0.892260 0.512701
Si Si3 0.113567 0.873857 0.888860
Si Si4 0.089857 0.314171 0.839319
Si Si5 0.385848 0.326497 0.478128
Si Si6 0.017409 0.956460 0.150885
O O1 0.155185 0.477340 0.513101
O O2 0.289844 0.607221 0.476651
O O3 0.309677 0.547029 0.630390
O O4 0.045047 0.607607 0.561836
O O5 0.500066 0.881229 0.607257
O O6 0.286211 0.831952 0.499600
O O7 0.238523 0.837096 0.824945
O O8 0.045420 0.955403 0.854534
O O9 0.980027 0.823770 0.930355
O O10 0.085474 0.243713 0.910416
O O11 0.000000 0.296433 0.750000
O O12 0.434741 0.404582 0.423665
O O13 0.000000 0.924293 0.250000
#
# Coordination Sequence:
#
# PCOD9454667 Si02
#       6
#     8   8   8   8   8   8
#     4   9  18  36  58  87 112 148 206 247 299 360
#     4  10  19  36  63  82 115 162 200 249 295 370
#     4  10  20  38  59  84 113 159 207 238 297 375
#     4  11  25  37  56  90 127 157 197 254 306 357
#     4  11  20  41  61  84 116 166 206 243 303 378
#     4  11  21  35  61  90 121 151 196 263 307 347
#
# _framework density 20.570705
#
# number of rings (size 3 to 8) (size 9 to 14) (size 15 to 20)
#    0.000    1.667    3.333    2.500    2.333    0.000 
#    0.000    0.833    0.000    2.000    0.000    0.000 
#    0.000    0.000    0.000    0.000    0.000    0.000 
#
# Total GULP energy -267663.314265 kJ/mol
# GULP energy per Si atom -5576.319047 kJ/mol
# Density = 2.052389 g / cm^3
# Si number density = 20.570705 Si / 1000 Ang^3
#
#
#
# Elastic Constant Matrix: (Units=GPa)
#
#
# Indices 1 2 3 4 5 6 
#
# 1 161.6419 14.0698 42.2113 0.0000 0.0000 0.0000
# 2 14.0698 45.3193 -6.0947 0.0000 0.0000 0.0000
# 3 42.2113 -6.0947 45.5283 0.0000 0.0000 0.0000
# 4 0.0000 0.0000 0.0000 12.3362 0.0000 0.0000
# 5 0.0000 0.0000 0.0000 0.0000 28.1774 0.0000
# 6 0.0000 0.0000 0.0000 0.0000 0.0000 24.3302
#
#
#
# Elastic Compliance Matrix: (Units=1/GPa)
#
#
# Indices 1 2 3 4 5 6 
#
# 1 0.008790 -0.003895 -0.008671 0.000000 0.000000 0.000000
# 2 -0.003895 0.024196 0.006850 0.000000 0.000000 0.000000
# 3 -0.008671 0.006850 0.030921 0.000000 0.000000 0.000000
# 4 0.000000 0.000000 0.000000 0.081062 0.000000 0.000000
# 5 0.000000 0.000000 0.000000 0.000000 0.035489 0.000000
# 6 0.000000 0.000000 0.000000 0.000000 0.000000 0.041101
#
#
# Mechanical properties :
#
#
# Convention : Reuss Voigt Hill
#
# Bulk Modulus (GPa) = 19.05658 39.20691 29.13174
# Shear Modulus (GPa) = 19.96150 26.45563 23.20857
#
# Velocity S-wave (km/s) = 3.11848 3.59009 3.36256
# Velocity P-wave (km/s) = 4.71705 6.02378 5.41002
#
# Compressibility (1/GPa) = 0.05247532
#
# Stress axis : x y z
#
# Youngs Moduli (GPa) = 113.76738 41.32893 32.34098
#
# Poissons Ratio (x) = 0.16098 0.28042
# Poissons Ratio (y) = 0.44312 -0.22154
# Poissons Ratio (z) = 0.98646 -0.28311
#
# Static dielectric constant tensor:
#      x y z
#    x 1.824120 0.000000 0.000000 
#    y 0.000000 1.771090 0.000000 
#    z 0.000000 0.000000 1.761190 
# 
# From -- ./inp_files/15016.got.cif
#   From: 2010.05.17/outbox.cif.g08.bks.cpg/sg60_8_cif.got.tgz:15016.got - 2010.06.03 14:59:27.
