data_PCOD9454930
_publ_section_title
;
Structure prediction by ZEFSAII (Michael W. Deem and Ramdas Pophale) SiO2 
 PCOD9454930
Probable space group: P B C N
;
_chemical_formula_sum "Si O2"
_cell_formula_units_Z 60
_cell_length_a 22.390128
_cell_length_b 15.222124
_cell_length_c 8.784958
_cell_angle_alpha 90.000000
_cell_angle_beta 90.000000
_cell_angle_gamma 90.000000
_cell_volume 2994.135988
_symmetry_space_group_name_H-M "P B C N"
_symmetry_group_IT_number 60
_symmetry_cell_setting 'orthorhombic'
loop_
_space_group_symop_operation_xyz
x,y,z
1/2-x,1/2-y,1/2+z
1/2+x,1/2-y,-z
-x,y,1/2-z
-x,-y,-z
1/2+x,1/2+y,1/2-z
1/2-x,1/2+y,z
x,-y,1/2+z
loop_
_atom_site_type_symbol
_atom_site_label
_atom_site_fract_x
_atom_site_fract_y
_atom_site_fract_z
Si Si1 0.715182 0.893874 0.833111
Si Si2 0.596132 0.210341 0.999811
Si Si3 0.834488 0.924160 0.317480
Si Si4 0.345058 0.608041 0.042235
Si Si5 0.387192 0.243398 0.146440
Si Si6 0.000000 0.505946 0.250000
Si Si7 0.969312 0.373903 0.029029
Si Si8 0.205408 0.425513 0.021722
O O1 0.674332 0.809516 0.849198
O O2 0.720314 0.922786 0.657501
O O3 0.779693 0.869131 0.895510
O O4 0.687943 0.976127 0.926323
O O5 0.612213 0.307858 0.940894
O O6 0.587681 0.223187 0.183516
O O7 0.651980 0.145440 0.962807
O O8 0.535102 0.166166 0.944009
O O9 0.836356 0.914675 0.135642
O O10 0.875086 0.845114 0.376341
O O11 0.767039 0.911162 0.383380
O O12 0.859497 0.017953 0.370647
O O13 0.425657 0.204081 0.010533
O O14 0.954484 0.442038 0.162133
O O15 0.971226 0.566385 0.377411
#
# Coordination Sequence:
#
# PCOD9454930 Si02
#       8
#     8   8   8   8   8   4   8   8
#     4  10  20  33  53  84 112 146 182 224 275 333
#     4  10  21  36  59  81 112 147 187 225 277 329
#     4  10  20  38  56  80 108 149 186 231 279 324
#     4  10  20  38  56  80 108 149 186 231 279 324
#     4  10  21  36  59  81 112 147 187 225 277 329
#     4  10  24  38  64  78 122 148 180 218 270 324
#     4  11  22  42  57  88 113 148 182 221 271 327
#     4  10  20  33  53  84 112 146 182 224 275 333
#
# _framework density 20.039171
#
# number of rings (size 3 to 8) (size 9 to 14) (size 15 to 20)
#    0.000    1.867    1.333    4.000    3.733    0.000 
#    7.200    0.667    0.000    0.000    0.000    0.000 
#    0.000    0.000    0.000    0.000    0.000    0.000 
#
# Total GULP energy -334969.888136 kJ/mol
# GULP energy per Si atom -5582.831469 kJ/mol
# Density = 1.999356 g / cm^3
# Si number density = 20.039171 Si / 1000 Ang^3
#
#
#
# Elastic Constant Matrix: (Units=GPa)
#
#
# Indices 1 2 3 4 5 6 
#
# 1 23.6625 30.6392 14.6415 0.0000 0.0000 0.0000
# 2 30.6392 84.4436 21.2530 0.0000 0.0000 0.0000
# 3 14.6415 21.2530 62.7202 0.0000 0.0000 0.0000
# 4 0.0000 0.0000 0.0000 -215.3485 0.0000 0.0000
# 5 0.0000 0.0000 0.0000 0.0000 16.2419 0.0000
# 6 0.0000 0.0000 0.0000 0.0000 0.0000 49.4104
#
#
#
# Elastic Compliance Matrix: (Units=1/GPa)
#
#
# Indices 1 2 3 4 5 6 
#
# 1 0.085409 -0.028393 -0.010317 0.000000 0.000000 0.000000
# 2 -0.028393 0.022385 -0.000957 0.000000 0.000000 0.000000
# 3 -0.010317 -0.000957 0.018677 0.000000 0.000000 0.000000
# 4 0.000000 0.000000 0.000000 -0.004644 0.000000 0.000000
# 5 0.000000 0.000000 0.000000 0.000000 0.061569 0.000000
# 6 0.000000 0.000000 0.000000 0.000000 0.000000 0.020239
#
#
# Mechanical properties :
#
#
# Convention : Reuss Voigt Hill
#
# Bulk Modulus (GPa) = 21.21491 33.76595 27.49043
# Shear Modulus (GPa) = 16.74023 -22.98640 -3.12308
#
# Velocity S-wave (km/s) = 2.89342 -3.39052 -1.24975
# Velocity P-wave (km/s) = 4.66607 1.24861 3.41550
#
# Compressibility (1/GPa) = 0.04713667
#
# Stress axis : x y z
#
# Youngs Moduli (GPa) = 11.70834 44.67250 53.54294
#
# Poissons Ratio (x) = 1.26838 0.55240
# Poissons Ratio (y) = 0.33243 0.05125
# Poissons Ratio (z) = 0.12079 0.04276
#
# Static dielectric constant tensor:
#      x y z
#    x 1.697590 0.000000 0.000000 
#    y 0.000000 1.712100 0.000000 
#    z 0.000000 0.000000 1.731820 
# 
# From -- ./inp_files/7934.got.cif
#   From: 2010.05.17/outbox.cif.g08.bks.cpg/sg60_4_cif.got.tgz:7934.got - 2010.06.03 14:59:27.
