data_PCOD9454128
_publ_section_title
;
Structure prediction by ZEFSAII (Michael W. Deem and Ramdas Pophale) SiO2 
 PCOD9454128
Probable space group: P B C N
;
_chemical_formula_sum "Si O2"
_cell_formula_units_Z 44
_cell_length_a 12.272032
_cell_length_b 21.816272
_cell_length_c 8.796074
_cell_angle_alpha 90.000000
_cell_angle_beta 90.000000
_cell_angle_gamma 90.000000
_cell_volume 2354.972787
_symmetry_space_group_name_H-M "P B C N"
_symmetry_group_IT_number 60
_symmetry_cell_setting 'orthorhombic'
loop_
_space_group_symop_operation_xyz
x,y,z
1/2-x,1/2-y,1/2+z
1/2+x,1/2-y,-z
-x,y,1/2-z
-x,-y,-z
1/2+x,1/2+y,1/2-z
1/2-x,1/2+y,z
x,-y,1/2+z
loop_
_atom_site_type_symbol
_atom_site_label
_atom_site_fract_x
_atom_site_fract_y
_atom_site_fract_z
Si Si1 0.000000 0.742194 0.750000
Si Si2 0.295305 0.696156 0.400025
Si Si3 0.628837 0.950558 0.214633
Si Si4 0.672685 0.924258 0.555445
Si Si5 0.379688 0.253692 0.208013
Si Si6 0.043238 0.353453 0.505213
O O1 0.897130 0.783502 0.704121
O O2 0.014443 0.695773 0.607892
O O3 0.255162 0.626780 0.384051
O O4 0.198243 0.741960 0.349989
O O5 0.326031 0.706724 0.575456
O O6 0.500000 0.961576 0.250000
O O7 0.684164 0.934198 0.374026
O O8 0.624549 0.894262 0.096011
O O9 0.677084 0.011247 0.140105
O O10 0.550390 0.896767 0.570745
O O11 0.500000 0.276543 0.250000
O O12 0.397967 0.186985 0.130579
#
# Coordination Sequence:
#
# PCOD9454128 Si02
#       6
#     4   8   8   8   8   8
#     4  10  20  40  58  88 124 168 200 258 312 380
#     4  11  25  38  63  89 132 165 212 253 320 385
#     4  10  21  32  59  86 133 161 202 261 323 367
#     4  11  21  36  55  93 121 167 201 255 314 383
#     4  11  24  38  63  93 125 166 203 262 323 387
#     4  10  18  35  60  89 128 153 197 259 324 376
#
# _framework density 18.683868
#
# number of rings (size 3 to 8) (size 9 to 14) (size 15 to 20)
#    0.000    1.455    4.545    3.273   10.182    0.000 
#    0.000    0.000    0.000    1.091    0.000    0.000 
#    0.000    0.000    0.000    0.000    0.000    0.000 
#
# Total GULP energy -245768.952360 kJ/mol
# GULP energy per Si atom -5585.658008 kJ/mol
# Density = 1.864134 g / cm^3
# Si number density = 18.683868 Si / 1000 Ang^3
#
#
#
# Elastic Constant Matrix: (Units=GPa)
#
#
# Indices 1 2 3 4 5 6 
#
# 1 58.8817 7.1150 19.8861 0.0000 0.0000 0.0000
# 2 7.1150 72.3576 13.9986 0.0000 0.0000 0.0000
# 3 19.8861 13.9986 59.6900 0.0000 0.0000 0.0000
# 4 0.0000 0.0000 0.0000 33.6778 0.0000 0.0000
# 5 0.0000 0.0000 0.0000 0.0000 31.3904 0.0000
# 6 0.0000 0.0000 0.0000 0.0000 0.0000 28.8271
#
#
#
# Elastic Compliance Matrix: (Units=1/GPa)
#
#
# Indices 1 2 3 4 5 6 
#
# 1 0.019168 -0.000680 -0.006227 0.000000 0.000000 0.000000
# 2 -0.000680 0.014501 -0.003174 0.000000 0.000000 0.000000
# 3 -0.006227 -0.003174 0.019572 0.000000 0.000000 0.000000
# 4 0.000000 0.000000 0.000000 0.029693 0.000000 0.000000
# 5 0.000000 0.000000 0.000000 0.000000 0.031857 0.000000
# 6 0.000000 0.000000 0.000000 0.000000 0.000000 0.034690
#
#
# Mechanical properties :
#
#
# Convention : Reuss Voigt Hill
#
# Bulk Modulus (GPa) = 30.23010 30.32542 30.27776
# Shear Modulus (GPa) = 27.67483 28.77438 28.22460
#
# Velocity S-wave (km/s) = 3.85283 3.92862 3.89091
# Velocity P-wave (km/s) = 6.00061 6.06999 6.03540
#
# Compressibility (1/GPa) = 0.03307962
#
# Stress axis : x y z
#
# Youngs Moduli (GPa) = 52.16953 68.95965 51.09330
#
# Poissons Ratio (x) = 0.04691 0.31813
# Poissons Ratio (y) = 0.03549 0.16218
# Poissons Ratio (z) = 0.32483 0.21889
#
# Static dielectric constant tensor:
#      x y z
#    x 1.642910 0.000000 0.000000 
#    y 0.000000 1.638640 0.000000 
#    z 0.000000 0.000000 1.708880 
# 
# From -- ./inp_files/5008.got.cif
#   From: 2010.05.17/outbox.cif.g08.bks.cpg/sg60_3_cif.got.tgz:5008.got - 2010.06.03 14:59:27.
