data_PCOD9454043
_publ_section_title
;
Structure prediction by ZEFSAII (Michael W. Deem and Ramdas Pophale) SiO2 
 PCOD9454043
Probable space group: P B C N
;
_chemical_formula_sum "Si O2"
_cell_formula_units_Z 60
_cell_length_a 8.813053
_cell_length_b 13.225238
_cell_length_c 21.418063
_cell_angle_alpha 90.000000
_cell_angle_beta 90.000000
_cell_angle_gamma 90.000000
_cell_volume 2496.376409
_symmetry_space_group_name_H-M "P B C N"
_symmetry_group_IT_number 60
_symmetry_cell_setting 'orthorhombic'
loop_
_space_group_symop_operation_xyz
x,y,z
1/2-x,1/2-y,1/2+z
1/2+x,1/2-y,-z
-x,y,1/2-z
-x,-y,-z
1/2+x,1/2+y,1/2-z
1/2-x,1/2+y,z
x,-y,1/2+z
loop_
_atom_site_type_symbol
_atom_site_label
_atom_site_fract_x
_atom_site_fract_y
_atom_site_fract_z
Si Si1 0.501214 0.347979 0.035572
Si Si2 0.921964 0.055096 0.664169
Si Si3 0.825347 0.672517 0.510233
Si Si4 0.000000 0.406509 0.750000
Si Si5 0.337891 0.916954 0.863622
Si Si6 0.016161 0.629566 0.618895
Si Si7 0.297984 0.938378 0.001223
Si Si8 0.744191 0.077225 0.782570
O O1 0.573285 0.387726 0.099071
O O2 0.404494 0.246161 0.038034
O O3 0.648239 0.321026 0.996399
O O4 0.382228 0.427557 0.007950
O O5 0.817993 0.110882 0.716557
O O6 0.099512 0.048283 0.682119
O O7 0.833997 0.948328 0.654947
O O8 0.852984 0.553562 0.502031
O O9 0.892275 0.696685 0.580302
O O10 0.930852 0.353844 0.688140
O O11 0.858363 0.477899 0.770112
O O12 0.336900 0.885254 0.935620
O O13 0.425613 0.026199 0.864561
O O14 0.134182 0.606260 0.563813
O O15 0.126852 0.649187 0.678839
#
# Coordination Sequence:
#
# PCOD9454043 Si02
#       8
#     8   8   8   4   8   8   8   8
#     4  12  23  38  57  87 132 163 214 263 319 392
#     4  10  18  33  53  84 120 154 205 250 304 375
#     4  11  24  37  56  89 127 169 208 260 322 382
#     4   8  16  30  48  80 120 146 198 252 296 372
#     4   9  17  30  51  82 119 154 198 248 308 368
#     4  10  18  34  56  86 125 153 203 252 314 375
#     4  11  21  37  60  87 129 163 207 260 323 387
#     4   9  18  30  54  83 118 150 199 251 301 369
#
# _framework density 24.034838000000001
#
# number of rings (size 3 to 8) (size 9 to 14) (size 15 to 20)
#    0.000    1.867    4.000    2.800    0.000    0.000 
#    0.000    0.000    0.000    0.000    0.000   41.067 
#   28.000    0.000    0.000    0.000    0.267    0.000 
#
# Total GULP energy -334362.034416 kJ/mol
# GULP energy per Si atom -5572.700574 kJ/mol
# Density = 2.398013 g / cm^3
# Si number density = 24.034838 Si / 1000 Ang^3
#
#
#
# Elastic Constant Matrix: (Units=GPa)
#
#
# Indices 1 2 3 4 5 6 
#
# 1 140.5910 0.8780 9.2235 0.0000 0.0000 0.0000
# 2 0.8780 32.6347 -6.2439 0.0000 0.0000 0.0000
# 3 9.2235 -6.2439 95.1698 0.0000 0.0000 0.0000
# 4 0.0000 0.0000 0.0000 2.9874 0.0000 0.0000
# 5 0.0000 0.0000 0.0000 0.0000 47.1543 0.0000
# 6 0.0000 0.0000 0.0000 0.0000 0.0000 20.6351
#
#
#
# Elastic Compliance Matrix: (Units=1/GPa)
#
#
# Indices 1 2 3 4 5 6 
#
# 1 0.007162 -0.000330 -0.000716 0.000000 0.000000 0.000000
# 2 -0.000330 0.031047 0.002069 0.000000 0.000000 0.000000
# 3 -0.000716 0.002069 0.010713 0.000000 0.000000 0.000000
# 4 0.000000 0.000000 0.000000 0.334741 0.000000 0.000000
# 5 0.000000 0.000000 0.000000 0.000000 0.021207 0.000000
# 6 0.000000 0.000000 0.000000 0.000000 0.000000 0.048461
#
#
# Mechanical properties :
#
#
# Convention : Reuss Voigt Hill
#
# Bulk Modulus (GPa) = 19.61998 30.67898 25.14948
# Shear Modulus (GPa) = 10.67754 31.79120 21.23437
#
# Velocity S-wave (km/s) = 2.11002 3.64086 2.97557
# Velocity P-wave (km/s) = 3.75727 5.51965 4.72142
#
# Compressibility (1/GPa) = 0.05096846
#
# Stress axis : x y z
#
# Youngs Moduli (GPa) = 139.62882 32.20929 93.34771
#
# Poissons Ratio (x) = 0.01062 0.06681
# Poissons Ratio (y) = 0.04602 -0.19312
# Poissons Ratio (z) = 0.09994 -0.06664
#
# Static dielectric constant tensor:
#      x y z
#    x 1.998860 0.000000 0.000000 
#    y 0.000000 1.994050 0.000000 
#    z 0.000000 0.000000 2.085160 
# 
# From -- ./inp_files/24039.got.cif
#   From: 2010.05.17/outbox.cif.g08.bks.cpg/sg60_13_cif.got.tgz:24039.got - 2010.06.03 14:59:27.
