data_PCOD9454790
_publ_section_title
;
Structure prediction by ZEFSAII (Michael W. Deem and Ramdas Pophale) SiO2 
 PCOD9454790
Probable space group: P B C N
;
_chemical_formula_sum "Si O2"
_cell_formula_units_Z 48
_cell_length_a 16.147073
_cell_length_b 9.613462
_cell_length_c 16.583813
_cell_angle_alpha 90.000000
_cell_angle_beta 90.000000
_cell_angle_gamma 90.000000
_cell_volume 2574.293231
_symmetry_space_group_name_H-M "P B C N"
_symmetry_group_IT_number 60
_symmetry_cell_setting 'orthorhombic'
loop_
_space_group_symop_operation_xyz
x,y,z
1/2-x,1/2-y,1/2+z
1/2+x,1/2-y,-z
-x,y,1/2-z
-x,-y,-z
1/2+x,1/2+y,1/2-z
1/2-x,1/2+y,z
x,-y,1/2+z
loop_
_atom_site_type_symbol
_atom_site_label
_atom_site_fract_x
_atom_site_fract_y
_atom_site_fract_z
Si Si1 0.815702 0.534830 0.073478
Si Si2 0.156293 0.209555 0.435049
Si Si3 0.961044 0.184516 0.921735
Si Si4 0.007182 0.113840 0.155156
Si Si5 0.923637 0.327877 0.444256
Si Si6 0.515729 0.944417 0.660096
O O1 0.813367 0.368315 0.069027
O O2 0.728132 0.604455 0.090093
O O3 0.887475 0.571175 0.138465
O O4 0.846974 0.600703 0.988495
O O5 0.122586 0.182321 0.525751
O O6 0.076975 0.184991 0.377791
O O7 0.966856 0.299507 0.851777
O O8 0.982549 0.033771 0.888567
O O9 0.028805 0.242673 0.985573
O O10 0.082110 0.215261 0.127086
O O11 0.000000 0.097343 0.250000
O O12 0.979199 0.451378 0.407228
O O13 0.500000 0.998176 0.750000
#
# Coordination Sequence:
#
# PCOD9454790 Si02
#       6
#     8   8   8   8   8   8
#     4  11  23  38  60  90 120 156 206 250 305 355
#     4  11  23  39  60  89 120 159 202 253 303 358
#     4  10  20  39  60  88 117 158 208 246 289 366
#     4  11  23  39  64  92 122 161 205 253 308 363
#     4  10  19  39  63  84 112 160 211 242 286 365
#     4  11  20  38  66  88 118 162 205 253 302 367
#
# _framework density 18.645893999999998
#
# number of rings (size 3 to 8) (size 9 to 14) (size 15 to 20)
#    0.000    1.333    5.000    4.000    7.000    0.000 
#    0.000    3.333    0.000    0.000    0.000    0.000 
#    0.000    0.000    0.000    0.000    0.000    0.000 
#
# Total GULP energy -267724.423199 kJ/mol
# GULP energy per Si atom -5577.592150 kJ/mol
# Density = 1.860345 g / cm^3
# Si number density = 18.645894 Si / 1000 Ang^3
#
#
#
# Elastic Constant Matrix: (Units=GPa)
#
#
# Indices 1 2 3 4 5 6 
#
# 1 54.7873 25.2564 15.2550 0.0000 0.0000 0.0000
# 2 25.2564 141.3620 23.6202 0.0000 0.0000 0.0000
# 3 15.2550 23.6202 85.9399 0.0000 0.0000 0.0000
# 4 0.0000 0.0000 0.0000 25.5977 0.0000 0.0000
# 5 0.0000 0.0000 0.0000 0.0000 12.1271 0.0000
# 6 0.0000 0.0000 0.0000 0.0000 0.0000 31.3959
#
#
#
# Elastic Compliance Matrix: (Units=1/GPa)
#
#
# Indices 1 2 3 4 5 6 
#
# 1 0.020496 -0.003201 -0.002758 0.000000 0.000000 0.000000
# 2 -0.003201 0.007914 -0.001607 0.000000 0.000000 0.000000
# 3 -0.002758 -0.001607 0.012567 0.000000 0.000000 0.000000
# 4 0.000000 0.000000 0.000000 0.039066 0.000000 0.000000
# 5 0.000000 0.000000 0.000000 0.000000 0.082460 0.000000
# 6 0.000000 0.000000 0.000000 0.000000 0.000000 0.031851
#
#
# Mechanical properties :
#
#
# Convention : Reuss Voigt Hill
#
# Bulk Modulus (GPa) = 38.69228 45.59469 42.14348
# Shear Modulus (GPa) = 22.92497 28.35466 25.63981
#
# Velocity S-wave (km/s) = 3.51021 3.90384 3.71225
# Velocity P-wave (km/s) = 6.10123 6.69522 6.40511
#
# Compressibility (1/GPa) = 0.02584495
#
# Stress axis : x y z
#
# Youngs Moduli (GPa) = 48.78979 126.35087 79.57116
#
# Poissons Ratio (x) = 0.40445 0.21949
# Poissons Ratio (y) = 0.15618 0.12787
# Poissons Ratio (z) = 0.13458 0.20305
#
# Static dielectric constant tensor:
#      x y z
#    x 1.657630 0.000000 0.000000 
#    y 0.000000 1.676160 0.000000 
#    z 0.000000 0.000000 1.675280 
# 
# From -- ./inp_files/17326.got.cif
#   From: 2010.05.17/outbox.cif.g08.bks.cpg/sg60_9_cif.got.tgz:17326.got - 2010.06.03 14:59:27.
