data_PCOD9454997
_publ_section_title
;
Structure prediction by ZEFSAII (Michael W. Deem and Ramdas Pophale) SiO2 
 PCOD9454997
Probable space group: P B C N
;
_chemical_formula_sum "Si O2"
_cell_formula_units_Z 32
_cell_length_a 7.298984
_cell_length_b 39.544981
_cell_length_c 5.245241
_cell_angle_alpha 90.000000
_cell_angle_beta 90.000000
_cell_angle_gamma 90.000000
_cell_volume 1513.976835
_symmetry_space_group_name_H-M "P B C N"
_symmetry_group_IT_number 60
_symmetry_cell_setting 'orthorhombic'
loop_
_space_group_symop_operation_xyz
x,y,z
1/2-x,1/2-y,1/2+z
1/2+x,1/2-y,-z
-x,y,1/2-z
-x,-y,-z
1/2+x,1/2+y,1/2-z
1/2-x,1/2+y,z
x,-y,1/2+z
loop_
_atom_site_type_symbol
_atom_site_label
_atom_site_fract_x
_atom_site_fract_y
_atom_site_fract_z
Si Si1 0.793892 0.515169 0.002997
Si Si2 0.128374 0.085125 0.501578
Si Si3 0.127486 0.160442 0.500472
Si Si4 0.797959 0.231113 0.130857
O O1 0.704893 0.500362 0.751706
O O2 0.777061 0.555383 0.006692
O O3 0.000000 0.500000 0.000000
O O4 0.211015 0.122976 0.522466
O O5 0.000000 0.082794 0.250000
O O6 0.000000 0.080656 0.750000
O O7 0.254545 0.193118 0.456259
O O8 0.000000 0.158248 0.250000
O O9 0.000000 0.166426 0.750000
O O10 0.693118 0.246742 0.373132
O O11 0.000000 0.228994 0.250000
#
# Coordination Sequence:
#
# PCOD9454997 Si02
#       4
#     8   8   8   8
#     4  10  21  36  54  76 110 149 182 218 293 344
#     4  10  20  34  57  85 109 139 195 243 273 327
#     4   9  18  34  55  83 110 150 188 235 293 331
#     4  11  21  36  60  86 120 156 196 241 291 349
#
# _framework density 21.136386000000002
#
# number of rings (size 3 to 8) (size 9 to 14) (size 15 to 20)
#    0.000    2.000    0.000    5.250    0.000    3.000 
#    0.000    0.000   16.500    0.000    0.000    0.000 
#    0.000    0.000    0.000    0.000    0.000    0.000 
#
# Total GULP energy -178358.438053 kJ/mol
# GULP energy per Si atom -5573.701189 kJ/mol
# Density = 2.108828 g / cm^3
# Si number density = 21.136386 Si / 1000 Ang^3
#
#
#
# Elastic Constant Matrix: (Units=GPa)
#
#
# Indices 1 2 3 4 5 6 
#
# 1 52.7943 38.8379 11.2509 0.0000 0.0000 0.0000
# 2 38.8379 243.4464 58.1133 0.0000 0.0000 0.0000
# 3 11.2509 58.1133 192.1070 0.0000 0.0000 0.0000
# 4 0.0000 0.0000 0.0000 35.3026 0.0000 0.0000
# 5 0.0000 0.0000 0.0000 0.0000 2.6943 0.0000
# 6 0.0000 0.0000 0.0000 0.0000 0.0000 33.0606
#
#
#
# Elastic Compliance Matrix: (Units=1/GPa)
#
#
# Indices 1 2 3 4 5 6 
#
# 1 0.021470 -0.003368 -0.000238 0.000000 0.000000 0.000000
# 2 -0.003368 0.004956 -0.001302 0.000000 0.000000 0.000000
# 3 -0.000238 -0.001302 0.005613 0.000000 0.000000 0.000000
# 4 0.000000 0.000000 0.000000 0.028327 0.000000 0.000000
# 5 0.000000 0.000000 0.000000 0.000000 0.371147 0.000000
# 6 0.000000 0.000000 0.000000 0.000000 0.000000 0.030247
#
#
# Mechanical properties :
#
#
# Convention : Reuss Voigt Hill
#
# Bulk Modulus (GPa) = 45.00080 78.30575 61.65327
# Shear Modulus (GPa) = 10.43874 39.55455 24.99665
#
# Velocity S-wave (km/s) = 2.22474 4.33066 3.44268
# Velocity P-wave (km/s) = 5.28547 7.88254 6.71083
#
# Compressibility (1/GPa) = 0.02222183
#
# Stress axis : x y z
#
# Youngs Moduli (GPa) = 46.57641 201.78343 178.15058
#
# Poissons Ratio (x) = 0.67966 0.04249
# Poissons Ratio (y) = 0.15688 0.23193
# Poissons Ratio (z) = 0.01111 0.26270
#
# Static dielectric constant tensor:
#      x y z
#    x 1.783840 0.000000 0.000000 
#    y 0.000000 1.829140 0.000000 
#    z 0.000000 0.000000 1.801960 
# 
# From -- ./inp_files/436.got.cif
#   From: 2010.05.17/outbox.cif.g08.bks.cpg/sg60_1_cif.got.tgz:436.got - 2010.06.03 14:59:27.
