data_PCOD9454245
_publ_section_title
;
Structure prediction by ZEFSAII (Michael W. Deem and Ramdas Pophale) SiO2 
 PCOD9454245
Probable space group: P B C N
;
_chemical_formula_sum "Si O2"
_cell_formula_units_Z 44
_cell_length_a 7.372604
_cell_length_b 18.865933
_cell_length_c 15.212935
_cell_angle_alpha 90.000000
_cell_angle_beta 90.000000
_cell_angle_gamma 90.000000
_cell_volume 2115.983150
_symmetry_space_group_name_H-M "P B C N"
_symmetry_group_IT_number 60
_symmetry_cell_setting 'orthorhombic'
loop_
_space_group_symop_operation_xyz
x,y,z
1/2-x,1/2-y,1/2+z
1/2+x,1/2-y,-z
-x,y,1/2-z
-x,-y,-z
1/2+x,1/2+y,1/2-z
1/2-x,1/2+y,z
x,-y,1/2+z
loop_
_atom_site_type_symbol
_atom_site_label
_atom_site_fract_x
_atom_site_fract_y
_atom_site_fract_z
Si Si1 0.690727 0.086181 0.401299
Si Si2 0.262895 0.305075 0.897217
Si Si3 0.435021 0.966322 0.350570
Si Si4 0.431081 0.543011 0.349682
Si Si5 0.479971 0.826274 0.452113
Si Si6 0.000000 0.326667 0.750000
O O1 0.882278 0.046601 0.403684
O O2 0.667621 0.143357 0.477966
O O3 0.637952 0.126253 0.309887
O O4 0.537369 0.026326 0.406581
O O5 0.338366 0.381395 0.869271
O O6 0.414368 0.245938 0.908362
O O7 0.118810 0.284768 0.821117
O O8 0.157278 0.314136 0.988988
O O9 0.500000 0.975850 0.250000
O O10 0.494156 0.889281 0.382500
O O11 0.221406 0.982995 0.361539
O O12 0.500000 0.538873 0.250000
#
# Coordination Sequence:
#
# PCOD9454245 Si02
#       6
#     8   8   8   8   8   4
#     4  11  20  42  68  97 132 172 221 272 333 401
#     4  11  23  45  65  98 131 182 224 270 337 402
#     4  12  23  45  66 100 134 172 219 281 339 390
#     4  12  21  39  75  96 126 179 222 266 334 409
#     4  11  26  44  65  99 141 170 226 288 326 389
#     4  10  18  40  72  88 132 180 218 268 332 414
#
# _framework density 20.794115999999999
#
# number of rings (size 3 to 8) (size 9 to 14) (size 15 to 20)
#    0.000    0.727    8.182    1.636    0.000    1.455 
#   11.455    0.000    0.000    0.000    0.000    0.000 
#    0.000    0.000    0.000    0.000    0.000    0.000 
#
# Total GULP energy -245781.576975 kJ/mol
# GULP energy per Si atom -5585.944931 kJ/mol
# Density = 2.074679 g / cm^3
# Si number density = 20.794116 Si / 1000 Ang^3
#
#
#
# Elastic Constant Matrix: (Units=GPa)
#
#
# Indices 1 2 3 4 5 6 
#
# 1 59.2114 -26.2024 -12.1174 0.0000 0.0000 0.0000
# 2 -26.2024 47.7353 0.0741 0.0000 0.0000 0.0000
# 3 -12.1174 0.0741 56.1012 0.0000 0.0000 0.0000
# 4 0.0000 0.0000 0.0000 16.4595 0.0000 0.0000
# 5 0.0000 0.0000 0.0000 0.0000 17.2436 0.0000
# 6 0.0000 0.0000 0.0000 0.0000 0.0000 12.6773
#
#
#
# Elastic Compliance Matrix: (Units=1/GPa)
#
#
# Indices 1 2 3 4 5 6 
#
# 1 0.023680 0.012990 0.005098 0.000000 0.000000 0.000000
# 2 0.012990 0.028075 0.002769 0.000000 0.000000 0.000000
# 3 0.005098 0.002769 0.018922 0.000000 0.000000 0.000000
# 4 0.000000 0.000000 0.000000 0.060755 0.000000 0.000000
# 5 0.000000 0.000000 0.000000 0.000000 0.057992 0.000000
# 6 0.000000 0.000000 0.000000 0.000000 0.000000 0.078881
#
#
# Mechanical properties :
#
#
# Convention : Reuss Voigt Hill
#
# Bulk Modulus (GPa) = 8.89747 9.61741 9.25744
# Shear Modulus (GPa) = 18.93534 22.69567 20.81550
#
# Velocity S-wave (km/s) = 3.02091 3.30729 3.16734
# Velocity P-wave (km/s) = 4.05659 4.38398 4.22346
#
# Compressibility (1/GPa) = 0.11239152
#
# Stress axis : x y z
#
# Youngs Moduli (GPa) = 42.22899 35.61870 52.84768
#
# Poissons Ratio (x) = -0.46270 -0.26940
# Poissons Ratio (y) = -0.54857 -0.14632
# Poissons Ratio (z) = -0.21527 -0.09862
#
# Static dielectric constant tensor:
#      x y z
#    x 1.782890 0.000000 0.000000 
#    y 0.000000 1.694980 0.000000 
#    z 0.000000 0.000000 1.771350 
# 
# From -- ./inp_files/14904.got.cif
#   From: 2010.05.17/outbox.cif.g08.bks.cpg/sg60_8_cif.got.tgz:14904.got - 2010.06.03 14:59:27.
