data_PCOD9454728
_publ_section_title
;
Structure prediction by ZEFSAII (Michael W. Deem and Ramdas Pophale) SiO2 
 PCOD9454728
Probable space group: P B C N
;
_chemical_formula_sum "Si O2"
_cell_formula_units_Z 64
_cell_length_a 9.430545
_cell_length_b 20.602144
_cell_length_c 15.032923
_cell_angle_alpha 90.000000
_cell_angle_beta 90.000000
_cell_angle_gamma 90.000000
_cell_volume 2920.738283
_symmetry_space_group_name_H-M "P B C N"
_symmetry_group_IT_number 60
_symmetry_cell_setting 'orthorhombic'
loop_
_space_group_symop_operation_xyz
x,y,z
1/2-x,1/2-y,1/2+z
1/2+x,1/2-y,-z
-x,y,1/2-z
-x,-y,-z
1/2+x,1/2+y,1/2-z
1/2-x,1/2+y,z
x,-y,1/2+z
loop_
_atom_site_type_symbol
_atom_site_label
_atom_site_fract_x
_atom_site_fract_y
_atom_site_fract_z
Si Si1 0.970801 0.700996 0.399838
Si Si2 0.736644 0.642016 0.061194
Si Si3 0.671166 0.071511 0.752575
Si Si4 0.907026 0.994766 0.837319
Si Si5 0.025714 0.222768 0.073473
Si Si6 0.688901 0.488115 0.077498
Si Si7 0.737832 0.693691 0.854705
Si Si8 0.218980 0.112563 0.072624
O O1 0.126212 0.671975 0.390357
O O2 0.969352 0.725509 0.502420
O O3 0.903724 0.762368 0.347949
O O4 0.861433 0.642352 0.390193
O O5 0.605425 0.680388 0.103239
O O6 0.721433 0.564709 0.071301
O O7 0.737048 0.660435 0.954446
O O8 0.500000 0.071206 0.750000
O O9 0.728783 0.043293 0.660332
O O10 0.733734 0.141867 0.778163
O O11 0.753918 0.027619 0.825804
O O12 0.877581 0.919134 0.851669
O O13 0.000000 0.005317 0.750000
O O14 0.018402 0.021077 0.909948
O O15 0.126361 0.258662 0.142681
O O16 0.132783 0.171174 0.026766
O O17 0.738904 0.446953 0.993606
#
# Coordination Sequence:
#
# PCOD9454728 Si02
#       8
#     8   8   8   8   8   8   8   8
#     4   9  21  35  62  97 130 160 210 271 316 379
#     4  10  19  37  66 103 125 160 222 272 324 383
#     4  11  26  43  62  89 134 170 216 270 329 398
#     4  10  23  43  61  92 129 170 212 267 328 392
#     4   9  19  37  62  93 127 162 215 265 315 390
#     4  11  24  38  66  96 128 173 215 269 324 395
#     4   9  20  41  63  90 131 170 209 270 332 383
#     4  11  21  38  68  94 127 170 219 268 325 386
#
# _framework density 21.912267
#
# number of rings (size 3 to 8) (size 9 to 14) (size 15 to 20)
#    0.000    2.000    1.250    1.875    8.750    0.500 
#    0.000    2.500    0.000    3.000    0.000    0.000 
#    0.000    0.000    0.000    0.000    0.000    0.000 
#
# Total GULP energy -356942.129965 kJ/mol
# GULP energy per Si atom -5577.220781 kJ/mol
# Density = 2.186239 g / cm^3
# Si number density = 21.912267 Si / 1000 Ang^3
#
#
#
# Elastic Constant Matrix: (Units=GPa)
#
#
# Indices 1 2 3 4 5 6 
#
# 1 137.6083 48.5688 21.2194 0.0000 0.0000 0.0000
# 2 48.5688 127.5058 29.3832 0.0000 0.0000 0.0000
# 3 21.2194 29.3832 43.2850 0.0000 0.0000 0.0000
# 4 0.0000 0.0000 0.0000 15.9677 0.0000 0.0000
# 5 0.0000 0.0000 0.0000 0.0000 -44.4313 0.0000
# 6 0.0000 0.0000 0.0000 0.0000 0.0000 26.8379
#
#
#
# Elastic Compliance Matrix: (Units=1/GPa)
#
#
# Indices 1 2 3 4 5 6 
#
# 1 0.008594 -0.002730 -0.002360 0.000000 0.000000 0.000000
# 2 -0.002730 0.010164 -0.005562 0.000000 0.000000 0.000000
# 3 -0.002360 -0.005562 0.028035 0.000000 0.000000 0.000000
# 4 0.000000 0.000000 0.000000 0.062626 0.000000 0.000000
# 5 0.000000 0.000000 0.000000 0.000000 -0.022507 0.000000
# 6 0.000000 0.000000 0.000000 0.000000 0.000000 0.037261
#
#
# Mechanical properties :
#
#
# Convention : Reuss Voigt Hill
#
# Bulk Modulus (GPa) = 39.23001 56.30464 47.76733
# Shear Modulus (GPa) = 32.47295 13.62336 23.04816
#
# Velocity S-wave (km/s) = 3.85379 2.49614 3.24672
# Velocity P-wave (km/s) = 6.14364 5.83600 5.99180
#
# Compressibility (1/GPa) = 0.02549069
#
# Stress axis : x y z
#
# Youngs Moduli (GPa) = 116.35428 98.38388 35.66966
#
# Poissons Ratio (x) = 0.26858 0.08418
# Poissons Ratio (y) = 0.31763 0.19838
# Poissons Ratio (z) = 0.27461 0.54717
#
# Static dielectric constant tensor:
#      x y z
#    x 1.841060 0.000000 0.000000 
#    y 0.000000 1.817850 0.000000 
#    z 0.000000 0.000000 2.359190 
# 
# From -- ./inp_files/19699.got.cif
#   From: 2010.05.17/outbox.cif.g08.bks.cpg/sg60_10_cif.got.tgz:19699.got - 2010.06.03 14:59:27.
