data_PCOD9454567
_publ_section_title
;
Structure prediction by ZEFSAII (Michael W. Deem and Ramdas Pophale) SiO2 
 PCOD9454567
Probable space group: P B C N
;
_chemical_formula_sum "Si O2"
_cell_formula_units_Z 64
_cell_length_a 8.993386
_cell_length_b 20.028438
_cell_length_c 17.409625
_cell_angle_alpha 90.000000
_cell_angle_beta 90.000000
_cell_angle_gamma 90.000000
_cell_volume 3135.882134
_symmetry_space_group_name_H-M "P B C N"
_symmetry_group_IT_number 60
_symmetry_cell_setting 'orthorhombic'
loop_
_space_group_symop_operation_xyz
x,y,z
1/2-x,1/2-y,1/2+z
1/2+x,1/2-y,-z
-x,y,1/2-z
-x,-y,-z
1/2+x,1/2+y,1/2-z
1/2-x,1/2+y,z
x,-y,1/2+z
loop_
_atom_site_type_symbol
_atom_site_label
_atom_site_fract_x
_atom_site_fract_y
_atom_site_fract_z
Si Si1 0.204488 0.875736 0.530304
Si Si2 0.670801 0.035114 0.268987
Si Si3 0.240711 0.522255 0.562673
Si Si4 0.152597 0.841639 0.707156
Si Si5 0.204333 0.305543 0.168893
Si Si6 0.522112 0.362456 0.402832
Si Si7 0.982314 0.624242 0.561182
Si Si8 0.252234 0.408176 0.305174
O O1 0.156369 0.858867 0.616441
O O2 0.083227 0.844499 0.473683
O O3 0.371728 0.853819 0.506937
O O4 0.210784 0.956480 0.516109
O O5 0.500000 0.025488 0.250000
O O6 0.720797 0.110835 0.258767
O O7 0.697613 0.009729 0.355372
O O8 0.764598 0.985323 0.216319
O O9 0.374673 0.574413 0.573997
O O10 0.097956 0.565919 0.536325
O O11 0.179131 0.762995 0.712791
O O12 0.000000 0.858655 0.750000
O O13 0.363377 0.307497 0.127151
O O14 0.082071 0.319850 0.103274
O O15 0.202857 0.366363 0.230039
O O16 0.408303 0.381486 0.335617
O O17 0.870965 0.600036 0.628643
#
# Coordination Sequence:
#
# PCOD9454567 Si02
#       8
#     8   8   8   8   8   8   8   8
#     4  10  23  39  56  92 125 159 210 252 319 376
#     4  11  21  37  60  94 126 160 203 252 316 377
#     4  10  19  35  58  88 127 160 197 252 313 365
#     4  11  27  44  62  85 128 169 203 262 322 378
#     4  11  22  40  63  92 121 165 215 254 313 368
#     4  10  22  35  64  93 121 165 205 266 299 370
#     4  10  19  36  63  88 118 166 207 261 299 368
#     4  11  19  35  65  95 122 155 213 259 304 363
#
# _framework density 20.408930999999999
#
# number of rings (size 3 to 8) (size 9 to 14) (size 15 to 20)
#    0.000    1.500    3.750    2.250    3.500    2.000 
#    0.000    2.500    0.000    0.000    0.000    0.000 
#    0.000    0.000    0.000    0.000    0.000    0.000 
#
# Total GULP energy -357363.601868 kJ/mol
# GULP energy per Si atom -5583.806279 kJ/mol
# Density = 2.036248 g / cm^3
# Si number density = 20.408931 Si / 1000 Ang^3
#
#
#
# Elastic Constant Matrix: (Units=GPa)
#
#
# Indices 1 2 3 4 5 6 
#
# 1 106.8207 1.5725 33.4447 0.0000 0.0000 0.0000
# 2 1.5725 61.7690 0.5822 0.0000 0.0000 0.0000
# 3 33.4447 0.5822 64.8969 0.0000 0.0000 0.0000
# 4 0.0000 0.0000 0.0000 17.5456 0.0000 0.0000
# 5 0.0000 0.0000 0.0000 0.0000 33.8036 0.0000
# 6 0.0000 0.0000 0.0000 0.0000 0.0000 9.3792
#
#
#
# Elastic Compliance Matrix: (Units=1/GPa)
#
#
# Indices 1 2 3 4 5 6 
#
# 1 0.011166 -0.000230 -0.005752 0.000000 0.000000 0.000000
# 2 -0.000230 0.016195 -0.000027 0.000000 0.000000 0.000000
# 3 -0.005752 -0.000027 0.018374 0.000000 0.000000 0.000000
# 4 0.000000 0.000000 0.000000 0.056994 0.000000 0.000000
# 5 0.000000 0.000000 0.000000 0.000000 0.029583 0.000000
# 6 0.000000 0.000000 0.000000 0.000000 0.000000 0.106619
#
#
# Mechanical properties :
#
#
# Convention : Reuss Voigt Hill
#
# Bulk Modulus (GPa) = 29.65868 33.85392 31.75630
# Shear Modulus (GPa) = 19.07030 25.33817 22.20424
#
# Velocity S-wave (km/s) = 3.06013 3.52735 3.30201
# Velocity P-wave (km/s) = 5.20092 5.76311 5.48922
#
# Compressibility (1/GPa) = 0.03371694
#
# Stress axis : x y z
#
# Youngs Moduli (GPa) = 89.55875 61.74571 54.42554
#
# Poissons Ratio (x) = 0.01420 0.31307
# Poissons Ratio (y) = 0.02060 0.00146
# Poissons Ratio (z) = 0.51517 0.00165
#
# Static dielectric constant tensor:
#      x y z
#    x 1.711990 0.000000 0.000000 
#    y 0.000000 1.728910 0.000000 
#    z 0.000000 0.000000 1.740510 
# 
# From -- ./inp_files/19668.got.cif
#   From: 2010.05.17/outbox.cif.g08.bks.cpg/sg60_10_cif.got.tgz:19668.got - 2010.06.03 14:59:27.
