data_PCOD9454036
_publ_section_title
;
Structure prediction by ZEFSAII (Michael W. Deem and Ramdas Pophale) SiO2 
 PCOD9454036
Probable space group: P B C N
;
_chemical_formula_sum "Si O2"
_cell_formula_units_Z 52
_cell_length_a 19.939068
_cell_length_b 14.076241
_cell_length_c 8.898111
_cell_angle_alpha 90.000000
_cell_angle_beta 90.000000
_cell_angle_gamma 90.000000
_cell_volume 2497.407246
_symmetry_space_group_name_H-M "P B C N"
_symmetry_group_IT_number 60
_symmetry_cell_setting 'orthorhombic'
loop_
_space_group_symop_operation_xyz
x,y,z
1/2-x,1/2-y,1/2+z
1/2+x,1/2-y,-z
-x,y,1/2-z
-x,-y,-z
1/2+x,1/2+y,1/2-z
1/2-x,1/2+y,z
x,-y,1/2+z
loop_
_atom_site_type_symbol
_atom_site_label
_atom_site_fract_x
_atom_site_fract_y
_atom_site_fract_z
Si Si1 0.146781 0.658384 0.967370
Si Si2 0.000000 0.477425 0.750000
Si Si3 0.781862 0.120029 0.418005
Si Si4 0.353669 0.506721 0.829975
Si Si5 0.292227 0.834201 0.131277
Si Si6 0.868712 0.137049 0.922999
Si Si7 0.591299 0.955089 0.505909
O O1 0.202263 0.629418 0.091577
O O2 0.185530 0.669512 0.807163
O O3 0.114247 0.756505 0.023821
O O4 0.101836 0.565923 0.954735
O O5 0.948529 0.415970 0.649661
O O6 0.043021 0.541809 0.637242
O O7 0.802258 0.063806 0.566051
O O8 0.806181 0.227975 0.426366
O O9 0.814101 0.062797 0.282163
O O10 0.389658 0.435746 0.945273
O O11 0.391943 0.585601 0.730512
O O12 0.213732 0.858219 0.099794
O O13 0.339857 0.905604 0.040199
#
# Coordination Sequence:
#
# PCOD9454036 Si02
#       7
#     8   4   8   8   8   8   8
#     4  11  21  35  52  81 106 156 183 235 271 349
#     4  10  24  40  56  86 100 148 198 262 260 338
#     4  10  21  32  52  77 118 141 198 210 274 338
#     4  10  18  33  46  70 106 158 162 229 250 312
#     4  11  21  35  52  81 106 156 183 235 271 349
#     4  10  21  32  52  77 118 141 198 210 274 338
#     4  11  22  40  62  76 118 144 198 231 300 312
#
# _framework density 20.821596
#
# number of rings (size 3 to 8) (size 9 to 14) (size 15 to 20)
#    0.000    1.538    4.615    1.846    0.000    2.462 
#    0.000    0.000    0.000    0.000    0.000    0.000 
#    0.000   86.154    0.000    0.000    0.000    0.000 
#
# Total GULP energy -289979.501653 kJ/mol
# GULP energy per Si atom -5576.528878 kJ/mol
# Density = 2.077420 g / cm^3
# Si number density = 20.821596 Si / 1000 Ang^3
#
#
#
# Elastic Constant Matrix: (Units=GPa)
#
#
# Indices 1 2 3 4 5 6 
#
# 1 20.8385 2.3956 -4.4455 0.0000 0.0000 0.0000
# 2 2.3956 126.8835 22.4378 0.0000 0.0000 0.0000
# 3 -4.4455 22.4378 75.0866 0.0000 0.0000 0.0000
# 4 0.0000 0.0000 0.0000 29.8816 0.0000 0.0000
# 5 0.0000 0.0000 0.0000 0.0000 12.6557 0.0000
# 6 0.0000 0.0000 0.0000 0.0000 0.0000 3.8545
#
#
#
# Elastic Compliance Matrix: (Units=1/GPa)
#
#
# Indices 1 2 3 4 5 6 
#
# 1 0.048876 -0.001515 0.003346 0.000000 0.000000 0.000000
# 2 -0.001515 0.008368 -0.002590 0.000000 0.000000 0.000000
# 3 0.003346 -0.002590 0.014290 0.000000 0.000000 0.000000
# 4 0.000000 0.000000 0.000000 0.033465 0.000000 0.000000
# 5 0.000000 0.000000 0.000000 0.000000 0.079016 0.000000
# 6 0.000000 0.000000 0.000000 0.000000 0.000000 0.259434
#
#
# Mechanical properties :
#
#
# Convention : Reuss Voigt Hill
#
# Bulk Modulus (GPa) = 14.28223 29.28717 21.78470
# Shear Modulus (GPa) = 10.67680 22.77307 16.72493
#
# Velocity S-wave (km/s) = 2.26691 3.31074 2.83724
# Velocity P-wave (km/s) = 3.70487 5.35826 4.60636
#
# Compressibility (1/GPa) = 0.07001708
#
# Stress axis : x y z
#
# Youngs Moduli (GPa) = 20.45991 119.50448 69.97856
#
# Poissons Ratio (x) = 0.18100 -0.23417
# Poissons Ratio (y) = 0.03099 0.18126
# Poissons Ratio (z) = -0.06846 0.30954
#
# Static dielectric constant tensor:
#      x y z
#    x 1.759430 0.000000 0.000000 
#    y 0.000000 1.779430 0.000000 
#    z 0.000000 0.000000 1.828140 
# 
# From -- ./inp_files/7923.got.cif
#   From: 2010.05.17/outbox.cif.g08.bks.cpg/sg60_4_cif.got.tgz:7923.got - 2010.06.03 14:59:27.
