data_PCOD9454797
_publ_section_title
;
Structure prediction by ZEFSAII (Michael W. Deem and Ramdas Pophale) SiO2 
 PCOD9454797
Probable space group: P B C N
;
_chemical_formula_sum "Si O2"
_cell_formula_units_Z 56
_cell_length_a 15.463140
_cell_length_b 21.470060
_cell_length_c 8.931258
_cell_angle_alpha 90.000000
_cell_angle_beta 90.000000
_cell_angle_gamma 90.000000
_cell_volume 2965.128923
_symmetry_space_group_name_H-M "P B C N"
_symmetry_group_IT_number 60
_symmetry_cell_setting 'orthorhombic'
loop_
_space_group_symop_operation_xyz
x,y,z
1/2-x,1/2-y,1/2+z
1/2+x,1/2-y,-z
-x,y,1/2-z
-x,-y,-z
1/2+x,1/2+y,1/2-z
1/2-x,1/2+y,z
x,-y,1/2+z
loop_
_atom_site_type_symbol
_atom_site_label
_atom_site_fract_x
_atom_site_fract_y
_atom_site_fract_z
Si Si1 0.263663 0.492250 0.734502
Si Si2 0.085388 0.312325 0.345713
Si Si3 0.246850 0.297542 0.121881
Si Si4 0.662068 0.413827 0.498918
Si Si5 0.197869 0.414390 0.467355
Si Si6 0.516948 0.680643 0.072984
Si Si7 0.668040 0.307565 0.081227
O O1 0.325208 0.536411 0.633805
O O2 0.208632 0.449848 0.622399
O O3 0.201429 0.535503 0.834219
O O4 0.318127 0.449579 0.847506
O O5 0.162640 0.304746 0.226272
O O6 0.117632 0.367651 0.452169
O O7 0.068502 0.246376 0.426803
O O8 0.000000 0.327004 0.250000
O O9 0.266892 0.359892 0.030154
O O10 0.323540 0.290080 0.243864
O O11 0.225680 0.241195 0.012634
O O12 0.572830 0.376047 0.508141
O O13 0.284773 0.373467 0.442489
O O14 0.500000 0.668914 0.250000
O O15 0.427656 0.689846 0.984872
#
# Coordination Sequence:
#
# PCOD9454797 Si02
#       7
#     8   8   8   8   8   8   8
#     4  10  22  40  65  84 121 169 220 249 296 368
#     4  10  19  39  64  95 128 158 194 262 328 362
#     4  11  22  39  66  90 122 163 201 254 315 377
#     4  11  22  42  64  89 122 169 210 261 304 370
#     4  10  21  40  61  90 116 166 210 249 300 372
#     4  11  22  39  62  97 132 158 198 263 323 368
#     4  11  22  39  65  97 122 160 205 250 319 378
#
# _framework density 18.886194
#
# number of rings (size 3 to 8) (size 9 to 14) (size 15 to 20)
#    0.000    1.429    5.714    2.571    2.000    0.571 
#    0.000    8.571    0.000    0.000    0.000    0.000 
#    0.000    0.000    0.000    0.000    0.000    0.000 
#
# Total GULP energy -312655.824924 kJ/mol
# GULP energy per Si atom -5583.139731 kJ/mol
# Density = 1.884321 g / cm^3
# Si number density = 18.886194 Si / 1000 Ang^3
#
#
#
# Elastic Constant Matrix: (Units=GPa)
#
#
# Indices 1 2 3 4 5 6 
#
# 1 80.2324 25.2852 31.3740 0.0000 0.0000 0.0000
# 2 25.2852 96.6748 60.4842 0.0000 0.0000 0.0000
# 3 31.3740 60.4842 114.1225 0.0000 0.0000 0.0000
# 4 0.0000 0.0000 0.0000 38.1549 0.0000 0.0000
# 5 0.0000 0.0000 0.0000 0.0000 26.3777 0.0000
# 6 0.0000 0.0000 0.0000 0.0000 0.0000 23.8044
#
#
#
# Elastic Compliance Matrix: (Units=1/GPa)
#
#
# Indices 1 2 3 4 5 6 
#
# 1 0.014195 -0.001902 -0.002894 0.000000 0.000000 0.000000
# 2 -0.001902 0.015730 -0.007814 0.000000 0.000000 0.000000
# 3 -0.002894 -0.007814 0.013700 0.000000 0.000000 0.000000
# 4 0.000000 0.000000 0.000000 0.026209 0.000000 0.000000
# 5 0.000000 0.000000 0.000000 0.000000 0.037911 0.000000
# 6 0.000000 0.000000 0.000000 0.000000 0.000000 0.042009
#
#
# Mechanical properties :
#
#
# Convention : Reuss Voigt Hill
#
# Bulk Modulus (GPa) = 54.33547 58.36851 56.35199
# Shear Modulus (GPa) = 27.60769 29.25984 28.43376
#
# Velocity S-wave (km/s) = 3.82749 3.94035 3.88433
# Velocity P-wave (km/s) = 6.95451 7.18848 7.07247
#
# Compressibility (1/GPa) = 0.01840419
#
# Stress axis : x y z
#
# Youngs Moduli (GPa) = 70.44742 63.57194 72.99443
#
# Poissons Ratio (x) = 0.12090 0.21128
# Poissons Ratio (y) = 0.13397 0.57039
# Poissons Ratio (z) = 0.20391 0.49676
#
# Static dielectric constant tensor:
#      x y z
#    x 1.647700 0.000000 0.000000 
#    y 0.000000 1.668560 0.000000 
#    z 0.000000 0.000000 1.671360 
# 
# From -- ./inp_files/6133.got.cif
#   From: 2010.05.17/outbox.cif.g08.bks.cpg/sg60_4_cif.got.tgz:6133.got - 2010.06.03 14:59:27.
