data_PCOD9454341
_publ_section_title
;
Structure prediction by ZEFSAII (Michael W. Deem and Ramdas Pophale) SiO2 
 PCOD9454341
Probable space group: P B C N
;
_chemical_formula_sum "Si O2"
_cell_formula_units_Z 56
_cell_length_a 17.953934
_cell_length_b 27.386260
_cell_length_c 5.368546
_cell_angle_alpha 90.000000
_cell_angle_beta 90.000000
_cell_angle_gamma 90.000000
_cell_volume 2639.666313
_symmetry_space_group_name_H-M "P B C N"
_symmetry_group_IT_number 60
_symmetry_cell_setting 'orthorhombic'
loop_
_space_group_symop_operation_xyz
x,y,z
1/2-x,1/2-y,1/2+z
1/2+x,1/2-y,-z
-x,y,1/2-z
-x,-y,-z
1/2+x,1/2+y,1/2-z
1/2-x,1/2+y,z
x,-y,1/2+z
loop_
_atom_site_type_symbol
_atom_site_label
_atom_site_fract_x
_atom_site_fract_y
_atom_site_fract_z
Si Si1 0.591571 0.684733 0.758262
Si Si2 0.500000 0.032475 0.250000
Si Si3 0.711473 0.972691 0.013961
Si Si4 0.610527 0.475060 0.943441
Si Si5 0.387880 0.888872 0.609891
Si Si6 0.500000 0.834005 0.250000
Si Si7 0.087411 0.865753 0.738441
Si Si8 0.085174 0.292760 0.849763
O O1 0.500000 0.683872 0.750000
O O2 0.619572 0.661234 0.502285
O O3 0.613427 0.741590 0.750274
O O4 0.617277 0.653922 0.998083
O O5 0.569607 0.069474 0.235705
O O6 0.500000 0.000000 0.500000
O O7 0.800392 0.975057 0.982998
O O8 0.681724 0.917519 0.001354
O O9 0.685887 0.003975 0.773903
O O10 0.584787 0.512873 0.726086
O O11 0.592146 0.422848 0.823820
O O12 0.450013 0.870229 0.415770
O O13 0.370087 0.840454 0.766707
O O14 0.564019 0.798252 0.361404
O O15 0.000000 0.853343 0.750000
O O16 0.000000 0.298605 0.750000
#
# Coordination Sequence:
#
# PCOD9454341 Si02
#       8
#     8   4   8   8   8   4   8   8
#     4   9  19  32  53  82 114 144 171 214 267 327
#     4  12  23  32  46  70 104 138 172 233 284 312
#     4  10  23  39  56  76 103 146 192 229 272 331
#     4  10  21  39  60  81 110 146 182 217 266 332
#     4  11  21  34  50  76 106 144 193 232 284 326
#     4  10  19  32  52  78 112 146 184 237 282 324
#     4  10  20  34  56  88 116 137 173 217 271 324
#     4   9  19  31  51  75 110 147 181 223 273 332
#
# _framework density 21.214801999999999
#
# number of rings (size 3 to 8) (size 9 to 14) (size 15 to 20)
#    0.000    2.000    2.143    2.143    9.000    0.571 
#    0.000    0.000    0.000    1.714    0.000    0.000 
#    0.000    0.000    0.000    0.000    0.000    0.000 
#
# Total GULP energy -311962.305483 kJ/mol
# GULP energy per Si atom -5570.755455 kJ/mol
# Density = 2.116652 g / cm^3
# Si number density = 21.214802 Si / 1000 Ang^3
#
#
#
# Elastic Constant Matrix: (Units=GPa)
#
#
# Indices 1 2 3 4 5 6 
#
# 1 20.6456 -7.3431 -4.7147 0.0000 0.0000 0.0000
# 2 -7.3431 51.8495 -15.0870 0.0000 0.0000 0.0000
# 3 -4.7147 -15.0870 49.6994 0.0000 0.0000 0.0000
# 4 0.0000 0.0000 0.0000 35.0451 0.0000 0.0000
# 5 0.0000 0.0000 0.0000 0.0000 6.2263 0.0000
# 6 0.0000 0.0000 0.0000 0.0000 0.0000 5.1026
#
#
#
# Elastic Compliance Matrix: (Units=1/GPa)
#
#
# Indices 1 2 3 4 5 6 
#
# 1 0.053852 0.009996 0.008143 0.000000 0.000000 0.000000
# 2 0.009996 0.023011 0.007933 0.000000 0.000000 0.000000
# 3 0.008143 0.007933 0.023302 0.000000 0.000000 0.000000
# 4 0.000000 0.000000 0.000000 0.028535 0.000000 0.000000
# 5 0.000000 0.000000 0.000000 0.000000 0.160609 0.000000
# 6 0.000000 0.000000 0.000000 0.000000 0.000000 0.195978
#
#
# Mechanical properties :
#
#
# Convention : Reuss Voigt Hill
#
# Bulk Modulus (GPa) = 6.56559 7.54499 7.05529
# Shear Modulus (GPa) = 10.33250 19.23075 14.78162
#
# Velocity S-wave (km/s) = 2.20930 3.01404 2.64248
# Velocity P-wave (km/s) = 3.09992 3.95940 3.55572
#
# Compressibility (1/GPa) = 0.15230926
#
# Stress axis : x y z
#
# Youngs Moduli (GPa) = 18.56958 43.45799 42.91521
#
# Poissons Ratio (x) = -0.43441 -0.34946
# Poissons Ratio (y) = -0.18562 -0.34047
# Poissons Ratio (z) = -0.15121 -0.34477
#
# Static dielectric constant tensor:
#      x y z
#    x 1.746590 0.000000 0.000000 
#    y 0.000000 1.780800 0.000000 
#    z 0.000000 0.000000 2.131740 
# 
# From -- ./inp_files/2164.got.cif
#   From: 2010.05.17/outbox.cif.g08.bks.cpg/sg60_2_cif.got.tgz:2164.got - 2010.06.03 14:59:27.
