data_PCOD9454985
_publ_section_title
;
Structure prediction by ZEFSAII (Michael W. Deem and Ramdas Pophale) SiO2 
 PCOD9454985
Probable space group: P B C N
;
_chemical_formula_sum "Si O2"
_cell_formula_units_Z 56
_cell_length_a 20.088161
_cell_length_b 15.197938
_cell_length_c 9.592053
_cell_angle_alpha 90.000000
_cell_angle_beta 90.000000
_cell_angle_gamma 90.000000
_cell_volume 2928.440596
_symmetry_space_group_name_H-M "P B C N"
_symmetry_group_IT_number 60
_symmetry_cell_setting 'orthorhombic'
loop_
_space_group_symop_operation_xyz
x,y,z
1/2-x,1/2-y,1/2+z
1/2+x,1/2-y,-z
-x,y,1/2-z
-x,-y,-z
1/2+x,1/2+y,1/2-z
1/2-x,1/2+y,z
x,-y,1/2+z
loop_
_atom_site_type_symbol
_atom_site_label
_atom_site_fract_x
_atom_site_fract_y
_atom_site_fract_z
Si Si1 0.019940 0.860967 0.088869
Si Si2 0.804192 0.584725 0.591561
Si Si3 0.175237 0.603754 0.353625
Si Si4 0.130588 0.276668 0.613853
Si Si5 0.229496 0.309677 0.132870
Si Si6 0.796049 0.105984 0.352691
Si Si7 0.558325 0.553383 0.366220
O O1 0.066163 0.777016 0.068257
O O2 0.000000 0.857946 0.250000
O O3 0.056666 0.955056 0.070223
O O4 0.958533 0.873853 0.983976
O O5 0.845356 0.494197 0.602209
O O6 0.845855 0.655772 0.503897
O O7 0.788535 0.626398 0.740922
O O8 0.735739 0.575139 0.500673
O O9 0.128684 0.665847 0.257324
O O10 0.201127 0.654171 0.488743
O O11 0.239575 0.583241 0.258367
O O12 0.191111 0.207073 0.630827
O O13 0.200185 0.211799 0.150838
O O14 0.867315 0.068168 0.314784
O O15 0.500000 0.559135 0.250000
#
# Coordination Sequence:
#
# PCOD9454985 Si02
#       7
#     8   8   8   8   8   8   8
#     4  10  24  40  58  83 117 156 194 233 280 338
#     4  10  21  35  57  89 115 151 189 235 302 342
#     4  10  21  35  57  88 114 149 186 239 296 344
#     4  10  21  37  57  82 118 150 189 239 287 346
#     4  10  20  34  56  84 115 148 190 232 290 355
#     4  10  21  36  56  85 119 153 184 234 289 342
#     4  10  24  39  57  86 115 156 198 228 276 341
#
# _framework density 19.122807000000002
#
# number of rings (size 3 to 8) (size 9 to 14) (size 15 to 20)
#    0.000    2.286    0.000    5.143   12.000    1.143 
#    0.000    0.000    0.000    0.857    0.000    0.000 
#    0.000    0.000    0.000    0.000    0.000    0.000 
#
# Total GULP energy -312323.015966 kJ/mol
# GULP energy per Si atom -5577.196714 kJ/mol
# Density = 1.907928 g / cm^3
# Si number density = 19.122807 Si / 1000 Ang^3
#
#
#
# Elastic Constant Matrix: (Units=GPa)
#
#
# Indices 1 2 3 4 5 6 
#
# 1 41.4466 9.5222 -2.7016 0.0000 0.0000 0.0000
# 2 9.5222 73.2378 7.5866 0.0000 0.0000 0.0000
# 3 -2.7016 7.5866 79.3660 0.0000 0.0000 0.0000
# 4 0.0000 0.0000 0.0000 24.4121 0.0000 0.0000
# 5 0.0000 0.0000 0.0000 0.0000 9.8179 0.0000
# 6 0.0000 0.0000 0.0000 0.0000 0.0000 14.8323
#
#
#
# Elastic Compliance Matrix: (Units=1/GPa)
#
#
# Indices 1 2 3 4 5 6 
#
# 1 0.024978 -0.003369 0.001172 0.000000 0.000000 0.000000
# 2 -0.003369 0.014245 -0.001476 0.000000 0.000000 0.000000
# 3 0.001172 -0.001476 0.012781 0.000000 0.000000 0.000000
# 4 0.000000 0.000000 0.000000 0.040963 0.000000 0.000000
# 5 0.000000 0.000000 0.000000 0.000000 0.101855 0.000000
# 6 0.000000 0.000000 0.000000 0.000000 0.000000 0.067420
#
#
# Mechanical properties :
#
#
# Convention : Reuss Voigt Hill
#
# Bulk Modulus (GPa) = 22.39256 24.76277 23.57766
# Shear Modulus (GPa) = 17.57625 21.78866 19.68246
#
# Velocity S-wave (km/s) = 3.03500 3.37917 3.21170
# Velocity P-wave (km/s) = 4.90070 5.31061 5.10977
#
# Compressibility (1/GPa) = 0.04465769
#
# Stress axis : x y z
#
# Youngs Moduli (GPa) = 40.03542 70.19952 78.24186
#
# Poissons Ratio (x) = 0.23650 -0.09172
# Poissons Ratio (y) = 0.13488 0.11551
# Poissons Ratio (z) = -0.04693 0.10364
#
# Static dielectric constant tensor:
#      x y z
#    x 1.689170 0.000000 0.000000 
#    y 0.000000 1.672810 0.000000 
#    z 0.000000 0.000000 1.717450 
# 
# From -- ./inp_files/7423.got.cif
#   From: 2010.05.17/outbox.cif.g08.bks.cpg/sg60_4_cif.got.tgz:7423.got - 2010.06.03 14:59:27.
