data_PCOD9454904
_publ_section_title
;
Structure prediction by ZEFSAII (Michael W. Deem and Ramdas Pophale) SiO2 
 PCOD9454904
Probable space group: P B C N
;
_chemical_formula_sum "Si O2"
_cell_formula_units_Z 44
_cell_length_a 5.280650
_cell_length_b 20.846508
_cell_length_c 20.417284
_cell_angle_alpha 90.000000
_cell_angle_beta 90.000000
_cell_angle_gamma 90.000000
_cell_volume 2247.598171
_symmetry_space_group_name_H-M "P B C N"
_symmetry_group_IT_number 60
_symmetry_cell_setting 'orthorhombic'
loop_
_space_group_symop_operation_xyz
x,y,z
1/2-x,1/2-y,1/2+z
1/2+x,1/2-y,-z
-x,y,1/2-z
-x,-y,-z
1/2+x,1/2+y,1/2-z
1/2-x,1/2+y,z
x,-y,1/2+z
loop_
_atom_site_type_symbol
_atom_site_label
_atom_site_fract_x
_atom_site_fract_y
_atom_site_fract_z
Si Si1 0.038205 0.893088 0.974681
Si Si2 0.500000 0.626789 0.250000
Si Si3 0.112015 0.535779 0.319905
Si Si4 0.813059 0.341314 0.865080
Si Si5 0.395178 0.216103 0.474614
Si Si6 0.204270 0.523190 0.945763
O O1 0.286174 0.853746 0.995728
O O2 0.902826 0.851209 0.919371
O O3 0.105545 0.962226 0.945172
O O4 0.846114 0.912843 0.031875
O O5 0.355543 0.578400 0.299145
O O6 0.310231 0.669192 0.206060
O O7 0.119800 0.477545 0.370652
O O8 0.000000 0.516307 0.250000
O O9 0.942517 0.589402 0.356024
O O10 0.012164 0.293313 0.899159
O O11 0.648530 0.239414 0.512415
O O12 0.000000 0.500000 0.000000
#
# Coordination Sequence:
#
# PCOD9454904 Si02
#       6
#     8   4   8   8   8   8
#     4  11  21  35  57  89 130 164 208 256 335 383
#     4  10  20  34  58  84 138 160 202 258 320 408
#     4  10  20  32  56  87 132 166 208 254 321 392
#     4  11  19  38  55  91 127 167 206 257 330 385
#     4  12  24  38  61  86 132 164 215 275 322 388
#     4  11  20  34  58  88 136 167 204 263 321 410
#
# _framework density 19.576453000000001
#
# number of rings (size 3 to 8) (size 9 to 14) (size 15 to 20)
#    0.000    1.091    7.273    0.000    0.000    0.000 
#    0.000    0.000    0.000    0.000    0.000    0.000 
#  117.273    0.000    0.000    0.000    0.000    0.000 
#
# Total GULP energy -245017.614329 kJ/mol
# GULP energy per Si atom -5568.582144 kJ/mol
# Density = 1.953190 g / cm^3
# Si number density = 19.576453 Si / 1000 Ang^3
#
#
#
# Elastic Constant Matrix: (Units=GPa)
#
#
# Indices 1 2 3 4 5 6 
#
# 1 106.6760 24.8694 48.9899 0.0000 0.0000 0.0000
# 2 24.8694 46.0635 29.6283 0.0000 0.0000 0.0000
# 3 48.9899 29.6283 136.7803 0.0000 0.0000 0.0000
# 4 0.0000 0.0000 0.0000 27.2565 0.0000 0.0000
# 5 0.0000 0.0000 0.0000 0.0000 33.2774 0.0000
# 6 0.0000 0.0000 0.0000 0.0000 0.0000 29.8601
#
#
#
# Elastic Compliance Matrix: (Units=1/GPa)
#
#
# Indices 1 2 3 4 5 6 
#
# 1 0.011904 -0.004281 -0.003336 0.000000 0.000000 0.000000
# 2 -0.004281 0.026763 -0.004264 0.000000 0.000000 0.000000
# 3 -0.003336 -0.004264 0.009430 0.000000 0.000000 0.000000
# 4 0.000000 0.000000 0.000000 0.036689 0.000000 0.000000
# 5 0.000000 0.000000 0.000000 0.000000 0.030050 0.000000
# 6 0.000000 0.000000 0.000000 0.000000 0.000000 0.033490
#
#
# Mechanical properties :
#
#
# Convention : Reuss Voigt Hill
#
# Bulk Modulus (GPa) = 41.09430 55.16610 48.13020
# Shear Modulus (GPa) = 27.74698 30.48094 29.11396
#
# Velocity S-wave (km/s) = 3.76888 3.95019 3.86060
# Velocity P-wave (km/s) = 6.32270 7.00331 6.67169
#
# Compressibility (1/GPa) = 0.02433428
#
# Stress axis : x y z
#
# Youngs Moduli (GPa) = 84.00216 37.36500 106.04923
#
# Poissons Ratio (x) = 0.15996 0.35382
# Poissons Ratio (y) = 0.35962 0.45218
# Poissons Ratio (z) = 0.28027 0.15932
#
# Static dielectric constant tensor:
#      x y z
#    x 1.889890 0.000000 0.000000 
#    y 0.000000 1.702100 0.000000 
#    z 0.000000 0.000000 1.807360 
# 
# From -- ./inp_files/21691.got.cif
#   From: 2010.05.17/outbox.cif.g08.bks.cpg/sg60_11_cif.got.tgz:21691.got - 2010.06.03 14:59:27.
