data_PCOD9454206
_publ_section_title
;
Structure prediction by ZEFSAII (Michael W. Deem and Ramdas Pophale) SiO2 
 PCOD9454206
Probable space group: P B C N
;
_chemical_formula_sum "Si O2"
_cell_formula_units_Z 52
_cell_length_a 11.375661
_cell_length_b 14.072188
_cell_length_c 16.500057
_cell_angle_alpha 90.000000
_cell_angle_beta 90.000000
_cell_angle_gamma 90.000000
_cell_volume 2641.336388
_symmetry_space_group_name_H-M "P B C N"
_symmetry_group_IT_number 60
_symmetry_cell_setting 'orthorhombic'
loop_
_space_group_symop_operation_xyz
x,y,z
1/2-x,1/2-y,1/2+z
1/2+x,1/2-y,-z
-x,y,1/2-z
-x,-y,-z
1/2+x,1/2+y,1/2-z
1/2-x,1/2+y,z
x,-y,1/2+z
loop_
_atom_site_type_symbol
_atom_site_label
_atom_site_fract_x
_atom_site_fract_y
_atom_site_fract_z
Si Si1 0.136764 0.192224 0.763736
Si Si2 0.910492 0.116702 0.031101
Si Si3 0.500000 0.789146 0.250000
Si Si4 0.820852 0.931418 0.987447
Si Si5 0.790759 0.174801 0.322509
Si Si6 0.181644 0.692176 0.890646
Si Si7 0.374103 0.527489 0.292254
O O1 0.198291 0.241606 0.687859
O O2 0.203932 0.232938 0.842749
O O3 0.000000 0.206962 0.750000
O O4 0.159126 0.080640 0.775748
O O5 0.870440 0.223584 0.052291
O O6 0.896867 0.059441 0.116229
O O7 0.044560 0.107270 0.999391
O O8 0.831667 0.045540 0.976500
O O9 0.415481 0.725414 0.193798
O O10 0.411323 0.833689 0.317932
O O11 0.783668 0.880527 0.905228
O O12 0.730842 0.894693 0.055865
O O13 0.783299 0.097158 0.251195
O O14 0.500000 0.538624 0.250000
#
# Coordination Sequence:
#
# PCOD9454206 Si02
#       7
#     8   8   4   8   8   8   8
#     4  10  23  35  62  94 119 161 213 257 305 373
#     4  11  21  38  62  91 126 157 215 259 319 373
#     4  10  18  38  62  90 114 176 202 252 308 404
#     4  11  23  35  61  99 121 163 203 277 315 365
#     4  11  19  38  63  87 124 157 208 261 322 367
#     4  11  21  38  64  87 129 160 211 259 319 380
#     4  11  17  36  65  88 114 158 218 261 297 381
#
# _framework density 19.687004000000002
#
# number of rings (size 3 to 8) (size 9 to 14) (size 15 to 20)
#    0.000    1.231    8.462    0.000    0.000    2.462 
#    0.000    0.000   15.231    1.846    0.000    0.000 
#    0.000    0.000    0.000    0.000    0.000    0.000 
#
# Total GULP energy -289573.878976 kJ/mol
# GULP energy per Si atom -5568.728442 kJ/mol
# Density = 1.964220 g / cm^3
# Si number density = 19.687004 Si / 1000 Ang^3
#
#
#
# Elastic Constant Matrix: (Units=GPa)
#
#
# Indices 1 2 3 4 5 6 
#
# 1 86.3895 39.5345 21.8628 0.0000 0.0000 0.0000
# 2 39.5345 75.8703 8.1726 0.0000 0.0000 0.0000
# 3 21.8628 8.1726 65.8179 0.0000 0.0000 0.0000
# 4 0.0000 0.0000 0.0000 20.7112 0.0000 0.0000
# 5 0.0000 0.0000 0.0000 0.0000 28.9023 0.0000
# 6 0.0000 0.0000 0.0000 0.0000 0.0000 30.9702
#
#
#
# Elastic Compliance Matrix: (Units=1/GPa)
#
#
# Indices 1 2 3 4 5 6 
#
# 1 0.016389 -0.008061 -0.004443 0.000000 0.000000 0.000000
# 2 -0.008061 0.017324 0.000527 0.000000 0.000000 0.000000
# 3 -0.004443 0.000527 0.016604 0.000000 0.000000 0.000000
# 4 0.000000 0.000000 0.000000 0.048283 0.000000 0.000000
# 5 0.000000 0.000000 0.000000 0.000000 0.034599 0.000000
# 6 0.000000 0.000000 0.000000 0.000000 0.000000 0.032289
#
#
# Mechanical properties :
#
#
# Convention : Reuss Voigt Hill
#
# Bulk Modulus (GPa) = 37.93387 40.80194 39.36791
# Shear Modulus (GPa) = 25.22306 26.68394 25.95350
#
# Velocity S-wave (km/s) = 3.58327 3.68558 3.63479
# Velocity P-wave (km/s) = 6.03574 6.23552 6.13644
#
# Compressibility (1/GPa) = 0.02636166
#
# Stress axis : x y z
#
# Youngs Moduli (GPa) = 61.01654 57.72244 60.22689
#
# Poissons Ratio (x) = 0.46532 0.26759
# Poissons Ratio (y) = 0.49188 -0.03172
# Poissons Ratio (z) = 0.27109 -0.03040
#
# Static dielectric constant tensor:
#      x y z
#    x 1.721900 0.000000 0.000000 
#    y 0.000000 1.732880 0.000000 
#    z 0.000000 0.000000 1.783020 
# 
# From -- ./inp_files/20105.got.cif
#   From: 2010.05.17/outbox.cif.g08.bks.cpg/sg60_11_cif.got.tgz:20105.got - 2010.06.03 14:59:27.
