data_PCOD9454695
_publ_section_title
;
Structure prediction by ZEFSAII (Michael W. Deem and Ramdas Pophale) SiO2 
 PCOD9454695
Probable space group: P B C N
;
_chemical_formula_sum "Si O2"
_cell_formula_units_Z 64
_cell_length_a 7.702344
_cell_length_b 14.868170
_cell_length_c 23.950012
_cell_angle_alpha 90.000000
_cell_angle_beta 90.000000
_cell_angle_gamma 90.000000
_cell_volume 2742.749626
_symmetry_space_group_name_H-M "P B C N"
_symmetry_group_IT_number 60
_symmetry_cell_setting 'orthorhombic'
loop_
_space_group_symop_operation_xyz
x,y,z
1/2-x,1/2-y,1/2+z
1/2+x,1/2-y,-z
-x,y,1/2-z
-x,-y,-z
1/2+x,1/2+y,1/2-z
1/2-x,1/2+y,z
x,-y,1/2+z
loop_
_atom_site_type_symbol
_atom_site_label
_atom_site_fract_x
_atom_site_fract_y
_atom_site_fract_z
Si Si1 0.145775 0.170506 0.316207
Si Si2 0.911804 0.755030 0.383130
Si Si3 0.243619 0.034391 0.508715
Si Si4 0.302877 0.171881 0.887234
Si Si5 0.673081 0.484702 0.608988
Si Si6 0.068144 0.657192 0.004022
Si Si7 0.758437 0.615412 0.301826
Si Si8 0.182873 0.058393 0.640105
O O1 0.143260 0.274874 0.332233
O O2 0.260014 0.142055 0.263006
O O3 0.943252 0.142869 0.313727
O O4 0.222407 0.110705 0.366323
O O5 0.884319 0.672644 0.341233
O O6 0.801341 0.834992 0.354063
O O7 0.101769 0.798344 0.392274
O O8 0.870775 0.720036 0.445368
O O9 0.376772 0.114384 0.491296
O O10 0.215862 0.047573 0.574053
O O11 0.115743 0.031608 0.455248
O O12 0.319148 0.933657 0.505875
O O13 0.315906 0.063479 0.886567
O O14 0.403599 0.201074 0.943275
O O15 0.517292 0.526650 0.645176
O O16 0.780474 0.510901 0.319483
#
# Coordination Sequence:
#
# PCOD9454695 Si02
#       8
#     8   8   8   8   8   8   8   8
#     4  10  22  41  66  82 119 167 201 266 309 368
#     4  11  23  38  61  93 127 163 208 257 314 381
#     4  10  19  37  58  88 128 164 197 256 309 372
#     4  10  23  39  59  92 123 160 207 253 314 373
#     4   9  20  38  60  89 122 160 207 250 314 383
#     4  10  22  35  58  91 129 161 202 250 310 381
#     4  10  23  43  60  89 118 159 218 252 317 375
#     4  10  21  37  61  89 123 165 205 260 314 378
#
# _framework density 23.334247000000001
#
# number of rings (size 3 to 8) (size 9 to 14) (size 15 to 20)
#    0.000    2.000    1.250    1.125    5.250    1.500 
#    0.000    2.500    0.000    0.000    0.000    0.000 
#    0.000    0.000    0.000    0.000    0.000    0.000 
#
# Total GULP energy -356669.272078 kJ/mol
# GULP energy per Si atom -5572.957376 kJ/mol
# Density = 2.328114 g / cm^3
# Si number density = 23.334247 Si / 1000 Ang^3
#
#
#
# Elastic Constant Matrix: (Units=GPa)
#
#
# Indices 1 2 3 4 5 6 
#
# 1 11.6351 2.7396 9.4480 0.0000 0.0000 0.0000
# 2 2.7396 67.2248 -5.4244 0.0000 0.0000 0.0000
# 3 9.4480 -5.4244 60.0498 0.0000 0.0000 0.0000
# 4 0.0000 0.0000 0.0000 23.8605 0.0000 0.0000
# 5 0.0000 0.0000 0.0000 0.0000 24.6864 0.0000
# 6 0.0000 0.0000 0.0000 0.0000 0.0000 18.8037
#
#
#
# Elastic Compliance Matrix: (Units=1/GPa)
#
#
# Indices 1 2 3 4 5 6 
#
# 1 0.100450 -0.005408 -0.016293 0.000000 0.000000 0.000000
# 2 -0.005408 0.015276 0.002231 0.000000 0.000000 0.000000
# 3 -0.016293 0.002231 0.019418 0.000000 0.000000 0.000000
# 4 0.000000 0.000000 0.000000 0.041910 0.000000 0.000000
# 5 0.000000 0.000000 0.000000 0.000000 0.040508 0.000000
# 6 0.000000 0.000000 0.000000 0.000000 0.000000 0.053181
#
#
# Mechanical properties :
#
#
# Convention : Reuss Voigt Hill
#
# Bulk Modulus (GPa) = 10.39469 16.93735 13.66602
# Shear Modulus (GPa) = 14.63052 22.27991 18.45521
#
# Velocity S-wave (km/s) = 2.50671 3.09336 2.81536
# Velocity P-wave (km/s) = 3.58364 4.47581 4.05434
#
# Compressibility (1/GPa) = 0.09620296
#
# Stress axis : x y z
#
# Youngs Moduli (GPa) = 9.95520 65.46277 51.49911
#
# Poissons Ratio (x) = 0.35404 0.83907
# Poissons Ratio (y) = 0.05384 -0.11488
# Poissons Ratio (z) = 0.16220 -0.14603
#
# Static dielectric constant tensor:
#      x y z
#    x 1.976820 0.000000 0.000000 
#    y 0.000000 1.890130 0.000000 
#    z 0.000000 0.000000 1.966360 
# 
# From -- ./inp_files/24064.got.cif
#   From: 2010.05.17/outbox.cif.g08.bks.cpg/sg60_13_cif.got.tgz:24064.got - 2010.06.03 14:59:27.
