data_PCOD9454739
_publ_section_title
;
Structure prediction by ZEFSAII (Michael W. Deem and Ramdas Pophale) SiO2 
 PCOD9454739
Probable space group: P B C N
;
_chemical_formula_sum "Si O2"
_cell_formula_units_Z 52
_cell_length_a 31.563828
_cell_length_b 6.952551
_cell_length_c 9.905575
_cell_angle_alpha 90.000000
_cell_angle_beta 90.000000
_cell_angle_gamma 90.000000
_cell_volume 2173.769756
_symmetry_space_group_name_H-M "P B C N"
_symmetry_group_IT_number 60
_symmetry_cell_setting 'orthorhombic'
loop_
_space_group_symop_operation_xyz
x,y,z
1/2-x,1/2-y,1/2+z
1/2+x,1/2-y,-z
-x,y,1/2-z
-x,-y,-z
1/2+x,1/2+y,1/2-z
1/2-x,1/2+y,z
x,-y,1/2+z
loop_
_atom_site_type_symbol
_atom_site_label
_atom_site_fract_x
_atom_site_fract_y
_atom_site_fract_z
Si Si1 0.811585 0.292834 0.212294
Si Si2 0.152502 0.272269 0.573754
Si Si3 0.785990 0.847653 0.203891
Si Si4 0.000000 0.197333 0.750000
Si Si5 0.842997 0.818092 0.977237
Si Si6 0.929967 0.717604 0.084427
Si Si7 0.935372 0.468442 0.844886
O O1 0.763650 0.363770 0.227723
O O2 0.841568 0.310894 0.342634
O O3 0.804610 0.062009 0.208580
O O4 0.831491 0.352539 0.070215
O O5 0.188921 0.283512 0.688782
O O6 0.106915 0.357527 0.609233
O O7 0.149131 0.041024 0.556361
O O8 0.798343 0.785506 0.052531
O O9 0.959949 0.126522 0.660885
O O10 0.975809 0.328867 0.861052
O O11 0.880956 0.771302 0.078477
O O12 0.933587 0.529459 0.181588
O O13 0.940948 0.659260 0.931929
#
# Coordination Sequence:
#
# PCOD9454739 Si02
#       7
#     8   8   8   4   8   8   8
#     4  10  22  31  58  77 114 145 193 225 285 318
#     4  10  21  38  56  81 115 152 186 229 282 329
#     4  10  19  38  51  81 108 155 183 240 270 330
#     4   8  20  38  62  82 116 144 176 232 292 324
#     4  10  21  38  56  81 115 152 186 229 282 329
#     4  10  21  37  61  85 112 144 186 230 280 337
#     4  10  21  37  61  85 112 144 186 230 280 337
#
# _framework density 23.921579000000001
#
# number of rings (size 3 to 8) (size 9 to 14) (size 15 to 20)
#    0.923    1.231    1.538    1.385    2.154    2.462 
#    0.000    0.769    0.000    1.846    0.000    0.000 
#    0.000    0.000    0.000    0.000    0.000    0.000 
#
# Total GULP energy -289891.645970 kJ/mol
# GULP energy per Si atom -5574.839346 kJ/mol
# Density = 2.386713 g / cm^3
# Si number density = 23.921579 Si / 1000 Ang^3
#
#
#
# Elastic Constant Matrix: (Units=GPa)
#
#
# Indices 1 2 3 4 5 6 
#
# 1 139.8546 5.5029 42.3901 0.0000 0.0000 0.0000
# 2 5.5029 43.0926 2.1137 0.0000 0.0000 0.0000
# 3 42.3901 2.1137 91.8615 0.0000 0.0000 0.0000
# 4 0.0000 0.0000 0.0000 9.9467 0.0000 0.0000
# 5 0.0000 0.0000 0.0000 0.0000 41.6811 0.0000
# 6 0.0000 0.0000 0.0000 0.0000 0.0000 5.7805
#
#
#
# Elastic Compliance Matrix: (Units=1/GPa)
#
#
# Indices 1 2 3 4 5 6 
#
# 1 0.008346 -0.000878 -0.003831 0.000000 0.000000 0.000000
# 2 -0.000878 0.023324 -0.000132 0.000000 0.000000 0.000000
# 3 -0.003831 -0.000132 0.012657 0.000000 0.000000 0.000000
# 4 0.000000 0.000000 0.000000 0.100536 0.000000 0.000000
# 5 0.000000 0.000000 0.000000 0.000000 0.023992 0.000000
# 6 0.000000 0.000000 0.000000 0.000000 0.000000 0.172994
#
#
# Mechanical properties :
#
#
# Convention : Reuss Voigt Hill
#
# Bulk Modulus (GPa) = 28.86325 41.64690 35.25507
# Shear Modulus (GPa) = 13.77108 26.46846 20.11977
#
# Velocity S-wave (km/s) = 2.40193 3.32997 2.90327
# Velocity P-wave (km/s) = 4.44796 5.67737 5.09984
#
# Compressibility (1/GPa) = 0.03464614
#
# Stress axis : x y z
#
# Youngs Moduli (GPa) = 119.81711 42.87360 79.00837
#
# Poissons Ratio (x) = 0.03764 0.30269
# Poissons Ratio (y) = 0.10518 0.01040
# Poissons Ratio (z) = 0.45904 0.00564
#
# Static dielectric constant tensor:
#      x y z
#    x 1.886450 0.000000 0.000000 
#    y 0.000000 1.958600 0.000000 
#    z 0.000000 0.000000 1.972860 
# 
# From -- ./inp_files/13365.got.cif
#   From: 2010.05.17/outbox.cif.g08.bks.cpg/sg60_7_cif.got.tgz:13365.got - 2010.06.03 14:59:27.
