data_PCOD9454467
_publ_section_title
;
Structure prediction by ZEFSAII (Michael W. Deem and Ramdas Pophale) SiO2 
 PCOD9454467
Probable space group: P B C N
;
_chemical_formula_sum "Si O2"
_cell_formula_units_Z 40
_cell_length_a 7.897433
_cell_length_b 26.406946
_cell_length_c 7.871429
_cell_angle_alpha 90.000000
_cell_angle_beta 90.000000
_cell_angle_gamma 90.000000
_cell_volume 1641.563587
_symmetry_space_group_name_H-M "P B C N"
_symmetry_group_IT_number 60
_symmetry_cell_setting 'orthorhombic'
loop_
_space_group_symop_operation_xyz
x,y,z
1/2-x,1/2-y,1/2+z
1/2+x,1/2-y,-z
-x,y,1/2-z
-x,-y,-z
1/2+x,1/2+y,1/2-z
1/2-x,1/2+y,z
x,-y,1/2+z
loop_
_atom_site_type_symbol
_atom_site_label
_atom_site_fract_x
_atom_site_fract_y
_atom_site_fract_z
Si Si1 0.286721 0.949808 0.584492
Si Si2 0.328422 0.346712 0.643737
Si Si3 0.410255 0.764158 0.566049
Si Si4 0.326379 0.057910 0.490300
Si Si5 0.703281 0.831957 0.502200
O O1 0.184162 0.898792 0.539586
O O2 0.469206 0.945349 0.492022
O O3 0.300040 0.945467 0.787867
O O4 0.233549 0.007746 0.556590
O O5 0.500000 0.347085 0.750000
O O6 0.267488 0.295670 0.553467
O O7 0.190344 0.345123 0.797190
O O8 0.500000 0.758829 0.750000
O O9 0.535939 0.800086 0.457606
O O10 0.355914 0.707465 0.518242
O O11 0.274436 0.111818 0.570757
#
# Coordination Sequence:
#
# PCOD9454467 Si02
#       5
#     8   8   8   8   8
#     4   9  17  33  56  80 106 146 188 232 284 346
#     4  10  19  34  55  81 109 149 192 233 291 354
#     4  10  20  35  56  80 112 151 191 240 293 356
#     4   9  17  33  57  80 107 145 190 233 284 345
#     4  10  19  35  56  80 109 151 188 235 292 351
#
# _framework density 24.367013
#
# number of rings (size 3 to 8) (size 9 to 14) (size 15 to 20)
#    0.000    2.400    2.000    1.200    0.000    0.000 
#    0.000   11.000   13.200    0.000    0.000    0.000 
#    0.000    0.000    0.000    0.000    0.000    0.000 
#
# Total GULP energy -222690.751422 kJ/mol
# GULP energy per Si atom -5567.268786 kJ/mol
# Density = 2.431155 g / cm^3
# Si number density = 24.367013 Si / 1000 Ang^3
#
#
#
# Elastic Constant Matrix: (Units=GPa)
#
#
# Indices 1 2 3 4 5 6 
#
# 1 73.4799 49.0455 10.4754 0.0000 0.0000 0.0000
# 2 49.0455 297.8231 35.2722 0.0000 0.0000 0.0000
# 3 10.4754 35.2722 20.6456 0.0000 0.0000 0.0000
# 4 0.0000 0.0000 0.0000 17.3043 0.0000 0.0000
# 5 0.0000 0.0000 0.0000 0.0000 14.6794 0.0000
# 6 0.0000 0.0000 0.0000 0.0000 0.0000 24.5205
#
#
#
# Elastic Compliance Matrix: (Units=1/GPa)
#
#
# Indices 1 2 3 4 5 6 
#
# 1 0.015605 -0.002046 -0.004422 0.000000 0.000000 0.000000
# 2 -0.002046 0.004478 -0.006612 0.000000 0.000000 0.000000
# 3 -0.004422 -0.006612 0.061976 0.000000 0.000000 0.000000
# 4 0.000000 0.000000 0.000000 0.057789 0.000000 0.000000
# 5 0.000000 0.000000 0.000000 0.000000 0.068123 0.000000
# 6 0.000000 0.000000 0.000000 0.000000 0.000000 0.040782
#
#
# Mechanical properties :
#
#
# Convention : Reuss Voigt Hill
#
# Bulk Modulus (GPa) = 17.88945 64.61498 41.25222
# Shear Modulus (GPa) = 17.03307 31.11120 24.07214
#
# Velocity S-wave (km/s) = 2.64677 3.57708 3.14650
# Velocity P-wave (km/s) = 4.08633 6.60572 5.49244
#
# Compressibility (1/GPa) = 0.05589886
#
# Stress axis : x y z
#
# Youngs Moduli (GPa) = 64.08064 223.32818 16.13522
#
# Poissons Ratio (x) = 0.45696 0.07135
# Poissons Ratio (y) = 0.13112 0.10668
# Poissons Ratio (z) = 0.28338 1.47660
#
# Static dielectric constant tensor:
#      x y z
#    x 2.064450 0.000000 0.000000 
#    y 0.000000 2.115310 0.000000 
#    z 0.000000 0.000000 1.997470 
# 
# From -- ./inp_files/9914.got.cif
#   From: 2010.05.17/outbox.cif.g08.bks.cpg/sg60_5_cif.got.tgz:9914.got - 2010.06.03 14:59:27.
