data_PCOD9454602
_publ_section_title
;
Structure prediction by ZEFSAII (Michael W. Deem and Ramdas Pophale) SiO2 
 PCOD9454602
Probable space group: P B C N
;
_chemical_formula_sum "Si O2"
_cell_formula_units_Z 60
_cell_length_a 23.404676
_cell_length_b 22.716755
_cell_length_c 5.699673
_cell_angle_alpha 90.000000
_cell_angle_beta 90.000000
_cell_angle_gamma 90.000000
_cell_volume 3030.392397
_symmetry_space_group_name_H-M "P B C N"
_symmetry_group_IT_number 60
_symmetry_cell_setting 'orthorhombic'
loop_
_space_group_symop_operation_xyz
x,y,z
1/2-x,1/2-y,1/2+z
1/2+x,1/2-y,-z
-x,y,1/2-z
-x,-y,-z
1/2+x,1/2+y,1/2-z
1/2-x,1/2+y,z
x,-y,1/2+z
loop_
_atom_site_type_symbol
_atom_site_label
_atom_site_fract_x
_atom_site_fract_y
_atom_site_fract_z
Si Si1 0.922679 0.334326 0.098616
Si Si2 0.605415 0.258969 0.983675
Si Si3 0.703951 0.944023 0.032670
Si Si4 0.254939 0.070544 0.469390
Si Si5 0.427102 0.029234 0.885368
Si Si6 0.500000 0.759441 0.750000
Si Si7 0.812165 0.287855 0.866337
Si Si8 0.690571 0.674957 0.195879
O O1 0.919905 0.293339 0.325023
O O2 0.940389 0.401466 0.128633
O O3 0.857927 0.329546 0.997972
O O4 0.965400 0.301996 0.923624
O O5 0.634050 0.312248 0.844005
O O6 0.551382 0.277727 0.137852
O O7 0.657073 0.227635 0.122621
O O8 0.705627 0.919675 0.764771
O O9 0.642047 0.970493 0.092536
O O10 0.747421 0.999914 0.014714
O O11 0.721760 0.910274 0.273053
O O12 0.200348 0.110582 0.411211
O O13 0.444613 0.000844 0.137264
O O14 0.748007 0.310696 0.843852
O O15 0.810399 0.225807 0.000978
#
# Coordination Sequence:
#
# PCOD9454602 Si02
#       8
#     8   8   8   8   8   4   8   8
#     4  10  24  39  65  80 113 160 205 264 315 369
#     4  10  22  39  60  85 114 155 203 246 319 372
#     4  10  19  36  49  85 113 176 198 238 291 374
#     4  10  20  31  55  72 122 158 206 229 292 354
#     4  12  23  37  57  89 115 150 212 263 317 370
#     4  10  22  46  66  80 108 162 214 264 310 376
#     4  10  21  33  52  86 118 151 189 237 318 379
#     4  11  21  33  52  88 120 155 188 254 299 387
#
# _framework density 19.799416000000001
#
# number of rings (size 3 to 8) (size 9 to 14) (size 15 to 20)
#    0.000    1.600    4.000    1.200    7.467    0.000 
#    0.000    0.667    0.000    0.000    0.000    0.000 
#    0.000    4.267    0.000    1.600    0.000    0.000 
#
# Total GULP energy -334434.894342 kJ/mol
# GULP energy per Si atom -5573.914906 kJ/mol
# Density = 1.975435 g / cm^3
# Si number density = 19.799416 Si / 1000 Ang^3
#
#
#
# Elastic Constant Matrix: (Units=GPa)
#
#
# Indices 1 2 3 4 5 6 
#
# 1 87.6590 33.4772 39.8214 0.0000 0.0000 0.0000
# 2 33.4772 50.7439 13.7020 0.0000 0.0000 0.0000
# 3 39.8214 13.7020 112.3745 0.0000 0.0000 0.0000
# 4 0.0000 0.0000 0.0000 12.6258 0.0000 0.0000
# 5 0.0000 0.0000 0.0000 0.0000 42.7550 0.0000
# 6 0.0000 0.0000 0.0000 0.0000 0.0000 1.0249
#
#
#
# Elastic Compliance Matrix: (Units=1/GPa)
#
#
# Indices 1 2 3 4 5 6 
#
# 1 0.017589 -0.010259 -0.004982 0.000000 0.000000 0.000000
# 2 -0.010259 0.026361 0.000421 0.000000 0.000000 0.000000
# 3 -0.004982 0.000421 0.010613 0.000000 0.000000 0.000000
# 4 0.000000 0.000000 0.000000 0.079203 0.000000 0.000000
# 5 0.000000 0.000000 0.000000 0.000000 0.023389 0.000000
# 6 0.000000 0.000000 0.000000 0.000000 0.000000 0.975672
#
#
# Mechanical properties :
#
#
# Convention : Reuss Voigt Hill
#
# Bulk Modulus (GPa) = 40.12256 47.19763 43.66009
# Shear Modulus (GPa) = 4.27068 22.19961 13.23515
#
# Velocity S-wave (km/s) = 1.47026 3.35210 2.58827
# Velocity P-wave (km/s) = 4.81567 6.23472 5.57057
#
# Compressibility (1/GPa) = 0.02492363
#
# Stress axis : x y z
#
# Youngs Moduli (GPa) = 56.85436 37.93484 94.22489
#
# Poissons Ratio (x) = 0.38916 0.46943
# Poissons Ratio (y) = 0.58324 -0.03967
# Poissons Ratio (z) = 0.28325 -0.01597
#
# Static dielectric constant tensor:
#      x y z
#    x 1.734300 0.000000 0.000000 
#    y 0.000000 1.744250 0.000000 
#    z 0.000000 0.000000 1.812280 
# 
# From -- ./inp_files/2168.got.cif
#   From: 2010.05.17/outbox.cif.g08.bks.cpg/sg60_2_cif.got.tgz:2168.got - 2010.06.03 14:59:27.
