data_PCOD9454853
_publ_section_title
;
Structure prediction by ZEFSAII (Michael W. Deem and Ramdas Pophale) SiO2 
 PCOD9454853
Probable space group: P B C N
;
_chemical_formula_sum "Si O2"
_cell_formula_units_Z 40
_cell_length_a 14.106228
_cell_length_b 10.247722
_cell_length_c 12.120532
_cell_angle_alpha 90.000000
_cell_angle_beta 90.000000
_cell_angle_gamma 90.000000
_cell_volume 1752.104145
_symmetry_space_group_name_H-M "P B C N"
_symmetry_group_IT_number 60
_symmetry_cell_setting 'orthorhombic'
loop_
_space_group_symop_operation_xyz
x,y,z
1/2-x,1/2-y,1/2+z
1/2+x,1/2-y,-z
-x,y,1/2-z
-x,-y,-z
1/2+x,1/2+y,1/2-z
1/2-x,1/2+y,z
x,-y,1/2+z
loop_
_atom_site_type_symbol
_atom_site_label
_atom_site_fract_x
_atom_site_fract_y
_atom_site_fract_z
Si Si1 0.962623 0.268238 0.079153
Si Si2 0.724516 0.090188 0.245673
Si Si3 0.077332 0.995858 0.348412
Si Si4 0.449088 0.196077 0.367518
Si Si5 0.154356 0.327322 0.208003
O O1 0.064941 0.280951 0.137613
O O2 0.940233 0.114261 0.067453
O O3 0.884392 0.321386 0.165001
O O4 0.978063 0.340108 0.963810
O O5 0.819856 0.025383 0.200411
O O6 0.649948 0.123201 0.149004
O O7 0.758771 0.225586 0.300953
O O8 0.680204 0.975544 0.319227
O O9 0.000000 0.008960 0.250000
O O10 0.073967 0.848159 0.387987
O O11 0.500000 0.182883 0.250000
#
# Coordination Sequence:
#
# PCOD9454853 Si02
#       5
#     8   8   8   8   8
#     4  10  21  44  68  92 130 182 215 275 333 391
#     4  11  21  43  63 100 132 164 221 272 326 394
#     4  10  19  42  69  92 132 173 220 269 330 395
#     4  11  25  41  65 100 135 173 220 272 331 401
#     4  10  22  43  70  91 132 171 222 272 330 389
#
# _framework density 22.829692999999999
#
# number of rings (size 3 to 8) (size 9 to 14) (size 15 to 20)
#    0.000    1.600    6.000    0.600    2.800    0.800 
#   10.800    0.000    0.000    0.000    0.000    0.000 
#    0.000    0.000    0.000    0.000    0.000    0.000 
#
# Total GULP energy -223420.907143 kJ/mol
# GULP energy per Si atom -5585.522679 kJ/mol
# Density = 2.277773 g / cm^3
# Si number density = 22.829693 Si / 1000 Ang^3
#
#
#
# Elastic Constant Matrix: (Units=GPa)
#
#
# Indices 1 2 3 4 5 6 
#
# 1 78.0323 36.3561 -5.0053 0.0000 0.0000 0.0000
# 2 36.3561 124.5343 6.8616 0.0000 0.0000 0.0000
# 3 -5.0053 6.8616 44.7227 0.0000 0.0000 0.0000
# 4 0.0000 0.0000 0.0000 34.9575 0.0000 0.0000
# 5 0.0000 0.0000 0.0000 0.0000 13.6269 0.0000
# 6 0.0000 0.0000 0.0000 0.0000 0.0000 -176.5035
#
#
#
# Elastic Compliance Matrix: (Units=1/GPa)
#
#
# Indices 1 2 3 4 5 6 
#
# 1 0.015080 -0.004534 0.002383 0.000000 0.000000 0.000000
# 2 -0.004534 0.009461 -0.001959 0.000000 0.000000 0.000000
# 3 0.002383 -0.001959 0.022927 0.000000 0.000000 0.000000
# 4 0.000000 0.000000 0.000000 0.028606 0.000000 0.000000
# 5 0.000000 0.000000 0.000000 0.000000 0.073384 0.000000
# 6 0.000000 0.000000 0.000000 0.000000 0.000000 -0.005666
#
#
# Mechanical properties :
#
#
# Convention : Reuss Voigt Hill
#
# Bulk Modulus (GPa) = 25.47759 35.96826 30.72293
# Shear Modulus (GPa) = 30.28531 -11.64537 9.31997
#
# Velocity S-wave (km/s) = 3.64617 -2.26098 2.02268
# Velocity P-wave (km/s) = 5.37682 2.99553 4.35220
#
# Compressibility (1/GPa) = 0.03925018
#
# Stress axis : x y z
#
# Youngs Moduli (GPa) = 66.31097 105.69198 43.61610
#
# Poissons Ratio (x) = 0.47919 -0.10395
# Poissons Ratio (y) = 0.30064 0.08545
# Poissons Ratio (z) = -0.15805 0.20706
#
# Static dielectric constant tensor:
#      x y z
#    x 1.815130 0.000000 0.000000 
#    y 0.000000 1.943190 0.000000 
#    z 0.000000 0.000000 1.894360 
# 
# From -- ./inp_files/11680.got.cif
#   From: 2010.05.17/outbox.cif.g08.bks.cpg/sg60_6_cif.got.tgz:11680.got - 2010.06.03 14:59:27.
