data_PCOD9454170
_publ_section_title
;
Structure prediction by ZEFSAII (Michael W. Deem and Ramdas Pophale) SiO2 
 PCOD9454170
Probable space group: P B C N
;
_chemical_formula_sum "Si O2"
_cell_formula_units_Z 60
_cell_length_a 10.910855
_cell_length_b 16.536025
_cell_length_c 15.785573
_cell_angle_alpha 90.000000
_cell_angle_beta 90.000000
_cell_angle_gamma 90.000000
_cell_volume 2848.067352
_symmetry_space_group_name_H-M "P B C N"
_symmetry_group_IT_number 60
_symmetry_cell_setting 'orthorhombic'
loop_
_space_group_symop_operation_xyz
x,y,z
1/2-x,1/2-y,1/2+z
1/2+x,1/2-y,-z
-x,y,1/2-z
-x,-y,-z
1/2+x,1/2+y,1/2-z
1/2-x,1/2+y,z
x,-y,1/2+z
loop_
_atom_site_type_symbol
_atom_site_label
_atom_site_fract_x
_atom_site_fract_y
_atom_site_fract_z
Si Si1 0.275661 0.721790 0.677446
Si Si2 0.667914 0.910270 0.055089
Si Si3 0.360060 0.723078 0.916887
Si Si4 0.905073 0.395685 0.863639
Si Si5 0.500000 0.676451 0.750000
Si Si6 0.845992 0.807557 0.666475
Si Si7 0.961356 0.281022 0.417762
Si Si8 0.170042 0.555628 0.313164
O O1 0.343513 0.806998 0.652586
O O2 0.376517 0.652560 0.697927
O O3 0.194343 0.746242 0.759274
O O4 0.175691 0.697716 0.608847
O O5 0.795613 0.861272 0.058337
O O6 0.557161 0.853451 0.088298
O O7 0.677724 0.981982 0.122315
O O8 0.632506 0.926633 0.956832
O O9 0.426206 0.718048 0.826694
O O10 0.242981 0.781855 0.910907
O O11 0.455209 0.750565 0.986704
O O12 0.861215 0.453819 0.786464
O O13 0.052337 0.393918 0.849761
O O14 0.797795 0.895836 0.687495
O O15 0.983951 0.791165 0.639801
#
# Coordination Sequence:
#
# PCOD9454170 Si02
#       8
#     8   8   8   8   4   8   8   8
#     4  10  18  36  62  88 121 162 207 253 318 392
#     4  11  22  39  62  95 131 157 220 280 319 383
#     4  10  21  37  59  91 124 161 208 266 327 385
#     4  10  19  38  61  87 121 169 208 256 319 386
#     4  10  20  36  56  84 126 168 194 246 330 392
#     4   9  20  36  57  86 120 161 210 258 316 384
#     4  11  21  35  63  96 124 157 211 280 325 369
#     4  10  21  39  63  86 122 176 217 253 323 395
#
# _framework density 21.066917
#
# number of rings (size 3 to 8) (size 9 to 14) (size 15 to 20)
#    0.000    1.867    1.333    4.800    1.867    0.000 
#   14.400    2.000    5.867    0.000    0.000    0.000 
#    0.000    0.000    0.000    0.000    0.000    0.000 
#
# Total GULP energy -334054.222413 kJ/mol
# GULP energy per Si atom -5567.570374 kJ/mol
# Density = 2.101897 g / cm^3
# Si number density = 21.066917 Si / 1000 Ang^3
#
#
#
# Elastic Constant Matrix: (Units=GPa)
#
#
# Indices 1 2 3 4 5 6 
#
# 1 84.9486 0.2332 23.9059 0.0000 0.0000 0.0000
# 2 0.2332 25.8622 22.7183 0.0000 0.0000 0.0000
# 3 23.9059 22.7183 108.8407 0.0000 0.0000 0.0000
# 4 0.0000 0.0000 0.0000 -0.9612 0.0000 0.0000
# 5 0.0000 0.0000 0.0000 0.0000 29.8822 0.0000
# 6 0.0000 0.0000 0.0000 0.0000 0.0000 16.1242
#
#
#
# Elastic Compliance Matrix: (Units=1/GPa)
#
#
# Indices 1 2 3 4 5 6 
#
# 1 0.012718 0.002864 -0.003391 0.000000 0.000000 0.000000
# 2 0.002864 0.047993 -0.010647 0.000000 0.000000 0.000000
# 3 -0.003391 -0.010647 0.012155 0.000000 0.000000 0.000000
# 4 0.000000 0.000000 0.000000 -1.040317 0.000000 0.000000
# 5 0.000000 0.000000 0.000000 0.000000 0.033465 0.000000
# 6 0.000000 0.000000 0.000000 0.000000 0.000000 0.062019
#
#
# Mechanical properties :
#
#
# Convention : Reuss Voigt Hill
#
# Bulk Modulus (GPa) = 19.79453 34.81848 27.30650
# Shear Modulus (GPa) = -6.00398 20.52863 7.26232
#
# Velocity S-wave (km/s) = -1.69001 3.12500 1.85870
# Velocity P-wave (km/s) = 2.36817 5.43914 4.19479
#
# Compressibility (1/GPa) = 0.05051901
#
# Stress axis : x y z
#
# Youngs Moduli (GPa) = 78.62654 20.83634 82.27125
#
# Poissons Ratio (x) = -0.05968 0.27901
# Poissons Ratio (y) = -0.22522 0.87592
# Poissons Ratio (z) = 0.26665 0.22184
#
# Static dielectric constant tensor:
#      x y z
#    x 1.810090 0.000000 0.000000 
#    y 0.000000 1.800590 0.000000 
#    z 0.000000 0.000000 1.818200 
# 
# From -- ./inp_files/16330.got.cif
#   From: 2010.05.17/outbox.cif.g08.bks.cpg/sg60_9_cif.got.tgz:16330.got - 2010.06.03 14:59:27.
