data_PCOD9454895
_publ_section_title
;
Structure prediction by ZEFSAII (Michael W. Deem and Ramdas Pophale) SiO2 
 PCOD9454895
Probable space group: P B C N
;
_chemical_formula_sum "Si O2"
_cell_formula_units_Z 44
_cell_length_a 5.143046
_cell_length_b 20.565679
_cell_length_c 19.298649
_cell_angle_alpha 90.000000
_cell_angle_beta 90.000000
_cell_angle_gamma 90.000000
_cell_volume 2041.222604
_symmetry_space_group_name_H-M "P B C N"
_symmetry_group_IT_number 60
_symmetry_cell_setting 'orthorhombic'
loop_
_space_group_symop_operation_xyz
x,y,z
1/2-x,1/2-y,1/2+z
1/2+x,1/2-y,-z
-x,y,1/2-z
-x,-y,-z
1/2+x,1/2+y,1/2-z
1/2-x,1/2+y,z
x,-y,1/2+z
loop_
_atom_site_type_symbol
_atom_site_label
_atom_site_fract_x
_atom_site_fract_y
_atom_site_fract_z
Si Si1 0.500000 0.439481 0.250000
Si Si2 0.509489 0.764377 0.664939
Si Si3 0.483056 0.375912 0.106074
Si Si4 0.861796 0.544606 0.184851
Si Si5 0.494482 0.344941 0.666959
Si Si6 0.991179 0.455190 0.433040
O O1 0.421690 0.397691 0.184771
O O2 0.724385 0.486145 0.224432
O O3 0.500000 0.751968 0.750000
O O4 0.477802 0.701330 0.616487
O O5 0.794658 0.790841 0.648379
O O6 0.290264 0.819026 0.647267
O O7 0.250791 0.406512 0.062224
O O8 0.751555 0.411211 0.082583
O O9 0.636622 0.587263 0.147813
O O10 0.000000 0.581006 0.250000
O O11 0.038819 0.508865 0.128649
O O12 0.500000 0.348736 0.750000
O O13 0.000000 0.500000 0.500000
#
# Coordination Sequence:
#
# PCOD9454895 Si02
#       6
#     4   8   8   8   8   8
#     4  10  20  32  56  94 114 156 194 252 300 358
#     4  10  20  34  55  88 123 155 192 249 304 359
#     4  11  21  39  61  85 127 156 203 248 308 366
#     4  11  20  36  60  87 122 155 204 250 308 364
#     4  10  20  32  53  86 122 152 192 246 308 351
#     4  11  25  40  61  91 125 165 203 253 310 368
#
# _framework density 21.555709
#
# number of rings (size 3 to 8) (size 9 to 14) (size 15 to 20)
#    0.000    1.455    3.636    3.273    0.000    0.000 
#    0.000    0.000    0.000    4.364    0.000    0.000 
#    0.000    0.000    0.000    0.000    0.000    0.000 
#
# Total GULP energy -245326.162496 kJ/mol
# GULP energy per Si atom -5575.594602 kJ/mol
# Density = 2.150665 g / cm^3
# Si number density = 21.555709 Si / 1000 Ang^3
#
#
#
# Elastic Constant Matrix: (Units=GPa)
#
#
# Indices 1 2 3 4 5 6 
#
# 1 91.5284 15.7339 -6.4203 0.0000 0.0000 0.0000
# 2 15.7339 68.8420 -9.8703 0.0000 0.0000 0.0000
# 3 -6.4203 -9.8703 32.7483 0.0000 0.0000 0.0000
# 4 0.0000 0.0000 0.0000 56.0671 0.0000 0.0000
# 5 0.0000 0.0000 0.0000 0.0000 12.7067 0.0000
# 6 0.0000 0.0000 0.0000 0.0000 0.0000 26.1813
#
#
#
# Elastic Compliance Matrix: (Units=1/GPa)
#
#
# Indices 1 2 3 4 5 6 
#
# 1 0.011444 -0.002398 0.001521 0.000000 0.000000 0.000000
# 2 -0.002398 0.015684 0.004257 0.000000 0.000000 0.000000
# 3 0.001521 0.004257 0.032117 0.000000 0.000000 0.000000
# 4 0.000000 0.000000 0.000000 0.017836 0.000000 0.000000
# 5 0.000000 0.000000 0.000000 0.000000 0.078699 0.000000
# 6 0.000000 0.000000 0.000000 0.000000 0.000000 0.038195
#
#
# Mechanical properties :
#
#
# Convention : Reuss Voigt Hill
#
# Bulk Modulus (GPa) = 15.14981 21.33392 18.24186
# Shear Modulus (GPa) = 23.89864 31.90270 27.90067
#
# Velocity S-wave (km/s) = 3.33331 3.85127 3.60161
# Velocity P-wave (km/s) = 4.67527 5.44930 5.07706
#
# Compressibility (1/GPa) = 0.06600745
#
# Stress axis : x y z
#
# Youngs Moduli (GPa) = 87.37888 63.75775 31.13594
#
# Poissons Ratio (x) = 0.15286 -0.04736
# Poissons Ratio (y) = 0.20950 -0.13255
# Poissons Ratio (z) = -0.13291 -0.27143
#
# Static dielectric constant tensor:
#      x y z
#    x 1.874080 0.000000 0.000000 
#    y 0.000000 1.836580 0.000000 
#    z 0.000000 0.000000 1.717460 
# 
# From -- ./inp_files/21575.got.cif
#   From: 2010.05.17/outbox.cif.g08.bks.cpg/sg60_11_cif.got.tgz:21575.got - 2010.06.03 14:59:27.
