data_PCOD9454304
_publ_section_title
;
Structure prediction by ZEFSAII (Michael W. Deem and Ramdas Pophale) SiO2 
 PCOD9454304
Probable space group: P B C N
;
_chemical_formula_sum "Si O2"
_cell_formula_units_Z 48
_cell_length_a 21.265827
_cell_length_b 14.003558
_cell_length_c 5.840511
_cell_angle_alpha 90.000000
_cell_angle_beta 90.000000
_cell_angle_gamma 90.000000
_cell_volume 1739.288067
_symmetry_space_group_name_H-M "P B C N"
_symmetry_group_IT_number 60
_symmetry_cell_setting 'orthorhombic'
loop_
_space_group_symop_operation_xyz
x,y,z
1/2-x,1/2-y,1/2+z
1/2+x,1/2-y,-z
-x,y,1/2-z
-x,-y,-z
1/2+x,1/2+y,1/2-z
1/2-x,1/2+y,z
x,-y,1/2+z
loop_
_atom_site_type_symbol
_atom_site_label
_atom_site_fract_x
_atom_site_fract_y
_atom_site_fract_z
Si Si1 0.500000 0.555859 0.750000
Si Si2 0.823749 0.262405 0.911183
Si Si3 0.941452 0.261202 0.141105
Si Si4 0.120137 0.607299 0.476812
Si Si5 0.500000 0.894821 0.750000
Si Si6 0.735794 0.100161 0.757185
Si Si7 0.625628 0.458168 0.130122
O O1 0.500000 0.500000 0.500000
O O2 0.433850 0.610056 0.795744
O O3 0.852193 0.307800 0.682581
O O4 0.766575 0.190366 0.889466
O O5 0.878627 0.210572 0.055002
O O6 0.801148 0.353088 0.050200
O O7 0.915004 0.336335 0.323422
O O8 0.000000 0.205019 0.250000
O O9 0.970360 0.325004 0.939238
O O10 0.062398 0.552665 0.349779
O O11 0.182156 0.555084 0.578392
O O12 0.799535 0.056064 0.657730
O O13 0.617381 0.526337 0.356835
#
# Coordination Sequence:
#
# PCOD9454304 Si02
#       7
#     4   8   8   8   4   8   8
#     4   8  16  38  63  82 110 152 208 263 310 344
#     4  10  19  31  50  79 113 151 184 236 306 373
#     4   8  15  28  46  69 104 145 182 226 269 357
#     4   9  17  30  48  76 110 145 184 225 287 362
#     4   8  14  28  49  70 106 146 188 217 276 354
#     4  11  21  33  56  81 118 152 197 246 310 365
#     4  10  23  41  65  88 117 160 214 264 304 358
#
# _framework density 27.597497000000001
#
# number of rings (size 3 to 8) (size 9 to 14) (size 15 to 20)
#    0.000    2.667    1.667    0.000    2.333    0.000 
#    0.000    5.000    7.333    0.000    0.000    1.167 
#    0.000    0.000    0.000    0.000    0.000    0.000 
#
# Total GULP energy -267365.606124 kJ/mol
# GULP energy per Si atom -5570.116794 kJ/mol
# Density = 2.753468 g / cm^3
# Si number density = 27.597497 Si / 1000 Ang^3
#
#
#
# Elastic Constant Matrix: (Units=GPa)
#
#
# Indices 1 2 3 4 5 6 
#
# 1 192.8365 26.9616 66.0986 0.0000 0.0000 0.0000
# 2 26.9616 52.8181 41.1699 0.0000 0.0000 0.0000
# 3 66.0986 41.1699 150.5310 0.0000 0.0000 0.0000
# 4 0.0000 0.0000 0.0000 38.8752 0.0000 0.0000
# 5 0.0000 0.0000 0.0000 0.0000 63.0229 0.0000
# 6 0.0000 0.0000 0.0000 0.0000 0.0000 -198.9052
#
#
#
# Elastic Compliance Matrix: (Units=1/GPa)
#
#
# Indices 1 2 3 4 5 6 
#
# 1 0.006176 -0.001320 -0.002351 0.000000 0.000000 0.000000
# 2 -0.001320 0.024345 -0.006079 0.000000 0.000000 0.000000
# 3 -0.002351 -0.006079 0.009338 0.000000 0.000000 0.000000
# 4 0.000000 0.000000 0.000000 0.025723 0.000000 0.000000
# 5 0.000000 0.000000 0.000000 0.000000 0.015867 0.000000
# 6 0.000000 0.000000 0.000000 0.000000 0.000000 -0.005028
#
#
# Mechanical properties :
#
#
# Convention : Reuss Voigt Hill
#
# Bulk Modulus (GPa) = 49.11698 73.84953 61.48326
# Shear Modulus (GPa) = 48.68179 -1.93772 23.37203
#
# Velocity S-wave (km/s) = 4.20455 -0.83885 2.91329
# Velocity P-wave (km/s) = 6.43484 5.08718 5.80028
#
# Compressibility (1/GPa) = 0.02035956
#
# Stress axis : x y z
#
# Youngs Moduli (GPa) = 161.91331 41.07643 107.09056
#
# Poissons Ratio (x) = 0.05423 0.25176
# Poissons Ratio (y) = 0.21377 0.65095
# Poissons Ratio (z) = 0.38064 0.24968
#
# Static dielectric constant tensor:
#      x y z
#    x 2.209090 0.000000 0.000000 
#    y 0.000000 2.183170 0.000000 
#    z 0.000000 0.000000 2.341220 
# 
# From -- ./inp_files/2078.got.cif
#   From: 2010.05.17/outbox.cif.g08.bks.cpg/sg60_2_cif.got.tgz:2078.got - 2010.06.03 14:59:27.
