data_PCOD9454787
_publ_section_title
;
Structure prediction by ZEFSAII (Michael W. Deem and Ramdas Pophale) SiO2 
 PCOD9454787
Probable space group: P B C N
;
_chemical_formula_sum "Si O2"
_cell_formula_units_Z 56
_cell_length_a 10.175152
_cell_length_b 18.939079
_cell_length_c 13.595045
_cell_angle_alpha 90.000000
_cell_angle_beta 90.000000
_cell_angle_gamma 90.000000
_cell_volume 2619.874035
_symmetry_space_group_name_H-M "P B C N"
_symmetry_group_IT_number 60
_symmetry_cell_setting 'orthorhombic'
loop_
_space_group_symop_operation_xyz
x,y,z
1/2-x,1/2-y,1/2+z
1/2+x,1/2-y,-z
-x,y,1/2-z
-x,-y,-z
1/2+x,1/2+y,1/2-z
1/2-x,1/2+y,z
x,-y,1/2+z
loop_
_atom_site_type_symbol
_atom_site_label
_atom_site_fract_x
_atom_site_fract_y
_atom_site_fract_z
Si Si1 0.479706 0.934360 0.075298
Si Si2 0.079917 0.811243 0.605359
Si Si3 0.930923 0.010961 0.660796
Si Si4 0.669759 0.814136 0.524297
Si Si5 0.308982 0.266892 0.791899
Si Si6 0.302888 0.900139 0.261209
Si Si7 0.405957 0.412800 0.000486
O O1 0.363422 0.933519 0.160161
O O2 0.603577 0.919960 0.146198
O O3 0.444717 0.868059 0.005281
O O4 0.500000 0.000000 0.000000
O O5 0.144449 0.758836 0.528992
O O6 0.174775 0.816809 0.697873
O O7 0.945496 0.775732 0.647406
O O8 0.035966 0.881050 0.550438
O O9 0.837952 0.068753 0.710209
O O10 0.000000 0.969504 0.750000
O O11 0.043868 0.046079 0.594327
O O12 0.849332 0.963265 0.584756
O O13 0.695348 0.795042 0.637438
O O14 0.802554 0.851093 0.483532
O O15 0.299277 0.185499 0.757154
#
# Coordination Sequence:
#
# PCOD9454787 Si02
#       7
#     8   8   8   8   8   8   8
#     4  11  22  39  68  94 131 175 223 271 329 409
#     4  10  19  39  62  89 126 164 213 266 318 397
#     4  11  24  40  63  92 130 168 216 266 320 399
#     4  11  20  37  67  95 124 163 223 272 327 391
#     4  10  20  35  68  92 119 172 212 259 337 391
#     4  11  21  42  65  93 130 178 213 266 345 387
#     4  10  24  40  61  96 124 171 215 267 329 384
#
# _framework density 21.375074000000001
#
# number of rings (size 3 to 8) (size 9 to 14) (size 15 to 20)
#    0.000    1.429    2.857    3.429    4.000    1.143 
#    0.000    0.000    3.143    0.000    0.000    0.000 
#    0.000    0.000    0.000    0.000    0.000    0.000 
#
# Total GULP energy -312535.885703 kJ/mol
# GULP energy per Si atom -5580.997959 kJ/mol
# Density = 2.132642 g / cm^3
# Si number density = 21.375074 Si / 1000 Ang^3
#
#
#
# Elastic Constant Matrix: (Units=GPa)
#
#
# Indices 1 2 3 4 5 6 
#
# 1 24.7312 8.3802 26.8704 0.0000 0.0000 0.0000
# 2 8.3802 68.2998 49.0663 0.0000 0.0000 0.0000
# 3 26.8704 49.0663 141.4699 0.0000 0.0000 0.0000
# 4 0.0000 0.0000 0.0000 27.6258 0.0000 0.0000
# 5 0.0000 0.0000 0.0000 0.0000 37.2426 0.0000
# 6 0.0000 0.0000 0.0000 0.0000 0.0000 23.0664
#
#
#
# Elastic Compliance Matrix: (Units=1/GPa)
#
#
# Indices 1 2 3 4 5 6 
#
# 1 0.050994 0.000934 -0.010010 0.000000 0.000000 0.000000
# 2 0.000934 0.019517 -0.006947 0.000000 0.000000 0.000000
# 3 -0.010010 -0.006947 0.011379 0.000000 0.000000 0.000000
# 4 0.000000 0.000000 0.000000 0.036198 0.000000 0.000000
# 5 0.000000 0.000000 0.000000 0.000000 0.026851 0.000000
# 6 0.000000 0.000000 0.000000 0.000000 0.000000 0.043353
#
#
# Mechanical properties :
#
#
# Convention : Reuss Voigt Hill
#
# Bulk Modulus (GPa) = 20.06188 44.79273 32.42731
# Shear Modulus (GPa) = 21.10136 27.59920 24.35028
#
# Velocity S-wave (km/s) = 3.14537 3.59721 3.37885
# Velocity P-wave (km/s) = 4.75365 6.18500 5.51595
#
# Compressibility (1/GPa) = 0.04984577
#
# Stress axis : x y z
#
# Youngs Moduli (GPa) = 19.61028 51.23705 87.88018
#
# Poissons Ratio (x) = -0.04786 0.87964
# Poissons Ratio (y) = -0.01832 0.61047
# Poissons Ratio (z) = 0.19629 0.35592
#
# Static dielectric constant tensor:
#      x y z
#    x 1.796080 0.000000 0.000000 
#    y 0.000000 1.758620 0.000000 
#    z 0.000000 0.000000 1.900600 
# 
# From -- ./inp_files/11215.got.cif
#   From: 2010.05.17/outbox.cif.g08.bks.cpg/sg60_6_cif.got.tgz:11215.got - 2010.06.03 14:59:27.
