data_PCOD9454613
_publ_section_title
;
Structure prediction by ZEFSAII (Michael W. Deem and Ramdas Pophale) SiO2 
 PCOD9454613
Probable space group: P B C N
;
_chemical_formula_sum "Si O2"
_cell_formula_units_Z 48
_cell_length_a 17.139730
_cell_length_b 9.789900
_cell_length_c 14.847827
_cell_angle_alpha 90.000000
_cell_angle_beta 90.000000
_cell_angle_gamma 90.000000
_cell_volume 2491.409583
_symmetry_space_group_name_H-M "P B C N"
_symmetry_group_IT_number 60
_symmetry_cell_setting 'orthorhombic'
loop_
_space_group_symop_operation_xyz
x,y,z
1/2-x,1/2-y,1/2+z
1/2+x,1/2-y,-z
-x,y,1/2-z
-x,-y,-z
1/2+x,1/2+y,1/2-z
1/2-x,1/2+y,z
x,-y,1/2+z
loop_
_atom_site_type_symbol
_atom_site_label
_atom_site_fract_x
_atom_site_fract_y
_atom_site_fract_z
Si Si1 0.707610 0.887495 0.347071
Si Si2 0.169291 0.363836 0.938892
Si Si3 0.163009 0.681657 0.134858
Si Si4 0.993952 0.563853 0.101801
Si Si5 0.192862 0.678508 0.923097
Si Si6 0.927605 0.696752 0.709979
O O1 0.680857 0.867858 0.452099
O O2 0.789999 0.812945 0.329071
O O3 0.637256 0.833676 0.285278
O O4 0.710147 0.049265 0.331280
O O5 0.081007 0.339473 0.908295
O O6 0.191151 0.516306 0.904446
O O7 0.226516 0.250167 0.901522
O O8 0.071259 0.639177 0.139256
O O9 0.176352 0.691671 0.028100
O O10 0.968845 0.437646 0.165376
O O11 0.000000 0.500000 0.000000
O O12 0.123301 0.753716 0.871328
O O13 0.000000 0.779094 0.750000
#
# Coordination Sequence:
#
# PCOD9454613 Si02
#       6
#     8   8   8   8   8   8
#     4  10  20  32  54  83 113 140 184 232 288 322
#     4   9  18  34  55  77 107 143 185 226 265 335
#     4  10  19  36  55  80 112 149 184 228 274 343
#     4  11  17  34  59  81 106 144 199 223 261 341
#     4   9  19  32  54  78 108 144 180 223 276 329
#     4  11  19  31  55  84 104 139 188 233 270 320
#
# _framework density 19.266200999999999
#
# number of rings (size 3 to 8) (size 9 to 14) (size 15 to 20)
#    0.000    2.000    6.667    0.000    0.000    2.667 
#    0.000    0.000    3.667    4.000    0.000    0.000 
#    0.000    0.000    0.000    0.000    0.000    0.000 
#
# Total GULP energy -267205.631342 kJ/mol
# GULP energy per Si atom -5566.783986 kJ/mol
# Density = 1.922235 g / cm^3
# Si number density = 19.266201 Si / 1000 Ang^3
#
#
#
# Elastic Constant Matrix: (Units=GPa)
#
#
# Indices 1 2 3 4 5 6 
#
# 1 158.9110 45.7231 11.1237 0.0000 0.0000 0.0000
# 2 45.7231 39.3979 5.8067 0.0000 0.0000 0.0000
# 3 11.1237 5.8067 42.3707 0.0000 0.0000 0.0000
# 4 0.0000 0.0000 0.0000 -14.5806 0.0000 0.0000
# 5 0.0000 0.0000 0.0000 0.0000 29.7667 0.0000
# 6 0.0000 0.0000 0.0000 0.0000 0.0000 41.7710
#
#
#
# Elastic Compliance Matrix: (Units=1/GPa)
#
#
# Indices 1 2 3 4 5 6 
#
# 1 0.009489 -0.010865 -0.001002 0.000000 0.000000 0.000000
# 2 -0.010865 0.038345 -0.002403 0.000000 0.000000 0.000000
# 3 -0.001002 -0.002403 0.024194 0.000000 0.000000 0.000000
# 4 0.000000 0.000000 0.000000 -0.068584 0.000000 0.000000
# 5 0.000000 0.000000 0.000000 0.000000 0.033595 0.000000
# 6 0.000000 0.000000 0.000000 0.000000 0.000000 0.023940
#
#
# Mechanical properties :
#
#
# Convention : Reuss Voigt Hill
#
# Bulk Modulus (GPa) = 22.99454 40.66519 31.82986
# Shear Modulus (GPa) = 48.07037 23.25983 35.66510
#
# Velocity S-wave (km/s) = 5.00048 3.47837 4.30720
# Velocity P-wave (km/s) = 6.73059 6.10614 6.42595
#
# Compressibility (1/GPa) = 0.04348859
#
# Stress axis : x y z
#
# Youngs Moduli (GPa) = 105.38397 26.07876 41.33326
#
# Poissons Ratio (x) = 0.28334 0.04143
# Poissons Ratio (y) = 1.14498 0.09931
# Poissons Ratio (z) = 0.10562 0.06266
#
# Static dielectric constant tensor:
#      x y z
#    x 1.733590 0.000000 0.000000 
#    y 0.000000 1.685680 0.000000 
#    z 0.000000 0.000000 1.770930 
# 
# From -- ./inp_files/16764.got.cif
#   From: 2010.05.17/outbox.cif.g08.bks.cpg/sg60_9_cif.got.tgz:16764.got - 2010.06.03 14:59:27.
