data_PCOD9454593
_publ_section_title
;
Structure prediction by ZEFSAII (Michael W. Deem and Ramdas Pophale) SiO2 
 PCOD9454593
Probable space group: P B C N
;
_chemical_formula_sum "Si O2"
_cell_formula_units_Z 60
_cell_length_a 6.329443
_cell_length_b 16.533234
_cell_length_c 29.902346
_cell_angle_alpha 90.000000
_cell_angle_beta 90.000000
_cell_angle_gamma 90.000000
_cell_volume 3129.165750
_symmetry_space_group_name_H-M "P B C N"
_symmetry_group_IT_number 60
_symmetry_cell_setting 'orthorhombic'
loop_
_space_group_symop_operation_xyz
x,y,z
1/2-x,1/2-y,1/2+z
1/2+x,1/2-y,-z
-x,y,1/2-z
-x,-y,-z
1/2+x,1/2+y,1/2-z
1/2-x,1/2+y,z
x,-y,1/2+z
loop_
_atom_site_type_symbol
_atom_site_label
_atom_site_fract_x
_atom_site_fract_y
_atom_site_fract_z
Si Si1 0.071199 0.640829 0.966157
Si Si2 0.073455 0.977603 0.450157
Si Si3 0.245843 0.226517 0.168470
Si Si4 0.500000 0.282103 0.750000
Si Si5 0.312740 0.672787 0.588618
Si Si6 0.118166 0.883538 0.877924
Si Si7 0.379966 0.114434 0.292756
Si Si8 0.623720 0.789464 0.548494
O O1 0.192840 0.558205 0.957874
O O2 0.235576 0.715248 0.969697
O O3 0.928121 0.659072 0.923622
O O4 0.921672 0.645695 0.009747
O O5 0.940619 0.904000 0.428736
O O6 0.055313 0.049454 0.414508
O O7 0.000000 0.000000 0.500000
O O8 0.108560 0.262552 0.209070
O O9 0.332446 0.300053 0.139319
O O10 0.439935 0.173177 0.186793
O O11 0.082826 0.167018 0.141384
O O12 0.312218 0.336533 0.770132
O O13 0.402700 0.750436 0.562595
O O14 0.258342 0.920583 0.836813
O O15 0.265041 0.824433 0.907606
O O16 0.500000 0.071794 0.250000
#
# Coordination Sequence:
#
# PCOD9454593 Si02
#       8
#     8   8   8   4   8   8   8   8
#     4  11  23  39  57  83 121 156 207 257 301 357
#     4  11  28  40  52  88 130 167 207 251 313 372
#     4  10  19  35  63  92 115 151 203 252 311 364
#     4   8  18  32  56 100 120 136 190 266 304 368
#     4  11  22  38  59  85 115 162 205 254 306 364
#     4  11  22  37  58  90 119 156 208 252 302 376
#     4   9  18  35  61  95 117 147 195 257 309 360
#     4  11  21  34  60  85 111 159 207 252 297 359
#
# _framework density 19.174439
#
# number of rings (size 3 to 8) (size 9 to 14) (size 15 to 20)
#    0.000    1.600    4.000    0.800    3.733    3.200 
#    0.000    0.000    0.000    0.000   74.533    0.000 
#    0.000    0.000    0.000    0.000    0.000    0.000 
#
# Total GULP energy -334169.156646 kJ/mol
# GULP energy per Si atom -5569.485944 kJ/mol
# Density = 1.913080 g / cm^3
# Si number density = 19.174439 Si / 1000 Ang^3
#
#
#
# Elastic Constant Matrix: (Units=GPa)
#
#
# Indices 1 2 3 4 5 6 
#
# 1 72.3214 15.7921 22.9802 0.0000 0.0000 0.0000
# 2 15.7921 54.8224 36.1809 0.0000 0.0000 0.0000
# 3 22.9802 36.1809 130.1340 0.0000 0.0000 0.0000
# 4 0.0000 0.0000 0.0000 18.3209 0.0000 0.0000
# 5 0.0000 0.0000 0.0000 0.0000 48.4163 0.0000
# 6 0.0000 0.0000 0.0000 0.0000 0.0000 21.5298
#
#
#
# Elastic Compliance Matrix: (Units=1/GPa)
#
#
# Indices 1 2 3 4 5 6 
#
# 1 0.015086 -0.003169 -0.001783 0.000000 0.000000 0.000000
# 2 -0.003169 0.023005 -0.005837 0.000000 0.000000 0.000000
# 3 -0.001783 -0.005837 0.009622 0.000000 0.000000 0.000000
# 4 0.000000 0.000000 0.000000 0.054583 0.000000 0.000000
# 5 0.000000 0.000000 0.000000 0.000000 0.020654 0.000000
# 6 0.000000 0.000000 0.000000 0.000000 0.000000 0.046447
#
#
# Mechanical properties :
#
#
# Convention : Reuss Voigt Hill
#
# Bulk Modulus (GPa) = 38.26093 45.24270 41.75181
# Shear Modulus (GPa) = 25.03932 29.80836 27.42384
#
# Velocity S-wave (km/s) = 3.61760 3.94710 3.78594
# Velocity P-wave (km/s) = 6.11938 6.66479 6.39790
#
# Compressibility (1/GPa) = 0.02613633
#
# Stress axis : x y z
#
# Youngs Moduli (GPa) = 66.28818 43.46787 103.92888
#
# Poissons Ratio (x) = 0.13774 0.18530
# Poissons Ratio (y) = 0.21006 0.60659
# Poissons Ratio (z) = 0.11819 0.25370
#
# Static dielectric constant tensor:
#      x y z
#    x 1.700040 0.000000 0.000000 
#    y 0.000000 1.659270 0.000000 
#    z 0.000000 0.000000 1.740160 
# 
# From -- ./inp_files/25774.got.cif
#   From: 2010.05.17/outbox.cif.g08.bks.cpg/sg60_13_cif.got.tgz:25774.got - 2010.06.03 14:59:27.
