data_PCOD9454718
_publ_section_title
;
Structure prediction by ZEFSAII (Michael W. Deem and Ramdas Pophale) SiO2 
 PCOD9454718
Probable space group: P B C N
;
_chemical_formula_sum "Si O2"
_cell_formula_units_Z 48
_cell_length_a 11.331119
_cell_length_b 13.977692
_cell_length_c 11.703752
_cell_angle_alpha 90.000000
_cell_angle_beta 90.000000
_cell_angle_gamma 90.000000
_cell_volume 1853.674082
_symmetry_space_group_name_H-M "P B C N"
_symmetry_group_IT_number 60
_symmetry_cell_setting 'orthorhombic'
loop_
_space_group_symop_operation_xyz
x,y,z
1/2-x,1/2-y,1/2+z
1/2+x,1/2-y,-z
-x,y,1/2-z
-x,-y,-z
1/2+x,1/2+y,1/2-z
1/2-x,1/2+y,z
x,-y,1/2+z
loop_
_atom_site_type_symbol
_atom_site_label
_atom_site_fract_x
_atom_site_fract_y
_atom_site_fract_z
Si Si1 0.253455 0.421104 0.465037
Si Si2 0.130724 0.631384 0.745808
Si Si3 0.500000 0.500000 0.000000
Si Si4 0.500000 0.512494 0.250000
Si Si5 0.203257 0.834497 0.786342
Si Si6 0.925466 0.362192 0.861864
Si Si7 0.351173 0.796473 0.991616
O O1 0.215033 0.426120 0.331755
O O2 0.358154 0.487657 0.505111
O O3 0.138348 0.431836 0.546704
O O4 0.307002 0.313301 0.486166
O O5 0.129364 0.737629 0.801281
O O6 0.157914 0.655096 0.614811
O O7 0.000000 0.591346 0.750000
O O8 0.502597 0.457061 0.132468
O O9 0.387868 0.584732 0.250055
O O10 0.310985 0.815237 0.699154
O O11 0.268159 0.853565 0.904638
O O12 0.000000 0.393232 0.750000
O O13 0.016329 0.301678 0.939466
#
# Coordination Sequence:
#
# PCOD9454718 Si02
#       7
#     8   8   4   4   8   8   8
#     4  11  23  40  62 100 146 182 233 276 350 429
#     4  11  19  33  62 101 136 164 218 298 359 404
#     4  12  28  46  64  94 140 200 242 278 328 430
#     4  12  24  46  70  92 134 190 238 282 346 420
#     4  10  21  38  64  93 134 178 219 277 365 425
#     4  10  19  37  63  97 132 172 218 278 354 422
#     4  10  21  36  66 106 136 170 214 294 370 411
#
# _framework density 25.894521000000001
#
# number of rings (size 3 to 8) (size 9 to 14) (size 15 to 20)
#    0.000    1.333    5.833    0.000    0.000    1.333 
#    7.500    0.000    0.000    7.000    0.000    0.000 
#    2.500    0.000    0.000    0.000    0.000    0.000 
#
# Total GULP energy -267305.582133 kJ/mol
# GULP energy per Si atom -5568.866294 kJ/mol
# Density = 2.583558 g / cm^3
# Si number density = 25.894521 Si / 1000 Ang^3
#
#
#
# Elastic Constant Matrix: (Units=GPa)
#
#
# Indices 1 2 3 4 5 6 
#
# 1 188.7579 38.5818 62.8932 0.0000 0.0000 0.0000
# 2 38.5818 54.8792 -4.0399 0.0000 0.0000 0.0000
# 3 62.8932 -4.0399 216.2193 0.0000 0.0000 0.0000
# 4 0.0000 0.0000 0.0000 -6.5393 0.0000 0.0000
# 5 0.0000 0.0000 0.0000 0.0000 53.8449 0.0000
# 6 0.0000 0.0000 0.0000 0.0000 0.0000 16.5467
#
#
#
# Elastic Compliance Matrix: (Units=1/GPa)
#
#
# Indices 1 2 3 4 5 6 
#
# 1 0.007061 -0.005122 -0.002150 0.000000 0.000000 0.000000
# 2 -0.005122 0.021963 0.001900 0.000000 0.000000 0.000000
# 3 -0.002150 0.001900 0.005286 0.000000 0.000000 0.000000
# 4 0.000000 0.000000 0.000000 -0.152921 0.000000 0.000000
# 5 0.000000 0.000000 0.000000 0.000000 0.018572 0.000000
# 6 0.000000 0.000000 0.000000 0.000000 0.000000 0.060435
#
#
# Mechanical properties :
#
#
# Convention : Reuss Voigt Hill
#
# Bulk Modulus (GPa) = 42.43327 72.74742 57.59034
# Shear Modulus (GPa) = -238.02970 36.93187 -100.54892
#
# Velocity S-wave (km/s) = -9.59804 3.78066 -6.23815
# Velocity P-wave (km/s) = 10.31539 6.87114 5.44034
#
# Compressibility (1/GPa) = 0.02356641
#
# Stress axis : x y z
#
# Youngs Moduli (GPa) = 141.62239 45.53125 189.18936
#
# Poissons Ratio (x) = 0.23323 0.40668
# Poissons Ratio (y) = 0.72544 -0.35952
# Poissons Ratio (z) = 0.30443 -0.08652
#
# Static dielectric constant tensor:
#      x y z
#    x 2.023160 0.000000 0.000000 
#    y 0.000000 2.032300 0.000000 
#    z 0.000000 0.000000 1.943070 
# 
# From -- ./inp_files/11062.got.cif
#   From: 2010.05.17/outbox.cif.g08.bks.cpg/sg60_6_cif.got.tgz:11062.got - 2010.06.03 14:59:27.
