data_PCOD9454843
_publ_section_title
;
Structure prediction by ZEFSAII (Michael W. Deem and Ramdas Pophale) SiO2 
 PCOD9454843
Probable space group: P B C N
;
_chemical_formula_sum "Si O2"
_cell_formula_units_Z 48
_cell_length_a 5.773257
_cell_length_b 27.697378
_cell_length_c 13.160897
_cell_angle_alpha 90.000000
_cell_angle_beta 90.000000
_cell_angle_gamma 90.000000
_cell_volume 2104.481145
_symmetry_space_group_name_H-M "P B C N"
_symmetry_group_IT_number 60
_symmetry_cell_setting 'orthorhombic'
loop_
_space_group_symop_operation_xyz
x,y,z
1/2-x,1/2-y,1/2+z
1/2+x,1/2-y,-z
-x,y,1/2-z
-x,-y,-z
1/2+x,1/2+y,1/2-z
1/2-x,1/2+y,z
x,-y,1/2+z
loop_
_atom_site_type_symbol
_atom_site_label
_atom_site_fract_x
_atom_site_fract_y
_atom_site_fract_z
Si Si1 0.072765 0.555071 0.505576
Si Si2 0.395962 0.298105 0.097732
Si Si3 0.345629 0.390037 0.840971
Si Si4 0.389781 0.800553 0.891982
Si Si5 0.751622 0.393144 0.305184
Si Si6 0.231099 0.135556 0.996874
O O1 0.166722 0.573846 0.395742
O O2 0.246916 0.571925 0.595010
O O3 0.000000 0.500000 0.500000
O O4 0.847011 0.586112 0.534043
O O5 0.475173 0.247102 0.141325
O O6 0.238360 0.336754 0.156929
O O7 0.286233 0.287658 0.985602
O O8 0.629916 0.329465 0.087369
O O9 0.500000 0.410141 0.750000
O O10 0.233867 0.337564 0.813998
O O11 0.522430 0.376545 0.929409
O O12 0.576655 0.834785 0.944287
O O13 0.500000 0.400070 0.250000
O O14 0.000000 0.402542 0.250000
#
# Coordination Sequence:
#
# PCOD9454843 Si02
#       6
#     8   8   8   8   8   8
#     4  11  25  48  75 104 140 196 249 313 388 458
#     4  11  20  39  66 102 138 200 234 299 364 458
#     4  10  23  45  70 101 144 188 246 321 376 447
#     4  10  20  35  70  97 141 192 248 282 374 447
#     4  12  27  49  74 109 157 197 251 318 384 454
#     4  10  19  41  68  92 145 179 241 298 379 428
#
# _framework density 22.808474
#
# number of rings (size 3 to 8) (size 9 to 14) (size 15 to 20)
#    0.000    1.333    6.667    1.000    0.000    3.333 
#    6.000    0.000    0.000    0.000    0.000    0.000 
#    0.000    0.000    0.000    0.000    0.000    0.000 
#
# Total GULP energy -267768.192088 kJ/mol
# GULP energy per Si atom -5578.504002 kJ/mol
# Density = 2.275656 g / cm^3
# Si number density = 22.808474 Si / 1000 Ang^3
#
#
#
# Elastic Constant Matrix: (Units=GPa)
#
#
# Indices 1 2 3 4 5 6 
#
# 1 79.4318 35.7849 12.9440 0.0000 0.0000 0.0000
# 2 35.7849 178.2467 38.5629 0.0000 0.0000 0.0000
# 3 12.9440 38.5629 77.4577 0.0000 0.0000 0.0000
# 4 0.0000 0.0000 0.0000 12.3470 0.0000 0.0000
# 5 0.0000 0.0000 0.0000 0.0000 44.0647 0.0000
# 6 0.0000 0.0000 0.0000 0.0000 0.0000 -59.4120
#
#
#
# Elastic Compliance Matrix: (Units=1/GPa)
#
#
# Indices 1 2 3 4 5 6 
#
# 1 0.013917 -0.002567 -0.001047 0.000000 0.000000 0.000000
# 2 -0.002567 0.006761 -0.002937 0.000000 0.000000 0.000000
# 3 -0.001047 -0.002937 0.014548 0.000000 0.000000 0.000000
# 4 0.000000 0.000000 0.000000 0.080991 0.000000 0.000000
# 5 0.000000 0.000000 0.000000 0.000000 0.022694 0.000000
# 6 0.000000 0.000000 0.000000 0.000000 0.000000 -0.016832
#
#
# Mechanical properties :
#
#
# Convention : Reuss Voigt Hill
#
# Bulk Modulus (GPa) = 45.20450 56.63554 50.92002
# Shear Modulus (GPa) = 35.07380 15.92289 25.49834
#
# Velocity S-wave (km/s) = 3.92567 2.64505 3.34718
# Velocity P-wave (km/s) = 6.35689 5.84921 6.10833
#
# Compressibility (1/GPa) = 0.02212169
#
# Stress axis : x y z
#
# Youngs Moduli (GPa) = 71.85600 147.90654 68.74015
#
# Poissons Ratio (x) = 0.37972 0.07200
# Poissons Ratio (y) = 0.18448 0.20189
# Poissons Ratio (z) = 0.07527 0.43440
#
# Static dielectric constant tensor:
#      x y z
#    x 1.914960 0.000000 0.000000 
#    y 0.000000 1.813730 0.000000 
#    z 0.000000 0.000000 1.904290 
# 
# From -- ./inp_files/13919.got.cif
#   From: 2010.05.17/outbox.cif.g08.bks.cpg/sg60_7_cif.got.tgz:13919.got - 2010.06.03 14:59:27.
