data_PCOD9454888
_publ_section_title
;
Structure prediction by ZEFSAII (Michael W. Deem and Ramdas Pophale) SiO2 
 PCOD9454888
Probable space group: P B C N
;
_chemical_formula_sum "Si O2"
_cell_formula_units_Z 64
_cell_length_a 16.603020
_cell_length_b 10.428309
_cell_length_c 22.199514
_cell_angle_alpha 90.000000
_cell_angle_beta 90.000000
_cell_angle_gamma 90.000000
_cell_volume 3843.655441
_symmetry_space_group_name_H-M "P B C N"
_symmetry_group_IT_number 60
_symmetry_cell_setting 'orthorhombic'
loop_
_space_group_symop_operation_xyz
x,y,z
1/2-x,1/2-y,1/2+z
1/2+x,1/2-y,-z
-x,y,1/2-z
-x,-y,-z
1/2+x,1/2+y,1/2-z
1/2-x,1/2+y,z
x,-y,1/2+z
loop_
_atom_site_type_symbol
_atom_site_label
_atom_site_fract_x
_atom_site_fract_y
_atom_site_fract_z
Si Si1 0.425115 0.132847 0.941283
Si Si2 0.320108 0.209314 0.621070
Si Si3 0.103449 0.631736 0.497133
Si Si4 0.486885 0.518727 0.681902
Si Si5 0.611855 0.610944 0.997637
Si Si6 0.188366 0.988984 0.123775
Si Si7 0.996649 0.282969 0.320800
Si Si8 0.561996 0.624293 0.569062
O O1 0.513917 0.131359 0.972734
O O2 0.445104 0.149186 0.870088
O O3 0.377383 0.253835 0.969117
O O4 0.383949 0.002433 0.963652
O O5 0.339023 0.166876 0.552483
O O6 0.292199 0.358624 0.621856
O O7 0.257467 0.106055 0.646927
O O8 0.405023 0.200994 0.656011
O O9 0.104619 0.745621 0.449093
O O10 0.500000 0.556704 0.750000
O O11 0.393774 0.523683 0.661900
O O12 0.513320 0.369967 0.674707
O O13 0.538032 0.606693 0.637611
O O14 0.667131 0.565418 0.942708
O O15 0.522535 0.619340 0.967822
O O16 0.610798 0.498085 0.046154
O O17 0.000000 0.319764 0.250000
#
# Coordination Sequence:
#
# PCOD9454888 Si02
#       8
#     8   8   8   8   8   8   8   8
#     4   9  16  27  47  75  96 122 157 200 251 290
#     4  10  20  33  50  74 102 132 165 207 259 312
#     4   9  17  28  45  70 102 123 150 201 253 297
#     4   9  17  31  53  77  96 130 183 217 241 293
#     4   9  15  26  47  70  93 121 155 194 245 296
#     4  10  20  32  50  74 102 132 163 209 262 309
#     4   9  17  32  53  76  99 132 178 214 245 296
#     4   9  14  27  47  70  95 118 152 206 247 278
#
# _framework density 16.650817
#
# number of rings (size 3 to 8) (size 9 to 14) (size 15 to 20)
#    0.000    2.750    2.500    0.000    1.750    0.000 
#    2.250    0.625    0.000    3.000    0.000    0.000 
#    0.000    0.000    0.000    0.000    0.000    0.000 
#
# Total GULP energy -356270.612949 kJ/mol
# GULP energy per Si atom -5566.728327 kJ/mol
# Density = 1.661292 g / cm^3
# Si number density = 16.650817 Si / 1000 Ang^3
#
#
#
# Elastic Constant Matrix: (Units=GPa)
#
#
# Indices 1 2 3 4 5 6 
#
# 1 22.3099 24.7817 17.2719 0.0000 0.0000 0.0000
# 2 24.7817 128.6907 58.4804 0.0000 0.0000 0.0000
# 3 17.2719 58.4804 128.9173 0.0000 0.0000 0.0000
# 4 0.0000 0.0000 0.0000 19.6166 0.0000 0.0000
# 5 0.0000 0.0000 0.0000 0.0000 4.6029 0.0000
# 6 0.0000 0.0000 0.0000 0.0000 0.0000 20.4786
#
#
#
# Elastic Compliance Matrix: (Units=1/GPa)
#
#
# Indices 1 2 3 4 5 6 
#
# 1 0.058191 -0.009653 -0.003418 0.000000 0.000000 0.000000
# 2 -0.009653 0.011390 -0.003873 0.000000 0.000000 0.000000
# 3 -0.003418 -0.003873 0.009972 0.000000 0.000000 0.000000
# 4 0.000000 0.000000 0.000000 0.050977 0.000000 0.000000
# 5 0.000000 0.000000 0.000000 0.000000 0.217254 0.000000
# 6 0.000000 0.000000 0.000000 0.000000 0.000000 0.048831
#
#
# Mechanical properties :
#
#
# Convention : Reuss Voigt Hill
#
# Bulk Modulus (GPa) = 21.89847 53.44290 37.67068
# Shear Modulus (GPa) = 11.21769 20.89853 16.05811
#
# Velocity S-wave (km/s) = 2.59839 3.54659 3.10885
# Velocity P-wave (km/s) = 4.70981 6.99550 5.96319
#
# Compressibility (1/GPa) = 0.04566530
#
# Stress axis : x y z
#
# Youngs Moduli (GPa) = 17.18474 87.79988 100.28236
#
# Poissons Ratio (x) = 0.84751 0.34272
# Poissons Ratio (y) = 0.16588 0.38843
# Poissons Ratio (z) = 0.05873 0.34008
#
# Static dielectric constant tensor:
#      x y z
#    x 1.585250 0.000000 0.000000 
#    y 0.000000 1.566950 0.000000 
#    z 0.000000 0.000000 1.548220 
# 
# From -- ./inp_files/23221.got.cif
#   From: 2010.05.17/outbox.cif.g08.bks.cpg/sg60_12_cif.got.tgz:23221.got - 2010.06.03 14:59:27.
