data_PCOD9454583
_publ_section_title
;
Structure prediction by ZEFSAII (Michael W. Deem and Ramdas Pophale) SiO2 
 PCOD9454583
Probable space group: P B C N
;
_chemical_formula_sum "Si O2"
_cell_formula_units_Z 60
_cell_length_a 11.370772
_cell_length_b 23.325204
_cell_length_c 12.782846
_cell_angle_alpha 90.000000
_cell_angle_beta 90.000000
_cell_angle_gamma 90.000000
_cell_volume 3390.337700
_symmetry_space_group_name_H-M "P B C N"
_symmetry_group_IT_number 60
_symmetry_cell_setting 'orthorhombic'
loop_
_space_group_symop_operation_xyz
x,y,z
1/2-x,1/2-y,1/2+z
1/2+x,1/2-y,-z
-x,y,1/2-z
-x,-y,-z
1/2+x,1/2+y,1/2-z
1/2-x,1/2+y,z
x,-y,1/2+z
loop_
_atom_site_type_symbol
_atom_site_label
_atom_site_fract_x
_atom_site_fract_y
_atom_site_fract_z
Si Si1 0.252162 0.393048 0.687592
Si Si2 0.408854 0.993512 0.654614
Si Si3 0.353865 0.825772 0.877044
Si Si4 0.703191 0.156617 0.543717
Si Si5 0.988849 0.410380 0.475827
Si Si6 0.000000 0.157826 0.250000
Si Si7 0.439395 0.696175 0.856892
Si Si8 0.605961 0.714421 0.050392
O O1 0.209882 0.459111 0.682933
O O2 0.166913 0.362261 0.771973
O O3 0.234283 0.363591 0.574287
O O4 0.385246 0.380247 0.723758
O O5 0.500000 0.996353 0.750000
O O6 0.468511 0.953383 0.566453
O O7 0.401606 0.055741 0.600692
O O8 0.400423 0.762932 0.847927
O O9 0.227958 0.818441 0.932426
O O10 0.434863 0.857662 0.960395
O O11 0.605202 0.111939 0.583391
O O12 0.822359 0.161865 0.610056
O O13 0.642833 0.219171 0.542672
O O14 0.029052 0.198609 0.348143
O O15 0.500000 0.677313 0.750000
O O16 0.533759 0.694918 0.949922
#
# Coordination Sequence:
#
# PCOD9454583 Si02
#       8
#     8   8   8   8   8   4   8   8
#     4  10  19  35  62  81 110 149 200 242 286 340
#     4  10  20  35  58  82 108 143 188 244 297 340
#     4  10  20  33  59  84 109 156 194 234 281 346
#     4  10  20  35  54  84 118 153 186 233 290 344
#     4  10  20  36  56  84 113 140 188 245 288 340
#     4  10  20  36  58  84 114 150 198 248 280 334
#     4  11  21  35  55  82 120 161 193 226 278 355
#     4  10  20  35  54  84 116 151 196 230 281 352
#
# _framework density 17.697351999999999
#
# number of rings (size 3 to 8) (size 9 to 14) (size 15 to 20)
#    0.000    1.867    4.000    0.800    1.867    0.000 
#    3.600    0.000    0.000    4.800    0.000    0.000 
#    0.000    0.000    0.000    0.000    0.000    0.000 
#
# Total GULP energy -334548.289455 kJ/mol
# GULP energy per Si atom -5575.804824 kJ/mol
# Density = 1.765707 g / cm^3
# Si number density = 17.697352 Si / 1000 Ang^3
#
#
#
# Elastic Constant Matrix: (Units=GPa)
#
#
# Indices 1 2 3 4 5 6 
#
# 1 79.1895 21.1987 53.7460 0.0000 0.0000 0.0000
# 2 21.1987 43.8675 29.4959 0.0000 0.0000 0.0000
# 3 53.7460 29.4959 99.2922 0.0000 0.0000 0.0000
# 4 0.0000 0.0000 0.0000 16.6611 0.0000 0.0000
# 5 0.0000 0.0000 0.0000 0.0000 24.1196 0.0000
# 6 0.0000 0.0000 0.0000 0.0000 0.0000 23.5207
#
#
#
# Elastic Compliance Matrix: (Units=1/GPa)
#
#
# Indices 1 2 3 4 5 6 
#
# 1 0.020277 -0.003022 -0.010078 0.000000 0.000000 0.000000
# 2 -0.003022 0.028936 -0.006960 0.000000 0.000000 0.000000
# 3 -0.010078 -0.006960 0.017594 0.000000 0.000000 0.000000
# 4 0.000000 0.000000 0.000000 0.060020 0.000000 0.000000
# 5 0.000000 0.000000 0.000000 0.000000 0.041460 0.000000
# 6 0.000000 0.000000 0.000000 0.000000 0.000000 0.042516
#
#
# Mechanical properties :
#
#
# Convention : Reuss Voigt Hill
#
# Bulk Modulus (GPa) = 37.47188 47.91450 42.69319
# Shear Modulus (GPa) = 19.24419 20.72084 19.98251
#
# Velocity S-wave (km/s) = 3.30116 3.42547 3.36389
# Velocity P-wave (km/s) = 5.97912 6.54051 6.26611
#
# Compressibility (1/GPa) = 0.02668668
#
# Stress axis : x y z
#
# Youngs Moduli (GPa) = 49.31718 34.55878 56.83807
#
# Poissons Ratio (x) = 0.10445 0.57281
# Poissons Ratio (y) = 0.14906 0.39558
# Poissons Ratio (z) = 0.49701 0.24052
#
# Static dielectric constant tensor:
#      x y z
#    x 1.614770 0.000000 0.000000 
#    y 0.000000 1.609020 0.000000 
#    z 0.000000 0.000000 1.603620 
# 
# From -- ./inp_files/11255.got.cif
#   From: 2010.05.17/outbox.cif.g08.bks.cpg/sg60_6_cif.got.tgz:11255.got - 2010.06.03 14:59:27.
