data_PCOD9454506
_publ_section_title
;
Structure prediction by ZEFSAII (Michael W. Deem and Ramdas Pophale) SiO2 
 PCOD9454506
Probable space group: P B C N
;
_chemical_formula_sum "Si O2"
_cell_formula_units_Z 44
_cell_length_a 12.421288
_cell_length_b 17.019669
_cell_length_c 10.017220
_cell_angle_alpha 90.000000
_cell_angle_beta 90.000000
_cell_angle_gamma 90.000000
_cell_volume 2117.702518
_symmetry_space_group_name_H-M "P B C N"
_symmetry_group_IT_number 60
_symmetry_cell_setting 'orthorhombic'
loop_
_space_group_symop_operation_xyz
x,y,z
1/2-x,1/2-y,1/2+z
1/2+x,1/2-y,-z
-x,y,1/2-z
-x,-y,-z
1/2+x,1/2+y,1/2-z
1/2-x,1/2+y,z
x,-y,1/2+z
loop_
_atom_site_type_symbol
_atom_site_label
_atom_site_fract_x
_atom_site_fract_y
_atom_site_fract_z
Si Si1 0.500000 0.239618 0.250000
Si Si2 0.000000 0.522331 0.750000
Si Si3 0.303774 0.103896 0.893290
Si Si4 0.344794 0.114655 0.182294
Si Si5 0.314875 0.560819 0.396022
Si Si6 0.000000 0.003659 0.250000
Si Si7 0.348634 0.364876 0.156252
O O1 0.404584 0.177944 0.276436
O O2 0.441722 0.299452 0.149458
O O3 0.918284 0.575285 0.665144
O O4 0.922187 0.462053 0.830523
O O5 0.234433 0.147545 0.778716
O O6 0.237252 0.023995 0.926995
O O7 0.321340 0.146082 0.034471
O O8 0.239424 0.088927 0.259643
O O9 0.441054 0.552587 0.364589
O O10 0.292050 0.619623 0.516493
O O11 0.909688 0.946412 0.310541
#
# Coordination Sequence:
#
# PCOD9454506 Si02
#       7
#     4   4   8   8   8   4   8
#     4  10  24  40  52  72 108 154 184 214 268 322
#     4   9  18  33  58  87 112 137 174 226 282 323
#     4  10  19  34  58  87 110 138 180 230 278 321
#     4  10  21  36  56  79 112 145 180 224 270 329
#     4  10  19  34  58  87 110 138 180 230 278 321
#     4   9  18  33  58  87 112 137 174 226 282 323
#     4  10  21  36  56  79 112 145 180 224 270 329
#
# _framework density 20.777232999999999
#
# number of rings (size 3 to 8) (size 9 to 14) (size 15 to 20)
#    0.000    2.182    0.000    4.364    0.000    7.273 
#    0.000    0.000    0.000    4.364    0.000    0.000 
#    0.000    0.000    0.000    0.000    0.000    0.000 
#
# Total GULP energy -245155.003357 kJ/mol
# GULP energy per Si atom -5571.704622 kJ/mol
# Density = 2.072994 g / cm^3
# Si number density = 20.777233 Si / 1000 Ang^3
#
#
#
# Elastic Constant Matrix: (Units=GPa)
#
#
# Indices 1 2 3 4 5 6 
#
# 1 83.6750 12.9930 41.0132 0.0000 0.0000 0.0000
# 2 12.9930 47.4402 9.7803 0.0000 0.0000 0.0000
# 3 41.0132 9.7803 103.8077 0.0000 0.0000 0.0000
# 4 0.0000 0.0000 0.0000 6.0217 0.0000 0.0000
# 5 0.0000 0.0000 0.0000 0.0000 19.1455 0.0000
# 6 0.0000 0.0000 0.0000 0.0000 0.0000 21.4711
#
#
#
# Elastic Compliance Matrix: (Units=1/GPa)
#
#
# Indices 1 2 3 4 5 6 
#
# 1 0.015225 -0.002988 -0.005734 0.000000 0.000000 0.000000
# 2 -0.002988 0.022083 -0.000900 0.000000 0.000000 0.000000
# 3 -0.005734 -0.000900 0.011983 0.000000 0.000000 0.000000
# 4 0.000000 0.000000 0.000000 0.166067 0.000000 0.000000
# 5 0.000000 0.000000 0.000000 0.000000 0.052232 0.000000
# 6 0.000000 0.000000 0.000000 0.000000 0.000000 0.046574
#
#
# Mechanical properties :
#
#
# Convention : Reuss Voigt Hill
#
# Bulk Modulus (GPa) = 33.27987 40.27731 36.77859
# Shear Modulus (GPa) = 14.55925 20.73675 17.64800
#
# Velocity S-wave (km/s) = 2.65000 3.16262 2.91759
# Velocity P-wave (km/s) = 5.04139 5.72395 5.39348
#
# Compressibility (1/GPa) = 0.03004820
#
# Stress axis : x y z
#
# Youngs Moduli (GPa) = 65.67973 45.28358 83.44882
#
# Poissons Ratio (x) = 0.13530 0.47849
# Poissons Ratio (y) = 0.19624 0.07511
# Poissons Ratio (z) = 0.37660 0.04076
#
# Static dielectric constant tensor:
#      x y z
#    x 1.742620 0.000000 0.000000 
#    y 0.000000 1.767640 0.000000 
#    z 0.000000 0.000000 1.812910 
# 
# From -- ./inp_files/5870.got.cif
#   From: 2010.05.17/outbox.cif.g08.bks.cpg/sg60_3_cif.got.tgz:5870.got - 2010.06.03 14:59:27.
