data_PCOD9454072
_publ_section_title
;
Structure prediction by ZEFSAII (Michael W. Deem and Ramdas Pophale) SiO2 
 PCOD9454072
Probable space group: P B C N
;
_chemical_formula_sum "Si O2"
_cell_formula_units_Z 52
_cell_length_a 18.304116
_cell_length_b 11.878475
_cell_length_c 11.422267
_cell_angle_alpha 90.000000
_cell_angle_beta 90.000000
_cell_angle_gamma 90.000000
_cell_volume 2483.486223
_symmetry_space_group_name_H-M "P B C N"
_symmetry_group_IT_number 60
_symmetry_cell_setting 'orthorhombic'
loop_
_space_group_symop_operation_xyz
x,y,z
1/2-x,1/2-y,1/2+z
1/2+x,1/2-y,-z
-x,y,1/2-z
-x,-y,-z
1/2+x,1/2+y,1/2-z
1/2-x,1/2+y,z
x,-y,1/2+z
loop_
_atom_site_type_symbol
_atom_site_label
_atom_site_fract_x
_atom_site_fract_y
_atom_site_fract_z
Si Si1 0.571642 0.621179 0.072900
Si Si2 0.000000 0.978176 0.250000
Si Si3 0.152986 0.768941 0.722826
Si Si4 0.322470 0.584087 0.004339
Si Si5 0.803759 0.293895 0.654155
Si Si6 0.616448 0.690871 0.837013
Si Si7 0.275613 0.907683 0.087253
O O1 0.506917 0.550756 0.131895
O O2 0.595279 0.703168 0.177984
O O3 0.630319 0.521921 0.040711
O O4 0.568350 0.694874 0.955159
O O5 0.927595 0.903462 0.264301
O O6 0.140130 0.840177 0.604628
O O7 0.227483 0.813985 0.782134
O O8 0.168462 0.640633 0.683031
O O9 0.250219 0.534264 0.067288
O O10 0.302893 0.666796 0.898706
O O11 0.868658 0.293733 0.749038
O O12 0.805405 0.369629 0.539208
O O13 0.698699 0.655391 0.877854
#
# Coordination Sequence:
#
# PCOD9454072 Si02
#       7
#     8   4   8   8   8   8   8
#     4  11  20  35  50  74 112 154 184 223 272 345
#     4  12  22  34  52  78 118 158 194 212 280 374
#     4  10  20  31  50  75 107 146 188 234 278 338
#     4  10  19  32  51  75 106 150 183 224 289 328
#     4  10  18  34  52  75 108 147 186 236 279 338
#     4  10  20  32  49  75 105 148 188 226 273 328
#     4   9  19  33  53  74 106 146 187 235 282 337
#
# _framework density 20.938306999999998
#
# number of rings (size 3 to 8) (size 9 to 14) (size 15 to 20)
#    0.000    1.846    4.615    2.308    2.154    0.000 
#    0.000    0.000    0.000    0.000    0.000    0.000 
#    0.000   32.000    0.000    0.000    0.000    0.000 
#
# Total GULP energy -289517.324909 kJ/mol
# GULP energy per Si atom -5567.640864 kJ/mol
# Density = 2.089065 g / cm^3
# Si number density = 20.938307 Si / 1000 Ang^3
#
#
#
# Elastic Constant Matrix: (Units=GPa)
#
#
# Indices 1 2 3 4 5 6 
#
# 1 39.6220 9.9661 17.0801 0.0000 0.0000 0.0000
# 2 9.9661 26.6211 7.7767 0.0000 0.0000 0.0000
# 3 17.0801 7.7767 114.1638 0.0000 0.0000 0.0000
# 4 0.0000 0.0000 0.0000 25.1098 0.0000 0.0000
# 5 0.0000 0.0000 0.0000 0.0000 27.7282 0.0000
# 6 0.0000 0.0000 0.0000 0.0000 0.0000 -304.0996
#
#
#
# Elastic Compliance Matrix: (Units=1/GPa)
#
#
# Indices 1 2 3 4 5 6 
#
# 1 0.029328 -0.009895 -0.003714 0.000000 0.000000 0.000000
# 2 -0.009895 0.041665 -0.001358 0.000000 0.000000 0.000000
# 3 -0.003714 -0.001358 0.009407 0.000000 0.000000 0.000000
# 4 0.000000 0.000000 0.000000 0.039825 0.000000 0.000000
# 5 0.000000 0.000000 0.000000 0.000000 0.036064 0.000000
# 6 0.000000 0.000000 0.000000 0.000000 0.000000 -0.003288
#
#
# Mechanical properties :
#
#
# Convention : Reuss Voigt Hill
#
# Bulk Modulus (GPa) = 19.81444 27.78362 23.79903
# Shear Modulus (GPa) = 25.03038 -40.54673 -7.75817
#
# Velocity S-wave (km/s) = 3.46126 -4.40533 -1.92699
# Velocity P-wave (km/s) = 5.04555 3.54652 2.53769
#
# Compressibility (1/GPa) = 0.05046825
#
# Stress axis : x y z
#
# Youngs Moduli (GPa) = 34.09685 24.00088 106.29862
#
# Poissons Ratio (x) = 0.23748 0.39477
# Poissons Ratio (y) = 0.33738 0.14434
# Poissons Ratio (z) = 0.12663 0.03259
#
# Static dielectric constant tensor:
#      x y z
#    x 1.768130 0.000000 0.000000 
#    y 0.000000 1.801890 0.000000 
#    z 0.000000 0.000000 1.835620 
# 
# From -- ./inp_files/12489.got.cif
#   From: 2010.05.17/outbox.cif.g08.bks.cpg/sg60_7_cif.got.tgz:12489.got - 2010.06.03 14:59:27.
