data_PCOD9454063
_publ_section_title
;
Structure prediction by ZEFSAII (Michael W. Deem and Ramdas Pophale) SiO2 
 PCOD9454063
Probable space group: P B C N
;
_chemical_formula_sum "Si O2"
_cell_formula_units_Z 64
_cell_length_a 8.527077
_cell_length_b 24.588121
_cell_length_c 13.811039
_cell_angle_alpha 90.000000
_cell_angle_beta 90.000000
_cell_angle_gamma 90.000000
_cell_volume 2895.688744
_symmetry_space_group_name_H-M "P B C N"
_symmetry_group_IT_number 60
_symmetry_cell_setting 'orthorhombic'
loop_
_space_group_symop_operation_xyz
x,y,z
1/2-x,1/2-y,1/2+z
1/2+x,1/2-y,-z
-x,y,1/2-z
-x,-y,-z
1/2+x,1/2+y,1/2-z
1/2-x,1/2+y,z
x,-y,1/2+z
loop_
_atom_site_type_symbol
_atom_site_label
_atom_site_fract_x
_atom_site_fract_y
_atom_site_fract_z
Si Si1 0.400919 0.429367 0.422157
Si Si2 0.059615 0.826410 0.546040
Si Si3 0.379594 0.124702 0.835186
Si Si4 0.109506 0.282032 0.468981
Si Si5 0.918330 0.639899 0.103847
Si Si6 0.662712 0.511027 0.373610
Si Si7 0.748547 0.380688 0.792535
Si Si8 0.414336 0.946846 0.036572
O O1 0.476483 0.375627 0.471876
O O2 0.288688 0.403760 0.339527
O O3 0.505858 0.475867 0.374472
O O4 0.332168 0.458405 0.520298
O O5 0.223183 0.797337 0.514662
O O6 0.109545 0.851059 0.649365
O O7 0.927405 0.780970 0.542478
O O8 0.500000 0.115635 0.750000
O O9 0.382079 0.187558 0.865581
O O10 0.456824 0.094467 0.925937
O O11 0.972618 0.309685 0.536496
O O12 0.801722 0.648380 0.193936
O O13 0.087120 0.619565 0.146461
O O14 0.838497 0.589411 0.047104
O O15 0.695232 0.556172 0.292584
O O16 0.799164 0.466457 0.380250
O O17 0.500000 0.000000 0.000000
#
# Coordination Sequence:
#
# PCOD9454063 Si02
#       8
#     8   8   8   8   8   8   8   8
#     4   9  19  36  58  82 120 158 189 243 308 356
#     4   9  18  35  59  84 114 153 202 245 302 364
#     4  10  21  38  58  84 114 154 203 246 289 365
#     4   9  19  37  59  83 112 157 197 248 310 355
#     4   9  18  32  55  85 119 150 204 246 293 360
#     4  10  18  33  59  85 118 155 189 243 305 359
#     4   9  17  33  55  86 118 153 196 254 293 357
#     4  11  18  32  56  86 110 151 200 229 290 366
#
# _framework density 22.101824000000001
#
# number of rings (size 3 to 8) (size 9 to 14) (size 15 to 20)
#    0.000    2.500    2.500    1.500    0.000    3.000 
#    4.500    0.625    2.750    3.000    0.000    0.000 
#    0.000    0.000    0.000    0.000    0.000    0.000 
#
# Total GULP energy -356717.415265 kJ/mol
# GULP energy per Si atom -5573.709614 kJ/mol
# Density = 2.205152 g / cm^3
# Si number density = 22.101824 Si / 1000 Ang^3
#
#
#
# Elastic Constant Matrix: (Units=GPa)
#
#
# Indices 1 2 3 4 5 6 
#
# 1 49.0609 23.4719 15.9259 0.0000 0.0000 0.0000
# 2 23.4719 98.8807 15.6433 0.0000 0.0000 0.0000
# 3 15.9259 15.6433 53.8436 0.0000 0.0000 0.0000
# 4 0.0000 0.0000 0.0000 13.9571 0.0000 0.0000
# 5 0.0000 0.0000 0.0000 0.0000 16.8127 0.0000
# 6 0.0000 0.0000 0.0000 0.0000 0.0000 36.2717
#
#
#
# Elastic Compliance Matrix: (Units=1/GPa)
#
#
# Indices 1 2 3 4 5 6 
#
# 1 0.024639 -0.004922 -0.005858 0.000000 0.000000 0.000000
# 2 -0.004922 0.011584 -0.001910 0.000000 0.000000 0.000000
# 3 -0.005858 -0.001910 0.020860 0.000000 0.000000 0.000000
# 4 0.000000 0.000000 0.000000 0.071648 0.000000 0.000000
# 5 0.000000 0.000000 0.000000 0.000000 0.059479 0.000000
# 6 0.000000 0.000000 0.000000 0.000000 0.000000 0.027570
#
#
# Mechanical properties :
#
#
# Convention : Reuss Voigt Hill
#
# Bulk Modulus (GPa) = 31.54200 34.65195 33.09697
# Shear Modulus (GPa) = 19.86285 23.19123 21.52704
#
# Velocity S-wave (km/s) = 3.00108 3.24279 3.12427
# Velocity P-wave (km/s) = 5.12941 5.45282 5.29359
#
# Compressibility (1/GPa) = 0.03170376
#
# Stress axis : x y z
#
# Youngs Moduli (GPa) = 40.58579 86.32843 47.93921
#
# Poissons Ratio (x) = 0.42491 0.28082
# Poissons Ratio (y) = 0.19976 0.09154
# Poissons Ratio (z) = 0.23774 0.16485
#
# Static dielectric constant tensor:
#      x y z
#    x 1.453130 0.000000 0.000000 
#    y 0.000000 1.837910 0.000000 
#    z 0.000000 0.000000 1.886250 
# 
# From -- ./inp_files/15396.got.cif
#   From: 2010.05.17/outbox.cif.g08.bks.cpg/sg60_8_cif.got.tgz:15396.got - 2010.06.03 14:59:27.
