data_PCOD9454127
_publ_section_title
;
Structure prediction by ZEFSAII (Michael W. Deem and Ramdas Pophale) SiO2 
 PCOD9454127
Probable space group: P B C N
;
_chemical_formula_sum "Si O2"
_cell_formula_units_Z 56
_cell_length_a 11.203415
_cell_length_b 15.956594
_cell_length_c 14.730893
_cell_angle_alpha 90.000000
_cell_angle_beta 90.000000
_cell_angle_gamma 90.000000
_cell_volume 2633.417356
_symmetry_space_group_name_H-M "P B C N"
_symmetry_group_IT_number 60
_symmetry_cell_setting 'orthorhombic'
loop_
_space_group_symop_operation_xyz
x,y,z
1/2-x,1/2-y,1/2+z
1/2+x,1/2-y,-z
-x,y,1/2-z
-x,-y,-z
1/2+x,1/2+y,1/2-z
1/2-x,1/2+y,z
x,-y,1/2+z
loop_
_atom_site_type_symbol
_atom_site_label
_atom_site_fract_x
_atom_site_fract_y
_atom_site_fract_z
Si Si1 0.209871 0.622096 0.572561
Si Si2 0.260527 0.652230 0.920480
Si Si3 0.324746 0.342109 0.886130
Si Si4 0.631515 0.655726 0.760110
Si Si5 0.908231 0.797564 0.919963
Si Si6 0.100546 0.452685 0.558900
Si Si7 0.314599 0.156800 0.210654
O O1 0.267922 0.614368 0.473718
O O2 0.313068 0.645106 0.641909
O O3 0.108610 0.695655 0.574911
O O4 0.166215 0.531896 0.602201
O O5 0.204616 0.743769 0.904145
O O6 0.288781 0.618655 0.820839
O O7 0.380539 0.668228 0.979173
O O8 0.175847 0.597074 0.983225
O O9 0.468854 0.336732 0.883491
O O10 0.255106 0.378294 0.798927
O O11 0.500000 0.621492 0.750000
O O12 0.631878 0.756699 0.751303
O O13 0.796534 0.823978 0.857269
O O14 0.089509 0.390830 0.646236
O O15 0.000000 0.500000 0.500000
#
# Coordination Sequence:
#
# PCOD9454127 Si02
#       7
#     8   8   8   8   8   8   8
#     4  10  22  35  56  89 120 153 200 242 298 368
#     4   9  20  35  57  86 114 154 209 244 289 362
#     4  10  18  35  60  84 113 155 202 252 291 342
#     4  10  20  39  61  83 115 155 202 253 289 339
#     4   9  17  35  59  84 114 153 202 256 297 341
#     4  11  23  41  59  85 125 155 185 245 309 362
#     4   9  21  36  58  89 114 149 206 244 292 368
#
# _framework density 21.265145
#
# number of rings (size 3 to 8) (size 9 to 14) (size 15 to 20)
#    0.000    2.286    0.000    3.000    0.000    4.571 
#    0.000   12.857    0.000    0.000    0.000    0.000 
#    0.000    0.000    0.000    0.000    0.000    0.000 
#
# Total GULP energy -311888.817663 kJ/mol
# GULP energy per Si atom -5569.443173 kJ/mol
# Density = 2.121674 g / cm^3
# Si number density = 21.265145 Si / 1000 Ang^3
#
#
#
# Elastic Constant Matrix: (Units=GPa)
#
#
# Indices 1 2 3 4 5 6 
#
# 1 52.1739 -8.0147 14.7557 0.0000 0.0000 0.0000
# 2 -8.0147 43.1718 13.0559 0.0000 0.0000 0.0000
# 3 14.7557 13.0559 124.7370 0.0000 0.0000 0.0000
# 4 0.0000 0.0000 0.0000 14.1517 0.0000 0.0000
# 5 0.0000 0.0000 0.0000 0.0000 24.3965 0.0000
# 6 0.0000 0.0000 0.0000 0.0000 0.0000 15.0152
#
#
#
# Elastic Compliance Matrix: (Units=1/GPa)
#
#
# Indices 1 2 3 4 5 6 
#
# 1 0.020729 0.004740 -0.002948 0.000000 0.000000 0.000000
# 2 0.004740 0.025004 -0.003178 0.000000 0.000000 0.000000
# 3 -0.002948 -0.003178 0.008698 0.000000 0.000000 0.000000
# 4 0.000000 0.000000 0.000000 0.070663 0.000000 0.000000
# 5 0.000000 0.000000 0.000000 0.000000 0.040989 0.000000
# 6 0.000000 0.000000 0.000000 0.000000 0.000000 0.066599
#
#
# Mechanical properties :
#
#
# Convention : Reuss Voigt Hill
#
# Bulk Modulus (GPa) = 19.35788 28.85296 24.10542
# Shear Modulus (GPa) = 19.78830 24.06507 21.92668
#
# Velocity S-wave (km/s) = 3.05380 3.36768 3.21457
# Velocity P-wave (km/s) = 4.64297 5.35904 5.01380
#
# Compressibility (1/GPa) = 0.05165854
#
# Stress axis : x y z
#
# Youngs Moduli (GPa) = 48.24260 39.99326 114.96584
#
# Poissons Ratio (x) = -0.18956 0.33894
# Poissons Ratio (y) = -0.22866 0.36534
# Poissons Ratio (z) = 0.14223 0.12709
#
# Static dielectric constant tensor:
#      x y z
#    x 1.817460 0.000000 0.000000 
#    y 0.000000 1.396000 0.000000 
#    z 0.000000 0.000000 2.842320 
# 
# From -- ./inp_files/16150.got.cif
#   From: 2010.05.17/outbox.cif.g08.bks.cpg/sg60_9_cif.got.tgz:16150.got - 2010.06.03 14:59:27.
