data_PCOD9454372
_publ_section_title
;
Structure prediction by ZEFSAII (Michael W. Deem and Ramdas Pophale) SiO2 
 PCOD9454372
Probable space group: P B C N
;
_chemical_formula_sum "Si O2"
_cell_formula_units_Z 56
_cell_length_a 32.646958
_cell_length_b 15.508655
_cell_length_c 5.180487
_cell_angle_alpha 90.000000
_cell_angle_beta 90.000000
_cell_angle_gamma 90.000000
_cell_volume 2622.934489
_symmetry_space_group_name_H-M "P B C N"
_symmetry_group_IT_number 60
_symmetry_cell_setting 'orthorhombic'
loop_
_space_group_symop_operation_xyz
x,y,z
1/2-x,1/2-y,1/2+z
1/2+x,1/2-y,-z
-x,y,1/2-z
-x,-y,-z
1/2+x,1/2+y,1/2-z
1/2-x,1/2+y,z
x,-y,1/2+z
loop_
_atom_site_type_symbol
_atom_site_label
_atom_site_fract_x
_atom_site_fract_y
_atom_site_fract_z
Si Si1 0.609547 0.722743 0.708916
Si Si2 0.858678 0.315967 0.216081
Si Si3 0.926187 0.553481 0.760112
Si Si4 0.223929 0.759758 0.908059
Si Si5 0.603990 0.525125 0.750817
Si Si6 0.805867 0.951025 0.728895
Si Si7 0.474730 0.215320 0.510925
O O1 0.637272 0.762432 0.481885
O O2 0.618401 0.622979 0.753403
O O3 0.563941 0.731455 0.595150
O O4 0.615923 0.772956 0.978239
O O5 0.880358 0.406944 0.271799
O O6 0.811989 0.310165 0.128126
O O7 0.932568 0.522062 0.468509
O O8 0.955511 0.629890 0.856424
O O9 0.258801 0.741974 0.696517
O O10 0.205417 0.853973 0.842117
O O11 0.579590 0.501620 0.499034
O O12 0.644766 0.464698 0.741661
O O13 0.790611 0.015428 0.504710
O O14 0.500000 0.195627 0.250000
O O15 0.500000 0.256122 0.750000
#
# Coordination Sequence:
#
# PCOD9454372 Si02
#       7
#     8   8   8   8   8   8   8
#     4  11  21  39  66  92 121 160 207 251 301 371
#     4  11  22  41  63  85 120 166 212 256 305 371
#     4  11  23  40  62  90 123 165 217 263 303 363
#     4  12  25  41  62  93 128 164 204 258 323 379
#     4  10  19  32  58  91 113 143 194 251 295 339
#     4  10  19  36  59  86 116 146 195 255 300 349
#     4  11  23  39  62  94 129 165 203 253 319 376
#
# _framework density 21.350131000000001
#
# number of rings (size 3 to 8) (size 9 to 14) (size 15 to 20)
#    0.000    1.143    0.000   10.286    0.000    1.714 
#    0.000    4.286    0.000    2.571    0.000    0.000 
#    0.000    0.000    0.000    0.000    0.000    0.000 
#
# Total GULP energy -312813.076548 kJ/mol
# GULP energy per Si atom -5585.947795 kJ/mol
# Density = 2.130154 g / cm^3
# Si number density = 21.350131 Si / 1000 Ang^3
#
#
#
# Elastic Constant Matrix: (Units=GPa)
#
#
# Indices 1 2 3 4 5 6 
#
# 1 65.5532 1.9898 -0.9723 0.0000 0.0000 0.0000
# 2 1.9898 43.4490 6.2787 0.0000 0.0000 0.0000
# 3 -0.9723 6.2787 140.4544 0.0000 0.0000 0.0000
# 4 0.0000 0.0000 0.0000 29.0118 0.0000 0.0000
# 5 0.0000 0.0000 0.0000 0.0000 35.6733 0.0000
# 6 0.0000 0.0000 0.0000 0.0000 0.0000 9.6751
#
#
#
# Elastic Compliance Matrix: (Units=1/GPa)
#
#
# Indices 1 2 3 4 5 6 
#
# 1 0.015279 -0.000720 0.000138 0.000000 0.000000 0.000000
# 2 -0.000720 0.023199 -0.001042 0.000000 0.000000 0.000000
# 3 0.000138 -0.001042 0.007167 0.000000 0.000000 0.000000
# 4 0.000000 0.000000 0.000000 0.034469 0.000000 0.000000
# 5 0.000000 0.000000 0.000000 0.000000 0.028032 0.000000
# 6 0.000000 0.000000 0.000000 0.000000 0.000000 0.103358
#
#
# Mechanical properties :
#
#
# Convention : Reuss Voigt Hill
#
# Bulk Modulus (GPa) = 23.58629 29.33878 26.46253
# Shear Modulus (GPa) = 21.84510 31.01607 26.43058
#
# Velocity S-wave (km/s) = 3.20219 3.81561 3.52228
# Velocity P-wave (km/s) = 4.97428 5.76050 5.38177
#
# Compressibility (1/GPa) = 0.04239751
#
# Stress axis : x y z
#
# Youngs Moduli (GPa) = 65.45074 43.10522 139.52286
#
# Poissons Ratio (x) = 0.03102 -0.01925
# Poissons Ratio (y) = 0.04710 0.14539
# Poissons Ratio (z) = -0.00903 0.04492
#
# Static dielectric constant tensor:
#      x y z
#    x 1.794440 0.000000 0.000000 
#    y 0.000000 1.762710 0.000000 
#    z 0.000000 0.000000 1.864640 
# 
# From -- ./inp_files/2690.got.cif
#   From: 2010.05.17/outbox.cif.g08.bks.cpg/sg60_2_cif.got.tgz:2690.got - 2010.06.03 14:59:27.
