data_PCOD9454866
_publ_section_title
;
Structure prediction by ZEFSAII (Michael W. Deem and Ramdas Pophale) SiO2 
 PCOD9454866
Probable space group: P B C N
;
_chemical_formula_sum "Si O2"
_cell_formula_units_Z 44
_cell_length_a 14.687724
_cell_length_b 35.351095
_cell_length_c 5.098108
_cell_angle_alpha 90.000000
_cell_angle_beta 90.000000
_cell_angle_gamma 90.000000
_cell_volume 2647.075967
_symmetry_space_group_name_H-M "P B C N"
_symmetry_group_IT_number 60
_symmetry_cell_setting 'orthorhombic'
loop_
_space_group_symop_operation_xyz
x,y,z
1/2-x,1/2-y,1/2+z
1/2+x,1/2-y,-z
-x,y,1/2-z
-x,-y,-z
1/2+x,1/2+y,1/2-z
1/2-x,1/2+y,z
x,-y,1/2+z
loop_
_atom_site_type_symbol
_atom_site_label
_atom_site_fract_x
_atom_site_fract_y
_atom_site_fract_z
Si Si1 0.889357 0.023339 0.742673
Si Si2 0.345608 0.654760 0.182921
Si Si3 0.107559 0.890004 0.185285
Si Si4 0.792085 0.703185 0.977884
Si Si5 0.865404 0.732897 0.463982
Si Si6 0.000000 0.784420 0.750000
O O1 0.861876 0.066651 0.784190
O O2 0.000000 0.023933 0.750000
O O3 0.859796 0.005028 0.470818
O O4 0.383769 0.623920 0.387291
O O5 0.260916 0.671404 0.350846
O O6 0.419361 0.688416 0.147656
O O7 0.338154 0.635992 0.895970
O O8 0.000000 0.887035 0.250000
O O9 0.870595 0.715714 0.177181
O O10 0.716726 0.736391 0.954098
O O11 0.835448 0.702365 0.687303
O O12 0.951760 0.757185 0.544698
#
# Coordination Sequence:
#
# PCOD9454866 Si02
#       6
#     8   8   8   8   8   4
#     4   9  17  28  41  55  77 105 131 163 202 238
#     4  11  20  30  43  62  82 106 131 179 218 251
#     4  11  19  29  42  62  81 102 137 174 210 243
#     4   9  18  31  42  55  80 103 129 159 214 256
#     4   9  18  30  43  58  74 103 131 167 205 259
#     4  10  20  30  46  62  80 100 140 182 222 234
#
# _framework density 16.622115000000001
#
# number of rings (size 3 to 8) (size 9 to 14) (size 15 to 20)
#    0.000    2.182    1.818    2.182    0.000    9.455 
#    0.000    0.000    0.000    0.000    0.000    0.000 
#    0.000    0.000    0.000    0.000    0.000    0.000 
#
# Total GULP energy -245139.914461 kJ/mol
# GULP energy per Si atom -5571.361692 kJ/mol
# Density = 1.658428 g / cm^3
# Si number density = 16.622115 Si / 1000 Ang^3
#
#
#
# Elastic Constant Matrix: (Units=GPa)
#
#
# Indices 1 2 3 4 5 6 
#
# 1 23.2513 19.2888 9.0009 0.0000 0.0000 0.0000
# 2 19.2888 45.1010 -3.8423 0.0000 0.0000 0.0000
# 3 9.0009 -3.8423 72.0458 0.0000 0.0000 0.0000
# 4 0.0000 0.0000 0.0000 3.3392 0.0000 0.0000
# 5 0.0000 0.0000 0.0000 0.0000 16.2991 0.0000
# 6 0.0000 0.0000 0.0000 0.0000 0.0000 4.5045
#
#
#
# Elastic Compliance Matrix: (Units=1/GPa)
#
#
# Indices 1 2 3 4 5 6 
#
# 1 0.074504 -0.032806 -0.011058 0.000000 0.000000 0.000000
# 2 -0.032806 0.036719 0.006057 0.000000 0.000000 0.000000
# 3 -0.011058 0.006057 0.015585 0.000000 0.000000 0.000000
# 4 0.000000 0.000000 0.000000 0.299474 0.000000 0.000000
# 5 0.000000 0.000000 0.000000 0.000000 0.061353 0.000000
# 6 0.000000 0.000000 0.000000 0.000000 0.000000 0.221999
#
#
# Mechanical properties :
#
#
# Convention : Reuss Voigt Hill
#
# Bulk Modulus (GPa) = 19.53353 21.03255 20.28304
# Shear Modulus (GPa) = 6.23199 12.55862 9.39530
#
# Velocity S-wave (km/s) = 1.93839 2.75168 2.38003
# Velocity P-wave (km/s) = 4.09718 4.77247 4.44766
#
# Compressibility (1/GPa) = 0.05119402
#
# Stress axis : x y z
#
# Youngs Moduli (GPa) = 13.42211 27.23395 64.16614
#
# Poissons Ratio (x) = 0.89343 0.70953
# Poissons Ratio (y) = 0.44032 -0.38864
# Poissons Ratio (z) = 0.14842 -0.16495
#
# Static dielectric constant tensor:
#      x y z
#    x 1.590690 0.000000 0.000000 
#    y 0.000000 1.583300 0.000000 
#    z 0.000000 0.000000 1.605720 
# 
# From -- ./inp_files/1299.got.cif
#   From: 2010.05.17/outbox.cif.g08.bks.cpg/sg60_1_cif.got.tgz:1299.got - 2010.06.03 14:59:27.
