data_PCOD9454318
_publ_section_title
;
Structure prediction by ZEFSAII (Michael W. Deem and Ramdas Pophale) SiO2 
 PCOD9454318
Probable space group: P B C N
;
_chemical_formula_sum "Si O2"
_cell_formula_units_Z 64
_cell_length_a 20.166955
_cell_length_b 8.888845
_cell_length_c 19.347922
_cell_angle_alpha 90.000000
_cell_angle_beta 90.000000
_cell_angle_gamma 90.000000
_cell_volume 3468.326629
_symmetry_space_group_name_H-M "P B C N"
_symmetry_group_IT_number 60
_symmetry_cell_setting 'orthorhombic'
loop_
_space_group_symop_operation_xyz
x,y,z
1/2-x,1/2-y,1/2+z
1/2+x,1/2-y,-z
-x,y,1/2-z
-x,-y,-z
1/2+x,1/2+y,1/2-z
1/2-x,1/2+y,z
x,-y,1/2+z
loop_
_atom_site_type_symbol
_atom_site_label
_atom_site_fract_x
_atom_site_fract_y
_atom_site_fract_z
Si Si1 0.926276 0.005271 0.438756
Si Si2 0.686092 0.464995 0.034903
Si Si3 0.490770 0.243472 0.485550
Si Si4 0.761976 0.321319 0.741998
Si Si5 0.308004 0.568073 0.665494
Si Si6 0.210782 0.586306 0.855730
Si Si7 0.394133 0.014654 0.972105
Si Si8 0.715909 0.160003 0.958955
O O1 0.873637 0.975079 0.377774
O O2 0.981086 0.875533 0.437589
O O3 0.887294 0.988077 0.512950
O O4 0.959259 0.169293 0.448109
O O5 0.715977 0.412446 0.107570
O O6 0.698955 0.329622 0.979749
O O7 0.732320 0.605585 0.016967
O O8 0.435199 0.135818 0.452073
O O9 0.552356 0.136952 0.505102
O O10 0.722769 0.422881 0.797275
O O11 0.811170 0.202211 0.778349
O O12 0.796301 0.437539 0.690238
O O13 0.710456 0.225902 0.695890
O O14 0.253883 0.632830 0.611557
O O15 0.154719 0.580118 0.914156
O O16 0.346274 0.951847 0.032800
#
# Coordination Sequence:
#
# PCOD9454318 Si02
#       8
#     8   8   8   8   8   8   8   8
#     4  10  21  36  57  84 115 141 186 236 288 340
#     4  10  19  31  56  87 110 140 176 239 307 335
#     4  10  22  36  54  90 108 152 178 224 304 324
#     4  10  22  36  54  88 108 156 186 220 296 320
#     4  10  21  36  57  84 116 144 188 237 282 344
#     4  10  21  36  57  84 116 144 188 237 282 344
#     4  10  21  36  57  84 115 141 186 236 288 340
#     4  10  19  31  56  87 110 140 176 239 307 335
#
# _framework density 18.452701999999999
#
# number of rings (size 3 to 8) (size 9 to 14) (size 15 to 20)
#    0.000    2.000    1.250    3.000   10.500    0.000 
#    0.000    0.000    0.000    4.500    0.000    0.000 
#    0.000    0.000    0.000    0.000    0.000    0.000 
#
# Total GULP energy -356521.742855 kJ/mol
# GULP energy per Si atom -5570.652232 kJ/mol
# Density = 1.841070 g / cm^3
# Si number density = 18.452702 Si / 1000 Ang^3
#
#
#
# Elastic Constant Matrix: (Units=GPa)
#
#
# Indices 1 2 3 4 5 6 
#
# 1 55.4438 -2.7662 0.0844 0.0000 0.0000 0.0000
# 2 -2.7662 74.4459 4.1786 0.0000 0.0000 0.0000
# 3 0.0844 4.1786 53.8586 0.0000 0.0000 0.0000
# 4 0.0000 0.0000 0.0000 26.6549 0.0000 0.0000
# 5 0.0000 0.0000 0.0000 0.0000 20.8517 0.0000
# 6 0.0000 0.0000 0.0000 0.0000 0.0000 26.1999
#
#
#
# Elastic Compliance Matrix: (Units=1/GPa)
#
#
# Indices 1 2 3 4 5 6 
#
# 1 0.018070 0.000676 -0.000081 0.000000 0.000000 0.000000
# 2 0.000676 0.013517 -0.001050 0.000000 0.000000 0.000000
# 3 -0.000081 -0.001050 0.018649 0.000000 0.000000 0.000000
# 4 0.000000 0.000000 0.000000 0.037517 0.000000 0.000000
# 5 0.000000 0.000000 0.000000 0.000000 0.047958 0.000000
# 6 0.000000 0.000000 0.000000 0.000000 0.000000 0.038168
#
#
# Mechanical properties :
#
#
# Convention : Reuss Voigt Hill
#
# Bulk Modulus (GPa) = 20.27310 20.74908 20.51109
# Shear Modulus (GPa) = 26.14666 26.89141 26.51904
#
# Velocity S-wave (km/s) = 3.76833 3.82162 3.79507
# Velocity P-wave (km/s) = 5.47212 5.54454 5.50845
#
# Compressibility (1/GPa) = 0.04932644
#
# Stress axis : x y z
#
# Youngs Moduli (GPa) = 55.33992 73.98305 53.62299
#
# Poissons Ratio (x) = -0.05001 0.00433
# Poissons Ratio (y) = -0.03741 0.05629
# Poissons Ratio (z) = 0.00447 0.07766
#
# Static dielectric constant tensor:
#      x y z
#    x 1.664770 0.000000 0.000000 
#    y 0.000000 1.676330 0.000000 
#    z 0.000000 0.000000 1.655670 
# 
# From -- ./inp_files/23230.got.cif
#   From: 2010.05.17/outbox.cif.g08.bks.cpg/sg60_12_cif.got.tgz:23230.got - 2010.06.03 14:59:27.
