data_PCOD9454377
_publ_section_title
;
Structure prediction by ZEFSAII (Michael W. Deem and Ramdas Pophale) SiO2 
 PCOD9454377
Probable space group: P B C N
;
_chemical_formula_sum "Si O2"
_cell_formula_units_Z 48
_cell_length_a 10.618249
_cell_length_b 12.332906
_cell_length_c 14.806266
_cell_angle_alpha 90.000000
_cell_angle_beta 90.000000
_cell_angle_gamma 90.000000
_cell_volume 1938.937786
_symmetry_space_group_name_H-M "P B C N"
_symmetry_group_IT_number 60
_symmetry_cell_setting 'orthorhombic'
loop_
_space_group_symop_operation_xyz
x,y,z
1/2-x,1/2-y,1/2+z
1/2+x,1/2-y,-z
-x,y,1/2-z
-x,-y,-z
1/2+x,1/2+y,1/2-z
1/2-x,1/2+y,z
x,-y,1/2+z
loop_
_atom_site_type_symbol
_atom_site_label
_atom_site_fract_x
_atom_site_fract_y
_atom_site_fract_z
Si Si1 0.494190 0.099131 0.890603
Si Si2 0.632953 0.308741 0.857682
Si Si3 0.579549 0.879746 0.582420
Si Si4 0.994397 0.024813 0.893171
Si Si5 0.216550 0.178889 0.930773
Si Si6 0.396304 0.264153 0.171482
O O1 0.563196 0.195444 0.839872
O O2 0.357650 0.143553 0.917244
O O3 0.459213 0.979968 0.855362
O O4 0.583127 0.079943 0.979073
O O5 0.542782 0.412184 0.845957
O O6 0.766571 0.295698 0.808416
O O7 0.673067 0.316702 0.964408
O O8 0.697118 0.803053 0.601594
O O9 0.464286 0.795912 0.588625
O O10 0.888333 0.111334 0.860988
O O11 0.125157 0.092052 0.879365
O O12 0.000000 0.000000 0.000000
O O13 0.500000 0.256183 0.250000
#
# Coordination Sequence:
#
# PCOD9454377 Si02
#       6
#     8   8   8   8   8   8
#     4  10  19  32  61  94 123 158 214 282 331 396
#     4  10  21  34  63  94 127 169 225 271 339 408
#     4   9  20  35  55  91 125 168 210 266 340 388
#     4   9  21  38  65  96 128 176 226 285 341 401
#     4   9  18  33  58  95 134 160 213 283 339 388
#     4  11  23  42  63  90 134 179 224 277 350 417
#
# _framework density 24.755824
#
# number of rings (size 3 to 8) (size 9 to 14) (size 15 to 20)
#    0.000    2.333    1.667    1.000    4.667    2.667 
#    0.000    3.333    0.000    0.000    0.000    0.000 
#    0.000    0.000    0.000    0.000    0.000    0.000 
#
# Total GULP energy -267727.971256 kJ/mol
# GULP energy per Si atom -5577.666068 kJ/mol
# Density = 2.469948 g / cm^3
# Si number density = 24.755824 Si / 1000 Ang^3
#
#
#
# Elastic Constant Matrix: (Units=GPa)
#
#
# Indices 1 2 3 4 5 6 
#
# 1 93.4682 24.0859 22.2962 0.0000 0.0000 0.0000
# 2 24.0859 155.7058 7.5925 0.0000 0.0000 0.0000
# 3 22.2962 7.5925 85.3848 0.0000 0.0000 0.0000
# 4 0.0000 0.0000 0.0000 -13.4193 0.0000 0.0000
# 5 0.0000 0.0000 0.0000 0.0000 26.3099 0.0000
# 6 0.0000 0.0000 0.0000 0.0000 0.0000 12.4008
#
#
#
# Elastic Compliance Matrix: (Units=1/GPa)
#
#
# Indices 1 2 3 4 5 6 
#
# 1 0.011835 -0.001687 -0.002940 0.000000 0.000000 0.000000
# 2 -0.001687 0.006691 -0.000154 0.000000 0.000000 0.000000
# 3 -0.002940 -0.000154 0.012493 0.000000 0.000000 0.000000
# 4 0.000000 0.000000 0.000000 -0.074519 0.000000 0.000000
# 5 0.000000 0.000000 0.000000 0.000000 0.038008 0.000000
# 6 0.000000 0.000000 0.000000 0.000000 0.000000 0.080640
#
#
# Mechanical properties :
#
#
# Convention : Reuss Voigt Hill
#
# Bulk Modulus (GPa) = 46.60924 49.16754 47.88839
# Shear Modulus (GPa) = 54.42834 23.76390 39.09612
#
# Velocity S-wave (km/s) = 4.69402 3.10164 3.97831
# Velocity P-wave (km/s) = 6.94600 5.72110 6.36309
#
# Compressibility (1/GPa) = 0.02145497
#
# Stress axis : x y z
#
# Youngs Moduli (GPa) = 84.49472 149.45651 80.04335
#
# Poissons Ratio (x) = 0.25219 0.23536
# Poissons Ratio (y) = 0.14257 0.01235
# Poissons Ratio (z) = 0.24845 0.02307
#
# Static dielectric constant tensor:
#      x y z
#    x 1.948480 0.000000 0.000000 
#    y 0.000000 1.996730 0.000000 
#    z 0.000000 0.000000 2.090040 
# 
# From -- ./inp_files/20027.got.cif
#   From: 2010.05.17/outbox.cif.g08.bks.cpg/sg60_11_cif.got.tgz:20027.got - 2010.06.03 14:59:27.
