data_PCOD9454028
_publ_section_title
;
Structure prediction by ZEFSAII (Michael W. Deem and Ramdas Pophale) SiO2 
 PCOD9454028
Probable space group: P B C N
;
_chemical_formula_sum "Si O2"
_cell_formula_units_Z 44
_cell_length_a 17.042960
_cell_length_b 11.093111
_cell_length_c 8.543332
_cell_angle_alpha 90.000000
_cell_angle_beta 90.000000
_cell_angle_gamma 90.000000
_cell_volume 1615.197624
_symmetry_space_group_name_H-M "P B C N"
_symmetry_group_IT_number 60
_symmetry_cell_setting 'orthorhombic'
loop_
_space_group_symop_operation_xyz
x,y,z
1/2-x,1/2-y,1/2+z
1/2+x,1/2-y,-z
-x,y,1/2-z
-x,-y,-z
1/2+x,1/2+y,1/2-z
1/2-x,1/2+y,z
x,-y,1/2+z
loop_
_atom_site_type_symbol
_atom_site_label
_atom_site_fract_x
_atom_site_fract_y
_atom_site_fract_z
Si Si1 0.500000 0.120523 0.750000
Si Si2 0.500000 0.253517 0.250000
Si Si3 0.765463 0.039642 0.155014
Si Si4 0.109860 0.608214 0.486261
Si Si5 0.336204 0.638963 0.039830
Si Si6 0.905030 0.184786 0.052718
Si Si7 0.500000 0.500000 0.500000
O O1 0.445197 0.054533 0.622293
O O2 0.558792 0.200973 0.640797
O O3 0.557180 0.172387 0.146332
O O4 0.551952 0.327753 0.379158
O O5 0.676032 0.033206 0.099799
O O6 0.780023 0.078647 0.331970
O O7 0.814606 0.146060 0.061304
O O8 0.800694 0.907861 0.122504
O O9 0.155905 0.719981 0.563857
O O10 0.424081 0.589511 0.043551
O O11 0.943474 0.067198 0.126597
#
# Coordination Sequence:
#
# PCOD9454028 Si02
#       7
#     4   4   8   8   8   8   4
#     4  10  18  41  60  91 124 182 216 266 315 403
#     4  10  22  35  60  95 128 174 222 266 321 397
#     4  11  26  40  64  99 137 176 214 275 340 402
#     4  11  24  43  66 100 132 176 222 274 341 396
#     4  11  24  40  66 101 137 170 216 275 336 414
#     4  10  19  32  56  93 131 168 204 262 325 405
#     4  10  18  32  60  94 138 164 206 262 348 408
#
# _framework density 27.241250000000001
#
# number of rings (size 3 to 8) (size 9 to 14) (size 15 to 20)
#    0.000    1.455    5.455    0.000    7.636    2.909 
#    0.000    0.000    0.000    3.273    0.000    0.000 
#    0.000    0.000    0.000    0.000    0.000    0.000 
#
# Total GULP energy -245043.424946 kJ/mol
# GULP energy per Si atom -5569.168749 kJ/mol
# Density = 2.717925 g / cm^3
# Si number density = 27.241250 Si / 1000 Ang^3
#
#
#
# Elastic Constant Matrix: (Units=GPa)
#
#
# Indices 1 2 3 4 5 6 
#
# 1 125.3318 13.9144 23.3097 0.0000 0.0000 0.0000
# 2 13.9144 43.3598 11.5887 0.0000 0.0000 0.0000
# 3 23.3097 11.5887 127.0492 0.0000 0.0000 0.0000
# 4 0.0000 0.0000 0.0000 -5.9151 0.0000 0.0000
# 5 0.0000 0.0000 0.0000 0.0000 45.9429 0.0000
# 6 0.0000 0.0000 0.0000 0.0000 0.0000 75.1054
#
#
#
# Elastic Compliance Matrix: (Units=1/GPa)
#
#
# Indices 1 2 3 4 5 6 
#
# 1 0.008491 -0.002366 -0.001342 0.000000 0.000000 0.000000
# 2 -0.002366 0.024298 -0.001782 0.000000 0.000000 0.000000
# 3 -0.001342 -0.001782 0.008280 0.000000 0.000000 0.000000
# 4 0.000000 0.000000 0.000000 -0.169059 0.000000 0.000000
# 5 0.000000 0.000000 0.000000 0.000000 0.021766 0.000000
# 6 0.000000 0.000000 0.000000 0.000000 0.000000 0.013315
#
#
# Mechanical properties :
#
#
# Convention : Reuss Voigt Hill
#
# Bulk Modulus (GPa) = 33.23534 43.70739 38.47137
# Shear Modulus (GPa) = -69.54249 39.48852 -15.02699
#
# Velocity S-wave (km/s) = -5.05804 3.81147 -2.35122
# Velocity P-wave (km/s) = 4.67813 5.95392 2.60425
#
# Compressibility (1/GPa) = 0.03008845
#
# Stress axis : x y z
#
# Youngs Moduli (GPa) = 117.77026 41.15481 120.77654
#
# Poissons Ratio (x) = 0.09738 0.16209
# Poissons Ratio (y) = 0.27866 0.21525
# Poissons Ratio (z) = 0.15805 0.07335
#
# Static dielectric constant tensor:
#      x y z
#    x 2.357240 0.000000 0.000000 
#    y 0.000000 1.720290 0.000000 
#    z 0.000000 0.000000 1.989580 
# 
# From -- ./inp_files/5862.got.cif
#   From: 2010.05.17/outbox.cif.g08.bks.cpg/sg60_3_cif.got.tgz:5862.got - 2010.06.03 14:59:27.
