data_PCOD9454896
_publ_section_title
;
Structure prediction by ZEFSAII (Michael W. Deem and Ramdas Pophale) SiO2 
 PCOD9454896
Probable space group: P B C N
;
_chemical_formula_sum "Si O2"
_cell_formula_units_Z 60
_cell_length_a 24.083046
_cell_length_b 14.461500
_cell_length_c 8.111503
_cell_angle_alpha 90.000000
_cell_angle_beta 90.000000
_cell_angle_gamma 90.000000
_cell_volume 2825.049685
_symmetry_space_group_name_H-M "P B C N"
_symmetry_group_IT_number 60
_symmetry_cell_setting 'orthorhombic'
loop_
_space_group_symop_operation_xyz
x,y,z
1/2-x,1/2-y,1/2+z
1/2+x,1/2-y,-z
-x,y,1/2-z
-x,-y,-z
1/2+x,1/2+y,1/2-z
1/2-x,1/2+y,z
x,-y,1/2+z
loop_
_atom_site_type_symbol
_atom_site_label
_atom_site_fract_x
_atom_site_fract_y
_atom_site_fract_z
Si Si1 0.142635 0.822823 0.927943
Si Si2 0.200696 0.958700 0.714631
Si Si3 0.819849 0.643871 0.713765
Si Si4 0.000000 0.228654 0.750000
Si Si5 0.877247 0.703412 0.249713
Si Si6 0.479990 0.399681 0.937919
Si Si7 0.310007 0.643289 0.873758
Si Si8 0.671690 0.026392 0.383716
O O1 0.147113 0.763392 0.094437
O O2 0.189925 0.893988 0.872550
O O3 0.146170 0.738255 0.798467
O O4 0.086087 0.881091 0.931327
O O5 0.182807 0.906061 0.550444
O O6 0.265681 0.969610 0.684715
O O7 0.173649 0.058799 0.749498
O O8 0.753993 0.665532 0.681135
O O9 0.838331 0.582606 0.869533
O O10 0.832289 0.573273 0.562134
O O11 0.057068 0.284524 0.749286
O O12 0.998908 0.168288 0.582405
O O13 0.845567 0.763838 0.114683
O O14 0.862727 0.597206 0.271751
O O15 0.500000 0.384292 0.750000
O O16 0.500000 0.500000 0.000000
#
# Coordination Sequence:
#
# PCOD9454896 Si02
#       8
#     8   8   8   4   8   8   8   8
#     4  10  22  36  57  81 117 148 194 243 289 351
#     4  10  20  32  53  88 116 153 188 233 289 366
#     4   9  19  37  55  85 115 151 190 238 290 359
#     4  10  24  42  60  86 118 156 204 250 296 342
#     4  10  21  38  58  80 113 156 193 246 292 345
#     4  11  24  41  63  85 119 156 195 244 297 354
#     4  10  20  32  55  82 120 152 192 233 294 355
#     4   9  19  36  58  81 118 151 189 236 300 346
#
# _framework density 21.238565000000001
#
# number of rings (size 3 to 8) (size 9 to 14) (size 15 to 20)
#    0.000    2.133    0.667    1.600    3.733    2.133 
#    0.000    0.000    1.467    2.400    0.000    0.000 
#    0.000    0.000    0.000    0.000    0.000    0.000 
#
# Total GULP energy -334542.663548 kJ/mol
# GULP energy per Si atom -5575.711059 kJ/mol
# Density = 2.119022 g / cm^3
# Si number density = 21.238565 Si / 1000 Ang^3
#
#
#
# Elastic Constant Matrix: (Units=GPa)
#
#
# Indices 1 2 3 4 5 6 
#
# 1 26.0358 40.2802 13.5552 0.0000 0.0000 0.0000
# 2 40.2802 106.2306 5.9184 0.0000 0.0000 0.0000
# 3 13.5552 5.9184 81.4983 0.0000 0.0000 0.0000
# 4 0.0000 0.0000 0.0000 28.4177 0.0000 0.0000
# 5 0.0000 0.0000 0.0000 0.0000 19.0966 0.0000
# 6 0.0000 0.0000 0.0000 0.0000 0.0000 20.4503
#
#
#
# Elastic Compliance Matrix: (Units=1/GPa)
#
#
# Indices 1 2 3 4 5 6 
#
# 1 0.108859 -0.040432 -0.015170 0.000000 0.000000 0.000000
# 2 -0.040432 0.024469 0.004948 0.000000 0.000000 0.000000
# 3 -0.015170 0.004948 0.014434 0.000000 0.000000 0.000000
# 4 0.000000 0.000000 0.000000 0.035189 0.000000 0.000000
# 5 0.000000 0.000000 0.000000 0.000000 0.052365 0.000000
# 6 0.000000 0.000000 0.000000 0.000000 0.000000 0.048899
#
#
# Mechanical properties :
#
#
# Convention : Reuss Voigt Hill
#
# Bulk Modulus (GPa) = 21.52656 37.03027 29.27841
# Shear Modulus (GPa) = 12.46863 23.86032 18.16447
#
# Velocity S-wave (km/s) = 2.42559 3.35542 2.92765
# Velocity P-wave (km/s) = 4.24291 5.69956 5.02430
#
# Compressibility (1/GPa) = 0.04645425
#
# Stress axis : x y z
#
# Youngs Moduli (GPa) = 9.18622 40.86880 69.28089
#
# Poissons Ratio (x) = 1.65239 1.05098
# Poissons Ratio (y) = 0.37141 -0.34279
# Poissons Ratio (z) = 0.13935 -0.20221
#
# Static dielectric constant tensor:
#      x y z
#    x 1.753180 0.000000 0.000000 
#    y 0.000000 1.814230 0.000000 
#    z 0.000000 0.000000 1.949730 
# 
# From -- ./inp_files/7935.got.cif
#   From: 2010.05.17/outbox.cif.g08.bks.cpg/sg60_4_cif.got.tgz:7935.got - 2010.06.03 14:59:27.
