data_PCOD9454344
_publ_section_title
;
Structure prediction by ZEFSAII (Michael W. Deem and Ramdas Pophale) SiO2 
 PCOD9454344
Probable space group: P B C N
;
_chemical_formula_sum "Si O2"
_cell_formula_units_Z 56
_cell_length_a 13.311190
_cell_length_b 20.356900
_cell_length_c 8.573840
_cell_angle_alpha 90.000000
_cell_angle_beta 90.000000
_cell_angle_gamma 90.000000
_cell_volume 2323.292553
_symmetry_space_group_name_H-M "P B C N"
_symmetry_group_IT_number 60
_symmetry_cell_setting 'orthorhombic'
loop_
_space_group_symop_operation_xyz
x,y,z
1/2-x,1/2-y,1/2+z
1/2+x,1/2-y,-z
-x,y,1/2-z
-x,-y,-z
1/2+x,1/2+y,1/2-z
1/2-x,1/2+y,z
x,-y,1/2+z
loop_
_atom_site_type_symbol
_atom_site_label
_atom_site_fract_x
_atom_site_fract_y
_atom_site_fract_z
Si Si1 0.657282 0.991091 0.863258
Si Si2 0.742846 0.586399 0.088205
Si Si3 0.394246 0.237070 0.871813
Si Si4 0.851669 0.858074 0.157386
Si Si5 0.043784 0.132359 0.501270
Si Si6 0.805140 0.731378 0.978462
Si Si7 0.383955 0.096262 0.870033
O O1 0.705025 0.941250 0.741132
O O2 0.740515 0.029402 0.962494
O O3 0.601697 0.050328 0.777970
O O4 0.594330 0.947878 0.981327
O O5 0.623810 0.595705 0.107301
O O6 0.794511 0.655394 0.033787
O O7 0.344135 0.239280 0.698746
O O8 0.439613 0.165050 0.884788
O O9 0.464200 0.297314 0.915671
O O10 0.309028 0.243150 0.004418
O O11 0.895009 0.863112 0.332873
O O12 0.737700 0.884982 0.138926
O O13 0.933668 0.892907 0.045265
O O14 0.855929 0.781899 0.100317
#
# Coordination Sequence:
#
# PCOD9454344 Si02
#       7
#     8   8   8   8   8   8   8
#     4  10  20  32  53  74 105 136 178 202 252 298
#     4  10  19  35  51  78 103 136 169 218 246 305
#     4  10  19  32  53  77 101 130 170 219 262 299
#     4  10  21  36  52  75 107 138 170 214 261 304
#     4  10  21  36  52  75 107 138 170 214 261 304
#     4  10  19  32  53  77 101 130 170 219 262 299
#     4  10  19  35  51  78 103 136 169 218 246 305
#
# _framework density 24.103726000000002
#
# number of rings (size 3 to 8) (size 9 to 14) (size 15 to 20)
#    0.000    2.000    2.857    2.571   10.000    0.571 
#    0.000    4.286    0.000    0.000    0.000    6.000 
#    0.000    0.000    0.000    0.000    0.000    0.000 
#
# Total GULP energy -312674.606605 kJ/mol
# GULP energy per Si atom -5583.475118 kJ/mol
# Density = 2.404886 g / cm^3
# Si number density = 24.103726 Si / 1000 Ang^3
#
#
#
# Elastic Constant Matrix: (Units=GPa)
#
#
# Indices 1 2 3 4 5 6 
#
# 1 78.8365 6.9865 4.3280 0.0000 0.0000 0.0000
# 2 6.9865 105.3209 38.9432 0.0000 0.0000 0.0000
# 3 4.3280 38.9432 78.2045 0.0000 0.0000 0.0000
# 4 0.0000 0.0000 0.0000 21.9735 0.0000 0.0000
# 5 0.0000 0.0000 0.0000 0.0000 22.5116 0.0000
# 6 0.0000 0.0000 0.0000 0.0000 0.0000 -1.7814
#
#
#
# Elastic Compliance Matrix: (Units=1/GPa)
#
#
# Indices 1 2 3 4 5 6 
#
# 1 0.012767 -0.000718 -0.000349 0.000000 0.000000 0.000000
# 2 -0.000718 0.011678 -0.005775 0.000000 0.000000 0.000000
# 3 -0.000349 -0.005775 0.015682 0.000000 0.000000 0.000000
# 4 0.000000 0.000000 0.000000 0.045509 0.000000 0.000000
# 5 0.000000 0.000000 0.000000 0.000000 0.044421 0.000000
# 6 0.000000 0.000000 0.000000 0.000000 0.000000 -0.561365
#
#
# Mechanical properties :
#
#
# Convention : Reuss Voigt Hill
#
# Bulk Modulus (GPa) = 37.81772 40.31971 39.06871
# Shear Modulus (GPa) = -12.23070 22.68103 5.22517
#
# Velocity S-wave (km/s) = -2.25504 3.07086 1.47394
# Velocity P-wave (km/s) = 2.99054 5.41641 4.37498
#
# Compressibility (1/GPa) = 0.02644263
#
# Stress axis : x y z
#
# Youngs Moduli (GPa) = 78.32533 85.63155 63.76611
#
# Poissons Ratio (x) = 0.06147 0.02226
# Poissons Ratio (y) = 0.05622 0.36828
# Poissons Ratio (z) = 0.02734 0.49456
#
# Static dielectric constant tensor:
#      x y z
#    x 2.043570 0.000000 0.000000 
#    y 0.000000 1.938050 0.000000 
#    z 0.000000 0.000000 1.929920 
# 
# From -- ./inp_files/6979.got.cif
#   From: 2010.05.17/outbox.cif.g08.bks.cpg/sg60_4_cif.got.tgz:6979.got - 2010.06.03 14:59:27.
