data_PCOD9454861
_publ_section_title
;
Structure prediction by ZEFSAII (Michael W. Deem and Ramdas Pophale) SiO2 
 PCOD9454861
Probable space group: P B C N
;
_chemical_formula_sum "Si O2"
_cell_formula_units_Z 48
_cell_length_a 9.971131
_cell_length_b 12.145498
_cell_length_c 18.435959
_cell_angle_alpha 90.000000
_cell_angle_beta 90.000000
_cell_angle_gamma 90.000000
_cell_volume 2232.674861
_symmetry_space_group_name_H-M "P B C N"
_symmetry_group_IT_number 60
_symmetry_cell_setting 'orthorhombic'
loop_
_space_group_symop_operation_xyz
x,y,z
1/2-x,1/2-y,1/2+z
1/2+x,1/2-y,-z
-x,y,1/2-z
-x,-y,-z
1/2+x,1/2+y,1/2-z
1/2-x,1/2+y,z
x,-y,1/2+z
loop_
_atom_site_type_symbol
_atom_site_label
_atom_site_fract_x
_atom_site_fract_y
_atom_site_fract_z
Si Si1 0.227493 0.298776 0.261325
Si Si2 0.567100 0.578294 0.400775
Si Si3 0.412133 0.020778 0.866326
Si Si4 0.500000 0.840637 0.750000
Si Si5 0.708908 0.561398 0.013426
Si Si6 0.500000 0.386125 0.750000
Si Si7 0.347961 0.172620 0.601927
O O1 0.177796 0.393974 0.317130
O O2 0.371854 0.239544 0.261008
O O3 0.121765 0.196909 0.270451
O O4 0.213662 0.349494 0.180884
O O5 0.430202 0.568189 0.444831
O O6 0.684256 0.523321 0.447181
O O7 0.542387 0.540351 0.318464
O O8 0.598316 0.705259 0.392425
O O9 0.528104 0.090348 0.905260
O O10 0.483079 0.926574 0.817317
O O11 0.318439 0.969203 0.927576
O O12 0.751947 0.667184 0.967394
#
# Coordination Sequence:
#
# PCOD9454861 Si02
#       7
#     8   8   8   4   8   4   8
#     4  11  23  45  72 105 137 189 242 310 348 432
#     4  10  24  44  67 101 134 185 233 288 357 430
#     4  12  24  47  69 103 143 187 246 302 359 437
#     4  12  27  42  81 108 136 190 253 294 375 428
#     4  11  27  41  68 104 143 181 237 291 365 434
#     4  10  19  44  75  86 140 186 227 290 365 398
#     4  11  24  43  68  94 141 187 228 289 365 421
#
# _framework density 21.498877
#
# number of rings (size 3 to 8) (size 9 to 14) (size 15 to 20)
#    0.000    1.000    5.000    1.500    7.000    5.333 
#    0.000    0.833    0.000    0.000    0.000    0.000 
#    0.000    0.000    0.000    0.000    0.000    0.000 
#
# Total GULP energy -267969.594129 kJ/mol
# GULP energy per Si atom -5582.699878 kJ/mol
# Density = 2.144994 g / cm^3
# Si number density = 21.498877 Si / 1000 Ang^3
#
#
#
# Elastic Constant Matrix: (Units=GPa)
#
#
# Indices 1 2 3 4 5 6 
#
# 1 59.7809 4.1775 -10.6944 0.0000 0.0000 0.0000
# 2 4.1775 28.4875 10.9897 0.0000 0.0000 0.0000
# 3 -10.6944 10.9897 115.2174 0.0000 0.0000 0.0000
# 4 0.0000 0.0000 0.0000 24.6920 0.0000 0.0000
# 5 0.0000 0.0000 0.0000 0.0000 30.6161 0.0000
# 6 0.0000 0.0000 0.0000 0.0000 0.0000 29.2807
#
#
#
# Elastic Compliance Matrix: (Units=1/GPa)
#
#
# Indices 1 2 3 4 5 6 
#
# 1 0.017300 -0.003277 0.001918 0.000000 0.000000 0.000000
# 2 -0.003277 0.037065 -0.003839 0.000000 0.000000 0.000000
# 3 0.001918 -0.003839 0.009224 0.000000 0.000000 0.000000
# 4 0.000000 0.000000 0.000000 0.040499 0.000000 0.000000
# 5 0.000000 0.000000 0.000000 0.000000 0.032663 0.000000
# 6 0.000000 0.000000 0.000000 0.000000 0.000000 0.034152
#
#
# Mechanical properties :
#
#
# Convention : Reuss Voigt Hill
#
# Bulk Modulus (GPa) = 18.79979 23.60347 21.20163
# Shear Modulus (GPa) = 25.12199 30.18530 27.65365
#
# Velocity S-wave (km/s) = 3.42208 3.75112 3.59037
# Velocity P-wave (km/s) = 4.93738 5.45563 5.20296
#
# Compressibility (1/GPa) = 0.05319209
#
# Stress axis : x y z
#
# Youngs Moduli (GPa) = 57.80376 26.97977 108.41843
#
# Poissons Ratio (x) = 0.08841 -0.20798
# Poissons Ratio (y) = 0.18942 0.41627
# Poissons Ratio (z) = -0.11089 0.10359
#
# Static dielectric constant tensor:
#      x y z
#    x 1.834030 0.000000 0.000000 
#    y 0.000000 1.794600 0.000000 
#    z 0.000000 0.000000 1.847780 
# 
# From -- ./inp_files/19348.got.cif
#   From: 2010.05.17/outbox.cif.g08.bks.cpg/sg60_10_cif.got.tgz:19348.got - 2010.06.03 14:59:27.
