data_PCOD9454122
_publ_section_title
;
Structure prediction by ZEFSAII (Michael W. Deem and Ramdas Pophale) SiO2 
 PCOD9454122
Probable space group: P B C N
;
_chemical_formula_sum "Si O2"
_cell_formula_units_Z 56
_cell_length_a 11.476916
_cell_length_b 18.317838
_cell_length_c 11.625914
_cell_angle_alpha 90.000000
_cell_angle_beta 90.000000
_cell_angle_gamma 90.000000
_cell_volume 2444.142501
_symmetry_space_group_name_H-M "P B C N"
_symmetry_group_IT_number 60
_symmetry_cell_setting 'orthorhombic'
loop_
_space_group_symop_operation_xyz
x,y,z
1/2-x,1/2-y,1/2+z
1/2+x,1/2-y,-z
-x,y,1/2-z
-x,-y,-z
1/2+x,1/2+y,1/2-z
1/2-x,1/2+y,z
x,-y,1/2+z
loop_
_atom_site_type_symbol
_atom_site_label
_atom_site_fract_x
_atom_site_fract_y
_atom_site_fract_z
Si Si1 0.000000 0.025131 0.250000
Si Si2 0.881806 0.461049 0.711418
Si Si3 0.206079 0.114809 0.133088
Si Si4 0.619635 0.181364 0.071864
Si Si5 0.545605 0.732830 0.374534
Si Si6 0.171480 0.983267 0.427202
Si Si7 0.370457 0.356978 0.026815
Si Si8 0.000000 0.791689 0.250000
O O1 0.106407 0.075424 0.209549
O O2 0.054863 0.978976 0.352447
O O3 0.825176 0.414560 0.815304
O O4 0.907885 0.398478 0.618653
O O5 0.781217 0.509786 0.657263
O O6 0.000000 0.498755 0.750000
O O7 0.175293 0.199262 0.138875
O O8 0.190300 0.085633 0.005983
O O9 0.583612 0.240300 0.169805
O O10 0.543977 0.200548 0.960875
O O11 0.753021 0.180681 0.025594
O O12 0.500000 0.749849 0.250000
O O13 0.469919 0.670083 0.438004
O O14 0.157564 0.056923 0.504784
O O15 0.417810 0.334509 0.154744
#
# Coordination Sequence:
#
# PCOD9454122 Si02
#       8
#     4   8   8   8   8   8   8   4
#     4  10  18  35  58  84 130 154 195 248 310 384
#     4  10  22  42  64  82 120 167 215 262 310 376
#     4  11  21  36  62  93 121 166 201 252 320 382
#     4  10  22  38  64  87 123 167 212 261 315 377
#     4  11  21  37  61  97 126 164 205 254 323 381
#     4  10  21  38  60  94 121 169 205 260 328 378
#     4  10  22  37  60  89 131 164 209 267 320 382
#     4  10  22  39  56  98 120 168 215 266 316 386
#
# _framework density 22.911921
#
# number of rings (size 3 to 8) (size 9 to 14) (size 15 to 20)
#    0.000    1.714    2.857    2.143    4.000    1.143 
#    7.714    0.000    0.000    3.429    0.000    0.000 
#    0.000    0.000    0.000    0.000    0.000    0.000 
#
# Total GULP energy -312858.455483 kJ/mol
# GULP energy per Si atom -5586.758134 kJ/mol
# Density = 2.285977 g / cm^3
# Si number density = 22.911921 Si / 1000 Ang^3
#
#
#
# Elastic Constant Matrix: (Units=GPa)
#
#
# Indices 1 2 3 4 5 6 
#
# 1 111.4790 16.6719 32.1902 0.0000 0.0000 0.0000
# 2 16.6719 24.1478 25.8263 0.0000 0.0000 0.0000
# 3 32.1902 25.8263 140.5250 0.0000 0.0000 0.0000
# 4 0.0000 0.0000 0.0000 29.0379 0.0000 0.0000
# 5 0.0000 0.0000 0.0000 0.0000 16.5532 0.0000
# 6 0.0000 0.0000 0.0000 0.0000 0.0000 4.6818
#
#
#
# Elastic Compliance Matrix: (Units=1/GPa)
#
#
# Indices 1 2 3 4 5 6 
#
# 1 0.010189 -0.005649 -0.001296 0.000000 0.000000 0.000000
# 2 -0.005649 0.054674 -0.008754 0.000000 0.000000 0.000000
# 3 -0.001296 -0.008754 0.009022 0.000000 0.000000 0.000000
# 4 0.000000 0.000000 0.000000 0.034438 0.000000 0.000000
# 5 0.000000 0.000000 0.000000 0.000000 0.060411 0.000000
# 6 0.000000 0.000000 0.000000 0.000000 0.000000 0.213591
#
#
# Mechanical properties :
#
#
# Convention : Reuss Voigt Hill
#
# Bulk Modulus (GPa) = 23.53630 47.28095 35.40863
# Shear Modulus (GPa) = 11.68535 23.48550 17.58542
#
# Velocity S-wave (km/s) = 2.26079 3.20509 2.77343
# Velocity P-wave (km/s) = 4.13639 5.86324 5.07382
#
# Compressibility (1/GPa) = 0.04248755
#
# Stress axis : x y z
#
# Youngs Moduli (GPa) = 98.14236 18.29010 110.84086
#
# Poissons Ratio (x) = 0.10332 0.14364
# Poissons Ratio (y) = 0.55438 0.97034
# Poissons Ratio (z) = 0.12718 0.16012
#
# Static dielectric constant tensor:
#      x y z
#    x 1.897640 0.000000 0.000000 
#    y 0.000000 1.873800 0.000000 
#    z 0.000000 0.000000 1.891610 
# 
# From -- ./inp_files/11221.got.cif
#   From: 2010.05.17/outbox.cif.g08.bks.cpg/sg60_6_cif.got.tgz:11221.got - 2010.06.03 14:59:27.
