data_PCOD9454640
_publ_section_title
;
Structure prediction by ZEFSAII (Michael W. Deem and Ramdas Pophale) SiO2 
 PCOD9454640
Probable space group: P B C N
;
_chemical_formula_sum "Si O2"
_cell_formula_units_Z 48
_cell_length_a 10.221488
_cell_length_b 9.083226
_cell_length_c 28.824571
_cell_angle_alpha 90.000000
_cell_angle_beta 90.000000
_cell_angle_gamma 90.000000
_cell_volume 2676.190936
_symmetry_space_group_name_H-M "P B C N"
_symmetry_group_IT_number 60
_symmetry_cell_setting 'orthorhombic'
loop_
_space_group_symop_operation_xyz
x,y,z
1/2-x,1/2-y,1/2+z
1/2+x,1/2-y,-z
-x,y,1/2-z
-x,-y,-z
1/2+x,1/2+y,1/2-z
1/2-x,1/2+y,z
x,-y,1/2+z
loop_
_atom_site_type_symbol
_atom_site_label
_atom_site_fract_x
_atom_site_fract_y
_atom_site_fract_z
Si Si1 0.614179 0.323628 0.285621
Si Si2 0.430942 0.046059 0.611804
Si Si3 0.628637 0.406386 0.492117
Si Si4 0.172736 0.218336 0.607565
Si Si5 0.115573 0.576208 0.970968
Si Si6 0.890611 0.522063 0.782633
O O1 0.500000 0.377832 0.250000
O O2 0.606639 0.328441 0.342873
O O3 0.628035 0.151252 0.274159
O O4 0.750656 0.404159 0.276984
O O5 0.358901 0.890674 0.599655
O O6 0.450380 0.036061 0.666309
O O7 0.327816 0.180680 0.607298
O O8 0.561307 0.061083 0.581485
O O9 0.500000 0.500000 0.500000
O O10 0.628977 0.372664 0.437178
O O11 0.752658 0.494403 0.512880
O O12 0.625549 0.247356 0.516495
O O13 0.000000 0.500000 0.000000
O O14 0.000000 0.588162 0.750000
#
# Coordination Sequence:
#
# PCOD9454640 Si02
#       6
#     8   8   8   8   8   8
#     4   9  19  36  59  83 111 147 188 236 286 344
#     4  10  21  37  61  85 115 156 194 239 289 348
#     4  12  25  39  59  86 118 156 194 240 292 341
#     4  10  19  36  60  82 113 149 194 232 288 340
#     4  12  23  40  60  84 119 153 199 239 284 348
#     4   9  19  38  59  85 116 148 190 240 291 342
#
# _framework density 17.935939999999999
#
# number of rings (size 3 to 8) (size 9 to 14) (size 15 to 20)
#    0.000    1.667    3.333    1.000    2.333    0.667 
#    3.000    1.667    0.000    0.000    0.000    0.000 
#    0.000    0.000    0.000    0.000    0.000    0.000 
#
# Total GULP energy -267324.134300 kJ/mol
# GULP energy per Si atom -5569.252798 kJ/mol
# Density = 1.789512 g / cm^3
# Si number density = 17.935940 Si / 1000 Ang^3
#
#
#
# Elastic Constant Matrix: (Units=GPa)
#
#
# Indices 1 2 3 4 5 6 
#
# 1 141.3278 70.5941 82.9289 0.0000 0.0000 0.0000
# 2 70.5941 103.8591 48.1039 0.0000 0.0000 0.0000
# 3 82.9289 48.1039 105.3706 0.0000 0.0000 0.0000
# 4 0.0000 0.0000 0.0000 15.9696 0.0000 0.0000
# 5 0.0000 0.0000 0.0000 0.0000 36.6167 0.0000
# 6 0.0000 0.0000 0.0000 0.0000 0.0000 29.6761
#
#
#
# Elastic Compliance Matrix: (Units=1/GPa)
#
#
# Indices 1 2 3 4 5 6 
#
# 1 0.015879 -0.006347 -0.009600 0.000000 0.000000 0.000000
# 2 -0.006347 0.014747 -0.001737 0.000000 0.000000 0.000000
# 3 -0.009600 -0.001737 0.017838 0.000000 0.000000 0.000000
# 4 0.000000 0.000000 0.000000 0.062619 0.000000 0.000000
# 5 0.000000 0.000000 0.000000 0.000000 0.027310 0.000000
# 6 0.000000 0.000000 0.000000 0.000000 0.000000 0.033697
#
#
# Mechanical properties :
#
#
# Convention : Reuss Voigt Hill
#
# Bulk Modulus (GPa) = 76.35267 83.75681 80.05474
# Shear Modulus (GPa) = 23.60456 26.38121 24.99288
#
# Velocity S-wave (km/s) = 3.63167 3.83934 3.73695
# Velocity P-wave (km/s) = 7.76192 8.15188 7.95929
#
# Compressibility (1/GPa) = 0.01309712
#
# Stress axis : x y z
#
# Youngs Moduli (GPa) = 62.97664 67.80998 56.05876
#
# Poissons Ratio (x) = 0.43038 0.53814
# Poissons Ratio (y) = 0.39971 0.09739
# Poissons Ratio (z) = 0.60455 0.11780
#
# Static dielectric constant tensor:
#      x y z
#    x 1.605310 0.000000 0.000000 
#    y 0.000000 1.616820 0.000000 
#    z 0.000000 0.000000 1.688030 
# 
# From -- ./inp_files/25902.got.cif
#   From: 2010.05.17/outbox.cif.g08.bks.cpg/sg60_13_cif.got.tgz:25902.got - 2010.06.03 14:59:27.
