data_PCOD9454386
_publ_section_title
;
Structure prediction by ZEFSAII (Michael W. Deem and Ramdas Pophale) SiO2 
 PCOD9454386
Probable space group: P B C N
;
_chemical_formula_sum "Si O2"
_cell_formula_units_Z 48
_cell_length_a 23.617092
_cell_length_b 5.202964
_cell_length_c 21.349150
_cell_angle_alpha 90.000000
_cell_angle_beta 90.000000
_cell_angle_gamma 90.000000
_cell_volume 2623.359629
_symmetry_space_group_name_H-M "P B C N"
_symmetry_group_IT_number 60
_symmetry_cell_setting 'orthorhombic'
loop_
_space_group_symop_operation_xyz
x,y,z
1/2-x,1/2-y,1/2+z
1/2+x,1/2-y,-z
-x,y,1/2-z
-x,-y,-z
1/2+x,1/2+y,1/2-z
1/2-x,1/2+y,z
x,-y,1/2+z
loop_
_atom_site_type_symbol
_atom_site_label
_atom_site_fract_x
_atom_site_fract_y
_atom_site_fract_z
Si Si1 0.717479 0.345909 0.474718
Si Si2 0.535001 0.830745 0.813307
Si Si3 0.278837 0.409232 0.176525
Si Si4 0.604512 0.680784 0.338498
Si Si5 0.511319 0.801683 0.555448
Si Si6 0.596142 0.451012 0.976854
O O1 0.745299 0.084792 0.497787
O O2 0.722493 0.364575 0.398937
O O3 0.651392 0.380394 0.489738
O O4 0.500000 0.846083 0.750000
O O5 0.558849 0.542165 0.822928
O O6 0.496548 0.898298 0.874161
O O7 0.584647 0.044173 0.813555
O O8 0.267475 0.119177 0.199193
O O9 0.337767 0.556430 0.187066
O O10 0.611166 0.713504 0.414460
O O11 0.459257 0.605244 0.545626
O O12 0.572831 0.690612 0.538226
O O13 0.500000 0.000000 0.500000
#
# Coordination Sequence:
#
# PCOD9454386 Si02
#       6
#     8   8   8   8   8   8
#     4   9  18  28  44  70 104 134 161 204 258 303
#     4  11  22  35  51  75 106 137 172 210 259 311
#     4   9  16  27  45  72  99 127 163 203 253 302
#     4  10  19  33  51  73 106 137 163 212 256 299
#     4  10  19  33  53  75 105 138 174 214 260 307
#     4   9  19  31  50  77 104 136 173 211 256 310
#
# _framework density 18.297149999999998
#
# number of rings (size 3 to 8) (size 9 to 14) (size 15 to 20)
#    0.000    2.333    1.667    1.500    2.333    4.000 
#    0.000    0.000    0.000    0.000    0.000    7.000 
#    0.000    0.000    0.000    0.000    0.000    0.000 
#
# Total GULP energy -267204.527830 kJ/mol
# GULP energy per Si atom -5566.760996 kJ/mol
# Density = 1.825550 g / cm^3
# Si number density = 18.297150 Si / 1000 Ang^3
#
#
#
# Elastic Constant Matrix: (Units=GPa)
#
#
# Indices 1 2 3 4 5 6 
#
# 1 35.5336 -21.6399 8.0128 0.0000 0.0000 0.0000
# 2 -21.6399 35.1983 -1.9853 0.0000 0.0000 0.0000
# 3 8.0128 -1.9853 65.2003 0.0000 0.0000 0.0000
# 4 0.0000 0.0000 0.0000 13.9043 0.0000 0.0000
# 5 0.0000 0.0000 0.0000 0.0000 10.5604 0.0000
# 6 0.0000 0.0000 0.0000 0.0000 0.0000 20.9402
#
#
#
# Elastic Compliance Matrix: (Units=1/GPa)
#
#
# Indices 1 2 3 4 5 6 
#
# 1 0.046467 0.028295 -0.004849 0.000000 0.000000 0.000000
# 2 0.028295 0.045688 -0.002086 0.000000 0.000000 0.000000
# 3 -0.004849 -0.002086 0.015870 0.000000 0.000000 0.000000
# 4 0.000000 0.000000 0.000000 0.071920 0.000000 0.000000
# 5 0.000000 0.000000 0.000000 0.000000 0.094693 0.000000
# 6 0.000000 0.000000 0.000000 0.000000 0.000000 0.047755
#
#
# Mechanical properties :
#
#
# Convention : Reuss Voigt Hill
#
# Bulk Modulus (GPa) = 6.63377 11.63416 9.13396
# Shear Modulus (GPa) = 15.15506 19.18396 17.16951
#
# Velocity S-wave (km/s) = 2.88110 3.24152 3.06661
# Velocity P-wave (km/s) = 3.83420 4.51466 4.18827
#
# Compressibility (1/GPa) = 0.15074391
#
# Stress axis : x y z
#
# Youngs Moduli (GPa) = 21.52058 21.88745 63.01287
#
# Poissons Ratio (x) = -0.61930 0.30555
# Poissons Ratio (y) = -0.60891 0.13145
# Poissons Ratio (z) = 0.10435 0.04566
#
# Static dielectric constant tensor:
#      x y z
#    x 1.704030 0.000000 0.000000 
#    y 0.000000 1.713080 0.000000 
#    z 0.000000 0.000000 1.637410 
# 
# From -- ./inp_files/21126.got.cif
#   From: 2010.05.17/outbox.cif.g08.bks.cpg/sg60_11_cif.got.tgz:21126.got - 2010.06.03 14:59:27.
