data_PCOD9454526
_publ_section_title
;
Structure prediction by ZEFSAII (Michael W. Deem and Ramdas Pophale) SiO2 
 PCOD9454526
Probable space group: P B C N
;
_chemical_formula_sum "Si O2"
_cell_formula_units_Z 44
_cell_length_a 8.575428
_cell_length_b 15.442778
_cell_length_c 15.213354
_cell_angle_alpha 90.000000
_cell_angle_beta 90.000000
_cell_angle_gamma 90.000000
_cell_volume 2014.680598
_symmetry_space_group_name_H-M "P B C N"
_symmetry_group_IT_number 60
_symmetry_cell_setting 'orthorhombic'
loop_
_space_group_symop_operation_xyz
x,y,z
1/2-x,1/2-y,1/2+z
1/2+x,1/2-y,-z
-x,y,1/2-z
-x,-y,-z
1/2+x,1/2+y,1/2-z
1/2-x,1/2+y,z
x,-y,1/2+z
loop_
_atom_site_type_symbol
_atom_site_label
_atom_site_fract_x
_atom_site_fract_y
_atom_site_fract_z
Si Si1 0.632967 0.362959 0.566024
Si Si2 0.500000 0.660608 0.250000
Si Si3 0.500000 0.385700 0.250000
Si Si4 0.000000 0.434639 0.250000
Si Si5 0.755321 0.963038 0.114306
Si Si6 0.326746 0.292332 0.481009
Si Si7 0.219429 0.290995 0.170441
O O1 0.537351 0.380434 0.656404
O O2 0.707755 0.456924 0.550093
O O3 0.503690 0.327099 0.497295
O O4 0.768429 0.290361 0.575698
O O5 0.650619 0.720118 0.264319
O O6 0.395788 0.439206 0.318462
O O7 0.386556 0.324594 0.195599
O O8 0.112978 0.482864 0.318637
O O9 0.105362 0.372771 0.187527
O O10 0.734261 0.875086 0.057580
O O11 0.287830 0.253926 0.576721
#
# Coordination Sequence:
#
# PCOD9454526 Si02
#       7
#     8   4   4   4   8   8   8
#     4  11  23  41  62  91 123 162 210 260 315 378
#     4   9  19  38  60  81 119 164 203 251 314 379
#     4  10  19  34  62  94 121 158 213 262 294 362
#     4   9  20  40  62  85 124 168 212 259 306 369
#     4  11  22  40  62  89 124 164 211 260 312 370
#     4  11  22  38  62  91 128 164 201 257 320 375
#     4   9  18  35  60  89 121 162 203 250 313 371
#
# _framework density 21.839690999999998
#
# number of rings (size 3 to 8) (size 9 to 14) (size 15 to 20)
#    0.000    1.818    0.000    6.545    0.000    0.000 
#    0.000   16.364    0.000    0.000    0.000    0.000 
#    0.000    0.000    0.000    0.000    0.000    0.000 
#
# Total GULP energy -245055.907305 kJ/mol
# GULP energy per Si atom -5569.452439 kJ/mol
# Density = 2.178998 g / cm^3
# Si number density = 21.839691 Si / 1000 Ang^3
#
#
#
# Elastic Constant Matrix: (Units=GPa)
#
#
# Indices 1 2 3 4 5 6 
#
# 1 101.8083 31.9483 36.8369 0.0000 0.0000 0.0000
# 2 31.9483 123.2902 28.5106 0.0000 0.0000 0.0000
# 3 36.8369 28.5106 97.7235 0.0000 0.0000 0.0000
# 4 0.0000 0.0000 0.0000 15.1183 0.0000 0.0000
# 5 0.0000 0.0000 0.0000 0.0000 24.1071 0.0000
# 6 0.0000 0.0000 0.0000 0.0000 0.0000 9.5862
#
#
#
# Elastic Compliance Matrix: (Units=1/GPa)
#
#
# Indices 1 2 3 4 5 6 
#
# 1 0.011903 -0.002195 -0.003846 0.000000 0.000000 0.000000
# 2 -0.002195 0.009103 -0.001828 0.000000 0.000000 0.000000
# 3 -0.003846 -0.001828 0.012216 0.000000 0.000000 0.000000
# 4 0.000000 0.000000 0.000000 0.066145 0.000000 0.000000
# 5 0.000000 0.000000 0.000000 0.000000 0.041482 0.000000
# 6 0.000000 0.000000 0.000000 0.000000 0.000000 0.104317
#
#
# Mechanical properties :
#
#
# Convention : Reuss Voigt Hill
#
# Bulk Modulus (GPa) = 57.20032 57.49040 57.34536
# Shear Modulus (GPa) = 18.74542 24.79739 21.77141
#
# Velocity S-wave (km/s) = 2.93289 3.37327 3.16076
# Velocity P-wave (km/s) = 6.14141 6.44615 6.29563
#
# Compressibility (1/GPa) = 0.01748242
#
# Stress axis : x y z
#
# Youngs Moduli (GPa) = 84.01306 109.85990 81.85814
#
# Poissons Ratio (x) = 0.24114 0.31486
# Poissons Ratio (y) = 0.18440 0.14966
# Poissons Ratio (z) = 0.32315 0.20085
#
# Static dielectric constant tensor:
#      x y z
#    x 1.841860 0.000000 0.000000 
#    y 0.000000 1.798520 0.000000 
#    z 0.000000 0.000000 1.753500 
# 
# From -- ./inp_files/19250.got.cif
#   From: 2010.05.17/outbox.cif.g08.bks.cpg/sg60_10_cif.got.tgz:19250.got - 2010.06.03 14:59:27.
