data_PCOD9454542
_publ_section_title
;
Structure prediction by ZEFSAII (Michael W. Deem and Ramdas Pophale) SiO2 
 PCOD9454542
Probable space group: P B C N
;
_chemical_formula_sum "Si O2"
_cell_formula_units_Z 56
_cell_length_a 23.812949
_cell_length_b 5.486730
_cell_length_c 22.649926
_cell_angle_alpha 90.000000
_cell_angle_beta 90.000000
_cell_angle_gamma 90.000000
_cell_volume 2959.331102
_symmetry_space_group_name_H-M "P B C N"
_symmetry_group_IT_number 60
_symmetry_cell_setting 'orthorhombic'
loop_
_space_group_symop_operation_xyz
x,y,z
1/2-x,1/2-y,1/2+z
1/2+x,1/2-y,-z
-x,y,1/2-z
-x,-y,-z
1/2+x,1/2+y,1/2-z
1/2-x,1/2+y,z
x,-y,1/2+z
loop_
_atom_site_type_symbol
_atom_site_label
_atom_site_fract_x
_atom_site_fract_y
_atom_site_fract_z
Si Si1 0.512610 0.421093 0.406045
Si Si2 0.939859 0.866063 0.279404
Si Si3 0.112656 0.630658 0.767136
Si Si4 0.953147 0.687222 0.521300
Si Si5 0.259618 0.825794 0.230379
Si Si6 0.217877 0.172237 0.861357
Si Si7 0.101189 0.391320 0.892170
O O1 0.550170 0.419427 0.348189
O O2 0.481625 0.667964 0.424847
O O3 0.550526 0.355461 0.463490
O O4 0.458986 0.244707 0.393724
O O5 0.916049 0.114536 0.250661
O O6 0.000000 0.821776 0.250000
O O7 0.906729 0.614025 0.267697
O O8 0.177890 0.667606 0.754956
O O9 0.103497 0.566294 0.835496
O O10 0.899673 0.548932 0.547660
O O11 0.000000 0.500000 0.500000
O O12 0.250927 0.575300 0.196748
O O13 0.220198 0.826057 0.289224
O O14 0.253928 0.414274 0.878732
O O15 0.154615 0.213709 0.884268
#
# Coordination Sequence:
#
# PCOD9454542 Si02
#       7
#     8   8   8   8   8   8   8
#     4  10  22  40  58  84 123 157 210 240 299 360
#     4  12  25  36  55  84 126 165 194 240 293 365
#     4  12  24  35  56  88 123 161 192 241 308 364
#     4   9  21  38  62  83 112 162 199 258 287 353
#     4  10  19  35  54  78 117 149 196 243 295 358
#     4  10  21  32  54  84 119 150 186 249 301 359
#     4  11  21  35  60  85 124 154 201 239 311 359
#
# _framework density 18.923193999999999
#
# number of rings (size 3 to 8) (size 9 to 14) (size 15 to 20)
#    0.000    1.429    4.286    2.143    8.000    0.000 
#    0.000    0.000    0.000    0.000    0.000    6.000 
#    0.000    0.000    0.000    0.000    0.000    0.000 
#
# Total GULP energy -312216.018674 kJ/mol
# GULP energy per Si atom -5575.286048 kJ/mol
# Density = 1.888012 g / cm^3
# Si number density = 18.923194 Si / 1000 Ang^3
#
#
#
# Elastic Constant Matrix: (Units=GPa)
#
#
# Indices 1 2 3 4 5 6 
#
# 1 60.5069 34.7849 18.8900 0.0000 0.0000 0.0000
# 2 34.7849 139.1160 15.0910 0.0000 0.0000 0.0000
# 3 18.8900 15.0910 52.8083 0.0000 0.0000 0.0000
# 4 0.0000 0.0000 0.0000 71.6522 0.0000 0.0000
# 5 0.0000 0.0000 0.0000 0.0000 15.1311 0.0000
# 6 0.0000 0.0000 0.0000 0.0000 0.0000 13.4505
#
#
#
# Elastic Compliance Matrix: (Units=1/GPa)
#
#
# Indices 1 2 3 4 5 6 
#
# 1 0.021122 -0.004605 -0.006240 0.000000 0.000000 0.000000
# 2 -0.004605 0.008422 -0.000760 0.000000 0.000000 0.000000
# 3 -0.006240 -0.000760 0.021386 0.000000 0.000000 0.000000
# 4 0.000000 0.000000 0.000000 0.013956 0.000000 0.000000
# 5 0.000000 0.000000 0.000000 0.000000 0.066089 0.000000
# 6 0.000000 0.000000 0.000000 0.000000 0.000000 0.074347
#
#
# Mechanical properties :
#
#
# Convention : Reuss Voigt Hill
#
# Bulk Modulus (GPa) = 36.07274 43.32921 39.70097
# Shear Modulus (GPa) = 21.02869 32.29112 26.65990
#
# Velocity S-wave (km/s) = 3.33718 4.13538 3.75753
# Velocity P-wave (km/s) = 5.82693 6.76379 6.31277
#
# Compressibility (1/GPa) = 0.02772177
#
# Stress axis : x y z
#
# Youngs Moduli (GPa) = 47.34351 118.73676 46.76056
#
# Poissons Ratio (x) = 0.54673 0.29178
# Poissons Ratio (y) = 0.21800 0.03552
# Poissons Ratio (z) = 0.29541 0.09020
#
# Static dielectric constant tensor:
#      x y z
#    x 1.671330 0.000000 0.000000 
#    y 0.000000 1.788180 0.000000 
#    z 0.000000 0.000000 1.628900 
# 
# From -- ./inp_files/23284.got.cif
#   From: 2010.05.17/outbox.cif.g08.bks.cpg/sg60_12_cif.got.tgz:23284.got - 2010.06.03 14:59:27.
