data_PCOD9454404
_publ_section_title
;
Structure prediction by ZEFSAII (Michael W. Deem and Ramdas Pophale) SiO2 
 PCOD9454404
Probable space group: P B C N
;
_chemical_formula_sum "Si O2"
_cell_formula_units_Z 60
_cell_length_a 27.200619
_cell_length_b 19.878818
_cell_length_c 5.399733
_cell_angle_alpha 90.000000
_cell_angle_beta 90.000000
_cell_angle_gamma 90.000000
_cell_volume 2919.722864
_symmetry_space_group_name_H-M "P B C N"
_symmetry_group_IT_number 60
_symmetry_cell_setting 'orthorhombic'
loop_
_space_group_symop_operation_xyz
x,y,z
1/2-x,1/2-y,1/2+z
1/2+x,1/2-y,-z
-x,y,1/2-z
-x,-y,-z
1/2+x,1/2+y,1/2-z
1/2-x,1/2+y,z
x,-y,1/2+z
loop_
_atom_site_type_symbol
_atom_site_label
_atom_site_fract_x
_atom_site_fract_y
_atom_site_fract_z
Si Si1 0.791345 0.532917 0.174626
Si Si2 0.777450 0.671214 0.980951
Si Si3 0.097849 0.521232 0.912345
Si Si4 0.636769 0.834054 0.123967
Si Si5 0.323933 0.716207 0.725014
Si Si6 0.573173 0.663492 0.795313
Si Si7 0.553306 0.744607 0.305068
Si Si8 0.000000 0.956737 0.250000
O O1 0.770699 0.502830 0.918302
O O2 0.782954 0.612790 0.184006
O O3 0.849595 0.516305 0.142620
O O4 0.813341 0.645898 0.763933
O O5 0.721065 0.681595 0.914738
O O6 0.798790 0.744874 0.046805
O O7 0.072511 0.487071 0.146345
O O8 0.110352 0.598748 0.966165
O O9 0.651668 0.778296 0.924594
O O10 0.597866 0.797189 0.303292
O O11 0.368579 0.665341 0.761139
O O12 0.551642 0.708976 0.571576
O O13 0.547070 0.592301 0.767735
O O14 0.563376 0.693744 0.071549
O O15 0.500000 0.775578 0.250000
O O16 0.000000 0.000000 0.500000
#
# Coordination Sequence:
#
# PCOD9454404 Si02
#       8
#     8   8   8   8   8   8   8   4
#     4  10  20  34  54  77 108 152 209 238 275 345
#     4  12  21  36  58  87 124 166 204 254 309 383
#     4  10  19  33  54  78 109 152 204 240 275 347
#     4  11  22  35  59  87 119 160 205 254 314 376
#     4  11  24  37  57  93 129 162 206 265 325 374
#     4  11  23  42  65  94 126 163 203 269 321 384
#     4  11  21  39  65  95 123 156 203 265 324 372
#     4  12  24  44  74  96 124 172 224 268 334 412
#
# _framework density 20.549896
#
# number of rings (size 3 to 8) (size 9 to 14) (size 15 to 20)
#    0.000    1.067    6.667    2.400    0.000    0.000 
#    0.000    1.333    0.000    0.800    0.000    0.000 
#    0.000    0.000    0.000    0.000    0.000    0.000 
#
# Total GULP energy -334799.921903 kJ/mol
# GULP energy per Si atom -5579.998698 kJ/mol
# Density = 2.050312 g / cm^3
# Si number density = 20.549896 Si / 1000 Ang^3
#
#
#
# Elastic Constant Matrix: (Units=GPa)
#
#
# Indices 1 2 3 4 5 6 
#
# 1 93.5198 32.8301 9.9440 0.0000 0.0000 0.0000
# 2 32.8301 97.5818 24.6794 0.0000 0.0000 0.0000
# 3 9.9440 24.6794 109.5143 0.0000 0.0000 0.0000
# 4 0.0000 0.0000 0.0000 21.5083 0.0000 0.0000
# 5 0.0000 0.0000 0.0000 0.0000 18.5367 0.0000
# 6 0.0000 0.0000 0.0000 0.0000 0.0000 17.6394
#
#
#
# Elastic Compliance Matrix: (Units=1/GPa)
#
#
# Indices 1 2 3 4 5 6 
#
# 1 0.012129 -0.004032 -0.000193 0.000000 0.000000 0.000000
# 2 -0.004032 0.012207 -0.002385 0.000000 0.000000 0.000000
# 3 -0.000193 -0.002385 0.009686 0.000000 0.000000 0.000000
# 4 0.000000 0.000000 0.000000 0.046494 0.000000 0.000000
# 5 0.000000 0.000000 0.000000 0.000000 0.053947 0.000000
# 6 0.000000 0.000000 0.000000 0.000000 0.000000 0.056691
#
#
# Mechanical properties :
#
#
# Convention : Reuss Voigt Hill
#
# Bulk Modulus (GPa) = 48.06882 48.39144 48.23013
# Shear Modulus (GPa) = 23.66218 27.08104 25.37161
#
# Velocity S-wave (km/s) = 3.39698 3.63412 3.51755
# Velocity P-wave (km/s) = 6.23122 6.41938 6.32600
#
# Compressibility (1/GPa) = 0.02080351
#
# Stress axis : x y z
#
# Youngs Moduli (GPa) = 82.44848 81.91730 103.24000
#
# Poissons Ratio (x) = 0.33028 0.01990
# Poissons Ratio (y) = 0.33242 0.24622
# Poissons Ratio (z) = 0.01589 0.19536
#
# Static dielectric constant tensor:
#      x y z
#    x 1.702720 0.000000 0.000000 
#    y 0.000000 1.737060 0.000000 
#    z 0.000000 0.000000 1.836810 
# 
# From -- ./inp_files/2422.got.cif
#   From: 2010.05.17/outbox.cif.g08.bks.cpg/sg60_2_cif.got.tgz:2422.got - 2010.06.03 14:59:27.
