data_PCOD9454938
_publ_section_title
;
Structure prediction by ZEFSAII (Michael W. Deem and Ramdas Pophale) SiO2 
 PCOD9454938
Probable space group: P B C N
;
_chemical_formula_sum "Si O2"
_cell_formula_units_Z 44
_cell_length_a 8.738923
_cell_length_b 11.982895
_cell_length_c 20.096782
_cell_angle_alpha 90.000000
_cell_angle_beta 90.000000
_cell_angle_gamma 90.000000
_cell_volume 2104.486713
_symmetry_space_group_name_H-M "P B C N"
_symmetry_group_IT_number 60
_symmetry_cell_setting 'orthorhombic'
loop_
_space_group_symop_operation_xyz
x,y,z
1/2-x,1/2-y,1/2+z
1/2+x,1/2-y,-z
-x,y,1/2-z
-x,-y,-z
1/2+x,1/2+y,1/2-z
1/2-x,1/2+y,z
x,-y,1/2+z
loop_
_atom_site_type_symbol
_atom_site_label
_atom_site_fract_x
_atom_site_fract_y
_atom_site_fract_z
Si Si1 0.967320 0.314797 0.066309
Si Si2 0.794589 0.188480 0.955476
Si Si3 0.032946 0.917979 0.355758
Si Si4 0.685322 0.964413 0.577714
Si Si5 0.500000 0.607740 0.250000
Si Si6 0.760671 0.722159 0.178427
O O1 0.951838 0.448143 0.071172
O O2 0.862590 0.265633 0.124446
O O3 0.136567 0.266307 0.073877
O O4 0.896551 0.276368 0.995990
O O5 0.896923 0.131839 0.899396
O O6 0.729928 0.104226 0.012180
O O7 0.164469 0.962563 0.405359
O O8 0.117868 0.821363 0.312656
O O9 0.985197 0.023584 0.312072
O O10 0.660654 0.881248 0.639902
O O11 0.654134 0.679688 0.238428
#
# Coordination Sequence:
#
# PCOD9454938 Si02
#       6
#     8   8   8   8   4   8
#     4  10  20  33  55  85 118 150 187 233 291 359
#     4  11  20  33  55  85 116 147 184 236 293 354
#     4  10  21  37  57  82 112 151 199 241 287 346
#     4   9  18  35  55  81 115 151 184 231 294 355
#     4  10  22  40  62  80 110 158 200 250 298 334
#     4   9  20  39  59  81 114 154 195 242 293 347
#
# _framework density 20.907712
#
# number of rings (size 3 to 8) (size 9 to 14) (size 15 to 20)
#    0.000    2.182    0.000    4.364    0.000    4.364 
#    0.000    1.818    0.000    6.545    0.000    0.000 
#    0.000    0.000    0.000    0.000    0.000    0.000 
#
# Total GULP energy -245631.258140 kJ/mol
# GULP energy per Si atom -5582.528594 kJ/mol
# Density = 2.086013 g / cm^3
# Si number density = 20.907712 Si / 1000 Ang^3
#
#
#
# Elastic Constant Matrix: (Units=GPa)
#
#
# Indices 1 2 3 4 5 6 
#
# 1 58.2912 12.2951 19.9717 0.0000 0.0000 0.0000
# 2 12.2951 73.7225 6.8696 0.0000 0.0000 0.0000
# 3 19.9717 6.8696 46.0642 0.0000 0.0000 0.0000
# 4 0.0000 0.0000 0.0000 19.2793 0.0000 0.0000
# 5 0.0000 0.0000 0.0000 0.0000 23.2890 0.0000
# 6 0.0000 0.0000 0.0000 0.0000 0.0000 17.1029
#
#
#
# Elastic Compliance Matrix: (Units=1/GPa)
#
#
# Indices 1 2 3 4 5 6 
#
# 1 0.020645 -0.002646 -0.008556 0.000000 0.000000 0.000000
# 2 -0.002646 0.014095 -0.000955 0.000000 0.000000 0.000000
# 3 -0.008556 -0.000955 0.025561 0.000000 0.000000 0.000000
# 4 0.000000 0.000000 0.000000 0.051869 0.000000 0.000000
# 5 0.000000 0.000000 0.000000 0.000000 0.042939 0.000000
# 6 0.000000 0.000000 0.000000 0.000000 0.000000 0.058470
#
#
# Mechanical properties :
#
#
# Convention : Reuss Voigt Hill
#
# Bulk Modulus (GPa) = 27.78809 28.48340 28.13575
# Shear Modulus (GPa) = 20.00904 21.19701 20.60302
#
# Velocity S-wave (km/s) = 3.09693 3.18753 3.14256
# Velocity P-wave (km/s) = 5.10956 5.21538 5.16274
#
# Compressibility (1/GPa) = 0.03598664
#
# Stress axis : x y z
#
# Youngs Moduli (GPa) = 48.43831 70.94917 39.12229
#
# Poissons Ratio (x) = 0.18771 0.33474
# Poissons Ratio (y) = 0.12816 0.03736
# Poissons Ratio (z) = 0.41445 0.06774
#
# Static dielectric constant tensor:
#      x y z
#    x 1.758250 0.000000 0.000000 
#    y 0.000000 1.777760 0.000000 
#    z 0.000000 0.000000 1.758550 
# 
# From -- ./inp_files/23881.got.cif
#   From: 2010.05.17/outbox.cif.g08.bks.cpg/sg60_12_cif.got.tgz:23881.got - 2010.06.03 14:59:27.
