data_PCOD9454530
_publ_section_title
;
Structure prediction by ZEFSAII (Michael W. Deem and Ramdas Pophale) SiO2 
 PCOD9454530
Probable space group: P B C N
;
_chemical_formula_sum "Si O2"
_cell_formula_units_Z 48
_cell_length_a 13.331305
_cell_length_b 10.036395
_cell_length_c 19.140963
_cell_angle_alpha 90.000000
_cell_angle_beta 90.000000
_cell_angle_gamma 90.000000
_cell_volume 2561.027216
_symmetry_space_group_name_H-M "P B C N"
_symmetry_group_IT_number 60
_symmetry_cell_setting 'orthorhombic'
loop_
_space_group_symop_operation_xyz
x,y,z
1/2-x,1/2-y,1/2+z
1/2+x,1/2-y,-z
-x,y,1/2-z
-x,-y,-z
1/2+x,1/2+y,1/2-z
1/2-x,1/2+y,z
x,-y,1/2+z
loop_
_atom_site_type_symbol
_atom_site_label
_atom_site_fract_x
_atom_site_fract_y
_atom_site_fract_z
Si Si1 0.948373 0.410962 0.582451
Si Si2 0.246064 0.990290 0.480684
Si Si3 0.540610 0.689532 0.828318
Si Si4 0.034626 0.689173 0.574573
Si Si5 0.456582 0.528045 0.423083
Si Si6 0.268179 0.260927 0.080405
O O1 0.837477 0.460939 0.566134
O O2 0.977105 0.341233 0.508515
O O3 0.967502 0.299909 0.638699
O O4 0.009383 0.543398 0.603520
O O5 0.278460 0.869201 0.530952
O O6 0.153555 0.964895 0.429503
O O7 0.212897 0.110720 0.531475
O O8 0.500000 0.676589 0.750000
O O9 0.521075 0.549991 0.866719
O O10 0.653275 0.734205 0.854886
O O11 0.148334 0.729441 0.594877
O O12 0.963305 0.813933 0.590954
O O13 0.500000 0.500000 0.500000
#
# Coordination Sequence:
#
# PCOD9454530 Si02
#       6
#     8   8   8   8   8   8
#     4  10  20  36  56  91 118 151 192 253 305 355
#     4  11  20  32  65  92 116 146 202 258 301 351
#     4  12  25  40  56  82 126 167 201 252 321 373
#     4  10  19  34  65  91 117 144 206 261 290 353
#     4  12  19  38  61  94 120 151 203 262 301 359
#     4  11  19  34  57  90 112 154 198 246 307 360
#
# _framework density 18.74248
#
# number of rings (size 3 to 8) (size 9 to 14) (size 15 to 20)
#    0.000    1.000    5.000    5.000    0.000    0.000 
#    0.000    5.833    0.000    0.000    0.000    0.000 
#    0.000    0.000    0.000    0.000    0.000    0.000 
#
# Total GULP energy -267557.450163 kJ/mol
# GULP energy per Si atom -5574.113545 kJ/mol
# Density = 1.869982 g / cm^3
# Si number density = 18.742480 Si / 1000 Ang^3
#
#
#
# Elastic Constant Matrix: (Units=GPa)
#
#
# Indices 1 2 3 4 5 6 
#
# 1 110.3094 20.1507 31.7426 0.0000 0.0000 0.0000
# 2 20.1507 121.6896 41.4984 0.0000 0.0000 0.0000
# 3 31.7426 41.4984 59.2848 0.0000 0.0000 0.0000
# 4 0.0000 0.0000 0.0000 17.2854 0.0000 0.0000
# 5 0.0000 0.0000 0.0000 0.0000 15.7108 0.0000
# 6 0.0000 0.0000 0.0000 0.0000 0.0000 28.1042
#
#
#
# Elastic Compliance Matrix: (Units=1/GPa)
#
#
# Indices 1 2 3 4 5 6 
#
# 1 0.010722 0.000239 -0.005908 0.000000 0.000000 0.000000
# 2 0.000239 0.010800 -0.007688 0.000000 0.000000 0.000000
# 3 -0.005908 -0.007688 0.025413 0.000000 0.000000 0.000000
# 4 0.000000 0.000000 0.000000 0.057852 0.000000 0.000000
# 5 0.000000 0.000000 0.000000 0.000000 0.063651 0.000000
# 6 0.000000 0.000000 0.000000 0.000000 0.000000 0.035582
#
#
# Mechanical properties :
#
#
# Convention : Reuss Voigt Hill
#
# Bulk Modulus (GPa) = 49.45441 53.11855 51.28648
# Shear Modulus (GPa) = 21.05510 25.41290 23.23400
#
# Velocity S-wave (km/s) = 3.35534 3.68625 3.52468
# Velocity P-wave (km/s) = 6.43852 6.82061 6.63232
#
# Compressibility (1/GPa) = 0.02022065
#
# Stress axis : x y z
#
# Youngs Moduli (GPa) = 93.26737 92.59557 39.35067
#
# Poissons Ratio (x) = -0.02217 0.23250
# Poissons Ratio (y) = -0.02233 0.30252
# Poissons Ratio (z) = 0.55106 0.71185
#
# Static dielectric constant tensor:
#      x y z
#    x 1.741460 0.000000 0.000000 
#    y 0.000000 1.684600 0.000000 
#    z 0.000000 0.000000 1.635050 
# 
# From -- ./inp_files/20517.got.cif
#   From: 2010.05.17/outbox.cif.g08.bks.cpg/sg60_11_cif.got.tgz:20517.got - 2010.06.03 14:59:27.
