data_PCOD9454767
_publ_section_title
;
Structure prediction by ZEFSAII (Michael W. Deem and Ramdas Pophale) SiO2 
 PCOD9454767
Probable space group: P B C N
;
_chemical_formula_sum "Si O2"
_cell_formula_units_Z 64
_cell_length_a 16.343100
_cell_length_b 22.625802
_cell_length_c 8.704028
_cell_angle_alpha 90.000000
_cell_angle_beta 90.000000
_cell_angle_gamma 90.000000
_cell_volume 3218.538435
_symmetry_space_group_name_H-M "P B C N"
_symmetry_group_IT_number 60
_symmetry_cell_setting 'orthorhombic'
loop_
_space_group_symop_operation_xyz
x,y,z
1/2-x,1/2-y,1/2+z
1/2+x,1/2-y,-z
-x,y,1/2-z
-x,-y,-z
1/2+x,1/2+y,1/2-z
1/2-x,1/2+y,z
x,-y,1/2+z
loop_
_atom_site_type_symbol
_atom_site_label
_atom_site_fract_x
_atom_site_fract_y
_atom_site_fract_z
Si Si1 0.142397 0.469084 0.904306
Si Si2 0.249863 0.683260 0.162160
Si Si3 0.197600 0.087061 0.528737
Si Si4 0.200577 0.693500 0.522670
Si Si5 0.460297 0.126704 0.580352
Si Si6 0.089976 0.123548 0.257450
Si Si7 0.438520 0.491067 0.141032
Si Si8 0.118641 0.588473 0.072788
O O1 0.116377 0.446379 0.735924
O O2 0.236872 0.449543 0.927353
O O3 0.090579 0.431891 0.030339
O O4 0.130567 0.537821 0.943171
O O5 0.217071 0.688300 0.338792
O O6 0.341299 0.657425 0.164803
O O7 0.191494 0.635835 0.080596
O O8 0.260021 0.746522 0.083445
O O9 0.250317 0.139148 0.601619
O O10 0.127410 0.117881 0.426884
O O11 0.146916 0.041534 0.627881
O O12 0.105221 0.679791 0.557758
O O13 0.500000 0.125765 0.750000
O O14 0.536347 0.124494 0.463177
O O15 0.000000 0.150667 0.250000
O O16 0.081694 0.056399 0.200124
O O17 0.500000 0.455670 0.250000
O O18 0.500000 0.500000 0.000000
#
# Coordination Sequence:
#
# PCOD9454767 Si02
#       8
#     8   8   8   8   8   8   8   8
#     4  11  23  40  68 102 137 181 217 281 356 421
#     4  11  24  47  67  96 132 186 224 289 331 393
#     4  10  20  41  61  89 135 170 217 269 330 397
#     4  10  25  47  69  92 134 178 235 277 330 398
#     4  11  24  44  69 103 136 178 228 283 345 417
#     4  10  19  38  63  90 126 168 210 268 334 385
#     4  11  20  35  60  93 130 164 207 268 329 397
#     4  12  23  43  71 101 143 177 225 286 351 413
#
# _framework density 19.884801
#
# number of rings (size 3 to 8) (size 9 to 14) (size 15 to 20)
#    0.000    1.250    6.250    2.250    1.750    0.500 
#    4.500    0.000    0.000    0.000    0.000    0.000 
#    0.000    0.000    0.000    0.000    0.000    0.000 
#
# Total GULP energy -356868.749212 kJ/mol
# GULP energy per Si atom -5576.074206 kJ/mol
# Density = 1.983954 g / cm^3
# Si number density = 19.884801 Si / 1000 Ang^3
#
#
#
# Elastic Constant Matrix: (Units=GPa)
#
#
# Indices 1 2 3 4 5 6 
#
# 1 151.2750 37.2965 49.5862 0.0000 0.0000 0.0000
# 2 37.2965 95.5782 27.5500 0.0000 0.0000 0.0000
# 3 49.5862 27.5500 62.4396 0.0000 0.0000 0.0000
# 4 0.0000 0.0000 0.0000 18.2478 0.0000 0.0000
# 5 0.0000 0.0000 0.0000 0.0000 28.1376 0.0000
# 6 0.0000 0.0000 0.0000 0.0000 0.0000 26.5179
#
#
#
# Elastic Compliance Matrix: (Units=1/GPa)
#
#
# Indices 1 2 3 4 5 6 
#
# 1 0.009170 -0.001695 -0.006535 0.000000 0.000000 0.000000
# 2 -0.001695 0.012300 -0.004081 0.000000 0.000000 0.000000
# 3 -0.006535 -0.004081 0.023006 0.000000 0.000000 0.000000
# 4 0.000000 0.000000 0.000000 0.054801 0.000000 0.000000
# 5 0.000000 0.000000 0.000000 0.000000 0.035540 0.000000
# 6 0.000000 0.000000 0.000000 0.000000 0.000000 0.037710
#
#
# Mechanical properties :
#
#
# Convention : Reuss Voigt Hill
#
# Bulk Modulus (GPa) = 50.36587 59.79536 55.08062
# Shear Modulus (GPa) = 24.53773 27.57135 26.05454
#
# Velocity S-wave (km/s) = 3.51664 3.72769 3.62370
# Velocity P-wave (km/s) = 6.47092 6.97594 6.72817
#
# Compressibility (1/GPa) = 0.01985472
#
# Stress axis : x y z
#
# Youngs Moduli (GPa) = 109.04684 81.29809 43.46716
#
# Poissons Ratio (x) = 0.13779 0.28405
# Poissons Ratio (y) = 0.18482 0.17740
# Poissons Ratio (z) = 0.71260 0.33180
#
# Static dielectric constant tensor:
#      x y z
#    x 1.848850 0.000000 0.000000 
#    y 0.000000 1.682380 0.000000 
#    z 0.000000 0.000000 1.903020 
# 
# From -- ./inp_files/6311.got.cif
#   From: 2010.05.17/outbox.cif.g08.bks.cpg/sg60_4_cif.got.tgz:6311.got - 2010.06.03 14:59:27.
