data_PCOD9454462
_publ_section_title
;
Structure prediction by ZEFSAII (Michael W. Deem and Ramdas Pophale) SiO2 
 PCOD9454462
Probable space group: P B C N
;
_chemical_formula_sum "Si O2"
_cell_formula_units_Z 48
_cell_length_a 5.105661
_cell_length_b 17.435780
_cell_length_c 23.060112
_cell_angle_alpha 90.000000
_cell_angle_beta 90.000000
_cell_angle_gamma 90.000000
_cell_volume 2052.838426
_symmetry_space_group_name_H-M "P B C N"
_symmetry_group_IT_number 60
_symmetry_cell_setting 'orthorhombic'
loop_
_space_group_symop_operation_xyz
x,y,z
1/2-x,1/2-y,1/2+z
1/2+x,1/2-y,-z
-x,y,1/2-z
-x,-y,-z
1/2+x,1/2+y,1/2-z
1/2-x,1/2+y,z
x,-y,1/2+z
loop_
_atom_site_type_symbol
_atom_site_label
_atom_site_fract_x
_atom_site_fract_y
_atom_site_fract_z
Si Si1 0.504614 0.002185 0.098638
Si Si2 0.058547 0.342480 0.861233
Si Si3 0.551998 0.705625 0.431438
Si Si4 0.696434 0.428557 0.006645
Si Si5 0.322492 0.849972 0.127473
Si Si6 0.165607 0.198616 0.805452
O O1 0.298649 0.941244 0.121543
O O2 0.590874 0.066006 0.143787
O O3 0.410633 0.051192 0.042968
O O4 0.705326 0.941512 0.071297
O O5 0.262224 0.315381 0.910699
O O6 0.153648 0.291407 0.807306
O O7 0.761108 0.325586 0.882715
O O8 0.600080 0.655606 0.488893
O O9 0.594751 0.796944 0.427805
O O10 0.500000 0.500000 0.000000
O O11 0.544148 0.829731 0.176916
O O12 0.034720 0.822127 0.143576
O O13 0.000000 0.170329 0.750000
#
# Coordination Sequence:
#
# PCOD9454462 Si02
#       6
#     8   8   8   8   8   8
#     4  10  21  35  54  86 112 154 187 235 278 317
#     4   9  18  34  58  76 108 141 185 221 277 334
#     4   9  18  35  51  80 110 151 183 222 270 323
#     4  10  19  34  55  75 118 155 195 223 260 333
#     4  10  22  37  59  85 116 144 185 239 290 335
#     4  10  21  40  61  81 107 146 183 231 293 356
#
# _framework density 23.382259000000001
#
# number of rings (size 3 to 8) (size 9 to 14) (size 15 to 20)
#    0.000    2.333    1.667    0.500    2.333    0.000 
#    3.000    1.667    0.000    0.000    0.000    0.000 
#    0.000    0.000    0.000    0.000    0.000    0.000 
#
# Total GULP energy -267321.522233 kJ/mol
# GULP energy per Si atom -5569.198380 kJ/mol
# Density = 2.332904 g / cm^3
# Si number density = 23.382259 Si / 1000 Ang^3
#
#
#
# Elastic Constant Matrix: (Units=GPa)
#
#
# Indices 1 2 3 4 5 6 
#
# 1 103.2335 1.9246 12.4362 0.0000 0.0000 0.0000
# 2 1.9246 114.8948 4.9149 0.0000 0.0000 0.0000
# 3 12.4362 4.9149 22.2603 0.0000 0.0000 0.0000
# 4 0.0000 0.0000 0.0000 8.7010 0.0000 0.0000
# 5 0.0000 0.0000 0.0000 0.0000 27.8023 0.0000
# 6 0.0000 0.0000 0.0000 0.0000 0.0000 31.5039
#
#
#
# Elastic Compliance Matrix: (Units=1/GPa)
#
#
# Indices 1 2 3 4 5 6 
#
# 1 0.010386 0.000075 -0.005819 0.000000 0.000000 0.000000
# 2 0.000075 0.008787 -0.001982 0.000000 0.000000 0.000000
# 3 -0.005819 -0.001982 0.048612 0.000000 0.000000 0.000000
# 4 0.000000 0.000000 0.000000 0.114929 0.000000 0.000000
# 5 0.000000 0.000000 0.000000 0.000000 0.035968 0.000000
# 6 0.000000 0.000000 0.000000 0.000000 0.000000 0.031742
#
#
# Mechanical properties :
#
#
# Convention : Reuss Voigt Hill
#
# Bulk Modulus (GPa) = 19.10849 30.99331 25.05090
# Shear Modulus (GPa) = 17.64781 28.34231 22.99506
#
# Velocity S-wave (km/s) = 2.75026 3.48534 3.13939
# Velocity P-wave (km/s) = 4.27495 5.42961 4.88650
#
# Compressibility (1/GPa) = 0.05233275
#
# Stress axis : x y z
#
# Youngs Moduli (GPa) = 96.27979 113.80263 20.57125
#
# Poissons Ratio (x) = -0.00853 0.11971
# Poissons Ratio (y) = -0.00722 0.04077
# Poissons Ratio (z) = 0.56026 0.22556
#
# Static dielectric constant tensor:
#      x y z
#    x 2.014850 0.000000 0.000000 
#    y 0.000000 2.058370 0.000000 
#    z 0.000000 0.000000 1.997640 
# 
# From -- ./inp_files/23633.got.cif
#   From: 2010.05.17/outbox.cif.g08.bks.cpg/sg60_12_cif.got.tgz:23633.got - 2010.06.03 14:59:27.
