data_PCOD9454370
_publ_section_title
;
Structure prediction by ZEFSAII (Michael W. Deem and Ramdas Pophale) SiO2 
 PCOD9454370
Probable space group: P B C N
;
_chemical_formula_sum "Si O2"
_cell_formula_units_Z 56
_cell_length_a 9.056336
_cell_length_b 23.137206
_cell_length_c 12.163276
_cell_angle_alpha 90.000000
_cell_angle_beta 90.000000
_cell_angle_gamma 90.000000
_cell_volume 2548.672317
_symmetry_space_group_name_H-M "P B C N"
_symmetry_group_IT_number 60
_symmetry_cell_setting 'orthorhombic'
loop_
_space_group_symop_operation_xyz
x,y,z
1/2-x,1/2-y,1/2+z
1/2+x,1/2-y,-z
-x,y,1/2-z
-x,-y,-z
1/2+x,1/2+y,1/2-z
1/2-x,1/2+y,z
x,-y,1/2+z
loop_
_atom_site_type_symbol
_atom_site_label
_atom_site_fract_x
_atom_site_fract_y
_atom_site_fract_z
Si Si1 0.872359 0.591081 0.512050
Si Si2 0.144350 0.368042 0.930141
Si Si3 0.729640 0.328957 0.338603
Si Si4 0.526143 0.252941 0.071761
Si Si5 0.643284 0.212837 0.627342
Si Si6 0.322348 0.053957 0.768606
Si Si7 0.677992 0.075078 0.276547
O O1 0.889905 0.648629 0.584474
O O2 0.802957 0.548571 0.599724
O O3 0.789579 0.599231 0.397412
O O4 0.040881 0.579745 0.474931
O O5 0.239468 0.389761 0.827625
O O6 0.040519 0.314290 0.891379
O O7 0.222093 0.342783 0.037331
O O8 0.583177 0.291261 0.355052
O O9 0.838911 0.291511 0.259352
O O10 0.731309 0.391906 0.279919
O O11 0.691248 0.275487 0.083937
O O12 0.463997 0.252339 0.946415
O O13 0.500000 0.063163 0.750000
O O14 0.282039 0.992223 0.719226
O O15 0.500000 0.077607 0.250000
#
# Coordination Sequence:
#
# PCOD9454370 Si02
#       7
#     8   8   8   8   8   8   8
#     4   9  19  34  52  83 122 152 207 258 315 381
#     4  10  20  37  55  90 122 160 204 256 317 382
#     4  11  22  37  60  89 126 163 210 256 322 393
#     4  11  22  41  58  91 125 163 210 255 319 383
#     4  10  23  38  61  88 120 166 206 260 315 380
#     4  10  19  32  57  88 122 162 212 271 322 382
#     4   9  20  32  56  87 123 164 206 271 329 374
#
# _framework density 21.972225999999999
#
# number of rings (size 3 to 8) (size 9 to 14) (size 15 to 20)
#    0.000    2.000    2.857    0.429    2.000    7.429 
#    0.000    0.000    0.000    0.857    7.429    0.000 
#    0.000    0.000    0.000    0.000    0.000    0.000 
#
# Total GULP energy -311869.634979 kJ/mol
# GULP energy per Si atom -5569.100625 kJ/mol
# Density = 2.192222 g / cm^3
# Si number density = 21.972226 Si / 1000 Ang^3
#
#
#
# Elastic Constant Matrix: (Units=GPa)
#
#
# Indices 1 2 3 4 5 6 
#
# 1 29.4198 16.4158 19.4785 0.0000 0.0000 0.0000
# 2 16.4158 71.7076 36.1222 0.0000 0.0000 0.0000
# 3 19.4785 36.1222 185.2803 0.0000 0.0000 0.0000
# 4 0.0000 0.0000 0.0000 27.7937 0.0000 0.0000
# 5 0.0000 0.0000 0.0000 0.0000 25.0725 0.0000
# 6 0.0000 0.0000 0.0000 0.0000 0.0000 7.7112
#
#
#
# Elastic Compliance Matrix: (Units=1/GPa)
#
#
# Indices 1 2 3 4 5 6 
#
# 1 0.040145 -0.007834 -0.002693 0.000000 0.000000 0.000000
# 2 -0.007834 0.016993 -0.002489 0.000000 0.000000 0.000000
# 3 -0.002693 -0.002489 0.006166 0.000000 0.000000 0.000000
# 4 0.000000 0.000000 0.000000 0.035979 0.000000 0.000000
# 5 0.000000 0.000000 0.000000 0.000000 0.039884 0.000000
# 6 0.000000 0.000000 0.000000 0.000000 0.000000 0.129682
#
#
# Mechanical properties :
#
#
# Convention : Reuss Voigt Hill
#
# Bulk Modulus (GPa) = 26.83044 47.82675 37.32859
# Shear Modulus (GPa) = 16.27047 26.40823 21.33935
#
# Velocity S-wave (km/s) = 2.72417 3.47059 3.11978
# Velocity P-wave (km/s) = 4.70451 6.15420 5.47752
#
# Compressibility (1/GPa) = 0.03727111
#
# Stress axis : x y z
#
# Youngs Moduli (GPa) = 24.90981 58.84833 162.18779
#
# Poissons Ratio (x) = 0.46099 0.43680
# Poissons Ratio (y) = 0.19513 0.40375
# Poissons Ratio (z) = 0.06709 0.14650
#
# Static dielectric constant tensor:
#      x y z
#    x 1.873190 0.000000 0.000000 
#    y 0.000000 1.873950 0.000000 
#    z 0.000000 0.000000 1.944580 
# 
# From -- ./inp_files/11322.got.cif
#   From: 2010.05.17/outbox.cif.g08.bks.cpg/sg60_6_cif.got.tgz:11322.got - 2010.06.03 14:59:27.
