data_PCOD9454075
_publ_section_title
;
Structure prediction by ZEFSAII (Michael W. Deem and Ramdas Pophale) SiO2 
 PCOD9454075
Probable space group: P B C N
;
_chemical_formula_sum "Si O2"
_cell_formula_units_Z 64
_cell_length_a 10.763164
_cell_length_b 9.898262
_cell_length_c 28.077291
_cell_angle_alpha 90.000000
_cell_angle_beta 90.000000
_cell_angle_gamma 90.000000
_cell_volume 2991.259604
_symmetry_space_group_name_H-M "P B C N"
_symmetry_group_IT_number 60
_symmetry_cell_setting 'orthorhombic'
loop_
_space_group_symop_operation_xyz
x,y,z
1/2-x,1/2-y,1/2+z
1/2+x,1/2-y,-z
-x,y,1/2-z
-x,-y,-z
1/2+x,1/2+y,1/2-z
1/2-x,1/2+y,z
x,-y,1/2+z
loop_
_atom_site_type_symbol
_atom_site_label
_atom_site_fract_x
_atom_site_fract_y
_atom_site_fract_z
Si Si1 0.252491 0.362442 0.103273
Si Si2 0.346349 0.033730 0.972963
Si Si3 0.837837 0.884596 0.959386
Si Si4 0.521413 0.951010 0.126749
Si Si5 0.632380 0.720583 0.723362
Si Si6 0.501520 0.272069 0.369626
Si Si7 0.133890 0.456319 0.275499
Si Si8 0.528832 0.769313 0.522397
O O1 0.306592 0.487024 0.072630
O O2 0.228511 0.236627 0.068521
O O3 0.116891 0.391719 0.124316
O O4 0.360046 0.325500 0.140528
O O5 0.404381 0.069210 0.922330
O O6 0.353680 0.872087 0.978403
O O7 0.212020 0.083345 0.987497
O O8 0.425271 0.114104 0.013292
O O9 0.971220 0.827136 0.976177
O O10 0.604090 0.906848 0.170912
O O11 0.500236 0.110537 0.133897
O O12 0.500000 0.701508 0.750000
O O13 0.599068 0.680073 0.668488
O O14 0.747738 0.630736 0.741351
O O15 0.661521 0.881983 0.725968
O O16 0.481775 0.296465 0.425960
O O17 0.000000 0.437809 0.250000
#
# Coordination Sequence:
#
# PCOD9454075 Si02
#       8
#     8   8   8   8   8   8   8   8
#     4  12  21  37  57  89 123 170 216 260 313 381
#     4  10  18  34  54  76 116 167 203 251 309 367
#     4  12  21  34  55  83 119 168 219 258 312 374
#     4  10  21  39  63  86 125 169 212 258 330 388
#     4  10  24  48  73 101 133 168 214 273 337 397
#     4  10  22  40  61  88 127 166 211 266 324 380
#     4  10  24  47  72 101 132 169 213 271 339 401
#     4  10  19  34  54  78 117 164 206 253 306 365
#
# _framework density 21.395668000000001
#
# number of rings (size 3 to 8) (size 9 to 14) (size 15 to 20)
#    0.000    1.500    5.000    0.750    3.500    1.000 
#    2.250    0.000    0.000    0.000    0.000    0.000 
#    0.000    0.000    0.000    0.000    0.000    0.000 
#
# Total GULP energy -356628.799539 kJ/mol
# GULP energy per Si atom -5572.324993 kJ/mol
# Density = 2.134697 g / cm^3
# Si number density = 21.395668 Si / 1000 Ang^3
#
#
#
# Elastic Constant Matrix: (Units=GPa)
#
#
# Indices 1 2 3 4 5 6 
#
# 1 96.3303 42.9049 21.8950 0.0000 0.0000 0.0000
# 2 42.9049 81.3112 19.1485 0.0000 0.0000 0.0000
# 3 21.8950 19.1485 61.9816 0.0000 0.0000 0.0000
# 4 0.0000 0.0000 0.0000 18.4022 0.0000 0.0000
# 5 0.0000 0.0000 0.0000 0.0000 29.8844 0.0000
# 6 0.0000 0.0000 0.0000 0.0000 0.0000 37.4720
#
#
#
# Elastic Compliance Matrix: (Units=1/GPa)
#
#
# Indices 1 2 3 4 5 6 
#
# 1 0.014031 -0.006726 -0.002879 0.000000 0.000000 0.000000
# 2 -0.006726 0.016487 -0.002718 0.000000 0.000000 0.000000
# 3 -0.002879 -0.002718 0.017990 0.000000 0.000000 0.000000
# 4 0.000000 0.000000 0.000000 0.054341 0.000000 0.000000
# 5 0.000000 0.000000 0.000000 0.000000 0.033462 0.000000
# 6 0.000000 0.000000 0.000000 0.000000 0.000000 0.026687
#
#
# Mechanical properties :
#
#
# Convention : Reuss Voigt Hill
#
# Bulk Modulus (GPa) = 41.90324 45.28001 43.59162
# Shear Modulus (GPa) = 25.56274 27.53004 26.54639
#
# Velocity S-wave (km/s) = 3.46028 3.59097 3.52623
# Velocity P-wave (km/s) = 5.96592 6.19697 6.08254
#
# Compressibility (1/GPa) = 0.02386450
#
# Stress axis : x y z
#
# Youngs Moduli (GPa) = 71.27189 60.65270 55.58556
#
# Poissons Ratio (x) = 0.40793 0.16001
# Poissons Ratio (y) = 0.47935 0.15107
# Poissons Ratio (z) = 0.20516 0.16484
#
# Static dielectric constant tensor:
#      x y z
#    x 1.929870 0.000000 0.000000 
#    y 0.000000 1.831000 0.000000 
#    z 0.000000 0.000000 1.819110 
# 
# From -- ./inp_files/26105.got.cif
#   From: 2010.05.17/outbox.cif.g08.bks.cpg/sg60_14_cif.got.tgz:26105.got - 2010.06.03 14:59:27.
