data_PCOD9454204
_publ_section_title
;
Structure prediction by ZEFSAII (Michael W. Deem and Ramdas Pophale) SiO2 
 PCOD9454204
Probable space group: P B C N
;
_chemical_formula_sum "Si O2"
_cell_formula_units_Z 40
_cell_length_a 10.170339
_cell_length_b 14.177875
_cell_length_c 11.419976
_cell_angle_alpha 90.000000
_cell_angle_beta 90.000000
_cell_angle_gamma 90.000000
_cell_volume 1646.689679
_symmetry_space_group_name_H-M "P B C N"
_symmetry_group_IT_number 60
_symmetry_cell_setting 'orthorhombic'
loop_
_space_group_symop_operation_xyz
x,y,z
1/2-x,1/2-y,1/2+z
1/2+x,1/2-y,-z
-x,y,1/2-z
-x,-y,-z
1/2+x,1/2+y,1/2-z
1/2-x,1/2+y,z
x,-y,1/2+z
loop_
_atom_site_type_symbol
_atom_site_label
_atom_site_fract_x
_atom_site_fract_y
_atom_site_fract_z
Si Si1 0.704529 0.169904 0.755793
Si Si2 0.576080 0.002996 0.373949
Si Si3 0.000000 0.863921 0.250000
Si Si4 0.005640 0.844551 0.499017
Si Si5 0.805839 0.670085 0.497002
Si Si6 0.000000 0.163426 0.250000
O O1 0.669603 0.128171 0.627398
O O2 0.622525 0.265161 0.762314
O O3 0.859698 0.188289 0.752901
O O4 0.657796 0.093407 0.850728
O O5 0.500000 0.019067 0.250000
O O6 0.669511 0.092648 0.398127
O O7 0.500000 0.000000 0.500000
O O8 0.998195 0.906440 0.381249
O O9 0.902744 0.758636 0.488096
O O10 0.982961 0.888238 0.626976
O O11 0.153189 0.802984 0.501033
#
# Coordination Sequence:
#
# PCOD9454204 Si02
#       6
#     8   8   4   8   8   4
#     4  10  20  41  62  87 123 168 196 256 315 354
#     4  12  22  41  67  94 117 161 211 248 295 370
#     4  10  22  38  62  86 128 166 200 252 316 364
#     4  10  21  39  59  92 123 161 204 250 308 363
#     4  10  22  40  65  91 123 160 203 254 306 361
#     4  10  18  38  62  84 126 166 204 254 302 360
#
# _framework density 24.291159
#
# number of rings (size 3 to 8) (size 9 to 14) (size 15 to 20)
#    0.000    1.600    3.000    2.400    1.400    0.000 
#    3.600    5.000    0.000    0.000    0.000    0.000 
#    0.000    0.000    0.000    0.000    0.000    0.000 
#
# Total GULP energy -222933.296770 kJ/mol
# GULP energy per Si atom -5573.332419 kJ/mol
# Density = 2.423587 g / cm^3
# Si number density = 24.291159 Si / 1000 Ang^3
#
#
#
# Elastic Constant Matrix: (Units=GPa)
#
#
# Indices 1 2 3 4 5 6 
#
# 1 130.5969 52.5361 30.5515 0.0000 0.0000 0.0000
# 2 52.5361 98.2677 45.3386 0.0000 0.0000 0.0000
# 3 30.5515 45.3386 270.9996 0.0000 0.0000 0.0000
# 4 0.0000 0.0000 0.0000 5.9105 0.0000 0.0000
# 5 0.0000 0.0000 0.0000 0.0000 35.2419 0.0000
# 6 0.0000 0.0000 0.0000 0.0000 0.0000 -7.0740
#
#
#
# Elastic Compliance Matrix: (Units=1/GPa)
#
#
# Indices 1 2 3 4 5 6 
#
# 1 0.009770 -0.005110 -0.000247 0.000000 0.000000 0.000000
# 2 -0.005110 0.013700 -0.001716 0.000000 0.000000 0.000000
# 3 -0.000247 -0.001716 0.004005 0.000000 0.000000 0.000000
# 4 0.000000 0.000000 0.000000 0.169189 0.000000 0.000000
# 5 0.000000 0.000000 0.000000 0.000000 0.028375 0.000000
# 6 0.000000 0.000000 0.000000 0.000000 0.000000 -0.141362
#
#
# Mechanical properties :
#
#
# Convention : Reuss Voigt Hill
#
# Bulk Modulus (GPa) = 75.01564 84.07963 79.54763
# Shear Modulus (GPa) = 48.89253 31.57821 40.23537
#
# Velocity S-wave (km/s) = 4.49126 3.60945 4.07428
# Velocity P-wave (km/s) = 7.60553 7.21521 7.41294
#
# Compressibility (1/GPa) = 0.01333055
#
# Stress axis : x y z
#
# Youngs Moduli (GPa) = 102.35056 72.99419 249.69262
#
# Poissons Ratio (x) = 0.37298 0.06158
# Poissons Ratio (y) = 0.52298 0.42846
# Poissons Ratio (z) = 0.02524 0.12525
#
# Static dielectric constant tensor:
#      x y z
#    x 1.957500 0.000000 0.000000 
#    y 0.000000 1.855490 0.000000 
#    z 0.000000 0.000000 2.076410 
# 
# From -- ./inp_files/9822.got.cif
#   From: 2010.05.17/outbox.cif.g08.bks.cpg/sg60_5_cif.got.tgz:9822.got - 2010.06.03 14:59:27.
