data_PCOD9454160
_publ_section_title
;
Structure prediction by ZEFSAII (Michael W. Deem and Ramdas Pophale) SiO2 
 PCOD9454160
Probable space group: P B C N
;
_chemical_formula_sum "Si O2"
_cell_formula_units_Z 36
_cell_length_a 7.716266
_cell_length_b 14.438258
_cell_length_c 14.495558
_cell_angle_alpha 90.000000
_cell_angle_beta 90.000000
_cell_angle_gamma 90.000000
_cell_volume 1614.941989
_symmetry_space_group_name_H-M "P B C N"
_symmetry_group_IT_number 60
_symmetry_cell_setting 'orthorhombic'
loop_
_space_group_symop_operation_xyz
x,y,z
1/2-x,1/2-y,1/2+z
1/2+x,1/2-y,-z
-x,y,1/2-z
-x,-y,-z
1/2+x,1/2+y,1/2-z
1/2-x,1/2+y,z
x,-y,1/2+z
loop_
_atom_site_type_symbol
_atom_site_label
_atom_site_fract_x
_atom_site_fract_y
_atom_site_fract_z
Si Si1 0.500000 0.630362 0.750000
Si Si2 0.127421 0.608923 0.515944
Si Si3 0.174303 0.058605 0.023746
Si Si4 0.173671 0.480808 0.200700
Si Si5 0.530586 0.718348 0.946773
O O1 0.673469 0.567057 0.739895
O O2 0.527822 0.692946 0.839457
O O3 0.175433 0.506301 0.478544
O O4 0.104863 0.595083 0.625783
O O5 0.989334 0.673210 0.466695
O O6 0.302887 0.669456 0.508824
O O7 0.222755 0.050332 0.132044
O O8 0.128036 0.159470 0.989830
O O9 0.000000 0.000000 0.000000
O O10 0.000000 0.516477 0.250000
#
# Coordination Sequence:
#
# PCOD9454160 Si02
#       5
#     4   8   8   8   8
#     4  10  20  32  62  82 122 154 196 266 312 348
#     4   8  19  32  58  83 112 160 201 247 313 381
#     4   8  16  36  59  79 118 163 209 244 324 387
#     4   9  19  36  59  85 118 158 205 256 308 375
#     4  10  18  36  60  82 118 161 203 253 319 380
#
# _framework density 22.291823000000001
#
# number of rings (size 3 to 8) (size 9 to 14) (size 15 to 20)
#    1.333    1.778    2.222    0.000    3.111    0.000 
#    0.000    4.444   22.000    0.000    0.000    0.000 
#    0.000    0.000    0.000    0.000    0.000    0.000 
#
# Total GULP energy -200411.167642 kJ/mol
# GULP energy per Si atom -5566.976879 kJ/mol
# Density = 2.224109 g / cm^3
# Si number density = 22.291823 Si / 1000 Ang^3
#
#
#
# Elastic Constant Matrix: (Units=GPa)
#
#
# Indices 1 2 3 4 5 6 
#
# 1 113.4181 -13.4888 18.9553 0.0000 0.0000 0.0000
# 2 -13.4888 82.7840 4.7242 0.0000 0.0000 0.0000
# 3 18.9553 4.7242 37.5992 0.0000 0.0000 0.0000
# 4 0.0000 0.0000 0.0000 10.9554 0.0000 0.0000
# 5 0.0000 0.0000 0.0000 0.0000 43.8747 0.0000
# 6 0.0000 0.0000 0.0000 0.0000 0.0000 31.7114
#
#
#
# Elastic Compliance Matrix: (Units=1/GPa)
#
#
# Indices 1 2 3 4 5 6 
#
# 1 0.009921 0.001916 -0.005242 0.000000 0.000000 0.000000
# 2 0.001916 0.012537 -0.002541 0.000000 0.000000 0.000000
# 3 -0.005242 -0.002541 0.029558 0.000000 0.000000 0.000000
# 4 0.000000 0.000000 0.000000 0.091279 0.000000 0.000000
# 5 0.000000 0.000000 0.000000 0.000000 0.022792 0.000000
# 6 0.000000 0.000000 0.000000 0.000000 0.000000 0.031534
#
#
# Mechanical properties :
#
#
# Convention : Reuss Voigt Hill
#
# Bulk Modulus (GPa) = 24.82559 28.24253 26.53406
# Shear Modulus (GPa) = 22.44330 32.21567 27.32948
#
# Velocity S-wave (km/s) = 3.17645 3.80567 3.50521
# Velocity P-wave (km/s) = 4.96124 5.65755 5.32080
#
# Compressibility (1/GPa) = 0.04028102
#
# Stress axis : x y z
#
# Youngs Moduli (GPa) = 100.79741 79.76543 33.83130
#
# Poissons Ratio (x) = -0.15280 0.17735
# Poissons Ratio (y) = -0.19309 0.08596
# Poissons Ratio (z) = 0.52840 0.20268
#
# Static dielectric constant tensor:
#      x y z
#    x 2.213740 0.000000 0.000000 
#    y 0.000000 1.830390 0.000000 
#    z 0.000000 0.000000 1.807010 
# 
# From -- ./inp_files/14789.got.cif
#   From: 2010.05.17/outbox.cif.g08.bks.cpg/sg60_8_cif.got.tgz:14789.got - 2010.06.03 14:59:27.
