data_PCOD9454701
_publ_section_title
;
Structure prediction by ZEFSAII (Michael W. Deem and Ramdas Pophale) SiO2 
 PCOD9454701
Probable space group: P B C N
;
_chemical_formula_sum "Si O2"
_cell_formula_units_Z 60
_cell_length_a 14.397840
_cell_length_b 16.926283
_cell_length_c 9.671648
_cell_angle_alpha 90.000000
_cell_angle_beta 90.000000
_cell_angle_gamma 90.000000
_cell_volume 2356.999133
_symmetry_space_group_name_H-M "P B C N"
_symmetry_group_IT_number 60
_symmetry_cell_setting 'orthorhombic'
loop_
_space_group_symop_operation_xyz
x,y,z
1/2-x,1/2-y,1/2+z
1/2+x,1/2-y,-z
-x,y,1/2-z
-x,-y,-z
1/2+x,1/2+y,1/2-z
1/2-x,1/2+y,z
x,-y,1/2+z
loop_
_atom_site_type_symbol
_atom_site_label
_atom_site_fract_x
_atom_site_fract_y
_atom_site_fract_z
Si Si1 0.343366 0.367147 0.755110
Si Si2 0.775932 0.295296 0.150224
Si Si3 0.949498 0.327500 0.983589
Si Si4 0.391743 0.908615 0.160425
Si Si5 0.001932 0.147551 0.476833
Si Si6 0.630283 0.415149 0.173768
Si Si7 0.000000 0.451946 0.750000
Si Si8 0.723608 0.495792 0.423398
O O1 0.284069 0.295590 0.815115
O O2 0.413617 0.385667 0.882940
O O3 0.416459 0.345332 0.632730
O O4 0.277236 0.430199 0.682528
O O5 0.829673 0.342469 0.269591
O O6 0.673307 0.328125 0.149956
O O7 0.840702 0.320530 0.021893
O O8 0.969207 0.391868 0.867759
O O9 0.018621 0.363568 0.100791
O O10 0.975994 0.235328 0.967491
O O11 0.418001 0.982470 0.260006
O O12 0.320960 0.951320 0.054914
O O13 0.969477 0.091586 0.602107
O O14 0.655688 0.440339 0.329193
O O15 0.687524 0.470932 0.068025
#
# Coordination Sequence:
#
# PCOD9454701 Si02
#       8
#     8   8   8   8   8   8   4   8
#     4   9  18  38  63  89 110 163 215 260 306 374
#     4  10  19  37  60  83 119 156 206 251 303 383
#     4  11  21  37  57  88 119 164 201 245 310 383
#     4  11  21  35  57  84 118 158 194 246 314 375
#     4   9  19  38  65  83 116 162 218 254 305 382
#     4  10  22  40  57  92 120 159 205 263 317 375
#     4  12  24  30  54  88 126 156 190 248 306 380
#     4  10  23  38  59  88 123 154 206 260 315 368
#
# _framework density 25.456098000000001
#
# number of rings (size 3 to 8) (size 9 to 14) (size 15 to 20)
#    0.000    1.867    2.667    1.200    3.733    1.600 
#    0.000    2.667    0.000    0.000    0.000    0.000 
#    0.000    0.000    0.000    0.000    0.000    0.000 
#
# Total GULP energy -335028.324380 kJ/mol
# GULP energy per Si atom -5583.805406 kJ/mol
# Density = 2.539816 g / cm^3
# Si number density = 25.456098 Si / 1000 Ang^3
#
#
#
# Elastic Constant Matrix: (Units=GPa)
#
#
# Indices 1 2 3 4 5 6 
#
# 1 55.2027 5.3040 -14.8410 0.0000 0.0000 0.0000
# 2 5.3040 54.2482 -12.6615 0.0000 0.0000 0.0000
# 3 -14.8410 -12.6615 68.5161 0.0000 0.0000 0.0000
# 4 0.0000 0.0000 0.0000 4.4967 0.0000 0.0000
# 5 0.0000 0.0000 0.0000 0.0000 23.9129 0.0000
# 6 0.0000 0.0000 0.0000 0.0000 0.0000 16.9767
#
#
#
# Elastic Compliance Matrix: (Units=1/GPa)
#
#
# Indices 1 2 3 4 5 6 
#
# 1 0.019282 -0.000951 0.004001 0.000000 0.000000 0.000000
# 2 -0.000951 0.019312 0.003363 0.000000 0.000000 0.000000
# 3 0.004001 0.003363 0.016083 0.000000 0.000000 0.000000
# 4 0.000000 0.000000 0.000000 0.222387 0.000000 0.000000
# 5 0.000000 0.000000 0.000000 0.000000 0.041818 0.000000
# 6 0.000000 0.000000 0.000000 0.000000 0.000000 0.058904
#
#
# Mechanical properties :
#
#
# Convention : Reuss Voigt Hill
#
# Bulk Modulus (GPa) = 14.81466 14.84110 14.82788
# Shear Modulus (GPa) = 12.90446 22.42162 17.66304
#
# Velocity S-wave (km/s) = 2.25395 2.97104 2.63699
# Velocity P-wave (km/s) = 3.55050 4.19669 3.88704
#
# Compressibility (1/GPa) = 0.06750072
#
# Stress axis : x y z
#
# Youngs Moduli (GPa) = 51.86168 51.78216 62.17704
#
# Poissons Ratio (x) = 0.04927 -0.24876
# Poissons Ratio (y) = 0.04934 -0.20908
# Poissons Ratio (z) = -0.20749 -0.17412
#
# Static dielectric constant tensor:
#      x y z
#    x 2.104390 0.000000 0.000000 
#    y 0.000000 1.980900 0.000000 
#    z 0.000000 0.000000 2.079640 
# 
# From -- ./inp_files/12515.got.cif
#   From: 2010.05.17/outbox.cif.g08.bks.cpg/sg60_7_cif.got.tgz:12515.got - 2010.06.03 14:59:27.
