data_PCOD9454420
_publ_section_title
;
Structure prediction by ZEFSAII (Michael W. Deem and Ramdas Pophale) SiO2 
 PCOD9454420
Probable space group: P B C N
;
_chemical_formula_sum "Si O2"
_cell_formula_units_Z 32
_cell_length_a 4.995761
_cell_length_b 17.944296
_cell_length_c 17.426213
_cell_angle_alpha 90.000000
_cell_angle_beta 90.000000
_cell_angle_gamma 90.000000
_cell_volume 1562.180081
_symmetry_space_group_name_H-M "P B C N"
_symmetry_group_IT_number 60
_symmetry_cell_setting 'orthorhombic'
loop_
_space_group_symop_operation_xyz
x,y,z
1/2-x,1/2-y,1/2+z
1/2+x,1/2-y,-z
-x,y,1/2-z
-x,-y,-z
1/2+x,1/2+y,1/2-z
1/2-x,1/2+y,z
x,-y,1/2+z
loop_
_atom_site_type_symbol
_atom_site_label
_atom_site_fract_x
_atom_site_fract_y
_atom_site_fract_z
Si Si1 0.148600 0.375783 0.612480
Si Si2 0.162966 0.066893 0.959868
Si Si3 0.470342 0.271167 0.046869
Si Si4 0.839894 0.959111 0.672786
O O1 0.119213 0.406239 0.523707
O O2 0.127938 0.286667 0.610972
O O3 0.441020 0.404905 0.633525
O O4 0.931435 0.411535 0.668314
O O5 0.994094 0.141067 0.940975
O O6 0.238876 0.030442 0.878948
O O7 0.000000 0.000000 0.000000
O O8 0.763081 0.242824 0.022160
O O9 0.000000 0.980773 0.750000
#
# Coordination Sequence:
#
# PCOD9454420 Si02
#       4
#     8   8   8   8
#     4  10  20  37  57  80 109 145 185 229 278 331
#     4   9  19  35  59  83 109 140 184 232 277 326
#     4  10  19  33  56  85 108 136 181 231 274 322
#     4  11  22  37  55  80 112 149 185 226 278 335
#
# _framework density 20.484192
#
# number of rings (size 3 to 8) (size 9 to 14) (size 15 to 20)
#    0.000    2.000    0.000    6.000    0.000    6.000 
#    0.000    2.500    0.000    0.000    0.000    0.000 
#    0.000    0.000    0.000    0.000    0.000    0.000 
#
# Total GULP energy -178159.262224 kJ/mol
# GULP energy per Si atom -5567.476944 kJ/mol
# Density = 2.043757 g / cm^3
# Si number density = 20.484192 Si / 1000 Ang^3
#
#
#
# Elastic Constant Matrix: (Units=GPa)
#
#
# Indices 1 2 3 4 5 6 
#
# 1 79.5668 24.7452 10.6895 0.0000 0.0000 0.0000
# 2 24.7452 155.9128 26.5852 0.0000 0.0000 0.0000
# 3 10.6895 26.5852 83.5857 0.0000 0.0000 0.0000
# 4 0.0000 0.0000 0.0000 7.9935 0.0000 0.0000
# 5 0.0000 0.0000 0.0000 0.0000 27.0214 0.0000
# 6 0.0000 0.0000 0.0000 0.0000 0.0000 26.3131
#
#
#
# Elastic Compliance Matrix: (Units=1/GPa)
#
#
# Indices 1 2 3 4 5 6 
#
# 1 0.013314 -0.001927 -0.001090 0.000000 0.000000 0.000000
# 2 -0.001927 0.007061 -0.001999 0.000000 0.000000 0.000000
# 3 -0.001090 -0.001999 0.012739 0.000000 0.000000 0.000000
# 4 0.000000 0.000000 0.000000 0.125101 0.000000 0.000000
# 5 0.000000 0.000000 0.000000 0.000000 0.037008 0.000000
# 6 0.000000 0.000000 0.000000 0.000000 0.000000 0.038004
#
#
# Mechanical properties :
#
#
# Convention : Reuss Voigt Hill
#
# Bulk Modulus (GPa) = 43.32545 49.23391 46.27968
# Shear Modulus (GPa) = 19.92410 29.40196 24.66303
#
# Velocity S-wave (km/s) = 3.12213 3.79271 3.47364
# Velocity P-wave (km/s) = 5.84752 6.57775 6.22335
#
# Compressibility (1/GPa) = 0.02308112
#
# Stress axis : x y z
#
# Youngs Moduli (GPa) = 75.10988 141.63072 78.49911
#
# Poissons Ratio (x) = 0.27296 0.08554
# Poissons Ratio (y) = 0.14476 0.15694
# Poissons Ratio (z) = 0.08185 0.28315
#
# Static dielectric constant tensor:
#      x y z
#    x 1.738730 0.000000 0.000000 
#    y 0.000000 1.739680 0.000000 
#    z 0.000000 0.000000 1.841000 
# 
# From -- ./inp_files/18441.got.cif
#   From: 2010.05.17/outbox.cif.g08.bks.cpg/sg60_10_cif.got.tgz:18441.got - 2010.06.03 14:59:27.
