data_PCOD9454898
_publ_section_title
;
Structure prediction by ZEFSAII (Michael W. Deem and Ramdas Pophale) SiO2 
 PCOD9454898
Probable space group: P B C N
;
_chemical_formula_sum "Si O2"
_cell_formula_units_Z 48
_cell_length_a 19.732410
_cell_length_b 17.553952
_cell_length_c 5.489098
_cell_angle_alpha 90.000000
_cell_angle_beta 90.000000
_cell_angle_gamma 90.000000
_cell_volume 1901.323525
_symmetry_space_group_name_H-M "P B C N"
_symmetry_group_IT_number 60
_symmetry_cell_setting 'orthorhombic'
loop_
_space_group_symop_operation_xyz
x,y,z
1/2-x,1/2-y,1/2+z
1/2+x,1/2-y,-z
-x,y,1/2-z
-x,-y,-z
1/2+x,1/2+y,1/2-z
1/2-x,1/2+y,z
x,-y,1/2+z
loop_
_atom_site_type_symbol
_atom_site_label
_atom_site_fract_x
_atom_site_fract_y
_atom_site_fract_z
Si Si1 0.756675 0.204381 0.574133
Si Si2 0.593335 0.979256 0.160199
Si Si3 0.114725 0.321045 0.458190
Si Si4 0.500000 0.243687 0.250000
Si Si5 0.248379 0.461647 0.892906
Si Si6 0.000000 0.843339 0.750000
Si Si7 0.642379 0.346567 0.763176
O O1 0.748218 0.237320 0.843757
O O2 0.692582 0.151192 0.508981
O O3 0.829452 0.166119 0.536563
O O4 0.563029 0.018142 0.392840
O O5 0.666125 0.024637 0.114260
O O6 0.589719 0.888325 0.213629
O O7 0.124854 0.237508 0.342483
O O8 0.066562 0.306472 0.687832
O O9 0.491376 0.293143 0.499289
O O10 0.270255 0.508308 0.655520
O O11 0.292874 0.385220 0.862408
O O12 0.070903 0.888152 0.764437
#
# Coordination Sequence:
#
# PCOD9454898 Si02
#       7
#     8   8   8   4   8   4   8
#     4  10  20  32  54  88 116 146 196 252 300 356
#     4  10  22  39  58  86 126 163 200 254 311 363
#     4  10  22  40  65  92 122 164 210 256 310 371
#     4  10  22  40  62  94 128 158 204 266 314 362
#     4  10  22  39  58  86 126 163 200 254 311 363
#     4  10  22  40  62  94 128 158 204 266 314 362
#     4  10  22  40  65  92 122 164 210 256 310 371
#
# _framework density 25.245570000000001
#
# number of rings (size 3 to 8) (size 9 to 14) (size 15 to 20)
#    0.000    2.000    0.000    3.000    0.000   21.333 
#    0.000    1.667    0.000    0.000    0.000    0.000 
#    0.000    0.000    0.000    0.000    0.000    0.000 
#
# Total GULP energy -267248.536518 kJ/mol
# GULP energy per Si atom -5567.677844 kJ/mol
# Density = 2.518811 g / cm^3
# Si number density = 25.245570 Si / 1000 Ang^3
#
#
#
# Elastic Constant Matrix: (Units=GPa)
#
#
# Indices 1 2 3 4 5 6 
#
# 1 106.3869 14.3039 21.2496 0.0000 0.0000 0.0000
# 2 14.3039 59.1108 32.5606 0.0000 0.0000 0.0000
# 3 21.2496 32.5606 152.3824 0.0000 0.0000 0.0000
# 4 0.0000 0.0000 0.0000 21.3105 0.0000 0.0000
# 5 0.0000 0.0000 0.0000 0.0000 29.8198 0.0000
# 6 0.0000 0.0000 0.0000 0.0000 0.0000 0.0979
#
#
#
# Elastic Compliance Matrix: (Units=1/GPa)
#
#
# Indices 1 2 3 4 5 6 
#
# 1 0.009843 -0.001843 -0.000979 0.000000 0.000000 0.000000
# 2 -0.001843 0.019519 -0.003914 0.000000 0.000000 0.000000
# 3 -0.000979 -0.003914 0.007535 0.000000 0.000000 0.000000
# 4 0.000000 0.000000 0.000000 0.046925 0.000000 0.000000
# 5 0.000000 0.000000 0.000000 0.000000 0.033535 0.000000
# 6 0.000000 0.000000 0.000000 0.000000 0.000000 10.214513
#
#
# Mechanical properties :
#
#
# Convention : Reuss Voigt Hill
#
# Bulk Modulus (GPa) = 42.68642 50.45646 46.57144
# Shear Modulus (GPa) = 0.48294 26.89671 13.68983
#
# Velocity S-wave (km/s) = 0.43785 3.26759 2.33119
# Velocity P-wave (km/s) = 4.14739 5.85371 5.07280
#
# Compressibility (1/GPa) = 0.02342666
#
# Stress axis : x y z
#
# Youngs Moduli (GPa) = 101.59592 51.23163 132.70984
#
# Poissons Ratio (x) = 0.09440 0.12990
# Poissons Ratio (y) = 0.18721 0.51941
# Poissons Ratio (z) = 0.09945 0.20051
#
# Static dielectric constant tensor:
#      x y z
#    x 2.244050 0.000000 0.000000 
#    y 0.000000 2.104780 0.000000 
#    z 0.000000 0.000000 2.016230 
# 
# From -- ./inp_files/2358.got.cif
#   From: 2010.05.17/outbox.cif.g08.bks.cpg/sg60_2_cif.got.tgz:2358.got - 2010.06.03 14:59:27.
