data_PCOD9454941
_publ_section_title
;
Structure prediction by ZEFSAII (Michael W. Deem and Ramdas Pophale) SiO2 
 PCOD9454941
Probable space group: P B C N
;
_chemical_formula_sum "Si O2"
_cell_formula_units_Z 64
_cell_length_a 12.288126
_cell_length_b 24.446620
_cell_length_c 9.302646
_cell_angle_alpha 90.000000
_cell_angle_beta 90.000000
_cell_angle_gamma 90.000000
_cell_volume 2794.544132
_symmetry_space_group_name_H-M "P B C N"
_symmetry_group_IT_number 60
_symmetry_cell_setting 'orthorhombic'
loop_
_space_group_symop_operation_xyz
x,y,z
1/2-x,1/2-y,1/2+z
1/2+x,1/2-y,-z
-x,y,1/2-z
-x,-y,-z
1/2+x,1/2+y,1/2-z
1/2-x,1/2+y,z
x,-y,1/2+z
loop_
_atom_site_type_symbol
_atom_site_label
_atom_site_fract_x
_atom_site_fract_y
_atom_site_fract_z
Si Si1 0.277202 0.880181 0.470727
Si Si2 0.532469 0.652557 0.401307
Si Si3 0.869793 0.050065 0.739662
Si Si4 0.536891 0.238829 0.036349
Si Si5 0.701926 0.614486 0.995346
Si Si6 0.288185 0.431747 0.715546
Si Si7 0.154135 0.311549 0.209671
Si Si8 0.321802 0.217454 0.193458
O O1 0.178680 0.905687 0.372608
O O2 0.295274 0.931482 0.581027
O O3 0.350097 0.852573 0.345494
O O4 0.280058 0.832908 0.596069
O O5 0.500000 0.680285 0.250000
O O6 0.577549 0.699287 0.507035
O O7 0.420852 0.632265 0.469366
O O8 0.608930 0.602245 0.351972
O O9 0.000000 0.054457 0.750000
O O10 0.833886 0.987663 0.718143
O O11 0.814074 0.063473 0.891262
O O12 0.413176 0.243929 0.088861
O O13 0.607791 0.210519 0.161032
O O14 0.552692 0.206024 0.888817
O O15 0.755839 0.600465 0.146621
O O16 0.767296 0.658292 0.905085
O O17 0.222251 0.256110 0.241356
#
# Coordination Sequence:
#
# PCOD9454941 Si02
#       8
#     8   8   8   8   8   8   8   8
#     4  11  25  39  60  91 127 169 219 269 314 394
#     4  10  20  33  56  88 121 165 209 257 314 391
#     4  11  23  39  61  92 129 170 218 268 329 389
#     4  11  24  39  64  88 128 177 213 269 326 395
#     4  10  21  36  55  82 125 164 212 253 313 385
#     4  11  21  37  59  88 126 170 211 265 324 389
#     4  11  22  38  59  89 127 169 217 267 321 388
#     4  11  23  41  60  92 129 173 222 266 331 393
#
# _framework density 22.901769000000002
#
# number of rings (size 3 to 8) (size 9 to 14) (size 15 to 20)
#    0.000    1.250    1.250    5.625    1.750    3.500 
#    0.000    0.000    0.000    0.000    0.000   29.750 
#    0.000    0.000    0.000    0.000    0.000    0.000 
#
# Total GULP energy -356556.029058 kJ/mol
# GULP energy per Si atom -5571.187954 kJ/mol
# Density = 2.284964 g / cm^3
# Si number density = 22.901769 Si / 1000 Ang^3
#
#
#
# Elastic Constant Matrix: (Units=GPa)
#
#
# Indices 1 2 3 4 5 6 
#
# 1 41.1472 24.1524 8.3606 0.0000 0.0000 0.0000
# 2 24.1524 100.1468 32.1424 0.0000 0.0000 0.0000
# 3 8.3606 32.1424 154.0840 0.0000 0.0000 0.0000
# 4 0.0000 0.0000 0.0000 37.1918 0.0000 0.0000
# 5 0.0000 0.0000 0.0000 0.0000 36.5168 0.0000
# 6 0.0000 0.0000 0.0000 0.0000 0.0000 28.0827
#
#
#
# Elastic Compliance Matrix: (Units=1/GPa)
#
#
# Indices 1 2 3 4 5 6 
#
# 1 0.028313 -0.006790 -0.000120 0.000000 0.000000 0.000000
# 2 -0.006790 0.012330 -0.002204 0.000000 0.000000 0.000000
# 3 -0.000120 -0.002204 0.006956 0.000000 0.000000 0.000000
# 4 0.000000 0.000000 0.000000 0.026888 0.000000 0.000000
# 5 0.000000 0.000000 0.000000 0.000000 0.027385 0.000000
# 6 0.000000 0.000000 0.000000 0.000000 0.000000 0.035609
#
#
# Mechanical properties :
#
#
# Convention : Reuss Voigt Hill
#
# Bulk Modulus (GPa) = 34.04553 47.18766 40.61659
# Shear Modulus (GPa) = 30.21187 35.73977 32.97582
#
# Velocity S-wave (km/s) = 3.63601 3.95469 3.79869
# Velocity P-wave (km/s) = 5.70312 6.44219 6.08389
#
# Compressibility (1/GPa) = 0.02937243
#
# Stress axis : x y z
#
# Youngs Moduli (GPa) = 35.31975 81.10233 143.75735
#
# Poissons Ratio (x) = 0.55066 0.01724
# Poissons Ratio (y) = 0.23981 0.31680
# Poissons Ratio (z) = 0.00423 0.17872
#
# Static dielectric constant tensor:
#      x y z
#    x 1.984390 0.000000 0.000000 
#    y 0.000000 1.904700 0.000000 
#    z 0.000000 0.000000 1.933320 
# 
# From -- ./inp_files/6338.got.cif
#   From: 2010.05.17/outbox.cif.g08.bks.cpg/sg60_4_cif.got.tgz:6338.got - 2010.06.03 14:59:27.
