data_PCOD9454094
_publ_section_title
;
Structure prediction by ZEFSAII (Michael W. Deem and Ramdas Pophale) SiO2 
 PCOD9454094
Probable space group: P B C N
;
_chemical_formula_sum "Si O2"
_cell_formula_units_Z 48
_cell_length_a 10.484303
_cell_length_b 13.785248
_cell_length_c 19.057168
_cell_angle_alpha 90.000000
_cell_angle_beta 90.000000
_cell_angle_gamma 90.000000
_cell_volume 2754.308040
_symmetry_space_group_name_H-M "P B C N"
_symmetry_group_IT_number 60
_symmetry_cell_setting 'orthorhombic'
loop_
_space_group_symop_operation_xyz
x,y,z
1/2-x,1/2-y,1/2+z
1/2+x,1/2-y,-z
-x,y,1/2-z
-x,-y,-z
1/2+x,1/2+y,1/2-z
1/2-x,1/2+y,z
x,-y,1/2+z
loop_
_atom_site_type_symbol
_atom_site_label
_atom_site_fract_x
_atom_site_fract_y
_atom_site_fract_z
Si Si1 0.479640 0.940082 0.667486
Si Si2 0.895603 0.366943 0.404418
Si Si3 0.710900 0.930814 0.557495
Si Si4 0.588305 0.267693 0.531388
Si Si5 0.609341 0.580761 0.497547
Si Si6 0.229688 0.314031 0.601039
O O1 0.500000 0.940699 0.750000
O O2 0.606148 0.929570 0.618721
O O3 0.380208 0.855146 0.649072
O O4 0.415883 0.041043 0.643665
O O5 0.853611 0.405280 0.481923
O O6 0.796125 0.286246 0.377054
O O7 0.025325 0.306711 0.415239
O O8 0.821068 0.849086 0.565600
O O9 0.781658 0.034575 0.546808
O O10 0.469765 0.320085 0.490311
O O11 0.669072 0.210934 0.474338
O O12 0.500000 0.500000 0.500000
O O13 0.668771 0.602371 0.420490
#
# Coordination Sequence:
#
# PCOD9454094 Si02
#       6
#     8   8   8   8   8   8
#     4  12  24  39  53  82 121 163 186 223 293 351
#     4  10  19  36  61  81 108 144 196 240 282 327
#     4  10  18  34  59  83 114 144 191 243 277 333
#     4   9  18  31  57  92 105 137 185 244 292 320
#     4   9  17  30  56  86 107 134 183 246 289 316
#     4  10  19  35  56  84 113 140 186 244 282 333
#
# _framework density 17.427244999999999
#
# number of rings (size 3 to 8) (size 9 to 14) (size 15 to 20)
#    0.000    2.000    3.333    1.500    0.000    0.000 
#    3.000    0.000    0.000    0.000    0.000    0.000 
#    0.000    0.000    0.000    0.000    0.000    0.000 
#
# Total GULP energy -267299.900097 kJ/mol
# GULP energy per Si atom -5568.747919 kJ/mol
# Density = 1.738758 g / cm^3
# Si number density = 17.427245 Si / 1000 Ang^3
#
#
#
# Elastic Constant Matrix: (Units=GPa)
#
#
# Indices 1 2 3 4 5 6 
#
# 1 102.5768 47.9250 49.4717 0.0000 0.0000 0.0000
# 2 47.9250 89.7481 45.4086 0.0000 0.0000 0.0000
# 3 49.4717 45.4086 78.7309 0.0000 0.0000 0.0000
# 4 0.0000 0.0000 0.0000 10.1874 0.0000 0.0000
# 5 0.0000 0.0000 0.0000 0.0000 8.8779 0.0000
# 6 0.0000 0.0000 0.0000 0.0000 0.0000 33.3175
#
#
#
# Elastic Compliance Matrix: (Units=1/GPa)
#
#
# Indices 1 2 3 4 5 6 
#
# 1 0.015250 -0.004653 -0.006899 0.000000 0.000000 0.000000
# 2 -0.004653 0.017153 -0.006970 0.000000 0.000000 0.000000
# 3 -0.006899 -0.006970 0.021056 0.000000 0.000000 0.000000
# 4 0.000000 0.000000 0.000000 0.098160 0.000000 0.000000
# 5 0.000000 0.000000 0.000000 0.000000 0.112639 0.000000
# 6 0.000000 0.000000 0.000000 0.000000 0.000000 0.030014
#
#
# Mechanical properties :
#
#
# Convention : Reuss Voigt Hill
#
# Bulk Modulus (GPa) = 60.91343 61.85179 61.38261
# Shear Modulus (GPa) = 14.84613 19.02660 16.93637
#
# Velocity S-wave (km/s) = 2.92189 3.30778 3.12081
# Velocity P-wave (km/s) = 6.81264 7.08217 6.94871
#
# Compressibility (1/GPa) = 0.01641674
#
# Stress axis : x y z
#
# Youngs Moduli (GPa) = 65.57407 58.29834 47.49169
#
# Poissons Ratio (x) = 0.27125 0.32764
# Poissons Ratio (y) = 0.30510 0.33100
# Poissons Ratio (z) = 0.45239 0.40631
#
# Static dielectric constant tensor:
#      x y z
#    x 1.680720 0.000000 0.000000 
#    y 0.000000 1.642910 0.000000 
#    z 0.000000 0.000000 1.536910 
# 
# From -- ./inp_files/16052.got.cif
#   From: 2010.05.17/outbox.cif.g08.bks.cpg/sg60_9_cif.got.tgz:16052.got - 2010.06.03 14:59:27.
