data_PCOD9454358
_publ_section_title
;
Structure prediction by ZEFSAII (Michael W. Deem and Ramdas Pophale) SiO2 
 PCOD9454358
Probable space group: P B C N
;
_chemical_formula_sum "Si O2"
_cell_formula_units_Z 32
_cell_length_a 7.202171
_cell_length_b 22.701082
_cell_length_c 7.066557
_cell_angle_alpha 90.000000
_cell_angle_beta 90.000000
_cell_angle_gamma 90.000000
_cell_volume 1155.361396
_symmetry_space_group_name_H-M "P B C N"
_symmetry_group_IT_number 60
_symmetry_cell_setting 'orthorhombic'
loop_
_space_group_symop_operation_xyz
x,y,z
1/2-x,1/2-y,1/2+z
1/2+x,1/2-y,-z
-x,y,1/2-z
-x,-y,-z
1/2+x,1/2+y,1/2-z
1/2-x,1/2+y,z
x,-y,1/2+z
loop_
_atom_site_type_symbol
_atom_site_label
_atom_site_fract_x
_atom_site_fract_y
_atom_site_fract_z
Si Si1 0.215552 0.544072 0.286014
Si Si2 0.686625 0.795827 0.371270
Si Si3 0.777062 0.583258 0.788164
Si Si4 0.278974 0.669204 0.217046
O O1 0.253785 0.568933 0.491588
O O2 0.297144 0.478010 0.296436
O O3 0.249304 0.601344 0.151133
O O4 0.000000 0.532703 0.250000
O O5 0.500000 0.789808 0.250000
O O6 0.792677 0.849649 0.264248
O O7 0.669270 0.819414 0.585664
O O8 0.766072 0.729894 0.391973
O O9 0.000000 0.587359 0.750000
O O10 0.500000 0.669826 0.250000
#
# Coordination Sequence:
#
# PCOD9454358 Si02
#       4
#     8   8   8   8
#     4  10  19  32  55  82 112 153 200 247 296 356
#     4   9  20  38  59  85 120 160 203 248 300 365
#     4   9  17  31  53  82 110 148 203 247 284 349
#     4  10  22  39  60  89 122 155 198 254 310 360
#
# _framework density 27.696959
#
# number of rings (size 3 to 8) (size 9 to 14) (size 15 to 20)
#    0.000    2.500    0.000    3.000    0.000   12.000 
#    0.000    5.000    0.000    1.500    0.000    0.000 
#    0.000    0.000    0.000    0.000    0.000    0.000 
#
# Total GULP energy -178308.819763 kJ/mol
# GULP energy per Si atom -5572.150618 kJ/mol
# Density = 2.763392 g / cm^3
# Si number density = 27.696959 Si / 1000 Ang^3
#
#
#
# Elastic Constant Matrix: (Units=GPa)
#
#
# Indices 1 2 3 4 5 6 
#
# 1 115.3759 18.7679 -5.6007 0.0000 0.0000 0.0000
# 2 18.7679 368.4519 41.5123 0.0000 0.0000 0.0000
# 3 -5.6007 41.5123 48.6873 0.0000 0.0000 0.0000
# 4 0.0000 0.0000 0.0000 53.1740 0.0000 0.0000
# 5 0.0000 0.0000 0.0000 0.0000 14.6346 0.0000
# 6 0.0000 0.0000 0.0000 0.0000 0.0000 -18.3125
#
#
#
# Elastic Compliance Matrix: (Units=1/GPa)
#
#
# Indices 1 2 3 4 5 6 
#
# 1 0.008844 -0.000625 0.001550 0.000000 0.000000 0.000000
# 2 -0.000625 0.003047 -0.002670 0.000000 0.000000 0.000000
# 3 0.001550 -0.002670 0.022994 0.000000 0.000000 0.000000
# 4 0.000000 0.000000 0.000000 0.018806 0.000000 0.000000
# 5 0.000000 0.000000 0.000000 0.000000 0.068331 0.000000
# 6 0.000000 0.000000 0.000000 0.000000 0.000000 -0.054608
#
#
# Mechanical properties :
#
#
# Convention : Reuss Voigt Hill
#
# Bulk Modulus (GPa) = 31.85116 71.31935 51.58525
# Shear Modulus (GPa) = 61.44881 41.75494 51.60188
#
# Velocity S-wave (km/s) = 4.71532 3.88695 4.32103
# Velocity P-wave (km/s) = 6.41643 6.77866 6.60003
#
# Compressibility (1/GPa) = 0.03139603
#
# Stress axis : x y z
#
# Youngs Moduli (GPa) = 113.06737 328.22608 43.49003
#
# Poissons Ratio (x) = 0.20520 -0.06743
# Poissons Ratio (y) = 0.07069 0.11610
# Poissons Ratio (z) = -0.17530 0.87624
#
# Static dielectric constant tensor:
#      x y z
#    x 2.149970 0.000000 0.000000 
#    y 0.000000 2.348550 0.000000 
#    z 0.000000 0.000000 2.258320 
# 
# From -- ./inp_files/3762.got.cif
#   From: 2010.05.17/outbox.cif.g08.bks.cpg/sg60_2_cif.got.tgz:3762.got - 2010.06.03 14:59:27.
