data_PCOD9454353
_publ_section_title
;
Structure prediction by ZEFSAII (Michael W. Deem and Ramdas Pophale) SiO2 
 PCOD9454353
Probable space group: P B C N
;
_chemical_formula_sum "Si O2"
_cell_formula_units_Z 52
_cell_length_a 5.439023
_cell_length_b 25.804128
_cell_length_c 18.974096
_cell_angle_alpha 90.000000
_cell_angle_beta 90.000000
_cell_angle_gamma 90.000000
_cell_volume 2663.000061
_symmetry_space_group_name_H-M "P B C N"
_symmetry_group_IT_number 60
_symmetry_cell_setting 'orthorhombic'
loop_
_space_group_symop_operation_xyz
x,y,z
1/2-x,1/2-y,1/2+z
1/2+x,1/2-y,-z
-x,y,1/2-z
-x,-y,-z
1/2+x,1/2+y,1/2-z
1/2-x,1/2+y,z
x,-y,1/2+z
loop_
_atom_site_type_symbol
_atom_site_label
_atom_site_fract_x
_atom_site_fract_y
_atom_site_fract_z
Si Si1 0.934000 0.748543 0.907780
Si Si2 0.500000 0.594798 0.250000
Si Si3 0.935781 0.917323 0.477865
Si Si4 0.662571 0.907126 0.620294
Si Si5 0.854075 0.321553 0.811592
Si Si6 0.433487 0.305594 0.440916
Si Si7 0.185313 0.487158 0.563137
O O1 0.858731 0.788715 0.847464
O O2 0.697515 0.710785 0.909931
O O3 0.194693 0.719347 0.903293
O O4 0.930829 0.781313 0.980403
O O5 0.625510 0.574771 0.176284
O O6 0.278082 0.629992 0.223768
O O7 0.066934 0.867533 0.445604
O O8 0.120963 0.950000 0.525738
O O9 0.745448 0.900404 0.538960
O O10 0.815429 0.957613 0.422371
O O11 0.547371 0.850522 0.637594
O O12 0.461129 0.953474 0.620181
O O13 0.000000 0.292182 0.750000
O O14 0.000000 0.500000 0.500000
#
# Coordination Sequence:
#
# PCOD9454353 Si02
#       7
#     8   4   8   8   8   8   8
#     4  10  22  35  51  83 114 159 190 239 291 353
#     4  10  20  32  52  80 114 148 192 242 300 342
#     4  10  20  34  53  81 115 158 185 238 293 368
#     4  10  19  32  54  79 115 156 192 240 294 372
#     4  10  22  35  56  79 120 155 194 244 296 357
#     4  10  22  33  55  78 121 154 192 234 294 351
#     4   9  19  32  53  77 116 151 185 228 295 356
#
# _framework density 19.526848999999999
#
# number of rings (size 3 to 8) (size 9 to 14) (size 15 to 20)
#    0.000    2.154    0.000    2.769   15.077    0.000 
#    0.000    0.000    0.000    0.000    0.000    0.000 
#   90.000    0.000    0.000    0.000    0.000    0.000 
#
# Total GULP energy -289527.451928 kJ/mol
# GULP energy per Si atom -5567.835614 kJ/mol
# Density = 1.948241 g / cm^3
# Si number density = 19.526849 Si / 1000 Ang^3
#
#
#
# Elastic Constant Matrix: (Units=GPa)
#
#
# Indices 1 2 3 4 5 6 
#
# 1 78.4052 33.3861 6.5799 0.0000 0.0000 0.0000
# 2 33.3861 98.5293 16.2017 0.0000 0.0000 0.0000
# 3 6.5799 16.2017 32.1186 0.0000 0.0000 0.0000
# 4 0.0000 0.0000 0.0000 -4.1057 0.0000 0.0000
# 5 0.0000 0.0000 0.0000 0.0000 35.3765 0.0000
# 6 0.0000 0.0000 0.0000 0.0000 0.0000 34.6744
#
#
#
# Elastic Compliance Matrix: (Units=1/GPa)
#
#
# Indices 1 2 3 4 5 6 
#
# 1 0.014914 -0.004963 -0.000552 0.000000 0.000000 0.000000
# 2 -0.004963 0.012719 -0.005399 0.000000 0.000000 0.000000
# 3 -0.000552 -0.005399 0.033971 0.000000 0.000000 0.000000
# 4 0.000000 0.000000 0.000000 -0.243566 0.000000 0.000000
# 5 0.000000 0.000000 0.000000 0.000000 0.028267 0.000000
# 6 0.000000 0.000000 0.000000 0.000000 0.000000 0.028840
#
#
# Mechanical properties :
#
#
# Convention : Reuss Voigt Hill
#
# Bulk Modulus (GPa) = 25.14067 35.70983 30.42525
# Shear Modulus (GPa) = -55.69846 23.38142 -16.15852
#
# Velocity S-wave (km/s) = -5.34658 3.46410 -2.87976
# Velocity P-wave (km/s) = 5.02113 5.85894 2.13489
#
# Compressibility (1/GPa) = 0.03977619
#
# Stress axis : x y z
#
# Youngs Moduli (GPa) = 67.05218 78.62482 29.43680
#
# Poissons Ratio (x) = 0.39019 0.01625
# Poissons Ratio (y) = 0.33276 0.15893
# Poissons Ratio (z) = 0.03701 0.42450
#
# Static dielectric constant tensor:
#      x y z
#    x 1.615230 0.000000 0.000000 
#    y 0.000000 1.757270 0.000000 
#    z 0.000000 0.000000 -0.634790 
# 
# From -- ./inp_files/18755.got.cif
#   From: 2010.05.17/outbox.cif.g08.bks.cpg/sg60_10_cif.got.tgz:18755.got - 2010.06.03 14:59:27.
