data_PCOD9454387
_publ_section_title
;
Structure prediction by ZEFSAII (Michael W. Deem and Ramdas Pophale) SiO2 
 PCOD9454387
Probable space group: P B C N
;
_chemical_formula_sum "Si O2"
_cell_formula_units_Z 64
_cell_length_a 5.466472
_cell_length_b 27.078447
_cell_length_c 23.960121
_cell_angle_alpha 90.000000
_cell_angle_beta 90.000000
_cell_angle_gamma 90.000000
_cell_volume 3546.662704
_symmetry_space_group_name_H-M "P B C N"
_symmetry_group_IT_number 60
_symmetry_cell_setting 'orthorhombic'
loop_
_space_group_symop_operation_xyz
x,y,z
1/2-x,1/2-y,1/2+z
1/2+x,1/2-y,-z
-x,y,1/2-z
-x,-y,-z
1/2+x,1/2+y,1/2-z
1/2-x,1/2+y,z
x,-y,1/2+z
loop_
_atom_site_type_symbol
_atom_site_label
_atom_site_fract_x
_atom_site_fract_y
_atom_site_fract_z
Si Si1 0.955297 0.464761 0.053997
Si Si2 0.920076 0.798470 0.422275
Si Si3 0.453609 0.501823 0.067121
Si Si4 0.985712 0.889321 0.584357
Si Si5 0.629307 0.129198 0.991082
Si Si6 0.994666 0.179533 0.184425
Si Si7 0.001901 0.258332 0.684372
Si Si8 0.758806 0.701126 0.475393
O O1 0.718803 0.482974 0.087452
O O2 0.221543 0.468449 0.082469
O O3 0.928822 0.408422 0.032953
O O4 0.000000 0.500000 0.000000
O O5 0.795750 0.849493 0.441284
O O6 0.755081 0.751957 0.442555
O O7 0.974938 0.787402 0.358144
O O8 0.155640 0.793402 0.462342
O O9 0.388371 0.557517 0.084754
O O10 0.500000 0.500000 0.000000
O O11 0.762230 0.898788 0.541654
O O12 0.951238 0.868337 0.646080
O O13 0.112351 0.842528 0.554703
O O14 0.526083 0.178052 0.020355
O O15 0.757556 0.214322 0.173212
O O16 0.000000 0.167420 0.250000
O O17 0.258732 0.206388 0.174169
O O18 0.000000 0.245211 0.750000
#
# Coordination Sequence:
#
# PCOD9454387 Si02
#       8
#     8   8   8   8   8   8   8   8
#     4  10  19  34  49  71 109 136 178 213 260 321
#     4  11  22  32  49  78 111 146 185 218 273 328
#     4  10  19  33  51  75 104 137 178 212 256 325
#     4  11  21  32  56  76 109 150 176 220 282 326
#     4  11  22  32  50  76 112 149 177 225 273 333
#     4  10  22  37  55  79 106 141 186 227 265 323
#     4  10  22  40  57  73 107 150 190 226 261 316
#     4  11  21  32  47  77 114 144 175 214 273 336
#
# _framework density 18.045134000000001
#
# number of rings (size 3 to 8) (size 9 to 14) (size 15 to 20)
#    0.000    1.500    5.000    2.250    5.250    0.000 
#    0.000    0.000    0.000    0.000    0.000    0.875 
#    3.750    0.000    0.000    0.000    0.000    0.000 
#
# Total GULP energy -356301.342068 kJ/mol
# GULP energy per Si atom -5567.208470 kJ/mol
# Density = 1.800406 g / cm^3
# Si number density = 18.045134 Si / 1000 Ang^3
#
#
#
# Elastic Constant Matrix: (Units=GPa)
#
#
# Indices 1 2 3 4 5 6 
#
# 1 87.4748 10.2384 5.9936 0.0000 0.0000 0.0000
# 2 10.2384 67.9970 23.0308 0.0000 0.0000 0.0000
# 3 5.9936 23.0308 72.0253 0.0000 0.0000 0.0000
# 4 0.0000 0.0000 0.0000 15.2083 0.0000 0.0000
# 5 0.0000 0.0000 0.0000 0.0000 7.2973 0.0000
# 6 0.0000 0.0000 0.0000 0.0000 0.0000 26.6967
#
#
#
# Elastic Compliance Matrix: (Units=1/GPa)
#
#
# Indices 1 2 3 4 5 6 
#
# 1 0.011650 -0.001599 -0.000458 0.000000 0.000000 0.000000
# 2 -0.001599 0.016712 -0.005211 0.000000 0.000000 0.000000
# 3 -0.000458 -0.005211 0.015588 0.000000 0.000000 0.000000
# 4 0.000000 0.000000 0.000000 0.065754 0.000000 0.000000
# 5 0.000000 0.000000 0.000000 0.000000 0.137036 0.000000
# 6 0.000000 0.000000 0.000000 0.000000 0.000000 0.037458
#
#
# Mechanical properties :
#
#
# Convention : Reuss Voigt Hill
#
# Bulk Modulus (GPa) = 33.99636 34.00250 33.99943
# Shear Modulus (GPa) = 16.20536 22.38941 19.29739
#
# Velocity S-wave (km/s) = 2.99999 3.52624 3.27371
# Velocity P-wave (km/s) = 5.55702 5.95509 5.75950
#
# Compressibility (1/GPa) = 0.02941491
#
# Stress axis : x y z
#
# Youngs Moduli (GPa) = 85.83387 59.83644 64.15047
#
# Poissons Ratio (x) = 0.09568 0.02939
# Poissons Ratio (y) = 0.13725 0.33428
# Poissons Ratio (z) = 0.03933 0.31180
#
# Static dielectric constant tensor:
#      x y z
#    x 2.023320 0.000000 0.000000 
#    y 0.000000 1.657150 0.000000 
#    z 0.000000 0.000000 1.658340 
# 
# From -- ./inp_files/23788.got.cif
#   From: 2010.05.17/outbox.cif.g08.bks.cpg/sg60_12_cif.got.tgz:23788.got - 2010.06.03 14:59:27.
