data_PCOD9454191
_publ_section_title
;
Structure prediction by ZEFSAII (Michael W. Deem and Ramdas Pophale) SiO2 
 PCOD9454191
Probable space group: P B C N
;
_chemical_formula_sum "Si O2"
_cell_formula_units_Z 60
_cell_length_a 14.911873
_cell_length_b 8.349120
_cell_length_c 19.418229
_cell_angle_alpha 90.000000
_cell_angle_beta 90.000000
_cell_angle_gamma 90.000000
_cell_volume 2417.589261
_symmetry_space_group_name_H-M "P B C N"
_symmetry_group_IT_number 60
_symmetry_cell_setting 'orthorhombic'
loop_
_space_group_symop_operation_xyz
x,y,z
1/2-x,1/2-y,1/2+z
1/2+x,1/2-y,-z
-x,y,1/2-z
-x,-y,-z
1/2+x,1/2+y,1/2-z
1/2-x,1/2+y,z
x,-y,1/2+z
loop_
_atom_site_type_symbol
_atom_site_label
_atom_site_fract_x
_atom_site_fract_y
_atom_site_fract_z
Si Si1 0.171815 0.631082 0.168840
Si Si2 0.293673 0.746797 0.373628
Si Si3 0.500000 0.535679 0.250000
Si Si4 0.900153 0.250343 0.690885
Si Si5 0.614784 0.189764 0.976842
Si Si6 0.149726 0.264731 0.214543
Si Si7 0.486089 0.060459 0.097283
Si Si8 0.274683 0.515462 0.976105
O O1 0.135119 0.735356 0.231793
O O2 0.156900 0.448953 0.193487
O O3 0.274904 0.675597 0.168838
O O4 0.108494 0.656204 0.103343
O O5 0.186951 0.740993 0.356915
O O6 0.333722 0.761521 0.297860
O O7 0.297623 0.889088 0.428379
O O8 0.321820 0.595665 0.418822
O O9 0.548469 0.417415 0.195319
O O10 0.563910 0.654252 0.291515
O O11 0.963772 0.397120 0.668359
O O12 0.552232 0.135595 0.041202
O O13 0.653237 0.368585 0.987646
O O14 0.709355 0.090528 0.976015
O O15 0.547674 0.119930 0.918037
#
# Coordination Sequence:
#
# PCOD9454191 Si02
#       8
#     8   8   4   8   8   8   8   8
#     4  11  24  41  65  91 134 170 219 259 339 382
#     4  10  19  35  64  86 122 154 211 265 307 368
#     4  12  24  36  60  96 136 162 220 252 318 398
#     4  11  20  39  65  89 122 172 207 266 323 382
#     4  10  24  38  67  91 118 171 219 266 320 384
#     4  11  25  38  60 101 127 176 210 266 325 398
#     4  11  22  42  65  87 128 171 218 259 327 393
#     4  10  18  37  60  92 113 156 213 263 308 368
#
# _framework density 24.818110999999998
#
# number of rings (size 3 to 8) (size 9 to 14) (size 15 to 20)
#    0.000    1.333    4.000    4.000    1.867    1.067 
#    0.000    0.000    0.000    6.400    0.000    0.000 
#    0.000    0.000    0.000    0.000    0.000    0.000 
#
# Total GULP energy -334849.715793 kJ/mol
# GULP energy per Si atom -5580.828597 kJ/mol
# Density = 2.476162 g / cm^3
# Si number density = 24.818111 Si / 1000 Ang^3
#
#
#
# Elastic Constant Matrix: (Units=GPa)
#
#
# Indices 1 2 3 4 5 6 
#
# 1 114.8019 34.3427 2.0249 0.0000 0.0000 0.0000
# 2 34.3427 112.6195 0.3707 0.0000 0.0000 0.0000
# 3 2.0249 0.3707 55.2204 0.0000 0.0000 0.0000
# 4 0.0000 0.0000 0.0000 26.1865 0.0000 0.0000
# 5 0.0000 0.0000 0.0000 0.0000 27.1768 0.0000
# 6 0.0000 0.0000 0.0000 0.0000 0.0000 12.3132
#
#
#
# Elastic Compliance Matrix: (Units=1/GPa)
#
#
# Indices 1 2 3 4 5 6 
#
# 1 0.009591 -0.002924 -0.000332 0.000000 0.000000 0.000000
# 2 -0.002924 0.009771 0.000042 0.000000 0.000000 0.000000
# 3 -0.000332 0.000042 0.018121 0.000000 0.000000 0.000000
# 4 0.000000 0.000000 0.000000 0.038188 0.000000 0.000000
# 5 0.000000 0.000000 0.000000 0.000000 0.036796 0.000000
# 6 0.000000 0.000000 0.000000 0.000000 0.000000 0.081213
#
#
# Mechanical properties :
#
#
# Convention : Reuss Voigt Hill
#
# Bulk Modulus (GPa) = 32.20103 39.56870 35.88487
# Shear Modulus (GPa) = 23.75747 29.52887 26.64317
#
# Velocity S-wave (km/s) = 3.09732 3.45311 3.28004
# Velocity P-wave (km/s) = 5.07880 5.64594 5.36986
#
# Compressibility (1/GPa) = 0.03105490
#
# Stress axis : x y z
#
# Youngs Moduli (GPa) = 104.26306 102.34494 55.18410
#
# Poissons Ratio (x) = 0.29922 0.01833
# Poissons Ratio (y) = 0.30483 -0.00230
# Poissons Ratio (z) = 0.03462 -0.00426
#
# Static dielectric constant tensor:
#      x y z
#    x 2.015400 0.000000 0.000000 
#    y 0.000000 1.984830 0.000000 
#    z 0.000000 0.000000 2.105380 
# 
# From -- ./inp_files/24409.got.cif
#   From: 2010.05.17/outbox.cif.g08.bks.cpg/sg60_13_cif.got.tgz:24409.got - 2010.06.03 14:59:27.
