data_PCOD9454393
_publ_section_title
;
Structure prediction by ZEFSAII (Michael W. Deem and Ramdas Pophale) SiO2 
 PCOD9454393
Probable space group: P B C N
;
_chemical_formula_sum "Si O2"
_cell_formula_units_Z 48
_cell_length_a 11.187260
_cell_length_b 14.566701
_cell_length_c 11.558092
_cell_angle_alpha 90.000000
_cell_angle_beta 90.000000
_cell_angle_gamma 90.000000
_cell_volume 1883.523679
_symmetry_space_group_name_H-M "P B C N"
_symmetry_group_IT_number 60
_symmetry_cell_setting 'orthorhombic'
loop_
_space_group_symop_operation_xyz
x,y,z
1/2-x,1/2-y,1/2+z
1/2+x,1/2-y,-z
-x,y,1/2-z
-x,-y,-z
1/2+x,1/2+y,1/2-z
1/2-x,1/2+y,z
x,-y,1/2+z
loop_
_atom_site_type_symbol
_atom_site_label
_atom_site_fract_x
_atom_site_fract_y
_atom_site_fract_z
Si Si1 0.120565 0.128632 0.719705
Si Si2 0.282451 0.726196 0.930447
Si Si3 0.685375 0.973640 0.793368
Si Si4 0.096145 0.163925 0.155502
Si Si5 0.623720 0.606888 0.034824
Si Si6 0.331426 0.031427 0.950747
O O1 0.138511 0.205022 0.816963
O O2 0.103757 0.155327 0.588197
O O3 0.000000 0.075339 0.750000
O O4 0.235375 0.065432 0.716461
O O5 0.210010 0.817689 0.909697
O O6 0.190853 0.640003 0.937144
O O7 0.356310 0.729016 0.051393
O O8 0.786187 0.893056 0.805834
O O9 0.622786 0.980690 0.666776
O O10 0.618986 0.980535 0.918138
O O11 0.000000 0.204963 0.250000
O O12 0.003132 0.094981 0.093595
O O13 0.698611 0.513867 0.035371
#
# Coordination Sequence:
#
# PCOD9454393 Si02
#       6
#     8   8   8   8   8   8
#     4  10  19  33  52  79 109 139 171 220 275 330
#     4  10  23  35  52  82 111 141 180 221 269 328
#     4   9  18  29  53  81 109 134 168 213 290 336
#     4  11  20  33  53  79 109 141 170 222 275 326
#     4  11  22  34  55  80 108 147 179 215 276 326
#     4   9  19  34  51  79 112 140 172 223 272 325
#
# _framework density 25.484151000000001
#
# number of rings (size 3 to 8) (size 9 to 14) (size 15 to 20)
#    0.000    2.000    3.333    0.500    4.667    2.000 
#    0.000    0.000    0.000    1.000    0.000    0.000 
#    0.000    0.000    0.000    0.000    0.000    0.000 
#
# Total GULP energy -267515.158809 kJ/mol
# GULP energy per Si atom -5573.232475 kJ/mol
# Density = 2.542615 g / cm^3
# Si number density = 25.484151 Si / 1000 Ang^3
#
#
#
# Elastic Constant Matrix: (Units=GPa)
#
#
# Indices 1 2 3 4 5 6 
#
# 1 54.4453 6.9694 40.6602 0.0000 0.0000 0.0000
# 2 6.9694 64.6232 16.3907 0.0000 0.0000 0.0000
# 3 40.6602 16.3907 243.5674 0.0000 0.0000 0.0000
# 4 0.0000 0.0000 0.0000 17.1713 0.0000 0.0000
# 5 0.0000 0.0000 0.0000 0.0000 33.8247 0.0000
# 6 0.0000 0.0000 0.0000 0.0000 0.0000 11.7871
#
#
#
# Elastic Compliance Matrix: (Units=1/GPa)
#
#
# Indices 1 2 3 4 5 6 
#
# 1 0.021108 -0.001407 -0.003429 0.000000 0.000000 0.000000
# 2 -0.001407 0.015837 -0.000831 0.000000 0.000000 0.000000
# 3 -0.003429 -0.000831 0.004734 0.000000 0.000000 0.000000
# 4 0.000000 0.000000 0.000000 0.058237 0.000000 0.000000
# 5 0.000000 0.000000 0.000000 0.000000 0.029564 0.000000
# 6 0.000000 0.000000 0.000000 0.000000 0.000000 0.084839
#
#
# Mechanical properties :
#
#
# Convention : Reuss Voigt Hill
#
# Bulk Modulus (GPa) = 32.95383 54.51961 43.73672
# Shear Modulus (GPa) = 21.20742 32.46433 26.83587
#
# Velocity S-wave (km/s) = 2.88788 3.57305 3.24858
# Velocity P-wave (km/s) = 4.90704 6.20179 5.59201
#
# Compressibility (1/GPa) = 0.03034549
#
# Stress axis : x y z
#
# Youngs Moduli (GPa) = 47.37552 63.14419 211.23870
#
# Poissons Ratio (x) = 0.08882 0.72434
# Poissons Ratio (y) = 0.06664 0.17552
# Poissons Ratio (z) = 0.16245 0.05247
#
# Static dielectric constant tensor:
#      x y z
#    x 2.018540 0.000000 0.000000 
#    y 0.000000 1.923090 0.000000 
#    z 0.000000 0.000000 2.307650 
# 
# From -- ./inp_files/11010.got.cif
#   From: 2010.05.17/outbox.cif.g08.bks.cpg/sg60_6_cif.got.tgz:11010.got - 2010.06.03 14:59:27.
