data_PCOD9454863
_publ_section_title
;
Structure prediction by ZEFSAII (Michael W. Deem and Ramdas Pophale) SiO2 
 PCOD9454863
Probable space group: P B C N
;
_chemical_formula_sum "Si O2"
_cell_formula_units_Z 36
_cell_length_a 20.407436
_cell_length_b 22.737239
_cell_length_c 4.946215
_cell_angle_alpha 90.000000
_cell_angle_beta 90.000000
_cell_angle_gamma 90.000000
_cell_volume 2295.087038
_symmetry_space_group_name_H-M "P B C N"
_symmetry_group_IT_number 60
_symmetry_cell_setting 'orthorhombic'
loop_
_space_group_symop_operation_xyz
x,y,z
1/2-x,1/2-y,1/2+z
1/2+x,1/2-y,-z
-x,y,1/2-z
-x,-y,-z
1/2+x,1/2+y,1/2-z
1/2-x,1/2+y,z
x,-y,1/2+z
loop_
_atom_site_type_symbol
_atom_site_label
_atom_site_fract_x
_atom_site_fract_y
_atom_site_fract_z
Si Si1 0.000000 0.130916 0.250000
Si Si2 0.783239 0.278896 0.105146
Si Si3 0.813284 0.867886 0.973907
Si Si4 0.408995 0.461717 0.443653
Si Si5 0.120541 0.189088 0.523709
O O1 0.957379 0.088133 0.442588
O O2 0.951382 0.170702 0.070416
O O3 0.763433 0.260158 0.406510
O O4 0.759153 0.344855 0.044674
O O5 0.855483 0.255505 0.035347
O O6 0.860475 0.829555 0.174221
O O7 0.836619 0.934085 0.022801
O O8 0.832306 0.850207 0.670414
O O9 0.418655 0.482198 0.138020
#
# Coordination Sequence:
#
# PCOD9454863 Si02
#       5
#     4   8   8   8   8
#     4  10  20  30  40  56  82 108 134 160 186 228
#     4   8  14  26  42  56  69  88 122 162 199 231
#     4   9  17  29  41  54  71  96 131 167 194 220
#     4  11  21  30  39  54  77 110 141 163 183 213
#     4   9  17  27  41  57  73  97 125 158 197 232
#
# _framework density 15.685681000000001
#
# number of rings (size 3 to 8) (size 9 to 14) (size 15 to 20)
#    0.000    2.667    0.000    3.333    0.000    7.111 
#    0.000    0.000    0.000    0.000    0.000    0.000 
#    0.000    0.000    0.000    2.000    0.000    0.667 
#
# Total GULP energy -200495.411313 kJ/mol
# GULP energy per Si atom -5569.316981 kJ/mol
# Density = 1.564998 g / cm^3
# Si number density = 15.685681 Si / 1000 Ang^3
#
#
#
# Elastic Constant Matrix: (Units=GPa)
#
#
# Indices 1 2 3 4 5 6 
#
# 1 46.2538 44.2222 1.2730 0.0000 0.0000 0.0000
# 2 44.2222 46.0049 6.3974 0.0000 0.0000 0.0000
# 3 1.2730 6.3974 58.5178 0.0000 0.0000 0.0000
# 4 0.0000 0.0000 0.0000 18.7617 0.0000 0.0000
# 5 0.0000 0.0000 0.0000 0.0000 19.6638 0.0000
# 6 0.0000 0.0000 0.0000 0.0000 0.0000 42.7330
#
#
#
# Elastic Compliance Matrix: (Units=1/GPa)
#
#
# Indices 1 2 3 4 5 6 
#
# 1 0.300075 -0.291978 0.025392 0.000000 0.000000 0.000000
# 2 -0.291978 0.306172 -0.027120 0.000000 0.000000 0.000000
# 3 0.025392 -0.027120 0.019501 0.000000 0.000000 0.000000
# 4 0.000000 0.000000 0.000000 0.053300 0.000000 0.000000
# 5 0.000000 0.000000 0.000000 0.000000 0.050855 0.000000
# 6 0.000000 0.000000 0.000000 0.000000 0.000000 0.023401
#
#
# Mechanical properties :
#
#
# Convention : Reuss Voigt Hill
#
# Bulk Modulus (GPa) = 26.08489 28.28463 27.18476
# Shear Modulus (GPa) = 3.69414 22.82397 13.25905
#
# Velocity S-wave (km/s) = 1.53630 3.81869 2.91055
# Velocity P-wave (km/s) = 4.45116 6.12491 5.35384
#
# Compressibility (1/GPa) = 0.03833638
#
# Stress axis : x y z
#
# Youngs Moduli (GPa) = 3.33250 3.26613 51.27857
#
# Poissons Ratio (x) = 0.95364 -1.30209
# Poissons Ratio (y) = 0.97302 1.39069
# Poissons Ratio (z) = -0.08462 0.08858
#
# Static dielectric constant tensor:
#      x y z
#    x 1.590540 0.000000 0.000000 
#    y 0.000000 1.564920 0.000000 
#    z 0.000000 0.000000 1.545500 
# 
# From -- ./inp_files/1245.got.cif
#   From: 2010.05.17/outbox.cif.g08.bks.cpg/sg60_1_cif.got.tgz:1245.got - 2010.06.03 14:59:27.
