data_PCOD9454829
_publ_section_title
;
Structure prediction by ZEFSAII (Michael W. Deem and Ramdas Pophale) SiO2 
 PCOD9454829
Probable space group: P B C N
;
_chemical_formula_sum "Si O2"
_cell_formula_units_Z 52
_cell_length_a 8.599610
_cell_length_b 29.021011
_cell_length_c 9.964683
_cell_angle_alpha 90.000000
_cell_angle_beta 90.000000
_cell_angle_gamma 90.000000
_cell_volume 2486.879722
_symmetry_space_group_name_H-M "P B C N"
_symmetry_group_IT_number 60
_symmetry_cell_setting 'orthorhombic'
loop_
_space_group_symop_operation_xyz
x,y,z
1/2-x,1/2-y,1/2+z
1/2+x,1/2-y,-z
-x,y,1/2-z
-x,-y,-z
1/2+x,1/2+y,1/2-z
1/2-x,1/2+y,z
x,-y,1/2+z
loop_
_atom_site_type_symbol
_atom_site_label
_atom_site_fract_x
_atom_site_fract_y
_atom_site_fract_z
Si Si1 0.365227 0.479829 0.364665
Si Si2 0.324924 0.895740 0.301481
Si Si3 0.955206 0.926388 0.596226
Si Si4 0.209605 0.155134 0.543999
Si Si5 0.342739 0.248996 0.167942
Si Si6 0.000000 0.731711 0.750000
Si Si7 0.550180 0.834422 0.995290
O O1 0.500000 0.480832 0.250000
O O2 0.234812 0.447266 0.304686
O O3 0.324736 0.532761 0.396752
O O4 0.423669 0.453168 0.498567
O O5 0.500000 0.894924 0.250000
O O6 0.229101 0.864534 0.196364
O O7 0.334559 0.873030 0.448395
O O8 0.909620 0.878659 0.527819
O O9 0.000000 0.917842 0.750000
O O10 0.169899 0.209137 0.559426
O O11 0.375202 0.148733 0.468231
O O12 0.500000 0.261234 0.250000
O O13 0.170792 0.245860 0.234008
O O14 0.376654 0.198286 0.113730
O O15 0.979467 0.699527 0.621150
#
# Coordination Sequence:
#
# PCOD9454829 Si02
#       7
#     8   8   8   8   8   4   8
#     4  10  20  38  70  96 125 170 225 272 329 400
#     4  10  19  40  68  93 116 169 225 268 317 398
#     4  10  22  40  61  99 138 165 217 284 332 391
#     4  10  21  40  65  91 131 172 222 269 328 407
#     4  11  25  41  67  94 129 177 227 274 337 397
#     4  10  22  42  60  92 124 162 218 274 314 388
#     4  10  21  43  62  91 131 159 219 284 315 391
#
# _framework density 20.909735999999999
#
# number of rings (size 3 to 8) (size 9 to 14) (size 15 to 20)
#    0.000    1.846    5.385    0.000    6.462    0.000 
#    4.154    3.077    0.000    0.000    0.000    0.000 
#    0.000    0.000    0.000    0.000    0.000    0.000 
#
# Total GULP energy -289774.156197 kJ/mol
# GULP energy per Si atom -5572.579927 kJ/mol
# Density = 2.086214 g / cm^3
# Si number density = 20.909736 Si / 1000 Ang^3
#
#
#
# Elastic Constant Matrix: (Units=GPa)
#
#
# Indices 1 2 3 4 5 6 
#
# 1 76.2165 26.0823 21.7688 0.0000 0.0000 0.0000
# 2 26.0823 87.1591 9.2888 0.0000 0.0000 0.0000
# 3 21.7688 9.2888 55.7704 0.0000 0.0000 0.0000
# 4 0.0000 0.0000 0.0000 28.7002 0.0000 0.0000
# 5 0.0000 0.0000 0.0000 0.0000 14.6512 0.0000
# 6 0.0000 0.0000 0.0000 0.0000 0.0000 23.4512
#
#
#
# Elastic Compliance Matrix: (Units=1/GPa)
#
#
# Indices 1 2 3 4 5 6 
#
# 1 0.016174 -0.004242 -0.005606 0.000000 0.000000 0.000000
# 2 -0.004242 0.012793 -0.000475 0.000000 0.000000 0.000000
# 3 -0.005606 -0.000475 0.020198 0.000000 0.000000 0.000000
# 4 0.000000 0.000000 0.000000 0.034843 0.000000 0.000000
# 5 0.000000 0.000000 0.000000 0.000000 0.068254 0.000000
# 6 0.000000 0.000000 0.000000 0.000000 0.000000 0.042642
#
#
# Mechanical properties :
#
#
# Convention : Reuss Voigt Hill
#
# Bulk Modulus (GPa) = 35.06595 37.04729 36.05662
# Shear Modulus (GPa) = 22.21660 24.16094 23.18877
#
# Velocity S-wave (km/s) = 3.26314 3.40293 3.33377
# Velocity P-wave (km/s) = 5.56812 5.76161 5.66569
#
# Compressibility (1/GPa) = 0.02851770
#
# Stress axis : x y z
#
# Youngs Moduli (GPa) = 61.82896 78.16514 49.50963
#
# Poissons Ratio (x) = 0.33161 0.27757
# Poissons Ratio (y) = 0.26231 0.02351
# Poissons Ratio (z) = 0.34664 0.03712
#
# Static dielectric constant tensor:
#      x y z
#    x 1.830140 0.000000 0.000000 
#    y 0.000000 1.761440 0.000000 
#    z 0.000000 0.000000 1.825490 
# 
# From -- ./inp_files/10330.got.cif
#   From: 2010.05.17/outbox.cif.g08.bks.cpg/sg60_6_cif.got.tgz:10330.got - 2010.06.03 14:59:27.
