data_PCOD9454392
_publ_section_title
;
Structure prediction by ZEFSAII (Michael W. Deem and Ramdas Pophale) SiO2 
 PCOD9454392
Probable space group: P B C N
;
_chemical_formula_sum "Si O2"
_cell_formula_units_Z 40
_cell_length_a 7.687773
_cell_length_b 18.568124
_cell_length_c 11.955053
_cell_angle_alpha 90.000000
_cell_angle_beta 90.000000
_cell_angle_gamma 90.000000
_cell_volume 1706.554195
_symmetry_space_group_name_H-M "P B C N"
_symmetry_group_IT_number 60
_symmetry_cell_setting 'orthorhombic'
loop_
_space_group_symop_operation_xyz
x,y,z
1/2-x,1/2-y,1/2+z
1/2+x,1/2-y,-z
-x,y,1/2-z
-x,-y,-z
1/2+x,1/2+y,1/2-z
1/2-x,1/2+y,z
x,-y,1/2+z
loop_
_atom_site_type_symbol
_atom_site_label
_atom_site_fract_x
_atom_site_fract_y
_atom_site_fract_z
Si Si1 0.642599 0.145100 0.433197
Si Si2 0.765962 0.496306 0.022231
Si Si3 0.563110 0.585424 0.874405
Si Si4 0.518558 0.713536 0.017220
Si Si5 0.312646 0.618134 0.299802
O O1 0.510572 0.204587 0.477927
O O2 0.681020 0.132846 0.301770
O O3 0.824242 0.183980 0.466949
O O4 0.604547 0.069107 0.494981
O O5 0.594850 0.449021 0.054861
O O6 0.765441 0.557408 0.117747
O O7 0.725601 0.535921 0.905332
O O8 0.500000 0.585339 0.750000
O O9 0.596823 0.665532 0.917201
O O10 0.627054 0.688131 0.127301
O O11 0.500000 0.591404 0.250000
#
# Coordination Sequence:
#
# PCOD9454392 Si02
#       5
#     8   8   8   8   8
#     4  10  19  33  52  77 106 135 166 213 261 306
#     4   9  16  26  47  74  96 125 172 213 247 291
#     4   9  15  26  45  71  95 120 164 215 243 273
#     4   9  20  32  48  76 107 135 168 206 258 316
#     4   9  17  32  50  72 105 135 165 216 265 291
#
# _framework density 23.439043000000002
#
# number of rings (size 3 to 8) (size 9 to 14) (size 15 to 20)
#    0.000    2.800    0.000    5.400    0.000    3.200 
#    0.000    0.000    0.000    4.800    0.000   22.400 
#    0.000    0.000    0.000    0.000    0.000    0.000 
#
# Total GULP energy -223149.911886 kJ/mol
# GULP energy per Si atom -5578.747797 kJ/mol
# Density = 2.338570 g / cm^3
# Si number density = 23.439043 Si / 1000 Ang^3
#
#
#
# Elastic Constant Matrix: (Units=GPa)
#
#
# Indices 1 2 3 4 5 6 
#
# 1 71.1524 13.7785 27.8403 0.0000 0.0000 0.0000
# 2 13.7785 134.8342 71.9844 0.0000 0.0000 0.0000
# 3 27.8403 71.9844 140.4394 0.0000 0.0000 0.0000
# 4 0.0000 0.0000 0.0000 11.9299 0.0000 0.0000
# 5 0.0000 0.0000 0.0000 0.0000 27.5694 0.0000
# 6 0.0000 0.0000 0.0000 0.0000 0.0000 6.3404
#
#
#
# Elastic Compliance Matrix: (Units=1/GPa)
#
#
# Indices 1 2 3 4 5 6 
#
# 1 0.015237 0.000076 -0.003060 0.000000 0.000000 0.000000
# 2 0.000076 0.010211 -0.005249 0.000000 0.000000 0.000000
# 3 -0.003060 -0.005249 0.010417 0.000000 0.000000 0.000000
# 4 0.000000 0.000000 0.000000 0.083823 0.000000 0.000000
# 5 0.000000 0.000000 0.000000 0.000000 0.036272 0.000000
# 6 0.000000 0.000000 0.000000 0.000000 0.000000 0.157719
#
#
# Mechanical properties :
#
#
# Convention : Reuss Voigt Hill
#
# Bulk Modulus (GPa) = 51.54413 63.73692 57.64053
# Shear Modulus (GPa) = 14.85396 24.68947 19.77171
#
# Velocity S-wave (km/s) = 2.52012 3.24905 2.90752
# Velocity P-wave (km/s) = 5.52327 6.42859 5.99305
#
# Compressibility (1/GPa) = 0.01940085
#
# Stress axis : x y z
#
# Youngs Moduli (GPa) = 65.63093 97.93386 95.99253
#
# Poissons Ratio (x) = -0.00749 0.29371
# Poissons Ratio (y) = -0.00502 0.50386
# Poissons Ratio (z) = 0.20081 0.51405
#
# Static dielectric constant tensor:
#      x y z
#    x 2.122960 0.000000 0.000000 
#    y 0.000000 1.931740 0.000000 
#    z 0.000000 0.000000 1.890790 
# 
# From -- ./inp_files/9930.got.cif
#   From: 2010.05.17/outbox.cif.g08.bks.cpg/sg60_5_cif.got.tgz:9930.got - 2010.06.03 14:59:27.
