data_PCOD9454371
_publ_section_title
;
Structure prediction by ZEFSAII (Michael W. Deem and Ramdas Pophale) SiO2 
 PCOD9454371
Probable space group: P B C N
;
_chemical_formula_sum "Si O2"
_cell_formula_units_Z 64
_cell_length_a 8.603191
_cell_length_b 16.530966
_cell_length_c 16.855461
_cell_angle_alpha 90.000000
_cell_angle_beta 90.000000
_cell_angle_gamma 90.000000
_cell_volume 2397.167784
_symmetry_space_group_name_H-M "P B C N"
_symmetry_group_IT_number 60
_symmetry_cell_setting 'orthorhombic'
loop_
_space_group_symop_operation_xyz
x,y,z
1/2-x,1/2-y,1/2+z
1/2+x,1/2-y,-z
-x,y,1/2-z
-x,-y,-z
1/2+x,1/2+y,1/2-z
1/2-x,1/2+y,z
x,-y,1/2+z
loop_
_atom_site_type_symbol
_atom_site_label
_atom_site_fract_x
_atom_site_fract_y
_atom_site_fract_z
Si Si1 0.453773 0.602633 0.936900
Si Si2 0.233620 0.896750 0.185646
Si Si3 0.324998 0.438533 0.680689
Si Si4 0.148126 0.282859 0.699307
Si Si5 0.161107 0.550712 0.007300
Si Si6 0.512446 0.817257 0.412675
Si Si7 0.901465 0.278679 0.576714
Si Si8 0.900243 0.143005 0.109497
O O1 0.594560 0.585224 0.877429
O O2 0.375952 0.684676 0.902502
O O3 0.321307 0.536204 0.956894
O O4 0.533995 0.627797 0.020243
O O5 0.196012 0.808549 0.220039
O O6 0.397545 0.878477 0.144148
O O7 0.225265 0.982067 0.230437
O O8 0.272415 0.351586 0.712682
O O9 0.224568 0.446791 0.597503
O O10 0.505608 0.421712 0.660960
O O11 0.000000 0.304134 0.750000
O O12 0.076143 0.286822 0.610718
O O13 0.000000 0.500000 0.000000
O O14 0.106421 0.633487 0.966391
O O15 0.626090 0.786265 0.482602
O O16 0.453179 0.736011 0.371694
O O17 0.785177 0.346697 0.609833
#
# Coordination Sequence:
#
# PCOD9454371 Si02
#       8
#     8   8   8   8   8   8   8   8
#     4   9  20  30  52  88 130 164 198 243 321 384
#     4  11  22  40  64  92 128 168 209 273 326 383
#     4  11  23  38  63  94 124 169 218 265 321 380
#     4  11  25  47  68  87 122 177 222 262 322 383
#     4  11  20  31  53  93 138 167 201 251 325 398
#     4  11  18  32  57  92 131 166 201 253 329 389
#     4  10  19  34  61  89 121 166 208 255 313 391
#     4  10  19  32  57  90 126 163 202 248 316 390
#
# _framework density 26.698172
#
# number of rings (size 3 to 8) (size 9 to 14) (size 15 to 20)
#    0.000    1.500    6.250    0.000    0.000    3.000 
#    0.000    1.875    5.500    0.000    0.000    0.000 
#    0.000    0.000    0.000    0.000    0.000    0.000 
#
# Total GULP energy -357236.757287 kJ/mol
# GULP energy per Si atom -5581.824333 kJ/mol
# Density = 2.663741 g / cm^3
# Si number density = 26.698172 Si / 1000 Ang^3
#
#
#
# Elastic Constant Matrix: (Units=GPa)
#
#
# Indices 1 2 3 4 5 6 
#
# 1 72.5517 44.7770 11.9595 0.0000 0.0000 0.0000
# 2 44.7770 164.2129 1.4956 0.0000 0.0000 0.0000
# 3 11.9595 1.4956 45.4993 0.0000 0.0000 0.0000
# 4 0.0000 0.0000 0.0000 3.2219 0.0000 0.0000
# 5 0.0000 0.0000 0.0000 0.0000 23.4674 0.0000
# 6 0.0000 0.0000 0.0000 0.0000 0.0000 60.8309
#
#
#
# Elastic Compliance Matrix: (Units=1/GPa)
#
#
# Indices 1 2 3 4 5 6 
#
# 1 0.017419 -0.004709 -0.004424 0.000000 0.000000 0.000000
# 2 -0.004709 0.007365 0.000996 0.000000 0.000000 0.000000
# 3 -0.004424 0.000996 0.023108 0.000000 0.000000 0.000000
# 4 0.000000 0.000000 0.000000 0.310375 0.000000 0.000000
# 5 0.000000 0.000000 0.000000 0.000000 0.042612 0.000000
# 6 0.000000 0.000000 0.000000 0.000000 0.000000 0.016439
#
#
# Mechanical properties :
#
#
# Convention : Reuss Voigt Hill
#
# Bulk Modulus (GPa) = 31.62827 44.30314 37.96570
# Shear Modulus (GPa) = 11.25789 32.43948 21.84869
#
# Velocity S-wave (km/s) = 2.05570 3.48953 2.86380
# Velocity P-wave (km/s) = 4.18412 5.73288 5.01860
#
# Compressibility (1/GPa) = 0.03161729
#
# Stress axis : x y z
#
# Youngs Moduli (GPa) = 57.40837 135.78191 43.27426
#
# Poissons Ratio (x) = 0.63946 0.19144
# Poissons Ratio (y) = 0.27036 -0.04309
# Poissons Ratio (z) = 0.25396 -0.13521
#
# Static dielectric constant tensor:
#      x y z
#    x 2.172420 0.000000 0.000000 
#    y 0.000000 2.176820 0.000000 
#    z 0.000000 0.000000 2.168810 
# 
# From -- ./inp_files/22374.got.cif
#   From: 2010.05.17/outbox.cif.g08.bks.cpg/sg60_12_cif.got.tgz:22374.got - 2010.06.03 14:59:27.
