data_PCOD9454215
_publ_section_title
;
Structure prediction by ZEFSAII (Michael W. Deem and Ramdas Pophale) SiO2 
 PCOD9454215
Probable space group: P B C N
;
_chemical_formula_sum "Si O2"
_cell_formula_units_Z 44
_cell_length_a 8.509848
_cell_length_b 26.655277
_cell_length_c 9.947302
_cell_angle_alpha 90.000000
_cell_angle_beta 90.000000
_cell_angle_gamma 90.000000
_cell_volume 2256.369945
_symmetry_space_group_name_H-M "P B C N"
_symmetry_group_IT_number 60
_symmetry_cell_setting 'orthorhombic'
loop_
_space_group_symop_operation_xyz
x,y,z
1/2-x,1/2-y,1/2+z
1/2+x,1/2-y,-z
-x,y,1/2-z
-x,-y,-z
1/2+x,1/2+y,1/2-z
1/2-x,1/2+y,z
x,-y,1/2+z
loop_
_atom_site_type_symbol
_atom_site_label
_atom_site_fract_x
_atom_site_fract_y
_atom_site_fract_z
Si Si1 0.151269 0.695170 0.321097
Si Si2 0.000000 0.791300 0.250000
Si Si3 0.320871 0.955254 0.702641
Si Si4 0.856452 0.142845 0.952586
Si Si5 0.633321 0.642753 0.356701
Si Si6 0.329840 0.473178 0.992720
O O1 0.088029 0.751009 0.347470
O O2 0.227719 0.666651 0.446414
O O3 0.283666 0.691555 0.205241
O O4 0.000000 0.669910 0.250000
O O5 0.131896 0.826035 0.183430
O O6 0.500000 0.952709 0.750000
O O7 0.255570 0.902678 0.644382
O O8 0.288199 0.995309 0.585680
O O9 0.223215 0.969181 0.837553
O O10 0.835112 0.083358 0.949251
O O11 0.032871 0.150677 0.011338
O O12 0.500000 0.626651 0.250000
O O13 0.500000 0.500000 0.000000
#
# Coordination Sequence:
#
# PCOD9454215 Si02
#       6
#     8   4   8   8   8   8
#     4   9  21  40  65  88 123 165 221 270 322 391
#     4  10  26  38  64 102 130 168 210 294 332 388
#     4  12  24  41  63 100 131 178 220 278 333 397
#     4  11  23  41  67  95 128 174 223 269 339 401
#     4  10  18  38  66  89 118 172 224 255 322 410
#     4  12  24  42  68  94 136 177 229 270 331 413
#
# _framework density 19.500347999999999
#
# number of rings (size 3 to 8) (size 9 to 14) (size 15 to 20)
#    0.545    0.727    5.455    1.636    5.091    0.000 
#    0.000    0.000    4.000    0.000    0.000    0.000 
#    0.000    0.000    0.000    0.000    0.000    0.000 
#
# Total GULP energy -245114.378790 kJ/mol
# GULP energy per Si atom -5570.781336 kJ/mol
# Density = 1.945596 g / cm^3
# Si number density = 19.500348 Si / 1000 Ang^3
#
#
#
# Elastic Constant Matrix: (Units=GPa)
#
#
# Indices 1 2 3 4 5 6 
#
# 1 87.8155 13.5500 15.1196 0.0000 0.0000 0.0000
# 2 13.5500 106.7076 24.5264 0.0000 0.0000 0.0000
# 3 15.1196 24.5264 38.1506 0.0000 0.0000 0.0000
# 4 0.0000 0.0000 0.0000 16.2362 0.0000 0.0000
# 5 0.0000 0.0000 0.0000 0.0000 34.1758 0.0000
# 6 0.0000 0.0000 0.0000 0.0000 0.0000 23.3531
#
#
#
# Elastic Compliance Matrix: (Units=1/GPa)
#
#
# Indices 1 2 3 4 5 6 
#
# 1 0.012246 -0.000516 -0.004522 0.000000 0.000000 0.000000
# 2 -0.000516 0.011018 -0.006879 0.000000 0.000000 0.000000
# 3 -0.004522 -0.006879 0.032426 0.000000 0.000000 0.000000
# 4 0.000000 0.000000 0.000000 0.061591 0.000000 0.000000
# 5 0.000000 0.000000 0.000000 0.000000 0.029260 0.000000
# 6 0.000000 0.000000 0.000000 0.000000 0.000000 0.042821
#
#
# Mechanical properties :
#
#
# Convention : Reuss Voigt Hill
#
# Bulk Modulus (GPa) = 31.38983 37.67397 34.53190
# Shear Modulus (GPa) = 22.34003 26.71819 24.52911
#
# Velocity S-wave (km/s) = 3.38838 3.70556 3.55051
# Velocity P-wave (km/s) = 5.60715 6.13757 5.87835
#
# Compressibility (1/GPa) = 0.03185745
#
# Stress axis : x y z
#
# Youngs Moduli (GPa) = 81.66211 90.76064 30.83921
#
# Poissons Ratio (x) = 0.04681 0.13944
# Poissons Ratio (y) = 0.04211 0.21214
# Poissons Ratio (z) = 0.36924 0.62433
#
# Static dielectric constant tensor:
#      x y z
#    x 2.021390 0.000000 0.000000 
#    y 0.000000 1.690900 0.000000 
#    z 0.000000 0.000000 1.787940 
# 
# From -- ./inp_files/10018.got.cif
#   From: 2010.05.17/outbox.cif.g08.bks.cpg/sg60_6_cif.got.tgz:10018.got - 2010.06.03 14:59:27.
