data_PCOD9454910
_publ_section_title
;
Structure prediction by ZEFSAII (Michael W. Deem and Ramdas Pophale) SiO2 
 PCOD9454910
Probable space group: P B C N
;
_chemical_formula_sum "Si O2"
_cell_formula_units_Z 44
_cell_length_a 5.347109
_cell_length_b 23.432502
_cell_length_c 17.498969
_cell_angle_alpha 90.000000
_cell_angle_beta 90.000000
_cell_angle_gamma 90.000000
_cell_volume 2192.553311
_symmetry_space_group_name_H-M "P B C N"
_symmetry_group_IT_number 60
_symmetry_cell_setting 'orthorhombic'
loop_
_space_group_symop_operation_xyz
x,y,z
1/2-x,1/2-y,1/2+z
1/2+x,1/2-y,-z
-x,y,1/2-z
-x,-y,-z
1/2+x,1/2+y,1/2-z
1/2-x,1/2+y,z
x,-y,1/2+z
loop_
_atom_site_type_symbol
_atom_site_label
_atom_site_fract_x
_atom_site_fract_y
_atom_site_fract_z
Si Si1 0.842262 0.803425 0.935225
Si Si2 0.256606 0.830048 0.293379
Si Si3 0.840554 0.739075 0.088001
Si Si4 0.241817 0.467249 0.093687
Si Si5 0.000000 0.558062 0.750000
Si Si6 0.760298 0.075924 0.515401
O O1 0.605052 0.785597 0.885101
O O2 0.113035 0.803659 0.896907
O O3 0.869478 0.752485 0.998031
O O4 0.787298 0.862596 0.976854
O O5 0.500000 0.805501 0.250000
O O6 0.227993 0.798639 0.372861
O O7 0.313974 0.897273 0.292226
O O8 0.000000 0.820149 0.250000
O O9 0.159979 0.472059 0.182992
O O10 0.502399 0.435959 0.071594
O O11 0.009510 0.433360 0.054903
O O12 0.265747 0.528098 0.051664
#
# Coordination Sequence:
#
# PCOD9454910 Si02
#       6
#     8   8   8   8   4   8
#     4  10  20  32  58  78 113 145 185 231 281 335
#     4  10  22  34  54  81 113 148 178 238 290 345
#     4  10  20  34  51  84 108 144 186 230 274 349
#     4  10  22  36  60  85 119 146 199 244 299 348
#     4  10  24  34  62  86 114 156 192 250 302 358
#     4  10  21  39  57  87 115 155 190 248 293 352
#
# _framework density 20.067927999999998
#
# number of rings (size 3 to 8) (size 9 to 14) (size 15 to 20)
#    0.545    1.455    0.000    3.273    5.091    1.455 
#    0.000    0.000    6.000    0.000    0.000    0.000 
#    0.000    0.000    0.000    0.000    0.000    0.000 
#
# Total GULP energy -245067.997220 kJ/mol
# GULP energy per Si atom -5569.727210 kJ/mol
# Density = 2.002225 g / cm^3
# Si number density = 20.067928 Si / 1000 Ang^3
#
#
#
# Elastic Constant Matrix: (Units=GPa)
#
#
# Indices 1 2 3 4 5 6 
#
# 1 140.9330 16.3398 31.6905 0.0000 0.0000 0.0000
# 2 16.3398 48.2073 19.0256 0.0000 0.0000 0.0000
# 3 31.6905 19.0256 79.2693 0.0000 0.0000 0.0000
# 4 0.0000 0.0000 0.0000 73.8466 0.0000 0.0000
# 5 0.0000 0.0000 0.0000 0.0000 31.4673 0.0000
# 6 0.0000 0.0000 0.0000 0.0000 0.0000 4.3483
#
#
#
# Elastic Compliance Matrix: (Units=1/GPa)
#
#
# Indices 1 2 3 4 5 6 
#
# 1 0.007904 -0.001582 -0.002780 0.000000 0.000000 0.000000
# 2 -0.001582 0.023231 -0.004943 0.000000 0.000000 0.000000
# 3 -0.002780 -0.004943 0.014913 0.000000 0.000000 0.000000
# 4 0.000000 0.000000 0.000000 0.013542 0.000000 0.000000
# 5 0.000000 0.000000 0.000000 0.000000 0.031779 0.000000
# 6 0.000000 0.000000 0.000000 0.000000 0.000000 0.229976
#
#
# Mechanical properties :
#
#
# Convention : Reuss Voigt Hill
#
# Bulk Modulus (GPa) = 36.44665 44.72459 40.58562
# Shear Modulus (GPa) = 14.32247 35.35601 24.83924
#
# Velocity S-wave (km/s) = 2.67441 4.20195 3.52200
# Velocity P-wave (km/s) = 5.26666 6.77325 6.06690
#
# Compressibility (1/GPa) = 0.02743736
#
# Stress axis : x y z
#
# Youngs Moduli (GPa) = 126.51582 43.04622 67.05478
#
# Poissons Ratio (x) = 0.06809 0.18643
# Poissons Ratio (y) = 0.20013 0.33147
# Poissons Ratio (z) = 0.35175 0.21279
#
# Static dielectric constant tensor:
#      x y z
#    x 1.774870 0.000000 0.000000 
#    y 0.000000 1.677430 0.000000 
#    z 0.000000 0.000000 1.742470 
# 
# From -- ./inp_files/21570.got.cif
#   From: 2010.05.17/outbox.cif.g08.bks.cpg/sg60_11_cif.got.tgz:21570.got - 2010.06.03 14:59:27.
