data_PCOD9454784
_publ_section_title
;
Structure prediction by ZEFSAII (Michael W. Deem and Ramdas Pophale) SiO2 
 PCOD9454784
Probable space group: P B C N
;
_chemical_formula_sum "Si O2"
_cell_formula_units_Z 40
_cell_length_a 7.758126
_cell_length_b 14.684806
_cell_length_c 13.237022
_cell_angle_alpha 90.000000
_cell_angle_beta 90.000000
_cell_angle_gamma 90.000000
_cell_volume 1508.048583
_symmetry_space_group_name_H-M "P B C N"
_symmetry_group_IT_number 60
_symmetry_cell_setting 'orthorhombic'
loop_
_space_group_symop_operation_xyz
x,y,z
1/2-x,1/2-y,1/2+z
1/2+x,1/2-y,-z
-x,y,1/2-z
-x,-y,-z
1/2+x,1/2+y,1/2-z
1/2-x,1/2+y,z
x,-y,1/2+z
loop_
_atom_site_type_symbol
_atom_site_label
_atom_site_fract_x
_atom_site_fract_y
_atom_site_fract_z
Si Si1 0.759112 0.463543 0.513244
Si Si2 0.011803 0.657259 0.922480
Si Si3 0.347587 0.235674 0.121768
Si Si4 0.170125 0.182271 0.310820
Si Si5 0.462404 0.420805 0.364917
O O1 0.920405 0.440593 0.439686
O O2 0.717140 0.378939 0.591604
O O3 0.607582 0.470387 0.431002
O O4 0.721945 0.548037 0.589892
O O5 0.835367 0.717721 0.905802
O O6 0.130111 0.712755 0.843052
O O7 0.096241 0.673092 0.031089
O O8 0.316384 0.184622 0.226309
O O9 0.489425 0.315081 0.125280
O O10 0.000000 0.149294 0.250000
O O11 0.500000 0.444224 0.250000
#
# Coordination Sequence:
#
# PCOD9454784 Si02
#       5
#     8   8   8   8   8
#     4  10  21  38  61  98 135 175 238 280 340 417
#     4  10  19  39  59 101 134 171 230 291 335 408
#     4  10  22  36  66 100 136 175 232 289 343 410
#     4  10  20  35  62 101 134 172 233 297 340 407
#     4  10  21  37  63  97 133 184 227 276 344 428
#
# _framework density 26.524345
#
# number of rings (size 3 to 8) (size 9 to 14) (size 15 to 20)
#    0.000    2.000    4.000    0.600    2.800    0.000 
#    0.000    0.000    0.000    4.800   52.000    0.000 
#    0.000    0.000    0.000    0.000    0.000    0.000 
#
# Total GULP energy -223432.540499 kJ/mol
# GULP energy per Si atom -5585.813512 kJ/mol
# Density = 2.646397 g / cm^3
# Si number density = 26.524345 Si / 1000 Ang^3
#
#
#
# Elastic Constant Matrix: (Units=GPa)
#
#
# Indices 1 2 3 4 5 6 
#
# 1 93.7744 -21.2923 25.9573 0.0000 0.0000 0.0000
# 2 -21.2923 73.8309 21.5140 0.0000 0.0000 0.0000
# 3 25.9573 21.5140 182.6724 0.0000 0.0000 0.0000
# 4 0.0000 0.0000 0.0000 34.2842 0.0000 0.0000
# 5 0.0000 0.0000 0.0000 0.0000 55.8031 0.0000
# 6 0.0000 0.0000 0.0000 0.0000 0.0000 23.9834
#
#
#
# Elastic Compliance Matrix: (Units=1/GPa)
#
#
# Indices 1 2 3 4 5 6 
#
# 1 0.012229 0.004177 -0.002230 0.000000 0.000000 0.000000
# 2 0.004177 0.015452 -0.002413 0.000000 0.000000 0.000000
# 3 -0.002230 -0.002413 0.006075 0.000000 0.000000 0.000000
# 4 0.000000 0.000000 0.000000 0.029168 0.000000 0.000000
# 5 0.000000 0.000000 0.000000 0.000000 0.017920 0.000000
# 6 0.000000 0.000000 0.000000 0.000000 0.000000 0.041696
#
#
# Mechanical properties :
#
#
# Convention : Reuss Voigt Hill
#
# Bulk Modulus (GPa) = 30.46539 44.73729 37.60134
# Shear Modulus (GPa) = 37.19825 44.42070 40.80948
#
# Velocity S-wave (km/s) = 3.74895 4.09677 3.92671
# Velocity P-wave (km/s) = 5.50002 6.26746 5.89624
#
# Compressibility (1/GPa) = 0.03282413
#
# Stress axis : x y z
#
# Youngs Moduli (GPa) = 81.77007 64.71564 164.59982
#
# Poissons Ratio (x) = -0.27029 0.36700
# Poissons Ratio (y) = -0.34152 0.39724
# Poissons Ratio (z) = 0.18232 0.15618
#
# Static dielectric constant tensor:
#      x y z
#    x 2.225490 0.000000 0.000000 
#    y 0.000000 2.186190 0.000000 
#    z 0.000000 0.000000 2.048560 
# 
# From -- ./inp_files/15096.got.cif
#   From: 2010.05.17/outbox.cif.g08.bks.cpg/sg60_8_cif.got.tgz:15096.got - 2010.06.03 14:59:27.
