data_PCOD9454570
_publ_section_title
;
Structure prediction by ZEFSAII (Michael W. Deem and Ramdas Pophale) SiO2 
 PCOD9454570
Probable space group: P B C N
;
_chemical_formula_sum "Si O2"
_cell_formula_units_Z 32
_cell_length_a 19.176584
_cell_length_b 17.705130
_cell_length_c 5.082870
_cell_angle_alpha 90.000000
_cell_angle_beta 90.000000
_cell_angle_gamma 90.000000
_cell_volume 1725.755910
_symmetry_space_group_name_H-M "P B C N"
_symmetry_group_IT_number 60
_symmetry_cell_setting 'orthorhombic'
loop_
_space_group_symop_operation_xyz
x,y,z
1/2-x,1/2-y,1/2+z
1/2+x,1/2-y,-z
-x,y,1/2-z
-x,-y,-z
1/2+x,1/2+y,1/2-z
1/2-x,1/2+y,z
x,-y,1/2+z
loop_
_atom_site_type_symbol
_atom_site_label
_atom_site_fract_x
_atom_site_fract_y
_atom_site_fract_z
Si Si1 0.781751 0.211700 0.343583
Si Si2 0.076817 0.392450 0.795230
Si Si3 0.923175 0.287643 0.205406
Si Si4 0.272809 0.045129 0.259860
O O1 0.764718 0.241237 0.634725
O O2 0.860832 0.231080 0.266823
O O3 0.761107 0.124828 0.313000
O O4 0.081598 0.323991 0.583644
O O5 0.143401 0.444123 0.747543
O O6 0.000000 0.427197 0.750000
O O7 0.082183 0.356575 0.085125
O O8 0.000000 0.254316 0.250000
O O9 0.253251 0.018343 0.549691
#
# Coordination Sequence:
#
# PCOD9454570 Si02
#       4
#     8   8   8   8
#     4  12  21  38  62  83 108 152 194 235 274 329
#     4  10  20  35  55  81 114 150 184 220 277 341
#     4  10  19  35  59  85 108 140 191 240 275 321
#     4  12  24  36  54  83 120 150 185 229 284 333
#
# _framework density 18.542598000000002
#
# number of rings (size 3 to 8) (size 9 to 14) (size 15 to 20)
#    0.000    1.000    5.000    3.000    0.000    1.000 
#    0.000    0.000    0.000    1.500    0.000    0.000 
#    0.000    0.000    0.000    0.000    0.000    0.000 
#
# Total GULP energy -178915.195828 kJ/mol
# GULP energy per Si atom -5591.099870 kJ/mol
# Density = 1.850039 g / cm^3
# Si number density = 18.542598 Si / 1000 Ang^3
#
#
#
# Elastic Constant Matrix: (Units=GPa)
#
#
# Indices 1 2 3 4 5 6 
#
# 1 69.7436 11.4042 1.7611 0.0000 0.0000 0.0000
# 2 11.4042 49.5430 -7.5515 0.0000 0.0000 0.0000
# 3 1.7611 -7.5515 51.1946 0.0000 0.0000 0.0000
# 4 0.0000 0.0000 0.0000 15.8097 0.0000 0.0000
# 5 0.0000 0.0000 0.0000 0.0000 20.1192 0.0000
# 6 0.0000 0.0000 0.0000 0.0000 0.0000 22.8311
#
#
#
# Elastic Compliance Matrix: (Units=1/GPa)
#
#
# Indices 1 2 3 4 5 6 
#
# 1 0.014954 -0.003602 -0.001046 0.000000 0.000000 0.000000
# 2 -0.003602 0.021516 0.003298 0.000000 0.000000 0.000000
# 3 -0.001046 0.003298 0.020056 0.000000 0.000000 0.000000
# 4 0.000000 0.000000 0.000000 0.063252 0.000000 0.000000
# 5 0.000000 0.000000 0.000000 0.000000 0.049704 0.000000
# 6 0.000000 0.000000 0.000000 0.000000 0.000000 0.043800
#
#
# Mechanical properties :
#
#
# Convention : Reuss Voigt Hill
#
# Bulk Modulus (GPa) = 18.57826 20.18987 19.38407
# Shear Modulus (GPa) = 21.37463 22.74318 22.05890
#
# Velocity S-wave (km/s) = 3.39887 3.50599 3.45285
# Velocity P-wave (km/s) = 5.04421 5.22507 5.13544
#
# Compressibility (1/GPa) = 0.05382635
#
# Stress axis : x y z
#
# Youngs Moduli (GPa) = 66.87377 46.47673 49.86118
#
# Poissons Ratio (x) = 0.16739 0.05214
# Poissons Ratio (y) = 0.24085 -0.16442
# Poissons Ratio (z) = 0.06993 -0.15326
#
# Static dielectric constant tensor:
#      x y z
#    x 1.660420 0.000000 0.000000 
#    y 0.000000 1.596250 0.000000 
#    z 0.000000 0.000000 1.644260 
# 
# From -- ./inp_files/1562.got.cif
#   From: 2010.05.17/outbox.cif.g08.bks.cpg/sg60_1_cif.got.tgz:1562.got - 2010.06.03 14:59:27.
