data_PCOD9454411
_publ_section_title
;
Structure prediction by ZEFSAII (Michael W. Deem and Ramdas Pophale) SiO2 
 PCOD9454411
Probable space group: P B C N
;
_chemical_formula_sum "Si O2"
_cell_formula_units_Z 48
_cell_length_a 7.403313
_cell_length_b 16.924153
_cell_length_c 17.726771
_cell_angle_alpha 90.000000
_cell_angle_beta 90.000000
_cell_angle_gamma 90.000000
_cell_volume 2221.072261
_symmetry_space_group_name_H-M "P B C N"
_symmetry_group_IT_number 60
_symmetry_cell_setting 'orthorhombic'
loop_
_space_group_symop_operation_xyz
x,y,z
1/2-x,1/2-y,1/2+z
1/2+x,1/2-y,-z
-x,y,1/2-z
-x,-y,-z
1/2+x,1/2+y,1/2-z
1/2-x,1/2+y,z
x,-y,1/2+z
loop_
_atom_site_type_symbol
_atom_site_label
_atom_site_fract_x
_atom_site_fract_y
_atom_site_fract_z
Si Si1 0.857492 0.353215 0.007511
Si Si2 0.587374 0.425058 0.590738
Si Si3 0.290371 0.012919 0.549685
Si Si4 0.262640 0.875952 0.183604
Si Si5 0.909982 0.234169 0.400145
Si Si6 0.840109 0.914506 0.155609
O O1 0.948455 0.163909 0.117696
O O2 0.729618 0.375595 0.078512
O O3 0.914377 0.439206 0.976828
O O4 0.755171 0.307740 0.941813
O O5 0.392248 0.463480 0.571846
O O6 0.708046 0.430107 0.515231
O O7 0.665899 0.490381 0.647376
O O8 0.349094 0.062155 0.623375
O O9 0.495513 0.205755 0.539750
O O10 0.337588 0.789425 0.165938
O O11 0.277949 0.892915 0.271910
O O12 0.046872 0.885720 0.167067
#
# Coordination Sequence:
#
# PCOD9454411 Si02
#       6
#     8   8   8   8   8   8
#     4  10  20  34  54  79 113 146 185 235 281 331
#     4   8  15  31  54  74 101 141 187 221 263 334
#     4   8  15  31  52  75 102 143 184 219 271 339
#     4  10  19  33  55  79 106 140 186 230 284 337
#     4  11  20  32  56  86 110 139 188 239 277 323
#     4   9  19  37  55  74 108 154 186 222 280 341
#
# _framework density 21.611184000000002
#
# number of rings (size 3 to 8) (size 9 to 14) (size 15 to 20)
#    0.000    2.667    0.000    5.000    0.000    1.333 
#    0.000   10.000    0.000    0.000    0.000    0.000 
#    0.000    0.000    0.000    0.000    0.000    0.000 
#
# Total GULP energy -267960.855891 kJ/mol
# GULP energy per Si atom -5582.517831 kJ/mol
# Density = 2.156200 g / cm^3
# Si number density = 21.611184 Si / 1000 Ang^3
#
#
#
# Elastic Constant Matrix: (Units=GPa)
#
#
# Indices 1 2 3 4 5 6 
#
# 1 24.9413 29.3900 -2.9091 0.0000 0.0000 0.0000
# 2 29.3900 172.9356 63.0627 0.0000 0.0000 0.0000
# 3 -2.9091 63.0627 99.8971 0.0000 0.0000 0.0000
# 4 0.0000 0.0000 0.0000 29.8896 0.0000 0.0000
# 5 0.0000 0.0000 0.0000 0.0000 20.1168 0.0000
# 6 0.0000 0.0000 0.0000 0.0000 0.0000 41.6556
#
#
#
# Elastic Compliance Matrix: (Units=1/GPa)
#
#
# Indices 1 2 3 4 5 6 
#
# 1 0.057038 -0.013379 0.010107 0.000000 0.000000 0.000000
# 2 -0.013379 0.010650 -0.007113 0.000000 0.000000 0.000000
# 3 0.010107 -0.007113 0.014795 0.000000 0.000000 0.000000
# 4 0.000000 0.000000 0.000000 0.033456 0.000000 0.000000
# 5 0.000000 0.000000 0.000000 0.000000 0.049710 0.000000
# 6 0.000000 0.000000 0.000000 0.000000 0.000000 0.024006
#
#
# Mechanical properties :
#
#
# Convention : Reuss Voigt Hill
#
# Bulk Modulus (GPa) = 16.20395 52.98457 34.59426
# Shear Modulus (GPa) = 21.64534 32.21443 26.92988
#
# Velocity S-wave (km/s) = 3.16821 3.86507 3.53386
# Velocity P-wave (km/s) = 4.57139 6.66999 5.71779
#
# Compressibility (1/GPa) = 0.06171336
#
# Stress axis : x y z
#
# Youngs Moduli (GPa) = 17.53203 93.89694 67.59176
#
# Poissons Ratio (x) = 1.25626 -0.68315
# Poissons Ratio (y) = 0.23456 0.48076
# Poissons Ratio (z) = -0.17720 0.66786
#
# Static dielectric constant tensor:
#      x y z
#    x 1.890940 0.000000 0.000000 
#    y 0.000000 1.791340 0.000000 
#    z 0.000000 0.000000 1.807680 
# 
# From -- ./inp_files/22703.got.cif
#   From: 2010.05.17/outbox.cif.g08.bks.cpg/sg60_12_cif.got.tgz:22703.got - 2010.06.03 14:59:27.
