data_PCOD9454844
_publ_section_title
;
Structure prediction by ZEFSAII (Michael W. Deem and Ramdas Pophale) SiO2 
 PCOD9454844
Probable space group: P B C N
;
_chemical_formula_sum "Si O2"
_cell_formula_units_Z 56
_cell_length_a 13.338523
_cell_length_b 9.540988
_cell_length_c 19.126610
_cell_angle_alpha 90.000000
_cell_angle_beta 90.000000
_cell_angle_gamma 90.000000
_cell_volume 2434.103799
_symmetry_space_group_name_H-M "P B C N"
_symmetry_group_IT_number 60
_symmetry_cell_setting 'orthorhombic'
loop_
_space_group_symop_operation_xyz
x,y,z
1/2-x,1/2-y,1/2+z
1/2+x,1/2-y,-z
-x,y,1/2-z
-x,-y,-z
1/2+x,1/2+y,1/2-z
1/2-x,1/2+y,z
x,-y,1/2+z
loop_
_atom_site_type_symbol
_atom_site_label
_atom_site_fract_x
_atom_site_fract_y
_atom_site_fract_z
Si Si1 0.486938 0.754110 0.675288
Si Si2 0.645095 0.312772 0.456543
Si Si3 0.954006 0.246322 0.318607
Si Si4 0.630747 0.835935 0.091443
Si Si5 0.200029 0.379583 0.858925
Si Si6 0.314297 0.598719 0.081952
Si Si7 0.826735 0.493330 0.791864
O O1 0.500000 0.676952 0.750000
O O2 0.420612 0.687764 0.614065
O O3 0.596604 0.793107 0.647642
O O4 0.422186 0.892602 0.695344
O O5 0.593574 0.221629 0.516973
O O6 0.663275 0.475595 0.472422
O O7 0.750224 0.230005 0.445767
O O8 0.864091 0.347408 0.293778
O O9 0.000000 0.176252 0.250000
O O10 0.040272 0.339948 0.353702
O O11 0.913593 0.148826 0.379269
O O12 0.711643 0.721793 0.117313
O O13 0.678851 0.989220 0.090571
O O14 0.219389 0.447244 0.782100
O O15 0.246653 0.531556 0.143557
#
# Coordination Sequence:
#
# PCOD9454844 Si02
#       7
#     8   8   8   8   8   8   8
#     4   9  20  40  67  92 127 173 232 281 330 399
#     4  11  25  43  64  99 136 185 231 273 346 410
#     4  12  22  42  69 101 134 171 230 283 344 399
#     4  12  26  41  66 101 139 187 224 283 338 413
#     4  11  23  41  66  96 136 176 230 281 343 402
#     4  11  24  42  68  95 135 180 224 286 335 412
#     4  10  19  41  68  97 124 175 227 282 335 402
#
# _framework density 23.006413999999999
#
# number of rings (size 3 to 8) (size 9 to 14) (size 15 to 20)
#    0.000    1.143    4.286    2.143    0.000    5.143 
#    0.000    0.000    0.000    0.000    0.000    0.000 
#    0.000    0.000    0.000    0.000    0.000    0.000 
#
# Total GULP energy -313226.487239 kJ/mol
# GULP energy per Si atom -5593.330129 kJ/mol
# Density = 2.295405 g / cm^3
# Si number density = 23.006414 Si / 1000 Ang^3
#
#
#
# Elastic Constant Matrix: (Units=GPa)
#
#
# Indices 1 2 3 4 5 6 
#
# 1 37.9310 10.4725 9.7801 0.0000 0.0000 0.0000
# 2 10.4725 75.5716 -7.4836 0.0000 0.0000 0.0000
# 3 9.7801 -7.4836 54.3297 0.0000 0.0000 0.0000
# 4 0.0000 0.0000 0.0000 -5.5307 0.0000 0.0000
# 5 0.0000 0.0000 0.0000 0.0000 39.2529 0.0000
# 6 0.0000 0.0000 0.0000 0.0000 0.0000 15.3022
#
#
#
# Elastic Compliance Matrix: (Units=1/GPa)
#
#
# Indices 1 2 3 4 5 6 
#
# 1 0.029158 -0.004623 -0.005886 0.000000 0.000000 0.000000
# 2 -0.004623 0.014149 0.002781 0.000000 0.000000 0.000000
# 3 -0.005886 0.002781 0.019849 0.000000 0.000000 0.000000
# 4 0.000000 0.000000 0.000000 -0.180811 0.000000 0.000000
# 5 0.000000 0.000000 0.000000 0.000000 0.025476 0.000000
# 6 0.000000 0.000000 0.000000 0.000000 0.000000 0.065350
#
#
# Mechanical properties :
#
#
# Convention : Reuss Voigt Hill
#
# Bulk Modulus (GPa) = 20.96472 21.48560 21.22516
# Shear Modulus (GPa) = 1104.78846 20.14245 562.46545
#
# Velocity S-wave (km/s) = 21.93744 2.96212 15.65288
# Velocity P-wave (km/s) = 25.51080 4.58891 18.32838
#
# Compressibility (1/GPa) = 0.04769919
#
# Stress axis : x y z
#
# Youngs Moduli (GPa) = 34.29626 70.67846 50.38107
#
# Poissons Ratio (x) = 0.32678 0.29653
# Poissons Ratio (y) = 0.15857 -0.14012
# Poissons Ratio (z) = 0.20186 -0.19657
#
# Static dielectric constant tensor:
#      x y z
#    x 1.844270 0.000000 0.000000 
#    y 0.000000 1.831780 0.000000 
#    z 0.000000 0.000000 1.960700 
# 
# From -- ./inp_files/22905.got.cif
#   From: 2010.05.17/outbox.cif.g08.bks.cpg/sg60_12_cif.got.tgz:22905.got - 2010.06.03 14:59:27.
