data_PCOD9454560
_publ_section_title
;
Structure prediction by ZEFSAII (Michael W. Deem and Ramdas Pophale) SiO2 
 PCOD9454560
Probable space group: P B C N
;
_chemical_formula_sum "Si O2"
_cell_formula_units_Z 48
_cell_length_a 7.754094
_cell_length_b 20.008590
_cell_length_c 15.795434
_cell_angle_alpha 90.000000
_cell_angle_beta 90.000000
_cell_angle_gamma 90.000000
_cell_volume 2450.637697
_symmetry_space_group_name_H-M "P B C N"
_symmetry_group_IT_number 60
_symmetry_cell_setting 'orthorhombic'
loop_
_space_group_symop_operation_xyz
x,y,z
1/2-x,1/2-y,1/2+z
1/2+x,1/2-y,-z
-x,y,1/2-z
-x,-y,-z
1/2+x,1/2+y,1/2-z
1/2-x,1/2+y,z
x,-y,1/2+z
loop_
_atom_site_type_symbol
_atom_site_label
_atom_site_fract_x
_atom_site_fract_y
_atom_site_fract_z
Si Si1 0.001211 0.195430 0.391418
Si Si2 0.162068 0.329979 0.143223
Si Si3 0.500000 0.934754 0.250000
Si Si4 0.500000 0.609526 0.250000
Si Si5 0.169562 0.753705 0.301719
Si Si6 0.022147 0.133041 0.927283
Si Si7 0.357977 0.520227 0.815184
O O1 0.194917 0.206575 0.352850
O O2 0.974279 0.152716 0.474969
O O3 0.924913 0.269180 0.406397
O O4 0.901859 0.158019 0.314691
O O5 0.031557 0.387208 0.169737
O O6 0.227218 0.296275 0.230951
O O7 0.321231 0.364363 0.097438
O O8 0.327530 0.973489 0.272574
O O9 0.596964 0.558143 0.187215
O O10 0.000000 0.726648 0.250000
O O11 0.103745 0.807604 0.370605
O O12 0.111856 0.063594 0.899225
O O13 0.500000 0.550957 0.750000
#
# Coordination Sequence:
#
# PCOD9454560 Si02
#       7
#     8   8   4   4   8   8   8
#     4  12  21  37  59  89 124 160 190 245 312 359
#     4  11  18  33  62  87 118 152 190 234 314 367
#     4  12  17  36  68  82 111 158 204 246 294 356
#     4  10  23  42  56  78 115 172 202 230 298 362
#     4  10  19  35  57  90 122 154 189 238 304 375
#     4  11  21  35  61  95 121 145 200 262 291 346
#     4  10  21  40  60  85 113 160 214 240 285 358
#
# _framework density 19.586738
#
# number of rings (size 3 to 8) (size 9 to 14) (size 15 to 20)
#    0.500    0.667    6.667    1.500    0.000    0.667 
#    1.500    0.000    0.000    2.000    0.000    0.000 
#    0.000    0.000    0.000    0.000    0.000    0.000 
#
# Total GULP energy -267292.968939 kJ/mol
# GULP energy per Si atom -5568.603520 kJ/mol
# Density = 1.954216 g / cm^3
# Si number density = 19.586738 Si / 1000 Ang^3
#
#
#
# Elastic Constant Matrix: (Units=GPa)
#
#
# Indices 1 2 3 4 5 6 
#
# 1 80.8357 7.2959 -2.2771 0.0000 0.0000 0.0000
# 2 7.2959 59.8786 -2.4549 0.0000 0.0000 0.0000
# 3 -2.2771 -2.4549 68.0148 0.0000 0.0000 0.0000
# 4 0.0000 0.0000 0.0000 19.4428 0.0000 0.0000
# 5 0.0000 0.0000 0.0000 0.0000 19.6830 0.0000
# 6 0.0000 0.0000 0.0000 0.0000 0.0000 14.9806
#
#
#
# Elastic Compliance Matrix: (Units=1/GPa)
#
#
# Indices 1 2 3 4 5 6 
#
# 1 0.012517 -0.001510 0.000365 0.000000 0.000000 0.000000
# 2 -0.001510 0.016907 0.000560 0.000000 0.000000 0.000000
# 3 0.000365 0.000560 0.014735 0.000000 0.000000 0.000000
# 4 0.000000 0.000000 0.000000 0.051433 0.000000 0.000000
# 5 0.000000 0.000000 0.000000 0.000000 0.050805 0.000000
# 6 0.000000 0.000000 0.000000 0.000000 0.000000 0.066753
#
#
# Mechanical properties :
#
#
# Convention : Reuss Voigt Hill
#
# Bulk Modulus (GPa) = 23.26237 23.76189 23.51213
# Shear Modulus (GPa) = 21.86725 24.56561 23.21643
#
# Velocity S-wave (km/s) = 3.34493 3.54531 3.44657
# Velocity P-wave (km/s) = 5.17885 5.37744 5.27908
#
# Compressibility (1/GPa) = 0.04298788
#
# Stress axis : x y z
#
# Youngs Moduli (GPa) = 79.88909 59.14560 67.86523
#
# Poissons Ratio (x) = 0.08932 -0.02474
# Poissons Ratio (y) = 0.12065 -0.03798
# Poissons Ratio (z) = -0.02912 -0.03310
#
# Static dielectric constant tensor:
#      x y z
#    x 1.598080 0.000000 0.000000 
#    y 0.000000 1.704330 0.000000 
#    z 0.000000 0.000000 1.552670 
# 
# From -- ./inp_files/19611.got.cif
#   From: 2010.05.17/outbox.cif.g08.bks.cpg/sg60_10_cif.got.tgz:19611.got - 2010.06.03 14:59:27.
