data_PCOD9454059
_publ_section_title
;
Structure prediction by ZEFSAII (Michael W. Deem and Ramdas Pophale) SiO2 
 PCOD9454059
Probable space group: P B C N
;
_chemical_formula_sum "Si O2"
_cell_formula_units_Z 56
_cell_length_a 9.574239
_cell_length_b 24.259127
_cell_length_c 14.640705
_cell_angle_alpha 90.000000
_cell_angle_beta 90.000000
_cell_angle_gamma 90.000000
_cell_volume 3400.489378
_symmetry_space_group_name_H-M "P B C N"
_symmetry_group_IT_number 60
_symmetry_cell_setting 'orthorhombic'
loop_
_space_group_symop_operation_xyz
x,y,z
1/2-x,1/2-y,1/2+z
1/2+x,1/2-y,-z
-x,y,1/2-z
-x,-y,-z
1/2+x,1/2+y,1/2-z
1/2-x,1/2+y,z
x,-y,1/2+z
loop_
_atom_site_type_symbol
_atom_site_label
_atom_site_fract_x
_atom_site_fract_y
_atom_site_fract_z
Si Si1 0.995754 0.253533 0.142634
Si Si2 0.330085 0.029706 0.851968
Si Si3 0.751879 0.157551 0.631321
Si Si4 0.853466 0.453376 0.357429
Si Si5 0.252496 0.831148 0.159616
Si Si6 0.632576 0.462323 0.518748
Si Si7 0.520549 0.658645 0.994481
O O1 0.146214 0.281778 0.131770
O O2 0.000000 0.237658 0.250000
O O3 0.878165 0.300318 0.122933
O O4 0.971300 0.203220 0.074684
O O5 0.290058 0.093223 0.871702
O O6 0.492120 0.025486 0.882045
O O7 0.321724 0.022936 0.742735
O O8 0.226060 0.987486 0.900344
O O9 0.801049 0.169812 0.735789
O O10 0.869193 0.163073 0.553753
O O11 0.846518 0.386890 0.346249
O O12 0.735408 0.465147 0.431399
O O13 0.127884 0.831961 0.088472
O O14 0.500000 0.500000 0.500000
O O15 0.569439 0.401216 0.531266
#
# Coordination Sequence:
#
# PCOD9454059 Si02
#       7
#     8   8   8   8   8   8   8
#     4  10  20  36  55  77 104 143 180 215 267 324
#     4  10  18  36  56  80 102 141 186 226 270 308
#     4  10  18  33  58  79 104 133 181 230 265 310
#     4   9  19  34  59  77 101 140 186 232 262 307
#     4   9  18  33  56  82 101 131 182 229 265 307
#     4  11  22  35  50  83 114 142 179 218 271 332
#     4  11  21  34  51  81 114 140 171 220 275 323
#
# _framework density 16.468216999999999
#
# number of rings (size 3 to 8) (size 9 to 14) (size 15 to 20)
#    0.000    2.000    2.857    1.714    0.000    0.571 
#    2.571    0.000    0.000    0.000    3.714    0.000 
#    0.000    0.000    0.000    0.000    0.000    0.000 
#
# Total GULP energy -311963.297569 kJ/mol
# GULP energy per Si atom -5570.773171 kJ/mol
# Density = 1.643073 g / cm^3
# Si number density = 16.468217 Si / 1000 Ang^3
#
#
#
# Elastic Constant Matrix: (Units=GPa)
#
#
# Indices 1 2 3 4 5 6 
#
# 1 71.2869 41.6730 39.0435 0.0000 0.0000 0.0000
# 2 41.6730 94.7646 56.1386 0.0000 0.0000 0.0000
# 3 39.0435 56.1386 68.0924 0.0000 0.0000 0.0000
# 4 0.0000 0.0000 0.0000 28.6659 0.0000 0.0000
# 5 0.0000 0.0000 0.0000 0.0000 20.2777 0.0000
# 6 0.0000 0.0000 0.0000 0.0000 0.0000 21.8933
#
#
#
# Elastic Compliance Matrix: (Units=1/GPa)
#
#
# Indices 1 2 3 4 5 6 
#
# 1 0.021256 -0.004158 -0.008760 0.000000 0.000000 0.000000
# 2 -0.004158 0.021440 -0.015292 0.000000 0.000000 0.000000
# 3 -0.008760 -0.015292 0.032316 0.000000 0.000000 0.000000
# 4 0.000000 0.000000 0.000000 0.034885 0.000000 0.000000
# 5 0.000000 0.000000 0.000000 0.000000 0.049315 0.000000
# 6 0.000000 0.000000 0.000000 0.000000 0.000000 0.045676
#
#
# Mechanical properties :
#
#
# Convention : Reuss Voigt Hill
#
# Bulk Modulus (GPa) = 53.78527 56.42823 55.10675
# Shear Modulus (GPa) = 18.69116 20.65329 19.67223
#
# Velocity S-wave (km/s) = 3.37261 3.54521 3.45999
# Velocity P-wave (km/s) = 6.92076 7.14824 7.03542
#
# Compressibility (1/GPa) = 0.01859245
#
# Stress axis : x y z
#
# Youngs Moduli (GPa) = 47.04459 46.64195 30.94423
#
# Poissons Ratio (x) = 0.19394 0.27107
# Poissons Ratio (y) = 0.19562 0.47320
# Poissons Ratio (z) = 0.41211 0.71324
#
# Static dielectric constant tensor:
#      x y z
#    x 1.554040 0.000000 0.000000 
#    y 0.000000 1.541070 0.000000 
#    z 0.000000 0.000000 1.545190 
# 
# From -- ./inp_files/15257.got.cif
#   From: 2010.05.17/outbox.cif.g08.bks.cpg/sg60_8_cif.got.tgz:15257.got - 2010.06.03 14:59:27.
