data_PCOD9454214
_publ_section_title
;
Structure prediction by ZEFSAII (Michael W. Deem and Ramdas Pophale) SiO2 
 PCOD9454214
Probable space group: P B C N
;
_chemical_formula_sum "Si O2"
_cell_formula_units_Z 60
_cell_length_a 9.294188
_cell_length_b 27.550872
_cell_length_c 12.375637
_cell_angle_alpha 90.000000
_cell_angle_beta 90.000000
_cell_angle_gamma 90.000000
_cell_volume 3168.942538
_symmetry_space_group_name_H-M "P B C N"
_symmetry_group_IT_number 60
_symmetry_cell_setting 'orthorhombic'
loop_
_space_group_symop_operation_xyz
x,y,z
1/2-x,1/2-y,1/2+z
1/2+x,1/2-y,-z
-x,y,1/2-z
-x,-y,-z
1/2+x,1/2+y,1/2-z
1/2-x,1/2+y,z
x,-y,1/2+z
loop_
_atom_site_type_symbol
_atom_site_label
_atom_site_fract_x
_atom_site_fract_y
_atom_site_fract_z
Si Si1 0.657185 0.357798 0.450338
Si Si2 0.896330 0.472816 0.153469
Si Si3 0.227813 0.880706 0.283105
Si Si4 0.562447 0.844288 0.866657
Si Si5 0.890971 0.723587 0.969027
Si Si6 0.645744 0.336055 0.986197
Si Si7 0.100646 0.430689 0.969380
Si Si8 0.500000 0.188844 0.750000
O O1 0.630717 0.371094 0.323534
O O2 0.743302 0.306877 0.456688
O O3 0.518081 0.354117 0.526498
O O4 0.766690 0.398630 0.491296
O O5 0.776560 0.436535 0.200970
O O6 0.847802 0.520323 0.088640
O O7 0.000000 0.488857 0.250000
O O8 0.997575 0.443284 0.070128
O O9 0.185226 0.861724 0.401043
O O10 0.366888 0.847660 0.258220
O O11 0.500000 0.830403 0.750000
O O12 0.732841 0.845448 0.894796
O O13 0.495791 0.896868 0.892758
O O14 0.491695 0.806081 0.949422
O O15 0.861350 0.778222 0.002949
O O16 0.972656 0.721342 0.854540
#
# Coordination Sequence:
#
# PCOD9454214 Si02
#       8
#     8   8   8   8   8   8   8   4
#     4  10  22  39  60  95 131 160 207 269 319 376
#     4  11  18  35  70  92 113 158 218 258 309 382
#     4  11  19  37  64  94 121 158 205 269 313 374
#     4  11  23  42  61  89 130 168 211 258 309 391
#     4  10  22  40  63  89 123 170 221 257 304 380
#     4  12  23  38  61  93 128 167 210 260 326 372
#     4  10  21  38  62  93 119 159 213 261 307 381
#     4  10  18  38  66  84 120 156 218 262 298 356
#
# _framework density 18.933761000000001
#
# number of rings (size 3 to 8) (size 9 to 14) (size 15 to 20)
#    0.000    1.333    4.667    2.400    0.000    3.200 
#    2.400    0.667    0.000    1.600    0.000    0.000 
#    0.000    0.000    0.000    0.000    0.000    0.000 
#
# Total GULP energy -334690.182787 kJ/mol
# GULP energy per Si atom -5578.169713 kJ/mol
# Density = 1.889067 g / cm^3
# Si number density = 18.933761 Si / 1000 Ang^3
#
#
#
# Elastic Constant Matrix: (Units=GPa)
#
#
# Indices 1 2 3 4 5 6 
#
# 1 86.2540 30.9271 34.2099 0.0000 0.0000 0.0000
# 2 30.9271 87.7362 6.5331 0.0000 0.0000 0.0000
# 3 34.2099 6.5331 82.4389 0.0000 0.0000 0.0000
# 4 0.0000 0.0000 0.0000 11.4114 0.0000 0.0000
# 5 0.0000 0.0000 0.0000 0.0000 23.5441 0.0000
# 6 0.0000 0.0000 0.0000 0.0000 0.0000 5.5370
#
#
#
# Elastic Compliance Matrix: (Units=1/GPa)
#
#
# Indices 1 2 3 4 5 6 
#
# 1 0.015891 -0.005141 -0.006187 0.000000 0.000000 0.000000
# 2 -0.005141 0.013129 0.001093 0.000000 0.000000 0.000000
# 3 -0.006187 0.001093 0.014611 0.000000 0.000000 0.000000
# 4 0.000000 0.000000 0.000000 0.087632 0.000000 0.000000
# 5 0.000000 0.000000 0.000000 0.000000 0.042473 0.000000
# 6 0.000000 0.000000 0.000000 0.000000 0.000000 0.180604
#
#
# Mechanical properties :
#
#
# Convention : Reuss Voigt Hill
#
# Bulk Modulus (GPa) = 43.17648 44.41882 43.79765
# Shear Modulus (GPa) = 13.07089 20.41577 16.74333
#
# Velocity S-wave (km/s) = 2.63030 3.28727 2.97696
# Velocity P-wave (km/s) = 5.66375 6.15786 5.91597
#
# Compressibility (1/GPa) = 0.02316076
#
# Stress axis : x y z
#
# Youngs Moduli (GPa) = 62.92964 76.16970 68.44180
#
# Poissons Ratio (x) = 0.39158 0.42344
# Poissons Ratio (y) = 0.32351 -0.07480
# Poissons Ratio (z) = 0.38934 -0.08325
#
# Static dielectric constant tensor:
#      x y z
#    x 1.646910 0.000000 0.000000 
#    y 0.000000 1.624900 0.000000 
#    z 0.000000 0.000000 1.697850 
# 
# From -- ./inp_files/10288.got.cif
#   From: 2010.05.17/outbox.cif.g08.bks.cpg/sg60_6_cif.got.tgz:10288.got - 2010.06.03 14:59:27.
