data_PCOD9454799
_publ_section_title
;
Structure prediction by ZEFSAII (Michael W. Deem and Ramdas Pophale) SiO2 
 PCOD9454799
Probable space group: P B C N
;
_chemical_formula_sum "Si O2"
_cell_formula_units_Z 64
_cell_length_a 7.695011
_cell_length_b 11.058481
_cell_length_c 32.927895
_cell_angle_alpha 90.000000
_cell_angle_beta 90.000000
_cell_angle_gamma 90.000000
_cell_volume 2802.003602
_symmetry_space_group_name_H-M "P B C N"
_symmetry_group_IT_number 60
_symmetry_cell_setting 'orthorhombic'
loop_
_space_group_symop_operation_xyz
x,y,z
1/2-x,1/2-y,1/2+z
1/2+x,1/2-y,-z
-x,y,1/2-z
-x,-y,-z
1/2+x,1/2+y,1/2-z
1/2-x,1/2+y,z
x,-y,1/2+z
loop_
_atom_site_type_symbol
_atom_site_label
_atom_site_fract_x
_atom_site_fract_y
_atom_site_fract_z
Si Si1 0.548386 0.859820 0.876196
Si Si2 0.605020 0.364776 0.419755
Si Si3 0.003117 0.703699 0.577986
Si Si4 0.460340 0.415415 0.628071
Si Si5 0.602513 0.164350 0.291663
Si Si6 0.601900 0.022517 0.042707
Si Si7 0.937268 0.134066 0.009310
Si Si8 0.893030 0.952164 0.291848
O O1 0.521280 0.721788 0.887217
O O2 0.755600 0.881297 0.871592
O O3 0.485296 0.877653 0.830360
O O4 0.484206 0.926657 0.916237
O O5 0.814296 0.363495 0.412650
O O6 0.525811 0.494470 0.410088
O O7 0.576288 0.312699 0.464450
O O8 0.948815 0.789748 0.615342
O O9 0.860761 0.613416 0.559254
O O10 0.050555 0.789648 0.539966
O O11 0.495310 0.490215 0.669077
O O12 0.500000 0.168511 0.250000
O O13 0.743038 0.055337 0.287190
O O14 0.659497 0.308295 0.299056
O O15 0.753199 0.112590 0.030428
O O16 0.500000 0.000000 0.000000
O O17 0.000000 0.000000 0.000000
O O18 0.000000 0.952531 0.250000
#
# Coordination Sequence:
#
# PCOD9454799 Si02
#       8
#     8   8   8   8   8   8   8   8
#     4  10  21  37  67  93 126 168 222 269 333 404
#     4  11  20  38  63  88 122 163 215 269 318 389
#     4  11  24  39  61  91 124 165 221 271 323 392
#     4  10  19  39  65  96 117 169 217 266 322 399
#     4  10  22  42  70 103 138 179 226 284 350 414
#     4  12  24  42  63  92 128 177 223 277 335 395
#     4  12  26  39  58  89 128 169 219 268 331 388
#     4  10  22  42  70 102 138 177 225 278 342 419
#
# _framework density 22.840797999999999
#
# number of rings (size 3 to 8) (size 9 to 14) (size 15 to 20)
#    0.000    1.250    5.000    0.750    3.500    0.500 
#    2.250    0.000    0.000    0.000    0.000    0.000 
#    0.000    0.000    0.000    0.000    0.000    0.000 
#
# Total GULP energy -356416.409206 kJ/mol
# GULP energy per Si atom -5569.006394 kJ/mol
# Density = 2.278881 g / cm^3
# Si number density = 22.840798 Si / 1000 Ang^3
#
#
#
# Elastic Constant Matrix: (Units=GPa)
#
#
# Indices 1 2 3 4 5 6 
#
# 1 29.5800 16.5663 30.2059 0.0000 0.0000 0.0000
# 2 16.5663 120.1970 46.0743 0.0000 0.0000 0.0000
# 3 30.2059 46.0743 174.1241 0.0000 0.0000 0.0000
# 4 0.0000 0.0000 0.0000 41.7179 0.0000 0.0000
# 5 0.0000 0.0000 0.0000 0.0000 27.3741 0.0000
# 6 0.0000 0.0000 0.0000 0.0000 0.0000 29.6406
#
#
#
# Elastic Compliance Matrix: (Units=1/GPa)
#
#
# Indices 1 2 3 4 5 6 
#
# 1 0.042266 -0.003355 -0.006444 0.000000 0.000000 0.000000
# 2 -0.003355 0.009525 -0.001938 0.000000 0.000000 0.000000
# 3 -0.006444 -0.001938 0.007374 0.000000 0.000000 0.000000
# 4 0.000000 0.000000 0.000000 0.023971 0.000000 0.000000
# 5 0.000000 0.000000 0.000000 0.000000 0.036531 0.000000
# 6 0.000000 0.000000 0.000000 0.000000 0.000000 0.033738
#
#
# Mechanical properties :
#
#
# Convention : Reuss Voigt Hill
#
# Bulk Modulus (GPa) = 28.01928 56.62153 42.32041
# Shear Modulus (GPa) = 26.48635 35.15016 30.81825
#
# Velocity S-wave (km/s) = 3.40899 3.92716 3.67722
# Velocity P-wave (km/s) = 5.27151 6.73847 6.04962
#
# Compressibility (1/GPa) = 0.03568971
#
# Stress axis : x y z
#
# Youngs Moduli (GPa) = 23.65946 104.98545 135.61438
#
# Poissons Ratio (x) = 0.35224 0.87394
# Poissons Ratio (y) = 0.07938 0.26287
# Poissons Ratio (z) = 0.15247 0.20350
#
# Static dielectric constant tensor:
#      x y z
#    x 1.982320 0.000000 0.000000 
#    y 0.000000 1.997980 0.000000 
#    z 0.000000 0.000000 2.005040 
# 
# From -- ./inp_files/26012.got.cif
#   From: 2010.05.17/outbox.cif.g08.bks.cpg/sg60_14_cif.got.tgz:26012.got - 2010.06.03 14:59:27.
