data_PCOD9454778
_publ_section_title
;
Structure prediction by ZEFSAII (Michael W. Deem and Ramdas Pophale) SiO2 
 PCOD9454778
Probable space group: P B C N
;
_chemical_formula_sum "Si O2"
_cell_formula_units_Z 56
_cell_length_a 21.271587
_cell_length_b 8.033619
_cell_length_c 14.316573
_cell_angle_alpha 90.000000
_cell_angle_beta 90.000000
_cell_angle_gamma 90.000000
_cell_volume 2446.528028
_symmetry_space_group_name_H-M "P B C N"
_symmetry_group_IT_number 60
_symmetry_cell_setting 'orthorhombic'
loop_
_space_group_symop_operation_xyz
x,y,z
1/2-x,1/2-y,1/2+z
1/2+x,1/2-y,-z
-x,y,1/2-z
-x,-y,-z
1/2+x,1/2+y,1/2-z
1/2-x,1/2+y,z
x,-y,1/2+z
loop_
_atom_site_type_symbol
_atom_site_label
_atom_site_fract_x
_atom_site_fract_y
_atom_site_fract_z
Si Si1 0.221852 0.511124 0.418638
Si Si2 0.547642 0.141462 0.530549
Si Si3 0.625984 0.149604 0.705910
Si Si4 0.573339 0.494714 0.279074
Si Si5 0.856152 0.479340 0.409111
Si Si6 0.567392 0.644402 0.469564
Si Si7 0.346279 0.352921 0.362708
O O1 0.185641 0.364007 0.362794
O O2 0.208380 0.508951 0.530519
O O3 0.293223 0.487346 0.388758
O O4 0.186568 0.677070 0.383542
O O5 0.571576 0.093244 0.633953
O O6 0.505602 0.305463 0.532321
O O7 0.500000 0.000000 0.500000
O O8 0.602905 0.127222 0.454958
O O9 0.601211 0.329594 0.739084
O O10 0.642513 0.040688 0.797668
O O11 0.500000 0.474018 0.250000
O O12 0.578113 0.511172 0.389653
O O13 0.622046 0.361834 0.238085
O O14 0.891859 0.308923 0.440334
O O15 0.594998 0.608370 0.570110
#
# Coordination Sequence:
#
# PCOD9454778 Si02
#       7
#     8   8   8   8   8   8   8
#     4  10  22  43  63  90 123 167 223 271 330 384
#     4   9  16  31  57  90 127 165 203 253 317 386
#     4  10  19  38  65  95 126 166 216 265 322 393
#     4  11  22  40  63  94 130 173 209 259 336 391
#     4   8  18  33  62  93 119 161 213 263 317 385
#     4   9  19  37  59  89 124 162 211 255 318 392
#     4  11  24  43  63  88 128 169 217 282 323 388
#
# _framework density 22.889581
#
# number of rings (size 3 to 8) (size 9 to 14) (size 15 to 20)
#    0.000    2.286    1.429    1.714    0.000    1.714 
#    2.571    5.714    0.000    0.000    0.000    0.000 
#    0.000    0.000    0.000    0.000    0.000    0.000 
#
# Total GULP energy -312396.198146 kJ/mol
# GULP energy per Si atom -5578.503538 kJ/mol
# Density = 2.283748 g / cm^3
# Si number density = 22.889581 Si / 1000 Ang^3
#
#
#
# Elastic Constant Matrix: (Units=GPa)
#
#
# Indices 1 2 3 4 5 6 
#
# 1 85.7682 21.7196 32.9452 0.0000 0.0000 0.0000
# 2 21.7196 70.2400 19.8599 0.0000 0.0000 0.0000
# 3 32.9452 19.8599 109.0426 0.0000 0.0000 0.0000
# 4 0.0000 0.0000 0.0000 23.7347 0.0000 0.0000
# 5 0.0000 0.0000 0.0000 0.0000 25.7202 0.0000
# 6 0.0000 0.0000 0.0000 0.0000 0.0000 27.7376
#
#
#
# Elastic Compliance Matrix: (Units=1/GPa)
#
#
# Indices 1 2 3 4 5 6 
#
# 1 0.013869 -0.003272 -0.003594 0.000000 0.000000 0.000000
# 2 -0.003272 0.015782 -0.001886 0.000000 0.000000 0.000000
# 3 -0.003594 -0.001886 0.010600 0.000000 0.000000 0.000000
# 4 0.000000 0.000000 0.000000 0.042132 0.000000 0.000000
# 5 0.000000 0.000000 0.000000 0.000000 0.038880 0.000000
# 6 0.000000 0.000000 0.000000 0.000000 0.000000 0.036052
#
#
# Mechanical properties :
#
#
# Convention : Reuss Voigt Hill
#
# Bulk Modulus (GPa) = 43.96308 46.01116 44.98712
# Shear Modulus (GPa) = 27.41208 28.14025 27.77616
#
# Velocity S-wave (km/s) = 3.46436 3.51007 3.48729
# Velocity P-wave (km/s) = 5.93723 6.04752 5.99263
#
# Compressibility (1/GPa) = 0.02274636
#
# Stress axis : x y z
#
# Youngs Moduli (GPa) = 72.10551 63.36371 94.33889
#
# Poissons Ratio (x) = 0.20734 0.33907
# Poissons Ratio (y) = 0.23594 0.17790
# Poissons Ratio (z) = 0.25916 0.11949
#
# Static dielectric constant tensor:
#      x y z
#    x 1.868210 0.000000 0.000000 
#    y 0.000000 1.952120 0.000000 
#    z 0.000000 0.000000 1.842730 
# 
# From -- ./inp_files/17737.got.cif
#   From: 2010.05.17/outbox.cif.g08.bks.cpg/sg60_9_cif.got.tgz:17737.got - 2010.06.03 14:59:27.
