data_PCOD9454023
_publ_section_title
;
Structure prediction by ZEFSAII (Michael W. Deem and Ramdas Pophale) SiO2 
 PCOD9454023
Probable space group: P B C N
;
_chemical_formula_sum "Si O2"
_cell_formula_units_Z 52
_cell_length_a 5.637845
_cell_length_b 18.121705
_cell_length_c 18.931472
_cell_angle_alpha 90.000000
_cell_angle_beta 90.000000
_cell_angle_gamma 90.000000
_cell_volume 1934.178589
_symmetry_space_group_name_H-M "P B C N"
_symmetry_group_IT_number 60
_symmetry_cell_setting 'orthorhombic'
loop_
_space_group_symop_operation_xyz
x,y,z
1/2-x,1/2-y,1/2+z
1/2+x,1/2-y,-z
-x,y,1/2-z
-x,-y,-z
1/2+x,1/2+y,1/2-z
1/2-x,1/2+y,z
x,-y,1/2+z
loop_
_atom_site_type_symbol
_atom_site_label
_atom_site_fract_x
_atom_site_fract_y
_atom_site_fract_z
Si Si1 0.615939 0.722654 0.034565
Si Si2 0.500000 0.517246 0.750000
Si Si3 0.255978 0.168522 0.211448
Si Si4 0.335429 0.063007 0.865303
Si Si5 0.284881 0.045224 0.122177
Si Si6 0.950266 0.908983 0.459363
Si Si7 0.653742 0.189993 0.854007
O O1 0.553029 0.760702 0.109120
O O2 0.376904 0.750053 0.991191
O O3 0.610215 0.632360 0.032092
O O4 0.630827 0.562621 0.690911
O O5 0.318344 0.472889 0.700682
O O6 0.500000 0.145451 0.250000
O O7 0.268879 0.256761 0.201483
O O8 0.000000 0.156608 0.250000
O O9 0.271452 0.132806 0.131770
O O10 0.447649 0.983510 0.878128
O O11 0.529793 0.115082 0.831989
O O12 0.227667 0.088279 0.939941
O O13 0.155790 0.989277 0.065432
O O14 0.836323 0.845481 0.409509
#
# Coordination Sequence:
#
# PCOD9454023 Si02
#       7
#     8   4   8   8   8   8   8
#     4  10  19  37  66  93 128 158 201 257 325 372
#     4  10  18  32  58  84 114 154 210 262 288 354
#     4  12  28  44  61  86 131 176 205 247 318 381
#     4  10  19  35  59  88 117 153 211 256 307 351
#     4  10  21  39  59  84 119 166 212 252 301 367
#     4   9  20  37  64  95 115 157 208 266 300 367
#     4  10  23  40  60  93 127 162 203 258 318 383
#
# _framework density 26.884799999999998
#
# number of rings (size 3 to 8) (size 9 to 14) (size 15 to 20)
#    0.000    1.846    2.308    1.385    4.308    3.692 
#    5.538    0.769    0.000    0.923    0.000    0.000 
#    0.000    0.000    0.000    0.000    0.000    0.000 
#
# Total GULP energy -290038.156821 kJ/mol
# GULP energy per Si atom -5577.656862 kJ/mol
# Density = 2.682361 g / cm^3
# Si number density = 26.884800 Si / 1000 Ang^3
#
#
#
# Elastic Constant Matrix: (Units=GPa)
#
#
# Indices 1 2 3 4 5 6 
#
# 1 127.0797 39.3477 24.3266 0.0000 0.0000 0.0000
# 2 39.3477 114.0784 2.7993 0.0000 0.0000 0.0000
# 3 24.3266 2.7993 48.2844 0.0000 0.0000 0.0000
# 4 0.0000 0.0000 0.0000 27.4583 0.0000 0.0000
# 5 0.0000 0.0000 0.0000 0.0000 49.0051 0.0000
# 6 0.0000 0.0000 0.0000 0.0000 0.0000 31.0850
#
#
#
# Elastic Compliance Matrix: (Units=1/GPa)
#
#
# Indices 1 2 3 4 5 6 
#
# 1 0.009786 -0.003259 -0.004741 0.000000 0.000000 0.000000
# 2 -0.003259 0.009864 0.001070 0.000000 0.000000 0.000000
# 3 -0.004741 0.001070 0.023037 0.000000 0.000000 0.000000
# 4 0.000000 0.000000 0.000000 0.036419 0.000000 0.000000
# 5 0.000000 0.000000 0.000000 0.000000 0.020406 0.000000
# 6 0.000000 0.000000 0.000000 0.000000 0.000000 0.032170
#
#
# Mechanical properties :
#
#
# Convention : Reuss Voigt Hill
#
# Bulk Modulus (GPa) = 34.69034 46.93218 40.81126
# Shear Modulus (GPa) = 32.22671 36.37428 34.30049
#
# Velocity S-wave (km/s) = 3.46598 3.68226 3.57575
# Velocity P-wave (km/s) = 5.38040 5.96434 5.67988
#
# Compressibility (1/GPa) = 0.02882646
#
# Stress axis : x y z
#
# Youngs Moduli (GPa) = 102.18921 101.38168 43.40773
#
# Poissons Ratio (x) = 0.33040 0.20581
# Poissons Ratio (y) = 0.33303 -0.04645
# Poissons Ratio (z) = 0.48451 -0.10849
#
# Static dielectric constant tensor:
#      x y z
#    x 2.128290 0.000000 0.000000 
#    y 0.000000 2.236090 0.000000 
#    z 0.000000 0.000000 2.326770 
# 
# From -- ./inp_files/24943.got.cif
#   From: 2010.05.17/outbox.cif.g08.bks.cpg/sg60_13_cif.got.tgz:24943.got - 2010.06.03 14:59:27.
