data_PCOD9454211
_publ_section_title
;
Structure prediction by ZEFSAII (Michael W. Deem and Ramdas Pophale) SiO2 
 PCOD9454211
Probable space group: P B C N
;
_chemical_formula_sum "Si O2"
_cell_formula_units_Z 44
_cell_length_a 8.663785
_cell_length_b 14.797262
_cell_length_c 16.000364
_cell_angle_alpha 90.000000
_cell_angle_beta 90.000000
_cell_angle_gamma 90.000000
_cell_volume 2051.251410
_symmetry_space_group_name_H-M "P B C N"
_symmetry_group_IT_number 60
_symmetry_cell_setting 'orthorhombic'
loop_
_space_group_symop_operation_xyz
x,y,z
1/2-x,1/2-y,1/2+z
1/2+x,1/2-y,-z
-x,y,1/2-z
-x,-y,-z
1/2+x,1/2+y,1/2-z
1/2-x,1/2+y,z
x,-y,1/2+z
loop_
_atom_site_type_symbol
_atom_site_label
_atom_site_fract_x
_atom_site_fract_y
_atom_site_fract_z
Si Si1 0.842345 0.948940 0.984015
Si Si2 0.721150 0.910570 0.350528
Si Si3 0.727903 0.241190 0.470493
Si Si4 0.571941 0.009572 0.595054
Si Si5 0.500000 0.339693 0.250000
Si Si6 0.413665 0.194177 0.389905
O O1 0.842899 0.843659 0.962210
O O2 0.771375 0.003533 0.906332
O O3 0.739769 0.954880 0.068603
O O4 0.000000 0.000000 0.000000
O O5 0.739990 0.819554 0.404514
O O6 0.537080 0.928815 0.347326
O O7 0.849951 0.897301 0.278790
O O8 0.557257 0.203615 0.454478
O O9 0.758048 0.284791 0.560237
O O10 0.500000 0.000000 0.500000
O O11 0.584783 0.910340 0.635760
O O12 0.444126 0.270507 0.321909
#
# Coordination Sequence:
#
# PCOD9454211 Si02
#       6
#     8   8   8   8   4   8
#     4  11  20  33  62 103 121 161 231 293 331 383
#     4  10  20  40  62  90 132 175 221 274 344 413
#     4  11  19  34  66  91 122 168 223 278 316 403
#     4  10  18  38  63  92 124 173 227 281 331 402
#     4  10  24  38  62  98 138 176 210 284 358 416
#     4  11  21  39  63  95 128 171 220 272 346 405
#
# _framework density 21.450320999999999
#
# number of rings (size 3 to 8) (size 9 to 14) (size 15 to 20)
#    0.000    1.455    7.273    2.182    0.000    0.000 
#    0.000    3.636    0.000   13.091    0.000    0.000 
#    0.000    0.000    0.000    0.000    0.000    0.000 
#
# Total GULP energy -245382.134800 kJ/mol
# GULP energy per Si atom -5576.866700 kJ/mol
# Density = 2.140150 g / cm^3
# Si number density = 21.450321 Si / 1000 Ang^3
#
#
#
# Elastic Constant Matrix: (Units=GPa)
#
#
# Indices 1 2 3 4 5 6 
#
# 1 68.2929 4.5000 40.6262 0.0000 0.0000 0.0000
# 2 4.5000 121.9238 12.8977 0.0000 0.0000 0.0000
# 3 40.6262 12.8977 65.0495 0.0000 0.0000 0.0000
# 4 0.0000 0.0000 0.0000 23.1432 0.0000 0.0000
# 5 0.0000 0.0000 0.0000 0.0000 38.6304 0.0000
# 6 0.0000 0.0000 0.0000 0.0000 0.0000 22.9904
#
#
#
# Elastic Compliance Matrix: (Units=1/GPa)
#
#
# Indices 1 2 3 4 5 6 
#
# 1 0.023357 0.000696 -0.014725 0.000000 0.000000 0.000000
# 2 0.000696 0.008398 -0.002100 0.000000 0.000000 0.000000
# 3 -0.014725 -0.002100 0.024986 0.000000 0.000000 0.000000
# 4 0.000000 0.000000 0.000000 0.043209 0.000000 0.000000
# 5 0.000000 0.000000 0.000000 0.000000 0.025886 0.000000
# 6 0.000000 0.000000 0.000000 0.000000 0.000000 0.043496
#
#
# Mechanical properties :
#
#
# Convention : Reuss Voigt Hill
#
# Bulk Modulus (GPa) = 40.84572 41.25710 41.05141
# Shear Modulus (GPa) = 23.83769 30.10228 26.96998
#
# Velocity S-wave (km/s) = 3.33723 3.75019 3.54972
# Velocity P-wave (km/s) = 5.82519 6.16664 5.99835
#
# Compressibility (1/GPa) = 0.02448237
#
# Stress axis : x y z
#
# Youngs Moduli (GPa) = 42.81425 119.07205 40.02286
#
# Poissons Ratio (x) = -0.08283 0.58934
# Poissons Ratio (y) = -0.02978 0.08403
# Poissons Ratio (z) = 0.63045 0.25001
#
# Static dielectric constant tensor:
#      x y z
#    x 1.896620 0.000000 0.000000 
#    y 0.000000 1.758110 0.000000 
#    z 0.000000 0.000000 1.764920 
# 
# From -- ./inp_files/19237.got.cif
#   From: 2010.05.17/outbox.cif.g08.bks.cpg/sg60_10_cif.got.tgz:19237.got - 2010.06.03 14:59:27.
