data_PCOD9454439
_publ_section_title
;
Structure prediction by ZEFSAII (Michael W. Deem and Ramdas Pophale) SiO2 
 PCOD9454439
Probable space group: P B C N
;
_chemical_formula_sum "Si O2"
_cell_formula_units_Z 64
_cell_length_a 29.294969
_cell_length_b 5.865384
_cell_length_c 17.389997
_cell_angle_alpha 90.000000
_cell_angle_beta 90.000000
_cell_angle_gamma 90.000000
_cell_volume 2988.057841
_symmetry_space_group_name_H-M "P B C N"
_symmetry_group_IT_number 60
_symmetry_cell_setting 'orthorhombic'
loop_
_space_group_symop_operation_xyz
x,y,z
1/2-x,1/2-y,1/2+z
1/2+x,1/2-y,-z
-x,y,1/2-z
-x,-y,-z
1/2+x,1/2+y,1/2-z
1/2-x,1/2+y,z
x,-y,1/2+z
loop_
_atom_site_type_symbol
_atom_site_label
_atom_site_fract_x
_atom_site_fract_y
_atom_site_fract_z
Si Si1 0.989526 0.795729 0.556483
Si Si2 0.229539 0.173195 0.921632
Si Si3 0.432465 0.979533 0.567054
Si Si4 0.550512 0.066453 0.267568
Si Si5 0.366511 0.872813 0.953151
Si Si6 0.922200 0.064652 0.649427
Si Si7 0.238669 0.663986 0.745386
Si Si8 0.636380 0.809869 0.196695
O O1 0.959273 0.626599 0.504860
O O2 0.037442 0.701971 0.585862
O O3 0.956592 0.870952 0.623994
O O4 0.000000 0.000000 0.500000
O O5 0.255221 0.414088 0.944926
O O6 0.178842 0.223218 0.951409
O O7 0.234987 0.169653 0.828375
O O8 0.439838 0.846268 0.645923
O O9 0.382214 0.027057 0.534899
O O10 0.500000 0.968624 0.250000
O O11 0.553892 0.276482 0.209887
O O12 0.594070 0.911634 0.244891
O O13 0.407893 0.713466 0.924069
O O14 0.361161 0.063400 0.886336
O O15 0.876424 0.952131 0.682211
O O16 0.250767 0.415054 0.709080
O O17 0.184750 0.659739 0.763366
#
# Coordination Sequence:
#
# PCOD9454439 Si02
#       8
#     8   8   8   8   8   8   8   8
#     4  11  21  38  64  87 121 168 224 266 324 394
#     4  10  19  33  59  96 131 162 212 278 339 401
#     4  11  24  40  61  91 130 167 216 280 336 401
#     4  11  26  42  59  88 136 178 224 280 351 407
#     4  11  21  36  62  95 124 162 214 279 332 398
#     4  11  22  38  62  90 123 171 225 272 333 407
#     4  10  19  34  62  96 130 163 218 285 341 399
#     4  11  22  38  63  92 128 168 217 282 330 412
#
# _framework density 21.418595
#
# number of rings (size 3 to 8) (size 9 to 14) (size 15 to 20)
#    0.000    1.250    5.000    3.000    5.250    2.500 
#    0.000    0.000    0.000    1.500    0.000    0.000 
#    0.000    0.000    0.000    0.000    0.000    0.000 
#
# Total GULP energy -356958.436847 kJ/mol
# GULP energy per Si atom -5577.475576 kJ/mol
# Density = 2.136985 g / cm^3
# Si number density = 21.418595 Si / 1000 Ang^3
#
#
#
# Elastic Constant Matrix: (Units=GPa)
#
#
# Indices 1 2 3 4 5 6 
#
# 1 84.1963 26.5770 29.3397 0.0000 0.0000 0.0000
# 2 26.5770 86.9718 0.5399 0.0000 0.0000 0.0000
# 3 29.3397 0.5399 34.5027 0.0000 0.0000 0.0000
# 4 0.0000 0.0000 0.0000 0.1829 0.0000 0.0000
# 5 0.0000 0.0000 0.0000 0.0000 19.7823 0.0000
# 6 0.0000 0.0000 0.0000 0.0000 0.0000 26.8499
#
#
#
# Elastic Compliance Matrix: (Units=1/GPa)
#
#
# Indices 1 2 3 4 5 6 
#
# 1 0.019454 -0.005843 -0.016451 0.000000 0.000000 0.000000
# 2 -0.005843 0.013254 0.004761 0.000000 0.000000 0.000000
# 3 -0.016451 0.004761 0.042898 0.000000 0.000000 0.000000
# 4 0.000000 0.000000 0.000000 5.466933 0.000000 0.000000
# 5 0.000000 0.000000 0.000000 0.000000 0.050550 0.000000
# 6 0.000000 0.000000 0.000000 0.000000 0.000000 0.037244
#
#
# Mechanical properties :
#
#
# Convention : Reuss Voigt Hill
#
# Bulk Modulus (GPa) = 24.66709 35.39823 30.03266
# Shear Modulus (GPa) = 0.88045 19.31063 10.09554
#
# Velocity S-wave (km/s) = 0.64184 3.00589 2.17340
# Velocity P-wave (km/s) = 3.47720 5.34883 4.51115
#
# Compressibility (1/GPa) = 0.04053985
#
# Stress axis : x y z
#
# Youngs Moduli (GPa) = 51.40309 75.44975 23.31093
#
# Poissons Ratio (x) = 0.44083 0.38350
# Poissons Ratio (y) = 0.30033 -0.11098
# Poissons Ratio (z) = 0.84566 -0.35921
#
# Static dielectric constant tensor:
#      x y z
#    x 1.795540 0.000000 0.000000 
#    y 0.000000 1.871370 0.000000 
#    z 0.000000 0.000000 1.825500 
# 
# From -- ./inp_files/21298.got.cif
#   From: 2010.05.17/outbox.cif.g08.bks.cpg/sg60_11_cif.got.tgz:21298.got - 2010.06.03 14:59:27.
