data_PCOD9454534
_publ_section_title
;
Structure prediction by ZEFSAII (Michael W. Deem and Ramdas Pophale) SiO2 
 PCOD9454534
Probable space group: P B C N
;
_chemical_formula_sum "Si O2"
_cell_formula_units_Z 64
_cell_length_a 20.751525
_cell_length_b 22.157632
_cell_length_c 8.656007
_cell_angle_alpha 90.000000
_cell_angle_beta 90.000000
_cell_angle_gamma 90.000000
_cell_volume 3980.072307
_symmetry_space_group_name_H-M "P B C N"
_symmetry_group_IT_number 60
_symmetry_cell_setting 'orthorhombic'
loop_
_space_group_symop_operation_xyz
x,y,z
1/2-x,1/2-y,1/2+z
1/2+x,1/2-y,-z
-x,y,1/2-z
-x,-y,-z
1/2+x,1/2+y,1/2-z
1/2-x,1/2+y,z
x,-y,1/2+z
loop_
_atom_site_type_symbol
_atom_site_label
_atom_site_fract_x
_atom_site_fract_y
_atom_site_fract_z
Si Si1 0.194565 0.794944 0.257527
Si Si2 0.378246 0.330479 0.542710
Si Si3 0.862365 0.920569 0.369458
Si Si4 0.797514 0.013289 0.147586
Si Si5 0.317417 0.199172 0.978730
Si Si6 0.565655 0.256681 0.672359
Si Si7 0.752246 0.086264 0.419912
Si Si8 0.012285 0.849576 0.081393
O O1 0.143768 0.788076 0.399385
O O2 0.175877 0.860961 0.189515
O O3 0.263341 0.792328 0.344414
O O4 0.191153 0.747642 0.117629
O O5 0.396029 0.293050 0.694537
O O6 0.318857 0.375091 0.572408
O O7 0.442632 0.365463 0.488904
O O8 0.834614 0.942729 0.531963
O O9 0.936845 0.902676 0.387934
O O10 0.847291 0.974691 0.251453
O O11 0.752434 0.052282 0.258237
O O12 0.757753 0.964567 0.050196
O O13 0.386681 0.208903 0.903080
O O14 0.303736 0.133586 0.048772
O O15 0.500000 0.233146 0.750000
O O16 0.544681 0.303638 0.538773
O O17 0.000000 0.821155 0.250000
#
# Coordination Sequence:
#
# PCOD9454534 Si02
#       8
#     8   8   8   8   8   8   8   8
#     4  11  21  33  56  77 108 131 177 227 268 322
#     4  10  19  35  49  77 105 145 176 216 265 313
#     4  11  20  36  51  72 102 148 179 223 261 305
#     4  10  21  36  50  69 105 142 181 223 261 303
#     4  11  20  34  52  83 101 135 173 223 276 325
#     4  10  21  33  53  80 112 142 171 215 277 334
#     4  10  20  35  52  72 104 133 179 219 261 314
#     4  11  18  33  54  71 107 145 182 214 267 305
#
# _framework density 16.080110000000001
#
# number of rings (size 3 to 8) (size 9 to 14) (size 15 to 20)
#    0.000    1.500    5.000    2.250    1.750    0.000 
#    0.000    6.875    0.000    0.000    0.000    0.875 
#    0.000    0.000    0.000    0.000    0.000    0.000 
#
# Total GULP energy -356908.481359 kJ/mol
# GULP energy per Si atom -5576.695021 kJ/mol
# Density = 1.604351 g / cm^3
# Si number density = 16.080110 Si / 1000 Ang^3
#
#
#
# Elastic Constant Matrix: (Units=GPa)
#
#
# Indices 1 2 3 4 5 6 
#
# 1 61.8574 43.1013 47.1019 0.0000 0.0000 0.0000
# 2 43.1013 63.1743 47.2738 0.0000 0.0000 0.0000
# 3 47.1019 47.2738 109.7669 0.0000 0.0000 0.0000
# 4 0.0000 0.0000 0.0000 17.2291 0.0000 0.0000
# 5 0.0000 0.0000 0.0000 0.0000 24.3983 0.0000
# 6 0.0000 0.0000 0.0000 0.0000 0.0000 15.7504
#
#
#
# Elastic Compliance Matrix: (Units=1/GPa)
#
#
# Indices 1 2 3 4 5 6 
#
# 1 0.033913 -0.018072 -0.006769 0.000000 0.000000 0.000000
# 2 -0.018072 0.032987 -0.006452 0.000000 0.000000 0.000000
# 3 -0.006769 -0.006452 0.014794 0.000000 0.000000 0.000000
# 4 0.000000 0.000000 0.000000 0.058041 0.000000 0.000000
# 5 0.000000 0.000000 0.000000 0.000000 0.040987 0.000000
# 6 0.000000 0.000000 0.000000 0.000000 0.000000 0.063490
#
#
# Mechanical properties :
#
#
# Convention : Reuss Voigt Hill
#
# Bulk Modulus (GPa) = 52.33549 56.63917 54.48733
# Shear Modulus (GPa) = 15.96593 17.96366 16.96480
#
# Velocity S-wave (km/s) = 3.15445 3.34598 3.25163
# Velocity P-wave (km/s) = 6.77383 7.08711 6.93224
#
# Compressibility (1/GPa) = 0.01910749
#
# Stress axis : x y z
#
# Youngs Moduli (GPa) = 29.48726 30.31507 67.59707
#
# Poissons Ratio (x) = 0.54785 0.45758
# Poissons Ratio (y) = 0.53289 0.43612
# Poissons Ratio (z) = 0.19960 0.19559
#
# Static dielectric constant tensor:
#      x y z
#    x 1.540830 0.000000 0.000000 
#    y 0.000000 1.521620 0.000000 
#    z 0.000000 0.000000 1.574220 
# 
# From -- ./inp_files/7571.got.cif
#   From: 2010.05.17/outbox.cif.g08.bks.cpg/sg60_4_cif.got.tgz:7571.got - 2010.06.03 14:59:27.
