data_PCOD9454729
_publ_section_title
;
Structure prediction by ZEFSAII (Michael W. Deem and Ramdas Pophale) SiO2 
 PCOD9454729
Probable space group: P B C N
;
_chemical_formula_sum "Si O2"
_cell_formula_units_Z 56
_cell_length_a 5.486512
_cell_length_b 19.556416
_cell_length_c 21.156146
_cell_angle_alpha 90.000000
_cell_angle_beta 90.000000
_cell_angle_gamma 90.000000
_cell_volume 2269.980653
_symmetry_space_group_name_H-M "P B C N"
_symmetry_group_IT_number 60
_symmetry_cell_setting 'orthorhombic'
loop_
_space_group_symop_operation_xyz
x,y,z
1/2-x,1/2-y,1/2+z
1/2+x,1/2-y,-z
-x,y,1/2-z
-x,-y,-z
1/2+x,1/2+y,1/2-z
1/2-x,1/2+y,z
x,-y,1/2+z
loop_
_atom_site_type_symbol
_atom_site_label
_atom_site_fract_x
_atom_site_fract_y
_atom_site_fract_z
Si Si1 0.624550 0.450331 0.686925
Si Si2 0.700510 0.516879 0.918234
Si Si3 0.859373 0.626035 0.453981
Si Si4 0.044409 0.807405 0.651074
Si Si5 0.046650 0.267141 0.870840
Si Si6 0.555906 0.932481 0.179679
Si Si7 0.116939 0.869284 0.424182
O O1 0.500000 0.479959 0.750000
O O2 0.486287 0.475198 0.625069
O O3 0.581324 0.370148 0.687481
O O4 0.885514 0.485627 0.685172
O O5 0.863624 0.456213 0.946761
O O6 0.838692 0.567106 0.869884
O O7 0.542501 0.570796 0.957929
O O8 0.631325 0.662735 0.417311
O O9 0.836503 0.643156 0.527077
O O10 0.068064 0.665261 0.415297
O O11 0.312935 0.782157 0.674159
O O12 0.823528 0.753981 0.651322
O O13 0.978719 0.200905 0.911710
O O14 0.500000 0.906900 0.250000
O O15 0.779595 0.897730 0.142493
#
# Coordination Sequence:
#
# PCOD9454729 Si02
#       7
#     8   8   8   8   8   8   8
#     4  10  19  37  66  94 124 173 233 287 341 403
#     4  10  21  41  63  99 134 167 228 293 347 408
#     4   9  22  40  67  99 136 174 231 290 342 417
#     4   9  22  39  66  94 135 167 231 280 337 399
#     4  10  23  42  65  96 137 182 224 275 346 421
#     4  11  23  38  67  97 137 185 233 285 353 428
#     4  11  25  38  67  99 138 187 225 282 361 423
#
# _framework density 24.669815
#
# number of rings (size 3 to 8) (size 9 to 14) (size 15 to 20)
#    0.857    1.143    1.429    1.286    4.000    1.714 
#    0.000    0.714    3.143    0.000    0.000    0.000 
#    0.000    0.000    0.000    0.000    0.000    0.000 
#
# Total GULP energy -311820.553633 kJ/mol
# GULP energy per Si atom -5568.224172 kJ/mol
# Density = 2.461367 g / cm^3
# Si number density = 24.669815 Si / 1000 Ang^3
#
#
#
# Elastic Constant Matrix: (Units=GPa)
#
#
# Indices 1 2 3 4 5 6 
#
# 1 87.0663 9.8265 3.3968 0.0000 0.0000 0.0000
# 2 9.8265 80.0036 11.7050 0.0000 0.0000 0.0000
# 3 3.3968 11.7050 59.6927 0.0000 0.0000 0.0000
# 4 0.0000 0.0000 0.0000 12.4882 0.0000 0.0000
# 5 0.0000 0.0000 0.0000 0.0000 21.9677 0.0000
# 6 0.0000 0.0000 0.0000 0.0000 0.0000 16.6284
#
#
#
# Elastic Compliance Matrix: (Units=1/GPa)
#
#
# Indices 1 2 3 4 5 6 
#
# 1 0.011656 -0.001374 -0.000394 0.000000 0.000000 0.000000
# 2 -0.001374 0.013031 -0.002477 0.000000 0.000000 0.000000
# 3 -0.000394 -0.002477 0.017261 0.000000 0.000000 0.000000
# 4 0.000000 0.000000 0.000000 0.080076 0.000000 0.000000
# 5 0.000000 0.000000 0.000000 0.000000 0.045521 0.000000
# 6 0.000000 0.000000 0.000000 0.000000 0.000000 0.060138
#
#
# Mechanical properties :
#
#
# Convention : Reuss Voigt Hill
#
# Bulk Modulus (GPa) = 29.88870 30.73547 30.31208
# Shear Modulus (GPa) = 20.21636 23.67246 21.94441
#
# Velocity S-wave (km/s) = 2.86576 3.10106 2.98573
# Velocity P-wave (km/s) = 4.80540 5.03069 4.91934
#
# Compressibility (1/GPa) = 0.03345746
#
# Stress axis : x y z
#
# Youngs Moduli (GPa) = 85.79313 76.74241 57.93545
#
# Poissons Ratio (x) = 0.10545 0.02282
# Poissons Ratio (y) = 0.11788 0.14350
# Poissons Ratio (z) = 0.03379 0.19009
#
# Static dielectric constant tensor:
#      x y z
#    x 2.124540 0.000000 0.000000 
#    y 0.000000 2.035070 0.000000 
#    z 0.000000 0.000000 2.021550 
# 
# From -- ./inp_files/23695.got.cif
#   From: 2010.05.17/outbox.cif.g08.bks.cpg/sg60_12_cif.got.tgz:23695.got - 2010.06.03 14:59:27.
