data_PCOD9454987
_publ_section_title
;
Structure prediction by ZEFSAII (Michael W. Deem and Ramdas Pophale) SiO2 
 PCOD9454987
Probable space group: P B C N
;
_chemical_formula_sum "Si O2"
_cell_formula_units_Z 52
_cell_length_a 23.494880
_cell_length_b 4.777002
_cell_length_c 19.186044
_cell_angle_alpha 90.000000
_cell_angle_beta 90.000000
_cell_angle_gamma 90.000000
_cell_volume 2153.347351
_symmetry_space_group_name_H-M "P B C N"
_symmetry_group_IT_number 60
_symmetry_cell_setting 'orthorhombic'
loop_
_space_group_symop_operation_xyz
x,y,z
1/2-x,1/2-y,1/2+z
1/2+x,1/2-y,-z
-x,y,1/2-z
-x,-y,-z
1/2+x,1/2+y,1/2-z
1/2-x,1/2+y,z
x,-y,1/2+z
loop_
_atom_site_type_symbol
_atom_site_label
_atom_site_fract_x
_atom_site_fract_y
_atom_site_fract_z
Si Si1 0.606874 0.675368 0.950458
Si Si2 0.214281 0.846692 0.564909
Si Si3 0.343046 0.578196 0.693734
Si Si4 0.618758 0.041322 0.724161
Si Si5 0.491737 0.439923 0.897768
Si Si6 0.081221 0.553996 0.424507
Si Si7 0.000000 0.782528 0.250000
O O1 0.658632 0.470305 0.971756
O O2 0.623414 0.735595 0.869765
O O3 0.546045 0.528527 0.941938
O O4 0.601456 0.933247 0.002225
O O5 0.230171 0.531714 0.548737
O O6 0.202666 0.911261 0.646916
O O7 0.333057 0.830441 0.746631
O O8 0.374760 0.339473 0.738557
O O9 0.557112 0.904331 0.742798
O O10 0.620218 0.039453 0.640374
O O11 0.502506 0.523114 0.818126
O O12 0.436241 0.623619 0.918227
O O13 0.522391 0.883234 0.091043
#
# Coordination Sequence:
#
# PCOD9454987 Si02
#       7
#     8   8   8   8   8   8   4
#     4  10  24  40  62  86 122 157 198 250 294 346
#     4  10  22  39  65  90 109 146 202 253 298 348
#     4  10  23  37  63  82 115 147 199 240 295 338
#     4  11  21  36  56  87 117 160 188 237 281 343
#     4  11  23  36  58  87 125 161 202 234 289 348
#     4  11  25  37  58  89 128 161 196 232 291 358
#     4  10  20  34  56  84 120 160 206 230 268 344
#
# _framework density 24.148447999999998
#
# number of rings (size 3 to 8) (size 9 to 14) (size 15 to 20)
#    0.923    0.615    1.538    3.692    4.308    4.923 
#    0.000    0.000    0.000    5.538    0.000    0.000 
#    0.000    0.000    0.000    0.000    0.000    0.000 
#
# Total GULP energy -290687.034892 kJ/mol
# GULP energy per Si atom -5590.135286 kJ/mol
# Density = 2.409348 g / cm^3
# Si number density = 24.148448 Si / 1000 Ang^3
#
#
#
# Elastic Constant Matrix: (Units=GPa)
#
#
# Indices 1 2 3 4 5 6 
#
# 1 53.5664 7.0728 3.3608 0.0000 0.0000 0.0000
# 2 7.0728 96.2692 26.0470 0.0000 0.0000 0.0000
# 3 3.3608 26.0470 114.7004 0.0000 0.0000 0.0000
# 4 0.0000 0.0000 0.0000 34.6999 0.0000 0.0000
# 5 0.0000 0.0000 0.0000 0.0000 26.7430 0.0000
# 6 0.0000 0.0000 0.0000 0.0000 0.0000 36.6205
#
#
#
# Elastic Compliance Matrix: (Units=1/GPa)
#
#
# Indices 1 2 3 4 5 6 
#
# 1 0.018858 -0.001317 -0.000254 0.000000 0.000000 0.000000
# 2 -0.001317 0.011160 -0.002496 0.000000 0.000000 0.000000
# 3 -0.000254 -0.002496 0.009293 0.000000 0.000000 0.000000
# 4 0.000000 0.000000 0.000000 0.028819 0.000000 0.000000
# 5 0.000000 0.000000 0.000000 0.000000 0.037393 0.000000
# 6 0.000000 0.000000 0.000000 0.000000 0.000000 0.027307
#
#
# Mechanical properties :
#
#
# Convention : Reuss Voigt Hill
#
# Bulk Modulus (GPa) = 32.07368 37.49969 34.78668
# Shear Modulus (GPa) = 33.03522 34.81637 33.92579
#
# Velocity S-wave (km/s) = 3.70267 3.80118 3.75225
# Velocity P-wave (km/s) = 5.62053 5.90151 5.76273
#
# Compressibility (1/GPa) = 0.03117821
#
# Stress axis : x y z
#
# Youngs Moduli (GPa) = 53.02734 89.60965 107.61354
#
# Poissons Ratio (x) = 0.11801 0.02728
# Poissons Ratio (y) = 0.06983 0.26856
# Poissons Ratio (z) = 0.01344 0.22363
#
# Static dielectric constant tensor:
#      x y z
#    x 1.985360 0.000000 0.000000 
#    y 0.000000 1.891230 0.000000 
#    z 0.000000 0.000000 1.965340 
# 
# From -- ./inp_files/21194.got.cif
#   From: 2010.05.17/outbox.cif.g08.bks.cpg/sg60_11_cif.got.tgz:21194.got - 2010.06.03 14:59:27.
