data_PCOD9454195
_publ_section_title
;
Structure prediction by ZEFSAII (Michael W. Deem and Ramdas Pophale) SiO2 
 PCOD9454195
Probable space group: P B C N
;
_chemical_formula_sum "Si O2"
_cell_formula_units_Z 40
_cell_length_a 14.977661
_cell_length_b 8.735364
_cell_length_c 12.009590
_cell_angle_alpha 90.000000
_cell_angle_beta 90.000000
_cell_angle_gamma 90.000000
_cell_volume 1571.278559
_symmetry_space_group_name_H-M "P B C N"
_symmetry_group_IT_number 60
_symmetry_cell_setting 'orthorhombic'
loop_
_space_group_symop_operation_xyz
x,y,z
1/2-x,1/2-y,1/2+z
1/2+x,1/2-y,-z
-x,y,1/2-z
-x,-y,-z
1/2+x,1/2+y,1/2-z
1/2-x,1/2+y,z
x,-y,1/2+z
loop_
_atom_site_type_symbol
_atom_site_label
_atom_site_fract_x
_atom_site_fract_y
_atom_site_fract_z
Si Si1 0.395191 0.278811 0.746501
Si Si2 0.715957 0.169979 0.928850
Si Si3 0.135864 0.631209 0.959818
Si Si4 0.142019 0.890296 0.261161
Si Si5 0.995366 0.840892 0.068689
O O1 0.500000 0.303205 0.750000
O O2 0.364969 0.269658 0.618925
O O3 0.376391 0.134668 0.826984
O O4 0.350271 0.432003 0.793731
O O5 0.771665 0.152296 0.811645
O O6 0.785928 0.248513 0.009761
O O7 0.672352 0.019569 0.980696
O O8 0.042646 0.698249 0.007141
O O9 0.064920 0.870868 0.169304
O O10 0.100699 0.811483 0.371698
O O11 0.000000 0.000000 0.000000
#
# Coordination Sequence:
#
# PCOD9454195 Si02
#       5
#     8   8   8   8   8
#     4  12  24  46  70 100 149 184 234 302 363 416
#     4  11  26  45  67 107 145 181 248 294 360 423
#     4  11  25  43  75 105 139 195 239 299 362 430
#     4  10  20  39  65  97 131 185 227 288 337 434
#     4  10  18  37  68  99 131 174 236 277 350 430
#
# _framework density 25.456976000000001
#
# number of rings (size 3 to 8) (size 9 to 14) (size 15 to 20)
#    0.000    1.200    6.000    0.000    2.800    0.800 
#   10.800    0.000    0.000    0.000    0.000    0.000 
#    0.000    0.000    0.000    0.000    0.000    0.000 
#
# Total GULP energy -223581.028347 kJ/mol
# GULP energy per Si atom -5589.525709 kJ/mol
# Density = 2.539903 g / cm^3
# Si number density = 25.456976 Si / 1000 Ang^3
#
#
#
# Elastic Constant Matrix: (Units=GPa)
#
#
# Indices 1 2 3 4 5 6 
#
# 1 55.6416 14.5952 -0.7676 0.0000 0.0000 0.0000
# 2 14.5952 59.8994 -6.3508 0.0000 0.0000 0.0000
# 3 -0.7676 -6.3508 86.1106 0.0000 0.0000 0.0000
# 4 0.0000 0.0000 0.0000 28.2499 0.0000 0.0000
# 5 0.0000 0.0000 0.0000 0.0000 45.1626 0.0000
# 6 0.0000 0.0000 0.0000 0.0000 0.0000 32.2263
#
#
#
# Elastic Compliance Matrix: (Units=1/GPa)
#
#
# Indices 1 2 3 4 5 6 
#
# 1 0.019202 -0.004697 -0.000175 0.000000 0.000000 0.000000
# 2 -0.004697 0.017975 0.001284 0.000000 0.000000 0.000000
# 3 -0.000175 0.001284 0.011706 0.000000 0.000000 0.000000
# 4 0.000000 0.000000 0.000000 0.035398 0.000000 0.000000
# 5 0.000000 0.000000 0.000000 0.000000 0.022142 0.000000
# 6 0.000000 0.000000 0.000000 0.000000 0.000000 0.031031
#
#
# Mechanical properties :
#
#
# Convention : Reuss Voigt Hill
#
# Bulk Modulus (GPa) = 23.97752 24.06726 24.02239
# Shear Modulus (GPa) = 31.53899 34.07274 32.80587
#
# Velocity S-wave (km/s) = 3.52364 3.66244 3.59371
# Velocity P-wave (km/s) = 5.09843 5.23061 5.16494
#
# Compressibility (1/GPa) = 0.04170574
#
# Stress axis : x y z
#
# Youngs Moduli (GPa) = 52.07821 55.63182 85.42562
#
# Poissons Ratio (x) = 0.26132 0.01497
# Poissons Ratio (y) = 0.24463 -0.10967
# Poissons Ratio (z) = 0.00913 -0.07142
#
# Static dielectric constant tensor:
#      x y z
#    x 2.115110 0.000000 0.000000 
#    y 0.000000 1.987660 0.000000 
#    z 0.000000 0.000000 2.018300 
# 
# From -- ./inp_files/16597.got.cif
#   From: 2010.05.17/outbox.cif.g08.bks.cpg/sg60_9_cif.got.tgz:16597.got - 2010.06.03 14:59:27.
