data_PCOD9454374
_publ_section_title
;
Structure prediction by ZEFSAII (Michael W. Deem and Ramdas Pophale) SiO2 
 PCOD9454374
Probable space group: P B C N
;
_chemical_formula_sum "Si O2"
_cell_formula_units_Z 52
_cell_length_a 9.643577
_cell_length_b 24.368309
_cell_length_c 12.248854
_cell_angle_alpha 90.000000
_cell_angle_beta 90.000000
_cell_angle_gamma 90.000000
_cell_volume 2878.452079
_symmetry_space_group_name_H-M "P B C N"
_symmetry_group_IT_number 60
_symmetry_cell_setting 'orthorhombic'
loop_
_space_group_symop_operation_xyz
x,y,z
1/2-x,1/2-y,1/2+z
1/2+x,1/2-y,-z
-x,y,1/2-z
-x,-y,-z
1/2+x,1/2+y,1/2-z
1/2-x,1/2+y,z
x,-y,1/2+z
loop_
_atom_site_type_symbol
_atom_site_label
_atom_site_fract_x
_atom_site_fract_y
_atom_site_fract_z
Si Si1 0.615373 0.724783 0.973545
Si Si2 0.500000 0.265666 0.250000
Si Si3 0.838819 0.439366 0.757234
Si Si4 0.139449 0.201680 0.099680
Si Si5 0.766436 0.681382 0.174514
Si Si6 0.373772 0.575718 0.057419
Si Si7 0.404360 0.492973 0.342998
O O1 0.568233 0.703496 0.853590
O O2 0.713948 0.776298 0.945562
O O3 0.481480 0.738487 0.047674
O O4 0.703611 0.685924 0.053949
O O5 0.387737 0.225616 0.306840
O O6 0.817831 0.379499 0.702537
O O7 0.769496 0.434824 0.877271
O O8 0.739948 0.483038 0.698655
O O9 0.000000 0.453402 0.750000
O O10 0.156182 0.197125 0.230202
O O11 0.106683 0.140648 0.057941
O O12 0.499731 0.544687 0.119346
O O13 0.375947 0.548535 0.939940
O O14 0.500000 0.466143 0.250000
#
# Coordination Sequence:
#
# PCOD9454374 Si02
#       7
#     8   4   8   8   8   8   8
#     4  11  20  35  54  78 113 148 188 231 282 332
#     4  10  20  34  48  82 112 144 182 236 276 330
#     4  10  19  32  59  86 109 140 186 246 288 333
#     4  10  21  34  56  81 109 150 191 235 277 333
#     4  10  19  35  56  78 111 145 193 229 282 337
#     4   9  19  36  54  80 111 144 194 229 275 344
#     4   9  18  35  56  79 110 147 186 232 285 339
#
# _framework density 18.065265
#
# number of rings (size 3 to 8) (size 9 to 14) (size 15 to 20)
#    0.000    2.154    2.308    1.385    0.000    3.077 
#    1.385    0.000    0.000    1.846    0.000    0.000 
#    0.000    0.000    0.000    0.000    0.000    0.000 
#
# Total GULP energy -289749.750349 kJ/mol
# GULP energy per Si atom -5572.110584 kJ/mol
# Density = 1.802415 g / cm^3
# Si number density = 18.065265 Si / 1000 Ang^3
#
#
#
# Elastic Constant Matrix: (Units=GPa)
#
#
# Indices 1 2 3 4 5 6 
#
# 1 121.2455 17.5916 53.2650 0.0000 0.0000 0.0000
# 2 17.5916 40.1477 43.1173 0.0000 0.0000 0.0000
# 3 53.2650 43.1173 140.7780 0.0000 0.0000 0.0000
# 4 0.0000 0.0000 0.0000 6.6630 0.0000 0.0000
# 5 0.0000 0.0000 0.0000 0.0000 23.1361 0.0000
# 6 0.0000 0.0000 0.0000 0.0000 0.0000 9.7421
#
#
#
# Elastic Compliance Matrix: (Units=1/GPa)
#
#
# Indices 1 2 3 4 5 6 
#
# 1 0.009898 -0.000469 -0.003601 0.000000 0.000000 0.000000
# 2 -0.000469 0.037139 -0.011197 0.000000 0.000000 0.000000
# 3 -0.003601 -0.011197 0.011895 0.000000 0.000000 0.000000
# 4 0.000000 0.000000 0.000000 0.150083 0.000000 0.000000
# 5 0.000000 0.000000 0.000000 0.000000 0.043222 0.000000
# 6 0.000000 0.000000 0.000000 0.000000 0.000000 0.102647
#
#
# Mechanical properties :
#
#
# Convention : Reuss Voigt Hill
#
# Bulk Modulus (GPa) = 35.21532 58.90210 47.05871
# Shear Modulus (GPa) = 12.66185 20.45472 16.55829
#
# Velocity S-wave (km/s) = 2.65031 3.36857 3.03079
# Velocity P-wave (km/s) = 5.37599 6.91416 6.19302
#
# Compressibility (1/GPa) = 0.02839673
#
# Stress axis : x y z
#
# Youngs Moduli (GPa) = 101.03147 26.92559 84.06549
#
# Poissons Ratio (x) = 0.01264 0.30274
# Poissons Ratio (y) = 0.04742 0.94132
# Poissons Ratio (z) = 0.36384 0.30150
#
# Static dielectric constant tensor:
#      x y z
#    x 1.655050 0.000000 0.000000 
#    y 0.000000 1.580380 0.000000 
#    z 0.000000 0.000000 1.653900 
# 
# From -- ./inp_files/10251.got.cif
#   From: 2010.05.17/outbox.cif.g08.bks.cpg/sg60_6_cif.got.tgz:10251.got - 2010.06.03 14:59:27.
