data_PCOD9454594
_publ_section_title
;
Structure prediction by ZEFSAII (Michael W. Deem and Ramdas Pophale) SiO2 
 PCOD9454594
Probable space group: P B C N
;
_chemical_formula_sum "Si O2"
_cell_formula_units_Z 64
_cell_length_a 17.871193
_cell_length_b 5.066635
_cell_length_c 34.049663
_cell_angle_alpha 90.000000
_cell_angle_beta 90.000000
_cell_angle_gamma 90.000000
_cell_volume 3083.088432
_symmetry_space_group_name_H-M "P B C N"
_symmetry_group_IT_number 60
_symmetry_cell_setting 'orthorhombic'
loop_
_space_group_symop_operation_xyz
x,y,z
1/2-x,1/2-y,1/2+z
1/2+x,1/2-y,-z
-x,y,1/2-z
-x,-y,-z
1/2+x,1/2+y,1/2-z
1/2-x,1/2+y,z
x,-y,1/2+z
loop_
_atom_site_type_symbol
_atom_site_label
_atom_site_fract_x
_atom_site_fract_y
_atom_site_fract_z
Si Si1 0.293173 0.673148 0.885594
Si Si2 0.017281 0.489352 0.795639
Si Si3 0.584390 0.953452 0.369174
Si Si4 0.089991 0.029131 0.329201
Si Si5 0.800821 0.609350 0.424407
Si Si6 0.014660 0.031277 0.599185
Si Si7 0.409735 0.014088 0.505207
Si Si8 0.607793 0.513708 0.040946
O O1 0.220552 0.484973 0.887015
O O2 0.332911 0.586697 0.845120
O O3 0.340763 0.586279 0.923547
O O4 0.045395 0.196730 0.805934
O O5 0.000000 0.512257 0.750000
O O6 0.946209 0.554859 0.824476
O O7 0.082436 0.697990 0.806518
O O8 0.664596 0.073003 0.380653
O O9 0.581357 0.668375 0.390603
O O10 0.528397 0.166278 0.389505
O O11 0.045724 0.077138 0.369800
O O12 0.760656 0.885073 0.431036
O O13 0.870955 0.570884 0.454162
O O14 0.977661 0.002336 0.557031
O O15 0.377672 0.808080 0.473160
O O16 0.500000 0.000000 0.500000
O O17 0.385015 0.308317 0.494331
#
# Coordination Sequence:
#
# PCOD9454594 Si02
#       8
#     8   8   8   8   8   8   8   8
#     4  11  22  36  56  80 114 161 196 224 279 353
#     4  10  19  35  63  93 114 139 180 244 303 341
#     4  10  20  37  59  82 112 145 183 230 287 356
#     4   9  19  33  53  85 120 146 183 229 278 345
#     4  12  26  42  59  81 115 160 202 242 294 360
#     4   9  17  33  57  83 108 140 181 234 293 341
#     4  12  25  40  60  84 114 153 202 258 309 345
#     4  11  22  36  56  82 110 142 191 249 293 337
#
# _framework density 20.758405
#
# number of rings (size 3 to 8) (size 9 to 14) (size 15 to 20)
#    0.000    1.500    0.000    6.000    0.000    7.000 
#    0.000    0.000    0.000    4.500    0.000    0.000 
#    0.000    0.000    0.000    0.000    0.000    0.000 
#
# Total GULP energy -357189.324298 kJ/mol
# GULP energy per Si atom -5581.083192 kJ/mol
# Density = 2.071116 g / cm^3
# Si number density = 20.758405 Si / 1000 Ang^3
#
#
#
# Elastic Constant Matrix: (Units=GPa)
#
#
# Indices 1 2 3 4 5 6 
#
# 1 47.9417 -5.1235 22.8498 0.0000 0.0000 0.0000
# 2 -5.1235 77.3410 6.4883 0.0000 0.0000 0.0000
# 3 22.8498 6.4883 99.0451 0.0000 0.0000 0.0000
# 4 0.0000 0.0000 0.0000 22.6259 0.0000 0.0000
# 5 0.0000 0.0000 0.0000 0.0000 20.3270 0.0000
# 6 0.0000 0.0000 0.0000 0.0000 0.0000 21.9406
#
#
#
# Elastic Compliance Matrix: (Units=1/GPa)
#
#
# Indices 1 2 3 4 5 6 
#
# 1 0.023753 0.002044 -0.005614 0.000000 0.000000 0.000000
# 2 0.002044 0.013177 -0.001335 0.000000 0.000000 0.000000
# 3 -0.005614 -0.001335 0.011479 0.000000 0.000000 0.000000
# 4 0.000000 0.000000 0.000000 0.044197 0.000000 0.000000
# 5 0.000000 0.000000 0.000000 0.000000 0.049196 0.000000
# 6 0.000000 0.000000 0.000000 0.000000 0.000000 0.045578
#
#
# Mechanical properties :
#
#
# Convention : Reuss Voigt Hill
#
# Bulk Modulus (GPa) = 25.90631 30.30632 28.10632
# Shear Modulus (GPa) = 23.80336 26.31958 25.06147
#
# Velocity S-wave (km/s) = 3.38995 3.56462 3.47838
# Velocity P-wave (km/s) = 5.27535 5.61901 5.44989
#
# Compressibility (1/GPa) = 0.03860063
#
# Stress axis : x y z
#
# Youngs Moduli (GPa) = 42.10040 75.88879 87.11606
#
# Poissons Ratio (x) = -0.15515 0.48904
# Poissons Ratio (y) = -0.08607 0.11629
# Poissons Ratio (z) = 0.23634 0.10130
#
# Static dielectric constant tensor:
#      x y z
#    x 1.832760 0.000000 0.000000 
#    y 0.000000 1.752270 0.000000 
#    z 0.000000 0.000000 1.737650 
# 
# From -- ./inp_files/26223.got.cif
#   From: 2010.05.17/outbox.cif.g08.bks.cpg/sg60_14_cif.got.tgz:26223.got - 2010.06.03 14:59:27.
