data_PCOD9454105
_publ_section_title
;
Structure prediction by ZEFSAII (Michael W. Deem and Ramdas Pophale) SiO2 
 PCOD9454105
Probable space group: P B C N
;
_chemical_formula_sum "Si O2"
_cell_formula_units_Z 48
_cell_length_a 15.081988
_cell_length_b 8.524139
_cell_length_c 17.499083
_cell_angle_alpha 90.000000
_cell_angle_beta 90.000000
_cell_angle_gamma 90.000000
_cell_volume 2249.698946
_symmetry_space_group_name_H-M "P B C N"
_symmetry_group_IT_number 60
_symmetry_cell_setting 'orthorhombic'
loop_
_space_group_symop_operation_xyz
x,y,z
1/2-x,1/2-y,1/2+z
1/2+x,1/2-y,-z
-x,y,1/2-z
-x,-y,-z
1/2+x,1/2+y,1/2-z
1/2-x,1/2+y,z
x,-y,1/2+z
loop_
_atom_site_type_symbol
_atom_site_label
_atom_site_fract_x
_atom_site_fract_y
_atom_site_fract_z
Si Si1 0.646389 0.230419 0.633820
Si Si2 0.881838 0.146046 0.512605
Si Si3 0.276959 0.338011 0.014252
Si Si4 0.662261 0.351456 0.313311
Si Si5 0.501793 0.530205 0.126678
Si Si6 0.203638 0.432325 0.783608
O O1 0.658077 0.241740 0.542557
O O2 0.562930 0.333493 0.660066
O O3 0.732040 0.325952 0.664416
O O4 0.649107 0.056787 0.666915
O O5 0.825487 0.302922 0.504034
O O6 0.949216 0.112188 0.443726
O O7 0.933665 0.102667 0.589888
O O8 0.805011 0.015621 0.503143
O O9 0.300170 0.309701 0.102622
O O10 0.572011 0.448278 0.322590
O O11 0.733673 0.462401 0.271263
O O12 0.649892 0.192234 0.266264
#
# Coordination Sequence:
#
# PCOD9454105 Si02
#       6
#     8   8   8   8   8   8
#     4  10  20  37  61  88 119 158 199 245 293 351
#     4   9  18  32  58  89 112 148 196 249 293 337
#     4  10  18  34  62  84 108 152 204 236 281 354
#     4  10  20  37  61  88 119 158 199 245 293 351
#     4   9  18  33  58  88 120 150 190 246 304 342
#     4  10  22  37  60  89 122 162 200 234 294 364
#
# _framework density 21.336188
#
# number of rings (size 3 to 8) (size 9 to 14) (size 15 to 20)
#    0.000    2.333    0.000    5.000    0.000    0.667 
#    0.000    0.000    0.000   90.000    0.000    0.000 
#    0.000    1.333    0.000    0.000    0.000    0.000 
#
# Total GULP energy -268159.506136 kJ/mol
# GULP energy per Si atom -5586.656378 kJ/mol
# Density = 2.128763 g / cm^3
# Si number density = 21.336188 Si / 1000 Ang^3
#
#
#
# Elastic Constant Matrix: (Units=GPa)
#
#
# Indices 1 2 3 4 5 6 
#
# 1 75.9080 18.8895 -7.4745 0.0000 0.0000 0.0000
# 2 18.8895 68.1432 14.1755 0.0000 0.0000 0.0000
# 3 -7.4745 14.1755 49.5843 0.0000 0.0000 0.0000
# 4 0.0000 0.0000 0.0000 25.2068 0.0000 0.0000
# 5 0.0000 0.0000 0.0000 0.0000 16.0469 0.0000
# 6 0.0000 0.0000 0.0000 0.0000 0.0000 44.8433
#
#
#
# Elastic Compliance Matrix: (Units=1/GPa)
#
#
# Indices 1 2 3 4 5 6 
#
# 1 0.014731 -0.004833 0.003602 0.000000 0.000000 0.000000
# 2 -0.004833 0.017188 -0.005642 0.000000 0.000000 0.000000
# 3 0.003602 -0.005642 0.022324 0.000000 0.000000 0.000000
# 4 0.000000 0.000000 0.000000 0.039672 0.000000 0.000000
# 5 0.000000 0.000000 0.000000 0.000000 0.062317 0.000000
# 6 0.000000 0.000000 0.000000 0.000000 0.000000 0.022300
#
#
# Mechanical properties :
#
#
# Convention : Reuss Voigt Hill
#
# Bulk Modulus (GPa) = 24.69300 27.20182 25.94741
# Shear Modulus (GPa) = 24.29805 28.42242 26.36023
#
# Velocity S-wave (km/s) = 3.37830 3.65378 3.51874
# Velocity P-wave (km/s) = 5.17838 5.52965 5.35690
#
# Compressibility (1/GPa) = 0.04049730
#
# Stress axis : x y z
#
# Youngs Moduli (GPa) = 67.88308 58.17860 44.79526
#
# Poissons Ratio (x) = 0.28117 -0.16137
# Poissons Ratio (y) = 0.32807 0.25276
# Poissons Ratio (z) = -0.24454 0.32827
#
# Static dielectric constant tensor:
#      x y z
#    x 1.769860 0.000000 0.000000 
#    y 0.000000 1.784900 0.000000 
#    z 0.000000 0.000000 1.828890 
# 
# From -- ./inp_files/19990.got.cif
#   From: 2010.05.17/outbox.cif.g08.bks.cpg/sg60_10_cif.got.tgz:19990.got - 2010.06.03 14:59:27.
