data_PCOD9454355
_publ_section_title
;
Structure prediction by ZEFSAII (Michael W. Deem and Ramdas Pophale) SiO2 
 PCOD9454355
Probable space group: P B C N
;
_chemical_formula_sum "Si O2"
_cell_formula_units_Z 48
_cell_length_a 13.310367
_cell_length_b 27.714386
_cell_length_c 7.964107
_cell_angle_alpha 90.000000
_cell_angle_beta 90.000000
_cell_angle_gamma 90.000000
_cell_volume 2937.868670
_symmetry_space_group_name_H-M "P B C N"
_symmetry_group_IT_number 60
_symmetry_cell_setting 'orthorhombic'
loop_
_space_group_symop_operation_xyz
x,y,z
1/2-x,1/2-y,1/2+z
1/2+x,1/2-y,-z
-x,y,1/2-z
-x,-y,-z
1/2+x,1/2+y,1/2-z
1/2-x,1/2+y,z
x,-y,1/2+z
loop_
_atom_site_type_symbol
_atom_site_label
_atom_site_fract_x
_atom_site_fract_y
_atom_site_fract_z
Si Si1 0.245976 0.141540 0.065745
Si Si2 0.615731 0.945074 0.451250
Si Si3 0.745976 0.358460 0.565746
Si Si4 0.381705 0.210791 0.250000
Si Si5 0.615731 0.054926 0.548750
Si Si6 0.881442 0.825919 0.250000
O O1 0.195736 0.137768 0.250000
O O2 0.326169 0.185130 0.093052
O O3 0.309765 0.093514 0.030974
O O4 0.171826 0.152764 0.914796
O O5 0.690235 0.906486 0.530974
O O6 0.500000 0.936263 0.505476
O O7 0.619862 0.940375 0.250000
O O8 0.640587 0.000000 0.500000
O O9 0.826169 0.314870 0.593052
O O10 0.671826 0.347236 0.414796
O O11 0.500000 0.200128 0.250000
O O12 0.367834 0.267979 0.250000
O O13 0.000000 0.836018 0.250000
#
# Coordination Sequence:
#
# PCOD9454355 Si02
#       6
#     8   8   8   8   8   8
#     4  10  21  35  58  81 112 146 186 227 282 332
#     4  10  19  32  54  86 120 147 176 220 284 351
#     4  10  21  35  58  81 112 146 186 227 282 332
#     4   9  20  36  58  83 115 145 182 234 284 339
#     4  10  19  32  54  86 120 147 176 220 284 351
#     4  11  22  40  56  77 111 153 198 238 270 315
#
# _framework density 16.338374999999999
#
# number of rings (size 3 to 8) (size 9 to 14) (size 15 to 20)
#    1.000    1.000    1.667    3.000    0.000    2.000 
#    0.000    0.000    0.000    1.000    0.000    0.000 
#    0.000    0.000    0.000    0.000    0.000    0.000 
#
# Total GULP energy -267455.185157 kJ/mol
# GULP energy per Si atom -5571.983024 kJ/mol
# Density = 1.630119 g / cm^3
# Si number density = 16.338375 Si / 1000 Ang^3
#
#
#
# Elastic Constant Matrix: (Units=GPa)
#
#
# Indices 1 2 3 4 5 6 
#
# 1 109.0766 71.9555 70.6619 0.0000 0.0000 0.0000
# 2 71.9555 101.0449 52.5909 0.0000 0.0000 0.0000
# 3 70.6619 52.5909 130.3663 0.0000 0.0000 0.0000
# 4 0.0000 0.0000 0.0000 24.5301 0.0000 0.0000
# 5 0.0000 0.0000 0.0000 0.0000 8.0652 0.0000
# 6 0.0000 0.0000 0.0000 0.0000 0.0000 27.2090
#
#
#
# Elastic Compliance Matrix: (Units=1/GPa)
#
#
# Indices 1 2 3 4 5 6 
#
# 1 0.021219 -0.011549 -0.006842 0.000000 0.000000 0.000000
# 2 -0.011549 0.018813 -0.001329 0.000000 0.000000 0.000000
# 3 -0.006842 -0.001329 0.011916 0.000000 0.000000 0.000000
# 4 0.000000 0.000000 0.000000 0.040766 0.000000 0.000000
# 5 0.000000 0.000000 0.000000 0.000000 0.123989 0.000000
# 6 0.000000 0.000000 0.000000 0.000000 0.000000 0.036753
#
#
# Mechanical properties :
#
#
# Convention : Reuss Voigt Hill
#
# Bulk Modulus (GPa) = 79.96142 81.21161 80.58651
# Shear Modulus (GPa) = 16.83128 21.64618 19.23873
#
# Velocity S-wave (km/s) = 3.21311 3.64382 3.43522
# Velocity P-wave (km/s) = 7.92543 8.21689 8.07248
#
# Compressibility (1/GPa) = 0.01250603
#
# Stress axis : x y z
#
# Youngs Moduli (GPa) = 47.12695 53.15514 83.92350
#
# Poissons Ratio (x) = 0.61391 0.57423
# Poissons Ratio (y) = 0.54429 0.11155
# Poissons Ratio (z) = 0.32246 0.07066
#
# Static dielectric constant tensor:
#      x y z
#    x 1.516060 0.000000 0.000000 
#    y 0.000000 1.529790 0.000000 
#    z 0.000000 0.000000 1.561350 
# 
# From -- ./inp_files/5080.got.cif
#   From: 2010.05.17/outbox.cif.g08.bks.cpg/sg60_3_cif.got.tgz:5080.got - 2010.06.03 14:59:27.
