data_PCOD9454044
_publ_section_title
;
Structure prediction by ZEFSAII (Michael W. Deem and Ramdas Pophale) SiO2 
 PCOD9454044
Probable space group: P B C N
;
_chemical_formula_sum "Si O2"
_cell_formula_units_Z 56
_cell_length_a 13.983220
_cell_length_b 10.975240
_cell_length_c 15.044981
_cell_angle_alpha 90.000000
_cell_angle_beta 90.000000
_cell_angle_gamma 90.000000
_cell_volume 2308.941130
_symmetry_space_group_name_H-M "P B C N"
_symmetry_group_IT_number 60
_symmetry_cell_setting 'orthorhombic'
loop_
_space_group_symop_operation_xyz
x,y,z
1/2-x,1/2-y,1/2+z
1/2+x,1/2-y,-z
-x,y,1/2-z
-x,-y,-z
1/2+x,1/2+y,1/2-z
1/2-x,1/2+y,z
x,-y,1/2+z
loop_
_atom_site_type_symbol
_atom_site_label
_atom_site_fract_x
_atom_site_fract_y
_atom_site_fract_z
Si Si1 0.298274 0.935985 0.693747
Si Si2 0.324347 0.666074 0.343514
Si Si3 0.843172 0.333151 0.998055
Si Si4 0.019073 0.260813 0.905806
Si Si5 0.500000 0.333272 0.750000
Si Si6 0.608775 0.468427 0.366463
Si Si7 0.665357 0.439973 0.057279
Si Si8 0.500000 0.053195 0.250000
O O1 0.260062 0.848307 0.772739
O O2 0.309252 0.854898 0.603755
O O3 0.215422 0.033715 0.673314
O O4 0.399186 0.999262 0.715865
O O5 0.309896 0.719283 0.441834
O O6 0.415647 0.735097 0.301829
O O7 0.357066 0.526880 0.361032
O O8 0.780739 0.436038 0.047994
O O9 0.957041 0.319151 0.986541
O O10 0.032065 0.362770 0.832543
O O11 0.114714 0.190172 0.931933
O O12 0.951139 0.154955 0.863747
O O13 0.443223 0.419688 0.681649
O O14 0.619577 0.504210 0.469203
#
# Coordination Sequence:
#
# PCOD9454044 Si02
#       8
#     8   8   8   8   4   8   8   4
#     4   9  22  37  57  85 126 162 209 258 314 383
#     4  11  20  38  59  90 128 160 207 263 324 378
#     4  10  22  38  56  91 131 162 205 259 323 386
#     4  11  19  33  60  87 118 158 211 254 319 376
#     4  10  19  30  58  93 120 150 198 269 324 359
#     4  10  18  33  53  90 115 153 196 265 312 365
#     4  11  21  34  60  87 121 162 203 261 321 366
#     4  10  21  36  54  81 114 166 202 247 308 381
#
# _framework density 24.253543000000001
#
# number of rings (size 3 to 8) (size 9 to 14) (size 15 to 20)
#    0.000    1.714    2.857    2.571    2.000    0.000 
#    0.000    0.000    3.143    4.286    0.000    0.000 
#    0.000    0.000    0.000    0.000    0.000    0.000 
#
# Total GULP energy -312320.922004 kJ/mol
# GULP energy per Si atom -5577.159321 kJ/mol
# Density = 2.419834 g / cm^3
# Si number density = 24.253543 Si / 1000 Ang^3
#
#
#
# Elastic Constant Matrix: (Units=GPa)
#
#
# Indices 1 2 3 4 5 6 
#
# 1 151.0242 10.4757 30.7757 0.0000 0.0000 0.0000
# 2 10.4757 23.9961 12.1665 0.0000 0.0000 0.0000
# 3 30.7757 12.1665 93.5560 0.0000 0.0000 0.0000
# 4 0.0000 0.0000 0.0000 -78.5150 0.0000 0.0000
# 5 0.0000 0.0000 0.0000 0.0000 32.0336 0.0000
# 6 0.0000 0.0000 0.0000 0.0000 0.0000 22.1640
#
#
#
# Elastic Compliance Matrix: (Units=1/GPa)
#
#
# Indices 1 2 3 4 5 6 
#
# 1 0.007193 -0.002077 -0.002096 0.000000 0.000000 0.000000
# 2 -0.002077 0.045215 -0.005197 0.000000 0.000000 0.000000
# 3 -0.002096 -0.005197 0.012054 0.000000 0.000000 0.000000
# 4 0.000000 0.000000 0.000000 -0.012736 0.000000 0.000000
# 5 0.000000 0.000000 0.000000 0.000000 0.031217 0.000000
# 6 0.000000 0.000000 0.000000 0.000000 0.000000 0.045118
#
#
# Mechanical properties :
#
#
# Convention : Reuss Voigt Hill
#
# Bulk Modulus (GPa) = 21.87129 41.71246 31.79188
# Shear Modulus (GPa) = 30.85630 9.48042 20.16836
#
# Velocity S-wave (km/s) = 3.57072 1.97923 2.88681
# Velocity P-wave (km/s) = 5.10268 4.73909 4.92424
#
# Compressibility (1/GPa) = 0.04572204
#
# Stress axis : x y z
#
# Youngs Moduli (GPa) = 139.03069 22.11644 82.95970
#
# Poissons Ratio (x) = 0.04594 0.17388
# Poissons Ratio (y) = 0.28882 0.43111
# Poissons Ratio (z) = 0.29140 0.11493
#
# Static dielectric constant tensor:
#      x y z
#    x 2.003030 0.000000 0.000000 
#    y 0.000000 1.937600 0.000000 
#    z 0.000000 0.000000 1.936170 
# 
# From -- ./inp_files/16996.got.cif
#   From: 2010.05.17/outbox.cif.g08.bks.cpg/sg60_9_cif.got.tgz:16996.got - 2010.06.03 14:59:27.
