data_PCOD9454944
_publ_section_title
;
Structure prediction by ZEFSAII (Michael W. Deem and Ramdas Pophale) SiO2 
 PCOD9454944
Probable space group: P B C N
;
_chemical_formula_sum "Si O2"
_cell_formula_units_Z 64
_cell_length_a 10.234054
_cell_length_b 28.722968
_cell_length_c 11.287933
_cell_angle_alpha 90.000000
_cell_angle_beta 90.000000
_cell_angle_gamma 90.000000
_cell_volume 3318.115059
_symmetry_space_group_name_H-M "P B C N"
_symmetry_group_IT_number 60
_symmetry_cell_setting 'orthorhombic'
loop_
_space_group_symop_operation_xyz
x,y,z
1/2-x,1/2-y,1/2+z
1/2+x,1/2-y,-z
-x,y,1/2-z
-x,-y,-z
1/2+x,1/2+y,1/2-z
1/2-x,1/2+y,z
x,-y,1/2+z
loop_
_atom_site_type_symbol
_atom_site_label
_atom_site_fract_x
_atom_site_fract_y
_atom_site_fract_z
Si Si1 0.489606 0.211455 0.383619
Si Si2 0.273249 0.345969 0.916849
Si Si3 0.341036 0.405992 0.386987
Si Si4 0.346676 0.581989 0.230833
Si Si5 0.488300 0.275569 0.615724
Si Si6 0.651819 0.407133 0.392424
Si Si7 0.349016 0.507745 0.041985
Si Si8 0.248297 0.338831 0.559575
O O1 0.500000 0.232617 0.250000
O O2 0.350369 0.185922 0.390687
O O3 0.509919 0.244100 0.498900
O O4 0.604610 0.173849 0.399268
O O5 0.277491 0.394499 0.843403
O O6 0.403263 0.316609 0.886559
O O7 0.278727 0.362618 0.051876
O O8 0.495979 0.401482 0.418866
O O9 0.333253 0.410693 0.247137
O O10 0.294635 0.454029 0.449932
O O11 0.266884 0.359009 0.427876
O O12 0.500000 0.586645 0.250000
O O13 0.332724 0.531082 0.172433
O O14 0.301670 0.617096 0.130124
O O15 0.500000 0.255134 0.750000
O O16 0.344920 0.297046 0.593517
O O17 0.701845 0.455488 0.448745
O O18 0.500000 0.500000 0.000000
#
# Coordination Sequence:
#
# PCOD9454944 Si02
#       8
#     8   8   8   8   8   8   8   8
#     4  12  27  42  62  92 124 169 218 264 315 390
#     4  12  22  40  63  91 125 166 213 253 321 379
#     4   9  19  34  55  87 125 158 200 251 318 368
#     4  11  18  33  64  84 120 157 201 249 303 376
#     4  12  23  42  66  91 122 159 217 273 328 374
#     4  10  20  33  57  93 129 158 203 259 316 379
#     4   9  19  29  52  94 127 156 190 260 318 361
#     4  11  20  41  61  84 120 162 204 252 316 376
#
# _framework density 19.288060000000002
#
# number of rings (size 3 to 8) (size 9 to 14) (size 15 to 20)
#    0.000    1.250    5.000    2.250    5.250    2.000 
#    0.000    0.000    0.000    3.000    6.500    0.000 
#    0.000    0.000    0.000    0.000    0.000    0.000 
#
# Total GULP energy -356495.841980 kJ/mol
# GULP energy per Si atom -5570.247531 kJ/mol
# Density = 1.924416 g / cm^3
# Si number density = 19.288060 Si / 1000 Ang^3
#
#
#
# Elastic Constant Matrix: (Units=GPa)
#
#
# Indices 1 2 3 4 5 6 
#
# 1 35.8866 -6.4784 13.4671 0.0000 0.0000 0.0000
# 2 -6.4784 37.8055 47.7938 0.0000 0.0000 0.0000
# 3 13.4671 47.7938 120.1538 0.0000 0.0000 0.0000
# 4 0.0000 0.0000 0.0000 39.5548 0.0000 0.0000
# 5 0.0000 0.0000 0.0000 0.0000 15.8679 0.0000
# 6 0.0000 0.0000 0.0000 0.0000 0.0000 39.7837
#
#
#
# Elastic Compliance Matrix: (Units=1/GPa)
#
#
# Indices 1 2 3 4 5 6 
#
# 1 0.037141 0.023388 -0.013466 0.000000 0.000000 0.000000
# 2 0.023388 0.067935 -0.029644 0.000000 0.000000 0.000000
# 3 -0.013466 -0.029644 0.021624 0.000000 0.000000 0.000000
# 4 0.000000 0.000000 0.000000 0.025281 0.000000 0.000000
# 5 0.000000 0.000000 0.000000 0.000000 0.063020 0.000000
# 6 0.000000 0.000000 0.000000 0.000000 0.000000 0.025136
#
#
# Mechanical properties :
#
#
# Convention : Reuss Voigt Hill
#
# Bulk Modulus (GPa) = 11.46050 33.71231 22.58640
# Shear Modulus (GPa) = 16.19870 28.31217 22.25544
#
# Velocity S-wave (km/s) = 2.90113 3.83542 3.40051
# Velocity P-wave (km/s) = 4.14448 6.09346 5.21090
#
# Compressibility (1/GPa) = 0.08725625
#
# Stress axis : x y z
#
# Youngs Moduli (GPa) = 26.92435 14.71990 46.24580
#
# Poissons Ratio (x) = -0.34427 0.62275
# Poissons Ratio (y) = -0.62972 1.37092
# Poissons Ratio (z) = 0.36257 0.43636
#
# Static dielectric constant tensor:
#      x y z
#    x 1.632350 0.000000 0.000000 
#    y 0.000000 1.711430 0.000000 
#    z 0.000000 0.000000 1.895570 
# 
# From -- ./inp_files/10416.got.cif
#   From: 2010.05.17/outbox.cif.g08.bks.cpg/sg60_6_cif.got.tgz:10416.got - 2010.06.03 14:59:27.
