data_PCOD9454925
_publ_section_title
;
Structure prediction by ZEFSAII (Michael W. Deem and Ramdas Pophale) SiO2 
 PCOD9454925
Probable space group: P B C N
;
_chemical_formula_sum "Si O2"
_cell_formula_units_Z 48
_cell_length_a 21.152795
_cell_length_b 13.828352
_cell_length_c 8.611199
_cell_angle_alpha 90.000000
_cell_angle_beta 90.000000
_cell_angle_gamma 90.000000
_cell_volume 2518.847138
_symmetry_space_group_name_H-M "P B C N"
_symmetry_group_IT_number 60
_symmetry_cell_setting 'orthorhombic'
loop_
_space_group_symop_operation_xyz
x,y,z
1/2-x,1/2-y,1/2+z
1/2+x,1/2-y,-z
-x,y,1/2-z
-x,-y,-z
1/2+x,1/2+y,1/2-z
1/2-x,1/2+y,z
x,-y,1/2+z
loop_
_atom_site_type_symbol
_atom_site_label
_atom_site_fract_x
_atom_site_fract_y
_atom_site_fract_z
Si Si1 0.483474 0.286544 0.068700
Si Si2 0.852342 0.767024 0.566791
Si Si3 0.691998 0.446150 0.368224
Si Si4 0.266546 0.365800 0.442569
Si Si5 0.389624 0.300002 0.574721
Si Si6 0.058363 0.005133 0.640158
O O1 0.500000 0.279007 0.250000
O O2 0.465604 0.401368 0.045879
O O3 0.417699 0.239636 0.018643
O O4 0.545190 0.249347 0.977226
O O5 0.825136 0.868972 0.501858
O O6 0.798151 0.690113 0.529975
O O7 0.869364 0.778597 0.748824
O O8 0.734875 0.401964 0.234501
O O9 0.720607 0.543085 0.443280
O O10 0.624045 0.460917 0.281363
O O11 0.326876 0.294669 0.470232
O O12 0.414179 0.410603 0.559707
O O13 0.000000 0.980599 0.750000
#
# Coordination Sequence:
#
# PCOD9454925 Si02
#       6
#     8   8   8   8   8   8
#     4  10  20  33  52  80 115 150 182 223 280 344
#     4  11  22  36  56  84 115 150 190 230 277 339
#     4  10  21  36  53  78 114 150 187 228 278 334
#     4  11  22  37  56  83 113 150 190 232 281 335
#     4  11  20  32  53  81 114 148 183 225 276 338
#     4   9  16  28  47  74 110 142 169 206 265 340
#
# _framework density 19.056338
#
# number of rings (size 3 to 8) (size 9 to 14) (size 15 to 20)
#    0.000    1.667    0.000    8.000    0.000    5.333 
#    0.000    1.667    0.000    0.000    0.000   16.333 
#    0.000    0.000    0.000    0.000    0.000    0.000 
#
# Total GULP energy -267482.591700 kJ/mol
# GULP energy per Si atom -5572.553994 kJ/mol
# Density = 1.901296 g / cm^3
# Si number density = 19.056338 Si / 1000 Ang^3
#
#
#
# Elastic Constant Matrix: (Units=GPa)
#
#
# Indices 1 2 3 4 5 6 
#
# 1 180.7134 57.0379 61.0430 0.0000 0.0000 0.0000
# 2 57.0379 37.3120 34.5607 0.0000 0.0000 0.0000
# 3 61.0430 34.5607 80.9920 0.0000 0.0000 0.0000
# 4 0.0000 0.0000 0.0000 11.5858 0.0000 0.0000
# 5 0.0000 0.0000 0.0000 0.0000 30.2194 0.0000
# 6 0.0000 0.0000 0.0000 0.0000 0.0000 29.4061
#
#
#
# Elastic Compliance Matrix: (Units=1/GPa)
#
#
# Indices 1 2 3 4 5 6 
#
# 1 0.010853 -0.014905 -0.001819 0.000000 0.000000 0.000000
# 2 -0.014905 0.064788 -0.016413 0.000000 0.000000 0.000000
# 3 -0.001819 -0.016413 0.020722 0.000000 0.000000 0.000000
# 4 0.000000 0.000000 0.000000 0.086312 0.000000 0.000000
# 5 0.000000 0.000000 0.000000 0.000000 0.033091 0.000000
# 6 0.000000 0.000000 0.000000 0.000000 0.000000 0.034007
#
#
# Mechanical properties :
#
#
# Convention : Reuss Voigt Hill
#
# Bulk Modulus (GPa) = 33.23497 67.14448 50.18972
# Shear Modulus (GPa) = 15.33389 24.00065 19.66727
#
# Velocity S-wave (km/s) = 2.83973 3.55273 3.21605
# Velocity P-wave (km/s) = 5.31322 7.22083 6.33919
#
# Compressibility (1/GPa) = 0.03008879
#
# Stress axis : x y z
#
# Youngs Moduli (GPa) = 92.14462 15.43498 48.25881
#
# Poissons Ratio (x) = 0.23006 0.08780
# Poissons Ratio (y) = 1.37340 0.79205
# Poissons Ratio (z) = 0.16764 0.25333
#
# Static dielectric constant tensor:
#      x y z
#    x 1.729290 0.000000 0.000000 
#    y 0.000000 1.696080 0.000000 
#    z 0.000000 0.000000 1.717980 
# 
# From -- ./inp_files/6734.got.cif
#   From: 2010.05.17/outbox.cif.g08.bks.cpg/sg60_4_cif.got.tgz:6734.got - 2010.06.03 14:59:27.
