data_PCOD9454025
_publ_section_title
;
Structure prediction by ZEFSAII (Michael W. Deem and Ramdas Pophale) SiO2 
 PCOD9454025
Probable space group: P B C N
;
_chemical_formula_sum "Si O2"
_cell_formula_units_Z 52
_cell_length_a 15.197209
_cell_length_b 7.475863
_cell_length_c 19.111736
_cell_angle_alpha 90.000000
_cell_angle_beta 90.000000
_cell_angle_gamma 90.000000
_cell_volume 2171.327376
_symmetry_space_group_name_H-M "P B C N"
_symmetry_group_IT_number 60
_symmetry_cell_setting 'orthorhombic'
loop_
_space_group_symop_operation_xyz
x,y,z
1/2-x,1/2-y,1/2+z
1/2+x,1/2-y,-z
-x,y,1/2-z
-x,-y,-z
1/2+x,1/2+y,1/2-z
1/2-x,1/2+y,z
x,-y,1/2+z
loop_
_atom_site_type_symbol
_atom_site_label
_atom_site_fract_x
_atom_site_fract_y
_atom_site_fract_z
Si Si1 0.122136 0.661232 0.996300
Si Si2 0.146119 0.664969 0.837744
Si Si3 0.181489 0.063602 0.025078
Si Si4 0.413198 0.536682 0.156844
Si Si5 0.041224 0.226627 0.921795
Si Si6 0.652155 0.412642 0.197032
Si Si7 0.500000 0.166220 0.750000
O O1 0.112561 0.615163 0.914702
O O2 0.214044 0.569251 0.015790
O O3 0.035609 0.646877 0.045364
O O4 0.149404 0.869805 0.999751
O O5 0.245863 0.621471 0.818663
O O6 0.082169 0.570371 0.782687
O O7 0.138253 0.880642 0.827545
O O8 0.166101 0.091588 0.107217
O O9 0.115864 0.192876 0.981095
O O10 0.479834 0.441285 0.103072
O O11 0.380990 0.415590 0.222349
O O12 0.459135 0.707084 0.190386
O O13 0.099221 0.227228 0.851012
#
# Coordination Sequence:
#
# PCOD9454025 Si02
#       7
#     8   8   8   8   8   8   4
#     4  11  21  37  62  85 121 153 204 247 297 356
#     4  11  20  38  61  88 115 158 198 249 297 356
#     4  11  22  36  61  88 120 155 199 251 298 354
#     4  10  19  36  59  91 109 154 205 245 288 364
#     4  11  19  36  61  86 116 161 200 241 292 365
#     4  11  22  36  64  84 122 153 200 244 305 353
#     4  10  18  32  60  80 116 152 202 236 288 352
#
# _framework density 23.948485000000002
#
# number of rings (size 3 to 8) (size 9 to 14) (size 15 to 20)
#    0.000    1.231    6.154    2.769    0.000    4.923 
#    0.000    0.769   10.154    0.000    0.000    0.000 
#    0.000    0.000    0.000    0.000    0.000    0.000 
#
# Total GULP energy -290134.894536 kJ/mol
# GULP energy per Si atom -5579.517203 kJ/mol
# Density = 2.389398 g / cm^3
# Si number density = 23.948485 Si / 1000 Ang^3
#
#
#
# Elastic Constant Matrix: (Units=GPa)
#
#
# Indices 1 2 3 4 5 6 
#
# 1 8.8945 233.9093 -169.3314 0.0000 0.0000 0.0000
# 2 233.9093 -152.5515 274.7938 0.0000 0.0000 0.0000
# 3 -169.3314 274.7938 -198.4482 0.0000 0.0000 0.0000
# 4 0.0000 0.0000 0.0000 22.6017 0.0000 0.0000
# 5 0.0000 0.0000 0.0000 0.0000 46.5505 0.0000
# 6 0.0000 0.0000 0.0000 0.0000 0.0000 16.2525
#
#
#
# Elastic Compliance Matrix: (Units=1/GPa)
#
#
# Indices 1 2 3 4 5 6 
#
# 1 0.006520 0.000016 -0.005541 0.000000 0.000000 0.000000
# 2 0.000016 0.004387 0.006061 0.000000 0.000000 0.000000
# 3 -0.005541 0.006061 0.008081 0.000000 0.000000 0.000000
# 4 0.000000 0.000000 0.000000 0.044245 0.000000 0.000000
# 5 0.000000 0.000000 0.000000 0.000000 0.021482 0.000000
# 6 0.000000 0.000000 0.000000 0.000000 0.000000 0.061529
#
#
# Mechanical properties :
#
#
# Convention : Reuss Voigt Hill
#
# Bulk Modulus (GPa) = 49.85131 37.40423 43.62777
# Shear Modulus (GPa) = 32.92558 -28.35087 2.28735
#
# Velocity S-wave (km/s) = 3.71192 -3.44441 0.97836
# Velocity P-wave (km/s) = 6.26358 0.40756 4.41963
#
# Compressibility (1/GPa) = 0.02005965
#
# Stress axis : x y z
#
# Youngs Moduli (GPa) = 153.37974 227.95685 123.74797
#
# Poissons Ratio (x) = -0.00369 0.68566
# Poissons Ratio (y) = -0.00248 -0.74999
# Poissons Ratio (z) = 0.84984 -1.38156
#
# Static dielectric constant tensor:
#      x y z
#    x 2.145660 0.000000 0.000000 
#    y 0.000000 2.006680 0.000000 
#    z 0.000000 0.000000 1.977110 
# 
# From -- ./inp_files/22876.got.cif
#   From: 2010.05.17/outbox.cif.g08.bks.cpg/sg60_12_cif.got.tgz:22876.got - 2010.06.03 14:59:27.
