data_PCOD9454714
_publ_section_title
;
Structure prediction by ZEFSAII (Michael W. Deem and Ramdas Pophale) SiO2 
 PCOD9454714
Probable space group: P B C N
;
_chemical_formula_sum "Si O2"
_cell_formula_units_Z 52
_cell_length_a 9.635110
_cell_length_b 15.172722
_cell_length_c 15.913149
_cell_angle_alpha 90.000000
_cell_angle_beta 90.000000
_cell_angle_gamma 90.000000
_cell_volume 2326.356706
_symmetry_space_group_name_H-M "P B C N"
_symmetry_group_IT_number 60
_symmetry_cell_setting 'orthorhombic'
loop_
_space_group_symop_operation_xyz
x,y,z
1/2-x,1/2-y,1/2+z
1/2+x,1/2-y,-z
-x,y,1/2-z
-x,-y,-z
1/2+x,1/2+y,1/2-z
1/2-x,1/2+y,z
x,-y,1/2+z
loop_
_atom_site_type_symbol
_atom_site_label
_atom_site_fract_x
_atom_site_fract_y
_atom_site_fract_z
Si Si1 0.174565 0.081286 0.692543
Si Si2 0.528692 0.177207 0.417987
Si Si3 0.835603 0.202837 0.480099
Si Si4 0.459003 0.014825 0.650077
Si Si5 0.988415 0.947597 0.587307
Si Si6 0.000000 0.760431 0.250000
Si Si7 0.245954 0.054888 0.886042
O O1 0.103332 0.175383 0.699708
O O2 0.209730 0.066473 0.789302
O O3 0.319906 0.071877 0.645578
O O4 0.071123 0.008383 0.654124
O O5 0.681651 0.216709 0.442528
O O6 0.419586 0.212920 0.486415
O O7 0.564290 0.075509 0.399973
O O8 0.454999 0.201984 0.328428
O O9 0.937873 0.146486 0.418715
O O10 0.815674 0.133666 0.558040
O O11 0.500000 0.001657 0.750000
O O12 0.590437 0.058183 0.606225
O O13 0.000000 0.000000 0.500000
O O14 0.823043 0.958645 0.598501
#
# Coordination Sequence:
#
# PCOD9454714 Si02
#       7
#     8   8   8   8   8   4   8
#     4  11  19  41  67  94 124 176 235 276 329 421
#     4  12  25  44  64  98 143 181 223 290 367 413
#     4  11  25  42  62  98 137 176 227 283 363 427
#     4  10  23  40  68  96 128 169 232 291 335 404
#     4  10  19  37  62  94 122 164 226 275 327 413
#     4  12  22  42  74  94 132 190 234 282 350 422
#     4  10  21  40  67  94 125 173 228 281 344 416
#
# _framework density 22.352547999999999
#
# number of rings (size 3 to 8) (size 9 to 14) (size 15 to 20)
#    0.000    1.231    5.385    0.923    2.154    1.846 
#    0.000    0.000    0.000    0.000    0.000    0.000 
#    0.000    0.000    0.000    0.000    0.000    0.000 
#
# Total GULP energy -289735.679411 kJ/mol
# GULP energy per Si atom -5571.839989 kJ/mol
# Density = 2.230167 g / cm^3
# Si number density = 22.352548 Si / 1000 Ang^3
#
#
#
# Elastic Constant Matrix: (Units=GPa)
#
#
# Indices 1 2 3 4 5 6 
#
# 1 126.4069 31.6780 14.7398 0.0000 0.0000 0.0000
# 2 31.6780 30.0829 32.1102 0.0000 0.0000 0.0000
# 3 14.7398 32.1102 78.6225 0.0000 0.0000 0.0000
# 4 0.0000 0.0000 0.0000 40.8664 0.0000 0.0000
# 5 0.0000 0.0000 0.0000 0.0000 33.4854 0.0000
# 6 0.0000 0.0000 0.0000 0.0000 0.0000 435.9462
#
#
#
# Elastic Compliance Matrix: (Units=1/GPa)
#
#
# Indices 1 2 3 4 5 6 
#
# 1 0.011786 -0.017821 0.005069 0.000000 0.000000 0.000000
# 2 -0.017821 0.085879 -0.031733 0.000000 0.000000 0.000000
# 3 0.005069 -0.031733 0.024729 0.000000 0.000000 0.000000
# 4 0.000000 0.000000 0.000000 0.024470 0.000000 0.000000
# 5 0.000000 0.000000 0.000000 0.000000 0.029864 0.000000
# 6 0.000000 0.000000 0.000000 0.000000 0.000000 0.002294
#
#
# Mechanical properties :
#
#
# Convention : Reuss Voigt Hill
#
# Bulk Modulus (GPa) = 29.91935 43.57425 36.74680
# Shear Modulus (GPa) = 17.91257 112.49853 65.20555
#
# Velocity S-wave (km/s) = 2.83391 7.10200 5.40692
# Velocity P-wave (km/s) = 4.91145 9.31599 7.44681
#
# Compressibility (1/GPa) = 0.03342318
#
# Stress axis : x y z
#
# Youngs Moduli (GPa) = 84.84637 11.64425 40.43877
#
# Poissons Ratio (x) = 0.20752 -0.20498
# Poissons Ratio (y) = 1.51208 1.28324
# Poissons Ratio (z) = -0.43007 0.36951
#
# Static dielectric constant tensor:
#      x y z
#    x 1.921640 0.000000 0.000000 
#    y 0.000000 1.908730 0.000000 
#    z 0.000000 0.000000 1.879690 
# 
# From -- ./inp_files/19516.got.cif
#   From: 2010.05.17/outbox.cif.g08.bks.cpg/sg60_10_cif.got.tgz:19516.got - 2010.06.03 14:59:27.
