data_PCOD9454167
_publ_section_title
;
Structure prediction by ZEFSAII (Michael W. Deem and Ramdas Pophale) SiO2 
 PCOD9454167
Probable space group: P B C N
;
_chemical_formula_sum "Si O2"
_cell_formula_units_Z 44
_cell_length_a 8.590803
_cell_length_b 25.242273
_cell_length_c 10.958555
_cell_angle_alpha 90.000000
_cell_angle_beta 90.000000
_cell_angle_gamma 90.000000
_cell_volume 2376.377935
_symmetry_space_group_name_H-M "P B C N"
_symmetry_group_IT_number 60
_symmetry_cell_setting 'orthorhombic'
loop_
_space_group_symop_operation_xyz
x,y,z
1/2-x,1/2-y,1/2+z
1/2+x,1/2-y,-z
-x,y,1/2-z
-x,-y,-z
1/2+x,1/2+y,1/2-z
1/2-x,1/2+y,z
x,-y,1/2+z
loop_
_atom_site_type_symbol
_atom_site_label
_atom_site_fract_x
_atom_site_fract_y
_atom_site_fract_z
Si Si1 0.000000 0.679221 0.750000
Si Si2 0.537325 0.691074 0.893187
Si Si3 0.722073 0.894246 0.418027
Si Si4 0.305868 0.784900 0.473687
Si Si5 0.401861 0.996426 0.626050
Si Si6 0.538235 0.879589 0.883814
O O1 0.120447 0.640395 0.678930
O O2 0.099129 0.714039 0.845730
O O3 0.500000 0.694517 0.750000
O O4 0.611420 0.633955 0.923012
O O5 0.375496 0.706441 0.954651
O O6 0.660054 0.733453 0.945504
O O7 0.721897 0.956051 0.381048
O O8 0.622157 0.890415 0.542792
O O9 0.370361 0.836024 0.542554
O O10 0.500000 0.006437 0.750000
O O11 0.500000 0.000000 0.500000
O O12 0.364234 0.934078 0.630189
O O13 0.500000 0.859281 0.750000
#
# Coordination Sequence:
#
# PCOD9454167 Si02
#       6
#     4   8   8   8   8   8
#     4  10  18  36  62  82 112 150 198 240 300 358
#     4  12  25  40  59  86 122 161 204 248 302 359
#     4  10  19  36  58  89 116 155 200 243 294 363
#     4  11  23  39  58  86 118 157 200 249 299 357
#     4   9  17  31  60  89 117 153 201 248 295 360
#     4   9  19  37  60  90 118 153 201 248 298 353
#
# _framework density 18.515573
#
# number of rings (size 3 to 8) (size 9 to 14) (size 15 to 20)
#    0.000    1.818    2.727    2.727    0.000    0.000 
#    0.000    0.909    0.000    0.000    0.000    0.000 
#    0.000    0.000    0.000    0.000    0.000    0.000 
#
# Total GULP energy -245309.843336 kJ/mol
# GULP energy per Si atom -5575.223712 kJ/mol
# Density = 1.847343 g / cm^3
# Si number density = 18.515573 Si / 1000 Ang^3
#
#
#
# Elastic Constant Matrix: (Units=GPa)
#
#
# Indices 1 2 3 4 5 6 
#
# 1 72.7452 44.9224 29.9411 0.0000 0.0000 0.0000
# 2 44.9224 97.1528 31.3806 0.0000 0.0000 0.0000
# 3 29.9411 31.3806 102.9259 0.0000 0.0000 0.0000
# 4 0.0000 0.0000 0.0000 -2.2920 0.0000 0.0000
# 5 0.0000 0.0000 0.0000 0.0000 14.9636 0.0000
# 6 0.0000 0.0000 0.0000 0.0000 0.0000 28.6461
#
#
#
# Elastic Compliance Matrix: (Units=1/GPa)
#
#
# Indices 1 2 3 4 5 6 
#
# 1 0.020240 -0.008271 -0.003366 0.000000 0.000000 0.000000
# 2 -0.008271 0.014798 -0.002105 0.000000 0.000000 0.000000
# 3 -0.003366 -0.002105 0.011337 0.000000 0.000000 0.000000
# 4 0.000000 0.000000 0.000000 -0.436291 0.000000 0.000000
# 5 0.000000 0.000000 0.000000 0.000000 0.066829 0.000000
# 6 0.000000 0.000000 0.000000 0.000000 0.000000 0.034909
#
#
# Mechanical properties :
#
#
# Convention : Reuss Voigt Hill
#
# Bulk Modulus (GPa) = 52.94162 53.92356 53.43259
# Shear Modulus (GPa) = -19.65432 19.36886 -0.14273
#
# Velocity S-wave (km/s) = -3.26160 3.23783 -0.27795
# Velocity P-wave (km/s) = 3.80408 6.56998 5.36822
#
# Compressibility (1/GPa) = 0.01888873
#
# Stress axis : x y z
#
# Youngs Moduli (GPa) = 49.40739 67.57774 88.20838
#
# Poissons Ratio (x) = 0.55897 0.29690
# Poissons Ratio (y) = 0.40867 0.18572
# Poissons Ratio (z) = 0.16630 0.14228
#
# Static dielectric constant tensor:
#      x y z
#    x 1.638810 0.000000 0.000000 
#    y 0.000000 1.652320 0.000000 
#    z 0.000000 0.000000 1.645720 
# 
# From -- ./inp_files/10026.got.cif
#   From: 2010.05.17/outbox.cif.g08.bks.cpg/sg60_6_cif.got.tgz:10026.got - 2010.06.03 14:59:27.
