data_PCOD9454833
_publ_section_title
;
Structure prediction by ZEFSAII (Michael W. Deem and Ramdas Pophale) SiO2 
 PCOD9454833
Probable space group: P B C N
;
_chemical_formula_sum "Si O2"
_cell_formula_units_Z 36
_cell_length_a 21.665318
_cell_length_b 5.813622
_cell_length_c 13.589670
_cell_angle_alpha 90.000000
_cell_angle_beta 90.000000
_cell_angle_gamma 90.000000
_cell_volume 1711.672879
_symmetry_space_group_name_H-M "P B C N"
_symmetry_group_IT_number 60
_symmetry_cell_setting 'orthorhombic'
loop_
_space_group_symop_operation_xyz
x,y,z
1/2-x,1/2-y,1/2+z
1/2+x,1/2-y,-z
-x,y,1/2-z
-x,-y,-z
1/2+x,1/2+y,1/2-z
1/2-x,1/2+y,z
x,-y,1/2+z
loop_
_atom_site_type_symbol
_atom_site_label
_atom_site_fract_x
_atom_site_fract_y
_atom_site_fract_z
Si Si1 0.928880 0.365059 0.103931
Si Si2 0.000000 0.031468 0.250000
Si Si3 0.254406 0.646504 0.112045
Si Si4 0.349427 0.912743 0.222128
Si Si5 0.547663 0.837789 0.885761
O O1 0.963268 0.176238 0.169643
O O2 0.866558 0.414487 0.163487
O O3 0.976558 0.580401 0.101963
O O4 0.923531 0.287495 0.991712
O O5 0.953513 0.870851 0.310749
O O6 0.244807 0.895713 0.059651
O O7 0.315575 0.690047 0.177364
O O8 0.197776 0.611696 0.188178
O O9 0.412914 0.960464 0.164257
#
# Coordination Sequence:
#
# PCOD9454833 Si02
#       5
#     8   4   8   8   8
#     4  11  23  38  61  94 126 166 213 264 338 404
#     4  12  20  38  60  96 130 168 204 280 328 406
#     4   8  20  34  64  86 120 172 216 254 322 374
#     4  10  19  41  60  86 126 172 206 276 312 386
#     4  11  23  38  61  94 126 166 213 264 338 404
#
# _framework density 21.032056999999998
#
# number of rings (size 3 to 8) (size 9 to 14) (size 15 to 20)
#    1.333    0.444    4.444    0.667    3.111    0.000 
#    0.000    2.222    0.000    0.000    0.000    0.000 
#    0.000    0.000    0.000    0.000    0.000    0.000 
#
# Total GULP energy -200407.087304 kJ/mol
# GULP energy per Si atom -5566.863536 kJ/mol
# Density = 2.098419 g / cm^3
# Si number density = 21.032057 Si / 1000 Ang^3
#
#
#
# Elastic Constant Matrix: (Units=GPa)
#
#
# Indices 1 2 3 4 5 6 
#
# 1 38.5518 1.8566 -8.6467 0.0000 0.0000 0.0000
# 2 1.8566 100.0567 16.6823 0.0000 0.0000 0.0000
# 3 -8.6467 16.6823 106.9902 0.0000 0.0000 0.0000
# 4 0.0000 0.0000 0.0000 2.8014 0.0000 0.0000
# 5 0.0000 0.0000 0.0000 0.0000 -4.4197 0.0000
# 6 0.0000 0.0000 0.0000 0.0000 0.0000 38.1425
#
#
#
# Elastic Compliance Matrix: (Units=1/GPa)
#
#
# Indices 1 2 3 4 5 6 
#
# 1 0.026492 -0.000871 0.002277 0.000000 0.000000 0.000000
# 2 -0.000871 0.010290 -0.001675 0.000000 0.000000 0.000000
# 3 0.002277 -0.001675 0.009792 0.000000 0.000000 0.000000
# 4 0.000000 0.000000 0.000000 0.356970 0.000000 0.000000
# 5 0.000000 0.000000 0.000000 0.000000 -0.226261 0.000000
# 6 0.000000 0.000000 0.000000 0.000000 0.000000 0.026217
#
#
# Mechanical properties :
#
#
# Convention : Reuss Voigt Hill
#
# Bulk Modulus (GPa) = 21.72261 29.48701 25.60481
# Shear Modulus (GPa) = 22.79123 23.01859 22.90491
#
# Velocity S-wave (km/s) = 3.29544 3.31184 3.30365
# Velocity P-wave (km/s) = 4.98304 5.35489 5.17231
#
# Compressibility (1/GPa) = 0.04603497
#
# Stress axis : x y z
#
# Youngs Moduli (GPa) = 37.74760 97.18418 102.12620
#
# Poissons Ratio (x) = 0.08466 -0.23252
# Poissons Ratio (y) = 0.03288 0.17104
# Poissons Ratio (z) = -0.08595 0.16277
#
# Static dielectric constant tensor:
#      x y z
#    x 1.812560 0.000000 0.000000 
#    y 0.000000 1.825660 0.000000 
#    z 0.000000 0.000000 1.725030 
# 
# From -- ./inp_files/13000.got.cif
#   From: 2010.05.17/outbox.cif.g08.bks.cpg/sg60_7_cif.got.tgz:13000.got - 2010.06.03 14:59:27.
