data_PCOD9454256
_publ_section_title
;
Structure prediction by ZEFSAII (Michael W. Deem and Ramdas Pophale) SiO2 
 PCOD9454256
Probable space group: P B C N
;
_chemical_formula_sum "Si O2"
_cell_formula_units_Z 40
_cell_length_a 15.074865
_cell_length_b 8.719500
_cell_length_c 12.974621
_cell_angle_alpha 90.000000
_cell_angle_beta 90.000000
_cell_angle_gamma 90.000000
_cell_volume 1705.452760
_symmetry_space_group_name_H-M "P B C N"
_symmetry_group_IT_number 60
_symmetry_cell_setting 'orthorhombic'
loop_
_space_group_symop_operation_xyz
x,y,z
1/2-x,1/2-y,1/2+z
1/2+x,1/2-y,-z
-x,y,1/2-z
-x,-y,-z
1/2+x,1/2+y,1/2-z
1/2-x,1/2+y,z
x,-y,1/2+z
loop_
_atom_site_type_symbol
_atom_site_label
_atom_site_fract_x
_atom_site_fract_y
_atom_site_fract_z
Si Si1 0.632281 0.201146 0.029688
Si Si2 0.000000 0.525185 0.750000
Si Si3 0.129655 0.719079 0.226626
Si Si4 0.789414 0.623520 0.460415
Si Si5 0.000000 0.989533 0.250000
Si Si6 0.052249 0.760646 0.915482
O O1 0.637321 0.188064 0.152738
O O2 0.692261 0.347835 0.003651
O O3 0.675757 0.048292 0.980059
O O4 0.533879 0.227051 0.985901
O O5 0.062431 0.412086 0.686588
O O6 0.054245 0.630431 0.827053
O O7 0.080827 0.880496 0.214490
O O8 0.213796 0.684233 0.157421
O O9 0.858983 0.737388 0.518741
O O10 0.033922 0.088109 0.347428
#
# Coordination Sequence:
#
# PCOD9454256 Si02
#       6
#     8   4   8   8   4   8
#     4  12  28  47  75 105 144 189 239 299 356 427
#     4  10  18  42  76 100 126 194 236 274 348 434
#     4  11  24  44  72 104 143 185 243 286 361 424
#     4  12  28  47  75 105 144 189 239 299 356 427
#     4  10  26  40  78 110 140 190 238 298 346 432
#     4  11  23  47  73 102 146 186 236 289 360 413
#
# _framework density 23.454183
#
# number of rings (size 3 to 8) (size 9 to 14) (size 15 to 20)
#    0.000    0.800    4.000    3.000    5.600    6.400 
#    0.000    0.000    0.000    0.000    0.000    0.000 
#    0.000    0.000    0.000    0.000    0.000    0.000 
#
# Total GULP energy -223759.564970 kJ/mol
# GULP energy per Si atom -5593.989124 kJ/mol
# Density = 2.340080 g / cm^3
# Si number density = 23.454183 Si / 1000 Ang^3
#
#
#
# Elastic Constant Matrix: (Units=GPa)
#
#
# Indices 1 2 3 4 5 6 
#
# 1 50.2083 -4.0741 -4.2543 0.0000 0.0000 0.0000
# 2 -4.0741 100.3098 23.3162 0.0000 0.0000 0.0000
# 3 -4.2543 23.3162 93.1893 0.0000 0.0000 0.0000
# 4 0.0000 0.0000 0.0000 18.7351 0.0000 0.0000
# 5 0.0000 0.0000 0.0000 0.0000 23.8244 0.0000
# 6 0.0000 0.0000 0.0000 0.0000 0.0000 6.9372
#
#
#
# Elastic Compliance Matrix: (Units=1/GPa)
#
#
# Indices 1 2 3 4 5 6 
#
# 1 0.020033 0.000638 0.000755 0.000000 0.000000 0.000000
# 2 0.000638 0.010605 -0.002624 0.000000 0.000000 0.000000
# 3 0.000755 -0.002624 0.011422 0.000000 0.000000 0.000000
# 4 0.000000 0.000000 0.000000 0.053376 0.000000 0.000000
# 5 0.000000 0.000000 0.000000 0.000000 0.041974 0.000000
# 6 0.000000 0.000000 0.000000 0.000000 0.000000 0.144151
#
#
# Mechanical properties :
#
#
# Convention : Reuss Voigt Hill
#
# Bulk Modulus (GPa) = 25.25427 30.40922 27.83174
# Shear Modulus (GPa) = 16.82246 25.14732 20.98489
#
# Velocity S-wave (km/s) = 2.68105 3.27798 2.99443
# Velocity P-wave (km/s) = 4.51386 5.22689 4.88341
#
# Compressibility (1/GPa) = 0.03959727
#
# Stress axis : x y z
#
# Youngs Moduli (GPa) = 49.91820 94.29493 87.55105
#
# Poissons Ratio (x) = -0.06018 -0.06609
# Poissons Ratio (y) = -0.03186 0.22976
# Poissons Ratio (z) = -0.03768 0.24746
#
# Static dielectric constant tensor:
#      x y z
#    x 1.920130 0.000000 0.000000 
#    y 0.000000 1.907450 0.000000 
#    z 0.000000 0.000000 1.918460 
# 
# From -- ./inp_files/12337.got.cif
#   From: 2010.05.17/outbox.cif.g08.bks.cpg/sg60_7_cif.got.tgz:12337.got - 2010.06.03 14:59:27.
