data_PCOD9454299
_publ_section_title
;
Structure prediction by ZEFSAII (Michael W. Deem and Ramdas Pophale) SiO2 
 PCOD9454299
Probable space group: P B C N
;
_chemical_formula_sum "Si O2"
_cell_formula_units_Z 44
_cell_length_a 13.104480
_cell_length_b 24.614685
_cell_length_c 5.731646
_cell_angle_alpha 90.000000
_cell_angle_beta 90.000000
_cell_angle_gamma 90.000000
_cell_volume 1848.814907
_symmetry_space_group_name_H-M "P B C N"
_symmetry_group_IT_number 60
_symmetry_cell_setting 'orthorhombic'
loop_
_space_group_symop_operation_xyz
x,y,z
1/2-x,1/2-y,1/2+z
1/2+x,1/2-y,-z
-x,y,1/2-z
-x,-y,-z
1/2+x,1/2+y,1/2-z
1/2-x,1/2+y,z
x,-y,1/2+z
loop_
_atom_site_type_symbol
_atom_site_label
_atom_site_fract_x
_atom_site_fract_y
_atom_site_fract_z
Si Si1 0.813367 0.635438 0.538367
Si Si2 0.791331 0.064698 0.884217
Si Si3 0.500000 0.530391 0.750000
Si Si4 0.690978 0.749568 0.013721
Si Si5 0.377599 0.021059 0.120281
Si Si6 0.879880 0.858738 0.731164
O O1 0.790766 0.607847 0.786985
O O2 0.869507 0.693068 0.529215
O O3 0.867688 0.586007 0.402077
O O4 0.700026 0.650668 0.440947
O O5 0.894618 0.063117 0.736536
O O6 0.734985 0.007533 0.884858
O O7 0.831912 0.086984 0.125002
O O8 0.500000 0.500000 0.500000
O O9 0.761962 0.753208 0.250983
O O10 0.632443 0.693395 0.061059
O O11 0.417270 0.003991 0.375235
O O12 0.000000 0.866945 0.750000
#
# Coordination Sequence:
#
# PCOD9454299 Si02
#       6
#     8   8   4   8   8   8
#     4  10  20  36  53  70 106 142 179 218 265 310
#     4  11  21  34  48  72 104 140 176 214 255 314
#     4  12  26  34  46  68 108 146 178 206 254 300
#     4  10  21  39  56  73  99 141 183 222 268 314
#     4  10  19  31  49  72  99 133 173 209 242 307
#     4  11  22  35  53  79 104 142 181 227 265 314
#
# _framework density 23.799030999999999
#
# number of rings (size 3 to 8) (size 9 to 14) (size 15 to 20)
#    0.000    1.455    3.636    3.273    3.818    0.000 
#    0.000    0.000    0.000    0.000    0.000    0.000 
#    0.000    5.818    0.000    0.000    0.000   18.909 
#
# Total GULP energy -245200.550263 kJ/mol
# GULP energy per Si atom -5572.739779 kJ/mol
# Density = 2.374486 g / cm^3
# Si number density = 23.799031 Si / 1000 Ang^3
#
#
#
# Elastic Constant Matrix: (Units=GPa)
#
#
# Indices 1 2 3 4 5 6 
#
# 1 30.3409 -0.3190 43.3004 0.0000 0.0000 0.0000
# 2 -0.3190 159.5096 37.1529 0.0000 0.0000 0.0000
# 3 43.3004 37.1529 140.6763 0.0000 0.0000 0.0000
# 4 0.0000 0.0000 0.0000 45.9593 0.0000 0.0000
# 5 0.0000 0.0000 0.0000 0.0000 37.8359 0.0000
# 6 0.0000 0.0000 0.0000 0.0000 0.0000 -5.7322
#
#
#
# Elastic Compliance Matrix: (Units=1/GPa)
#
#
# Indices 1 2 3 4 5 6 
#
# 1 0.062151 0.004880 -0.020419 0.000000 0.000000 0.000000
# 2 0.004880 0.007063 -0.003368 0.000000 0.000000 0.000000
# 3 -0.020419 -0.003368 0.014283 0.000000 0.000000 0.000000
# 4 0.000000 0.000000 0.000000 0.021758 0.000000 0.000000
# 5 0.000000 0.000000 0.000000 0.000000 0.026430 0.000000
# 6 0.000000 0.000000 0.000000 0.000000 0.000000 -0.174454
#
#
# Mechanical properties :
#
#
# Convention : Reuss Voigt Hill
#
# Bulk Modulus (GPa) = 21.88934 54.53282 38.21108
# Shear Modulus (GPa) = 486.76385 32.30543 259.53464
#
# Velocity S-wave (km/s) = 14.31695 3.68832 10.45415
# Velocity P-wave (km/s) = 16.80826 6.41108 12.72045
#
# Compressibility (1/GPa) = 0.04568434
#
# Stress axis : x y z
#
# Youngs Moduli (GPa) = 16.08992 141.57573 70.01378
#
# Poissons Ratio (x) = -0.69093 1.42961
# Poissons Ratio (y) = -0.07852 0.23578
# Poissons Ratio (z) = 0.32854 0.47677
#
# Static dielectric constant tensor:
#      x y z
#    x 2.054900 0.000000 0.000000 
#    y 0.000000 1.948530 0.000000 
#    z 0.000000 0.000000 2.007020 
# 
# From -- ./inp_files/1287.got.cif
#   From: 2010.05.17/outbox.cif.g08.bks.cpg/sg60_1_cif.got.tgz:1287.got - 2010.06.03 14:59:27.
