data_PCOD9454140
_publ_section_title
;
Structure prediction by ZEFSAII (Michael W. Deem and Ramdas Pophale) SiO2 
 PCOD9454140
Probable space group: P B C N
;
_chemical_formula_sum "Si O2"
_cell_formula_units_Z 40
_cell_length_a 10.118083
_cell_length_b 24.107890
_cell_length_c 8.325210
_cell_angle_alpha 90.000000
_cell_angle_beta 90.000000
_cell_angle_gamma 90.000000
_cell_volume 2030.732111
_symmetry_space_group_name_H-M "P B C N"
_symmetry_group_IT_number 60
_symmetry_cell_setting 'orthorhombic'
loop_
_space_group_symop_operation_xyz
x,y,z
1/2-x,1/2-y,1/2+z
1/2+x,1/2-y,-z
-x,y,1/2-z
-x,-y,-z
1/2+x,1/2+y,1/2-z
1/2-x,1/2+y,z
x,-y,1/2+z
loop_
_atom_site_type_symbol
_atom_site_label
_atom_site_fract_x
_atom_site_fract_y
_atom_site_fract_z
Si Si1 0.541466 0.866699 0.429926
Si Si2 0.359925 0.686510 0.162645
Si Si3 0.144005 0.526638 0.464291
Si Si4 0.796243 0.577203 0.382033
Si Si5 0.374129 0.238436 0.364573
O O1 0.500000 0.853000 0.250000
O O2 0.644475 0.918097 0.427578
O O3 0.415499 0.888584 0.533011
O O4 0.599515 0.814459 0.521433
O O5 0.500000 0.692196 0.250000
O O6 0.313073 0.622763 0.157971
O O7 0.253374 0.723248 0.259892
O O8 0.360514 0.709496 0.981609
O O9 0.157870 0.548861 0.284454
O O10 0.239279 0.475587 0.506734
O O11 0.000000 0.500000 0.500000
O O12 0.500000 0.245115 0.250000
#
# Coordination Sequence:
#
# PCOD9454140 Si02
#       5
#     8   8   8   8   8
#     4  11  20  36  69 103 132 169 228 286 338 385
#     4  12  27  45  67 101 141 182 226 280 345 412
#     4  10  18  35  64  98 132 168 224 282 332 387
#     4  11  22  41  63 100 138 172 223 289 342 395
#     4  12  24  47  72  97 135 178 232 283 332 405
#
# _framework density 19.697330999999998
#
# number of rings (size 3 to 8) (size 9 to 14) (size 15 to 20)
#    0.000    0.800    4.000    6.600    2.800    0.000 
#    0.000    1.000    0.000    0.000    0.000    0.000 
#    0.000    0.000    0.000    0.000    0.000    0.000 
#
# Total GULP energy -223487.077664 kJ/mol
# GULP energy per Si atom -5587.176942 kJ/mol
# Density = 1.965250 g / cm^3
# Si number density = 19.697331 Si / 1000 Ang^3
#
#
#
# Elastic Constant Matrix: (Units=GPa)
#
#
# Indices 1 2 3 4 5 6 
#
# 1 100.7845 34.8124 60.9667 0.0000 0.0000 0.0000
# 2 34.8124 96.4858 53.8246 0.0000 0.0000 0.0000
# 3 60.9667 53.8246 121.7116 0.0000 0.0000 0.0000
# 4 0.0000 0.0000 0.0000 48.2383 0.0000 0.0000
# 5 0.0000 0.0000 0.0000 0.0000 9.6274 0.0000
# 6 0.0000 0.0000 0.0000 0.0000 0.0000 -2.7783
#
#
#
# Elastic Compliance Matrix: (Units=1/GPa)
#
#
# Indices 1 2 3 4 5 6 
#
# 1 0.014410 -0.001557 -0.006530 0.000000 0.000000 0.000000
# 2 -0.001557 0.013927 -0.005379 0.000000 0.000000 0.000000
# 3 -0.006530 -0.005379 0.013866 0.000000 0.000000 0.000000
# 4 0.000000 0.000000 0.000000 0.020730 0.000000 0.000000
# 5 0.000000 0.000000 0.000000 0.000000 0.103870 0.000000
# 6 0.000000 0.000000 0.000000 0.000000 0.000000 -0.359930
#
#
# Mechanical properties :
#
#
# Convention : Reuss Voigt Hill
#
# Bulk Modulus (GPa) = 65.48146 68.68771 67.08459
# Shear Modulus (GPa) = -31.03526 22.30935 -4.36295
#
# Velocity S-wave (km/s) = -3.97370 3.36908 -1.48990
# Velocity P-wave (km/s) = 3.50175 7.07683 5.58318
#
# Compressibility (1/GPa) = 0.01527150
#
# Stress axis : x y z
#
# Youngs Moduli (GPa) = 69.39759 71.80541 72.12045
#
# Poissons Ratio (x) = 0.11177 0.47092
# Poissons Ratio (y) = 0.10802 0.38794
# Poissons Ratio (z) = 0.45314 0.38625
#
# Static dielectric constant tensor:
#      x y z
#    x 1.703490 0.000000 0.000000 
#    y 0.000000 1.740650 0.000000 
#    z 0.000000 0.000000 1.752500 
# 
# From -- ./inp_files/3864.got.cif
#   From: 2010.05.17/outbox.cif.g08.bks.cpg/sg60_2_cif.got.tgz:3864.got - 2010.06.03 14:59:27.
