data_PCOD9454656
_publ_section_title
;
Structure prediction by ZEFSAII (Michael W. Deem and Ramdas Pophale) SiO2 
 PCOD9454656
Probable space group: P B C N
;
_chemical_formula_sum "Si O2"
_cell_formula_units_Z 40
_cell_length_a 17.994692
_cell_length_b 5.326367
_cell_length_c 17.424902
_cell_angle_alpha 90.000000
_cell_angle_beta 90.000000
_cell_angle_gamma 90.000000
_cell_volume 1670.112971
_symmetry_space_group_name_H-M "P B C N"
_symmetry_group_IT_number 60
_symmetry_cell_setting 'orthorhombic'
loop_
_space_group_symop_operation_xyz
x,y,z
1/2-x,1/2-y,1/2+z
1/2+x,1/2-y,-z
-x,y,1/2-z
-x,-y,-z
1/2+x,1/2+y,1/2-z
1/2-x,1/2+y,z
x,-y,1/2+z
loop_
_atom_site_type_symbol
_atom_site_label
_atom_site_fract_x
_atom_site_fract_y
_atom_site_fract_z
Si Si1 0.930350 0.017110 0.599652
Si Si2 0.429981 0.225487 0.554602
Si Si3 0.422884 0.711820 0.644434
Si Si4 0.290491 0.845788 0.743948
Si Si5 0.769319 0.139598 0.088014
O O1 0.912205 0.219445 0.533464
O O2 0.852722 0.891861 0.620032
O O3 0.989588 0.148172 0.656265
O O4 0.982356 0.798590 0.563090
O O5 0.394418 0.454961 0.603904
O O6 0.416736 0.952433 0.588393
O O7 0.372464 0.781069 0.716114
O O8 0.261987 0.116699 0.717065
O O9 0.282666 0.850830 0.836261
O O10 0.743418 0.894598 0.043325
#
# Coordination Sequence:
#
# PCOD9454656 Si02
#       5
#     8   8   8   8   8
#     4   9  21  37  64  87 122 155 209 240 306 354
#     4   9  20  34  65  87 119 148 204 254 290 358
#     4  10  19  36  62  86 117 156 201 246 301 352
#     4  10  21  40  59  80 122 161 196 250 302 351
#     4  10  23  39  60  82 124 161 198 251 305 358
#
# _framework density 23.950475000000001
#
# number of rings (size 3 to 8) (size 9 to 14) (size 15 to 20)
#    1.200    1.200    0.000    1.800    2.800    0.000 
#    0.000   10.000    0.000    0.000    0.000    0.000 
#    0.000    0.000    0.000    0.000    0.000    0.000 
#
# Total GULP energy -223072.515518 kJ/mol
# GULP energy per Si atom -5576.812888 kJ/mol
# Density = 2.389596 g / cm^3
# Si number density = 23.950475 Si / 1000 Ang^3
#
#
#
# Elastic Constant Matrix: (Units=GPa)
#
#
# Indices 1 2 3 4 5 6 
#
# 1 93.1655 25.1243 31.4723 0.0000 0.0000 0.0000
# 2 25.1243 171.9055 6.4691 0.0000 0.0000 0.0000
# 3 31.4723 6.4691 45.0576 0.0000 0.0000 0.0000
# 4 0.0000 0.0000 0.0000 8.8932 0.0000 0.0000
# 5 0.0000 0.0000 0.0000 0.0000 32.0421 0.0000
# 6 0.0000 0.0000 0.0000 0.0000 0.0000 28.6229
#
#
#
# Elastic Compliance Matrix: (Units=1/GPa)
#
#
# Indices 1 2 3 4 5 6 
#
# 1 0.014556 -0.001754 -0.009916 0.000000 0.000000 0.000000
# 2 -0.001754 0.006060 0.000355 0.000000 0.000000 0.000000
# 3 -0.009916 0.000355 0.029069 0.000000 0.000000 0.000000
# 4 0.000000 0.000000 0.000000 0.112445 0.000000 0.000000
# 5 0.000000 0.000000 0.000000 0.000000 0.031209 0.000000
# 6 0.000000 0.000000 0.000000 0.000000 0.000000 0.034937
#
#
# Mechanical properties :
#
#
# Convention : Reuss Voigt Hill
#
# Bulk Modulus (GPa) = 36.96035 48.47335 42.71685
# Shear Modulus (GPa) = 19.23639 30.38249 24.80944
#
# Velocity S-wave (km/s) = 2.83711 3.56554 3.22198
# Velocity P-wave (km/s) = 5.11837 6.10194 5.63167
#
# Compressibility (1/GPa) = 0.02705602
#
# Stress axis : x y z
#
# Youngs Moduli (GPa) = 68.69900 165.01181 34.40127
#
# Poissons Ratio (x) = 0.28948 0.34111
# Poissons Ratio (y) = 0.12052 -0.01222
# Poissons Ratio (z) = 0.68119 -0.05862
#
# Static dielectric constant tensor:
#      x y z
#    x 1.942140 0.000000 0.000000 
#    y 0.000000 2.033540 0.000000 
#    z 0.000000 0.000000 1.925700 
# 
# From -- ./inp_files/20760.got.cif
#   From: 2010.05.17/outbox.cif.g08.bks.cpg/sg60_11_cif.got.tgz:20760.got - 2010.06.03 14:59:27.
