data_PCOD9454623
_publ_section_title
;
Structure prediction by ZEFSAII (Michael W. Deem and Ramdas Pophale) SiO2 
 PCOD9454623
Probable space group: P B C N
;
_chemical_formula_sum "Si O2"
_cell_formula_units_Z 32
_cell_length_a 6.666515
_cell_length_b 9.846309
_cell_length_c 18.462318
_cell_angle_alpha 90.000000
_cell_angle_beta 90.000000
_cell_angle_gamma 90.000000
_cell_volume 1211.877015
_symmetry_space_group_name_H-M "P B C N"
_symmetry_group_IT_number 60
_symmetry_cell_setting 'orthorhombic'
loop_
_space_group_symop_operation_xyz
x,y,z
1/2-x,1/2-y,1/2+z
1/2+x,1/2-y,-z
-x,y,1/2-z
-x,-y,-z
1/2+x,1/2+y,1/2-z
1/2-x,1/2+y,z
x,-y,1/2+z
loop_
_atom_site_type_symbol
_atom_site_label
_atom_site_fract_x
_atom_site_fract_y
_atom_site_fract_z
Si Si1 0.663910 0.447081 0.642362
Si Si2 0.906826 0.278062 0.408445
Si Si3 0.760974 0.030829 0.494922
Si Si4 0.688522 0.412543 0.284042
O O1 0.617379 0.299841 0.608642
O O2 0.257126 0.331099 0.551292
O O3 0.777506 0.530061 0.581227
O O4 0.436641 0.499021 0.658110
O O5 0.240775 0.513649 0.279910
O O6 0.861977 0.407860 0.459609
O O7 0.837857 0.321511 0.327984
O O8 0.000000 0.000000 0.500000
O O9 0.500000 0.328960 0.250000
#
# Coordination Sequence:
#
# PCOD9454623 Si02
#       4
#     8   8   8   8
#     4   8  19  37  56  89 123 158 197 260 298 364
#     4  11  17  35  67  79 121 177 186 255 325 345
#     4  10  19  36  57  89 123 156 204 252 305 366
#     4   8  17  37  60  77 123 157 203 246 304 351
#
# _framework density 26.405321000000001
#
# number of rings (size 3 to 8) (size 9 to 14) (size 15 to 20)
#    1.500    1.000    5.000    0.000    0.000    0.000 
#    9.000    5.000    5.500    0.000    0.000    0.000 
#    0.000    0.000    0.000    0.000    0.000    0.000 
#
# Total GULP energy -178138.542568 kJ/mol
# GULP energy per Si atom -5566.829455 kJ/mol
# Density = 2.634522 g / cm^3
# Si number density = 26.405321 Si / 1000 Ang^3
#
#
#
# Elastic Constant Matrix: (Units=GPa)
#
#
# Indices 1 2 3 4 5 6 
#
# 1 61.6214 37.2592 44.6620 0.0000 0.0000 0.0000
# 2 37.2592 191.4135 90.7117 0.0000 0.0000 0.0000
# 3 44.6620 90.7117 220.4018 0.0000 0.0000 0.0000
# 4 0.0000 0.0000 0.0000 49.2149 0.0000 0.0000
# 5 0.0000 0.0000 0.0000 0.0000 28.8355 0.0000
# 6 0.0000 0.0000 0.0000 0.0000 0.0000 29.7089
#
#
#
# Elastic Compliance Matrix: (Units=1/GPa)
#
#
# Indices 1 2 3 4 5 6 
#
# 1 0.019897 -0.002438 -0.003029 0.000000 0.000000 0.000000
# 2 -0.002438 0.006789 -0.002300 0.000000 0.000000 0.000000
# 3 -0.003029 -0.002300 0.006098 0.000000 0.000000 0.000000
# 4 0.000000 0.000000 0.000000 0.020319 0.000000 0.000000
# 5 0.000000 0.000000 0.000000 0.000000 0.034680 0.000000
# 6 0.000000 0.000000 0.000000 0.000000 0.000000 0.033660
#
#
# Mechanical properties :
#
#
# Convention : Reuss Voigt Hill
#
# Bulk Modulus (GPa) = 57.96911 90.96695 74.46803
# Shear Modulus (GPa) = 35.03233 41.60546 38.31889
#
# Velocity S-wave (km/s) = 3.64636 3.97375 3.81357
# Velocity P-wave (km/s) = 6.30311 7.45515 6.90320
#
# Compressibility (1/GPa) = 0.01725057
#
# Stress axis : x y z
#
# Youngs Moduli (GPa) = 50.25830 147.30034 164.00006
#
# Poissons Ratio (x) = 0.35908 0.49670
# Poissons Ratio (y) = 0.12252 0.37722
# Poissons Ratio (z) = 0.15221 0.33881
#
# Static dielectric constant tensor:
#      x y z
#    x 2.189870 0.000000 0.000000 
#    y 0.000000 2.190020 0.000000 
#    z 0.000000 0.000000 2.221400 
# 
# From -- ./inp_files/23418.got.cif
#   From: 2010.05.17/outbox.cif.g08.bks.cpg/sg60_12_cif.got.tgz:23418.got - 2010.06.03 14:59:27.
