data_PCOD9454566
_publ_section_title
;
Structure prediction by ZEFSAII (Michael W. Deem and Ramdas Pophale) SiO2 
 PCOD9454566
Probable space group: P B C N
;
_chemical_formula_sum "Si O2"
_cell_formula_units_Z 56
_cell_length_a 11.761697
_cell_length_b 10.852459
_cell_length_c 17.418542
_cell_angle_alpha 90.000000
_cell_angle_beta 90.000000
_cell_angle_gamma 90.000000
_cell_volume 2223.360782
_symmetry_space_group_name_H-M "P B C N"
_symmetry_group_IT_number 60
_symmetry_cell_setting 'orthorhombic'
loop_
_space_group_symop_operation_xyz
x,y,z
1/2-x,1/2-y,1/2+z
1/2+x,1/2-y,-z
-x,y,1/2-z
-x,-y,-z
1/2+x,1/2+y,1/2-z
1/2-x,1/2+y,z
x,-y,1/2+z
loop_
_atom_site_type_symbol
_atom_site_label
_atom_site_fract_x
_atom_site_fract_y
_atom_site_fract_z
Si Si1 0.090718 0.405966 0.577137
Si Si2 0.181434 0.883694 0.358352
Si Si3 0.848815 0.694946 0.264817
Si Si4 0.153953 0.013879 0.083244
Si Si5 0.928011 0.558961 0.680522
Si Si6 0.512141 0.680622 0.506981
Si Si7 0.870438 0.917623 0.752177
O O1 0.106968 0.312653 0.649595
O O2 0.216162 0.458036 0.558500
O O3 0.010325 0.510203 0.613416
O O4 0.029596 0.319983 0.515023
O O5 0.121186 0.801909 0.292726
O O6 0.117320 0.845469 0.434719
O O7 0.318029 0.872621 0.354363
O O8 0.157468 0.021653 0.329973
O O9 0.881238 0.565650 0.223622
O O10 0.713047 0.693686 0.269525
O O11 0.155782 0.991780 0.174931
O O12 0.069577 0.131197 0.070730
O O13 0.092289 0.907050 0.034442
O O14 0.000000 0.618767 0.750000
O O15 0.000000 0.889482 0.750000
#
# Coordination Sequence:
#
# PCOD9454566 Si02
#       7
#     8   8   8   8   8   8   8
#     4  10  20  40  64  83 120 167 201 249 312 363
#     4  11  20  35  64  93 117 160 206 248 304 364
#     4   9  19  32  56  87 113 154 201 235 303 354
#     4  10  23  41  59  92 121 161 208 253 303 367
#     4   9  19  35  57  89 124 154 197 261 295 354
#     4  11  22  41  66  88 122 164 209 251 307 378
#     4  10  19  35  58  85 120 151 195 257 291 348
#
# _framework density 25.187096
#
# number of rings (size 3 to 8) (size 9 to 14) (size 15 to 20)
#    0.000    2.000    2.857    1.714    0.000    0.571 
#    7.714    2.143    0.000    0.000    0.000    0.000 
#    0.000    0.000    0.000    0.000    0.000    0.000 
#
# Total GULP energy -312962.076785 kJ/mol
# GULP energy per Si atom -5588.608514 kJ/mol
# Density = 2.512977 g / cm^3
# Si number density = 25.187096 Si / 1000 Ang^3
#
#
#
# Elastic Constant Matrix: (Units=GPa)
#
#
# Indices 1 2 3 4 5 6 
#
# 1 201.9376 26.9586 29.4446 0.0000 0.0000 0.0000
# 2 26.9586 31.5504 26.3263 0.0000 0.0000 0.0000
# 3 29.4446 26.3263 73.9609 0.0000 0.0000 0.0000
# 4 0.0000 0.0000 0.0000 32.3078 0.0000 0.0000
# 5 0.0000 0.0000 0.0000 0.0000 36.6799 0.0000
# 6 0.0000 0.0000 0.0000 0.0000 0.0000 24.2015
#
#
#
# Elastic Compliance Matrix: (Units=1/GPa)
#
#
# Indices 1 2 3 4 5 6 
#
# 1 0.005619 -0.004174 -0.000751 0.000000 0.000000 0.000000
# 2 -0.004174 0.048188 -0.015491 0.000000 0.000000 0.000000
# 3 -0.000751 -0.015491 0.019333 0.000000 0.000000 0.000000
# 4 0.000000 0.000000 0.000000 0.030952 0.000000 0.000000
# 5 0.000000 0.000000 0.000000 0.000000 0.027263 0.000000
# 6 0.000000 0.000000 0.000000 0.000000 0.000000 0.041320
#
#
# Mechanical properties :
#
#
# Convention : Reuss Voigt Hill
#
# Bulk Modulus (GPa) = 30.95186 52.54533 41.74859
# Shear Modulus (GPa) = 22.29394 33.61915 27.95654
#
# Velocity S-wave (km/s) = 2.97835 3.65742 3.33521
# Velocity P-wave (km/s) = 4.91354 6.22438 5.60740
#
# Compressibility (1/GPa) = 0.03230824
#
# Stress axis : x y z
#
# Youngs Moduli (GPa) = 177.97357 20.75212 51.72374
#
# Poissons Ratio (x) = 0.08663 0.03885
# Poissons Ratio (y) = 0.74293 0.80123
# Poissons Ratio (z) = 0.13367 0.32146
#
# Static dielectric constant tensor:
#      x y z
#    x 2.018820 0.000000 0.000000 
#    y 0.000000 2.024200 0.000000 
#    z 0.000000 0.000000 1.994950 
# 
# From -- ./inp_files/22611.got.cif
#   From: 2010.05.17/outbox.cif.g08.bks.cpg/sg60_12_cif.got.tgz:22611.got - 2010.06.03 14:59:27.
