data_PCOD9454307
_publ_section_title
;
Structure prediction by ZEFSAII (Michael W. Deem and Ramdas Pophale) SiO2 
 PCOD9454307
Probable space group: P B C N
;
_chemical_formula_sum "Si O2"
_cell_formula_units_Z 60
_cell_length_a 11.843405
_cell_length_b 13.872695
_cell_length_c 15.789839
_cell_angle_alpha 90.000000
_cell_angle_beta 90.000000
_cell_angle_gamma 90.000000
_cell_volume 2594.269684
_symmetry_space_group_name_H-M "P B C N"
_symmetry_group_IT_number 60
_symmetry_cell_setting 'orthorhombic'
loop_
_space_group_symop_operation_xyz
x,y,z
1/2-x,1/2-y,1/2+z
1/2+x,1/2-y,-z
-x,y,1/2-z
-x,-y,-z
1/2+x,1/2+y,1/2-z
1/2-x,1/2+y,z
x,-y,1/2+z
loop_
_atom_site_type_symbol
_atom_site_label
_atom_site_fract_x
_atom_site_fract_y
_atom_site_fract_z
Si Si1 0.765078 0.979353 0.514609
Si Si2 0.891837 0.534124 0.859363
Si Si3 0.270102 0.271753 0.337734
Si Si4 0.000000 0.825929 0.250000
Si Si5 0.343488 0.015935 0.822451
Si Si6 0.686688 0.743452 0.331395
Si Si7 0.397476 0.676801 0.587652
Si Si8 0.121741 0.180182 0.998076
O O1 0.716939 0.952993 0.606435
O O2 0.847791 0.070439 0.523372
O O3 0.663654 0.000239 0.447115
O O4 0.833908 0.895931 0.471389
O O5 0.842147 0.483108 0.774998
O O6 0.859589 0.646965 0.844721
O O7 0.026387 0.525502 0.851778
O O8 0.396789 0.270360 0.296594
O O9 0.218139 0.380127 0.328050
O O10 0.193668 0.217437 0.267402
O O11 0.287979 0.261585 0.438811
O O12 0.943227 0.879412 0.328688
O O13 0.812370 0.746227 0.372628
O O14 0.620251 0.684206 0.400941
O O15 0.502228 0.716358 0.535872
#
# Coordination Sequence:
#
# PCOD9454307 Si02
#       8
#     8   8   8   4   8   8   8   8
#     4  10  19  32  51  77 105 133 168 211 256 308
#     4   9  18  33  52  73  98 134 173 208 248 302
#     4   8  16  30  49  72  96 128 166 202 245 303
#     4   8  14  30  54  72  92 130 172 202 242 308
#     4   9  17  31  53  73  96 132 172 206 246 302
#     4   9  18  33  52  73  99 130 170 210 246 297
#     4   9  18  33  53  76 101 133 174 212 253 308
#     4  10  19  31  51  75 102 134 166 209 258 305
#
# _framework density 23.127896
#
# number of rings (size 3 to 8) (size 9 to 14) (size 15 to 20)
#    0.000    2.933    0.000    1.600    0.000    2.133 
#    0.000    2.667    0.000   12.800    0.000    0.000 
#    0.000    0.000    0.000    0.000    0.000    0.000 
#
# Total GULP energy -334149.685024 kJ/mol
# GULP energy per Si atom -5569.161417 kJ/mol
# Density = 2.307526 g / cm^3
# Si number density = 23.127896 Si / 1000 Ang^3
#
#
#
# Elastic Constant Matrix: (Units=GPa)
#
#
# Indices 1 2 3 4 5 6 
#
# 1 24.9803 -9.9827 1.0030 0.0000 0.0000 0.0000
# 2 -9.9827 21.7028 -6.5751 0.0000 0.0000 0.0000
# 3 1.0030 -6.5751 128.2820 0.0000 0.0000 0.0000
# 4 0.0000 0.0000 0.0000 28.1458 0.0000 0.0000
# 5 0.0000 0.0000 0.0000 0.0000 13.9757 0.0000
# 6 0.0000 0.0000 0.0000 0.0000 0.0000 5.3389
#
#
#
# Elastic Compliance Matrix: (Units=1/GPa)
#
#
# Indices 1 2 3 4 5 6 
#
# 1 0.049125 0.022834 0.000786 0.000000 0.000000 0.000000
# 2 0.022834 0.057418 0.002764 0.000000 0.000000 0.000000
# 3 0.000786 0.002764 0.007931 0.000000 0.000000 0.000000
# 4 0.000000 0.000000 0.000000 0.035529 0.000000 0.000000
# 5 0.000000 0.000000 0.000000 0.000000 0.071553 0.000000
# 6 0.000000 0.000000 0.000000 0.000000 0.000000 0.187304
#
#
# Mechanical properties :
#
#
# Convention : Reuss Voigt Hill
#
# Bulk Modulus (GPa) = 5.97930 15.98394 10.98162
# Shear Modulus (GPa) = 12.14071 22.19342 17.16707
#
# Velocity S-wave (km/s) = 2.29364 3.10109 2.72741
# Velocity P-wave (km/s) = 3.09924 4.44393 3.83104
#
# Compressibility (1/GPa) = 0.16724360
#
# Stress axis : x y z
#
# Youngs Moduli (GPa) = 20.35625 17.41623 126.08961
#
# Poissons Ratio (x) = -0.39769 -0.09914
# Poissons Ratio (y) = -0.46482 -0.34857
# Poissons Ratio (z) = -0.01601 -0.04815
#
# Static dielectric constant tensor:
#      x y z
#    x 1.913380 0.000000 0.000000 
#    y 0.000000 1.887780 0.000000 
#    z 0.000000 0.000000 1.951480 
# 
# From -- ./inp_files/16351.got.cif
#   From: 2010.05.17/outbox.cif.g08.bks.cpg/sg60_9_cif.got.tgz:16351.got - 2010.06.03 14:59:27.
