data_PCOD9454549
_publ_section_title
;
Structure prediction by ZEFSAII (Michael W. Deem and Ramdas Pophale) SiO2 
 PCOD9454549
Probable space group: P B C N
;
_chemical_formula_sum "Si O2"
_cell_formula_units_Z 52
_cell_length_a 7.214809
_cell_length_b 28.155254
_cell_length_c 10.879690
_cell_angle_alpha 90.000000
_cell_angle_beta 90.000000
_cell_angle_gamma 90.000000
_cell_volume 2210.043434
_symmetry_space_group_name_H-M "P B C N"
_symmetry_group_IT_number 60
_symmetry_cell_setting 'orthorhombic'
loop_
_space_group_symop_operation_xyz
x,y,z
1/2-x,1/2-y,1/2+z
1/2+x,1/2-y,-z
-x,y,1/2-z
-x,-y,-z
1/2+x,1/2+y,1/2-z
1/2-x,1/2+y,z
x,-y,1/2+z
loop_
_atom_site_type_symbol
_atom_site_label
_atom_site_fract_x
_atom_site_fract_y
_atom_site_fract_z
Si Si1 0.275070 0.795458 0.755559
Si Si2 0.799936 0.353698 0.980581
Si Si3 0.752346 0.351240 0.504219
Si Si4 0.500000 0.545424 0.750000
Si Si5 0.747349 0.957414 0.461054
Si Si6 0.212611 0.684189 0.757386
Si Si7 0.673015 0.052661 0.589450
O O1 0.500000 0.795088 0.750000
O O2 0.223819 0.826865 0.637288
O O3 0.215846 0.741020 0.748996
O O4 0.198714 0.818846 0.880542
O O5 0.722950 0.331590 0.107332
O O6 0.780842 0.410725 0.979863
O O7 0.023099 0.347596 0.987723
O O8 0.694895 0.406367 0.514344
O O9 0.695210 0.334522 0.367921
O O10 0.600080 0.522410 0.867064
O O11 0.317263 0.570002 0.807070
O O12 0.548872 0.946837 0.394551
O O13 0.711939 0.997802 0.560839
O O14 0.000000 0.666877 0.750000
#
# Coordination Sequence:
#
# PCOD9454549 Si02
#       7
#     8   8   8   4   8   8   8
#     4  10  20  36  57  84 117 156 204 257 308 372
#     4   9  19  37  60  85 119 158 202 253 312 370
#     4   9  19  37  60  85 119 158 202 253 312 370
#     4  12  22  38  62  94 126 164 216 270 304 378
#     4  10  22  41  64  91 126 168 210 259 324 387
#     4  10  19  35  56  81 118 158 194 257 310 372
#     4  10  22  41  64  91 126 168 210 259 324 387
#
# _framework density 23.528950999999999
#
# number of rings (size 3 to 8) (size 9 to 14) (size 15 to 20)
#    0.000    2.154    0.000    2.769    0.000    3.692 
#    8.308    4.615    0.000    0.000    0.000    0.000 
#    0.000    0.000    0.000    0.000    0.000    0.000 
#
# Total GULP energy -290058.217373 kJ/mol
# GULP energy per Si atom -5578.042642 kJ/mol
# Density = 2.347540 g / cm^3
# Si number density = 23.528951 Si / 1000 Ang^3
#
#
#
# Elastic Constant Matrix: (Units=GPa)
#
#
# Indices 1 2 3 4 5 6 
#
# 1 127.1862 -14.7673 -3.8785 0.0000 0.0000 0.0000
# 2 -14.7673 145.7203 49.0773 0.0000 0.0000 0.0000
# 3 -3.8785 49.0773 105.8235 0.0000 0.0000 0.0000
# 4 0.0000 0.0000 0.0000 7.8583 0.0000 0.0000
# 5 0.0000 0.0000 0.0000 0.0000 14.7286 0.0000
# 6 0.0000 0.0000 0.0000 0.0000 0.0000 21.3590
#
#
#
# Elastic Compliance Matrix: (Units=1/GPa)
#
#
# Indices 1 2 3 4 5 6 
#
# 1 0.007957 0.000839 -0.000098 0.000000 0.000000 0.000000
# 2 0.000839 0.008221 -0.003782 0.000000 0.000000 0.000000
# 3 -0.000098 -0.003782 0.011200 0.000000 0.000000 0.000000
# 4 0.000000 0.000000 0.000000 0.127254 0.000000 0.000000
# 5 0.000000 0.000000 0.000000 0.000000 0.067895 0.000000
# 6 0.000000 0.000000 0.000000 0.000000 0.000000 0.046819
#
#
# Mechanical properties :
#
#
# Convention : Reuss Voigt Hill
#
# Bulk Modulus (GPa) = 46.95361 48.84366 47.89864
# Shear Modulus (GPa) = 17.69748 32.00907 24.85327
#
# Velocity S-wave (km/s) = 2.74552 3.69238 3.25358
# Velocity P-wave (km/s) = 5.48175 6.24358 5.87502
#
# Compressibility (1/GPa) = 0.02129762
#
# Stress axis : x y z
#
# Youngs Moduli (GPa) = 125.67622 121.63607 89.28512
#
# Poissons Ratio (x) = -0.10208 0.00871
# Poissons Ratio (y) = -0.10547 0.33767
# Poissons Ratio (z) = 0.01226 0.46002
#
# Static dielectric constant tensor:
#      x y z
#    x 1.951360 0.000000 0.000000 
#    y 0.000000 1.843440 0.000000 
#    z 0.000000 0.000000 1.906710 
# 
# From -- ./inp_files/10334.got.cif
#   From: 2010.05.17/outbox.cif.g08.bks.cpg/sg60_6_cif.got.tgz:10334.got - 2010.06.03 14:59:27.
