data_PCOD9454361
_publ_section_title
;
Structure prediction by ZEFSAII (Michael W. Deem and Ramdas Pophale) SiO2 
 PCOD9454361
Probable space group: P B C N
;
_chemical_formula_sum "Si O2"
_cell_formula_units_Z 48
_cell_length_a 24.973632
_cell_length_b 5.544945
_cell_length_c 14.155420
_cell_angle_alpha 90.000000
_cell_angle_beta 90.000000
_cell_angle_gamma 90.000000
_cell_volume 1960.205982
_symmetry_space_group_name_H-M "P B C N"
_symmetry_group_IT_number 60
_symmetry_cell_setting 'orthorhombic'
loop_
_space_group_symop_operation_xyz
x,y,z
1/2-x,1/2-y,1/2+z
1/2+x,1/2-y,-z
-x,y,1/2-z
-x,-y,-z
1/2+x,1/2+y,1/2-z
1/2-x,1/2+y,z
x,-y,1/2+z
loop_
_atom_site_type_symbol
_atom_site_label
_atom_site_fract_x
_atom_site_fract_y
_atom_site_fract_z
Si Si1 0.222613 0.840158 0.841337
Si Si2 0.497026 0.795074 0.077740
Si Si3 0.396301 0.769003 0.332381
Si Si4 0.222072 0.850067 0.609839
Si Si5 0.396059 0.464584 0.622097
Si Si6 0.446669 0.153097 0.223789
O O1 0.258345 0.608110 0.870059
O O2 0.162120 0.779327 0.872121
O O3 0.223060 0.844829 0.725608
O O4 0.554610 0.688337 0.103150
O O5 0.448188 0.614040 0.064605
O O6 0.477046 0.942441 0.168725
O O7 0.500000 0.000000 0.000000
O O8 0.397673 0.640013 0.230066
O O9 0.410674 0.048935 0.308364
O O10 0.246034 0.591887 0.580280
O O11 0.160297 0.885999 0.581148
O O12 0.405372 0.742581 0.647060
O O13 0.500000 0.311948 0.250000
#
# Coordination Sequence:
#
# PCOD9454361 Si02
#       6
#     8   8   8   8   8   8
#     4   9  18  30  50  81 113 141 178 225 278 330
#     4  10  21  36  52  77 110 141 186 228 280 329
#     4   9  19  32  53  80 107 140 177 229 277 327
#     4   9  19  30  51  82 113 142 177 226 279 331
#     4  10  19  32  56  77 109 140 180 227 277 328
#     4   9  18  32  52  78 106 138 178 224 280 330
#
# _framework density 24.487223
#
# number of rings (size 3 to 8) (size 9 to 14) (size 15 to 20)
#    0.000    2.667    0.000    2.500   14.000    0.667 
#    0.000    0.000    0.000    2.000    0.000    0.000 
#    0.000    0.000    0.000    0.000    0.000    0.000 
#
# Total GULP energy -267856.579808 kJ/mol
# GULP energy per Si atom -5580.345413 kJ/mol
# Density = 2.443149 g / cm^3
# Si number density = 24.487223 Si / 1000 Ang^3
#
#
#
# Elastic Constant Matrix: (Units=GPa)
#
#
# Indices 1 2 3 4 5 6 
#
# 1 231.5644 82.8629 21.5394 0.0000 0.0000 0.0000
# 2 82.8629 107.9532 24.0699 0.0000 0.0000 0.0000
# 3 21.5394 24.0699 57.8299 0.0000 0.0000 0.0000
# 4 0.0000 0.0000 0.0000 33.1926 0.0000 0.0000
# 5 0.0000 0.0000 0.0000 0.0000 -2.9796 0.0000
# 6 0.0000 0.0000 0.0000 0.0000 0.0000 48.0632
#
#
#
# Elastic Compliance Matrix: (Units=1/GPa)
#
#
# Indices 1 2 3 4 5 6 
#
# 1 0.005960 -0.004497 -0.000348 0.000000 0.000000 0.000000
# 2 -0.004497 0.013604 -0.003987 0.000000 0.000000 0.000000
# 3 -0.000348 -0.003987 0.019081 0.000000 0.000000 0.000000
# 4 0.000000 0.000000 0.000000 0.030127 0.000000 0.000000
# 5 0.000000 0.000000 0.000000 0.000000 -0.335615 0.000000
# 6 0.000000 0.000000 0.000000 0.000000 0.000000 0.020806
#
#
# Mechanical properties :
#
#
# Convention : Reuss Voigt Hill
#
# Bulk Modulus (GPa) = 47.66338 72.69910 60.18124
# Shear Modulus (GPa) = -22.58585 33.58026 5.49721
#
# Velocity S-wave (km/s) = -3.04032 3.70718 1.49993
# Velocity P-wave (km/s) = 2.67995 6.93378 5.25639
#
# Compressibility (1/GPa) = 0.02098047
#
# Stress axis : x y z
#
# Youngs Moduli (GPa) = 167.78144 73.50592 52.40727
#
# Poissons Ratio (x) = 0.33058 0.01824
# Poissons Ratio (y) = 0.75456 0.20896
# Poissons Ratio (z) = 0.05840 0.29309
#
# Static dielectric constant tensor:
#      x y z
#    x 2.019510 0.000000 0.000000 
#    y 0.000000 2.171970 0.000000 
#    z 0.000000 0.000000 2.350000 
# 
# From -- ./inp_files/21108.got.cif
#   From: 2010.05.17/outbox.cif.g08.bks.cpg/sg60_11_cif.got.tgz:21108.got - 2010.06.03 14:59:27.
