data_PCOD9454742
_publ_section_title
;
Structure prediction by ZEFSAII (Michael W. Deem and Ramdas Pophale) SiO2 
 PCOD9454742
Probable space group: P B C N
;
_chemical_formula_sum "Si O2"
_cell_formula_units_Z 60
_cell_length_a 12.318062
_cell_length_b 9.064644
_cell_length_c 26.543272
_cell_angle_alpha 90.000000
_cell_angle_beta 90.000000
_cell_angle_gamma 90.000000
_cell_volume 2963.791142
_symmetry_space_group_name_H-M "P B C N"
_symmetry_group_IT_number 60
_symmetry_cell_setting 'orthorhombic'
loop_
_space_group_symop_operation_xyz
x,y,z
1/2-x,1/2-y,1/2+z
1/2+x,1/2-y,-z
-x,y,1/2-z
-x,-y,-z
1/2+x,1/2+y,1/2-z
1/2-x,1/2+y,z
x,-y,1/2+z
loop_
_atom_site_type_symbol
_atom_site_label
_atom_site_fract_x
_atom_site_fract_y
_atom_site_fract_z
Si Si1 0.747712 0.450915 0.472634
Si Si2 0.163394 0.293637 0.459147
Si Si3 0.500000 0.896818 0.750000
Si Si4 0.165217 0.772661 0.368792
Si Si5 0.938365 0.686955 0.359058
Si Si6 0.004574 0.345668 0.123542
Si Si7 0.822175 0.541485 0.686119
Si Si8 0.199168 0.799661 0.599386
O O1 0.672095 0.358427 0.510198
O O2 0.818523 0.568609 0.503566
O O3 0.691541 0.545632 0.428825
O O4 0.813554 0.324487 0.443822
O O5 0.260979 0.297974 0.417949
O O6 0.052556 0.308826 0.428993
O O7 0.536373 0.808143 0.799387
O O8 0.390266 0.988442 0.765007
O O9 0.206993 0.879430 0.323503
O O10 0.181349 0.605048 0.348876
O O11 0.037565 0.781084 0.382063
O O12 0.954909 0.514776 0.374216
O O13 0.816961 0.722162 0.375788
O O14 0.101161 0.235484 0.136318
O O15 0.906426 0.340914 0.162894
#
# Coordination Sequence:
#
# PCOD9454742 Si02
#       8
#     8   8   4   8   8   8   8   8
#     4  10  22  36  53  83 115 156 206 235 285 339
#     4  10  19  38  56  84 111 153 208 241 275 342
#     4   8  18  38  64  88 110 152 196 226 302 368
#     4   9  18  36  62  81 114 151 191 239 293 332
#     4  10  20  40  59  85 115 160 185 235 305 367
#     4   9  19  36  60  76 114 158 183 238 301 335
#     4   9  18  37  60  91 108 145 191 239 293 352
#     4  11  21  40  51  81 121 157 192 237 301 347
#
# _framework density 20.244342
#
# number of rings (size 3 to 8) (size 9 to 14) (size 15 to 20)
#    0.000    2.667    1.333    2.400    0.000    1.067 
#   26.400    0.000    0.000    3.200    0.000    0.000 
#    0.000    0.000    0.000    0.000    0.000    0.000 
#
# Total GULP energy -334021.309471 kJ/mol
# GULP energy per Si atom -5567.021825 kJ/mol
# Density = 2.019826 g / cm^3
# Si number density = 20.244342 Si / 1000 Ang^3
#
#
#
# Elastic Constant Matrix: (Units=GPa)
#
#
# Indices 1 2 3 4 5 6 
#
# 1 92.4528 8.1766 28.2715 0.0000 0.0000 0.0000
# 2 8.1766 54.4635 10.7506 0.0000 0.0000 0.0000
# 3 28.2715 10.7506 52.0846 0.0000 0.0000 0.0000
# 4 0.0000 0.0000 0.0000 25.5477 0.0000 0.0000
# 5 0.0000 0.0000 0.0000 0.0000 11.2530 0.0000
# 6 0.0000 0.0000 0.0000 0.0000 0.0000 21.5338
#
#
#
# Elastic Compliance Matrix: (Units=1/GPa)
#
#
# Indices 1 2 3 4 5 6 
#
# 1 0.012987 -0.000582 -0.006929 0.000000 0.000000 0.000000
# 2 -0.000582 0.019167 -0.003640 0.000000 0.000000 0.000000
# 3 -0.006929 -0.003640 0.023712 0.000000 0.000000 0.000000
# 4 0.000000 0.000000 0.000000 0.039143 0.000000 0.000000
# 5 0.000000 0.000000 0.000000 0.000000 0.088865 0.000000
# 6 0.000000 0.000000 0.000000 0.000000 0.000000 0.046439
#
#
# Mechanical properties :
#
#
# Convention : Reuss Voigt Hill
#
# Bulk Modulus (GPa) = 29.79476 32.59981 31.19729
# Shear Modulus (GPa) = 18.95359 21.78703 20.37031
#
# Velocity S-wave (km/s) = 3.06313 3.28411 3.17554
# Velocity P-wave (km/s) = 5.22110 5.52437 5.37487
#
# Compressibility (1/GPa) = 0.03356295
#
# Stress axis : x y z
#
# Youngs Moduli (GPa) = 77.00210 52.17345 42.17275
#
# Poissons Ratio (x) = 0.03036 0.29222
# Poissons Ratio (y) = 0.04481 0.15352
# Poissons Ratio (z) = 0.53355 0.18993
#
# Static dielectric constant tensor:
#      x y z
#    x 1.793670 0.000000 0.000000 
#    y 0.000000 1.724400 0.000000 
#    z 0.000000 0.000000 1.775790 
# 
# From -- ./inp_files/26071.got.cif
#   From: 2010.05.17/outbox.cif.g08.bks.cpg/sg60_14_cif.got.tgz:26071.got - 2010.06.03 14:59:27.
