data_PCOD9454422
_publ_section_title
;
Structure prediction by ZEFSAII (Michael W. Deem and Ramdas Pophale) SiO2 
 PCOD9454422
Probable space group: P B C N
;
_chemical_formula_sum "Si O2"
_cell_formula_units_Z 64
_cell_length_a 9.040623
_cell_length_b 17.611673
_cell_length_c 20.846897
_cell_angle_alpha 90.000000
_cell_angle_beta 90.000000
_cell_angle_gamma 90.000000
_cell_volume 3319.253280
_symmetry_space_group_name_H-M "P B C N"
_symmetry_group_IT_number 60
_symmetry_cell_setting 'orthorhombic'
loop_
_space_group_symop_operation_xyz
x,y,z
1/2-x,1/2-y,1/2+z
1/2+x,1/2-y,-z
-x,y,1/2-z
-x,-y,-z
1/2+x,1/2+y,1/2-z
1/2-x,1/2+y,z
x,-y,1/2+z
loop_
_atom_site_type_symbol
_atom_site_label
_atom_site_fract_x
_atom_site_fract_y
_atom_site_fract_z
Si Si1 0.084498 0.310614 0.312497
Si Si2 0.075666 0.986865 0.816745
Si Si3 0.916817 0.503289 0.685795
Si Si4 0.081425 0.051983 0.051691
Si Si5 0.362906 0.304630 0.464408
Si Si6 0.092604 0.516331 0.563091
Si Si7 0.920562 0.171174 0.682233
Si Si8 0.004388 0.686494 0.945776
O O1 0.084502 0.403773 0.315228
O O2 0.256964 0.295039 0.308736
O O3 0.007510 0.276442 0.375178
O O4 0.000000 0.286036 0.250000
O O5 0.250954 0.972885 0.816168
O O6 0.000000 0.962705 0.750000
O O7 0.000336 0.952076 0.879870
O O8 0.064792 0.079216 0.819572
O O9 0.000000 0.479938 0.750000
O O10 0.008347 0.480897 0.623555
O O11 0.244694 0.017198 0.060234
O O12 0.087361 0.132186 0.015754
O O13 0.000000 0.000000 0.000000
O O14 0.442176 0.309728 0.394245
O O15 0.416352 0.227756 0.498181
O O16 0.183557 0.317497 0.458516
O O17 0.000000 0.500000 0.500000
O O18 0.079056 0.607127 0.566632
O O19 0.000000 0.193217 0.750000
#
# Coordination Sequence:
#
# PCOD9454422 Si02
#       8
#     8   8   8   8   8   8   8   8
#     4   8  16  32  54  81 110 146 194 239 290 349
#     4  10  19  33  56  90 121 154 201 254 303 356
#     4   9  17  33  55  83 118 152 199 254 298 353
#     4  12  23  37  60  89 123 157 201 255 303 358
#     4  11  23  41  57  91 122 157 199 248 303 365
#     4  11  21  38  61  86 118 160 200 250 305 358
#     4   9  18  33  56  82 115 147 195 249 288 348
#     4  10  23  39  60  87 122 157 199 248 303 363
#
# _framework density 19.281445000000001
#
# number of rings (size 3 to 8) (size 9 to 14) (size 15 to 20)
#    0.000    2.000    2.500    2.250    1.750    4.000 
#    0.000    0.625    0.000    0.750    0.000    0.000 
#    0.000    0.000    0.000    0.000    0.000    0.000 
#
# Total GULP energy -356300.460587 kJ/mol
# GULP energy per Si atom -5567.194697 kJ/mol
# Density = 1.923756 g / cm^3
# Si number density = 19.281445 Si / 1000 Ang^3
#
#
#
# Elastic Constant Matrix: (Units=GPa)
#
#
# Indices 1 2 3 4 5 6 
#
# 1 102.5659 8.1258 83.1749 0.0000 0.0000 0.0000
# 2 8.1258 17.0880 22.3021 0.0000 0.0000 0.0000
# 3 83.1749 22.3021 212.7789 0.0000 0.0000 0.0000
# 4 0.0000 0.0000 0.0000 23.9599 0.0000 0.0000
# 5 0.0000 0.0000 0.0000 0.0000 42.5952 0.0000
# 6 0.0000 0.0000 0.0000 0.0000 0.0000 13.2726
#
#
#
# Elastic Compliance Matrix: (Units=1/GPa)
#
#
# Indices 1 2 3 4 5 6 
#
# 1 0.014280 0.000573 -0.005642 0.000000 0.000000 0.000000
# 2 0.000573 0.067818 -0.007332 0.000000 0.000000 0.000000
# 3 -0.005642 -0.007332 0.007674 0.000000 0.000000 0.000000
# 4 0.000000 0.000000 0.000000 0.041736 0.000000 0.000000
# 5 0.000000 0.000000 0.000000 0.000000 0.023477 0.000000
# 6 0.000000 0.000000 0.000000 0.000000 0.000000 0.075343
#
#
# Mechanical properties :
#
#
# Convention : Reuss Voigt Hill
#
# Bulk Modulus (GPa) = 15.39200 62.18205 38.78702
# Shear Modulus (GPa) = 18.06451 30.55421 24.30936
#
# Velocity S-wave (km/s) = 3.06418 3.98508 3.55458
# Velocity P-wave (km/s) = 4.52980 7.31397 6.08331
#
# Compressibility (1/GPa) = 0.06496880
#
# Stress axis : x y z
#
# Youngs Moduli (GPa) = 70.02918 14.74545 130.31550
#
# Poissons Ratio (x) = -0.00845 0.73524
# Poissons Ratio (y) = -0.04014 0.95550
# Poissons Ratio (z) = 0.39511 0.10812
#
# Static dielectric constant tensor:
#      x y z
#    x 1.655620 0.000000 0.000000 
#    y 0.000000 1.405480 0.000000 
#    z 0.000000 0.000000 1.667510 
# 
# From -- ./inp_files/22341.got.cif
#   From: 2010.05.17/outbox.cif.g08.bks.cpg/sg60_12_cif.got.tgz:22341.got - 2010.06.03 14:59:27.
