data_PCOD9454295
_publ_section_title
;
Structure prediction by ZEFSAII (Michael W. Deem and Ramdas Pophale) SiO2 
 PCOD9454295
Probable space group: P B C N
;
_chemical_formula_sum "Si O2"
_cell_formula_units_Z 52
_cell_length_a 18.519038
_cell_length_b 5.488088
_cell_length_c 18.691483
_cell_angle_alpha 90.000000
_cell_angle_beta 90.000000
_cell_angle_gamma 90.000000
_cell_volume 1899.692243
_symmetry_space_group_name_H-M "P B C N"
_symmetry_group_IT_number 60
_symmetry_cell_setting 'orthorhombic'
loop_
_space_group_symop_operation_xyz
x,y,z
1/2-x,1/2-y,1/2+z
1/2+x,1/2-y,-z
-x,y,1/2-z
-x,-y,-z
1/2+x,1/2+y,1/2-z
1/2-x,1/2+y,z
x,-y,1/2+z
loop_
_atom_site_type_symbol
_atom_site_label
_atom_site_fract_x
_atom_site_fract_y
_atom_site_fract_z
Si Si1 0.973649 0.670481 0.117946
Si Si2 0.856088 0.697086 0.418119
Si Si3 0.704811 0.689447 0.069088
Si Si4 0.703864 0.211621 0.725096
Si Si5 0.144854 0.191610 0.127651
Si Si6 0.987228 0.818846 0.599195
Si Si7 0.000000 0.421770 0.250000
O O1 0.061717 0.668756 0.111955
O O2 0.955035 0.433580 0.071983
O O3 0.954691 0.621581 0.200977
O O4 0.949095 0.926647 0.088519
O O5 0.841557 0.776561 0.498439
O O6 0.822036 0.430147 0.408793
O O7 0.824518 0.919418 0.371941
O O8 0.737055 0.414786 0.067897
O O9 0.669752 0.742085 0.146920
O O10 0.759264 0.443536 0.729918
O O11 0.646083 0.231760 0.788796
O O12 0.071721 0.157354 0.080298
O O13 0.000345 0.766738 0.683513
#
# Coordination Sequence:
#
# PCOD9454295 Si02
#       7
#     8   8   8   8   8   8   4
#     4   8  15  24  39  62  90 115 142 179 225 268
#     4  10  19  31  47  71  97 118 154 198 235 266
#     4  10  21  35  49  66  92 128 163 190 227 279
#     4  10  21  35  49  66  92 128 163 190 227 279
#     4  10  19  31  47  71  97 118 154 198 235 266
#     4   8  15  24  39  62  90 115 142 179 225 268
#     4   8  14  24  42  60  92 120 138 176 232 272
#
# _framework density 27.372855000000001
#
# number of rings (size 3 to 8) (size 9 to 14) (size 15 to 20)
#    0.923    1.846    0.000    2.308    0.000    3.692 
#    0.000    0.000    0.000    0.000    0.000    1.077 
#    0.000    5.538    0.000    0.000    0.000    0.000 
#
# Total GULP energy -289516.737390 kJ/mol
# GULP energy per Si atom -5567.629565 kJ/mol
# Density = 2.731055 g / cm^3
# Si number density = 27.372855 Si / 1000 Ang^3
#
#
#
# Elastic Constant Matrix: (Units=GPa)
#
#
# Indices 1 2 3 4 5 6 
#
# 1 60.1015 19.3589 9.9316 0.0000 0.0000 0.0000
# 2 19.3589 231.9150 -11.2953 0.0000 0.0000 0.0000
# 3 9.9316 -11.2953 138.8771 0.0000 0.0000 0.0000
# 4 0.0000 0.0000 0.0000 36.7168 0.0000 0.0000
# 5 0.0000 0.0000 0.0000 0.0000 23.5254 0.0000
# 6 0.0000 0.0000 0.0000 0.0000 0.0000 -8.5869
#
#
#
# Elastic Compliance Matrix: (Units=1/GPa)
#
#
# Indices 1 2 3 4 5 6 
#
# 1 0.017352 -0.001515 -0.001364 0.000000 0.000000 0.000000
# 2 -0.001515 0.004461 0.000471 0.000000 0.000000 0.000000
# 3 -0.001364 0.000471 0.007336 0.000000 0.000000 0.000000
# 4 0.000000 0.000000 0.000000 0.027236 0.000000 0.000000
# 5 0.000000 0.000000 0.000000 0.000000 0.042507 0.000000
# 6 0.000000 0.000000 0.000000 0.000000 0.000000 -0.116456
#
#
# Mechanical properties :
#
#
# Convention : Reuss Voigt Hill
#
# Bulk Modulus (GPa) = 41.09455 51.87601 46.48528
# Shear Modulus (GPa) = -1078.41796 37.85760 -520.28018
#
# Velocity S-wave (km/s) = -19.87030 3.72295 -13.80160
# Velocity P-wave (km/s) = 22.61400 6.12154 15.39350
#
# Compressibility (1/GPa) = 0.02433413
#
# Stress axis : x y z
#
# Youngs Moduli (GPa) = 57.63061 224.14865 136.30509
#
# Poissons Ratio (x) = 0.33956 0.18593
# Poissons Ratio (y) = 0.08730 -0.06422
# Poissons Ratio (z) = 0.07861 -0.10562
#
# Static dielectric constant tensor:
#      x y z
#    x 2.329360 0.000000 0.000000 
#    y 0.000000 2.227130 0.000000 
#    z 0.000000 0.000000 2.088790 
# 
# From -- ./inp_files/21263.got.cif
#   From: 2010.05.17/outbox.cif.g08.bks.cpg/sg60_11_cif.got.tgz:21263.got - 2010.06.03 14:59:27.
