data_PCOD9454376
_publ_section_title
;
Structure prediction by ZEFSAII (Michael W. Deem and Ramdas Pophale) SiO2 
 PCOD9454376
Probable space group: P B C N
;
_chemical_formula_sum "Si O2"
_cell_formula_units_Z 48
_cell_length_a 8.849566
_cell_length_b 20.744414
_cell_length_c 13.839947
_cell_angle_alpha 90.000000
_cell_angle_beta 90.000000
_cell_angle_gamma 90.000000
_cell_volume 2540.724472
_symmetry_space_group_name_H-M "P B C N"
_symmetry_group_IT_number 60
_symmetry_cell_setting 'orthorhombic'
loop_
_space_group_symop_operation_xyz
x,y,z
1/2-x,1/2-y,1/2+z
1/2+x,1/2-y,-z
-x,y,1/2-z
-x,-y,-z
1/2+x,1/2+y,1/2-z
1/2-x,1/2+y,z
x,-y,1/2+z
loop_
_atom_site_type_symbol
_atom_site_label
_atom_site_fract_x
_atom_site_fract_y
_atom_site_fract_z
Si Si1 0.180332 0.601372 0.261695
Si Si2 0.164076 0.929427 0.559007
Si Si3 0.849631 0.738386 0.294306
Si Si4 0.168034 0.693183 0.996377
Si Si5 0.157114 0.310101 0.066314
Si Si6 0.692714 0.568270 0.035397
O O1 0.272340 0.577157 0.168016
O O2 0.210481 0.678799 0.268594
O O3 0.232028 0.567642 0.359398
O O4 0.000000 0.593169 0.250000
O O5 0.244052 0.873640 0.496580
O O6 0.984829 0.917266 0.551957
O O7 0.200651 0.999573 0.517241
O O8 0.896271 0.702028 0.394210
O O9 0.729258 0.789721 0.331123
O O10 0.000000 0.767799 0.250000
O O11 0.281699 0.753615 0.993687
O O12 0.022830 0.692951 0.929574
O O13 0.224003 0.376774 0.027264
#
# Coordination Sequence:
#
# PCOD9454376 Si02
#       6
#     8   8   8   8   8   8
#     4  10  20  37  61  87 121 159 200 246 298 368
#     4  10  22  40  58  89 124 158 206 248 296 365
#     4   8  17  32  54  82 117 151 188 243 298 353
#     4   9  19  34  58  84 119 150 196 246 299 359
#     4  10  19  32  59  87 112 154 195 243 301 354
#     4  11  22  37  64  89 117 166 201 246 305 360
#
# _framework density 18.892250000000001
#
# number of rings (size 3 to 8) (size 9 to 14) (size 15 to 20)
#    1.000    1.333    0.000    4.500    0.000    2.667 
#    0.000    3.333    0.000    0.000    0.000    0.000 
#    0.000    0.000    0.000    0.000    0.000    0.000 
#
# Total GULP energy -267431.153991 kJ/mol
# GULP energy per Si atom -5571.482375 kJ/mol
# Density = 1.884925 g / cm^3
# Si number density = 18.892250 Si / 1000 Ang^3
#
#
#
# Elastic Constant Matrix: (Units=GPa)
#
#
# Indices 1 2 3 4 5 6 
#
# 1 104.9421 56.3276 18.5112 0.0000 0.0000 0.0000
# 2 56.3276 87.5966 12.6306 0.0000 0.0000 0.0000
# 3 18.5112 12.6306 36.8748 0.0000 0.0000 0.0000
# 4 0.0000 0.0000 0.0000 12.3164 0.0000 0.0000
# 5 0.0000 0.0000 0.0000 0.0000 35.9115 0.0000
# 6 0.0000 0.0000 0.0000 0.0000 0.0000 32.0903
#
#
#
# Elastic Compliance Matrix: (Units=1/GPa)
#
#
# Indices 1 2 3 4 5 6 
#
# 1 0.015234 -0.009145 -0.004515 0.000000 0.000000 0.000000
# 2 -0.009145 0.017499 -0.001403 0.000000 0.000000 0.000000
# 3 -0.004515 -0.001403 0.029866 0.000000 0.000000 0.000000
# 4 0.000000 0.000000 0.000000 0.081192 0.000000 0.000000
# 5 0.000000 0.000000 0.000000 0.000000 0.027846 0.000000
# 6 0.000000 0.000000 0.000000 0.000000 0.000000 0.031162
#
#
# Mechanical properties :
#
#
# Convention : Reuss Voigt Hill
#
# Bulk Modulus (GPa) = 30.79522 44.92804 37.86163
# Shear Modulus (GPa) = 20.51283 25.52657 23.01970
#
# Velocity S-wave (km/s) = 3.29869 3.67981 3.49445
# Velocity P-wave (km/s) = 5.55377 6.47205 6.03042
#
# Compressibility (1/GPa) = 0.03247257
#
# Stress axis : x y z
#
# Youngs Moduli (GPa) = 65.64234 57.14676 33.48295
#
# Poissons Ratio (x) = 0.52261 0.15118
# Poissons Ratio (y) = 0.60030 0.04698
# Poissons Ratio (z) = 0.29638 0.08018
#
# Static dielectric constant tensor:
#      x y z
#    x 1.657550 0.000000 0.000000 
#    y 0.000000 1.644660 0.000000 
#    z 0.000000 0.000000 1.688350 
# 
# From -- ./inp_files/15138.got.cif
#   From: 2010.05.17/outbox.cif.g08.bks.cpg/sg60_8_cif.got.tgz:15138.got - 2010.06.03 14:59:27.
