data_PCOD9454084
_publ_section_title
;
Structure prediction by ZEFSAII (Michael W. Deem and Ramdas Pophale) SiO2 
 PCOD9454084
Probable space group: P B C N
;
_chemical_formula_sum "Si O2"
_cell_formula_units_Z 40
_cell_length_a 21.777070
_cell_length_b 15.102004
_cell_length_c 4.874286
_cell_angle_alpha 90.000000
_cell_angle_beta 90.000000
_cell_angle_gamma 90.000000
_cell_volume 1603.042498
_symmetry_space_group_name_H-M "P B C N"
_symmetry_group_IT_number 60
_symmetry_cell_setting 'orthorhombic'
loop_
_space_group_symop_operation_xyz
x,y,z
1/2-x,1/2-y,1/2+z
1/2+x,1/2-y,-z
-x,y,1/2-z
-x,-y,-z
1/2+x,1/2+y,1/2-z
1/2-x,1/2+y,z
x,-y,1/2+z
loop_
_atom_site_type_symbol
_atom_site_label
_atom_site_fract_x
_atom_site_fract_y
_atom_site_fract_z
Si Si1 0.597544 0.445064 0.135318
Si Si2 0.106114 0.244555 0.667538
Si Si3 0.255108 0.446339 0.409241
Si Si4 0.843187 0.329840 0.358148
Si Si5 0.038418 0.603189 0.480830
O O1 0.578697 0.525226 0.334477
O O2 0.580253 0.351169 0.260438
O O3 0.672023 0.437503 0.126767
O O4 0.123842 0.262926 0.356178
O O5 0.058757 0.316733 0.779960
O O6 0.163268 0.273932 0.863550
O O7 0.239463 0.467529 0.722362
O O8 0.216868 0.367288 0.281767
O O9 0.891830 0.412234 0.405140
O O10 0.000000 0.545864 0.250000
O O11 0.000000 0.628629 0.750000
#
# Coordination Sequence:
#
# PCOD9454084 Si02
#       5
#     8   8   8   8   8
#     4  10  21  36  54  78 114 150 173 209 270 325
#     4  10  20  33  56  84 102 141 181 226 258 311
#     4  10  21  36  54  78 114 150 173 209 270 325
#     4  10  20  33  56  84 102 141 181 226 258 311
#     4  10  18  34  56  80 102 136 178 228 278 308
#
# _framework density 24.952552000000001
#
# number of rings (size 3 to 8) (size 9 to 14) (size 15 to 20)
#    1.200    0.800    2.000    2.400    0.000    1.600 
#    0.000    0.000    0.000    7.200    0.000    0.000 
#    0.000    0.000    0.000    0.000    0.000    0.000 
#
# Total GULP energy -222977.451964 kJ/mol
# GULP energy per Si atom -5574.436299 kJ/mol
# Density = 2.489576 g / cm^3
# Si number density = 24.952552 Si / 1000 Ang^3
#
#
#
# Elastic Constant Matrix: (Units=GPa)
#
#
# Indices 1 2 3 4 5 6 
#
# 1 46.6530 -12.0439 7.0107 0.0000 0.0000 0.0000
# 2 -12.0439 51.2263 -10.4634 0.0000 0.0000 0.0000
# 3 7.0107 -10.4634 127.3338 0.0000 0.0000 0.0000
# 4 0.0000 0.0000 0.0000 31.5923 0.0000 0.0000
# 5 0.0000 0.0000 0.0000 0.0000 19.4739 0.0000
# 6 0.0000 0.0000 0.0000 0.0000 0.0000 185.1430
#
#
#
# Elastic Compliance Matrix: (Units=1/GPa)
#
#
# Indices 1 2 3 4 5 6 
#
# 1 0.022906 0.005215 -0.000833 0.000000 0.000000 0.000000
# 2 0.005215 0.021042 0.001442 0.000000 0.000000 0.000000
# 3 -0.000833 0.001442 0.008018 0.000000 0.000000 0.000000
# 4 0.000000 0.000000 0.000000 0.031653 0.000000 0.000000
# 5 0.000000 0.000000 0.000000 0.000000 0.051351 0.000000
# 6 0.000000 0.000000 0.000000 0.000000 0.000000 0.005401
#
#
# Mechanical properties :
#
#
# Convention : Reuss Voigt Hill
#
# Bulk Modulus (GPa) = 15.71940 21.58000 18.64970
# Shear Modulus (GPa) = 33.34953 63.28913 48.31933
#
# Velocity S-wave (km/s) = 3.65981 5.04171 4.40528
# Velocity P-wave (km/s) = 4.91653 6.52373 5.77630
#
# Compressibility (1/GPa) = 0.06361567
#
# Stress axis : x y z
#
# Youngs Moduli (GPa) = 43.65591 47.52408 124.72396
#
# Poissons Ratio (x) = -0.24786 0.10385
# Poissons Ratio (y) = -0.22769 -0.17984
# Poissons Ratio (z) = 0.03635 -0.06853
#
# Static dielectric constant tensor:
#      x y z
#    x 2.126830 0.000000 0.000000 
#    y 0.000000 2.057420 0.000000 
#    z 0.000000 0.000000 1.981810 
# 
# From -- ./inp_files/2296.got.cif
#   From: 2010.05.17/outbox.cif.g08.bks.cpg/sg60_2_cif.got.tgz:2296.got - 2010.06.03 14:59:27.
