data_PCOD9454308
_publ_section_title
;
Structure prediction by ZEFSAII (Michael W. Deem and Ramdas Pophale) SiO2 
 PCOD9454308
Probable space group: P B C N
;
_chemical_formula_sum "Si O2"
_cell_formula_units_Z 48
_cell_length_a 20.882077
_cell_length_b 19.550001
_cell_length_c 5.432930
_cell_angle_alpha 90.000000
_cell_angle_beta 90.000000
_cell_angle_gamma 90.000000
_cell_volume 2217.964477
_symmetry_space_group_name_H-M "P B C N"
_symmetry_group_IT_number 60
_symmetry_cell_setting 'orthorhombic'
loop_
_space_group_symop_operation_xyz
x,y,z
1/2-x,1/2-y,1/2+z
1/2+x,1/2-y,-z
-x,y,1/2-z
-x,-y,-z
1/2+x,1/2+y,1/2-z
1/2-x,1/2+y,z
x,-y,1/2+z
loop_
_atom_site_type_symbol
_atom_site_label
_atom_site_fract_x
_atom_site_fract_y
_atom_site_fract_z
Si Si1 0.711168 0.964253 0.844381
Si Si2 0.679786 0.407133 0.573492
Si Si3 0.270949 0.844827 0.326877
Si Si4 0.535325 0.405297 0.497623
Si Si5 0.839076 0.773470 0.902575
Si Si6 0.516300 0.746646 0.503289
O O1 0.787716 0.956570 0.777141
O O2 0.687625 0.992107 0.580844
O O3 0.701201 0.886822 0.942029
O O4 0.731540 0.395171 0.355458
O O5 0.608958 0.427428 0.493326
O O6 0.669763 0.332878 0.700370
O O7 0.325895 0.801734 0.198661
O O8 0.216623 0.790706 0.404887
O O9 0.500000 0.427498 0.250000
O O10 0.527744 0.322031 0.497053
O O11 0.500000 0.425532 0.750000
O O12 0.910300 0.777324 0.005915
O O13 0.500000 0.786160 0.750000
O O14 0.500000 0.783384 0.250000
#
# Coordination Sequence:
#
# PCOD9454308 Si02
#       6
#     8   8   8   8   8   8
#     4  11  24  43  60  80 112 161 213 248 296 348
#     4  11  21  37  59  84 117 155 194 247 298 364
#     4  11  22  35  60  90 121 155 183 257 303 367
#     4  10  19  31  51  78 104 153 190 224 281 353
#     4  11  21  33  55  93 126 148 194 233 316 369
#     4  10  19  33  50  75 116 164 184 222 272 374
#
# _framework density 21.641465
#
# number of rings (size 3 to 8) (size 9 to 14) (size 15 to 20)
#    0.000    1.333    6.667    2.000    2.333    0.000 
#    0.000    0.000    0.000    3.000    0.000    0.000 
#    0.000    4.000    0.000    0.000    0.000    0.000 
#
# Total GULP energy -267762.869459 kJ/mol
# GULP energy per Si atom -5578.393114 kJ/mol
# Density = 2.159221 g / cm^3
# Si number density = 21.641465 Si / 1000 Ang^3
#
#
#
# Elastic Constant Matrix: (Units=GPa)
#
#
# Indices 1 2 3 4 5 6 
#
# 1 27.1275 6.9671 7.1051 0.0000 0.0000 0.0000
# 2 6.9671 57.4461 21.6130 0.0000 0.0000 0.0000
# 3 7.1051 21.6130 155.1197 0.0000 0.0000 0.0000
# 4 0.0000 0.0000 0.0000 15.1169 0.0000 0.0000
# 5 0.0000 0.0000 0.0000 0.0000 24.0548 0.0000
# 6 0.0000 0.0000 0.0000 0.0000 0.0000 14.6922
#
#
#
# Elastic Compliance Matrix: (Units=1/GPa)
#
#
# Indices 1 2 3 4 5 6 
#
# 1 0.038247 -0.004200 -0.001167 0.000000 0.000000 0.000000
# 2 -0.004200 0.018832 -0.002431 0.000000 0.000000 0.000000
# 3 -0.001167 -0.002431 0.006839 0.000000 0.000000 0.000000
# 4 0.000000 0.000000 0.000000 0.066151 0.000000 0.000000
# 5 0.000000 0.000000 0.000000 0.000000 0.041572 0.000000
# 6 0.000000 0.000000 0.000000 0.000000 0.000000 0.068063
#
#
# Mechanical properties :
#
#
# Convention : Reuss Voigt Hill
#
# Bulk Modulus (GPa) = 20.69453 34.56265 27.62859
# Shear Modulus (GPa) = 18.42252 24.37332 21.39792
#
# Velocity S-wave (km/s) = 2.92080 3.35958 3.14784
# Velocity P-wave (km/s) = 4.57799 5.57264 5.09962
#
# Compressibility (1/GPa) = 0.04832195
#
# Stress axis : x y z
#
# Youngs Moduli (GPa) = 26.14574 53.10176 146.22319
#
# Poissons Ratio (x) = 0.22301 0.17060
# Poissons Ratio (y) = 0.10980 0.35554
# Poissons Ratio (z) = 0.03050 0.12912
#
# Static dielectric constant tensor:
#      x y z
#    x 1.748120 0.000000 0.000000 
#    y 0.000000 1.833350 0.000000 
#    z 0.000000 0.000000 1.948940 
# 
# From -- ./inp_files/1759.got.cif
#   From: 2010.05.17/outbox.cif.g08.bks.cpg/sg60_1_cif.got.tgz:1759.got - 2010.06.03 14:59:27.
