data_PCOD9454760
_publ_section_title
;
Structure prediction by ZEFSAII (Michael W. Deem and Ramdas Pophale) SiO2 
 PCOD9454760
Probable space group: P B C N
;
_chemical_formula_sum "Si O2"
_cell_formula_units_Z 44
_cell_length_a 7.493922
_cell_length_b 14.121285
_cell_length_c 15.680785
_cell_angle_alpha 90.000000
_cell_angle_beta 90.000000
_cell_angle_gamma 90.000000
_cell_volume 1659.400386
_symmetry_space_group_name_H-M "P B C N"
_symmetry_group_IT_number 60
_symmetry_cell_setting 'orthorhombic'
loop_
_space_group_symop_operation_xyz
x,y,z
1/2-x,1/2-y,1/2+z
1/2+x,1/2-y,-z
-x,y,1/2-z
-x,-y,-z
1/2+x,1/2+y,1/2-z
1/2-x,1/2+y,z
x,-y,1/2+z
loop_
_atom_site_type_symbol
_atom_site_label
_atom_site_fract_x
_atom_site_fract_y
_atom_site_fract_z
Si Si1 0.217898 0.448619 0.462738
Si Si2 0.500000 0.156360 0.750000
Si Si3 0.831975 0.242843 0.089998
Si Si4 0.588711 0.021809 0.338686
Si Si5 0.937768 0.720939 0.344901
Si Si6 0.108702 0.895671 0.051853
O O1 0.155872 0.339947 0.465288
O O2 0.079372 0.501166 0.401760
O O3 0.248406 0.518377 0.545269
O O4 0.417725 0.439569 0.424519
O O5 0.587303 0.223031 0.679298
O O6 0.365005 0.080562 0.704349
O O7 0.626170 0.215784 0.104443
O O8 0.913851 0.153991 0.040587
O O9 0.500000 0.062827 0.250000
O O10 0.676299 0.125171 0.356652
O O11 0.840517 0.807945 0.390450
O O12 0.000000 0.750001 0.250000
#
# Coordination Sequence:
#
# PCOD9454760 Si02
#       6
#     8   4   8   8   8   8
#     4   9  18  36  62  88 128 162 207 268 313 389
#     4   8  18  34  60  92 118 162 208 262 314 374
#     4  10  19  38  62  87 126 162 208 262 315 384
#     4   8  15  33  63  86 119 166 205 260 314 369
#     4  10  20  37  61  86 122 166 211 256 312 379
#     4  10  20  35  63  90 125 170 209 261 328 375
#
# _framework density 26.515602000000001
#
# number of rings (size 3 to 8) (size 9 to 14) (size 15 to 20)
#    0.545    2.182    1.818    0.000    0.000    0.000 
#    6.545    5.455   18.000    0.000    0.000    0.000 
#    0.000    0.000    0.000    0.000    0.000    0.000 
#
# Total GULP energy -245345.314624 kJ/mol
# GULP energy per Si atom -5576.029878 kJ/mol
# Density = 2.645525 g / cm^3
# Si number density = 26.515602 Si / 1000 Ang^3
#
#
#
# Elastic Constant Matrix: (Units=GPa)
#
#
# Indices 1 2 3 4 5 6 
#
# 1 69.1196 36.2976 24.1393 0.0000 0.0000 0.0000
# 2 36.2976 208.6558 56.6770 0.0000 0.0000 0.0000
# 3 24.1393 56.6770 80.8964 0.0000 0.0000 0.0000
# 4 0.0000 0.0000 0.0000 37.6381 0.0000 0.0000
# 5 0.0000 0.0000 0.0000 0.0000 16.7110 0.0000
# 6 0.0000 0.0000 0.0000 0.0000 0.0000 38.6531
#
#
#
# Elastic Compliance Matrix: (Units=1/GPa)
#
#
# Indices 1 2 3 4 5 6 
#
# 1 0.016753 -0.001922 -0.003652 0.000000 0.000000 0.000000
# 2 -0.001922 0.006140 -0.003728 0.000000 0.000000 0.000000
# 3 -0.003652 -0.003728 0.016063 0.000000 0.000000 0.000000
# 4 0.000000 0.000000 0.000000 0.026569 0.000000 0.000000
# 5 0.000000 0.000000 0.000000 0.000000 0.059841 0.000000
# 6 0.000000 0.000000 0.000000 0.000000 0.000000 0.025871
#
#
# Mechanical properties :
#
#
# Convention : Reuss Voigt Hill
#
# Bulk Modulus (GPa) = 49.13841 65.87771 57.50806
# Shear Modulus (GPa) = 28.30868 34.70429 31.50649
#
# Velocity S-wave (km/s) = 3.27100 3.62169 3.45080
# Velocity P-wave (km/s) = 5.73045 6.51058 6.13293
#
# Compressibility (1/GPa) = 0.02035068
#
# Stress axis : x y z
#
# Youngs Moduli (GPa) = 59.69216 162.87786 62.25448
#
# Poissons Ratio (x) = 0.31309 0.22737
# Poissons Ratio (y) = 0.11474 0.23208
# Poissons Ratio (z) = 0.21801 0.60719
#
# Static dielectric constant tensor:
#      x y z
#    x 1.802040 0.000000 0.000000 
#    y 0.000000 2.073510 0.000000 
#    z 0.000000 0.000000 2.039860 
# 
# From -- ./inp_files/19201.got.cif
#   From: 2010.05.17/outbox.cif.g08.bks.cpg/sg60_10_cif.got.tgz:19201.got - 2010.06.03 14:59:27.
