data_PCOD9454143
_publ_section_title
;
Structure prediction by ZEFSAII (Michael W. Deem and Ramdas Pophale) SiO2 
 PCOD9454143
Probable space group: P B C N
;
_chemical_formula_sum "Si O2"
_cell_formula_units_Z 64
_cell_length_a 12.214872
_cell_length_b 14.822627
_cell_length_c 15.629217
_cell_angle_alpha 90.000000
_cell_angle_beta 90.000000
_cell_angle_gamma 90.000000
_cell_volume 2829.771195
_symmetry_space_group_name_H-M "P B C N"
_symmetry_group_IT_number 60
_symmetry_cell_setting 'orthorhombic'
loop_
_space_group_symop_operation_xyz
x,y,z
1/2-x,1/2-y,1/2+z
1/2+x,1/2-y,-z
-x,y,1/2-z
-x,-y,-z
1/2+x,1/2+y,1/2-z
1/2-x,1/2+y,z
x,-y,1/2+z
loop_
_atom_site_type_symbol
_atom_site_label
_atom_site_fract_x
_atom_site_fract_y
_atom_site_fract_z
Si Si1 0.262562 0.994281 0.584847
Si Si2 0.990626 0.779886 0.152085
Si Si3 0.494335 0.936588 0.651537
Si Si4 0.878920 0.741815 0.726114
Si Si5 0.121921 0.954716 0.747855
Si Si6 0.264818 0.743596 0.928190
Si Si7 0.227670 0.463677 0.902763
Si Si8 0.234055 0.800715 0.110219
O O1 0.229062 0.985617 0.486346
O O2 0.282864 0.101138 0.594661
O O3 0.377971 0.951464 0.608901
O O4 0.173958 0.964269 0.654377
O O5 0.876649 0.799894 0.106487
O O6 0.000000 0.808789 0.250000
O O7 0.991595 0.671056 0.152729
O O8 0.103055 0.811347 0.109847
O O9 0.500000 0.967621 0.750000
O O10 0.598058 0.979896 0.605012
O O11 0.889581 0.850090 0.726237
O O12 0.833242 0.710955 0.633791
O O13 0.786067 0.727146 0.799082
O O14 0.000000 0.705286 0.750000
O O15 0.207318 0.992036 0.817749
O O16 0.000000 0.993747 0.750000
O O17 0.263585 0.853826 0.913661
O O18 0.258713 0.734840 0.030619
#
# Coordination Sequence:
#
# PCOD9454143 Si02
#       8
#     8   8   8   8   8   8   8   8
#     4  11  22  36  57  87 123 144 180 244 299 335
#     4  10  19  37  64  83 108 156 205 231 266 346
#     4  10  18  35  66  86 107 151 198 235 278 341
#     4  10  21  40  61  81 113 155 197 233 277 346
#     4  10  21  40  62  79 110 161 201 224 268 351
#     4   9  20  37  58  86 114 150 193 234 284 339
#     4   9  19  37  59  86 114 147 188 238 286 331
#     4  11  23  36  57  88 121 148 180 244 301 331
#
# _framework density 22.616669000000002
#
# number of rings (size 3 to 8) (size 9 to 14) (size 15 to 20)
#    0.000    2.000    2.500    1.125    1.750    1.500 
#    0.000    2.500    0.000    0.000    0.000    0.000 
#    0.000    0.000    0.000    0.000    0.000    0.000 
#
# Total GULP energy -357492.008964 kJ/mol
# GULP energy per Si atom -5585.812640 kJ/mol
# Density = 2.256519 g / cm^3
# Si number density = 22.616669 Si / 1000 Ang^3
#
#
#
# Elastic Constant Matrix: (Units=GPa)
#
#
# Indices 1 2 3 4 5 6 
#
# 1 114.8764 -2.3040 20.3605 0.0000 0.0000 0.0000
# 2 -2.3040 38.0306 -7.9355 0.0000 0.0000 0.0000
# 3 20.3605 -7.9355 90.1085 0.0000 0.0000 0.0000
# 4 0.0000 0.0000 0.0000 -0.7490 0.0000 0.0000
# 5 0.0000 0.0000 0.0000 0.0000 16.1065 0.0000
# 6 0.0000 0.0000 0.0000 0.0000 0.0000 15.4982
#
#
#
# Elastic Compliance Matrix: (Units=1/GPa)
#
#
# Indices 1 2 3 4 5 6 
#
# 1 0.009069 0.000124 -0.002038 0.000000 0.000000 0.000000
# 2 0.000124 0.026789 0.002331 0.000000 0.000000 0.000000
# 3 -0.002038 0.002331 0.011764 0.000000 0.000000 0.000000
# 4 0.000000 0.000000 0.000000 -1.335140 0.000000 0.000000
# 5 0.000000 0.000000 0.000000 0.000000 0.062087 0.000000
# 6 0.000000 0.000000 0.000000 0.000000 0.000000 0.064524
#
#
# Mechanical properties :
#
#
# Convention : Reuss Voigt Hill
#
# Bulk Modulus (GPa) = 20.63773 29.25083 24.94428
# Shear Modulus (GPa) = -4.36456 21.69744 8.66644
#
# Velocity S-wave (km/s) = -1.39068 3.10071 1.95964
# Velocity P-wave (km/s) = 2.56245 5.07746 4.02161
#
# Compressibility (1/GPa) = 0.04845494
#
# Stress axis : x y z
#
# Youngs Moduli (GPa) = 110.26884 37.32934 85.00823
#
# Poissons Ratio (x) = -0.00463 0.17326
# Poissons Ratio (y) = -0.01369 -0.19816
# Poissons Ratio (z) = 0.22475 -0.08702
#
# Static dielectric constant tensor:
#      x y z
#    x 1.841700 0.000000 0.000000 
#    y 0.000000 1.871920 0.000000 
#    z 0.000000 0.000000 1.839320 
# 
# From -- ./inp_files/16383.got.cif
#   From: 2010.05.17/outbox.cif.g08.bks.cpg/sg60_9_cif.got.tgz:16383.got - 2010.06.03 14:59:27.
