data_PCOD9454401
_publ_section_title
;
Structure prediction by ZEFSAII (Michael W. Deem and Ramdas Pophale) SiO2 
 PCOD9454401
Probable space group: P B C N
;
_chemical_formula_sum "Si O2"
_cell_formula_units_Z 40
_cell_length_a 7.675955
_cell_length_b 31.563597
_cell_length_c 7.938631
_cell_angle_alpha 90.000000
_cell_angle_beta 90.000000
_cell_angle_gamma 90.000000
_cell_volume 1923.377474
_symmetry_space_group_name_H-M "P B C N"
_symmetry_group_IT_number 60
_symmetry_cell_setting 'orthorhombic'
loop_
_space_group_symop_operation_xyz
x,y,z
1/2-x,1/2-y,1/2+z
1/2+x,1/2-y,-z
-x,y,1/2-z
-x,-y,-z
1/2+x,1/2+y,1/2-z
1/2-x,1/2+y,z
x,-y,1/2+z
loop_
_atom_site_type_symbol
_atom_site_label
_atom_site_fract_x
_atom_site_fract_y
_atom_site_fract_z
Si Si1 0.712851 0.200849 0.057522
Si Si2 0.705965 0.204111 0.437592
Si Si3 0.285536 0.854778 0.256391
Si Si4 0.372980 0.473274 0.879588
Si Si5 0.799778 0.552783 0.800604
O O1 0.775931 0.195661 0.249601
O O2 0.502865 0.198478 0.065502
O O3 0.758063 0.247620 0.990636
O O4 0.772420 0.167160 0.917777
O O5 0.771246 0.173140 0.584525
O O6 0.500000 0.854911 0.250000
O O7 0.224492 0.903226 0.269838
O O8 0.500000 0.448926 0.750000
O O9 0.273102 0.509659 0.777449
O O10 0.500000 0.500000 0.000000
O O11 0.243088 0.447965 0.000250
O O12 0.000000 0.553058 0.750000
#
# Coordination Sequence:
#
# PCOD9454401 Si02
#       5
#     8   8   8   8   8
#     4  10  19  33  54  77 107 147 186 227 280 331
#     4  10  19  33  54  77 108 147 186 227 281 331
#     4   9  19  35  54  80 113 141 183 242 281 322
#     4   9  19  37  58  79 115 150 175 225 300 353
#     4  10  19  36  61  86 109 145 196 240 282 349
#
# _framework density 20.796751
#
# number of rings (size 3 to 8) (size 9 to 14) (size 15 to 20)
#    0.000    2.400    2.000    0.600    0.000    0.000 
#    7.200    6.000    0.000    0.000    0.000    0.000 
#    0.000    0.000    0.000    0.000    0.000    0.000 
#
# Total GULP energy -223070.750284 kJ/mol
# GULP energy per Si atom -5576.768757 kJ/mol
# Density = 2.074942 g / cm^3
# Si number density = 20.796751 Si / 1000 Ang^3
#
#
#
# Elastic Constant Matrix: (Units=GPa)
#
#
# Indices 1 2 3 4 5 6 
#
# 1 56.0355 3.2607 27.6613 0.0000 0.0000 0.0000
# 2 3.2607 68.4243 21.1262 0.0000 0.0000 0.0000
# 3 27.6613 21.1262 144.0892 0.0000 0.0000 0.0000
# 4 0.0000 0.0000 0.0000 24.3678 0.0000 0.0000
# 5 0.0000 0.0000 0.0000 0.0000 23.1119 0.0000
# 6 0.0000 0.0000 0.0000 0.0000 0.0000 -70.4785
#
#
#
# Elastic Compliance Matrix: (Units=1/GPa)
#
#
# Indices 1 2 3 4 5 6 
#
# 1 0.019718 0.000240 -0.003820 0.000000 0.000000 0.000000
# 2 0.000240 0.015311 -0.002291 0.000000 0.000000 0.000000
# 3 -0.003820 -0.002291 0.008009 0.000000 0.000000 0.000000
# 4 0.000000 0.000000 0.000000 0.041038 0.000000 0.000000
# 5 0.000000 0.000000 0.000000 0.000000 0.043268 0.000000
# 6 0.000000 0.000000 0.000000 0.000000 0.000000 -0.014189
#
#
# Mechanical properties :
#
#
# Convention : Reuss Voigt Hill
#
# Bulk Modulus (GPa) = 31.95397 41.40505 36.67951
# Shear Modulus (GPa) = 36.94697 9.83364 23.39031
#
# Velocity S-wave (km/s) = 4.21952 2.17686 3.35731
# Velocity P-wave (km/s) = 6.25598 5.12551 5.71875
#
# Compressibility (1/GPa) = 0.03129502
#
# Stress axis : x y z
#
# Youngs Moduli (GPa) = 50.71563 65.31436 124.85235
#
# Poissons Ratio (x) = -0.01567 0.47699
# Poissons Ratio (y) = -0.01217 0.28602
# Poissons Ratio (z) = 0.19376 0.14963
#
# Static dielectric constant tensor:
#      x y z
#    x 1.815130 0.000000 0.000000 
#    y 0.000000 1.564390 0.000000 
#    z 0.000000 0.000000 0.669500 
# 
# From -- ./inp_files/3999.got.cif
#   From: 2010.05.17/outbox.cif.g08.bks.cpg/sg60_2_cif.got.tgz:3999.got - 2010.06.03 14:59:27.
