data_PCOD9454540
_publ_section_title
;
Structure prediction by ZEFSAII (Michael W. Deem and Ramdas Pophale) SiO2 
 PCOD9454540
Probable space group: P B C N
;
_chemical_formula_sum "Si O2"
_cell_formula_units_Z 48
_cell_length_a 22.631638
_cell_length_b 13.521566
_cell_length_c 9.557723
_cell_angle_alpha 90.000000
_cell_angle_beta 90.000000
_cell_angle_gamma 90.000000
_cell_volume 2924.808390
_symmetry_space_group_name_H-M "P B C N"
_symmetry_group_IT_number 60
_symmetry_cell_setting 'orthorhombic'
loop_
_space_group_symop_operation_xyz
x,y,z
1/2-x,1/2-y,1/2+z
1/2+x,1/2-y,-z
-x,y,1/2-z
-x,-y,-z
1/2+x,1/2+y,1/2-z
1/2-x,1/2+y,z
x,-y,1/2+z
loop_
_atom_site_type_symbol
_atom_site_label
_atom_site_fract_x
_atom_site_fract_y
_atom_site_fract_z
Si Si1 0.546270 0.397182 0.625609
Si Si2 0.278627 0.107582 0.937280
Si Si3 0.841002 0.765729 0.057973
Si Si4 0.660179 0.720497 0.228918
Si Si5 0.039121 0.876409 0.388627
Si Si6 0.219966 0.404205 0.767304
O O1 0.500000 0.407066 0.750000
O O2 0.602679 0.336615 0.674724
O O3 0.560160 0.510284 0.580669
O O4 0.508101 0.346057 0.505602
O O5 0.213065 0.156078 0.927312
O O6 0.322654 0.187818 0.869462
O O7 0.280740 0.008586 0.845778
O O8 0.292591 0.088883 0.101064
O O9 0.902494 0.810850 0.110891
O O10 0.822767 0.671012 0.149573
O O11 0.846166 0.746538 0.891004
O O12 0.715029 0.644547 0.222120
O O13 0.000000 0.874691 0.250000
#
# Coordination Sequence:
#
# PCOD9454540 Si02
#       6
#     8   8   8   8   8   8
#     4  10  19  35  53  79 110 144 176 212 265 313
#     4  10  21  36  56  80 106 141 177 220 268 312
#     4  10  20  36  54  80 110 141 177 217 264 316
#     4  10  20  35  56  79 108 142 178 218 263 316
#     4  10  21  33  53  81 112 143 176 218 262 318
#     4  10  21  36  55  80 108 139 177 221 267 314
#
# _framework density 16.411332000000002
#
# number of rings (size 3 to 8) (size 9 to 14) (size 15 to 20)
#    0.000    2.000    1.667    2.000    2.333    1.333 
#    0.000    0.000    0.000    2.000    0.000    0.000 
#    0.000    0.000    0.000    0.000    0.000    0.000 
#
# Total GULP energy -267643.070039 kJ/mol
# GULP energy per Si atom -5575.897292 kJ/mol
# Density = 1.637398 g / cm^3
# Si number density = 16.411332 Si / 1000 Ang^3
#
#
#
# Elastic Constant Matrix: (Units=GPa)
#
#
# Indices 1 2 3 4 5 6 
#
# 1 100.1945 47.1926 54.5584 0.0000 0.0000 0.0000
# 2 47.1926 105.1726 65.5144 0.0000 0.0000 0.0000
# 3 54.5584 65.5144 115.3762 0.0000 0.0000 0.0000
# 4 0.0000 0.0000 0.0000 31.6094 0.0000 0.0000
# 5 0.0000 0.0000 0.0000 0.0000 25.6363 0.0000
# 6 0.0000 0.0000 0.0000 0.0000 0.0000 24.4111
#
#
#
# Elastic Compliance Matrix: (Units=1/GPa)
#
#
# Indices 1 2 3 4 5 6 
#
# 1 0.014179 -0.003382 -0.004784 0.000000 0.000000 0.000000
# 2 -0.003382 0.015519 -0.007213 0.000000 0.000000 0.000000
# 3 -0.004784 -0.007213 0.015025 0.000000 0.000000 0.000000
# 4 0.000000 0.000000 0.000000 0.031636 0.000000 0.000000
# 5 0.000000 0.000000 0.000000 0.000000 0.039007 0.000000
# 6 0.000000 0.000000 0.000000 0.000000 0.000000 0.040965
#
#
# Mechanical properties :
#
#
# Convention : Reuss Voigt Hill
#
# Bulk Modulus (GPa) = 71.60969 72.80824 72.20897
# Shear Modulus (GPa) = 26.07639 26.56321 26.31980
#
# Velocity S-wave (km/s) = 3.99046 4.02753 4.00904
# Velocity P-wave (km/s) = 8.05982 8.12951 8.09474
#
# Compressibility (1/GPa) = 0.01396459
#
# Stress axis : x y z
#
# Youngs Moduli (GPa) = 70.52823 64.43819 66.55393
#
# Poissons Ratio (x) = 0.21792 0.31842
# Poissons Ratio (y) = 0.23852 0.48004
# Poissons Ratio (z) = 0.33743 0.46478
#
# Static dielectric constant tensor:
#      x y z
#    x 1.512880 0.000000 0.000000 
#    y 0.000000 1.533630 0.000000 
#    z 0.000000 0.000000 1.532060 
# 
# From -- ./inp_files/7297.got.cif
#   From: 2010.05.17/outbox.cif.g08.bks.cpg/sg60_4_cif.got.tgz:7297.got - 2010.06.03 14:59:27.
