data_PCOD9454563
_publ_section_title
;
Structure prediction by ZEFSAII (Michael W. Deem and Ramdas Pophale) SiO2 
 PCOD9454563
Probable space group: P B C N
;
_chemical_formula_sum "Si O2"
_cell_formula_units_Z 32
_cell_length_a 12.387501
_cell_length_b 13.121630
_cell_length_c 8.995923
_cell_angle_alpha 90.000000
_cell_angle_beta 90.000000
_cell_angle_gamma 90.000000
_cell_volume 1462.235150
_symmetry_space_group_name_H-M "P B C N"
_symmetry_group_IT_number 60
_symmetry_cell_setting 'orthorhombic'
loop_
_space_group_symop_operation_xyz
x,y,z
1/2-x,1/2-y,1/2+z
1/2+x,1/2-y,-z
-x,y,1/2-z
-x,-y,-z
1/2+x,1/2+y,1/2-z
1/2-x,1/2+y,z
x,-y,1/2+z
loop_
_atom_site_type_symbol
_atom_site_label
_atom_site_fract_x
_atom_site_fract_y
_atom_site_fract_z
Si Si1 0.911098 0.086720 0.466562
Si Si2 0.920950 0.448813 0.882838
Si Si3 0.430169 0.724574 0.597106
Si Si4 0.791652 0.949300 0.269483
O O1 0.822902 0.078302 0.600351
O O2 0.980946 0.189262 0.476187
O O3 0.857387 0.052052 0.313817
O O4 0.000000 0.000000 0.500000
O O5 0.883510 0.336183 0.933431
O O6 0.828716 0.521999 0.817757
O O7 0.000000 0.423188 0.750000
O O8 0.000000 0.500000 0.000000
O O9 0.500000 0.716675 0.750000
O O10 0.336517 0.641645 0.625926
#
# Coordination Sequence:
#
# PCOD9454563 Si02
#       4
#     8   8   8   8
#     4   9  17  34  59  85 109 140 187 235 277 328
#     4  11  23  39  55  80 116 150 185 230 279 334
#     4   8  18  36  57  79 111 144 176 230 289 328
#     4  10  19  35  58  82 110 150 188 227 280 338
#
# _framework density 21.884304
#
# number of rings (size 3 to 8) (size 9 to 14) (size 15 to 20)
#    0.000    2.500    0.000    3.750    0.000    2.000 
#    0.000   20.000    0.000    1.500    0.000    0.000 
#    0.000    0.000    0.000    0.000    0.000    0.000 
#
# Total GULP energy -178319.240469 kJ/mol
# GULP energy per Si atom -5572.476265 kJ/mol
# Density = 2.183449 g / cm^3
# Si number density = 21.884304 Si / 1000 Ang^3
#
#
#
# Elastic Constant Matrix: (Units=GPa)
#
#
# Indices 1 2 3 4 5 6 
#
# 1 123.8403 51.6316 9.9619 0.0000 0.0000 0.0000
# 2 51.6316 117.7691 16.1641 0.0000 0.0000 0.0000
# 3 9.9619 16.1641 41.6584 0.0000 0.0000 0.0000
# 4 0.0000 0.0000 0.0000 7.5467 0.0000 0.0000
# 5 0.0000 0.0000 0.0000 0.0000 35.1607 0.0000
# 6 0.0000 0.0000 0.0000 0.0000 0.0000 29.0882
#
#
#
# Elastic Compliance Matrix: (Units=1/GPa)
#
#
# Indices 1 2 3 4 5 6 
#
# 1 0.009902 -0.004242 -0.000722 0.000000 0.000000 0.000000
# 2 -0.004242 0.010786 -0.003171 0.000000 0.000000 0.000000
# 3 -0.000722 -0.003171 0.025408 0.000000 0.000000 0.000000
# 4 0.000000 0.000000 0.000000 0.132509 0.000000 0.000000
# 5 0.000000 0.000000 0.000000 0.000000 0.028441 0.000000
# 6 0.000000 0.000000 0.000000 0.000000 0.000000 0.034378
#
#
# Mechanical properties :
#
#
# Convention : Reuss Voigt Hill
#
# Bulk Modulus (GPa) = 33.52755 48.75364 41.14060
# Shear Modulus (GPa) = 18.68223 28.05981 23.37102
#
# Velocity S-wave (km/s) = 2.92495 3.58465 3.27147
# Velocity P-wave (km/s) = 5.17308 6.28166 5.75413
#
# Compressibility (1/GPa) = 0.02982622
#
# Stress axis : x y z
#
# Youngs Moduli (GPa) = 100.99473 92.71201 39.35820
#
# Poissons Ratio (x) = 0.39327 0.02841
# Poissons Ratio (y) = 0.42841 0.12480
# Poissons Ratio (z) = 0.07290 0.29397
#
# Static dielectric constant tensor:
#      x y z
#    x 1.821850 0.000000 0.000000 
#    y 0.000000 1.877520 0.000000 
#    z 0.000000 0.000000 1.817040 
# 
# From -- ./inp_files/4598.got.cif
#   From: 2010.05.17/outbox.cif.g08.bks.cpg/sg60_3_cif.got.tgz:4598.got - 2010.06.03 14:59:27.
