data_PCOD9454302
_publ_section_title
;
Structure prediction by ZEFSAII (Michael W. Deem and Ramdas Pophale) SiO2 
 PCOD9454302
Probable space group: P B C N
;
_chemical_formula_sum "Si O2"
_cell_formula_units_Z 64
_cell_length_a 7.180974
_cell_length_b 21.057341
_cell_length_c 17.456080
_cell_angle_alpha 90.000000
_cell_angle_beta 90.000000
_cell_angle_gamma 90.000000
_cell_volume 2639.572578
_symmetry_space_group_name_H-M "P B C N"
_symmetry_group_IT_number 60
_symmetry_cell_setting 'orthorhombic'
loop_
_space_group_symop_operation_xyz
x,y,z
1/2-x,1/2-y,1/2+z
1/2+x,1/2-y,-z
-x,y,1/2-z
-x,-y,-z
1/2+x,1/2+y,1/2-z
1/2-x,1/2+y,z
x,-y,1/2+z
loop_
_atom_site_type_symbol
_atom_site_label
_atom_site_fract_x
_atom_site_fract_y
_atom_site_fract_z
Si Si1 0.306945 0.007696 0.145751
Si Si2 0.855115 0.607428 0.472305
Si Si3 0.728281 0.995283 0.692352
Si Si4 0.838617 0.124073 0.904159
Si Si5 0.704244 0.400869 0.572547
Si Si6 0.248891 0.868036 0.351928
Si Si7 0.285967 0.735090 0.387203
Si Si8 0.642203 0.242060 0.438035
O O1 0.204006 0.025835 0.224262
O O2 0.518296 0.024087 0.169852
O O3 0.280831 0.933965 0.126275
O O4 0.267978 0.047203 0.069548
O O5 0.817754 0.613619 0.562178
O O6 0.780230 0.671362 0.431007
O O7 0.078964 0.603282 0.457572
O O8 0.709173 0.071136 0.698427
O O9 0.835781 0.964379 0.620663
O O10 0.755060 0.195303 0.907263
O O11 0.025019 0.130691 0.855220
O O12 0.898720 0.107434 0.991670
O O13 0.675323 0.339044 0.627078
O O14 0.322051 0.797010 0.334982
O O15 0.375498 0.747853 0.470656
O O16 0.063638 0.740055 0.402737
#
# Coordination Sequence:
#
# PCOD9454302 Si02
#       8
#     8   8   8   8   8   8   8   8
#     4  10  21  35  49  67  94 129 166 200 234 276
#     4   9  17  32  53  73  94 124 162 200 235 276
#     4  10  21  35  49  67  94 129 166 200 234 276
#     4  10  19  31  50  76 101 124 153 193 242 291
#     4   9  17  32  53  73  94 124 162 200 235 276
#     4  10  19  31  50  76 101 124 153 193 242 291
#     4   8  15  28  47  72  97 120 151 192 236 279
#     4   8  15  28  47  72  97 120 151 192 236 279
#
# _framework density 24.246348999999999
#
# number of rings (size 3 to 8) (size 9 to 14) (size 15 to 20)
#    0.000    2.750    0.000    1.500    0.000    5.500 
#    0.000    1.250    0.000    4.500    0.000    0.000 
#    0.000    0.000    0.000    0.000    0.000    0.000 
#
# Total GULP energy -356914.014801 kJ/mol
# GULP energy per Si atom -5576.781481 kJ/mol
# Density = 2.419116 g / cm^3
# Si number density = 24.246349 Si / 1000 Ang^3
#
#
#
# Elastic Constant Matrix: (Units=GPa)
#
#
# Indices 1 2 3 4 5 6 
#
# 1 57.3144 -5.6582 -0.9065 0.0000 0.0000 0.0000
# 2 -5.6582 96.6235 23.1521 0.0000 0.0000 0.0000
# 3 -0.9065 23.1521 45.9147 0.0000 0.0000 0.0000
# 4 0.0000 0.0000 0.0000 -11.8146 0.0000 0.0000
# 5 0.0000 0.0000 0.0000 0.0000 16.2340 0.0000
# 6 0.0000 0.0000 0.0000 0.0000 0.0000 21.8041
#
#
#
# Elastic Compliance Matrix: (Units=1/GPa)
#
#
# Indices 1 2 3 4 5 6 
#
# 1 0.017551 0.001075 -0.000195 0.000000 0.000000 0.000000
# 2 0.001075 0.011838 -0.005948 0.000000 0.000000 0.000000
# 3 -0.000195 -0.005948 0.024775 0.000000 0.000000 0.000000
# 4 0.000000 0.000000 0.000000 -0.084641 0.000000 0.000000
# 5 0.000000 0.000000 0.000000 0.000000 0.061599 0.000000
# 6 0.000000 0.000000 0.000000 0.000000 0.000000 0.045863
#
#
# Mechanical properties :
#
#
# Convention : Reuss Voigt Hill
#
# Bulk Modulus (GPa) = 22.71392 25.89192 24.30292
# Shear Modulus (GPa) = 49.11763 17.46238 33.29001
#
# Velocity S-wave (km/s) = 4.50574 2.68658 3.70941
# Velocity P-wave (km/s) = 6.03799 4.50838 5.32836
#
# Compressibility (1/GPa) = 0.04402587
#
# Stress axis : x y z
#
# Youngs Moduli (GPa) = 56.97810 84.47710 40.36362
#
# Poissons Ratio (x) = -0.09078 0.00788
# Poissons Ratio (y) = -0.06123 0.24007
# Poissons Ratio (z) = 0.01113 0.50245
#
# Static dielectric constant tensor:
#      x y z
#    x 2.028110 0.000000 0.000000 
#    y 0.000000 1.990090 0.000000 
#    z 0.000000 0.000000 1.936130 
# 
# From -- ./inp_files/19714.got.cif
#   From: 2010.05.17/outbox.cif.g08.bks.cpg/sg60_10_cif.got.tgz:19714.got - 2010.06.03 14:59:27.
