data_PCOD9454264
_publ_section_title
;
Structure prediction by ZEFSAII (Michael W. Deem and Ramdas Pophale) SiO2 
 PCOD9454264
Probable space group: P B C N
;
_chemical_formula_sum "Si O2"
_cell_formula_units_Z 64
_cell_length_a 16.426138
_cell_length_b 5.589231
_cell_length_c 30.783368
_cell_angle_alpha 90.000000
_cell_angle_beta 90.000000
_cell_angle_gamma 90.000000
_cell_volume 2826.205000
_symmetry_space_group_name_H-M "P B C N"
_symmetry_group_IT_number 60
_symmetry_cell_setting 'orthorhombic'
loop_
_space_group_symop_operation_xyz
x,y,z
1/2-x,1/2-y,1/2+z
1/2+x,1/2-y,-z
-x,y,1/2-z
-x,-y,-z
1/2+x,1/2+y,1/2-z
1/2-x,1/2+y,z
x,-y,1/2+z
loop_
_atom_site_type_symbol
_atom_site_label
_atom_site_fract_x
_atom_site_fract_y
_atom_site_fract_z
Si Si1 0.211546 0.425800 0.819839
Si Si2 0.917317 0.549469 0.778235
Si Si3 0.453349 0.029394 0.849218
Si Si4 0.997895 0.973782 0.124873
Si Si5 0.418877 0.548638 0.719343
Si Si6 0.788837 0.583507 0.075090
Si Si7 0.579494 0.496044 0.968080
Si Si8 0.597835 0.996601 0.000488
O O1 0.263344 0.658499 0.805968
O O2 0.116887 0.490482 0.813433
O O3 0.213778 0.423997 0.872777
O O4 0.873349 0.297352 0.773869
O O5 0.000000 0.555216 0.750000
O O6 0.958348 0.545600 0.826495
O O7 0.873679 0.801079 0.771747
O O8 0.453940 0.783351 0.876228
O O9 0.441297 0.289504 0.870941
O O10 0.049687 0.999944 0.081492
O O11 0.047655 0.961700 0.170091
O O12 0.500000 0.554585 0.750000
O O13 0.731159 0.357794 0.062316
O O14 0.869690 0.512026 0.049209
O O15 0.624280 0.745259 0.979140
O O16 0.623267 0.243266 0.976907
O O17 0.500000 0.500000 0.000000
O O18 0.500000 0.000000 0.000000
#
# Coordination Sequence:
#
# PCOD9454264 Si02
#       8
#     8   8   8   8   8   8   8   8
#     4  10  21  33  45  65  89 126 174 211 236 290
#     4   8  14  25  40  63  86 114 152 182 225 292
#     4  10  19  29  48  63  91 130 161 203 246 288
#     4  10  19  29  44  69  91 128 162 189 248 307
#     4   8  14  25  40  59  88 120 149 178 220 286
#     4  10  21  36  53  69  93 132 178 215 253 307
#     4  10  21  30  44  68  96 129 159 203 247 296
#     4  10  21  35  50  72  96 129 169 217 253 292
#
# _framework density 22.645208
#
# number of rings (size 3 to 8) (size 9 to 14) (size 15 to 20)
#    0.000    2.500    0.000    2.250    7.000    0.000 
#    0.000    0.000    0.000    0.000    0.000    0.000 
#    0.000    0.000    0.000  360.000    0.000    0.000 
#
# Total GULP energy -356594.364951 kJ/mol
# GULP energy per Si atom -5571.786952 kJ/mol
# Density = 2.259367 g / cm^3
# Si number density = 22.645208 Si / 1000 Ang^3
#
#
#
# Elastic Constant Matrix: (Units=GPa)
#
#
# Indices 1 2 3 4 5 6 
#
# 1 5.0091 -4.0947 -2.3576 0.0000 0.0000 0.0000
# 2 -4.0947 271.5071 18.9329 0.0000 0.0000 0.0000
# 3 -2.3576 18.9329 102.7357 0.0000 0.0000 0.0000
# 4 0.0000 0.0000 0.0000 19.2527 0.0000 0.0000
# 5 0.0000 0.0000 0.0000 0.0000 23.4266 0.0000
# 6 0.0000 0.0000 0.0000 0.0000 0.0000 17.7606
#
#
#
# Elastic Compliance Matrix: (Units=1/GPa)
#
#
# Indices 1 2 3 4 5 6 
#
# 1 0.203872 0.002784 0.004165 0.000000 0.000000 0.000000
# 2 0.002784 0.003769 -0.000631 0.000000 0.000000 0.000000
# 3 0.004165 -0.000631 0.009946 0.000000 0.000000 0.000000
# 4 0.000000 0.000000 0.000000 0.051941 0.000000 0.000000
# 5 0.000000 0.000000 0.000000 0.000000 0.042687 0.000000
# 6 0.000000 0.000000 0.000000 0.000000 0.000000 0.056304
#
#
# Mechanical properties :
#
#
# Convention : Reuss Voigt Hill
#
# Bulk Modulus (GPa) = 4.34358 44.91256 24.62807
# Shear Modulus (GPa) = 11.55743 36.53941 24.04842
#
# Velocity S-wave (km/s) = 2.26159 4.02127 3.26232
# Velocity P-wave (km/s) = 2.95668 6.43716 5.00894
#
# Compressibility (1/GPa) = 0.23022461
#
# Stress axis : x y z
#
# Youngs Moduli (GPa) = 4.90503 265.31421 100.54760
#
# Poissons Ratio (x) = -0.73869 -0.41882
# Poissons Ratio (y) = -0.01366 0.06342
# Poissons Ratio (z) = -0.02043 0.16734
#
# Static dielectric constant tensor:
#      x y z
#    x 1.818560 0.000000 0.000000 
#    y 0.000000 1.986750 0.000000 
#    z 0.000000 0.000000 1.876620 
# 
# From -- ./inp_files/26212.got.cif
#   From: 2010.05.17/outbox.cif.g08.bks.cpg/sg60_14_cif.got.tgz:26212.got - 2010.06.03 14:59:27.
