data_PCOD9454497
_publ_section_title
;
Structure prediction by ZEFSAII (Michael W. Deem and Ramdas Pophale) SiO2 
 PCOD9454497
Probable space group: P B C N
;
_chemical_formula_sum "Si O2"
_cell_formula_units_Z 44
_cell_length_a 7.868215
_cell_length_b 22.398186
_cell_length_c 11.746180
_cell_angle_alpha 90.000000
_cell_angle_beta 90.000000
_cell_angle_gamma 90.000000
_cell_volume 2070.073268
_symmetry_space_group_name_H-M "P B C N"
_symmetry_group_IT_number 60
_symmetry_cell_setting 'orthorhombic'
loop_
_space_group_symop_operation_xyz
x,y,z
1/2-x,1/2-y,1/2+z
1/2+x,1/2-y,-z
-x,y,1/2-z
-x,-y,-z
1/2+x,1/2+y,1/2-z
1/2-x,1/2+y,z
x,-y,1/2+z
loop_
_atom_site_type_symbol
_atom_site_label
_atom_site_fract_x
_atom_site_fract_y
_atom_site_fract_z
Si Si1 0.806890 0.817622 0.289823
Si Si2 0.430667 0.732545 0.078521
Si Si3 0.410497 0.563948 0.624441
Si Si4 0.803637 0.062139 0.425664
Si Si5 0.500000 0.357995 0.750000
Si Si6 0.337355 0.160435 0.947434
O O1 0.714174 0.760237 0.339880
O O2 0.819172 0.872302 0.377949
O O3 0.691752 0.843261 0.186961
O O4 0.000000 0.805065 0.250000
O O5 0.553001 0.688744 0.150610
O O6 0.522007 0.790058 0.028859
O O7 0.336724 0.691441 0.989274
O O8 0.500000 0.559825 0.750000
O O9 0.289561 0.506833 0.608305
O O10 0.551037 0.562897 0.524600
O O11 0.866871 0.099428 0.314971
O O12 0.651172 0.098731 0.484555
#
# Coordination Sequence:
#
# PCOD9454497 Si02
#       6
#     8   8   8   8   4   8
#     4  11  20  36  58  87 116 151 201 242 304 361
#     4  11  23  37  57  89 122 161 197 247 310 364
#     4  10  19  34  57  88 113 155 202 254 293 367
#     4  10  20  35  57  83 120 150 203 248 297 360
#     4  10  20  34  56  86 116 154 192 244 294 356
#     4  11  21  37  56  84 119 156 194 249 301 365
#
# _framework density 21.255285000000001
#
# number of rings (size 3 to 8) (size 9 to 14) (size 15 to 20)
#    0.000    1.455    6.364    1.091    2.545    0.000 
#    0.000    0.909    0.000    0.000    0.000    0.000 
#    0.000    0.000    0.000    0.000    0.000    0.000 
#
# Total GULP energy -245300.235692 kJ/mol
# GULP energy per Si atom -5575.005357 kJ/mol
# Density = 2.120691 g / cm^3
# Si number density = 21.255285 Si / 1000 Ang^3
#
#
#
# Elastic Constant Matrix: (Units=GPa)
#
#
# Indices 1 2 3 4 5 6 
#
# 1 27.0079 19.1493 10.2848 0.0000 0.0000 0.0000
# 2 19.1493 98.6456 13.8658 0.0000 0.0000 0.0000
# 3 10.2848 13.8658 65.7665 0.0000 0.0000 0.0000
# 4 0.0000 0.0000 0.0000 29.1792 0.0000 0.0000
# 5 0.0000 0.0000 0.0000 0.0000 19.5752 0.0000
# 6 0.0000 0.0000 0.0000 0.0000 0.0000 26.2352
#
#
#
# Elastic Compliance Matrix: (Units=1/GPa)
#
#
# Indices 1 2 3 4 5 6 
#
# 1 0.044669 -0.007924 -0.005315 0.000000 0.000000 0.000000
# 2 -0.007924 0.011853 -0.001260 0.000000 0.000000 0.000000
# 3 -0.005315 -0.001260 0.016302 0.000000 0.000000 0.000000
# 4 0.000000 0.000000 0.000000 0.034271 0.000000 0.000000
# 5 0.000000 0.000000 0.000000 0.000000 0.051085 0.000000
# 6 0.000000 0.000000 0.000000 0.000000 0.000000 0.038117
#
#
# Mechanical properties :
#
#
# Convention : Reuss Voigt Hill
#
# Bulk Modulus (GPa) = 22.81751 30.89109 26.85430
# Shear Modulus (GPa) = 20.84187 24.87261 22.85724
#
# Velocity S-wave (km/s) = 3.13477 3.42451 3.28284
# Velocity P-wave (km/s) = 4.88474 5.49557 5.19913
#
# Compressibility (1/GPa) = 0.04382599
#
# Stress axis : x y z
#
# Youngs Moduli (GPa) = 22.38714 84.36962 61.34200
#
# Poissons Ratio (x) = 0.66855 0.32602
# Poissons Ratio (y) = 0.17740 0.07727
# Poissons Ratio (z) = 0.11898 0.10628
#
# Static dielectric constant tensor:
#      x y z
#    x 1.786880 0.000000 0.000000 
#    y 0.000000 1.778050 0.000000 
#    z 0.000000 0.000000 1.826210 
# 
# From -- ./inp_files/10001.got.cif
#   From: 2010.05.17/outbox.cif.g08.bks.cpg/sg60_6_cif.got.tgz:10001.got - 2010.06.03 14:59:27.
