data_PCOD9454267
_publ_section_title
;
Structure prediction by ZEFSAII (Michael W. Deem and Ramdas Pophale) SiO2 
 PCOD9454267
Probable space group: P B C N
;
_chemical_formula_sum "Si O2"
_cell_formula_units_Z 48
_cell_length_a 9.833287
_cell_length_b 24.323685
_cell_length_c 8.419761
_cell_angle_alpha 90.000000
_cell_angle_beta 90.000000
_cell_angle_gamma 90.000000
_cell_volume 2013.853385
_symmetry_space_group_name_H-M "P B C N"
_symmetry_group_IT_number 60
_symmetry_cell_setting 'orthorhombic'
loop_
_space_group_symop_operation_xyz
x,y,z
1/2-x,1/2-y,1/2+z
1/2+x,1/2-y,-z
-x,y,1/2-z
-x,-y,-z
1/2+x,1/2+y,1/2-z
1/2-x,1/2+y,z
x,-y,1/2+z
loop_
_atom_site_type_symbol
_atom_site_label
_atom_site_fract_x
_atom_site_fract_y
_atom_site_fract_z
Si Si1 0.346167 0.916043 0.061152
Si Si2 0.444487 0.362659 0.073042
Si Si3 0.116044 0.956420 0.547864
Si Si4 0.193398 0.493596 0.803013
Si Si5 0.428301 0.791821 0.041896
Si Si6 0.326033 0.262421 0.868731
O O1 0.408965 0.856093 0.077596
O O2 0.185282 0.903366 0.089705
O O3 0.376919 0.965640 0.180187
O O4 0.377002 0.942513 0.889641
O O5 0.500000 0.346864 0.250000
O O6 0.561613 0.396380 0.986373
O O7 0.392295 0.316302 0.951467
O O8 0.172576 0.967301 0.721409
O O9 0.247080 0.967398 0.439304
O O10 0.000000 0.000000 0.500000
O O11 0.589139 0.782603 0.030606
O O12 0.365804 0.755931 0.190252
O O13 0.333795 0.770892 0.897759
#
# Coordination Sequence:
#
# PCOD9454267 Si02
#       6
#     8   8   8   8   8   8
#     4  10  21  35  57  87 138 167 225 273 341 399
#     4  11  20  32  57  90 128 176 207 277 343 414
#     4  11  17  28  49  82 136 170 206 258 344 405
#     4  10  19  29  52  89 125 179 214 269 327 418
#     4  10  24  46  66 104 133 185 223 298 333 413
#     4  10  25  43  72  94 137 173 238 275 349 401
#
# _framework density 23.834904000000002
#
# number of rings (size 3 to 8) (size 9 to 14) (size 15 to 20)
#    0.000    1.667    5.000    0.500    4.667    5.333 
#    0.000    3.333    0.000    4.000    0.000    0.000 
#    0.000    0.000    0.000    0.000    0.000    0.000 
#
# Total GULP energy -267828.864721 kJ/mol
# GULP energy per Si atom -5579.768015 kJ/mol
# Density = 2.378065 g / cm^3
# Si number density = 23.834904 Si / 1000 Ang^3
#
#
#
# Elastic Constant Matrix: (Units=GPa)
#
#
# Indices 1 2 3 4 5 6 
#
# 1 39.1340 17.7791 0.2873 0.0000 0.0000 0.0000
# 2 17.7791 118.0868 51.2741 0.0000 0.0000 0.0000
# 3 0.2873 51.2741 93.7849 0.0000 0.0000 0.0000
# 4 0.0000 0.0000 0.0000 32.1394 0.0000 0.0000
# 5 0.0000 0.0000 0.0000 0.0000 15.8336 0.0000
# 6 0.0000 0.0000 0.0000 0.0000 0.0000 99.2019
#
#
#
# Elastic Compliance Matrix: (Units=1/GPa)
#
#
# Indices 1 2 3 4 5 6 
#
# 1 0.028023 -0.005484 0.002912 0.000000 0.000000 0.000000
# 2 -0.005484 0.012177 -0.006641 0.000000 0.000000 0.000000
# 3 0.002912 -0.006641 0.014284 0.000000 0.000000 0.000000
# 4 0.000000 0.000000 0.000000 0.031114 0.000000 0.000000
# 5 0.000000 0.000000 0.000000 0.000000 0.063157 0.000000
# 6 0.000000 0.000000 0.000000 0.000000 0.000000 0.010080
#
#
# Mechanical properties :
#
#
# Convention : Reuss Voigt Hill
#
# Bulk Modulus (GPa) = 27.73123 43.29852 35.51487
# Shear Modulus (GPa) = 26.41565 41.54598 33.98082
#
# Velocity S-wave (km/s) = 3.33269 4.17954 3.77991
# Velocity P-wave (km/s) = 5.14481 6.44181 5.82949
#
# Compressibility (1/GPa) = 0.03606043
#
# Stress axis : x y z
#
# Youngs Moduli (GPa) = 35.68474 82.11880 70.00610
#
# Poissons Ratio (x) = 0.45031 -0.20387
# Poissons Ratio (y) = 0.19568 0.46490
# Poissons Ratio (z) = -0.10392 0.54534
#
# Static dielectric constant tensor:
#      x y z
#    x 1.990940 0.000000 0.000000 
#    y 0.000000 1.904060 0.000000 
#    z 0.000000 0.000000 1.990370 
# 
# From -- ./inp_files/5083.got.cif
#   From: 2010.05.17/outbox.cif.g08.bks.cpg/sg60_3_cif.got.tgz:5083.got - 2010.06.03 14:59:27.
