data_PCOD9454666
_publ_section_title
;
Structure prediction by ZEFSAII (Michael W. Deem and Ramdas Pophale) SiO2 
 PCOD9454666
Probable space group: P B C N
;
_chemical_formula_sum "Si O2"
_cell_formula_units_Z 64
_cell_length_a 8.796403
_cell_length_b 23.188353
_cell_length_c 14.141015
_cell_angle_alpha 90.000000
_cell_angle_beta 90.000000
_cell_angle_gamma 90.000000
_cell_volume 2884.400778
_symmetry_space_group_name_H-M "P B C N"
_symmetry_group_IT_number 60
_symmetry_cell_setting 'orthorhombic'
loop_
_space_group_symop_operation_xyz
x,y,z
1/2-x,1/2-y,1/2+z
1/2+x,1/2-y,-z
-x,y,1/2-z
-x,-y,-z
1/2+x,1/2+y,1/2-z
1/2-x,1/2+y,z
x,-y,1/2+z
loop_
_atom_site_type_symbol
_atom_site_label
_atom_site_fract_x
_atom_site_fract_y
_atom_site_fract_z
Si Si1 0.502535 0.904684 0.639216
Si Si2 0.757802 0.910097 0.998814
Si Si3 0.608536 0.779799 0.334985
Si Si4 0.355105 0.787885 0.943218
Si Si5 0.233593 0.462195 0.977245
Si Si6 0.432515 0.299874 0.162197
Si Si7 0.928847 0.146242 0.025875
Si Si8 0.021387 0.587587 0.644424
O O1 0.500000 0.896069 0.750000
O O2 0.336839 0.912107 0.597419
O O3 0.568491 0.848688 0.584298
O O4 0.604555 0.958269 0.604074
O O5 0.890723 0.863959 0.980201
O O6 0.635761 0.900628 0.084582
O O7 0.809493 0.975662 0.015859
O O8 0.500000 0.756930 0.250000
O O9 0.603516 0.768892 0.449009
O O10 0.782827 0.764278 0.311131
O O11 0.586890 0.848805 0.333564
O O12 0.436223 0.740976 0.878468
O O13 0.174684 0.801960 0.929656
O O14 0.354441 0.414084 0.946625
O O15 0.138692 0.444564 0.072501
O O16 0.500000 0.332707 0.250000
O O17 0.386397 0.343830 0.082655
O O18 0.000000 0.561084 0.750000
#
# Coordination Sequence:
#
# PCOD9454666 Si02
#       8
#     8   8   8   8   8   8   8   8
#     4  10  20  38  62  87 123 164 213 261 321 387
#     4  11  22  35  65  93 122 171 216 256 325 386
#     4  10  21  39  64  93 129 161 211 268 315 382
#     4  10  21  44  61  88 130 170 207 267 321 381
#     4  10  20  40  58  90 131 167 209 263 321 386
#     4  11  24  39  66  94 124 171 213 264 330 384
#     4  10  23  41  60  90 128 167 211 271 315 377
#     4  10  19  36  62  93 129 166 207 261 322 385
#
# _framework density 22.188317999999999
#
# number of rings (size 3 to 8) (size 9 to 14) (size 15 to 20)
#    0.000    1.750    5.000    2.250    3.500    6.000 
#    0.000    2.500    0.000    6.000    0.000    0.000 
#    0.000    0.000    0.000    0.000    0.000    0.000 
#
# Total GULP energy -356437.201781 kJ/mol
# GULP energy per Si atom -5569.331278 kJ/mol
# Density = 2.213782 g / cm^3
# Si number density = 22.188318 Si / 1000 Ang^3
#
#
#
# Elastic Constant Matrix: (Units=GPa)
#
#
# Indices 1 2 3 4 5 6 
#
# 1 103.6254 25.0197 39.6526 0.0000 0.0000 0.0000
# 2 25.0197 57.1007 -0.4047 0.0000 0.0000 0.0000
# 3 39.6526 -0.4047 120.6179 0.0000 0.0000 0.0000
# 4 0.0000 0.0000 0.0000 9.3679 0.0000 0.0000
# 5 0.0000 0.0000 0.0000 0.0000 21.4584 0.0000
# 6 0.0000 0.0000 0.0000 0.0000 0.0000 34.7767
#
#
#
# Elastic Compliance Matrix: (Units=1/GPa)
#
#
# Indices 1 2 3 4 5 6 
#
# 1 0.012577 -0.005540 -0.004153 0.000000 0.000000 0.000000
# 2 -0.005540 0.019954 0.001888 0.000000 0.000000 0.000000
# 3 -0.004153 0.001888 0.009662 0.000000 0.000000 0.000000
# 4 0.000000 0.000000 0.000000 0.106747 0.000000 0.000000
# 5 0.000000 0.000000 0.000000 0.000000 0.046602 0.000000
# 6 0.000000 0.000000 0.000000 0.000000 0.000000 0.028755
#
#
# Mechanical properties :
#
#
# Convention : Reuss Voigt Hill
#
# Bulk Modulus (GPa) = 37.61833 45.54215 41.58024
# Shear Modulus (GPa) = 20.09900 27.59237 23.84569
#
# Velocity S-wave (km/s) = 3.01298 3.53023 3.28181
# Velocity P-wave (km/s) = 5.39398 6.09808 5.75680
#
# Compressibility (1/GPa) = 0.02658279
#
# Stress axis : x y z
#
# Youngs Moduli (GPa) = 79.50977 50.11555 103.49460
#
# Poissons Ratio (x) = 0.27766 0.42984
# Poissons Ratio (y) = 0.44051 -0.19543
# Poissons Ratio (z) = 0.33022 -0.09463
#
# Static dielectric constant tensor:
#      x y z
#    x 1.929450 0.000000 0.000000 
#    y 0.000000 1.900670 0.000000 
#    z 0.000000 0.000000 1.829400 
# 
# From -- ./inp_files/15412.got.cif
#   From: 2010.05.17/outbox.cif.g08.bks.cpg/sg60_8_cif.got.tgz:15412.got - 2010.06.03 14:59:27.
