data_PCOD9454493
_publ_section_title
;
Structure prediction by ZEFSAII (Michael W. Deem and Ramdas Pophale) SiO2 
 PCOD9454493
Probable space group: P B C N
;
_chemical_formula_sum "Si O2"
_cell_formula_units_Z 40
_cell_length_a 21.876607
_cell_length_b 5.470159
_cell_length_c 14.075383
_cell_angle_alpha 90.000000
_cell_angle_beta 90.000000
_cell_angle_gamma 90.000000
_cell_volume 1684.380233
_symmetry_space_group_name_H-M "P B C N"
_symmetry_group_IT_number 60
_symmetry_cell_setting 'orthorhombic'
loop_
_space_group_symop_operation_xyz
x,y,z
1/2-x,1/2-y,1/2+z
1/2+x,1/2-y,-z
-x,y,1/2-z
-x,-y,-z
1/2+x,1/2+y,1/2-z
1/2-x,1/2+y,z
x,-y,1/2+z
loop_
_atom_site_type_symbol
_atom_site_label
_atom_site_fract_x
_atom_site_fract_y
_atom_site_fract_z
Si Si1 0.593221 0.406238 0.969051
Si Si2 0.733130 0.428668 0.961026
Si Si3 0.086383 0.668491 0.335794
Si Si4 0.471381 0.332789 0.868759
Si Si5 0.718417 0.896312 0.750133
O O1 0.661696 0.449569 0.935416
O O2 0.543039 0.337932 0.891722
O O3 0.598065 0.200363 0.050942
O O4 0.563444 0.631307 0.028804
O O5 0.745932 0.173622 0.012887
O O6 0.772714 0.410465 0.864543
O O7 0.049306 0.419973 0.324092
O O8 0.149215 0.648409 0.279762
O O9 0.051898 0.923764 0.315014
O O10 0.742558 0.160867 0.717862
#
# Coordination Sequence:
#
# PCOD9454493 Si02
#       5
#     8   8   8   8   8
#     4   9  21  35  60  86 117 140 190 230 288 335
#     4  10  23  37  56  79 116 154 187 227 282 331
#     4  10  19  34  57  86 113 142 188 230 281 336
#     4   9  20  34  58  89 112 143 180 240 288 328
#     4  10  21  38  55  76 115 158 186 227 276 330
#
# _framework density 23.747606000000001
#
# number of rings (size 3 to 8) (size 9 to 14) (size 15 to 20)
#    1.200    1.200    0.000    1.800    2.800    1.600 
#    0.000    0.000    0.000   28.800    0.000    0.000 
#    0.000    0.000    0.000    0.000    0.000    0.000 
#
# Total GULP energy -223386.386398 kJ/mol
# GULP energy per Si atom -5584.659660 kJ/mol
# Density = 2.369356 g / cm^3
# Si number density = 23.747606 Si / 1000 Ang^3
#
#
#
# Elastic Constant Matrix: (Units=GPa)
#
#
# Indices 1 2 3 4 5 6 
#
# 1 106.6107 14.8392 31.7069 0.0000 0.0000 0.0000
# 2 14.8392 145.0874 39.7050 0.0000 0.0000 0.0000
# 3 31.7069 39.7050 82.3721 0.0000 0.0000 0.0000
# 4 0.0000 0.0000 0.0000 70.0963 0.0000 0.0000
# 5 0.0000 0.0000 0.0000 0.0000 38.5058 0.0000
# 6 0.0000 0.0000 0.0000 0.0000 0.0000 112.6742
#
#
#
# Elastic Compliance Matrix: (Units=1/GPa)
#
#
# Indices 1 2 3 4 5 6 
#
# 1 0.010593 0.000037 -0.004095 0.000000 0.000000 0.000000
# 2 0.000037 0.007940 -0.003842 0.000000 0.000000 0.000000
# 3 -0.004095 -0.003842 0.015568 0.000000 0.000000 0.000000
# 4 0.000000 0.000000 0.000000 0.014266 0.000000 0.000000
# 5 0.000000 0.000000 0.000000 0.000000 0.025970 0.000000
# 6 0.000000 0.000000 0.000000 0.000000 0.000000 0.008875
#
#
# Mechanical properties :
#
#
# Convention : Reuss Voigt Hill
#
# Bulk Modulus (GPa) = 54.64011 56.28580 55.46295
# Shear Modulus (GPa) = 47.56839 60.77653 54.17246
#
# Velocity S-wave (km/s) = 4.48044 5.06441 4.78135
# Velocity P-wave (km/s) = 7.05864 7.61254 7.34082
#
# Compressibility (1/GPa) = 0.01830157
#
# Stress axis : x y z
#
# Youngs Moduli (GPa) = 94.40440 125.94674 64.23370
#
# Poissons Ratio (x) = -0.00470 0.26306
# Poissons Ratio (y) = -0.00353 0.24676
# Poissons Ratio (z) = 0.38662 0.48383
#
# Static dielectric constant tensor:
#      x y z
#    x 1.834100 0.000000 0.000000 
#    y 0.000000 1.944200 0.000000 
#    z 0.000000 0.000000 1.924910 
# 
# From -- ./inp_files/20991.got.cif
#   From: 2010.05.17/outbox.cif.g08.bks.cpg/sg60_11_cif.got.tgz:20991.got - 2010.06.03 14:59:27.
