data_PCOD9454652
_publ_section_title
;
Structure prediction by ZEFSAII (Michael W. Deem and Ramdas Pophale) SiO2 
 PCOD9454652
Probable space group: P B C N
;
_chemical_formula_sum "Si O2"
_cell_formula_units_Z 64
_cell_length_a 5.088194
_cell_length_b 20.133359
_cell_length_c 33.861747
_cell_angle_alpha 90.000000
_cell_angle_beta 90.000000
_cell_angle_gamma 90.000000
_cell_volume 3468.879866
_symmetry_space_group_name_H-M "P B C N"
_symmetry_group_IT_number 60
_symmetry_cell_setting 'orthorhombic'
loop_
_space_group_symop_operation_xyz
x,y,z
1/2-x,1/2-y,1/2+z
1/2+x,1/2-y,-z
-x,y,1/2-z
-x,-y,-z
1/2+x,1/2+y,1/2-z
1/2-x,1/2+y,z
x,-y,1/2+z
loop_
_atom_site_type_symbol
_atom_site_label
_atom_site_fract_x
_atom_site_fract_y
_atom_site_fract_z
Si Si1 0.267656 0.352364 0.132312
Si Si2 0.749650 0.104847 0.277817
Si Si3 0.649130 0.736073 0.524647
Si Si4 0.677296 0.297467 0.850169
Si Si5 0.182460 0.504915 0.657312
Si Si6 0.316454 0.520752 0.394992
Si Si7 0.177091 0.332510 0.900904
Si Si8 0.267326 0.121049 0.920510
O O1 0.222354 0.281399 0.151981
O O2 0.229228 0.416141 0.160372
O O3 0.553210 0.355595 0.112125
O O4 0.052940 0.362657 0.097391
O O5 0.500000 0.114751 0.250000
O O6 0.782969 0.164007 0.309418
O O7 0.721846 0.038001 0.303748
O O8 0.000000 0.100644 0.250000
O O9 0.354116 0.743875 0.509196
O O10 0.693253 0.783985 0.561997
O O11 0.712173 0.662435 0.540284
O O12 0.390769 0.311419 0.868123
O O13 0.891927 0.325886 0.881067
O O14 0.395001 0.481310 0.624388
O O15 0.892342 0.491751 0.640356
O O16 0.246628 0.592127 0.412355
O O17 0.274938 0.457939 0.423542
#
# Coordination Sequence:
#
# PCOD9454652 Si02
#       8
#     8   8   8   8   8   8   8   8
#     4  10  19  36  61  87 108 147 201 248 277 326
#     4  12  24  38  56  88 125 155 184 236 304 356
#     4  12  24  38  56  88 125 159 190 240 312 358
#     4  12  21  38  62  88 116 151 205 242 286 342
#     4  10  20  36  59  85 113 147 194 236 287 340
#     4  10  19  36  61  87 108 143 204 247 272 325
#     4  12  21  38  62  88 113 154 204 245 279 357
#     4  10  20  36  59  85 116 148 192 248 285 340
#
# _framework density 18.449759
#
# number of rings (size 3 to 8) (size 9 to 14) (size 15 to 20)
#    0.000    1.000    5.000    3.000    0.000    0.000 
#    0.000    2.500    0.000    0.000    0.000    0.000 
#    0.000    0.000    0.000    0.000    0.000    0.000 
#
# Total GULP energy -357652.663348 kJ/mol
# GULP energy per Si atom -5588.322865 kJ/mol
# Density = 1.840777 g / cm^3
# Si number density = 18.449759 Si / 1000 Ang^3
#
#
#
# Elastic Constant Matrix: (Units=GPa)
#
#
# Indices 1 2 3 4 5 6 
#
# 1 59.8467 -12.1630 -5.2771 0.0000 0.0000 0.0000
# 2 -12.1630 100.5967 3.3683 0.0000 0.0000 0.0000
# 3 -5.2771 3.3683 32.2239 0.0000 0.0000 0.0000
# 4 0.0000 0.0000 0.0000 25.3063 0.0000 0.0000
# 5 0.0000 0.0000 0.0000 0.0000 27.0786 0.0000
# 6 0.0000 0.0000 0.0000 0.0000 0.0000 20.9354
#
#
#
# Elastic Compliance Matrix: (Units=1/GPa)
#
#
# Indices 1 2 3 4 5 6 
#
# 1 0.017350 0.002010 0.002631 0.000000 0.000000 0.000000
# 2 0.002010 0.010208 -0.000738 0.000000 0.000000 0.000000
# 3 0.002631 -0.000738 0.031541 0.000000 0.000000 0.000000
# 4 0.000000 0.000000 0.000000 0.039516 0.000000 0.000000
# 5 0.000000 0.000000 0.000000 0.000000 0.036930 0.000000
# 6 0.000000 0.000000 0.000000 0.000000 0.000000 0.047766
#
#
# Mechanical properties :
#
#
# Convention : Reuss Voigt Hill
#
# Bulk Modulus (GPa) = 14.94660 18.28041 16.61351
# Shear Modulus (GPa) = 25.27724 28.44666 26.86195
#
# Velocity S-wave (km/s) = 3.70544 3.93089 3.81983
# Velocity P-wave (km/s) = 5.14062 5.52560 5.33658
#
# Compressibility (1/GPa) = 0.06690483
#
# Stress axis : x y z
#
# Youngs Moduli (GPa) = 57.63757 97.95877 31.70483
#
# Poissons Ratio (x) = -0.19686 -0.08342
# Poissons Ratio (y) = -0.11583 0.02340
# Poissons Ratio (z) = -0.15165 0.07229
#
# Static dielectric constant tensor:
#      x y z
#    x 1.623140 0.000000 0.000000 
#    y 0.000000 1.666620 0.000000 
#    z 0.000000 0.000000 1.582580 
# 
# From -- ./inp_files/25054.got.cif
#   From: 2010.05.17/outbox.cif.g08.bks.cpg/sg60_13_cif.got.tgz:25054.got - 2010.06.03 14:59:27.
