data_PCOD9454088
_publ_section_title
;
Structure prediction by ZEFSAII (Michael W. Deem and Ramdas Pophale) SiO2 
 PCOD9454088
Probable space group: P B C N
;
_chemical_formula_sum "Si O2"
_cell_formula_units_Z 64
_cell_length_a 23.843392
_cell_length_b 8.981389
_cell_length_c 13.869431
_cell_angle_alpha 90.000000
_cell_angle_beta 90.000000
_cell_angle_gamma 90.000000
_cell_volume 2970.093970
_symmetry_space_group_name_H-M "P B C N"
_symmetry_group_IT_number 60
_symmetry_cell_setting 'orthorhombic'
loop_
_space_group_symop_operation_xyz
x,y,z
1/2-x,1/2-y,1/2+z
1/2+x,1/2-y,-z
-x,y,1/2-z
-x,-y,-z
1/2+x,1/2+y,1/2-z
1/2-x,1/2+y,z
x,-y,1/2+z
loop_
_atom_site_type_symbol
_atom_site_label
_atom_site_fract_x
_atom_site_fract_y
_atom_site_fract_z
Si Si1 0.680150 0.970686 0.011844
Si Si2 0.114964 0.317471 0.857594
Si Si3 0.447988 0.174453 0.674683
Si Si4 0.709088 0.643998 0.613525
Si Si5 0.597129 0.160710 0.362413
Si Si6 0.680831 0.187086 0.841461
Si Si7 0.751998 0.581019 0.245724
Si Si8 0.505892 0.175399 0.027248
O O1 0.738428 0.902673 0.047956
O O2 0.639925 0.025800 0.099452
O O3 0.647726 0.864862 0.937203
O O4 0.687288 0.119307 0.947827
O O5 0.146531 0.185209 0.915240
O O6 0.117266 0.288315 0.742612
O O7 0.051375 0.316693 0.889419
O O8 0.500000 0.190540 0.750000
O O9 0.382985 0.229213 0.688379
O O10 0.470675 0.238461 0.573175
O O11 0.432489 0.998564 0.662424
O O12 0.725062 0.795886 0.671127
O O13 0.705343 0.510072 0.688785
O O14 0.550388 0.241566 0.426820
O O15 0.722591 0.324565 0.828415
O O16 0.704487 0.046425 0.778607
O O17 0.500000 0.000000 0.000000
#
# Coordination Sequence:
#
# PCOD9454088 Si02
#       8
#     8   8   8   8   8   8   8   8
#     4  11  23  36  60  92 126 165 210 265 323 388
#     4  12  21  39  58  90 132 168 210 268 329 387
#     4  10  19  31  59  92 125 161 203 272 325 382
#     4  11  23  39  60  90 129 168 215 262 319 390
#     4  10  21  35  58  88 127 165 207 271 327 379
#     4  10  22  40  60  92 129 164 216 259 323 396
#     4  10  23  39  62  87 123 173 210 257 320 388
#     4  10  18  34  56  92 128 159 211 268 333 376
#
# _framework density 21.548141000000001
#
# number of rings (size 3 to 8) (size 9 to 14) (size 15 to 20)
#    0.000    1.500    5.000    3.375    5.250    0.000 
#    0.000    0.000    0.000    1.500    0.000    5.250 
#    0.000    0.000    0.000    0.125    0.000    0.000 
#
# Total GULP energy -356298.319441 kJ/mol
# GULP energy per Si atom -5567.161241 kJ/mol
# Density = 2.149910 g / cm^3
# Si number density = 21.548141 Si / 1000 Ang^3
#
#
#
# Elastic Constant Matrix: (Units=GPa)
#
#
# Indices 1 2 3 4 5 6 
#
# 1 145.2150 21.9770 59.8186 0.0000 0.0000 0.0000
# 2 21.9770 38.7658 16.7292 0.0000 0.0000 0.0000
# 3 59.8186 16.7292 110.1433 0.0000 0.0000 0.0000
# 4 0.0000 0.0000 0.0000 15.0810 0.0000 0.0000
# 5 0.0000 0.0000 0.0000 0.0000 47.1532 0.0000
# 6 0.0000 0.0000 0.0000 0.0000 0.0000 10.2386
#
#
#
# Elastic Compliance Matrix: (Units=1/GPa)
#
#
# Indices 1 2 3 4 5 6 
#
# 1 0.009247 -0.003291 -0.004522 0.000000 0.000000 0.000000
# 2 -0.003291 0.028776 -0.002583 0.000000 0.000000 0.000000
# 3 -0.004522 -0.002583 0.011928 0.000000 0.000000 0.000000
# 4 0.000000 0.000000 0.000000 0.066309 0.000000 0.000000
# 5 0.000000 0.000000 0.000000 0.000000 0.021207 0.000000
# 6 0.000000 0.000000 0.000000 0.000000 0.000000 0.097670
#
#
# Mechanical properties :
#
#
# Convention : Reuss Voigt Hill
#
# Bulk Modulus (GPa) = 34.29600 54.57487 44.43543
# Shear Modulus (GPa) = 18.82176 27.53449 23.17813
#
# Velocity S-wave (km/s) = 2.95867 3.57853 3.28326
# Velocity P-wave (km/s) = 5.25568 6.51586 5.91940
#
# Compressibility (1/GPa) = 0.02915792
#
# Stress axis : x y z
#
# Youngs Moduli (GPa) = 108.13991 34.75065 83.83944
#
# Poissons Ratio (x) = 0.11436 0.37915
# Poissons Ratio (y) = 0.35587 0.21660
# Poissons Ratio (z) = 0.48905 0.08978
#
# Static dielectric constant tensor:
#      x y z
#    x 1.898270 0.000000 0.000000 
#    y 0.000000 1.780520 0.000000 
#    z 0.000000 0.000000 1.905350 
# 
# From -- ./inp_files/17944.got.cif
#   From: 2010.05.17/outbox.cif.g08.bks.cpg/sg60_9_cif.got.tgz:17944.got - 2010.06.03 14:59:27.
