data_PCOD9454014
_publ_section_title
;
Structure prediction by ZEFSAII (Michael W. Deem and Ramdas Pophale) SiO2 
 PCOD9454014
Probable space group: P B C N
;
_chemical_formula_sum "Si O2"
_cell_formula_units_Z 44
_cell_length_a 6.238624
_cell_length_b 19.270286
_cell_length_c 20.972611
_cell_angle_alpha 90.000000
_cell_angle_beta 90.000000
_cell_angle_gamma 90.000000
_cell_volume 2521.328736
_symmetry_space_group_name_H-M "P B C N"
_symmetry_group_IT_number 60
_symmetry_cell_setting 'orthorhombic'
loop_
_space_group_symop_operation_xyz
x,y,z
1/2-x,1/2-y,1/2+z
1/2+x,1/2-y,-z
-x,y,1/2-z
-x,-y,-z
1/2+x,1/2+y,1/2-z
1/2-x,1/2+y,z
x,-y,1/2+z
loop_
_atom_site_type_symbol
_atom_site_label
_atom_site_fract_x
_atom_site_fract_y
_atom_site_fract_z
Si Si1 0.263817 0.146232 0.866868
Si Si2 0.500000 0.661826 0.750000
Si Si3 0.994490 0.422265 0.475491
Si Si4 0.263073 0.321004 0.562595
Si Si5 0.876970 0.752837 0.812489
Si Si6 0.602525 0.329168 0.466238
O O1 0.142417 0.122803 0.802770
O O2 0.363470 0.087872 0.912054
O O3 0.450117 0.201493 0.847631
O O4 0.080734 0.178100 0.912578
O O5 0.674157 0.708641 0.787507
O O6 0.764775 0.391816 0.455371
O O7 0.000000 0.500000 0.500000
O O8 0.088307 0.371944 0.531438
O O9 0.289516 0.309230 0.637656
O O10 0.488359 0.343522 0.532962
O O11 0.223036 0.243901 0.534488
O O12 0.000000 0.780448 0.750000
#
# Coordination Sequence:
#
# PCOD9454014 Si02
#       6
#     8   4   8   8   8   8
#     4  10  19  33  55  85 118 146 196 242 298 351
#     4  10  18  32  56  88 118 146 196 256 286 348
#     4  11  24  36  54  89 121 154 192 246 307 365
#     4  11  19  33  57  85 114 149 191 243 290 357
#     4  10  20  32  54  92 112 147 196 251 295 344
#     4  11  19  34  59  85 114 143 192 241 300 351
#
# _framework density 17.451115999999999
#
# number of rings (size 3 to 8) (size 9 to 14) (size 15 to 20)
#    0.000    1.455    5.455    1.091    0.000    2.909 
#    0.000    0.000    0.000    0.000   61.455    0.000 
#    0.000    0.000    0.000    0.000    0.000    0.000 
#
# Total GULP energy -245109.070311 kJ/mol
# GULP energy per Si atom -5570.660689 kJ/mol
# Density = 1.741140 g / cm^3
# Si number density = 17.451116 Si / 1000 Ang^3
#
#
#
# Elastic Constant Matrix: (Units=GPa)
#
#
# Indices 1 2 3 4 5 6 
#
# 1 94.9488 25.4052 40.9001 0.0000 0.0000 0.0000
# 2 25.4052 62.9150 29.4848 0.0000 0.0000 0.0000
# 3 40.9001 29.4848 131.7020 0.0000 0.0000 0.0000
# 4 0.0000 0.0000 0.0000 17.5646 0.0000 0.0000
# 5 0.0000 0.0000 0.0000 0.0000 41.0638 0.0000
# 6 0.0000 0.0000 0.0000 0.0000 0.0000 12.4872
#
#
#
# Elastic Compliance Matrix: (Units=1/GPa)
#
#
# Indices 1 2 3 4 5 6 
#
# 1 0.012893 -0.003720 -0.003171 0.000000 0.000000 0.000000
# 2 -0.003720 0.018831 -0.003060 0.000000 0.000000 0.000000
# 3 -0.003171 -0.003060 0.009263 0.000000 0.000000 0.000000
# 4 0.000000 0.000000 0.000000 0.056933 0.000000 0.000000
# 5 0.000000 0.000000 0.000000 0.000000 0.024352 0.000000
# 6 0.000000 0.000000 0.000000 0.000000 0.000000 0.080082
#
#
# Mechanical properties :
#
#
# Convention : Reuss Voigt Hill
#
# Bulk Modulus (GPa) = 47.43047 53.46067 50.44557
# Shear Modulus (GPa) = 21.80682 27.14150 24.47416
#
# Velocity S-wave (km/s) = 3.53880 3.94799 3.74898
# Velocity P-wave (km/s) = 6.62838 7.17518 6.90720
#
# Compressibility (1/GPa) = 0.02108349
#
# Stress axis : x y z
#
# Youngs Moduli (GPa) = 77.55888 53.10398 107.95787
#
# Poissons Ratio (x) = 0.19756 0.34235
# Poissons Ratio (y) = 0.28854 0.33040
# Poissons Ratio (z) = 0.24595 0.16252
#
# Static dielectric constant tensor:
#      x y z
#    x 1.652760 0.000000 0.000000 
#    y 0.000000 1.539530 0.000000 
#    z 0.000000 0.000000 1.644040 
# 
# From -- ./inp_files/18671.got.cif
#   From: 2010.05.17/outbox.cif.g08.bks.cpg/sg60_10_cif.got.tgz:18671.got - 2010.06.03 14:59:27.
