data_PCOD9454395
_publ_section_title
;
Structure prediction by ZEFSAII (Michael W. Deem and Ramdas Pophale) SiO2 
 PCOD9454395
Probable space group: P B C N
;
_chemical_formula_sum "Si O2"
_cell_formula_units_Z 48
_cell_length_a 7.742825
_cell_length_b 17.114644
_cell_length_c 13.110486
_cell_angle_alpha 90.000000
_cell_angle_beta 90.000000
_cell_angle_gamma 90.000000
_cell_volume 1737.345143
_symmetry_space_group_name_H-M "P B C N"
_symmetry_group_IT_number 60
_symmetry_cell_setting 'orthorhombic'
loop_
_space_group_symop_operation_xyz
x,y,z
1/2-x,1/2-y,1/2+z
1/2+x,1/2-y,-z
-x,y,1/2-z
-x,-y,-z
1/2+x,1/2+y,1/2-z
1/2-x,1/2+y,z
x,-y,1/2+z
loop_
_atom_site_type_symbol
_atom_site_label
_atom_site_fract_x
_atom_site_fract_y
_atom_site_fract_z
Si Si1 0.294010 0.787078 0.757461
Si Si2 0.793066 0.955752 0.741863
Si Si3 0.297063 0.802958 0.995376
Si Si4 0.186012 0.635112 0.994242
Si Si5 0.708377 0.377802 0.242927
Si Si6 0.695044 0.468599 0.504244
O O1 0.500000 0.778751 0.750000
O O2 0.258401 0.872423 0.713956
O O3 0.241711 0.792589 0.876364
O O4 0.220729 0.704894 0.716414
O O5 0.748392 0.956371 0.621839
O O6 0.000000 0.957839 0.750000
O O7 0.725038 0.038805 0.782634
O O8 0.286997 0.713090 0.033233
O O9 0.192750 0.878909 0.037431
O O10 0.490818 0.835127 0.998281
O O11 0.246317 0.624946 0.876980
O O12 0.202389 0.545595 0.033721
O O13 0.500000 0.379574 0.250000
O O14 0.500000 0.500000 0.500000
#
# Coordination Sequence:
#
# PCOD9454395 Si02
#       6
#     8   8   8   8   8   8
#     4   9  18  33  52  73 102 139 173 214 269 320
#     4   9  18  33  52  72  98 134 175 214 258 319
#     4  10  20  34  54  81 110 143 183 227 277 332
#     4  10  19  33  53  78 108 141 181 229 276 330
#     4   8  16  33  53  70  98 140 176 211 268 330
#     4  10  20  34  53  78 108 143 179 223 275 323
#
# _framework density 27.628363
#
# number of rings (size 3 to 8) (size 9 to 14) (size 15 to 20)
#    0.000    2.667    0.000    1.500    0.000    1.333 
#    0.000    0.833    0.000    0.000    0.000    0.000 
#    0.000    0.000    0.000    0.000    0.000    0.000 
#
# Total GULP energy -268239.080797 kJ/mol
# GULP energy per Si atom -5588.314183 kJ/mol
# Density = 2.756548 g / cm^3
# Si number density = 27.628363 Si / 1000 Ang^3
#
#
#
# Elastic Constant Matrix: (Units=GPa)
#
#
# Indices 1 2 3 4 5 6 
#
# 1 79.6599 45.0399 -21.6155 0.0000 0.0000 0.0000
# 2 45.0399 417.3121 85.5178 0.0000 0.0000 0.0000
# 3 -21.6155 85.5178 94.6801 0.0000 0.0000 0.0000
# 4 0.0000 0.0000 0.0000 81.0236 0.0000 0.0000
# 5 0.0000 0.0000 0.0000 0.0000 20.9322 0.0000
# 6 0.0000 0.0000 0.0000 0.0000 0.0000 63.2676
#
#
#
# Elastic Compliance Matrix: (Units=1/GPa)
#
#
# Indices 1 2 3 4 5 6 
#
# 1 0.016008 -0.003039 0.006400 0.000000 0.000000 0.000000
# 2 -0.003039 0.003518 -0.003871 0.000000 0.000000 0.000000
# 3 0.006400 -0.003871 0.015519 0.000000 0.000000 0.000000
# 4 0.000000 0.000000 0.000000 0.012342 0.000000 0.000000
# 5 0.000000 0.000000 0.000000 0.000000 0.047773 0.000000
# 6 0.000000 0.000000 0.000000 0.000000 0.000000 0.015806
#
#
# Mechanical properties :
#
#
# Convention : Reuss Voigt Hill
#
# Bulk Modulus (GPa) = 29.39064 89.94853 59.66959
# Shear Modulus (GPa) = 40.54196 65.22533 52.88365
#
# Velocity S-wave (km/s) = 3.83483 4.86409 4.37980
# Velocity P-wave (km/s) = 5.50171 8.01081 6.87175
#
# Compressibility (1/GPa) = 0.03402444
#
# Stress axis : x y z
#
# Youngs Moduli (GPa) = 62.46741 284.28593 64.43547
#
# Poissons Ratio (x) = 0.86402 -0.41238
# Poissons Ratio (y) = 0.18985 0.24943
# Poissons Ratio (z) = -0.39978 1.10048
#
# Static dielectric constant tensor:
#      x y z
#    x 2.059770 0.000000 0.000000 
#    y 0.000000 2.288370 0.000000 
#    z 0.000000 0.000000 0.860930 
# 
# From -- ./inp_files/19270.got.cif
#   From: 2010.05.17/outbox.cif.g08.bks.cpg/sg60_10_cif.got.tgz:19270.got - 2010.06.03 14:59:27.
