data_PCOD9454096
_publ_section_title
;
Structure prediction by ZEFSAII (Michael W. Deem and Ramdas Pophale) SiO2 
 PCOD9454096
Probable space group: P B C N
;
_chemical_formula_sum "Si O2"
_cell_formula_units_Z 28
_cell_length_a 7.092171
_cell_length_b 10.292838
_cell_length_c 16.562005
_cell_angle_alpha 90.000000
_cell_angle_beta 90.000000
_cell_angle_gamma 90.000000
_cell_volume 1209.002634
_symmetry_space_group_name_H-M "P B C N"
_symmetry_group_IT_number 60
_symmetry_cell_setting 'orthorhombic'
loop_
_space_group_symop_operation_xyz
x,y,z
1/2-x,1/2-y,1/2+z
1/2+x,1/2-y,-z
-x,y,1/2-z
-x,-y,-z
1/2+x,1/2+y,1/2-z
1/2-x,1/2+y,z
x,-y,1/2+z
loop_
_atom_site_type_symbol
_atom_site_label
_atom_site_fract_x
_atom_site_fract_y
_atom_site_fract_z
Si Si1 0.902725 0.992031 0.874426
Si Si2 0.228652 0.827376 0.379197
Si Si3 0.000000 0.797809 0.750000
Si Si4 0.254969 0.922575 0.973328
O O1 0.864711 0.892281 0.803282
O O2 0.037400 0.914055 0.938793
O O3 0.043515 0.103528 0.844025
O O4 0.749457 0.059280 0.930923
O O5 0.370093 0.783069 0.309962
O O6 0.162035 0.706533 0.434481
O O7 0.319328 0.941397 0.434277
#
# Coordination Sequence:
#
# PCOD9454096 Si02
#       4
#     8   8   4   8
#     4   8  17  34  54  81 116 154 178 242 296 333
#     4   9  17  34  58  80 115 152 193 237 292 354
#     4  10  18  34  60  82 120 148 194 248 302 338
#     4   8  16  34  56  75 115 150 195 230 287 353
#
# _framework density 23.159585
#
# number of rings (size 3 to 8) (size 9 to 14) (size 15 to 20)
#    1.714    1.714    0.000    0.000    0.000    0.000 
#    5.143    2.857    0.000    0.000    0.000    0.000 
#    0.000    0.000    0.000    0.000    0.000    0.000 
#
# Total GULP energy -155906.663922 kJ/mol
# GULP energy per Si atom -5568.095140 kJ/mol
# Density = 2.310687 g / cm^3
# Si number density = 23.159585 Si / 1000 Ang^3
#
#
#
# Elastic Constant Matrix: (Units=GPa)
#
#
# Indices 1 2 3 4 5 6 
#
# 1 50.0961 29.2289 43.4219 0.0000 0.0000 0.0000
# 2 29.2289 160.1789 78.4103 0.0000 0.0000 0.0000
# 3 43.4219 78.4103 128.4118 0.0000 0.0000 0.0000
# 4 0.0000 0.0000 0.0000 -72.4346 0.0000 0.0000
# 5 0.0000 0.0000 0.0000 0.0000 25.8956 0.0000
# 6 0.0000 0.0000 0.0000 0.0000 0.0000 10.8688
#
#
#
# Elastic Compliance Matrix: (Units=1/GPa)
#
#
# Indices 1 2 3 4 5 6 
#
# 1 0.028291 -0.000684 -0.009149 0.000000 0.000000 0.000000
# 2 -0.000684 0.008921 -0.005216 0.000000 0.000000 0.000000
# 3 -0.009149 -0.005216 0.014066 0.000000 0.000000 0.000000
# 4 0.000000 0.000000 0.000000 -0.013806 0.000000 0.000000
# 5 0.000000 0.000000 0.000000 0.000000 0.038617 0.000000
# 6 0.000000 0.000000 0.000000 0.000000 0.000000 0.092006
#
#
# Mechanical properties :
#
#
# Convention : Reuss Voigt Hill
#
# Bulk Modulus (GPa) = 47.21375 71.20098 59.20737
# Shear Modulus (GPa) = 24.36020 5.37436 14.86728
#
# Velocity S-wave (km/s) = 3.24673 1.52500 2.53642
# Velocity P-wave (km/s) = 5.87244 5.82333 5.84794
#
# Compressibility (1/GPa) = 0.02118027
#
# Stress axis : x y z
#
# Youngs Moduli (GPa) = 35.34754 112.09227 71.09279
#
# Poissons Ratio (x) = 0.07666 0.65041
# Poissons Ratio (y) = 0.02417 0.37083
# Poissons Ratio (z) = 0.32338 0.58469
#
# Static dielectric constant tensor:
#      x y z
#    x 1.997510 0.000000 0.000000 
#    y 0.000000 1.909090 0.000000 
#    z 0.000000 0.000000 1.919630 
# 
# From -- ./inp_files/18899.got.cif
#   From: 2010.05.17/outbox.cif.g08.bks.cpg/sg60_10_cif.got.tgz:18899.got - 2010.06.03 14:59:27.
