data_PCOD9454878
_publ_section_title
;
Structure prediction by ZEFSAII (Michael W. Deem and Ramdas Pophale) SiO2 
 PCOD9454878
Probable space group: P B C N
;
_chemical_formula_sum "Si O2"
_cell_formula_units_Z 56
_cell_length_a 16.165052
_cell_length_b 34.523654
_cell_length_c 5.977000
_cell_angle_alpha 90.000000
_cell_angle_beta 90.000000
_cell_angle_gamma 90.000000
_cell_volume 3335.624210
_symmetry_space_group_name_H-M "P B C N"
_symmetry_group_IT_number 60
_symmetry_cell_setting 'orthorhombic'
loop_
_space_group_symop_operation_xyz
x,y,z
1/2-x,1/2-y,1/2+z
1/2+x,1/2-y,-z
-x,y,1/2-z
-x,-y,-z
1/2+x,1/2+y,1/2-z
1/2-x,1/2+y,z
x,-y,1/2+z
loop_
_atom_site_type_symbol
_atom_site_label
_atom_site_fract_x
_atom_site_fract_y
_atom_site_fract_z
Si Si1 0.750506 0.166227 0.336137
Si Si2 0.402535 0.513468 0.991469
Si Si3 0.000000 0.142707 0.250000
Si Si4 0.088019 0.702993 0.134195
Si Si5 0.000000 0.252612 0.250000
Si Si6 0.356768 0.340828 0.055348
Si Si7 0.633471 0.724237 0.579226
Si Si8 0.628128 0.604201 0.563721
O O1 0.653752 0.168680 0.386849
O O2 0.791542 0.205916 0.436334
O O3 0.797882 0.129052 0.444367
O O4 0.770577 0.164528 0.072132
O O5 0.372573 0.497024 0.746676
O O6 0.379235 0.558654 0.966384
O O7 0.500000 0.500000 0.000000
O O8 0.955801 0.119154 0.447357
O O9 0.075456 0.163756 0.365309
O O10 0.134444 0.734982 0.290750
O O11 0.000000 0.693542 0.250000
O O12 0.063719 0.721850 0.896690
O O13 0.946728 0.228619 0.425811
O O14 0.376202 0.308408 0.234644
O O15 0.365395 0.381725 0.180216
#
# Coordination Sequence:
#
# PCOD9454878 Si02
#       8
#     8   8   4   8   4   8   8   8
#     4  10  23  37  54  76 108 148 188 245 296 346
#     4  10  22  35  57  83 116 157 199 234 284 340
#     4  10  20  31  50  70 110 146 192 230 276 332
#     4  10  23  38  56  76 103 142 190 246 296 353
#     4  10  22  37  52  74 106 132 190 240 290 354
#     4  10  22  33  50  74 106 145 193 233 290 334
#     4  10  22  33  52  77 103 144 187 239 296 343
#     4  10  22  35  52  79 111 152 193 237 280 344
#
# _framework density 16.788463
#
# number of rings (size 3 to 8) (size 9 to 14) (size 15 to 20)
#    0.000    2.000    0.000    2.143   12.000   20.571 
#    0.000    0.000    0.000    0.000    0.000    0.000 
#    0.000    1.143    0.000    0.143    0.000    0.000 
#
# Total GULP energy -311820.759842 kJ/mol
# GULP energy per Si atom -5568.227854 kJ/mol
# Density = 1.675025 g / cm^3
# Si number density = 16.788463 Si / 1000 Ang^3
#
#
#
# Elastic Constant Matrix: (Units=GPa)
#
#
# Indices 1 2 3 4 5 6 
#
# 1 80.0799 43.3704 26.1466 0.0000 0.0000 0.0000
# 2 43.3704 74.0194 25.2344 0.0000 0.0000 0.0000
# 3 26.1466 25.2344 104.8505 0.0000 0.0000 0.0000
# 4 0.0000 0.0000 0.0000 17.8780 0.0000 0.0000
# 5 0.0000 0.0000 0.0000 0.0000 15.8460 0.0000
# 6 0.0000 0.0000 0.0000 0.0000 0.0000 15.2737
#
#
#
# Elastic Compliance Matrix: (Units=1/GPa)
#
#
# Indices 1 2 3 4 5 6 
#
# 1 0.018752 -0.010233 -0.002214 0.000000 0.000000 0.000000
# 2 -0.010233 0.020302 -0.002334 0.000000 0.000000 0.000000
# 3 -0.002214 -0.002334 0.010651 0.000000 0.000000 0.000000
# 4 0.000000 0.000000 0.000000 0.055935 0.000000 0.000000
# 5 0.000000 0.000000 0.000000 0.000000 0.063107 0.000000
# 6 0.000000 0.000000 0.000000 0.000000 0.000000 0.065472
#
#
# Mechanical properties :
#
#
# Convention : Reuss Voigt Hill
#
# Bulk Modulus (GPa) = 49.64330 49.82806 49.73568
# Shear Modulus (GPa) = 18.48462 20.74609 19.61536
#
# Velocity S-wave (km/s) = 3.32178 3.51912 3.42187
# Velocity P-wave (km/s) = 6.65931 6.80122 6.73064
#
# Compressibility (1/GPa) = 0.02014371
#
# Stress axis : x y z
#
# Youngs Moduli (GPa) = 53.32671 49.25732 93.88664
#
# Poissons Ratio (x) = 0.50405 0.20782
# Poissons Ratio (y) = 0.54569 0.21915
# Poissons Ratio (z) = 0.11804 0.11497
#
# Static dielectric constant tensor:
#      x y z
#    x 1.559560 0.000000 0.000000 
#    y 0.000000 1.595100 0.000000 
#    z 0.000000 0.000000 1.666740 
# 
# From -- ./inp_files/1509.got.cif
#   From: 2010.05.17/outbox.cif.g08.bks.cpg/sg60_1_cif.got.tgz:1509.got - 2010.06.03 14:59:27.
