data_PCOD9454648
_publ_section_title
;
Structure prediction by ZEFSAII (Michael W. Deem and Ramdas Pophale) SiO2 
 PCOD9454648
Probable space group: P B C N
;
_chemical_formula_sum "Si O2"
_cell_formula_units_Z 56
_cell_length_a 4.971503
_cell_length_b 19.905501
_cell_length_c 22.079472
_cell_angle_alpha 90.000000
_cell_angle_beta 90.000000
_cell_angle_gamma 90.000000
_cell_volume 2184.990244
_symmetry_space_group_name_H-M "P B C N"
_symmetry_group_IT_number 60
_symmetry_cell_setting 'orthorhombic'
loop_
_space_group_symop_operation_xyz
x,y,z
1/2-x,1/2-y,1/2+z
1/2+x,1/2-y,-z
-x,y,1/2-z
-x,-y,-z
1/2+x,1/2+y,1/2-z
1/2-x,1/2+y,z
x,-y,1/2+z
loop_
_atom_site_type_symbol
_atom_site_label
_atom_site_fract_x
_atom_site_fract_y
_atom_site_fract_z
Si Si1 0.320761 0.942550 0.469496
Si Si2 0.803858 0.533342 0.143961
Si Si3 0.669329 0.130431 0.800354
Si Si4 0.676397 0.403433 0.907628
Si Si5 0.500000 0.525322 0.750000
Si Si6 0.538486 0.225605 0.111712
Si Si7 0.000000 0.749967 0.250000
Si Si8 0.970062 0.310884 0.417365
O O1 0.115155 0.926081 0.523508
O O2 0.479090 0.871728 0.462749
O O3 0.500000 0.000000 0.500000
O O4 0.234720 0.974774 0.405646
O O5 0.611252 0.595632 0.124476
O O6 0.711881 0.519305 0.212395
O O7 0.118121 0.548111 0.130347
O O8 0.500000 0.093940 0.750000
O O9 0.481240 0.150011 0.854622
O O10 0.906004 0.077076 0.803605
O O11 0.770007 0.199491 0.771826
O O12 0.854356 0.336383 0.908460
O O13 0.573694 0.217166 0.185134
O O14 0.818826 0.249135 0.080788
O O15 0.336242 0.287056 0.092433
#
# Coordination Sequence:
#
# PCOD9454648 Si02
#       8
#     8   8   8   8   4   8   4   8
#     4  10  25  46  71 101 139 185 230 296 355 424
#     4  11  26  45  68 103 135 186 230 292 362 424
#     4  10  19  36  60  96 138 170 217 282 347 414
#     4  11  26  48  68  95 142 187 241 281 349 423
#     4  11  26  36  70 102 144 178 229 302 358 440
#     4  11  24  42  67  98 134 183 230 287 341 423
#     4   9  20  36  56  94 130 176 211 274 348 404
#     4  11  24  40  69 101 132 172 235 280 351 408
#
# _framework density 25.629403
#
# number of rings (size 3 to 8) (size 9 to 14) (size 15 to 20)
#    0.000    1.429    1.429    2.143   10.000    4.571 
#    0.000    0.000    0.000    0.000    0.000    0.000 
#    0.000    0.000    0.000    0.000    0.000    0.000 
#
# Total GULP energy -312139.625447 kJ/mol
# GULP energy per Si atom -5573.921883 kJ/mol
# Density = 2.557107 g / cm^3
# Si number density = 25.629403 Si / 1000 Ang^3
#
#
#
# Elastic Constant Matrix: (Units=GPa)
#
#
# Indices 1 2 3 4 5 6 
#
# 1 94.1274 4.3603 9.2172 0.0000 0.0000 0.0000
# 2 4.3603 82.4835 29.0289 0.0000 0.0000 0.0000
# 3 9.2172 29.0289 91.4089 0.0000 0.0000 0.0000
# 4 0.0000 0.0000 0.0000 38.6637 0.0000 0.0000
# 5 0.0000 0.0000 0.0000 0.0000 34.3871 0.0000
# 6 0.0000 0.0000 0.0000 0.0000 0.0000 17.3194
#
#
#
# Elastic Compliance Matrix: (Units=1/GPa)
#
#
# Indices 1 2 3 4 5 6 
#
# 1 0.010733 -0.000210 -0.001016 0.000000 0.000000 0.000000
# 2 -0.000210 0.013653 -0.004315 0.000000 0.000000 0.000000
# 3 -0.001016 -0.004315 0.012412 0.000000 0.000000 0.000000
# 4 0.000000 0.000000 0.000000 0.025864 0.000000 0.000000
# 5 0.000000 0.000000 0.000000 0.000000 0.029081 0.000000
# 6 0.000000 0.000000 0.000000 0.000000 0.000000 0.057739
#
#
# Mechanical properties :
#
#
# Convention : Reuss Voigt Hill
#
# Bulk Modulus (GPa) = 38.88286 39.24808 39.06547
# Shear Modulus (GPa) = 29.56207 33.10159 31.33183
#
# Velocity S-wave (km/s) = 3.39992 3.59771 3.50021
# Velocity P-wave (km/s) = 5.53324 5.71007 5.62235
#
# Compressibility (1/GPa) = 0.02571827
#
# Stress axis : x y z
#
# Youngs Moduli (GPa) = 93.16997 73.24269 80.56403
#
# Poissons Ratio (x) = 0.01538 0.08182
# Poissons Ratio (y) = 0.01956 0.34761
# Poissons Ratio (z) = 0.09462 0.31602
#
# Static dielectric constant tensor:
#      x y z
#    x 2.383950 0.000000 0.000000 
#    y 0.000000 2.072140 0.000000 
#    z 0.000000 0.000000 2.173710 
# 
# From -- ./inp_files/23704.got.cif
#   From: 2010.05.17/outbox.cif.g08.bks.cpg/sg60_12_cif.got.tgz:23704.got - 2010.06.03 14:59:27.
