data_PCOD9454631
_publ_section_title
;
Structure prediction by ZEFSAII (Michael W. Deem and Ramdas Pophale) SiO2 
 PCOD9454631
Probable space group: P B C N
;
_chemical_formula_sum "Si O2"
_cell_formula_units_Z 64
_cell_length_a 22.698245
_cell_length_b 17.137791
_cell_length_c 8.089140
_cell_angle_alpha 90.000000
_cell_angle_beta 90.000000
_cell_angle_gamma 90.000000
_cell_volume 3146.657493
_symmetry_space_group_name_H-M "P B C N"
_symmetry_group_IT_number 60
_symmetry_cell_setting 'orthorhombic'
loop_
_space_group_symop_operation_xyz
x,y,z
1/2-x,1/2-y,1/2+z
1/2+x,1/2-y,-z
-x,y,1/2-z
-x,-y,-z
1/2+x,1/2+y,1/2-z
1/2-x,1/2+y,z
x,-y,1/2+z
loop_
_atom_site_type_symbol
_atom_site_label
_atom_site_fract_x
_atom_site_fract_y
_atom_site_fract_z
Si Si1 0.304993 0.562028 0.335926
Si Si2 0.825166 0.478021 0.576807
Si Si3 0.834685 0.900221 0.285429
Si Si4 0.063320 0.384116 0.814130
Si Si5 0.201854 0.380806 0.255414
Si Si6 0.530622 0.239441 0.925840
Si Si7 0.642829 0.283329 0.756841
Si Si8 0.416598 0.270479 0.104239
O O1 0.235742 0.543264 0.327747
O O2 0.320349 0.583167 0.523022
O O3 0.342759 0.485786 0.290943
O O4 0.320096 0.638015 0.230725
O O5 0.884377 0.444675 0.658294
O O6 0.815548 0.436133 0.400566
O O7 0.825347 0.572205 0.588742
O O8 0.771799 0.871229 0.216266
O O9 0.886480 0.836857 0.283226
O O10 0.083855 0.313470 0.693405
O O11 0.000000 0.415335 0.750000
O O12 0.049630 0.340296 0.986396
O O13 0.177542 0.296090 0.213402
O O14 0.500000 0.223082 0.750000
O O15 0.588113 0.287963 0.880600
O O16 0.484384 0.281361 0.047474
O O17 0.618512 0.272877 0.569266
#
# Coordination Sequence:
#
# PCOD9454631 Si02
#       8
#     8   8   8   8   8   8   8   8
#     4   9  20  36  56  81 118 148 192 235 292 347
#     4  10  21  38  53  80 115 150 189 242 285 348
#     4   9  19  38  53  84 116 152 188 240 292 349
#     4  10  20  36  55  83 113 145 195 238 286 345
#     4  10  21  36  57  80 118 150 194 237 292 345
#     4   9  18  36  58  82 112 150 192 243 283 340
#     4  10  19  36  58  84 110 153 196 233 294 354
#     4   9  20  34  58  82 116 148 190 239 293 344
#
# _framework density 20.339043
#
# number of rings (size 3 to 8) (size 9 to 14) (size 15 to 20)
#    0.000    2.500    1.250    0.000    3.500    1.000 
#    0.000    3.125    0.000    5.250    0.000    0.000 
#    0.000    0.000    0.000    0.000    0.000    0.000 
#
# Total GULP energy -356869.180168 kJ/mol
# GULP energy per Si atom -5576.080940 kJ/mol
# Density = 2.029275 g / cm^3
# Si number density = 20.339043 Si / 1000 Ang^3
#
#
#
# Elastic Constant Matrix: (Units=GPa)
#
#
# Indices 1 2 3 4 5 6 
#
# 1 72.4699 35.9868 6.5605 0.0000 0.0000 0.0000
# 2 35.9868 58.8883 -2.9678 0.0000 0.0000 0.0000
# 3 6.5605 -2.9678 35.2064 0.0000 0.0000 0.0000
# 4 0.0000 0.0000 0.0000 16.2900 0.0000 0.0000
# 5 0.0000 0.0000 0.0000 0.0000 15.0035 0.0000
# 6 0.0000 0.0000 0.0000 0.0000 0.0000 32.7286
#
#
#
# Elastic Compliance Matrix: (Units=1/GPa)
#
#
# Indices 1 2 3 4 5 6 
#
# 1 0.020628 -0.012854 -0.004927 0.000000 0.000000 0.000000
# 2 -0.012854 0.025064 0.004508 0.000000 0.000000 0.000000
# 3 -0.004927 0.004508 0.029702 0.000000 0.000000 0.000000
# 4 0.000000 0.000000 0.000000 0.061387 0.000000 0.000000
# 5 0.000000 0.000000 0.000000 0.000000 0.066651 0.000000
# 6 0.000000 0.000000 0.000000 0.000000 0.000000 0.030554
#
#
# Mechanical properties :
#
#
# Convention : Reuss Voigt Hill
#
# Bulk Modulus (GPa) = 20.47216 27.30260 23.88738
# Shear Modulus (GPa) = 18.06255 21.27009 19.66632
#
# Velocity S-wave (km/s) = 2.98329 3.23735 3.11291
# Velocity P-wave (km/s) = 4.68551 5.23706 4.96894
#
# Compressibility (1/GPa) = 0.04884683
#
# Stress axis : x y z
#
# Youngs Moduli (GPa) = 48.47787 39.89831 33.66760
#
# Poissons Ratio (x) = 0.51286 0.16590
# Poissons Ratio (y) = 0.62314 -0.15178
# Poissons Ratio (z) = 0.23887 -0.17987
#
# Static dielectric constant tensor:
#      x y z
#    x 1.732030 0.000000 0.000000 
#    y 0.000000 1.716090 0.000000 
#    z 0.000000 0.000000 1.769740 
# 
# From -- ./inp_files/7984.got.cif
#   From: 2010.05.17/outbox.cif.g08.bks.cpg/sg60_4_cif.got.tgz:7984.got - 2010.06.03 14:59:27.
