data_PCOD9454670
_publ_section_title
;
Structure prediction by ZEFSAII (Michael W. Deem and Ramdas Pophale) SiO2 
 PCOD9454670
Probable space group: P B C N
;
_chemical_formula_sum "Si O2"
_cell_formula_units_Z 64
_cell_length_a 24.480130
_cell_length_b 8.079563
_cell_length_c 14.049148
_cell_angle_alpha 90.000000
_cell_angle_beta 90.000000
_cell_angle_gamma 90.000000
_cell_volume 2778.763458
_symmetry_space_group_name_H-M "P B C N"
_symmetry_group_IT_number 60
_symmetry_cell_setting 'orthorhombic'
loop_
_space_group_symop_operation_xyz
x,y,z
1/2-x,1/2-y,1/2+z
1/2+x,1/2-y,-z
-x,y,1/2-z
-x,-y,-z
1/2+x,1/2+y,1/2-z
1/2-x,1/2+y,z
x,-y,1/2+z
loop_
_atom_site_type_symbol
_atom_site_label
_atom_site_fract_x
_atom_site_fract_y
_atom_site_fract_z
Si Si1 0.238004 0.888097 0.921767
Si Si2 0.430130 0.544662 0.409122
Si Si3 0.927198 0.565945 0.593287
Si Si4 0.835133 0.158169 0.523250
Si Si5 0.816587 0.403285 0.175187
Si Si6 0.048526 0.929349 0.138719
Si Si7 0.954612 0.559186 0.369727
Si Si8 0.112409 0.245722 0.172742
O O1 0.293454 0.803840 0.954059
O O2 0.196350 0.743283 0.898420
O O3 0.207504 0.007587 0.994763
O O4 0.260661 0.991429 0.829999
O O5 0.427609 0.738110 0.380219
O O6 0.377064 0.425901 0.401142
O O7 0.438117 0.556390 0.524863
O O8 0.483958 0.467448 0.361801
O O9 0.870582 0.503223 0.637282
O O10 0.932272 0.556349 0.478802
O O11 0.980384 0.468423 0.628039
O O12 0.869818 0.220981 0.435631
O O13 0.834891 0.308040 0.269651
O O14 0.059318 0.740812 0.168889
O O15 0.083312 0.069690 0.193108
O O16 0.929467 0.398149 0.320819
#
# Coordination Sequence:
#
# PCOD9454670 Si02
#       8
#     8   8   8   8   8   8   8   8
#     4  10  23  43  63  88 118 165 227 262 312 386
#     4   9  16  33  60  89 120 159 202 254 303 363
#     4  10  19  36  63  90 128 167 201 258 303 374
#     4  10  21  39  66  91 114 162 220 264 309 372
#     4  11  24  42  62  90 129 167 204 274 334 369
#     4   9  19  34  58  93 126 157 205 249 305 383
#     4  10  21  36  63  99 125 166 217 242 301 396
#     4  11  23  41  62  95 130 162 199 268 328 376
#
# _framework density 23.031827
#
# number of rings (size 3 to 8) (size 9 to 14) (size 15 to 20)
#    0.000    2.000    2.500    0.750    7.000    1.500 
#    4.500    0.000    2.750    0.000    0.000    0.000 
#    0.000    0.000    0.000    0.000    0.000    0.000 
#
# Total GULP energy -357154.056585 kJ/mol
# GULP energy per Si atom -5580.532134 kJ/mol
# Density = 2.297941 g / cm^3
# Si number density = 23.031827 Si / 1000 Ang^3
#
#
#
# Elastic Constant Matrix: (Units=GPa)
#
#
# Indices 1 2 3 4 5 6 
#
# 1 83.5876 40.2959 -2.0250 0.0000 0.0000 0.0000
# 2 40.2959 113.7671 10.2826 0.0000 0.0000 0.0000
# 3 -2.0250 10.2826 32.2942 0.0000 0.0000 0.0000
# 4 0.0000 0.0000 0.0000 15.4723 0.0000 0.0000
# 5 0.0000 0.0000 0.0000 0.0000 31.1494 0.0000
# 6 0.0000 0.0000 0.0000 0.0000 0.0000 29.1187
#
#
#
# Elastic Compliance Matrix: (Units=1/GPa)
#
#
# Indices 1 2 3 4 5 6 
#
# 1 0.014643 -0.005426 0.002646 0.000000 0.000000 0.000000
# 2 -0.005426 0.011061 -0.003862 0.000000 0.000000 0.000000
# 3 0.002646 -0.003862 0.032361 0.000000 0.000000 0.000000
# 4 0.000000 0.000000 0.000000 0.064632 0.000000 0.000000
# 5 0.000000 0.000000 0.000000 0.000000 0.032103 0.000000
# 6 0.000000 0.000000 0.000000 0.000000 0.000000 0.034342
#
#
# Mechanical properties :
#
#
# Convention : Reuss Voigt Hill
#
# Bulk Modulus (GPa) = 22.33090 36.30621 29.31856
# Shear Modulus (GPa) = 23.00405 27.22110 25.11257
#
# Velocity S-wave (km/s) = 3.16380 3.44159 3.30562
# Velocity P-wave (km/s) = 4.80238 5.62054 5.22749
#
# Compressibility (1/GPa) = 0.04478099
#
# Stress axis : x y z
#
# Youngs Moduli (GPa) = 68.29099 90.41014 30.90146
#
# Poissons Ratio (x) = 0.49054 -0.08176
# Poissons Ratio (y) = 0.37053 0.11934
# Poissons Ratio (z) = -0.18068 0.34916
#
# Static dielectric constant tensor:
#      x y z
#    x 1.871990 0.000000 0.000000 
#    y 0.000000 1.897940 0.000000 
#    z 0.000000 0.000000 1.941620 
# 
# From -- ./inp_files/17962.got.cif
#   From: 2010.05.17/outbox.cif.g08.bks.cpg/sg60_9_cif.got.tgz:17962.got - 2010.06.03 14:59:27.
