data_PCOD9454807
_publ_section_title
;
Structure prediction by ZEFSAII (Michael W. Deem and Ramdas Pophale) SiO2 
 PCOD9454807
Probable space group: P B C N
;
_chemical_formula_sum "Si O2"
_cell_formula_units_Z 56
_cell_length_a 18.792610
_cell_length_b 15.503445
_cell_length_c 8.617722
_cell_angle_alpha 90.000000
_cell_angle_beta 90.000000
_cell_angle_gamma 90.000000
_cell_volume 2510.774990
_symmetry_space_group_name_H-M "P B C N"
_symmetry_group_IT_number 60
_symmetry_cell_setting 'orthorhombic'
loop_
_space_group_symop_operation_xyz
x,y,z
1/2-x,1/2-y,1/2+z
1/2+x,1/2-y,-z
-x,y,1/2-z
-x,-y,-z
1/2+x,1/2+y,1/2-z
1/2-x,1/2+y,z
x,-y,1/2+z
loop_
_atom_site_type_symbol
_atom_site_label
_atom_site_fract_x
_atom_site_fract_y
_atom_site_fract_z
Si Si1 0.500000 0.643782 0.250000
Si Si2 0.838890 0.566107 0.425738
Si Si3 0.500000 0.360977 0.250000
Si Si4 0.184507 0.389297 0.934265
Si Si5 0.923487 0.254559 0.518297
Si Si6 0.017339 0.593101 0.932533
Si Si7 0.899438 0.001613 0.329687
Si Si8 0.299417 0.479626 0.420083
O O1 0.538658 0.704621 0.375505
O O2 0.435946 0.574629 0.276482
O O3 0.847564 0.461993 0.448440
O O4 0.900612 0.610194 0.524785
O O5 0.763272 0.579062 0.511818
O O6 0.839032 0.591750 0.245083
O O7 0.558114 0.303352 0.165186
O O8 0.455287 0.425889 0.142457
O O9 0.156222 0.295078 0.984024
O O10 0.266729 0.422826 0.931358
O O11 0.970213 0.340545 0.527798
O O12 0.000000 0.597667 0.750000
O O13 0.000000 0.500000 0.000000
O O14 0.871238 0.040938 0.487856
O O15 0.825617 0.968770 0.254478
#
# Coordination Sequence:
#
# PCOD9454807 Si02
#       8
#     4   8   4   8   8   8   8   8
#     4  11  26  44  67 100 134 180 227 298 344 395
#     4  10  20  36  61  98 130 175 227 260 331 408
#     4  11  26  42  69 102 128 178 231 292 340 397
#     4  10  21  37  64  97 136 177 219 271 342 417
#     4  12  24  42  62  97 147 168 221 284 341 401
#     4  12  23  36  63  94 132 188 220 263 328 412
#     4  11  22  45  74  95 126 178 244 283 342 405
#     4  10  19  39  71  96 126 171 229 284 324 419
#
# _framework density 22.303868999999999
#
# number of rings (size 3 to 8) (size 9 to 14) (size 15 to 20)
#    0.857    0.286    3.571    3.429    1.000    2.286 
#    0.000    1.429    6.286    0.000    0.000    0.000 
#    0.000    0.000    0.000    0.000    0.000    0.000 
#
# Total GULP energy -311757.730896 kJ/mol
# GULP energy per Si atom -5567.102337 kJ/mol
# Density = 2.225310 g / cm^3
# Si number density = 22.303869 Si / 1000 Ang^3
#
#
#
# Elastic Constant Matrix: (Units=GPa)
#
#
# Indices 1 2 3 4 5 6 
#
# 1 96.3652 24.7086 12.6159 0.0000 0.0000 0.0000
# 2 24.7086 71.0862 18.6684 0.0000 0.0000 0.0000
# 3 12.6159 18.6684 85.5543 0.0000 0.0000 0.0000
# 4 0.0000 0.0000 0.0000 22.0666 0.0000 0.0000
# 5 0.0000 0.0000 0.0000 0.0000 36.3455 0.0000
# 6 0.0000 0.0000 0.0000 0.0000 0.0000 35.1359
#
#
#
# Elastic Compliance Matrix: (Units=1/GPa)
#
#
# Indices 1 2 3 4 5 6 
#
# 1 0.011453 -0.003752 -0.000870 0.000000 0.000000 0.000000
# 2 -0.003752 0.016152 -0.002971 0.000000 0.000000 0.000000
# 3 -0.000870 -0.002971 0.012465 0.000000 0.000000 0.000000
# 4 0.000000 0.000000 0.000000 0.045317 0.000000 0.000000
# 5 0.000000 0.000000 0.000000 0.000000 0.027514 0.000000
# 6 0.000000 0.000000 0.000000 0.000000 0.000000 0.028461
#
#
# Mechanical properties :
#
#
# Convention : Reuss Voigt Hill
#
# Bulk Modulus (GPa) = 40.18810 40.55459 40.37135
# Shear Modulus (GPa) = 30.33168 31.84378 31.08773
#
# Velocity S-wave (km/s) = 3.69172 3.78262 3.73745
# Velocity P-wave (km/s) = 6.01908 6.10736 6.06338
#
# Compressibility (1/GPa) = 0.02488299
#
# Stress axis : x y z
#
# Youngs Moduli (GPa) = 87.31138 61.91179 80.22401
#
# Poissons Ratio (x) = 0.23232 0.06980
# Poissons Ratio (y) = 0.32764 0.23835
# Poissons Ratio (z) = 0.07597 0.18395
#
# Static dielectric constant tensor:
#      x y z
#    x 1.880860 0.000000 0.000000 
#    y 0.000000 1.840400 0.000000 
#    z 0.000000 0.000000 1.891000 
# 
# From -- ./inp_files/7445.got.cif
#   From: 2010.05.17/outbox.cif.g08.bks.cpg/sg60_4_cif.got.tgz:7445.got - 2010.06.03 14:59:27.
