data_PCOD9454007
_publ_section_title
;
Structure prediction by ZEFSAII (Michael W. Deem and Ramdas Pophale) SiO2 
 PCOD9454007
Probable space group: P B C N
;
_chemical_formula_sum "Si O2"
_cell_formula_units_Z 60
_cell_length_a 13.357396
_cell_length_b 12.629171
_cell_length_c 14.854079
_cell_angle_alpha 90.000000
_cell_angle_beta 90.000000
_cell_angle_gamma 90.000000
_cell_volume 2505.776745
_symmetry_space_group_name_H-M "P B C N"
_symmetry_group_IT_number 60
_symmetry_cell_setting 'orthorhombic'
loop_
_space_group_symop_operation_xyz
x,y,z
1/2-x,1/2-y,1/2+z
1/2+x,1/2-y,-z
-x,y,1/2-z
-x,-y,-z
1/2+x,1/2+y,1/2-z
1/2-x,1/2+y,z
x,-y,1/2+z
loop_
_atom_site_type_symbol
_atom_site_label
_atom_site_fract_x
_atom_site_fract_y
_atom_site_fract_z
Si Si1 0.782316 0.519621 0.914792
Si Si2 0.609658 0.133198 0.547205
Si Si3 0.500000 0.287982 0.750000
Si Si4 0.626909 0.668127 0.704402
Si Si5 0.970625 0.183884 0.447816
Si Si6 0.797552 0.724683 0.042030
Si Si7 0.651401 0.098287 0.730210
Si Si8 0.065748 0.907477 0.119731
O O1 0.844476 0.537877 0.823316
O O2 0.663525 0.517253 0.886387
O O3 0.840896 0.428156 0.966245
O O4 0.787062 0.618759 0.984468
O O5 0.505980 0.193949 0.537154
O O6 0.687837 0.229981 0.563443
O O7 0.602386 0.061157 0.636808
O O8 0.509029 0.346725 0.844901
O O9 0.595718 0.209815 0.748270
O O10 0.640325 0.766837 0.636341
O O11 0.733232 0.612028 0.704496
O O12 0.545279 0.585852 0.664359
O O13 0.603737 0.685486 0.810402
O O14 0.856461 0.190454 0.479486
O O15 0.036136 0.118338 0.517937
#
# Coordination Sequence:
#
# PCOD9454007 Si02
#       8
#     8   8   4   8   8   8   8   8
#     4  11  20  37  61  85 113 159 195 241 303 356
#     4  10  22  38  57  86 118 149 198 246 292 359
#     4  10  18  32  56  80 116 162 188 242 304 348
#     4   8  17  33  59  83 115 153 194 241 298 354
#     4  10  19  35  58  82 115 152 198 235 297 355
#     4  10  19  37  58  85 112 153 194 241 296 352
#     4   9  19  37  53  82 118 155 191 241 301 351
#     4   9  17  34  60  87 112 155 196 245 297 353
#
# _framework density 23.944671
#
# number of rings (size 3 to 8) (size 9 to 14) (size 15 to 20)
#    0.000    2.400    2.667    0.000    0.000    0.533 
#    2.400    7.333    0.000    1.600    0.000    0.000 
#    0.000    0.000    0.000    0.000    0.000    0.000 
#
# Total GULP energy -334035.293577 kJ/mol
# GULP energy per Si atom -5567.254893 kJ/mol
# Density = 2.389017 g / cm^3
# Si number density = 23.944671 Si / 1000 Ang^3
#
#
#
# Elastic Constant Matrix: (Units=GPa)
#
#
# Indices 1 2 3 4 5 6 
#
# 1 94.4769 18.9255 28.3182 0.0000 0.0000 0.0000
# 2 18.9255 32.2664 19.4606 0.0000 0.0000 0.0000
# 3 28.3182 19.4606 156.2552 0.0000 0.0000 0.0000
# 4 0.0000 0.0000 0.0000 -5.7006 0.0000 0.0000
# 5 0.0000 0.0000 0.0000 0.0000 26.7799 0.0000
# 6 0.0000 0.0000 0.0000 0.0000 0.0000 0.3538
#
#
#
# Elastic Compliance Matrix: (Units=1/GPa)
#
#
# Indices 1 2 3 4 5 6 
#
# 1 0.012285 -0.006339 -0.001437 0.000000 0.000000 0.000000
# 2 -0.006339 0.036780 -0.003432 0.000000 0.000000 0.000000
# 3 -0.001437 -0.003432 0.007088 0.000000 0.000000 0.000000
# 4 0.000000 0.000000 0.000000 -0.175421 0.000000 0.000000
# 5 0.000000 0.000000 0.000000 0.000000 0.037341 0.000000
# 6 0.000000 0.000000 0.000000 0.000000 0.000000 2.826302
#
#
# Mechanical properties :
#
#
# Convention : Reuss Voigt Hill
#
# Bulk Modulus (GPa) = 29.64112 46.26744 37.95428
# Shear Modulus (GPa) = 1.79983 18.70624 10.25304
#
# Velocity S-wave (km/s) = 0.86793 2.79808 2.07154
# Velocity P-wave (km/s) = 3.66200 5.45927 4.64832
#
# Compressibility (1/GPa) = 0.03373692
#
# Stress axis : x y z
#
# Youngs Moduli (GPa) = 81.39917 27.18877 141.09095
#
# Poissons Ratio (x) = 0.17235 0.20274
# Poissons Ratio (y) = 0.51599 0.48421
# Poissons Ratio (z) = 0.11697 0.09331
#
# Static dielectric constant tensor:
#      x y z
#    x 1.918530 0.000000 0.000000 
#    y 0.000000 1.969080 0.000000 
#    z 0.000000 0.000000 1.993010 
# 
# From -- ./inp_files/17013.got.cif
#   From: 2010.05.17/outbox.cif.g08.bks.cpg/sg60_9_cif.got.tgz:17013.got - 2010.06.03 14:59:27.
