data_PCOD9454633
_publ_section_title
;
Structure prediction by ZEFSAII (Michael W. Deem and Ramdas Pophale) SiO2 
 PCOD9454633
Probable space group: P B C N
;
_chemical_formula_sum "Si O2"
_cell_formula_units_Z 64
_cell_length_a 14.302247
_cell_length_b 8.997947
_cell_length_c 24.094709
_cell_angle_alpha 90.000000
_cell_angle_beta 90.000000
_cell_angle_gamma 90.000000
_cell_volume 3100.768834
_symmetry_space_group_name_H-M "P B C N"
_symmetry_group_IT_number 60
_symmetry_cell_setting 'orthorhombic'
loop_
_space_group_symop_operation_xyz
x,y,z
1/2-x,1/2-y,1/2+z
1/2+x,1/2-y,-z
-x,y,1/2-z
-x,-y,-z
1/2+x,1/2+y,1/2-z
1/2-x,1/2+y,z
x,-y,1/2+z
loop_
_atom_site_type_symbol
_atom_site_label
_atom_site_fract_x
_atom_site_fract_y
_atom_site_fract_z
Si Si1 0.263649 0.525899 0.335633
Si Si2 0.152948 0.380426 0.941424
Si Si3 0.539784 0.275144 0.418790
Si Si4 0.174547 0.285386 0.486550
Si Si5 0.556308 0.678988 0.306420
Si Si6 0.440127 0.575279 0.403854
Si Si7 0.919873 0.827365 0.294894
Si Si8 0.782917 0.720476 0.746995
O O1 0.196416 0.608332 0.379179
O O2 0.357700 0.487735 0.369984
O O3 0.299457 0.628013 0.285910
O O4 0.210336 0.397742 0.302810
O O5 0.219789 0.269340 0.975999
O O6 0.162622 0.545772 0.966303
O O7 0.047341 0.323184 0.939586
O O8 0.632964 0.235871 0.452393
O O9 0.508665 0.447939 0.426375
O O10 0.555948 0.253680 0.353391
O O11 0.111187 0.175395 0.448946
O O12 0.500000 0.709076 0.250000
O O13 0.493497 0.685200 0.361283
O O14 0.583508 0.504682 0.305619
O O15 0.645870 0.783892 0.298332
O O16 0.821421 0.780380 0.269965
O O17 0.000000 0.798753 0.250000
#
# Coordination Sequence:
#
# PCOD9454633 Si02
#       8
#     8   8   8   8   8   8   8   8
#     4  11  20  35  64  90 123 163 211 257 303 389
#     4  11  23  42  66  96 128 165 218 274 321 380
#     4  11  23  44  68  92 126 170 221 268 326 387
#     4  11  24  43  66  96 123 165 220 272 322 383
#     4  10  19  36  58  86 126 162 202 255 311 385
#     4  10  20  40  65  90 122 170 216 261 322 378
#     4  10  21  41  62  89 127 169 204 256 325 384
#     4  12  20  36  58  94 124 163 210 253 317 377
#
# _framework density 20.640042000000001
#
# number of rings (size 3 to 8) (size 9 to 14) (size 15 to 20)
#    0.000    1.250    2.500    6.750    0.000    0.000 
#    9.000    0.625    0.000    0.000    0.000    0.000 
#    0.000    0.000    0.000    0.000    0.000    0.000 
#
# Total GULP energy -357486.617833 kJ/mol
# GULP energy per Si atom -5585.728404 kJ/mol
# Density = 2.059306 g / cm^3
# Si number density = 20.640042 Si / 1000 Ang^3
#
#
#
# Elastic Constant Matrix: (Units=GPa)
#
#
# Indices 1 2 3 4 5 6 
#
# 1 85.8869 6.1551 24.6276 0.0000 0.0000 0.0000
# 2 6.1551 42.6338 17.9198 0.0000 0.0000 0.0000
# 3 24.6276 17.9198 86.1006 0.0000 0.0000 0.0000
# 4 0.0000 0.0000 0.0000 -81.5910 0.0000 0.0000
# 5 0.0000 0.0000 0.0000 0.0000 -3.6313 0.0000
# 6 0.0000 0.0000 0.0000 0.0000 0.0000 15.4268
#
#
#
# Elastic Compliance Matrix: (Units=1/GPa)
#
#
# Indices 1 2 3 4 5 6 
#
# 1 0.012688 -0.000336 -0.003559 0.000000 0.000000 0.000000
# 2 -0.000336 0.025713 -0.005256 0.000000 0.000000 0.000000
# 3 -0.003559 -0.005256 0.013726 0.000000 0.000000 0.000000
# 4 0.000000 0.000000 0.000000 -0.012256 0.000000 0.000000
# 5 0.000000 0.000000 0.000000 0.000000 -0.275382 0.000000
# 6 0.000000 0.000000 0.000000 0.000000 0.000000 0.064822
#
#
# Mechanical properties :
#
#
# Convention : Reuss Voigt Hill
#
# Bulk Modulus (GPa) = 29.56304 34.66961 32.11633
# Shear Modulus (GPa) = -35.43268 -2.89786 -19.16527
#
# Velocity S-wave (km/s) = -4.14780 -1.18619 -3.05051
# Velocity P-wave (km/s) = 2.92997 3.86751 1.78507
#
# Compressibility (1/GPa) = 0.03382602
#
# Stress axis : x y z
#
# Youngs Moduli (GPa) = 78.81538 38.89080 72.85335
#
# Poissons Ratio (x) = 0.01306 0.25931
# Poissons Ratio (y) = 0.02646 0.38288
# Poissons Ratio (z) = 0.28053 0.20439
#
# Static dielectric constant tensor:
#      x y z
#    x 1.769830 0.000000 0.000000 
#    y 0.000000 1.788740 0.000000 
#    z 0.000000 0.000000 1.869150 
# 
# From -- ./inp_files/24460.got.cif
#   From: 2010.05.17/outbox.cif.g08.bks.cpg/sg60_13_cif.got.tgz:24460.got - 2010.06.03 14:59:27.
