data_PCOD9454996
_publ_section_title
;
Structure prediction by ZEFSAII (Michael W. Deem and Ramdas Pophale) SiO2 
 PCOD9454996
Probable space group: P B C N
;
_chemical_formula_sum "Si O2"
_cell_formula_units_Z 40
_cell_length_a 19.866576
_cell_length_b 12.576454
_cell_length_c 9.459651
_cell_angle_alpha 90.000000
_cell_angle_beta 90.000000
_cell_angle_gamma 90.000000
_cell_volume 2363.504011
_symmetry_space_group_name_H-M "P B C N"
_symmetry_group_IT_number 60
_symmetry_cell_setting 'orthorhombic'
loop_
_space_group_symop_operation_xyz
x,y,z
1/2-x,1/2-y,1/2+z
1/2+x,1/2-y,-z
-x,y,1/2-z
-x,-y,-z
1/2+x,1/2+y,1/2-z
1/2-x,1/2+y,z
x,-y,1/2+z
loop_
_atom_site_type_symbol
_atom_site_label
_atom_site_fract_x
_atom_site_fract_y
_atom_site_fract_z
Si Si1 0.703529 0.905507 0.526747
Si Si2 0.661384 0.345106 0.697750
Si Si3 0.449543 0.518383 0.873153
Si Si4 0.667955 0.668991 0.529998
Si Si5 0.696559 0.892815 0.193045
O O1 0.777137 0.885106 0.598251
O O2 0.663517 0.795676 0.545915
O O3 0.707386 0.920612 0.357817
O O4 0.671104 0.005432 0.606486
O O5 0.595373 0.414358 0.664516
O O6 0.655152 0.217348 0.678468
O O7 0.678995 0.358342 0.864216
O O8 0.500000 0.549636 0.750000
O O9 0.396671 0.608645 0.913739
O O10 0.500000 0.500000 0.000000
O O11 0.731723 0.633141 0.621566
#
# Coordination Sequence:
#
# PCOD9454996 Si02
#       5
#     8   8   8   8   8
#     4  10  20  34  57  83 114 143 180 237 280 330
#     4  10  21  37  54  82 113 146 188 227 283 326
#     4  12  24  38  58  80 112 153 187 226 269 335
#     4  10  21  37  54  82 113 145 189 227 281 326
#     4  10  20  34  57  83 114 144 179 238 280 329
#
# _framework density 16.924022999999998
#
# number of rings (size 3 to 8) (size 9 to 14) (size 15 to 20)
#    0.000    1.600    4.000    1.200    2.800    1.600 
#    0.000    0.000    0.000    2.400    0.000    0.000 
#    0.000    0.000    0.000    0.000    0.000    0.000 
#
# Total GULP energy -223071.703784 kJ/mol
# GULP energy per Si atom -5576.792595 kJ/mol
# Density = 1.688550 g / cm^3
# Si number density = 16.924023 Si / 1000 Ang^3
#
#
#
# Elastic Constant Matrix: (Units=GPa)
#
#
# Indices 1 2 3 4 5 6 
#
# 1 66.1017 42.0109 29.8098 0.0000 0.0000 0.0000
# 2 42.0109 140.7151 66.6796 0.0000 0.0000 0.0000
# 3 29.8098 66.6796 130.4688 0.0000 0.0000 0.0000
# 4 0.0000 0.0000 0.0000 31.6348 0.0000 0.0000
# 5 0.0000 0.0000 0.0000 0.0000 26.9723 0.0000
# 6 0.0000 0.0000 0.0000 0.0000 0.0000 19.4489
#
#
#
# Elastic Compliance Matrix: (Units=1/GPa)
#
#
# Indices 1 2 3 4 5 6 
#
# 1 0.019023 -0.004777 -0.001905 0.000000 0.000000 0.000000
# 2 -0.004777 0.010577 -0.004314 0.000000 0.000000 0.000000
# 3 -0.001905 -0.004314 0.010305 0.000000 0.000000 0.000000
# 4 0.000000 0.000000 0.000000 0.031611 0.000000 0.000000
# 5 0.000000 0.000000 0.000000 0.000000 0.037075 0.000000
# 6 0.000000 0.000000 0.000000 0.000000 0.000000 0.051417
#
#
# Mechanical properties :
#
#
# Convention : Reuss Voigt Hill
#
# Bulk Modulus (GPa) = 55.82594 68.25402 62.03998
# Shear Modulus (GPa) = 26.59986 28.86356 27.73171
#
# Velocity S-wave (km/s) = 3.96880 4.13422 4.05235
# Velocity P-wave (km/s) = 7.35252 7.95024 7.65722
#
# Compressibility (1/GPa) = 0.01791282
#
# Stress axis : x y z
#
# Youngs Moduli (GPa) = 52.56746 94.54472 97.04110
#
# Poissons Ratio (x) = 0.45160 0.18489
# Poissons Ratio (y) = 0.25109 0.41866
# Poissons Ratio (z) = 0.10015 0.40789
#
# Static dielectric constant tensor:
#      x y z
#    x 1.524980 0.000000 0.000000 
#    y 0.000000 1.630270 0.000000 
#    z 0.000000 0.000000 1.560230 
# 
# From -- ./inp_files/5670.got.cif
#   From: 2010.05.17/outbox.cif.g08.bks.cpg/sg60_3_cif.got.tgz:5670.got - 2010.06.03 14:59:27.
