data_PCOD9454883
_publ_section_title
;
Structure prediction by ZEFSAII (Michael W. Deem and Ramdas Pophale) SiO2 
 PCOD9454883
Probable space group: P B C N
;
_chemical_formula_sum "Si O2"
_cell_formula_units_Z 48
_cell_length_a 7.079241
_cell_length_b 15.071834
_cell_length_c 19.359062
_cell_angle_alpha 90.000000
_cell_angle_beta 90.000000
_cell_angle_gamma 90.000000
_cell_volume 2065.556649
_symmetry_space_group_name_H-M "P B C N"
_symmetry_group_IT_number 60
_symmetry_cell_setting 'orthorhombic'
loop_
_space_group_symop_operation_xyz
x,y,z
1/2-x,1/2-y,1/2+z
1/2+x,1/2-y,-z
-x,y,1/2-z
-x,-y,-z
1/2+x,1/2+y,1/2-z
1/2-x,1/2+y,z
x,-y,1/2+z
loop_
_atom_site_type_symbol
_atom_site_label
_atom_site_fract_x
_atom_site_fract_y
_atom_site_fract_z
Si Si1 0.171508 0.225114 0.337466
Si Si2 0.280504 0.438600 0.924074
Si Si3 0.302699 0.865221 0.445727
Si Si4 0.732000 0.255602 0.311698
Si Si5 0.245617 0.099119 0.578012
Si Si6 0.159908 0.595989 0.095824
O O1 0.152661 0.122920 0.361288
O O2 0.249343 0.278948 0.402845
O O3 0.293269 0.252753 0.270775
O O4 0.959208 0.255233 0.321706
O O5 0.303091 0.544852 0.921666
O O6 0.054595 0.428209 0.920394
O O7 0.337525 0.401554 0.999926
O O8 0.528952 0.880097 0.433416
O O9 0.267008 0.855001 0.527062
O O10 0.669870 0.334337 0.363406
O O11 0.664590 0.161866 0.341086
O O12 0.233962 0.997168 0.603468
#
# Coordination Sequence:
#
# PCOD9454883 Si02
#       6
#     8   8   8   8   8   8
#     4  10  20  32  46  68 100 132 156 185 235 292
#     4   9  17  32  54  74  91 118 162 206 234 269
#     4   8  16  32  52  72  94 123 158 195 238 284
#     4  10  20  32  46  68 100 132 156 185 235 292
#     4   8  16  32  52  72  94 123 158 195 238 284
#     4   9  17  32  54  74  91 118 162 206 234 269
#
# _framework density 23.238289000000002
#
# number of rings (size 3 to 8) (size 9 to 14) (size 15 to 20)
#    0.000    3.000    0.000    3.000    0.000    2.000 
#    0.000    8.333    0.000    0.000    0.000    0.000 
#    0.000    0.000    0.000    0.000    0.000    0.000 
#
# Total GULP energy -268044.835753 kJ/mol
# GULP energy per Si atom -5584.267412 kJ/mol
# Density = 2.318540 g / cm^3
# Si number density = 23.238289 Si / 1000 Ang^3
#
#
#
# Elastic Constant Matrix: (Units=GPa)
#
#
# Indices 1 2 3 4 5 6 
#
# 1 56.1485 -11.8429 -12.3987 0.0000 0.0000 0.0000
# 2 -11.8429 58.3593 34.0003 0.0000 0.0000 0.0000
# 3 -12.3987 34.0003 61.5467 0.0000 0.0000 0.0000
# 4 0.0000 0.0000 0.0000 -1.4882 0.0000 0.0000
# 5 0.0000 0.0000 0.0000 0.0000 19.0109 0.0000
# 6 0.0000 0.0000 0.0000 0.0000 0.0000 22.3020
#
#
#
# Elastic Compliance Matrix: (Units=1/GPa)
#
#
# Indices 1 2 3 4 5 6 
#
# 1 0.018861 0.002380 0.002485 0.000000 0.000000 0.000000
# 2 0.002380 0.025568 -0.013645 0.000000 0.000000 0.000000
# 3 0.002485 -0.013645 0.024286 0.000000 0.000000 0.000000
# 4 0.000000 0.000000 0.000000 -0.671938 0.000000 0.000000
# 5 0.000000 0.000000 0.000000 0.000000 0.052601 0.000000
# 6 0.000000 0.000000 0.000000 0.000000 0.000000 0.044839
#
#
# Mechanical properties :
#
#
# Convention : Reuss Voigt Hill
#
# Bulk Modulus (GPa) = 19.54892 21.73021 20.63957
# Shear Modulus (GPa) = -10.61185 19.05134 4.21974
#
# Velocity S-wave (km/s) = -2.13926 2.86637 1.34900
# Velocity P-wave (km/s) = 1.52601 4.50844 3.36562
#
# Compressibility (1/GPa) = 0.05115372
#
# Stress axis : x y z
#
# Youngs Moduli (GPa) = 53.02077 39.11179 41.17543
#
# Poissons Ratio (x) = -0.09307 -0.10232
# Poissons Ratio (y) = -0.12617 0.56184
# Poissons Ratio (z) = -0.13175 0.53368
#
# Static dielectric constant tensor:
#      x y z
#    x 1.984560 0.000000 0.000000 
#    y 0.000000 1.847850 0.000000 
#    z 0.000000 0.000000 1.872840 
# 
# From -- ./inp_files/16060.got.cif
#   From: 2010.05.17/outbox.cif.g08.bks.cpg/sg60_9_cif.got.tgz:16060.got - 2010.06.03 14:59:27.
