data_PCOD9454041
_publ_section_title
;
Structure prediction by ZEFSAII (Michael W. Deem and Ramdas Pophale) SiO2 
 PCOD9454041
Probable space group: P B C N
;
_chemical_formula_sum "Si O2"
_cell_formula_units_Z 48
_cell_length_a 16.788354
_cell_length_b 25.162992
_cell_length_c 5.072189
_cell_angle_alpha 90.000000
_cell_angle_beta 90.000000
_cell_angle_gamma 90.000000
_cell_volume 2142.721985
_symmetry_space_group_name_H-M "P B C N"
_symmetry_group_IT_number 60
_symmetry_cell_setting 'orthorhombic'
loop_
_space_group_symop_operation_xyz
x,y,z
1/2-x,1/2-y,1/2+z
1/2+x,1/2-y,-z
-x,y,1/2-z
-x,-y,-z
1/2+x,1/2+y,1/2-z
1/2-x,1/2+y,z
x,-y,1/2+z
loop_
_atom_site_type_symbol
_atom_site_label
_atom_site_fract_x
_atom_site_fract_y
_atom_site_fract_z
Si Si1 0.446590 0.310716 0.991953
Si Si2 0.275014 0.439975 0.136041
Si Si3 0.209254 0.613115 0.109556
Si Si4 0.703531 0.236023 0.493395
Si Si5 0.554477 0.566821 0.008470
Si Si6 0.619793 0.023570 0.650731
O O1 0.500000 0.312316 0.250000
O O2 0.500000 0.291648 0.750000
O O3 0.373399 0.272281 0.035598
O O4 0.421936 0.371637 0.931273
O O5 0.234533 0.406432 0.899177
O O6 0.360858 0.460238 0.047939
O O7 0.212248 0.484009 0.241393
O O8 0.278451 0.402064 0.395944
O O9 0.192911 0.675157 0.092293
O O10 0.133265 0.579320 0.997836
O O11 0.768905 0.260226 0.295390
O O12 0.500000 0.547615 0.250000
O O13 0.500000 0.567156 0.750000
O O14 0.583043 0.017119 0.939998
#
# Coordination Sequence:
#
# PCOD9454041 Si02
#       6
#     8   8   8   8   8   8
#     4  10  21  36  51  74 110 153 187 220 266 327
#     4  10  19  32  51  72 100 124 173 215 276 309
#     4  10  20  32  52  77 101 131 169 211 269 324
#     4  12  23  35  56  83 118 148 186 233 273 320
#     4  10  19  30  47  66  92 132 181 214 246 306
#     4  10  18  33  53  74  98 131 165 216 282 334
#
# _framework density 22.401416000000001
#
# number of rings (size 3 to 8) (size 9 to 14) (size 15 to 20)
#    1.000    0.667    1.667    5.000    0.000    2.667 
#    0.000    0.000    0.000    3.000    0.000    0.000 
#    0.000    4.000    0.000    0.000    0.000    0.000 
#
# Total GULP energy -267872.328334 kJ/mol
# GULP energy per Si atom -5580.673507 kJ/mol
# Density = 2.235043 g / cm^3
# Si number density = 22.401416 Si / 1000 Ang^3
#
#
#
# Elastic Constant Matrix: (Units=GPa)
#
#
# Indices 1 2 3 4 5 6 
#
# 1 52.7846 8.6738 -0.1789 0.0000 0.0000 0.0000
# 2 8.6738 108.4021 13.6725 0.0000 0.0000 0.0000
# 3 -0.1789 13.6725 141.1470 0.0000 0.0000 0.0000
# 4 0.0000 0.0000 0.0000 -302.6214 0.0000 0.0000
# 5 0.0000 0.0000 0.0000 0.0000 17.8407 0.0000
# 6 0.0000 0.0000 0.0000 0.0000 0.0000 29.2214
#
#
#
# Elastic Compliance Matrix: (Units=1/GPa)
#
#
# Indices 1 2 3 4 5 6 
#
# 1 0.019202 -0.001559 0.000175 0.000000 0.000000 0.000000
# 2 -0.001559 0.009466 -0.000919 0.000000 0.000000 0.000000
# 3 0.000175 -0.000919 0.007174 0.000000 0.000000 0.000000
# 4 0.000000 0.000000 0.000000 -0.003304 0.000000 0.000000
# 5 0.000000 0.000000 0.000000 0.000000 0.056052 0.000000
# 6 0.000000 0.000000 0.000000 0.000000 0.000000 0.034221
#
#
# Mechanical properties :
#
#
# Convention : Reuss Voigt Hill
#
# Bulk Modulus (GPa) = 32.01333 38.51871 35.26602
# Shear Modulus (GPa) = 36.27756 -32.43409 1.92174
#
# Velocity S-wave (km/s) = 4.02858 -3.80920 0.92721
# Velocity P-wave (km/s) = 5.99676 1.45417 4.11379
#
# Compressibility (1/GPa) = 0.03123699
#
# Stress axis : x y z
#
# Youngs Moduli (GPa) = 52.07900 105.64663 139.39138
#
# Poissons Ratio (x) = 0.16465 -0.02444
# Poissons Ratio (y) = 0.08117 0.12808
# Poissons Ratio (z) = -0.00913 0.09708
#
# Static dielectric constant tensor:
#      x y z
#    x 1.752500 0.000000 0.000000 
#    y 0.000000 1.836720 0.000000 
#    z 0.000000 0.000000 1.882050 
# 
# From -- ./inp_files/1316.got.cif
#   From: 2010.05.17/outbox.cif.g08.bks.cpg/sg60_1_cif.got.tgz:1316.got - 2010.06.03 14:59:27.
