data_PCOD9454977
_publ_section_title
;
Structure prediction by ZEFSAII (Michael W. Deem and Ramdas Pophale) SiO2 
 PCOD9454977
Probable space group: P B C N
;
_chemical_formula_sum "Si O2"
_cell_formula_units_Z 48
_cell_length_a 5.950953
_cell_length_b 27.733430
_cell_length_c 11.858361
_cell_angle_alpha 90.000000
_cell_angle_beta 90.000000
_cell_angle_gamma 90.000000
_cell_volume 1957.107913
_symmetry_space_group_name_H-M "P B C N"
_symmetry_group_IT_number 60
_symmetry_cell_setting 'orthorhombic'
loop_
_space_group_symop_operation_xyz
x,y,z
1/2-x,1/2-y,1/2+z
1/2+x,1/2-y,-z
-x,y,1/2-z
-x,-y,-z
1/2+x,1/2+y,1/2-z
1/2-x,1/2+y,z
x,-y,1/2+z
loop_
_atom_site_type_symbol
_atom_site_label
_atom_site_fract_x
_atom_site_fract_y
_atom_site_fract_z
Si Si1 0.295780 0.449784 0.089777
Si Si2 0.081984 0.782737 0.585849
Si Si3 0.427521 0.894562 0.479970
Si Si4 0.069940 0.947185 0.632115
Si Si5 0.555779 0.649865 0.633483
Si Si6 0.903453 0.302976 0.582228
O O1 0.340017 0.498891 0.154092
O O2 0.413437 0.400209 0.131223
O O3 0.035290 0.440091 0.079093
O O4 0.377305 0.455068 0.960310
O O5 0.038515 0.817677 0.477393
O O6 0.093880 0.729687 0.531398
O O7 0.833680 0.788868 0.643524
O O8 0.337981 0.794757 0.627903
O O9 0.247946 0.913650 0.569196
O O10 0.593942 0.858997 0.546014
O O11 0.312831 0.865787 0.378544
O O12 0.000000 0.924776 0.750000
O O13 0.500000 0.675701 0.750000
#
# Coordination Sequence:
#
# PCOD9454977 Si02
#       6
#     8   8   8   8   8   8
#     4  10  20  38  59  85 116 156 202 244 310 368
#     4   9  17  32  54  84 115 156 204 246 308 363
#     4  10  20  36  58  84 113 162 201 249 308 367
#     4  10  22  38  59  85 119 152 198 256 305 366
#     4  10  20  34  55  85 124 156 199 256 304 364
#     4   9  17  32  58  82 112 158 204 249 301 370
#
# _framework density 24.525986
#
# number of rings (size 3 to 8) (size 9 to 14) (size 15 to 20)
#    0.000    2.333    1.667    1.000    0.000    1.333 
#    0.000    1.667    3.667    0.000    0.000    0.000 
#    0.000    0.000    0.000    0.000    0.000    0.000 
#
# Total GULP energy -267541.256338 kJ/mol
# GULP energy per Si atom -5573.776174 kJ/mol
# Density = 2.447016 g / cm^3
# Si number density = 24.525986 Si / 1000 Ang^3
#
#
#
# Elastic Constant Matrix: (Units=GPa)
#
#
# Indices 1 2 3 4 5 6 
#
# 1 154.0218 10.5119 23.5651 0.0000 0.0000 0.0000
# 2 10.5119 83.7600 -9.8135 0.0000 0.0000 0.0000
# 3 23.5651 -9.8135 41.5563 0.0000 0.0000 0.0000
# 4 0.0000 0.0000 0.0000 -16.7173 0.0000 0.0000
# 5 0.0000 0.0000 0.0000 0.0000 1.0889 0.0000
# 6 0.0000 0.0000 0.0000 0.0000 0.0000 43.8650
#
#
#
# Elastic Compliance Matrix: (Units=1/GPa)
#
#
# Indices 1 2 3 4 5 6 
#
# 1 0.007274 -0.001436 -0.004464 0.000000 0.000000 0.000000
# 2 -0.001436 0.012562 0.003781 0.000000 0.000000 0.000000
# 3 -0.004464 0.003781 0.027488 0.000000 0.000000 0.000000
# 4 0.000000 0.000000 0.000000 -0.059818 0.000000 0.000000
# 5 0.000000 0.000000 0.000000 0.000000 0.918344 0.000000
# 6 0.000000 0.000000 0.000000 0.000000 0.000000 0.022797
#
#
# Mechanical properties :
#
#
# Convention : Reuss Voigt Hill
#
# Bulk Modulus (GPa) = 23.20949 36.42946 29.81947
# Shear Modulus (GPa) = 5.27847 22.65230 13.96538
#
# Velocity S-wave (km/s) = 1.46863 3.04238 2.38882
# Velocity P-wave (km/s) = 3.51562 5.21796 4.44897
#
# Compressibility (1/GPa) = 0.04308582
#
# Stress axis : x y z
#
# Youngs Moduli (GPa) = 137.48527 79.60510 36.37987
#
# Poissons Ratio (x) = 0.11430 0.16239
# Poissons Ratio (y) = 0.19740 -0.13754
# Poissons Ratio (z) = 0.61368 -0.30096
#
# Static dielectric constant tensor:
#      x y z
#    x 2.061440 0.000000 0.000000 
#    y 0.000000 1.939280 0.000000 
#    z 0.000000 0.000000 1.783530 
# 
# From -- ./inp_files/14039.got.cif
#   From: 2010.05.17/outbox.cif.g08.bks.cpg/sg60_8_cif.got.tgz:14039.got - 2010.06.03 14:59:27.
