data_PCOD9454950
_publ_section_title
;
Structure prediction by ZEFSAII (Michael W. Deem and Ramdas Pophale) SiO2 
 PCOD9454950
Probable space group: P B C N
;
_chemical_formula_sum "Si O2"
_cell_formula_units_Z 56
_cell_length_a 21.875873
_cell_length_b 16.599145
_cell_length_c 8.932611
_cell_angle_alpha 90.000000
_cell_angle_beta 90.000000
_cell_angle_gamma 90.000000
_cell_volume 3243.616745
_symmetry_space_group_name_H-M "P B C N"
_symmetry_group_IT_number 60
_symmetry_cell_setting 'orthorhombic'
loop_
_space_group_symop_operation_xyz
x,y,z
1/2-x,1/2-y,1/2+z
1/2+x,1/2-y,-z
-x,y,1/2-z
-x,-y,-z
1/2+x,1/2+y,1/2-z
1/2-x,1/2+y,z
x,-y,1/2+z
loop_
_atom_site_type_symbol
_atom_site_label
_atom_site_fract_x
_atom_site_fract_y
_atom_site_fract_z
Si Si1 0.045445 0.536433 0.620473
Si Si2 0.818363 0.191402 0.362877
Si Si3 0.195745 0.272956 0.463705
Si Si4 0.777862 0.966497 0.736435
Si Si5 0.634516 0.169213 0.007926
Si Si6 0.645134 0.101969 0.329700
Si Si7 0.271253 0.389013 0.077707
O O1 0.084196 0.609576 0.555631
O O2 0.093011 0.465668 0.665578
O O3 0.000000 0.563482 0.750000
O O4 0.000000 0.500000 0.500000
O O5 0.761909 0.197127 0.479303
O O6 0.822672 0.098654 0.314383
O O7 0.871452 0.240663 0.444879
O O8 0.804541 0.241565 0.207475
O O9 0.151179 0.344156 0.519524
O O10 0.188099 0.190379 0.557958
O O11 0.709947 0.941361 0.794786
O O12 0.782025 0.948868 0.561412
O O13 0.784482 0.059334 0.776687
O O14 0.700585 0.137696 0.945779
O O15 0.635907 0.160172 0.186810
#
# Coordination Sequence:
#
# PCOD9454950 Si02
#       7
#     8   8   8   8   8   8   8
#     4  12  24  36  50  72  98 132 176 214 244 287
#     4   9  18  30  46  68  93 125 161 197 243 298
#     4   9  18  30  46  68  93 125 161 197 243 297
#     4   9  17  28  45  69  95 123 157 192 238 294
#     4  10  20  34  47  66  95 128 166 206 246 287
#     4  10  20  34  47  66  95 128 166 206 246 288
#     4   9  17  28  45  69  95 123 157 192 238 293
#
# _framework density 17.264678
#
# number of rings (size 3 to 8) (size 9 to 14) (size 15 to 20)
#    0.000    2.286    2.857    2.571    2.000    5.714 
#    0.000    0.000    0.000    0.000    0.000    0.000 
#    0.000    2.286    0.000    0.143    0.000    0.143 
#
# Total GULP energy -311905.938656 kJ/mol
# GULP energy per Si atom -5569.748905 kJ/mol
# Density = 1.722538 g / cm^3
# Si number density = 17.264678 Si / 1000 Ang^3
#
#
#
# Elastic Constant Matrix: (Units=GPa)
#
#
# Indices 1 2 3 4 5 6 
#
# 1 37.2854 16.6656 5.2579 0.0000 0.0000 0.0000
# 2 16.6656 29.2964 7.9049 0.0000 0.0000 0.0000
# 3 5.2579 7.9049 31.7724 0.0000 0.0000 0.0000
# 4 0.0000 0.0000 0.0000 34.5489 0.0000 0.0000
# 5 0.0000 0.0000 0.0000 0.0000 18.3402 0.0000
# 6 0.0000 0.0000 0.0000 0.0000 0.0000 19.3178
#
#
#
# Elastic Compliance Matrix: (Units=1/GPa)
#
#
# Indices 1 2 3 4 5 6 
#
# 1 0.035990 -0.020224 -0.000924 0.000000 0.000000 0.000000
# 2 -0.020224 0.047955 -0.008584 0.000000 0.000000 0.000000
# 3 -0.000924 -0.008584 0.033763 0.000000 0.000000 0.000000
# 4 0.000000 0.000000 0.000000 0.028945 0.000000 0.000000
# 5 0.000000 0.000000 0.000000 0.000000 0.054525 0.000000
# 6 0.000000 0.000000 0.000000 0.000000 0.000000 0.051766
#
#
# Mechanical properties :
#
#
# Convention : Reuss Voigt Hill
#
# Bulk Modulus (GPa) = 17.16960 17.55680 17.36320
# Shear Modulus (GPa) = 15.06831 19.00976 17.03904
#
# Velocity S-wave (km/s) = 2.95749 3.32185 3.14495
# Velocity P-wave (km/s) = 4.65069 4.99041 4.82354
#
# Compressibility (1/GPa) = 0.05824246
#
# Stress axis : x y z
#
# Youngs Moduli (GPa) = 27.78535 20.85296 29.61859
#
# Poissons Ratio (x) = 0.42173 0.02737
# Poissons Ratio (y) = 0.56193 0.25425
# Poissons Ratio (z) = 0.02568 0.17901
#
# Static dielectric constant tensor:
#      x y z
#    x 1.544700 0.000000 0.000000 
#    y 0.000000 1.673430 0.000000 
#    z 0.000000 0.000000 1.628940 
# 
# From -- ./inp_files/7517.got.cif
#   From: 2010.05.17/outbox.cif.g08.bks.cpg/sg60_4_cif.got.tgz:7517.got - 2010.06.03 14:59:27.
