data_PCOD9454477
_publ_section_title
;
Structure prediction by ZEFSAII (Michael W. Deem and Ramdas Pophale) SiO2 
 PCOD9454477
Probable space group: P B C N
;
_chemical_formula_sum "Si O2"
_cell_formula_units_Z 48
_cell_length_a 7.261064
_cell_length_b 20.739070
_cell_length_c 14.204717
_cell_angle_alpha 90.000000
_cell_angle_beta 90.000000
_cell_angle_gamma 90.000000
_cell_volume 2139.055869
_symmetry_space_group_name_H-M "P B C N"
_symmetry_group_IT_number 60
_symmetry_cell_setting 'orthorhombic'
loop_
_space_group_symop_operation_xyz
x,y,z
1/2-x,1/2-y,1/2+z
1/2+x,1/2-y,-z
-x,y,1/2-z
-x,-y,-z
1/2+x,1/2+y,1/2-z
1/2-x,1/2+y,z
x,-y,1/2+z
loop_
_atom_site_type_symbol
_atom_site_label
_atom_site_fract_x
_atom_site_fract_y
_atom_site_fract_z
Si Si1 0.675442 0.424814 0.069294
Si Si2 0.712332 0.108409 0.772986
Si Si3 0.212014 0.678066 0.420071
Si Si4 0.360040 0.300486 0.536662
Si Si5 0.277141 0.256194 0.729785
Si Si6 0.747493 0.052428 0.977104
O O1 0.690533 0.424303 0.182565
O O2 0.723841 0.353115 0.033790
O O3 0.469035 0.436984 0.031869
O O4 0.788665 0.482069 0.020218
O O5 0.500000 0.117216 0.750000
O O6 0.786313 0.181901 0.784064
O O7 0.702572 0.067651 0.868791
O O8 0.432546 0.681110 0.436859
O O9 0.250848 0.794058 0.632964
O O10 0.185680 0.705694 0.315695
O O11 0.163146 0.606381 0.453269
O O12 0.370315 0.230567 0.490395
O O13 0.500000 0.255087 0.750000
#
# Coordination Sequence:
#
# PCOD9454477 Si02
#       6
#     8   8   8   8   8   8
#     4  10  22  38  58  85 116 150 188 233 283 340
#     4  11  21  36  59  83 113 150 188 233 285 341
#     4  10  19  34  56  81 110 144 186 230 274 326
#     4  10  19  34  56  81 110 144 186 230 274 326
#     4   9  18  32  53  81 109 144 184 227 277 323
#     4  10  22  38  58  85 116 150 188 233 283 340
#
# _framework density 22.439807999999999
#
# number of rings (size 3 to 8) (size 9 to 14) (size 15 to 20)
#    0.000    2.000    3.333    0.500    0.000    2.000 
#    0.000    5.833    0.000    0.000    0.000    0.000 
#    0.000    0.000    0.000    0.000    0.000    0.000 
#
# Total GULP energy -268081.106227 kJ/mol
# GULP energy per Si atom -5585.023046 kJ/mol
# Density = 2.238873 g / cm^3
# Si number density = 22.439808 Si / 1000 Ang^3
#
#
#
# Elastic Constant Matrix: (Units=GPa)
#
#
# Indices 1 2 3 4 5 6 
#
# 1 32.4636 0.4818 -12.9913 0.0000 0.0000 0.0000
# 2 0.4818 112.4965 37.2216 0.0000 0.0000 0.0000
# 3 -12.9913 37.2216 124.8441 0.0000 0.0000 0.0000
# 4 0.0000 0.0000 0.0000 34.6141 0.0000 0.0000
# 5 0.0000 0.0000 0.0000 0.0000 26.4714 0.0000
# 6 0.0000 0.0000 0.0000 0.0000 0.0000 17.5037
#
#
#
# Elastic Compliance Matrix: (Units=1/GPa)
#
#
# Indices 1 2 3 4 5 6 
#
# 1 0.032337 -0.001389 0.003779 0.000000 0.000000 0.000000
# 2 -0.001389 0.009922 -0.003103 0.000000 0.000000 0.000000
# 3 0.003779 -0.003103 0.009328 0.000000 0.000000 0.000000
# 4 0.000000 0.000000 0.000000 0.028890 0.000000 0.000000
# 5 0.000000 0.000000 0.000000 0.000000 0.037777 0.000000
# 6 0.000000 0.000000 0.000000 0.000000 0.000000 0.057131
#
#
# Mechanical properties :
#
#
# Convention : Reuss Voigt Hill
#
# Bulk Modulus (GPa) = 19.93554 35.46983 27.70269
# Shear Modulus (GPa) = 25.83586 32.05730 28.94658
#
# Velocity S-wave (km/s) = 3.39682 3.78377 3.59551
# Velocity P-wave (km/s) = 4.92827 5.91018 5.44142
#
# Compressibility (1/GPa) = 0.05016167
#
# Stress axis : x y z
#
# Youngs Moduli (GPa) = 30.92470 100.78946 107.20104
#
# Poissons Ratio (x) = 0.13998 -0.40512
# Poissons Ratio (y) = 0.04295 0.33260
# Poissons Ratio (z) = -0.11687 0.31271
#
# Static dielectric constant tensor:
#      x y z
#    x 1.920730 0.000000 0.000000 
#    y 0.000000 1.819660 0.000000 
#    z 0.000000 0.000000 1.841880 
# 
# From -- ./inp_files/10067.got.cif
#   From: 2010.05.17/outbox.cif.g08.bks.cpg/sg60_6_cif.got.tgz:10067.got - 2010.06.03 14:59:27.
