data_PCOD9454441
_publ_section_title
;
Structure prediction by ZEFSAII (Michael W. Deem and Ramdas Pophale) SiO2 
 PCOD9454441
Probable space group: P B C N
;
_chemical_formula_sum "Si O2"
_cell_formula_units_Z 52
_cell_length_a 17.702126
_cell_length_b 16.940057
_cell_length_c 8.519384
_cell_angle_alpha 90.000000
_cell_angle_beta 90.000000
_cell_angle_gamma 90.000000
_cell_volume 2554.750477
_symmetry_space_group_name_H-M "P B C N"
_symmetry_group_IT_number 60
_symmetry_cell_setting 'orthorhombic'
loop_
_space_group_symop_operation_xyz
x,y,z
1/2-x,1/2-y,1/2+z
1/2+x,1/2-y,-z
-x,y,1/2-z
-x,-y,-z
1/2+x,1/2+y,1/2-z
1/2-x,1/2+y,z
x,-y,1/2+z
loop_
_atom_site_type_symbol
_atom_site_label
_atom_site_fract_x
_atom_site_fract_y
_atom_site_fract_z
Si Si1 0.723632 0.892707 0.254530
Si Si2 0.500000 0.518767 0.250000
Si Si3 0.828158 0.544852 0.441981
Si Si4 0.565725 0.823765 0.361529
Si Si5 0.924898 0.430650 0.658631
Si Si6 0.482552 0.337561 0.517017
Si Si7 0.606400 0.369922 0.287626
O O1 0.649018 0.842778 0.296869
O O2 0.804843 0.861453 0.304162
O O3 0.714119 0.974291 0.351617
O O4 0.721864 0.908808 0.067483
O O5 0.504552 0.579711 0.394781
O O6 0.571397 0.459635 0.276055
O O7 0.890076 0.501585 0.554365
O O8 0.867303 0.591461 0.299427
O O9 0.500000 0.858275 0.250000
O O10 0.560092 0.861945 0.534190
O O11 0.547613 0.731761 0.374991
O O12 0.000000 0.454376 0.750000
O O13 0.561268 0.324836 0.424811
O O14 0.420854 0.339848 0.380068
#
# Coordination Sequence:
#
# PCOD9454441 Si02
#       7
#     8   4   8   8   8   8   8
#     4  10  22  39  63  98 130 169 214 270 329 386
#     4  10  20  40  72 100 118 162 212 276 332 376
#     4   9  20  36  55  94 126 158 214 270 316 366
#     4  11  23  42  60  90 133 179 217 257 322 399
#     4  10  19  33  60  82 119 169 216 259 314 372
#     4  10  22  42  63  94 128 168 211 265 326 398
#     4  10  22  40  68  95 126 158 220 271 328 382
#
# _framework density 20.354237000000001
#
# number of rings (size 3 to 8) (size 9 to 14) (size 15 to 20)
#    0.000    2.154    0.769    3.231    6.462    4.308 
#    2.769    0.000    0.000    0.000    0.000    0.000 
#    0.000    0.000    0.000    0.000    0.000    0.000 
#
# Total GULP energy -289908.759662 kJ/mol
# GULP energy per Si atom -5575.168455 kJ/mol
# Density = 2.030791 g / cm^3
# Si number density = 20.354237 Si / 1000 Ang^3
#
#
#
# Elastic Constant Matrix: (Units=GPa)
#
#
# Indices 1 2 3 4 5 6 
#
# 1 148.3955 17.6907 28.9062 0.0000 0.0000 0.0000
# 2 17.6907 53.0396 2.1662 0.0000 0.0000 0.0000
# 3 28.9062 2.1662 82.2668 0.0000 0.0000 0.0000
# 4 0.0000 0.0000 0.0000 -10.7656 0.0000 0.0000
# 5 0.0000 0.0000 0.0000 0.0000 -3.0999 0.0000
# 6 0.0000 0.0000 0.0000 0.0000 0.0000 -25.8686
#
#
#
# Elastic Compliance Matrix: (Units=1/GPa)
#
#
# Indices 1 2 3 4 5 6 
#
# 1 0.007528 -0.002406 -0.002582 0.000000 0.000000 0.000000
# 2 -0.002406 0.019643 0.000328 0.000000 0.000000 0.000000
# 3 -0.002582 0.000328 0.013054 0.000000 0.000000 0.000000
# 4 0.000000 0.000000 0.000000 -0.092889 0.000000 0.000000
# 5 0.000000 0.000000 0.000000 0.000000 -0.322593 0.000000
# 6 0.000000 0.000000 0.000000 0.000000 0.000000 -0.038657
#
#
# Mechanical properties :
#
#
# Convention : Reuss Voigt Hill
#
# Bulk Modulus (GPa) = 32.35576 42.35869 37.35722
# Shear Modulus (GPa) = -12.68095 7.71579 -2.48258
#
# Velocity S-wave (km/s) = -2.49873 1.94910 -1.10559
# Velocity P-wave (km/s) = 2.75789 5.09129 4.09434
#
# Compressibility (1/GPa) = 0.03090640
#
# Stress axis : x y z
#
# Youngs Moduli (GPa) = 132.82918 50.90929 76.60399
#
# Poissons Ratio (x) = 0.12247 0.19779
# Poissons Ratio (y) = 0.31953 -0.02513
# Poissons Ratio (z) = 0.34296 -0.01670
#
# Static dielectric constant tensor:
#      x y z
#    x 1.734420 0.000000 0.000000 
#    y 0.000000 1.777270 0.000000 
#    z 0.000000 0.000000 1.786170 
# 
# From -- ./inp_files/6873.got.cif
#   From: 2010.05.17/outbox.cif.g08.bks.cpg/sg60_4_cif.got.tgz:6873.got - 2010.06.03 14:59:27.
