data_PCOD9454855
_publ_section_title
;
Structure prediction by ZEFSAII (Michael W. Deem and Ramdas Pophale) SiO2 
 PCOD9454855
Probable space group: P B C N
;
_chemical_formula_sum "Si O2"
_cell_formula_units_Z 52
_cell_length_a 21.388557
_cell_length_b 7.807205
_cell_length_c 13.932846
_cell_angle_alpha 90.000000
_cell_angle_beta 90.000000
_cell_angle_gamma 90.000000
_cell_volume 2326.574188
_symmetry_space_group_name_H-M "P B C N"
_symmetry_group_IT_number 60
_symmetry_cell_setting 'orthorhombic'
loop_
_space_group_symop_operation_xyz
x,y,z
1/2-x,1/2-y,1/2+z
1/2+x,1/2-y,-z
-x,y,1/2-z
-x,-y,-z
1/2+x,1/2+y,1/2-z
1/2-x,1/2+y,z
x,-y,1/2+z
loop_
_atom_site_type_symbol
_atom_site_label
_atom_site_fract_x
_atom_site_fract_y
_atom_site_fract_z
Si Si1 0.500000 0.330818 0.750000
Si Si2 0.816518 0.531403 0.407061
Si Si3 0.183285 0.315777 0.394799
Si Si4 0.583120 0.890630 0.652930
Si Si5 0.953997 0.510066 0.863713
Si Si6 0.377633 0.512617 0.828509
Si Si7 0.725409 0.666599 0.783935
O O1 0.443647 0.442972 0.790794
O O2 0.473315 0.200901 0.669318
O O3 0.792285 0.615202 0.504503
O O4 0.889485 0.488557 0.421427
O O5 0.809243 0.666158 0.320599
O O6 0.773989 0.380374 0.367304
O O7 0.130955 0.453822 0.363319
O O8 0.151047 0.129382 0.399534
O O9 0.236541 0.309365 0.314284
O O10 0.517058 0.920517 0.598421
O O11 0.563966 0.910118 0.764979
O O12 0.612514 0.705167 0.633175
O O13 0.327921 0.528262 0.740883
#
# Coordination Sequence:
#
# PCOD9454855 Si02
#       7
#     4   8   8   8   8   8   8
#     4  10  20  40  74 100 132 194 230 282 368 416
#     4  12  27  43  72 104 140 186 234 292 354 418
#     4  12  26  48  70 103 142 187 234 286 358 416
#     4  10  21  42  73  99 139 185 229 293 346 415
#     4  10  19  43  67 102 142 180 228 288 358 404
#     4  12  22  42  74  99 136 189 235 281 352 420
#     4  12  25  46  67 101 144 183 233 297 337 422
#
# _framework density 22.350459000000001
#
# number of rings (size 3 to 8) (size 9 to 14) (size 15 to 20)
#    0.000    0.923    7.692    0.923    2.154    0.615 
#    0.000    0.769    0.000    0.000    0.000    0.000 
#    0.000    0.000    0.000    0.000    0.000    0.000 
#
# Total GULP energy -290668.422634 kJ/mol
# GULP energy per Si atom -5589.777358 kJ/mol
# Density = 2.229959 g / cm^3
# Si number density = 22.350459 Si / 1000 Ang^3
#
#
#
# Elastic Constant Matrix: (Units=GPa)
#
#
# Indices 1 2 3 4 5 6 
#
# 1 145.7633 39.7575 31.1948 0.0000 0.0000 0.0000
# 2 39.7575 113.7578 -1.8981 0.0000 0.0000 0.0000
# 3 31.1948 -1.8981 56.2654 0.0000 0.0000 0.0000
# 4 0.0000 0.0000 0.0000 8.7883 0.0000 0.0000
# 5 0.0000 0.0000 0.0000 0.0000 19.0098 0.0000
# 6 0.0000 0.0000 0.0000 0.0000 0.0000 18.7034
#
#
#
# Elastic Compliance Matrix: (Units=1/GPa)
#
#
# Indices 1 2 3 4 5 6 
#
# 1 0.008786 -0.003154 -0.004977 0.000000 0.000000 0.000000
# 2 -0.003154 0.009928 0.002083 0.000000 0.000000 0.000000
# 3 -0.004977 0.002083 0.020603 0.000000 0.000000 0.000000
# 4 0.000000 0.000000 0.000000 0.113788 0.000000 0.000000
# 5 0.000000 0.000000 0.000000 0.000000 0.052605 0.000000
# 6 0.000000 0.000000 0.000000 0.000000 0.000000 0.053466
#
#
# Mechanical properties :
#
#
# Convention : Reuss Voigt Hill
#
# Bulk Modulus (GPa) = 36.73677 50.43277 43.58477
# Shear Modulus (GPa) = 17.83525 25.74912 21.79218
#
# Velocity S-wave (km/s) = 2.82792 3.39789 3.12592
# Velocity P-wave (km/s) = 5.20915 6.16504 5.70714
#
# Compressibility (1/GPa) = 0.02722068
#
# Stress axis : x y z
#
# Youngs Moduli (GPa) = 113.81970 100.72996 48.53714
#
# Poissons Ratio (x) = 0.31766 0.24159
# Poissons Ratio (y) = 0.35895 -0.10112
# Poissons Ratio (z) = 0.56653 -0.20985
#
# Static dielectric constant tensor:
#      x y z
#    x 1.860180 0.000000 0.000000 
#    y 0.000000 1.829380 0.000000 
#    z 0.000000 0.000000 1.838250 
# 
# From -- ./inp_files/17671.got.cif
#   From: 2010.05.17/outbox.cif.g08.bks.cpg/sg60_9_cif.got.tgz:17671.got - 2010.06.03 14:59:27.
