data_PCOD9454185
_publ_section_title
;
Structure prediction by ZEFSAII (Michael W. Deem and Ramdas Pophale) SiO2 
 PCOD9454185
Probable space group: P B C N
;
_chemical_formula_sum "Si O2"
_cell_formula_units_Z 32
_cell_length_a 5.155359
_cell_length_b 13.978951
_cell_length_c 18.233347
_cell_angle_alpha 90.000000
_cell_angle_beta 90.000000
_cell_angle_gamma 90.000000
_cell_volume 1314.013699
_symmetry_space_group_name_H-M "P B C N"
_symmetry_group_IT_number 60
_symmetry_cell_setting 'orthorhombic'
loop_
_space_group_symop_operation_xyz
x,y,z
1/2-x,1/2-y,1/2+z
1/2+x,1/2-y,-z
-x,y,1/2-z
-x,-y,-z
1/2+x,1/2+y,1/2-z
1/2-x,1/2+y,z
x,-y,1/2+z
loop_
_atom_site_type_symbol
_atom_site_label
_atom_site_fract_x
_atom_site_fract_y
_atom_site_fract_z
Si Si1 0.452749 0.801946 0.474439
Si Si2 0.843442 0.905622 0.678039
Si Si3 0.339886 0.075899 0.102419
Si Si4 0.424371 0.101420 0.829800
O O1 0.244944 0.733113 0.513856
O O2 0.421354 0.900051 0.520624
O O3 0.371421 0.819954 0.390649
O O4 0.000000 0.874225 0.750000
O O5 0.792752 0.020364 0.684081
O O6 0.048071 0.890095 0.613687
O O7 0.554031 0.872571 0.655939
O O8 0.360474 0.966935 0.130665
O O9 0.500000 0.138666 0.750000
#
# Coordination Sequence:
#
# PCOD9454185 Si02
#       4
#     8   8   8   8
#     4  12  28  45  63  98 144 180 213 263 339 409
#     4  10  18  36  67 103 121 155 219 288 318 361
#     4  10  21  40  70  95 125 169 226 273 318 381
#     4  10  23  43  73  97 126 172 231 278 326 382
#
# _framework density 24.352868999999998
#
# number of rings (size 3 to 8) (size 9 to 14) (size 15 to 20)
#    1.500    0.000    2.500    3.000    3.500    1.000 
#    0.000   10.000    0.000    0.000    0.000    0.000 
#    0.000    0.000    0.000    0.000    0.000    0.000 
#
# Total GULP energy -178405.221758 kJ/mol
# GULP energy per Si atom -5575.163180 kJ/mol
# Density = 2.429744 g / cm^3
# Si number density = 24.352869 Si / 1000 Ang^3
#
#
#
# Elastic Constant Matrix: (Units=GPa)
#
#
# Indices 1 2 3 4 5 6 
#
# 1 95.8844 -4.3090 1.9152 0.0000 0.0000 0.0000
# 2 -4.3090 65.3328 19.3791 0.0000 0.0000 0.0000
# 3 1.9152 19.3791 160.6880 0.0000 0.0000 0.0000
# 4 0.0000 0.0000 0.000056184.3582 0.0000 0.0000
# 5 0.0000 0.0000 0.0000 0.0000 29.9899 0.0000
# 6 0.0000 0.0000 0.0000 0.0000 0.0000 17.5881
#
#
#
# Elastic Compliance Matrix: (Units=1/GPa)
#
#
# Indices 1 2 3 4 5 6 
#
# 1 0.010467 0.000754 -0.000216 0.000000 0.000000 0.000000
# 2 0.000754 0.015928 -0.001930 0.000000 0.000000 0.000000
# 3 -0.000216 -0.001930 0.006459 0.000000 0.000000 0.000000
# 4 0.000000 0.000000 0.000000 0.000018 0.000000 0.000000
# 5 0.000000 0.000000 0.000000 0.000000 0.033345 0.000000
# 6 0.000000 0.000000 0.000000 0.000000 0.000000 0.056857
#
#
# Mechanical properties :
#
#
# Convention : Reuss Voigt Hill
#
# Bulk Modulus (GPa) = 33.25376 39.54177 36.39776
# Shear Modulus (GPa) = 36.79718 11266.71524 5651.75621
#
# Velocity S-wave (km/s) = 3.89138 68.09175 48.22670
# Velocity P-wave (km/s) = 5.82022 78.72899 55.82172
#
# Compressibility (1/GPa) = 0.03007179
#
# Stress axis : x y z
#
# Youngs Moduli (GPa) = 95.53433 62.78066 154.83311
#
# Poissons Ratio (x) = -0.04736 0.03340
# Poissons Ratio (y) = -0.07207 0.29882
# Poissons Ratio (z) = 0.02061 0.12117
#
# Static dielectric constant tensor:
#      x y z
#    x 1.899060 0.000000 0.000000 
#    y 0.000000 2.063880 0.000000 
#    z 0.000000 0.000000 1.949210 
# 
# From -- ./inp_files/13575.got.cif
#   From: 2010.05.17/outbox.cif.g08.bks.cpg/sg60_7_cif.got.tgz:13575.got - 2010.06.03 14:59:27.
