data_PCOD9454611
_publ_section_title
;
Structure prediction by ZEFSAII (Michael W. Deem and Ramdas Pophale) SiO2 
 PCOD9454611
Probable space group: P B C N
;
_chemical_formula_sum "Si O2"
_cell_formula_units_Z 48
_cell_length_a 15.094212
_cell_length_b 18.692297
_cell_length_c 8.883321
_cell_angle_alpha 90.000000
_cell_angle_beta 90.000000
_cell_angle_gamma 90.000000
_cell_volume 2506.388989
_symmetry_space_group_name_H-M "P B C N"
_symmetry_group_IT_number 60
_symmetry_cell_setting 'orthorhombic'
loop_
_space_group_symop_operation_xyz
x,y,z
1/2-x,1/2-y,1/2+z
1/2+x,1/2-y,-z
-x,y,1/2-z
-x,-y,-z
1/2+x,1/2+y,1/2-z
1/2-x,1/2+y,z
x,-y,1/2+z
loop_
_atom_site_type_symbol
_atom_site_label
_atom_site_fract_x
_atom_site_fract_y
_atom_site_fract_z
Si Si1 0.000000 0.333715 0.750000
Si Si2 0.347892 0.400142 0.346151
Si Si3 0.500000 0.641462 0.250000
Si Si4 0.164941 0.047893 0.189788
Si Si5 0.696320 0.153117 0.187979
Si Si6 0.014713 0.803102 0.060857
Si Si7 0.279216 0.701469 0.626825
O O1 0.094547 0.368336 0.778977
O O2 0.005684 0.277320 0.614251
O O3 0.331172 0.433397 0.511923
O O4 0.351388 0.465564 0.228979
O O5 0.439457 0.354162 0.362789
O O6 0.272601 0.347942 0.277155
O O7 0.582998 0.590071 0.238487
O O8 0.511665 0.690743 0.390628
O O9 0.247640 0.083080 0.273619
O O10 0.722455 0.217508 0.306288
O O11 0.718053 0.182634 0.017951
O O12 0.119647 0.817611 0.075391
#
# Coordination Sequence:
#
# PCOD9454611 Si02
#       7
#     4   8   4   8   8   8   8
#     4  10  22  37  64  80 125 164 204 258 298 349
#     4  11  22  38  58  89 125 159 196 247 312 379
#     4  10  22  31  52  90 127 160 188 242 298 385
#     4  11  24  35  58  88 127 163 200 242 308 377
#     4  11  22  39  58  91 117 169 205 253 300 360
#     4  10  19  36  54  88 119 160 194 237 310 367
#     4  11  21  37  61  81 124 157 207 250 300 367
#
# _framework density 19.151057000000002
#
# number of rings (size 3 to 8) (size 9 to 14) (size 15 to 20)
#    0.000    1.333    5.000    2.000    4.667    1.333 
#    0.000    0.000    0.000    4.000    0.000    0.000 
#    0.000    0.000    0.000    0.000    0.000    0.000 
#
# Total GULP energy -267252.598011 kJ/mol
# GULP energy per Si atom -5567.762459 kJ/mol
# Density = 1.910747 g / cm^3
# Si number density = 19.151057 Si / 1000 Ang^3
#
#
#
# Elastic Constant Matrix: (Units=GPa)
#
#
# Indices 1 2 3 4 5 6 
#
# 1 118.1126 19.8846 21.9615 0.0000 0.0000 0.0000
# 2 19.8846 24.3536 14.4335 0.0000 0.0000 0.0000
# 3 21.9615 14.4335 63.3549 0.0000 0.0000 0.0000
# 4 0.0000 0.0000 0.0000 24.4435 0.0000 0.0000
# 5 0.0000 0.0000 0.0000 0.0000 24.0377 0.0000
# 6 0.0000 0.0000 0.0000 0.0000 0.0000 79.2250
#
#
#
# Elastic Compliance Matrix: (Units=1/GPa)
#
#
# Indices 1 2 3 4 5 6 
#
# 1 0.010001 -0.007065 -0.001857 0.000000 0.000000 0.000000
# 2 -0.007065 0.052462 -0.009503 0.000000 0.000000 0.000000
# 3 -0.001857 -0.009503 0.018593 0.000000 0.000000 0.000000
# 4 0.000000 0.000000 0.000000 0.040911 0.000000 0.000000
# 5 0.000000 0.000000 0.000000 0.000000 0.041601 0.000000
# 6 0.000000 0.000000 0.000000 0.000000 0.000000 0.012622
#
#
# Mechanical properties :
#
#
# Convention : Reuss Voigt Hill
#
# Bulk Modulus (GPa) = 22.62149 35.37558 28.99853
# Shear Modulus (GPa) = 21.95133 35.51068 28.73101
#
# Velocity S-wave (km/s) = 3.38926 4.31076 3.87748
# Velocity P-wave (km/s) = 5.21094 6.57943 5.93476
#
# Compressibility (1/GPa) = 0.04420576
#
# Stress axis : x y z
#
# Youngs Moduli (GPa) = 99.98720 19.06130 53.78415
#
# Poissons Ratio (x) = 0.13467 0.09989
# Poissons Ratio (y) = 0.70643 0.51110
# Poissons Ratio (z) = 0.18570 0.18114
#
# Static dielectric constant tensor:
#      x y z
#    x 1.696640 0.000000 0.000000 
#    y 0.000000 1.667610 0.000000 
#    z 0.000000 0.000000 1.751530 
# 
# From -- ./inp_files/5954.got.cif
#   From: 2010.05.17/outbox.cif.g08.bks.cpg/sg60_3_cif.got.tgz:5954.got - 2010.06.03 14:59:27.
