data_PCOD9454907
_publ_section_title
;
Structure prediction by ZEFSAII (Michael W. Deem and Ramdas Pophale) SiO2 
 PCOD9454907
Probable space group: P B C N
;
_chemical_formula_sum "Si O2"
_cell_formula_units_Z 60
_cell_length_a 16.922616
_cell_length_b 15.923110
_cell_length_c 9.254014
_cell_angle_alpha 90.000000
_cell_angle_beta 90.000000
_cell_angle_gamma 90.000000
_cell_volume 2493.592869
_symmetry_space_group_name_H-M "P B C N"
_symmetry_group_IT_number 60
_symmetry_cell_setting 'orthorhombic'
loop_
_space_group_symop_operation_xyz
x,y,z
1/2-x,1/2-y,1/2+z
1/2+x,1/2-y,-z
-x,y,1/2-z
-x,-y,-z
1/2+x,1/2+y,1/2-z
1/2-x,1/2+y,z
x,-y,1/2+z
loop_
_atom_site_type_symbol
_atom_site_label
_atom_site_fract_x
_atom_site_fract_y
_atom_site_fract_z
Si Si1 0.000000 0.310492 0.750000
Si Si2 0.395052 0.277067 0.016195
Si Si3 0.176714 0.088272 0.907563
Si Si4 0.706136 0.604753 0.104209
Si Si5 0.426948 0.627503 0.154426
Si Si6 0.361446 0.896147 0.436395
Si Si7 0.378193 0.063525 0.277015
Si Si8 0.568788 0.432711 0.355278
O O1 0.064647 0.258325 0.661301
O O2 0.054197 0.375577 0.839916
O O3 0.399911 0.195535 0.916673
O O4 0.436374 0.368749 0.011356
O O5 0.306625 0.315237 0.001248
O O6 0.117035 0.146609 0.001084
O O7 0.267116 0.115598 0.918394
O O8 0.146062 0.081675 0.743909
O O9 0.180188 0.988132 0.955366
O O10 0.649017 0.626585 0.238398
O O11 0.794187 0.592568 0.159880
O O12 0.500000 0.665563 0.250000
O O13 0.447060 0.530050 0.124622
O O14 0.375318 0.926522 0.602667
O O15 0.389593 0.968166 0.328145
O O16 0.500000 0.405017 0.250000
#
# Coordination Sequence:
#
# PCOD9454907 Si02
#       8
#     4   8   8   8   8   8   8   8
#     4  10  24  42  72  94 132 174 228 268 344 392
#     4  11  22  39  61  96 126 163 211 280 321 388
#     4  10  20  37  58  87 119 173 211 252 319 409
#     4  10  21  37  62  87 131 159 214 263 329 385
#     4  10  20  32  57  87 118 171 205 255 307 395
#     4  10  23  41  70  91 126 167 226 271 340 381
#     4  10  22  44  68  98 124 177 222 277 325 417
#     4  10  21  34  59  86 124 163 212 255 319 389
#
# _framework density 24.061665999999999
#
# number of rings (size 3 to 8) (size 9 to 14) (size 15 to 20)
#    0.000    1.867    3.333    0.000    1.867    5.867 
#    0.000    0.000   10.267    0.000    0.000    0.000 
#    0.000    0.000    0.000    0.000    0.000    0.000 
#
# Total GULP energy -334028.758449 kJ/mol
# GULP energy per Si atom -5567.145974 kJ/mol
# Density = 2.400690 g / cm^3
# Si number density = 24.061666 Si / 1000 Ang^3
#
#
#
# Elastic Constant Matrix: (Units=GPa)
#
#
# Indices 1 2 3 4 5 6 
#
# 1 70.7568 45.4792 24.1482 0.0000 0.0000 0.0000
# 2 45.4792 143.0835 23.7535 0.0000 0.0000 0.0000
# 3 24.1482 23.7535 86.0318 0.0000 0.0000 0.0000
# 4 0.0000 0.0000 0.0000 13.2441 0.0000 0.0000
# 5 0.0000 0.0000 0.0000 0.0000 25.8378 0.0000
# 6 0.0000 0.0000 0.0000 0.0000 0.0000 35.2010
#
#
#
# Elastic Compliance Matrix: (Units=1/GPa)
#
#
# Indices 1 2 3 4 5 6 
#
# 1 0.018887 -0.005369 -0.003819 0.000000 0.000000 0.000000
# 2 -0.005369 0.008851 -0.000937 0.000000 0.000000 0.000000
# 3 -0.003819 -0.000937 0.012954 0.000000 0.000000 0.000000
# 4 0.000000 0.000000 0.000000 0.075505 0.000000 0.000000
# 5 0.000000 0.000000 0.000000 0.000000 0.038703 0.000000
# 6 0.000000 0.000000 0.000000 0.000000 0.000000 0.028408
#
#
# Mechanical properties :
#
#
# Convention : Reuss Voigt Hill
#
# Bulk Modulus (GPa) = 48.91745 54.07042 51.49394
# Shear Modulus (GPa) = 23.76723 28.62266 26.19495
#
# Velocity S-wave (km/s) = 3.14628 3.45273 3.30306
# Velocity P-wave (km/s) = 5.79422 6.19803 5.99952
#
# Compressibility (1/GPa) = 0.02044260
#
# Stress axis : x y z
#
# Youngs Moduli (GPa) = 52.94509 112.98042 77.19515
#
# Poissons Ratio (x) = 0.60664 0.29481
# Poissons Ratio (y) = 0.28428 0.07231
# Poissons Ratio (z) = 0.20220 0.10582
#
# Static dielectric constant tensor:
#      x y z
#    x 2.096320 0.000000 0.000000 
#    y 0.000000 1.942570 0.000000 
#    z 0.000000 0.000000 2.377050 
# 
# From -- ./inp_files/12520.got.cif
#   From: 2010.05.17/outbox.cif.g08.bks.cpg/sg60_7_cif.got.tgz:12520.got - 2010.06.03 14:59:27.
