data_PCOD9454260
_publ_section_title
;
Structure prediction by ZEFSAII (Michael W. Deem and Ramdas Pophale) SiO2 
 PCOD9454260
Probable space group: P B C N
;
_chemical_formula_sum "Si O2"
_cell_formula_units_Z 52
_cell_length_a 20.795896
_cell_length_b 34.876514
_cell_length_c 5.159789
_cell_angle_alpha 90.000000
_cell_angle_beta 90.000000
_cell_angle_gamma 90.000000
_cell_volume 3742.334891
_symmetry_space_group_name_H-M "P B C N"
_symmetry_group_IT_number 60
_symmetry_cell_setting 'orthorhombic'
loop_
_space_group_symop_operation_xyz
x,y,z
1/2-x,1/2-y,1/2+z
1/2+x,1/2-y,-z
-x,y,1/2-z
-x,-y,-z
1/2+x,1/2+y,1/2-z
1/2-x,1/2+y,z
x,-y,1/2+z
loop_
_atom_site_type_symbol
_atom_site_label
_atom_site_fract_x
_atom_site_fract_y
_atom_site_fract_z
Si Si1 0.828422 0.771824 0.051531
Si Si2 0.000000 0.343487 0.750000
Si Si3 0.883245 0.390211 0.825735
Si Si4 0.771644 0.200336 0.047082
Si Si5 0.932094 0.285033 0.382529
Si Si6 0.422725 0.024149 0.253118
Si Si7 0.836294 0.650208 0.804983
O O1 0.778457 0.736022 0.056768
O O2 0.802226 0.800782 0.832012
O O3 0.895614 0.752635 0.975491
O O4 0.825633 0.789484 0.335933
O O5 0.952677 0.371665 0.906243
O O6 0.952986 0.314275 0.606541
O O7 0.889813 0.435645 0.812420
O O8 0.867603 0.374854 0.536789
O O9 0.834502 0.374217 0.041928
O O10 0.729548 0.165957 0.929498
O O11 0.879477 0.311737 0.235134
O O12 0.000000 0.276451 0.250000
O O13 0.500000 0.030383 0.250000
O O14 0.406825 0.007172 0.534099
#
# Coordination Sequence:
#
# PCOD9454260 Si02
#       7
#     8   4   8   8   8   8   8
#     4   9  18  27  44  52  76 101 126 158 200 252
#     4  10  20  28  40  58  86  98 132 172 208 262
#     4  11  19  31  44  62  77 105 127 168 213 242
#     4   9  17  31  40  58  71  98 131 158 200 250
#     4  10  19  28  39  59  81 102 129 166 214 252
#     4  10  20  32  44  58  80 107 133 157 194 255
#     4  10  20  29  46  59  79  98 129 173 211 244
#
# _framework density 13.895066999999999
#
# number of rings (size 3 to 8) (size 9 to 14) (size 15 to 20)
#    0.000    2.154    2.308    1.846    2.154    3.692 
#    0.000    0.000    0.000    0.000    0.000    0.000 
#    0.000    0.000    0.000    0.000    0.000    0.000 
#
# Total GULP energy -289482.273820 kJ/mol
# GULP energy per Si atom -5566.966804 kJ/mol
# Density = 1.386344 g / cm^3
# Si number density = 13.895067 Si / 1000 Ang^3
#
#
#
# Elastic Constant Matrix: (Units=GPa)
#
#
# Indices 1 2 3 4 5 6 
#
# 1 22.6481 8.8356 -9.9748 0.0000 0.0000 0.0000
# 2 8.8356 34.1670 -8.2610 0.0000 0.0000 0.0000
# 3 -9.9748 -8.2610 35.4665 0.0000 0.0000 0.0000
# 4 0.0000 0.0000 0.0000 17.0085 0.0000 0.0000
# 5 0.0000 0.0000 0.0000 0.0000 12.4733 0.0000
# 6 0.0000 0.0000 0.0000 0.0000 0.0000 11.2738
#
#
#
# Elastic Compliance Matrix: (Units=1/GPa)
#
#
# Indices 1 2 3 4 5 6 
#
# 1 0.053974 -0.010901 0.012641 0.000000 0.000000 0.000000
# 2 -0.010901 0.033216 0.004671 0.000000 0.000000 0.000000
# 3 0.012641 0.004671 0.032839 0.000000 0.000000 0.000000
# 4 0.000000 0.000000 0.000000 0.058794 0.000000 0.000000
# 5 0.000000 0.000000 0.000000 0.000000 0.080171 0.000000
# 6 0.000000 0.000000 0.000000 0.000000 0.000000 0.088701
#
#
# Mechanical properties :
#
#
# Convention : Reuss Voigt Hill
#
# Bulk Modulus (GPa) = 7.52729 8.16458 7.84593
# Shear Modulus (GPa) = 13.18712 14.92992 14.05852
#
# Velocity S-wave (km/s) = 3.08401 3.28148 3.18427
# Velocity P-wave (km/s) = 4.25564 4.49957 4.37930
#
# Compressibility (1/GPa) = 0.13284998
#
# Stress axis : x y z
#
# Youngs Moduli (GPa) = 18.52744 30.10559 30.45181
#
# Poissons Ratio (x) = 0.32819 -0.38494
# Poissons Ratio (y) = 0.20197 -0.14224
# Poissons Ratio (z) = -0.23420 -0.14062
#
# Static dielectric constant tensor:
#      x y z
#    x 1.472020 0.000000 0.000000 
#    y 0.000000 1.447930 0.000000 
#    z 0.000000 0.000000 1.403220 
# 
# From -- ./inp_files/1872.got.cif
#   From: 2010.05.17/outbox.cif.g08.bks.cpg/sg60_1_cif.got.tgz:1872.got - 2010.06.03 14:59:27.
