data_PCOD9454163
_publ_section_title
;
Structure prediction by ZEFSAII (Michael W. Deem and Ramdas Pophale) SiO2 
 PCOD9454163
Probable space group: P B C N
;
_chemical_formula_sum "Si O2"
_cell_formula_units_Z 36
_cell_length_a 5.209481
_cell_length_b 21.906845
_cell_length_c 13.889243
_cell_angle_alpha 90.000000
_cell_angle_beta 90.000000
_cell_angle_gamma 90.000000
_cell_volume 1585.086146
_symmetry_space_group_name_H-M "P B C N"
_symmetry_group_IT_number 60
_symmetry_cell_setting 'orthorhombic'
loop_
_space_group_symop_operation_xyz
x,y,z
1/2-x,1/2-y,1/2+z
1/2+x,1/2-y,-z
-x,y,1/2-z
-x,-y,-z
1/2+x,1/2+y,1/2-z
1/2-x,1/2+y,z
x,-y,1/2+z
loop_
_atom_site_type_symbol
_atom_site_label
_atom_site_fract_x
_atom_site_fract_y
_atom_site_fract_z
Si Si1 0.946433 0.947179 0.865006
Si Si2 0.238160 0.671667 0.031943
Si Si3 0.000000 0.619604 0.750000
Si Si4 0.950198 0.497347 0.145054
Si Si5 0.234548 0.808360 0.090328
O O1 0.822582 0.885399 0.904020
O O2 0.000000 0.945330 0.750000
O O3 0.736806 0.998342 0.893666
O O4 0.224649 0.966225 0.904516
O O5 0.256745 0.734910 0.091278
O O6 0.452563 0.676531 0.948347
O O7 0.954621 0.669435 0.985484
O O8 0.124851 0.571529 0.826219
O O9 0.196576 0.660562 0.691015
O O10 0.000000 0.527690 0.250000
#
# Coordination Sequence:
#
# PCOD9454163 Si02
#       5
#     8   8   4   8   8
#     4  10  18  36  61  82 115 152 188 238 285 334
#     4  10  22  40  59  90 119 145 198 248 286 334
#     4  10  22  42  62  82 118 164 188 230 304 350
#     4   8  19  33  57  81 114 145 195 234 267 345
#     4  10  23  40  60  86 121 152 192 244 287 351
#
# _framework density 22.7117
#
# number of rings (size 3 to 8) (size 9 to 14) (size 15 to 20)
#    0.667    1.778    0.000    1.333    1.556    4.444 
#    0.000    6.667    0.000    0.000    0.000    0.000 
#    0.000    0.000    0.000    0.000    0.000    0.000 
#
# Total GULP energy -200732.803413 kJ/mol
# GULP energy per Si atom -5575.911206 kJ/mol
# Density = 2.266001 g / cm^3
# Si number density = 22.711700 Si / 1000 Ang^3
#
#
#
# Elastic Constant Matrix: (Units=GPa)
#
#
# Indices 1 2 3 4 5 6 
#
# 1 78.6412 12.4775 -2.3766 0.0000 0.0000 0.0000
# 2 12.4775 88.8136 43.3312 0.0000 0.0000 0.0000
# 3 -2.3766 43.3312 67.6264 0.0000 0.0000 0.0000
# 4 0.0000 0.0000 0.0000 42.2401 0.0000 0.0000
# 5 0.0000 0.0000 0.0000 0.0000 5.9413 0.0000
# 6 0.0000 0.0000 0.0000 0.0000 0.0000 -7.1303
#
#
#
# Elastic Compliance Matrix: (Units=1/GPa)
#
#
# Indices 1 2 3 4 5 6 
#
# 1 0.013272 -0.003044 0.002417 0.000000 0.000000 0.000000
# 2 -0.003044 0.017078 -0.011050 0.000000 0.000000 0.000000
# 3 0.002417 -0.011050 0.021952 0.000000 0.000000 0.000000
# 4 0.000000 0.000000 0.000000 0.023674 0.000000 0.000000
# 5 0.000000 0.000000 0.000000 0.000000 0.168312 0.000000
# 6 0.000000 0.000000 0.000000 0.000000 0.000000 -0.140246
#
#
# Mechanical properties :
#
#
# Convention : Reuss Voigt Hill
#
# Bulk Modulus (GPa) = 34.54382 37.99394 36.26888
# Shear Modulus (GPa) = 36.48440 20.32017 28.40228
#
# Velocity S-wave (km/s) = 4.01236 2.99440 3.54016
# Velocity P-wave (km/s) = 6.05872 5.35914 5.71963
#
# Compressibility (1/GPa) = 0.02894874
#
# Stress axis : x y z
#
# Youngs Moduli (GPa) = 75.34701 58.55432 45.55378
#
# Poissons Ratio (x) = 0.17822 -0.11009
# Poissons Ratio (y) = 0.22933 0.50336
# Poissons Ratio (z) = -0.18208 0.64701
#
# Static dielectric constant tensor:
#      x y z
#    x 1.887700 0.000000 0.000000 
#    y 0.000000 1.840880 0.000000 
#    z 0.000000 0.000000 1.903380 
# 
# From -- ./inp_files/13741.got.cif
#   From: 2010.05.17/outbox.cif.g08.bks.cpg/sg60_7_cif.got.tgz:13741.got - 2010.06.03 14:59:27.
