data_PCOD9454605
_publ_section_title
;
Structure prediction by ZEFSAII (Michael W. Deem and Ramdas Pophale) SiO2 
 PCOD9454605
Probable space group: P B C N
;
_chemical_formula_sum "Si O2"
_cell_formula_units_Z 40
_cell_length_a 19.196238
_cell_length_b 12.971954
_cell_length_c 8.715718
_cell_angle_alpha 90.000000
_cell_angle_beta 90.000000
_cell_angle_gamma 90.000000
_cell_volume 2170.324614
_symmetry_space_group_name_H-M "P B C N"
_symmetry_group_IT_number 60
_symmetry_cell_setting 'orthorhombic'
loop_
_space_group_symop_operation_xyz
x,y,z
1/2-x,1/2-y,1/2+z
1/2+x,1/2-y,-z
-x,y,1/2-z
-x,-y,-z
1/2+x,1/2+y,1/2-z
1/2-x,1/2+y,z
x,-y,1/2+z
loop_
_atom_site_type_symbol
_atom_site_label
_atom_site_fract_x
_atom_site_fract_y
_atom_site_fract_z
Si Si1 0.648836 0.139620 0.389131
Si Si2 0.383707 0.227944 0.436368
Si Si3 0.781160 0.105281 0.558954
Si Si4 0.486990 0.886270 0.430588
Si Si5 0.283945 0.071372 0.615331
O O1 0.624309 0.202366 0.243080
O O2 0.723706 0.168389 0.459204
O O3 0.591356 0.142001 0.521537
O O4 0.662056 0.020598 0.337815
O O5 0.355945 0.343475 0.462021
O O6 0.459244 0.194267 0.493809
O O7 0.329164 0.154393 0.525916
O O8 0.755457 0.108986 0.733968
O O9 0.769651 0.989283 0.496732
O O10 0.500000 0.888523 0.250000
O O11 0.500000 0.000000 0.500000
#
# Coordination Sequence:
#
# PCOD9454605 Si02
#       5
#     8   8   8   8   8
#     4  10  20  36  52  81 118 152 183 233 293 334
#     4  12  21  35  58  86 114 155 198 230 291 353
#     4  10  21  35  57  85 116 153 192 237 287 346
#     4  12  23  35  55  82 120 154 184 234 294 348
#     4  10  19  36  52  81 122 145 191 238 285 330
#
# _framework density 18.430422
#
# number of rings (size 3 to 8) (size 9 to 14) (size 15 to 20)
#    1.200    0.000    4.000    4.200    0.000    0.000 
#    0.000    0.000    0.000    0.000    0.000   19.600 
#    0.000    0.000    0.000    0.000    0.000    0.000 
#
# Total GULP energy -223047.111996 kJ/mol
# GULP energy per Si atom -5576.177800 kJ/mol
# Density = 1.838847 g / cm^3
# Si number density = 18.430422 Si / 1000 Ang^3
#
#
#
# Elastic Constant Matrix: (Units=GPa)
#
#
# Indices 1 2 3 4 5 6 
#
# 1 65.7011 7.3700 2.0288 0.0000 0.0000 0.0000
# 2 7.3700 18.3074 -13.0689 0.0000 0.0000 0.0000
# 3 2.0288 -13.0689 89.7287 0.0000 0.0000 0.0000
# 4 0.0000 0.0000 0.0000 8.3400 0.0000 0.0000
# 5 0.0000 0.0000 0.0000 0.0000 22.3456 0.0000
# 6 0.0000 0.0000 0.0000 0.0000 0.0000 34.3425
#
#
#
# Elastic Compliance Matrix: (Units=1/GPa)
#
#
# Indices 1 2 3 4 5 6 
#
# 1 0.016110 -0.007528 -0.001461 0.000000 0.000000 0.000000
# 2 -0.007528 0.064479 0.009562 0.000000 0.000000 0.000000
# 3 -0.001461 0.009562 0.012570 0.000000 0.000000 0.000000
# 4 0.000000 0.000000 0.000000 0.119904 0.000000 0.000000
# 5 0.000000 0.000000 0.000000 0.000000 0.044752 0.000000
# 6 0.000000 0.000000 0.000000 0.000000 0.000000 0.029118
#
#
# Mechanical properties :
#
#
# Convention : Reuss Voigt Hill
#
# Bulk Modulus (GPa) = 10.60392 18.48855 14.54624
# Shear Modulus (GPa) = 15.76176 24.83276 20.29726
#
# Velocity S-wave (km/s) = 2.92756 3.67465 3.32217
# Velocity P-wave (km/s) = 4.14650 5.29692 4.75662
#
# Compressibility (1/GPa) = 0.09430471
#
# Stress axis : x y z
#
# Youngs Moduli (GPa) = 62.07314 15.50891 79.55220
#
# Poissons Ratio (x) = 0.11675 0.11620
# Poissons Ratio (y) = 0.46730 -0.76064
# Poissons Ratio (z) = 0.09067 -0.14829
#
# Static dielectric constant tensor:
#      x y z
#    x 1.640200 0.000000 0.000000 
#    y 0.000000 1.677980 0.000000 
#    z 0.000000 0.000000 1.630700 
# 
# From -- ./inp_files/5671.got.cif
#   From: 2010.05.17/outbox.cif.g08.bks.cpg/sg60_3_cif.got.tgz:5671.got - 2010.06.03 14:59:27.
