data_PCOD9454258
_publ_section_title
;
Structure prediction by ZEFSAII (Michael W. Deem and Ramdas Pophale) SiO2 
 PCOD9454258
Probable space group: P B C N
;
_chemical_formula_sum "Si O2"
_cell_formula_units_Z 60
_cell_length_a 26.926746
_cell_length_b 6.654948
_cell_length_c 12.368170
_cell_angle_alpha 90.000000
_cell_angle_beta 90.000000
_cell_angle_gamma 90.000000
_cell_volume 2216.327759
_symmetry_space_group_name_H-M "P B C N"
_symmetry_group_IT_number 60
_symmetry_cell_setting 'orthorhombic'
loop_
_space_group_symop_operation_xyz
x,y,z
1/2-x,1/2-y,1/2+z
1/2+x,1/2-y,-z
-x,y,1/2-z
-x,-y,-z
1/2+x,1/2+y,1/2-z
1/2-x,1/2+y,z
x,-y,1/2+z
loop_
_atom_site_type_symbol
_atom_site_label
_atom_site_fract_x
_atom_site_fract_y
_atom_site_fract_z
Si Si1 0.741535 0.267535 0.228554
Si Si2 0.500000 0.364935 0.250000
Si Si3 0.565923 0.738774 0.194183
Si Si4 0.419111 0.731314 0.076099
Si Si5 0.630312 0.082857 0.531267
Si Si6 0.242168 0.513120 0.442470
Si Si7 0.454555 0.304154 0.037798
Si Si8 0.184100 0.032982 0.134245
O O1 0.742012 0.266259 0.090687
O O2 0.736269 0.011824 0.197976
O O3 0.782294 0.214984 0.319316
O O4 0.690389 0.350001 0.280538
O O5 0.546681 0.513331 0.222324
O O6 0.486585 0.249517 0.141194
O O7 0.561189 0.833628 0.312706
O O8 0.619937 0.798507 0.144397
O O9 0.535501 0.782537 0.082536
O O10 0.451710 0.546433 0.033351
O O11 0.369251 0.623827 0.117615
O O12 0.402240 0.880901 0.982388
O O13 0.602468 0.227601 0.446669
O O14 0.686699 0.024678 0.512732
O O15 0.288671 0.533519 0.525066
#
# Coordination Sequence:
#
# PCOD9454258 Si02
#       8
#     8   4   8   8   8   8   8   8
#     4  10  23  36  57  88 120 177 225 279 326 375
#     4  10  18  46  76  98 132 172 212 276 354 422
#     4   9  22  42  67  97 132 162 215 277 331 409
#     4  11  22  42  62  94 135 173 222 272 329 389
#     4  10  23  41  61  96 130 173 216 276 328 396
#     4  11  22  39  57  86 133 169 226 282 322 385
#     4   9  23  41  69  97 132 170 214 273 338 412
#     4  11  23  38  60  91 125 181 229 272 327 393
#
# _framework density 27.071808000000001
#
# number of rings (size 3 to 8) (size 9 to 14) (size 15 to 20)
#    0.800    1.067    0.000    3.600    3.733    3.200 
#    4.800    5.333    0.000    0.000    0.000    0.000 
#    0.000    0.000    0.000    0.000    0.000    0.000 
#
# Total GULP energy -334456.948134 kJ/mol
# GULP energy per Si atom -5574.282469 kJ/mol
# Density = 2.701019 g / cm^3
# Si number density = 27.071808 Si / 1000 Ang^3
#
#
#
# Elastic Constant Matrix: (Units=GPa)
#
#
# Indices 1 2 3 4 5 6 
#
# 1 102.8694 32.5915 51.3165 0.0000 0.0000 0.0000
# 2 32.5915 167.2117 40.5241 0.0000 0.0000 0.0000
# 3 51.3165 40.5241 142.5575 0.0000 0.0000 0.0000
# 4 0.0000 0.0000 0.0000 49.2874 0.0000 0.0000
# 5 0.0000 0.0000 0.0000 0.0000 47.3797 0.0000
# 6 0.0000 0.0000 0.0000 0.0000 0.0000 46.2857
#
#
#
# Elastic Compliance Matrix: (Units=1/GPa)
#
#
# Indices 1 2 3 4 5 6 
#
# 1 0.012148 -0.001405 -0.003974 0.000000 0.000000 0.000000
# 2 -0.001405 0.006585 -0.001366 0.000000 0.000000 0.000000
# 3 -0.003974 -0.001366 0.008834 0.000000 0.000000 0.000000
# 4 0.000000 0.000000 0.000000 0.020289 0.000000 0.000000
# 5 0.000000 0.000000 0.000000 0.000000 0.021106 0.000000
# 6 0.000000 0.000000 0.000000 0.000000 0.000000 0.021605
#
#
# Mechanical properties :
#
#
# Convention : Reuss Voigt Hill
#
# Bulk Modulus (GPa) = 71.03467 73.50033 72.26750
# Shear Modulus (GPa) = 45.97705 47.80430 46.89067
#
# Velocity S-wave (km/s) = 4.12556 4.20674 4.16635
# Velocity P-wave (km/s) = 6.99928 7.12774 7.06380
#
# Compressibility (1/GPa) = 0.01407763
#
# Stress axis : x y z
#
# Youngs Moduli (GPa) = 82.31496 151.85140 113.20499
#
# Poissons Ratio (x) = 0.21333 0.44985
# Poissons Ratio (y) = 0.11564 0.15467
# Poissons Ratio (z) = 0.32710 0.20747
#
# Static dielectric constant tensor:
#      x y z
#    x 2.069350 0.000000 0.000000 
#    y 0.000000 2.256760 0.000000 
#    z 0.000000 0.000000 2.107450 
# 
# From -- ./inp_files/13379.got.cif
#   From: 2010.05.17/outbox.cif.g08.bks.cpg/sg60_7_cif.got.tgz:13379.got - 2010.06.03 14:59:27.
