data_PCOD9454649
_publ_section_title
;
Structure prediction by ZEFSAII (Michael W. Deem and Ramdas Pophale) SiO2 
 PCOD9454649
Probable space group: P B C N
;
_chemical_formula_sum "Si O2"
_cell_formula_units_Z 48
_cell_length_a 7.319529
_cell_length_b 11.480068
_cell_length_c 22.799994
_cell_angle_alpha 90.000000
_cell_angle_beta 90.000000
_cell_angle_gamma 90.000000
_cell_volume 1915.853643
_symmetry_space_group_name_H-M "P B C N"
_symmetry_group_IT_number 60
_symmetry_cell_setting 'orthorhombic'
loop_
_space_group_symop_operation_xyz
x,y,z
1/2-x,1/2-y,1/2+z
1/2+x,1/2-y,-z
-x,y,1/2-z
-x,-y,-z
1/2+x,1/2+y,1/2-z
1/2-x,1/2+y,z
x,-y,1/2+z
loop_
_atom_site_type_symbol
_atom_site_label
_atom_site_fract_x
_atom_site_fract_y
_atom_site_fract_z
Si Si1 0.911520 0.824233 0.083844
Si Si2 0.306966 0.220919 0.526150
Si Si3 0.954064 0.244575 0.316673
Si Si4 0.973771 0.316501 0.819018
Si Si5 0.481982 0.565360 0.097149
Si Si6 0.415640 0.964700 0.106938
O O1 0.110186 0.789096 0.056843
O O2 0.913294 0.789966 0.152141
O O3 0.887653 0.962776 0.074596
O O4 0.783860 0.747237 0.042265
O O5 0.405374 0.336014 0.552969
O O6 0.411375 0.100966 0.543548
O O7 0.738763 0.218592 0.322704
O O8 0.053112 0.135421 0.346884
O O9 0.986683 0.361257 0.352327
O O10 0.000000 0.257800 0.250000
O O11 0.006340 0.420102 0.866198
O O12 0.000000 0.343072 0.750000
O O13 0.299372 0.494409 0.116101
#
# Coordination Sequence:
#
# PCOD9454649 Si02
#       6
#     8   8   8   8   8   8
#     4  11  21  39  58  87 116 154 188 243 292 343
#     4  10  20  37  63  82 113 150 193 235 295 339
#     4  10  19  36  61  80 110 155 196 231 280 343
#     4  11  22  39  57  83 120 153 188 236 291 342
#     4   9  17  37  58  78 114 153 182 234 297 335
#     4   9  17  38  60  79 112 155 185 233 292 338
#
# _framework density 25.054106000000001
#
# number of rings (size 3 to 8) (size 9 to 14) (size 15 to 20)
#    0.000    2.000    6.667    1.000    0.000    1.333 
#    6.000    1.667    0.000    0.000    0.000    0.000 
#    0.000    0.000    0.000    0.000    0.000    0.000 
#
# Total GULP energy -268083.407377 kJ/mol
# GULP energy per Si atom -5585.070987 kJ/mol
# Density = 2.499708 g / cm^3
# Si number density = 25.054106 Si / 1000 Ang^3
#
#
#
# Elastic Constant Matrix: (Units=GPa)
#
#
# Indices 1 2 3 4 5 6 
#
# 1 69.3121 17.0934 3.1471 0.0000 0.0000 0.0000
# 2 17.0934 122.2649 13.2692 0.0000 0.0000 0.0000
# 3 3.1471 13.2692 88.0906 0.0000 0.0000 0.0000
# 4 0.0000 0.0000 0.0000 29.2646 0.0000 0.0000
# 5 0.0000 0.0000 0.0000 0.0000 31.8548 0.0000
# 6 0.0000 0.0000 0.0000 0.0000 0.0000 22.0972
#
#
#
# Elastic Compliance Matrix: (Units=1/GPa)
#
#
# Indices 1 2 3 4 5 6 
#
# 1 0.014947 -0.002065 -0.000223 0.000000 0.000000 0.000000
# 2 -0.002065 0.008600 -0.001222 0.000000 0.000000 0.000000
# 3 -0.000223 -0.001222 0.011544 0.000000 0.000000 0.000000
# 4 0.000000 0.000000 0.000000 0.034171 0.000000 0.000000
# 5 0.000000 0.000000 0.000000 0.000000 0.031392 0.000000
# 6 0.000000 0.000000 0.000000 0.000000 0.000000 0.045255
#
#
# Mechanical properties :
#
#
# Convention : Reuss Voigt Hill
#
# Bulk Modulus (GPa) = 35.62375 38.52078 37.07226
# Shear Modulus (GPa) = 30.80972 33.05385 31.93178
#
# Velocity S-wave (km/s) = 3.51055 3.63616 3.57391
# Velocity P-wave (km/s) = 5.53909 5.74780 5.64441
#
# Compressibility (1/GPa) = 0.02807116
#
# Stress axis : x y z
#
# Youngs Moduli (GPa) = 66.90305 116.27479 86.62557
#
# Poissons Ratio (x) = 0.24016 0.01931
# Poissons Ratio (y) = 0.13819 0.10583
# Poissons Ratio (z) = 0.01491 0.14205
#
# Static dielectric constant tensor:
#      x y z
#    x 2.064950 0.000000 0.000000 
#    y 0.000000 1.990400 0.000000 
#    z 0.000000 0.000000 2.000940 
# 
# From -- ./inp_files/23926.got.cif
#   From: 2010.05.17/outbox.cif.g08.bks.cpg/sg60_12_cif.got.tgz:23926.got - 2010.06.03 14:59:27.
