data_PCOD9454300
_publ_section_title
;
Structure prediction by ZEFSAII (Michael W. Deem and Ramdas Pophale) SiO2 
 PCOD9454300
Probable space group: P B C N
;
_chemical_formula_sum "Si O2"
_cell_formula_units_Z 64
_cell_length_a 17.536605
_cell_length_b 38.813235
_cell_length_c 5.208248
_cell_angle_alpha 90.000000
_cell_angle_beta 90.000000
_cell_angle_gamma 90.000000
_cell_volume 3545.006350
_symmetry_space_group_name_H-M "P B C N"
_symmetry_group_IT_number 60
_symmetry_cell_setting 'orthorhombic'
loop_
_space_group_symop_operation_xyz
x,y,z
1/2-x,1/2-y,1/2+z
1/2+x,1/2-y,-z
-x,y,1/2-z
-x,-y,-z
1/2+x,1/2+y,1/2-z
1/2-x,1/2+y,z
x,-y,1/2+z
loop_
_atom_site_type_symbol
_atom_site_label
_atom_site_fract_x
_atom_site_fract_y
_atom_site_fract_z
Si Si1 0.591755 0.700979 0.243807
Si Si2 0.086575 0.364983 0.209833
Si Si3 0.749698 0.523292 0.753938
Si Si4 0.251295 0.600955 0.695162
Si Si5 0.908022 0.243696 0.744152
Si Si6 0.793058 0.142148 0.303210
Si Si7 0.924637 0.478909 0.327575
Si Si8 0.867260 0.676889 0.288896
O O1 0.500000 0.697893 0.250000
O O2 0.615273 0.725010 0.482286
O O3 0.630980 0.664044 0.267715
O O4 0.615648 0.720094 0.983261
O O5 0.158659 0.391665 0.208297
O O6 0.102394 0.338696 0.444074
O O7 0.000000 0.378236 0.250000
O O8 0.092971 0.343816 0.944186
O O9 0.733606 0.501311 0.497884
O O10 0.718971 0.561972 0.765005
O O11 0.840000 0.532369 0.768710
O O12 0.278987 0.614232 0.419245
O O13 0.285791 0.624297 0.921071
O O14 0.880022 0.282629 0.766386
O O15 0.000000 0.245359 0.750000
O O16 0.722104 0.168275 0.276065
O O17 0.929575 0.489002 0.625190
O O18 0.000000 0.457949 0.250000
#
# Coordination Sequence:
#
# PCOD9454300 Si02
#       8
#     8   8   8   8   8   8   8   8
#     4  10  21  35  53  76 102 132 165 208 254 299
#     4  10  19  32  49  69  98 138 181 216 247 288
#     4  10  19  32  50  71  96 123 157 201 246 295
#     4  10  21  35  52  74 100 133 167 206 251 294
#     4  10  19  31  49  75 103 132 172 214 250 287
#     4  10  21  37  52  72 104 134 167 207 247 301
#     4   8  14  24  38  58  85 117 149 183 225 268
#     4  10  20  32  50  73 100 137 174 215 258 288
#
# _framework density 18.053564000000001
#
# number of rings (size 3 to 8) (size 9 to 14) (size 15 to 20)
#    0.000    2.250    0.000    3.375    0.000    2.500 
#    0.000    0.000    0.000    9.000    0.000    0.000 
#    0.000   10.000    0.000    0.000    0.000    0.000 
#
# Total GULP energy -356672.401391 kJ/mol
# GULP energy per Si atom -5573.006272 kJ/mol
# Density = 1.801247 g / cm^3
# Si number density = 18.053564 Si / 1000 Ang^3
#
#
#
# Elastic Constant Matrix: (Units=GPa)
#
#
# Indices 1 2 3 4 5 6 
#
# 1 15.6698 14.5475 1.7849 0.0000 0.0000 0.0000
# 2 14.5475 65.8244 -15.4877 0.0000 0.0000 0.0000
# 3 1.7849 -15.4877 57.9986 0.0000 0.0000 0.0000
# 4 0.0000 0.0000 0.0000 -5.2137 0.0000 0.0000
# 5 0.0000 0.0000 0.0000 0.0000 7.3532 0.0000
# 6 0.0000 0.0000 0.0000 0.0000 0.0000 1.6196
#
#
#
# Elastic Compliance Matrix: (Units=1/GPa)
#
#
# Indices 1 2 3 4 5 6 
#
# 1 0.083642 -0.020371 -0.008014 0.000000 0.000000 0.000000
# 2 -0.020371 0.021172 0.006281 0.000000 0.000000 0.000000
# 3 -0.008014 0.006281 0.019166 0.000000 0.000000 0.000000
# 4 0.000000 0.000000 0.000000 -0.191801 0.000000 0.000000
# 5 0.000000 0.000000 0.000000 0.000000 0.135995 0.000000
# 6 0.000000 0.000000 0.000000 0.000000 0.000000 0.617440
#
#
# Mechanical properties :
#
#
# Convention : Reuss Voigt Hill
#
# Bulk Modulus (GPa) = 12.53591 15.68690 14.11140
# Shear Modulus (GPa) = 6.61016 9.99501 8.30259
#
# Velocity S-wave (km/s) = 1.91556 2.35549 2.14682
# Velocity P-wave (km/s) = 3.44257 4.01319 3.73878
#
# Compressibility (1/GPa) = 0.07977085
#
# Stress axis : x y z
#
# Youngs Moduli (GPa) = 11.95579 47.23290 52.17695
#
# Poissons Ratio (x) = 0.96217 0.41813
# Poissons Ratio (y) = 0.24355 -0.32770
# Poissons Ratio (z) = 0.09581 -0.29665
#
# Static dielectric constant tensor:
#      x y z
#    x 1.660190 0.000000 0.000000 
#    y 0.000000 1.593780 0.000000 
#    z 0.000000 0.000000 1.611980 
# 
# From -- ./inp_files/1913.got.cif
#   From: 2010.05.17/outbox.cif.g08.bks.cpg/sg60_1_cif.got.tgz:1913.got - 2010.06.03 14:59:27.
