data_PCOD9454087
_publ_section_title
;
Structure prediction by ZEFSAII (Michael W. Deem and Ramdas Pophale) SiO2 
 PCOD9454087
Probable space group: P B C N
;
_chemical_formula_sum "Si O2"
_cell_formula_units_Z 64
_cell_length_a 9.355727
_cell_length_b 18.037725
_cell_length_c 18.726119
_cell_angle_alpha 90.000000
_cell_angle_beta 90.000000
_cell_angle_gamma 90.000000
_cell_volume 3160.145515
_symmetry_space_group_name_H-M "P B C N"
_symmetry_group_IT_number 60
_symmetry_cell_setting 'orthorhombic'
loop_
_space_group_symop_operation_xyz
x,y,z
1/2-x,1/2-y,1/2+z
1/2+x,1/2-y,-z
-x,y,1/2-z
-x,-y,-z
1/2+x,1/2+y,1/2-z
1/2-x,1/2+y,z
x,-y,1/2+z
loop_
_atom_site_type_symbol
_atom_site_label
_atom_site_fract_x
_atom_site_fract_y
_atom_site_fract_z
Si Si1 0.677572 0.840947 0.152145
Si Si2 0.389963 0.604538 0.971352
Si Si3 0.803448 0.062671 0.003515
Si Si4 0.635069 0.380512 0.286348
Si Si5 0.376513 0.886320 0.114168
Si Si6 0.524820 0.221270 0.332240
Si Si7 0.275492 0.727753 0.066975
Si Si8 0.727762 0.699224 0.085988
O O1 0.793635 0.864665 0.092690
O O2 0.757830 0.849198 0.226224
O O3 0.535926 0.890370 0.143723
O O4 0.641596 0.754677 0.137067
O O5 0.558097 0.592038 0.959213
O O6 0.326916 0.523742 0.987352
O O7 0.373803 0.662612 0.036236
O O8 0.655427 0.079851 0.963338
O O9 0.806002 0.112952 0.074863
O O10 0.500000 0.421881 0.250000
O O11 0.749319 0.419690 0.337476
O O12 0.560627 0.309038 0.323191
O O13 0.345799 0.798340 0.105250
O O14 0.500000 0.194862 0.250000
O O15 0.658949 0.194086 0.379052
O O16 0.386867 0.206727 0.381046
O O17 0.213328 0.764989 0.993706
#
# Coordination Sequence:
#
# PCOD9454087 Si02
#       8
#     8   8   8   8   8   8   8   8
#     4  11  20  33  58  87 118 148 194 255 299 355
#     4  10  22  38  58  82 116 155 206 246 303 364
#     4  10  22  38  57  82 115 160 199 250 299 368
#     4  10  18  34  56  83 118 151 191 234 298 362
#     4  10  21  33  56  88 116 147 194 250 300 349
#     4  10  19  36  56  90 121 160 194 240 312 366
#     4   9  21  32  59  88 115 149 201 246 298 358
#     4  10  20  32  59  87 117 150 200 251 298 355
#
# _framework density 20.252231999999999
#
# number of rings (size 3 to 8) (size 9 to 14) (size 15 to 20)
#    0.000    2.000    2.500    1.875   15.750    0.500 
#    0.000    0.000    2.750    0.000    0.000    0.000 
#    0.000    0.000    0.000    0.000    0.000    0.000 
#
# Total GULP energy -356373.061500 kJ/mol
# GULP energy per Si atom -5568.329086 kJ/mol
# Density = 2.020614 g / cm^3
# Si number density = 20.252232 Si / 1000 Ang^3
#
#
#
# Elastic Constant Matrix: (Units=GPa)
#
#
# Indices 1 2 3 4 5 6 
#
# 1 84.4391 6.8019 21.5693 0.0000 0.0000 0.0000
# 2 6.8019 64.9683 4.7259 0.0000 0.0000 0.0000
# 3 21.5693 4.7259 70.1542 0.0000 0.0000 0.0000
# 4 0.0000 0.0000 0.0000 4.3420 0.0000 0.0000
# 5 0.0000 0.0000 0.0000 0.0000 40.1896 0.0000
# 6 0.0000 0.0000 0.0000 0.0000 0.0000 18.5805
#
#
#
# Elastic Compliance Matrix: (Units=1/GPa)
#
#
# Indices 1 2 3 4 5 6 
#
# 1 0.012926 -0.001069 -0.003902 0.000000 0.000000 0.000000
# 2 -0.001069 0.015556 -0.000719 0.000000 0.000000 0.000000
# 3 -0.003902 -0.000719 0.015502 0.000000 0.000000 0.000000
# 4 0.000000 0.000000 0.000000 0.230310 0.000000 0.000000
# 5 0.000000 0.000000 0.000000 0.000000 0.024882 0.000000
# 6 0.000000 0.000000 0.000000 0.000000 0.000000 0.053820
#
#
# Mechanical properties :
#
#
# Convention : Reuss Voigt Hill
#
# Bulk Modulus (GPa) = 30.67169 31.75065 31.21117
# Shear Modulus (GPa) = 13.32460 25.05337 19.18899
#
# Velocity S-wave (km/s) = 2.56780 3.52101 3.08149
# Velocity P-wave (km/s) = 4.89584 5.67818 5.30146
#
# Compressibility (1/GPa) = 0.03260335
#
# Stress axis : x y z
#
# Youngs Moduli (GPa) = 77.36501 64.28224 64.50591
#
# Poissons Ratio (x) = 0.06874 0.25170
# Poissons Ratio (y) = 0.08274 0.04639
# Poissons Ratio (z) = 0.30188 0.04623
#
# Static dielectric constant tensor:
#      x y z
#    x 1.771000 0.000000 0.000000 
#    y 0.000000 1.719710 0.000000 
#    z 0.000000 0.000000 1.777280 
# 
# From -- ./inp_files/22349.got.cif
#   From: 2010.05.17/outbox.cif.g08.bks.cpg/sg60_12_cif.got.tgz:22349.got - 2010.06.03 14:59:27.
