data_PCOD9454952
_publ_section_title
;
Structure prediction by ZEFSAII (Michael W. Deem and Ramdas Pophale) SiO2 
 PCOD9454952
Probable space group: P B C N
;
_chemical_formula_sum "Si O2"
_cell_formula_units_Z 52
_cell_length_a 18.687279
_cell_length_b 24.644559
_cell_length_c 5.767090
_cell_angle_alpha 90.000000
_cell_angle_beta 90.000000
_cell_angle_gamma 90.000000
_cell_volume 2655.974186
_symmetry_space_group_name_H-M "P B C N"
_symmetry_group_IT_number 60
_symmetry_cell_setting 'orthorhombic'
loop_
_space_group_symop_operation_xyz
x,y,z
1/2-x,1/2-y,1/2+z
1/2+x,1/2-y,-z
-x,y,1/2-z
-x,-y,-z
1/2+x,1/2+y,1/2-z
1/2-x,1/2+y,z
x,-y,1/2+z
loop_
_atom_site_type_symbol
_atom_site_label
_atom_site_fract_x
_atom_site_fract_y
_atom_site_fract_z
Si Si1 0.078499 0.271415 0.449158
Si Si2 0.681836 0.814573 0.679784
Si Si3 0.474626 0.327165 0.497233
Si Si4 0.087112 0.623547 0.633089
Si Si5 0.823331 0.791953 0.883837
Si Si6 0.500000 0.931467 0.750000
Si Si7 0.361697 0.010374 0.770200
O O1 0.112121 0.298178 0.674531
O O2 0.009767 0.233812 0.493904
O O3 0.074562 0.320357 0.266111
O O4 0.138053 0.229711 0.349239
O O5 0.656099 0.864136 0.526723
O O6 0.751671 0.824911 0.833035
O O7 0.698572 0.761520 0.526364
O O8 0.500000 0.350941 0.250000
O O9 0.388891 0.322273 0.492262
O O10 0.500000 0.350505 0.750000
O O11 0.020933 0.606200 0.468782
O O12 0.109611 0.571839 0.781786
O O13 0.431475 0.971260 0.743907
O O14 0.325257 0.003300 0.516607
#
# Coordination Sequence:
#
# PCOD9454952 Si02
#       7
#     8   8   8   8   8   4   8
#     4  10  21  34  50  70  98 127 181 229 260 307
#     4  11  20  34  49  70  97 136 175 222 269 325
#     4  10  20  35  49  70  92 127 172 218 261 305
#     4  10  23  34  52  75  97 131 179 229 267 321
#     4  10  20  34  49  64  98 137 170 219 274 314
#     4  10  22  42  54  74 106 138 178 228 294 322
#     4  10  21  40  54  72 101 138 169 218 280 331
#
# _framework density 19.578503999999999
#
# number of rings (size 3 to 8) (size 9 to 14) (size 15 to 20)
#    0.000    1.846    3.077    1.846    4.308    4.923 
#    9.692    0.000    0.000    0.000    0.000    0.000 
#    0.000    0.000    0.000    0.000    0.000   80.000 
#
# Total GULP energy -290076.276323 kJ/mol
# GULP energy per Si atom -5578.389929 kJ/mol
# Density = 1.953394 g / cm^3
# Si number density = 19.578504 Si / 1000 Ang^3
#
#
#
# Elastic Constant Matrix: (Units=GPa)
#
#
# Indices 1 2 3 4 5 6 
#
# 1 84.4952 4.0729 5.6363 0.0000 0.0000 0.0000
# 2 4.0729 27.7408 4.0826 0.0000 0.0000 0.0000
# 3 5.6363 4.0826 90.6394 0.0000 0.0000 0.0000
# 4 0.0000 0.0000 0.0000 12.7742 0.0000 0.0000
# 5 0.0000 0.0000 0.0000 0.0000 24.0909 0.0000
# 6 0.0000 0.0000 0.0000 0.0000 0.0000 11.3048
#
#
#
# Elastic Compliance Matrix: (Units=1/GPa)
#
#
# Indices 1 2 3 4 5 6 
#
# 1 0.011960 -0.001657 -0.000669 0.000000 0.000000 0.000000
# 2 -0.001657 0.036518 -0.001542 0.000000 0.000000 0.000000
# 3 -0.000669 -0.001542 0.011144 0.000000 0.000000 0.000000
# 4 0.000000 0.000000 0.000000 0.078283 0.000000 0.000000
# 5 0.000000 0.000000 0.000000 0.000000 0.041509 0.000000
# 6 0.000000 0.000000 0.000000 0.000000 0.000000 0.088458
#
#
# Mechanical properties :
#
#
# Convention : Reuss Voigt Hill
#
# Bulk Modulus (GPa) = 19.27340 25.60657 22.43999
# Shear Modulus (GPa) = 17.07048 22.23956 19.65502
#
# Velocity S-wave (km/s) = 2.95600 3.37399 3.17189
# Velocity P-wave (km/s) = 4.63854 5.31844 4.99008
#
# Compressibility (1/GPa) = 0.05188499
#
# Stress axis : x y z
#
# Youngs Moduli (GPa) = 83.61541 27.38356 89.73621
#
# Poissons Ratio (x) = 0.04539 0.06004
# Poissons Ratio (y) = 0.13859 0.13835
# Poissons Ratio (z) = 0.05594 0.04222
#
# Static dielectric constant tensor:
#      x y z
#    x 1.704150 0.000000 0.000000 
#    y 0.000000 1.643470 0.000000 
#    z 0.000000 0.000000 1.854680 
# 
# From -- ./inp_files/1823.got.cif
#   From: 2010.05.17/outbox.cif.g08.bks.cpg/sg60_1_cif.got.tgz:1823.got - 2010.06.03 14:59:27.
