data_PCOD9454480
_publ_section_title
;
Structure prediction by ZEFSAII (Michael W. Deem and Ramdas Pophale) SiO2 
 PCOD9454480
Probable space group: P B C N
;
_chemical_formula_sum "Si O2"
_cell_formula_units_Z 64
_cell_length_a 26.561075
_cell_length_b 21.105120
_cell_length_c 5.648661
_cell_angle_alpha 90.000000
_cell_angle_beta 90.000000
_cell_angle_gamma 90.000000
_cell_volume 3166.496305
_symmetry_space_group_name_H-M "P B C N"
_symmetry_group_IT_number 60
_symmetry_cell_setting 'orthorhombic'
loop_
_space_group_symop_operation_xyz
x,y,z
1/2-x,1/2-y,1/2+z
1/2+x,1/2-y,-z
-x,y,1/2-z
-x,-y,-z
1/2+x,1/2+y,1/2-z
1/2-x,1/2+y,z
x,-y,1/2+z
loop_
_atom_site_type_symbol
_atom_site_label
_atom_site_fract_x
_atom_site_fract_y
_atom_site_fract_z
Si Si1 0.320554 0.973607 0.910743
Si Si2 0.628686 0.734050 0.814133
Si Si3 0.205504 0.019570 0.992897
Si Si4 0.625317 0.854226 0.503466
Si Si5 0.013053 0.399630 0.003299
Si Si6 0.802848 0.285060 0.185689
Si Si7 0.700548 0.335669 0.035385
Si Si8 0.524588 0.245530 0.502164
O O1 0.334773 0.900407 0.869566
O O2 0.340828 0.008826 0.674829
O O3 0.261558 0.990625 0.943958
O O4 0.612835 0.788672 0.633211
O O5 0.648748 0.672330 0.681512
O O6 0.679134 0.761220 0.932976
O O7 0.582298 0.731104 0.992750
O O8 0.206692 0.093768 0.058408
O O9 0.182589 0.013431 0.727068
O O10 0.572506 0.888177 0.484316
O O11 0.653399 0.832457 0.268159
O O12 0.000000 0.428350 0.750000
O O13 0.000000 0.431965 0.250000
O O14 0.982871 0.331369 0.004310
O O15 0.750833 0.322185 0.185925
O O16 0.800466 0.222352 0.348449
O O17 0.500000 0.267074 0.750000
O O18 0.500000 0.266228 0.250000
#
# Coordination Sequence:
#
# PCOD9454480 Si02
#       8
#     8   8   8   8   8   8   8   8
#     4  10  23  39  57  83 107 155 217 265 292 345
#     4  11  23  36  59  92 124 162 195 252 316 390
#     4  10  23  40  61  80 114 168 217 258 289 353
#     4  11  23  36  63  86 117 161 211 253 313 374
#     4  10  19  34  56  87 113 153 191 247 308 377
#     4  11  22  36  55  88 126 160 191 256 318 382
#     4  11  24  37  57  89 128 164 208 256 319 374
#     4  10  19  36  55  85 120 156 193 236 302 382
#
# _framework density 20.211611999999999
#
# number of rings (size 3 to 8) (size 9 to 14) (size 15 to 20)
#    0.000    1.500    3.750    3.000    8.750    0.000 
#    0.000    0.000    0.000    2.250    0.000    0.000 
#    0.000    3.000    0.000    0.000    0.000    0.000 
#
# Total GULP energy -356622.176178 kJ/mol
# GULP energy per Si atom -5572.221503 kJ/mol
# Density = 2.016561 g / cm^3
# Si number density = 20.211612 Si / 1000 Ang^3
#
#
#
# Elastic Constant Matrix: (Units=GPa)
#
#
# Indices 1 2 3 4 5 6 
#
# 1 53.3348 5.5393 9.3310 0.0000 0.0000 0.0000
# 2 5.5393 57.6952 3.1950 0.0000 0.0000 0.0000
# 3 9.3310 3.1950 120.7334 0.0000 0.0000 0.0000
# 4 0.0000 0.0000 0.0000 12.8939 0.0000 0.0000
# 5 0.0000 0.0000 0.0000 0.0000 28.0851 0.0000
# 6 0.0000 0.0000 0.0000 0.0000 0.0000 3.3998
#
#
#
# Elastic Compliance Matrix: (Units=1/GPa)
#
#
# Indices 1 2 3 4 5 6 
#
# 1 0.019184 -0.001762 -0.001436 0.000000 0.000000 0.000000
# 2 -0.001762 0.017520 -0.000327 0.000000 0.000000 0.000000
# 3 -0.001436 -0.000327 0.008402 0.000000 0.000000 0.000000
# 4 0.000000 0.000000 0.000000 0.077556 0.000000 0.000000
# 5 0.000000 0.000000 0.000000 0.000000 0.035606 0.000000
# 6 0.000000 0.000000 0.000000 0.000000 0.000000 0.294137
#
#
# Mechanical properties :
#
#
# Convention : Reuss Voigt Hill
#
# Bulk Modulus (GPa) = 26.27812 29.76598 28.02205
# Shear Modulus (GPa) = 10.59005 23.12230 16.85618
#
# Velocity S-wave (km/s) = 2.29150 3.38599 2.89101
# Velocity P-wave (km/s) = 4.47560 5.48140 5.00383
#
# Compressibility (1/GPa) = 0.03805448
#
# Stress axis : x y z
#
# Youngs Moduli (GPa) = 52.12748 57.07825 119.01419
#
# Poissons Ratio (x) = 0.10059 0.17090
# Poissons Ratio (y) = 0.09186 0.03897
# Poissons Ratio (z) = 0.07485 0.01869
#
# Static dielectric constant tensor:
#      x y z
#    x 1.752500 0.000000 0.000000 
#    y 0.000000 1.715730 0.000000 
#    z 0.000000 0.000000 1.839940 
# 
# From -- ./inp_files/2655.got.cif
#   From: 2010.05.17/outbox.cif.g08.bks.cpg/sg60_2_cif.got.tgz:2655.got - 2010.06.03 14:59:27.
