data_PCOD9454834
_publ_section_title
;
Structure prediction by ZEFSAII (Michael W. Deem and Ramdas Pophale) SiO2 
 PCOD9454834
Probable space group: P B C N
;
_chemical_formula_sum "Si O2"
_cell_formula_units_Z 48
_cell_length_a 19.430580
_cell_length_b 11.953194
_cell_length_c 8.090752
_cell_angle_alpha 90.000000
_cell_angle_beta 90.000000
_cell_angle_gamma 90.000000
_cell_volume 1879.137770
_symmetry_space_group_name_H-M "P B C N"
_symmetry_group_IT_number 60
_symmetry_cell_setting 'orthorhombic'
loop_
_space_group_symop_operation_xyz
x,y,z
1/2-x,1/2-y,1/2+z
1/2+x,1/2-y,-z
-x,y,1/2-z
-x,-y,-z
1/2+x,1/2+y,1/2-z
1/2-x,1/2+y,z
x,-y,1/2+z
loop_
_atom_site_type_symbol
_atom_site_label
_atom_site_fract_x
_atom_site_fract_y
_atom_site_fract_z
Si Si1 0.899849 0.628743 0.993903
Si Si2 0.695714 0.582883 0.161064
Si Si3 0.396298 0.743140 0.499491
Si Si4 0.185254 0.422145 0.317145
Si Si5 0.320494 0.351243 0.452394
Si Si6 0.500000 0.250685 0.750000
Si Si7 0.000000 0.349218 0.750000
O O1 0.847212 0.574922 0.863649
O O2 0.864192 0.740789 0.063328
O O3 0.959691 0.674277 0.876391
O O4 0.945399 0.578126 0.142752
O O5 0.670278 0.663162 0.012057
O O6 0.775342 0.539037 0.149398
O O7 0.688782 0.626983 0.349521
O O8 0.653659 0.467279 0.127592
O O9 0.370344 0.865215 0.437498
O O10 0.442377 0.686744 0.353929
O O11 0.449147 0.769179 0.644456
O O12 0.249590 0.338809 0.349879
#
# Coordination Sequence:
#
# PCOD9454834 Si02
#       7
#     8   8   8   8   8   4   4
#     4  10  19  41  60  97 129 180 232 272 345 416
#     4  10  22  40  61  98 141 182 225 288 351 428
#     4  10  19  43  64 100 143 173 237 277 353 426
#     4   9  22  38  66  92 140 185 223 290 351 424
#     4  10  22  38  62  98 137 181 222 285 357 422
#     4   8  16  34  67  82 127 186 200 278 325 404
#     4  10  24  36  73 102 135 194 230 292 351 422
#
# _framework density 25.54363
#
# number of rings (size 3 to 8) (size 9 to 14) (size 15 to 20)
#    1.000    1.333    3.333    0.000    2.333    2.667 
#    3.000    5.000    0.000    0.000    0.000   58.333 
#    0.000    1.333    0.000    0.000    0.000    0.000 
#
# Total GULP energy -267352.748871 kJ/mol
# GULP energy per Si atom -5569.848935 kJ/mol
# Density = 2.548549 g / cm^3
# Si number density = 25.543630 Si / 1000 Ang^3
#
#
#
# Elastic Constant Matrix: (Units=GPa)
#
#
# Indices 1 2 3 4 5 6 
#
# 1 136.5440 69.2552 94.4743 0.0000 0.0000 0.0000
# 2 69.2552 107.9843 38.7584 0.0000 0.0000 0.0000
# 3 94.4743 38.7584 123.3119 0.0000 0.0000 0.0000
# 4 0.0000 0.0000 0.0000 34.6762 0.0000 0.0000
# 5 0.0000 0.0000 0.0000 0.0000 77.7359 0.0000
# 6 0.0000 0.0000 0.0000 0.0000 0.0000 24.9357
#
#
#
# Elastic Compliance Matrix: (Units=1/GPa)
#
#
# Indices 1 2 3 4 5 6 
#
# 1 0.020909 -0.008634 -0.013305 0.000000 0.000000 0.000000
# 2 -0.008634 0.014004 0.002213 0.000000 0.000000 0.000000
# 3 -0.013305 0.002213 0.017607 0.000000 0.000000 0.000000
# 4 0.000000 0.000000 0.000000 0.028838 0.000000 0.000000
# 5 0.000000 0.000000 0.000000 0.000000 0.012864 0.000000
# 6 0.000000 0.000000 0.000000 0.000000 0.000000 0.040103
#
#
# Mechanical properties :
#
#
# Convention : Reuss Voigt Hill
#
# Bulk Modulus (GPa) = 76.52266 85.86842 81.19554
# Shear Modulus (GPa) = 28.06895 38.49306 33.28100
#
# Velocity S-wave (km/s) = 3.31851 3.88616 3.61350
# Velocity P-wave (km/s) = 6.68625 7.33660 7.01896
#
# Compressibility (1/GPa) = 0.01306802
#
# Stress axis : x y z
#
# Youngs Moduli (GPa) = 47.82706 71.41034 56.79415
#
# Poissons Ratio (x) = 0.61656 0.75566
# Poissons Ratio (y) = 0.41294 -0.12571
# Poissons Ratio (z) = 0.63635 -0.15806
#
# Static dielectric constant tensor:
#      x y z
#    x 2.200910 0.000000 0.000000 
#    y 0.000000 2.074480 0.000000 
#    z 0.000000 0.000000 2.117940 
# 
# From -- ./inp_files/7333.got.cif
#   From: 2010.05.17/outbox.cif.g08.bks.cpg/sg60_4_cif.got.tgz:7333.got - 2010.06.03 14:59:27.
