data_PCOD9454795
_publ_section_title
;
Structure prediction by ZEFSAII (Michael W. Deem and Ramdas Pophale) SiO2 
 PCOD9454795
Probable space group: P B C N
;
_chemical_formula_sum "Si O2"
_cell_formula_units_Z 60
_cell_length_a 20.111247
_cell_length_b 12.578996
_cell_length_c 9.137905
_cell_angle_alpha 90.000000
_cell_angle_beta 90.000000
_cell_angle_gamma 90.000000
_cell_volume 2311.700770
_symmetry_space_group_name_H-M "P B C N"
_symmetry_group_IT_number 60
_symmetry_cell_setting 'orthorhombic'
loop_
_space_group_symop_operation_xyz
x,y,z
1/2-x,1/2-y,1/2+z
1/2+x,1/2-y,-z
-x,y,1/2-z
-x,-y,-z
1/2+x,1/2+y,1/2-z
1/2-x,1/2+y,z
x,-y,1/2+z
loop_
_atom_site_type_symbol
_atom_site_label
_atom_site_fract_x
_atom_site_fract_y
_atom_site_fract_z
Si Si1 0.272012 0.731807 0.092573
Si Si2 0.898831 0.124408 0.226081
Si Si3 0.718086 0.613927 0.690177
Si Si4 0.588568 0.577753 0.890438
Si Si5 0.500000 0.758942 0.750000
Si Si6 0.079217 0.372138 0.246023
Si Si7 0.433409 0.942185 0.940011
Si Si8 0.250034 0.119457 0.317467
O O1 0.307565 0.663602 0.961311
O O2 0.248182 0.818840 0.967559
O O3 0.274697 0.817585 0.229338
O O4 0.210656 0.663259 0.175169
O O5 0.919198 0.246848 0.221799
O O6 0.820906 0.137362 0.270257
O O7 0.933228 0.040375 0.334768
O O8 0.900640 0.077057 0.063562
O O9 0.655719 0.596855 0.797612
O O10 0.750523 0.502474 0.653060
O O11 0.540422 0.676384 0.852195
O O12 0.453746 0.841043 0.840939
O O13 0.104243 0.464216 0.354519
O O14 0.000000 0.393447 0.250000
O O15 0.103371 0.395003 0.081173
O O16 0.500000 0.000000 0.000000
#
# Coordination Sequence:
#
# PCOD9454795 Si02
#       8
#     8   8   8   8   4   8   8   8
#     4  10  20  37  69  92 118 168 209 256 324 392
#     4  11  25  42  64  96 132 170 216 280 326 389
#     4  10  21  40  66  94 131 168 214 264 331 391
#     4  11  26  41  64  99 134 175 220 275 332 391
#     4  12  24  40  70  90 142 174 232 264 330 388
#     4  10  21  38  67  85 124 162 227 254 322 376
#     4  10  19  39  64  88 111 179 209 268 319 380
#     4  10  21  39  67  90 129 165 205 258 331 388
#
# _framework density 25.954916000000001
#
# number of rings (size 3 to 8) (size 9 to 14) (size 15 to 20)
#    0.000    1.600    3.333    2.400    8.400    0.533 
#    0.000    0.000   29.333    0.000    0.000    0.000 
#    0.000    0.000    0.000    0.000    0.000    0.000 
#
# Total GULP energy -334386.335186 kJ/mol
# GULP energy per Si atom -5573.105586 kJ/mol
# Density = 2.589584 g / cm^3
# Si number density = 25.954916 Si / 1000 Ang^3
#
#
#
# Elastic Constant Matrix: (Units=GPa)
#
#
# Indices 1 2 3 4 5 6 
#
# 1 51.2159 -0.8991 4.0701 0.0000 0.0000 0.0000
# 2 -0.8991 189.4246 79.8237 0.0000 0.0000 0.0000
# 3 4.0701 79.8237 222.6864 0.0000 0.0000 0.0000
# 4 0.0000 0.0000 0.0000 63.9992 0.0000 0.0000
# 5 0.0000 0.0000 0.0000 0.0000 20.3905 0.0000
# 6 0.0000 0.0000 0.0000 0.0000 0.0000 22.6834
#
#
#
# Elastic Compliance Matrix: (Units=1/GPa)
#
#
# Indices 1 2 3 4 5 6 
#
# 1 0.019567 0.000287 -0.000460 0.000000 0.000000 0.000000
# 2 0.000287 0.006223 -0.002236 0.000000 0.000000 0.000000
# 3 -0.000460 -0.002236 0.005300 0.000000 0.000000 0.000000
# 4 0.000000 0.000000 0.000000 0.015625 0.000000 0.000000
# 5 0.000000 0.000000 0.000000 0.000000 0.049043 0.000000
# 6 0.000000 0.000000 0.000000 0.000000 0.000000 0.044085
#
#
# Mechanical properties :
#
#
# Convention : Reuss Voigt Hill
#
# Bulk Modulus (GPa) = 38.06441 69.92402 53.99421
# Shear Modulus (GPa) = 32.59057 46.77009 39.68033
#
# Velocity S-wave (km/s) = 3.54737 4.24957 3.91425
# Velocity P-wave (km/s) = 5.61034 7.14685 6.42470
#
# Compressibility (1/GPa) = 0.02627126
#
# Stress axis : x y z
#
# Youngs Moduli (GPa) = 51.10689 160.70249 188.66213
#
# Poissons Ratio (x) = -0.04611 0.08687
# Poissons Ratio (y) = -0.01466 0.42181
# Poissons Ratio (z) = 0.02353 0.35930
#
# Static dielectric constant tensor:
#      x y z
#    x 2.305630 0.000000 0.000000 
#    y 0.000000 2.307570 0.000000 
#    z 0.000000 0.000000 2.114330 
# 
# From -- ./inp_files/8477.got.cif
#   From: 2010.05.17/outbox.cif.g08.bks.cpg/sg60_5_cif.got.tgz:8477.got - 2010.06.03 14:59:27.
