data_PCOD9454179
_publ_section_title
;
Structure prediction by ZEFSAII (Michael W. Deem and Ramdas Pophale) SiO2 
 PCOD9454179
Probable space group: P B C N
;
_chemical_formula_sum "Si O2"
_cell_formula_units_Z 48
_cell_length_a 7.748882
_cell_length_b 25.837729
_cell_length_c 12.430227
_cell_angle_alpha 90.000000
_cell_angle_beta 90.000000
_cell_angle_gamma 90.000000
_cell_volume 2488.699417
_symmetry_space_group_name_H-M "P B C N"
_symmetry_group_IT_number 60
_symmetry_cell_setting 'orthorhombic'
loop_
_space_group_symop_operation_xyz
x,y,z
1/2-x,1/2-y,1/2+z
1/2+x,1/2-y,-z
-x,y,1/2-z
-x,-y,-z
1/2+x,1/2+y,1/2-z
1/2-x,1/2+y,z
x,-y,1/2+z
loop_
_atom_site_type_symbol
_atom_site_label
_atom_site_fract_x
_atom_site_fract_y
_atom_site_fract_z
Si Si1 0.477854 0.080168 0.014576
Si Si2 0.368483 0.807503 0.470322
Si Si3 0.000000 0.661082 0.750000
Si Si4 0.493845 0.283747 0.121639
Si Si5 0.709456 0.611396 0.864357
Si Si6 0.000000 0.026505 0.750000
Si Si7 0.865300 0.498810 0.161101
O O1 0.542159 0.051235 0.120723
O O2 0.383038 0.135102 0.020922
O O3 0.653933 0.092432 0.950795
O O4 0.370029 0.039989 0.941072
O O5 0.487143 0.808036 0.361684
O O6 0.181581 0.794859 0.425131
O O7 0.420548 0.764840 0.556809
O O8 0.826572 0.626827 0.760202
O O9 0.500000 0.274559 0.250000
O O10 0.384980 0.336015 0.103849
O O11 0.577008 0.565937 0.838506
O O12 0.170155 0.996948 0.793934
O O13 0.000000 0.477960 0.250000
#
# Coordination Sequence:
#
# PCOD9454179 Si02
#       7
#     8   8   4   8   8   4   8
#     4  10  23  41  64  91 130 170 207 274 329 374
#     4  11  23  40  64  93 132 167 214 272 324 389
#     4  10  18  36  64  89 124 173 204 268 316 382
#     4  12  24  40  66 100 124 170 219 264 326 399
#     4  11  19  37  63  96 123 160 218 260 319 379
#     4  12  20  36  68  93 122 169 212 272 312 376
#     4  11  23  42  63  93 127 170 221 266 323 384
#
# _framework density 19.287182999999999
#
# number of rings (size 3 to 8) (size 9 to 14) (size 15 to 20)
#    0.000    1.000    4.167    5.000    1.167    1.333 
#    3.000    0.000    0.000    0.000    0.000    0.000 
#    0.000    0.000    0.000    0.000    0.000    0.000 
#
# Total GULP energy -267924.808062 kJ/mol
# GULP energy per Si atom -5581.766835 kJ/mol
# Density = 1.924328 g / cm^3
# Si number density = 19.287183 Si / 1000 Ang^3
#
#
#
# Elastic Constant Matrix: (Units=GPa)
#
#
# Indices 1 2 3 4 5 6 
#
# 1 127.0275 34.2763 36.0452 0.0000 0.0000 0.0000
# 2 34.2763 103.4475 51.8286 0.0000 0.0000 0.0000
# 3 36.0452 51.8286 70.6751 0.0000 0.0000 0.0000
# 4 0.0000 0.0000 0.0000 42.3264 0.0000 0.0000
# 5 0.0000 0.0000 0.0000 0.0000 28.0783 0.0000
# 6 0.0000 0.0000 0.0000 0.0000 0.0000 30.8712
#
#
#
# Elastic Compliance Matrix: (Units=1/GPa)
#
#
# Indices 1 2 3 4 5 6 
#
# 1 0.009285 -0.001113 -0.003919 0.000000 0.000000 0.000000
# 2 -0.001113 0.015415 -0.010737 0.000000 0.000000 0.000000
# 3 -0.003919 -0.010737 0.024022 0.000000 0.000000 0.000000
# 4 0.000000 0.000000 0.000000 0.023626 0.000000 0.000000
# 5 0.000000 0.000000 0.000000 0.000000 0.035615 0.000000
# 6 0.000000 0.000000 0.000000 0.000000 0.000000 0.032393
#
#
# Mechanical properties :
#
#
# Convention : Reuss Voigt Hill
#
# Bulk Modulus (GPa) = 58.19457 60.60556 59.40006
# Shear Modulus (GPa) = 28.15010 32.18851 30.16930
#
# Velocity S-wave (km/s) = 3.82452 4.08966 3.95931
# Velocity P-wave (km/s) = 7.05271 7.33426 7.19486
#
# Compressibility (1/GPa) = 0.01718374
#
# Stress axis : x y z
#
# Youngs Moduli (GPa) = 107.70397 64.87357 41.62917
#
# Poissons Ratio (x) = 0.07219 0.16316
# Poissons Ratio (y) = 0.11985 0.44695
# Poissons Ratio (z) = 0.42212 0.69652
#
# Static dielectric constant tensor:
#      x y z
#    x 1.735040 0.000000 0.000000 
#    y 0.000000 1.706120 0.000000 
#    z 0.000000 0.000000 1.726690 
# 
# From -- ./inp_files/10139.got.cif
#   From: 2010.05.17/outbox.cif.g08.bks.cpg/sg60_6_cif.got.tgz:10139.got - 2010.06.03 14:59:27.
