data_PCOD9454367
_publ_section_title
;
Structure prediction by ZEFSAII (Michael W. Deem and Ramdas Pophale) SiO2 
 PCOD9454367
Probable space group: P B C N
;
_chemical_formula_sum "Si O2"
_cell_formula_units_Z 56
_cell_length_a 9.334938
_cell_length_b 19.439478
_cell_length_c 17.220043
_cell_angle_alpha 90.000000
_cell_angle_beta 90.000000
_cell_angle_gamma 90.000000
_cell_volume 3124.857866
_symmetry_space_group_name_H-M "P B C N"
_symmetry_group_IT_number 60
_symmetry_cell_setting 'orthorhombic'
loop_
_space_group_symop_operation_xyz
x,y,z
1/2-x,1/2-y,1/2+z
1/2+x,1/2-y,-z
-x,y,1/2-z
-x,-y,-z
1/2+x,1/2+y,1/2-z
1/2-x,1/2+y,z
x,-y,1/2+z
loop_
_atom_site_type_symbol
_atom_site_label
_atom_site_fract_x
_atom_site_fract_y
_atom_site_fract_z
Si Si1 0.500000 0.469397 0.250000
Si Si2 0.402593 0.347004 0.521913
Si Si3 0.099419 0.706109 0.607660
Si Si4 0.500000 0.710585 0.250000
Si Si5 0.682619 0.046895 0.031739
Si Si6 0.100785 0.905725 0.850107
Si Si7 0.364202 0.603554 0.601365
Si Si8 0.106079 0.602346 0.963890
O O1 0.410029 0.523405 0.302875
O O2 0.587684 0.424961 0.314278
O O3 0.418173 0.266494 0.543620
O O4 0.462429 0.391080 0.595146
O O5 0.498436 0.371111 0.448471
O O6 0.236702 0.361111 0.506339
O O7 0.082581 0.743532 0.689006
O O8 0.248595 0.665326 0.604075
O O9 0.969445 0.652357 0.597123
O O10 0.392995 0.658659 0.293225
O O11 0.768276 0.092946 0.091573
O O12 0.527122 0.078607 0.017162
O O13 0.777432 0.047844 0.952265
O O14 0.668122 0.970319 0.064756
#
# Coordination Sequence:
#
# PCOD9454367 Si02
#       8
#     4   8   8   4   8   8   8   8
#     4  11  20  32  54  84 110 137 174 218 274 317
#     4  10  19  36  58  78 102 143 187 221 260 317
#     4  10  21  36  52  78 111 144 178 219 270 322
#     4   9  20  36  54  74 108 149 180 214 270 327
#     4   9  19  36  55  81 106 135 180 226 270 315
#     4   9  19  36  58  77 104 143 181 218 262 324
#     4  10  21  35  54  81 110 138 181 227 263 319
#     4  10  19  32  57  82 104 132 174 231 275 310
#
# _framework density 17.920815999999999
#
# number of rings (size 3 to 8) (size 9 to 14) (size 15 to 20)
#    0.000    2.286    0.000    2.571    0.000    5.714 
#    0.000    1.429    0.000   25.714    0.000    0.000 
#    0.000    0.000    0.000    0.000    0.000    0.000 
#
# Total GULP energy -311973.208216 kJ/mol
# GULP energy per Si atom -5570.950147 kJ/mol
# Density = 1.788003 g / cm^3
# Si number density = 17.920816 Si / 1000 Ang^3
#
#
#
# Elastic Constant Matrix: (Units=GPa)
#
#
# Indices 1 2 3 4 5 6 
#
# 1 87.4967 40.6083 45.3704 0.0000 0.0000 0.0000
# 2 40.6083 95.5385 53.4152 0.0000 0.0000 0.0000
# 3 45.3704 53.4152 98.3276 0.0000 0.0000 0.0000
# 4 0.0000 0.0000 0.0000 16.9152 0.0000 0.0000
# 5 0.0000 0.0000 0.0000 0.0000 12.0286 0.0000
# 6 0.0000 0.0000 0.0000 0.0000 0.0000 7.7919
#
#
#
# Elastic Compliance Matrix: (Units=1/GPa)
#
#
# Indices 1 2 3 4 5 6 
#
# 1 0.015941 -0.003825 -0.005278 0.000000 0.000000 0.000000
# 2 -0.003825 0.015951 -0.006900 0.000000 0.000000 0.000000
# 3 -0.005278 -0.006900 0.016354 0.000000 0.000000 0.000000
# 4 0.000000 0.000000 0.000000 0.059118 0.000000 0.000000
# 5 0.000000 0.000000 0.000000 0.000000 0.083135 0.000000
# 6 0.000000 0.000000 0.000000 0.000000 0.000000 0.128339
#
#
# Mechanical properties :
#
#
# Convention : Reuss Voigt Hill
#
# Bulk Modulus (GPa) = 61.57666 62.23895 61.90781
# Shear Modulus (GPa) = 14.03487 16.81175 15.42331
#
# Velocity S-wave (km/s) = 2.80154 3.06619 2.93684
# Velocity P-wave (km/s) = 6.70073 6.88046 6.79119
#
# Compressibility (1/GPa) = 0.01623992
#
# Stress axis : x y z
#
# Youngs Moduli (GPa) = 62.73203 62.69391 61.14862
#
# Poissons Ratio (x) = 0.23980 0.32272
# Poissons Ratio (y) = 0.23995 0.42193
# Poissons Ratio (z) = 0.33107 0.43259
#
# Static dielectric constant tensor:
#      x y z
#    x 1.589310 0.000000 0.000000 
#    y 0.000000 1.648370 0.000000 
#    z 0.000000 0.000000 1.621010 
# 
# From -- ./inp_files/19665.got.cif
#   From: 2010.05.17/outbox.cif.g08.bks.cpg/sg60_10_cif.got.tgz:19665.got - 2010.06.03 14:59:27.
