data_PCOD9454331
_publ_section_title
;
Structure prediction by ZEFSAII (Michael W. Deem and Ramdas Pophale) SiO2 
 PCOD9454331
Probable space group: P B C N
;
_chemical_formula_sum "Si O2"
_cell_formula_units_Z 64
_cell_length_a 19.838205
_cell_length_b 19.552895
_cell_length_c 7.888950
_cell_angle_alpha 90.000000
_cell_angle_beta 90.000000
_cell_angle_gamma 90.000000
_cell_volume 3060.079048
_symmetry_space_group_name_H-M "P B C N"
_symmetry_group_IT_number 60
_symmetry_cell_setting 'orthorhombic'
loop_
_space_group_symop_operation_xyz
x,y,z
1/2-x,1/2-y,1/2+z
1/2+x,1/2-y,-z
-x,y,1/2-z
-x,-y,-z
1/2+x,1/2+y,1/2-z
1/2-x,1/2+y,z
x,-y,1/2+z
loop_
_atom_site_type_symbol
_atom_site_label
_atom_site_fract_x
_atom_site_fract_y
_atom_site_fract_z
Si Si1 0.099606 0.591188 0.359137
Si Si2 0.214115 0.766599 0.784355
Si Si3 0.894914 0.555494 0.536161
Si Si4 0.959269 0.267625 0.522134
Si Si5 0.416072 0.801182 0.357776
Si Si6 0.761445 0.946267 0.017177
Si Si7 0.333580 0.689059 0.908031
Si Si8 0.746063 0.591032 0.120627
O O1 0.102399 0.577328 0.159217
O O2 0.075305 0.519732 0.438379
O O3 0.059239 0.659523 0.396614
O O4 0.175727 0.601420 0.428745
O O5 0.163167 0.712959 0.868675
O O6 0.191436 0.785483 0.594673
O O7 0.211022 0.836153 0.892789
O O8 0.288724 0.735666 0.784475
O O9 0.928169 0.617736 0.636171
O O10 0.815366 0.552712 0.588998
O O11 0.936860 0.273626 0.325602
O O12 0.912410 0.208647 0.601099
O O13 0.039876 0.264249 0.502884
O O14 0.809350 0.889642 0.103203
O O15 0.755435 0.926804 0.820405
O O16 0.784283 0.024969 0.030086
#
# Coordination Sequence:
#
# PCOD9454331 Si02
#       8
#     8   8   8   8   8   8   8   8
#     4  10  19  32  50  73 102 135 171 208 247 296
#     4  10  19  33  53  76 101 129 167 209 250 296
#     4  10  19  32  50  73 102 135 171 208 247 296
#     4  10  21  35  51  73 102 136 170 206 252 302
#     4  10  21  35  51  73 102 136 170 206 252 302
#     4   9  18  31  49  75 101 127 162 203 249 294
#     4  10  19  33  53  76 101 129 167 209 250 296
#     4   9  18  31  49  75 101 127 162 203 249 294
#
# _framework density 20.914493
#
# number of rings (size 3 to 8) (size 9 to 14) (size 15 to 20)
#    0.000    2.250    2.500    0.750    0.000    3.000 
#    0.000    0.000    0.000    0.750    0.000    0.000 
#    0.000    0.000    0.000    0.000    0.000    0.000 
#
# Total GULP energy -357305.288775 kJ/mol
# GULP energy per Si atom -5582.895137 kJ/mol
# Density = 2.086689 g / cm^3
# Si number density = 20.914493 Si / 1000 Ang^3
#
#
#
# Elastic Constant Matrix: (Units=GPa)
#
#
# Indices 1 2 3 4 5 6 
#
# 1 23.7995 -7.3774 11.0665 0.0000 0.0000 0.0000
# 2 -7.3774 71.4139 16.2233 0.0000 0.0000 0.0000
# 3 11.0665 16.2233 21.9908 0.0000 0.0000 0.0000
# 4 0.0000 0.0000 0.0000 23.9601 0.0000 0.0000
# 5 0.0000 0.0000 0.0000 0.0000 14.5327 0.0000
# 6 0.0000 0.0000 0.0000 0.0000 0.0000 14.4910
#
#
#
# Elastic Compliance Matrix: (Units=1/GPa)
#
#
# Indices 1 2 3 4 5 6 
#
# 1 0.070586 0.018454 -0.049135 0.000000 0.000000 0.000000
# 2 0.018454 0.021647 -0.025256 0.000000 0.000000 0.000000
# 3 -0.049135 -0.025256 0.088833 0.000000 0.000000 0.000000
# 4 0.000000 0.000000 0.000000 0.041736 0.000000 0.000000
# 5 0.000000 0.000000 0.000000 0.000000 0.068810 0.000000
# 6 0.000000 0.000000 0.000000 0.000000 0.000000 0.069008
#
#
# Mechanical properties :
#
#
# Convention : Reuss Voigt Hill
#
# Bulk Modulus (GPa) = 14.45297 17.44768 15.95033
# Shear Modulus (GPa) = 10.08964 17.08288 13.58626
#
# Velocity S-wave (km/s) = 2.19880 2.86106 2.55151
# Velocity P-wave (km/s) = 3.65674 4.39030 4.04021
#
# Compressibility (1/GPa) = 0.06918992
#
# Stress axis : x y z
#
# Youngs Moduli (GPa) = 14.16721 46.19618 11.25713
#
# Poissons Ratio (x) = -0.85251 0.55312
# Poissons Ratio (y) = -0.26144 0.28431
# Poissons Ratio (z) = 0.69611 1.16674
#
# Static dielectric constant tensor:
#      x y z
#    x 1.810550 0.000000 0.000000 
#    y 0.000000 1.752760 0.000000 
#    z 0.000000 0.000000 1.792960 
# 
# From -- ./inp_files/7633.got.cif
#   From: 2010.05.17/outbox.cif.g08.bks.cpg/sg60_4_cif.got.tgz:7633.got - 2010.06.03 14:59:27.
