data_PCOD9454432
_publ_section_title
;
Structure prediction by ZEFSAII (Michael W. Deem and Ramdas Pophale) SiO2 
 PCOD9454432
Probable space group: P B C N
;
_chemical_formula_sum "Si O2"
_cell_formula_units_Z 60
_cell_length_a 15.920287
_cell_length_b 10.248491
_cell_length_c 15.060683
_cell_angle_alpha 90.000000
_cell_angle_beta 90.000000
_cell_angle_gamma 90.000000
_cell_volume 2457.284743
_symmetry_space_group_name_H-M "P B C N"
_symmetry_group_IT_number 60
_symmetry_cell_setting 'orthorhombic'
loop_
_space_group_symop_operation_xyz
x,y,z
1/2-x,1/2-y,1/2+z
1/2+x,1/2-y,-z
-x,y,1/2-z
-x,-y,-z
1/2+x,1/2+y,1/2-z
1/2-x,1/2+y,z
x,-y,1/2+z
loop_
_atom_site_type_symbol
_atom_site_label
_atom_site_fract_x
_atom_site_fract_y
_atom_site_fract_z
Si Si1 0.480140 0.947171 0.867170
Si Si2 0.181631 0.480681 0.944027
Si Si3 0.794513 0.220998 0.860327
Si Si4 0.500000 0.838847 0.250000
Si Si5 0.983146 0.153498 0.890594
Si Si6 0.967946 0.858660 0.603867
Si Si7 0.784757 0.753825 0.576169
Si Si8 0.676661 0.996401 0.354744
O O1 0.418780 0.982422 0.946707
O O2 0.479525 0.790911 0.854505
O O3 0.440559 0.050189 0.795859
O O4 0.576835 0.989609 0.869383
O O5 0.221525 0.604744 0.897269
O O6 0.208890 0.346779 0.900137
O O7 0.212739 0.485946 0.044536
O O8 0.886683 0.155353 0.856409
O O9 0.795078 0.364608 0.817353
O O10 0.720743 0.133363 0.819052
O O11 0.788067 0.247246 0.967517
O O12 0.481265 0.739105 0.169056
O O13 0.989039 0.162524 0.999155
O O14 0.020303 0.010453 0.870921
O O15 0.871044 0.815879 0.610436
#
# Coordination Sequence:
#
# PCOD9454432 Si02
#       8
#     8   8   8   4   8   8   8   8
#     4  11  23  38  61  90 122 166 208 258 314 386
#     4  10  19  33  58  89 118 154 210 262 304 363
#     4   8  16  32  53  91 117 149 197 261 304 361
#     4  12  26  38  62  88 132 164 208 260 324 380
#     4   9  21  39  68  92 120 162 220 261 313 376
#     4  10  21  41  62  95 127 163 211 265 315 381
#     4   9  18  33  55  86 124 150 202 258 313 359
#     4   9  18  32  56  85 123 154 197 255 309 361
#
# _framework density 24.417193999999999
#
# number of rings (size 3 to 8) (size 9 to 14) (size 15 to 20)
#    0.000    2.400    1.333    1.200    3.733    1.600 
#    4.800    0.000    8.800    0.000    0.000    0.000 
#    0.000    0.000    0.000    0.000    0.000    0.000 
#
# Total GULP energy -334058.058666 kJ/mol
# GULP energy per Si atom -5567.634311 kJ/mol
# Density = 2.436162 g / cm^3
# Si number density = 24.417194 Si / 1000 Ang^3
#
#
#
# Elastic Constant Matrix: (Units=GPa)
#
#
# Indices 1 2 3 4 5 6 
#
# 1 59.8233 41.4925 -2.6872 0.0000 0.0000 0.0000
# 2 41.4925 148.9958 25.7695 0.0000 0.0000 0.0000
# 3 -2.6872 25.7695 64.9729 0.0000 0.0000 0.0000
# 4 0.0000 0.0000 0.0000 27.4591 0.0000 0.0000
# 5 0.0000 0.0000 0.0000 0.0000 -0.6395 0.0000
# 6 0.0000 0.0000 0.0000 0.0000 0.0000 37.1639
#
#
#
# Elastic Compliance Matrix: (Units=1/GPa)
#
#
# Indices 1 2 3 4 5 6 
#
# 1 0.021431 -0.006572 0.003493 0.000000 0.000000 0.000000
# 2 -0.006572 0.009221 -0.003929 0.000000 0.000000 0.000000
# 3 0.003493 -0.003929 0.017094 0.000000 0.000000 0.000000
# 4 0.000000 0.000000 0.000000 0.036418 0.000000 0.000000
# 5 0.000000 0.000000 0.000000 0.000000 -1.563674 0.000000
# 6 0.000000 0.000000 0.000000 0.000000 0.000000 0.026908
#
#
# Mechanical properties :
#
#
# Convention : Reuss Voigt Hill
#
# Bulk Modulus (GPa) = 29.64751 44.77127 37.20939
# Shear Modulus (GPa) = -3.50302 26.74450 11.62074
#
# Velocity S-wave (km/s) = -1.19907 3.31314 2.18394
# Velocity P-wave (km/s) = 3.20178 5.74558 4.65097
#
# Compressibility (1/GPa) = 0.03372965
#
# Stress axis : x y z
#
# Youngs Moduli (GPa) = 46.66080 108.44287 58.50037
#
# Poissons Ratio (x) = 0.71272 -0.20435
# Poissons Ratio (y) = 0.30667 0.22986
# Poissons Ratio (z) = -0.16299 0.42610
#
# Static dielectric constant tensor:
#      x y z
#    x 1.984820 0.000000 0.000000 
#    y 0.000000 1.971900 0.000000 
#    z 0.000000 0.000000 2.173390 
# 
# From -- ./inp_files/20886.got.cif
#   From: 2010.05.17/outbox.cif.g08.bks.cpg/sg60_11_cif.got.tgz:20886.got - 2010.06.03 14:59:27.
