data_PCOD9454292
_publ_section_title
;
Structure prediction by ZEFSAII (Michael W. Deem and Ramdas Pophale) SiO2 
 PCOD9454292
Probable space group: P B C N
;
_chemical_formula_sum "Si O2"
_cell_formula_units_Z 40
_cell_length_a 27.055232
_cell_length_b 6.621936
_cell_length_c 7.556868
_cell_angle_alpha 90.000000
_cell_angle_beta 90.000000
_cell_angle_gamma 90.000000
_cell_volume 1353.873469
_symmetry_space_group_name_H-M "P B C N"
_symmetry_group_IT_number 60
_symmetry_cell_setting 'orthorhombic'
loop_
_space_group_symop_operation_xyz
x,y,z
1/2-x,1/2-y,1/2+z
1/2+x,1/2-y,-z
-x,y,1/2-z
-x,-y,-z
1/2+x,1/2+y,1/2-z
1/2-x,1/2+y,z
x,-y,1/2+z
loop_
_atom_site_type_symbol
_atom_site_label
_atom_site_fract_x
_atom_site_fract_y
_atom_site_fract_z
Si Si1 0.488203 0.263887 0.042094
Si Si2 0.610670 0.311055 0.334312
Si Si3 0.188429 0.315026 0.183005
Si Si4 0.792440 0.097233 0.689135
Si Si5 0.912571 0.276893 0.426234
O O1 0.500000 0.239548 0.250000
O O2 0.429287 0.224129 0.024623
O O3 0.530038 0.160190 0.919253
O O4 0.500000 0.500000 0.000000
O O5 0.670089 0.298598 0.327460
O O6 0.597131 0.245955 0.135149
O O7 0.596509 0.550860 0.350752
O O8 0.203020 0.214879 0.994321
O O9 0.133322 0.400773 0.156551
O O10 0.236385 0.433415 0.247081
O O11 0.186298 0.128332 0.318343
#
# Coordination Sequence:
#
# PCOD9454292 Si02
#       5
#     8   8   8   8   8
#     4   8  12  20  34  54  79 106 133 166 208 254
#     4   8  14  23  37  57  82 109 138 171 211 255
#     4  10  19  31  46  66  91 120 151 184 220 261
#     4  10  19  31  46  66  91 120 151 184 220 261
#     4   8  14  23  37  57  82 109 138 171 211 255
#
# _framework density 29.54486
#
# number of rings (size 3 to 8) (size 9 to 14) (size 15 to 20)
#    0.000    3.200    0.000    1.200    0.000    1.600 
#    0.000    0.000    0.000    0.000    0.000    1.400 
#    0.000    0.000    0.000    0.000    0.000    0.000 
#
# Total GULP energy -223761.917768 kJ/mol
# GULP energy per Si atom -5594.047944 kJ/mol
# Density = 2.947761 g / cm^3
# Si number density = 29.544860 Si / 1000 Ang^3
#
#
#
# Elastic Constant Matrix: (Units=GPa)
#
#
# Indices 1 2 3 4 5 6 
#
# 1 192.4375 5.6135 73.2670 0.0000 0.0000 0.0000
# 2 5.6135 69.4574 35.4375 0.0000 0.0000 0.0000
# 3 73.2670 35.4375 161.2880 0.0000 0.0000 0.0000
# 4 0.0000 0.0000 0.0000 29.7922 0.0000 0.0000
# 5 0.0000 0.0000 0.0000 0.0000 25.9438 0.0000
# 6 0.0000 0.0000 0.0000 0.0000 0.0000 52.3028
#
#
#
# Elastic Compliance Matrix: (Units=1/GPa)
#
#
# Indices 1 2 3 4 5 6 
#
# 1 0.006354 0.001080 -0.003124 0.000000 0.000000 0.000000
# 2 0.001080 0.016399 -0.004094 0.000000 0.000000 0.000000
# 3 -0.003124 -0.004094 0.008519 0.000000 0.000000 0.000000
# 4 0.000000 0.000000 0.000000 0.033566 0.000000 0.000000
# 5 0.000000 0.000000 0.000000 0.000000 0.038545 0.000000
# 6 0.000000 0.000000 0.000000 0.000000 0.000000 0.019119
#
#
# Mechanical properties :
#
#
# Convention : Reuss Voigt Hill
#
# Bulk Modulus (GPa) = 52.64032 72.42434 62.53233
# Shear Modulus (GPa) = 35.43366 42.19876 38.81621
#
# Velocity S-wave (km/s) = 3.46687 3.78338 3.62858
# Velocity P-wave (km/s) = 5.82077 6.60695 6.22628
#
# Compressibility (1/GPa) = 0.01899684
#
# Stress axis : x y z
#
# Youngs Moduli (GPa) = 157.37268 60.98058 117.38986
#
# Poissons Ratio (x) = -0.06588 0.36671
# Poissons Ratio (y) = -0.17001 0.48057
# Poissons Ratio (z) = 0.49162 0.24964
#
# Static dielectric constant tensor:
#      x y z
#    x 2.536470 0.000000 0.000000 
#    y 0.000000 2.444250 0.000000 
#    z 0.000000 0.000000 2.149760 
# 
# From -- ./inp_files/8081.got.cif
#   From: 2010.05.17/outbox.cif.g08.bks.cpg/sg60_5_cif.got.tgz:8081.got - 2010.06.03 14:59:27.
