data_PCOD9454030
_publ_section_title
;
Structure prediction by ZEFSAII (Michael W. Deem and Ramdas Pophale) SiO2 
 PCOD9454030
Probable space group: P B C N
;
_chemical_formula_sum "Si O2"
_cell_formula_units_Z 56
_cell_length_a 14.398844
_cell_length_b 10.450363
_cell_length_c 14.981182
_cell_angle_alpha 90.000000
_cell_angle_beta 90.000000
_cell_angle_gamma 90.000000
_cell_volume 2254.265595
_symmetry_space_group_name_H-M "P B C N"
_symmetry_group_IT_number 60
_symmetry_cell_setting 'orthorhombic'
loop_
_space_group_symop_operation_xyz
x,y,z
1/2-x,1/2-y,1/2+z
1/2+x,1/2-y,-z
-x,y,1/2-z
-x,-y,-z
1/2+x,1/2+y,1/2-z
1/2-x,1/2+y,z
x,-y,1/2+z
loop_
_atom_site_type_symbol
_atom_site_label
_atom_site_fract_x
_atom_site_fract_y
_atom_site_fract_z
Si Si1 0.040791 0.480343 0.154483
Si Si2 0.849923 0.275375 0.924235
Si Si3 0.722271 0.402429 0.069750
Si Si4 0.869855 0.414476 0.588313
Si Si5 0.461510 0.329540 0.490929
Si Si6 0.914872 0.811158 0.813797
Si Si7 0.272320 0.240172 0.261525
O O1 0.104292 0.589169 0.109981
O O2 0.086672 0.343412 0.170350
O O3 0.000000 0.523126 0.250000
O O4 0.944251 0.471926 0.098922
O O5 0.813718 0.213504 0.832210
O O6 0.931702 0.188807 0.965856
O O7 0.767972 0.311226 0.993458
O O8 0.773064 0.534729 0.053056
O O9 0.611168 0.410499 0.067934
O O10 0.752690 0.349530 0.166752
O O11 0.918702 0.311617 0.526347
O O12 0.844034 0.344582 0.680994
O O13 0.438773 0.370204 0.591008
O O14 0.817570 0.841432 0.767494
O O15 0.000000 0.839159 0.750000
#
# Coordination Sequence:
#
# PCOD9454030 Si02
#       7
#     8   8   8   8   8   8   8
#     4  10  18  32  61  93 119 156 205 261 311 359
#     4  11  21  39  63  92 130 159 209 268 311 369
#     4  11  22  39  60  90 127 166 205 254 320 378
#     4  10  21  38  59  92 124 159 209 262 310 368
#     4  10  22  37  63  93 124 163 208 261 319 371
#     4  11  21  37  61  94 127 159 206 254 321 372
#     4  11  23  37  62  92 130 164 205 262 317 370
#
# _framework density 24.841794
#
# number of rings (size 3 to 8) (size 9 to 14) (size 15 to 20)
#    0.000    1.429    2.857    4.286    0.000    2.286 
#    0.000    0.000    3.143    4.286    0.000    0.000 
#    0.000    0.000    0.000    0.000    0.000    0.000 
#
# Total GULP energy -313096.558305 kJ/mol
# GULP energy per Si atom -5591.009970 kJ/mol
# Density = 2.478525 g / cm^3
# Si number density = 24.841794 Si / 1000 Ang^3
#
#
#
# Elastic Constant Matrix: (Units=GPa)
#
#
# Indices 1 2 3 4 5 6 
#
# 1 93.4275 0.1269 25.3510 0.0000 0.0000 0.0000
# 2 0.1269 46.3919 -5.8018 0.0000 0.0000 0.0000
# 3 25.3510 -5.8018 136.2474 0.0000 0.0000 0.0000
# 4 0.0000 0.0000 0.0000 9.3634 0.0000 0.0000
# 5 0.0000 0.0000 0.0000 0.0000 47.9827 0.0000
# 6 0.0000 0.0000 0.0000 0.0000 0.0000 29.9713
#
#
#
# Elastic Compliance Matrix: (Units=1/GPa)
#
#
# Indices 1 2 3 4 5 6 
#
# 1 0.011277 -0.000295 -0.002111 0.000000 0.000000 0.000000
# 2 -0.000295 0.021679 0.000978 0.000000 0.000000 0.000000
# 3 -0.002111 0.000978 0.007774 0.000000 0.000000 0.000000
# 4 0.000000 0.000000 0.000000 0.106799 0.000000 0.000000
# 5 0.000000 0.000000 0.000000 0.000000 0.020841 0.000000
# 6 0.000000 0.000000 0.000000 0.000000 0.000000 0.033365
#
#
# Mechanical properties :
#
#
# Convention : Reuss Voigt Hill
#
# Bulk Modulus (GPa) = 26.40329 35.04655 30.72492
# Shear Modulus (GPa) = 23.01876 34.55619 28.78747
#
# Velocity S-wave (km/s) = 3.04734 3.73373 3.40786
# Velocity P-wave (km/s) = 4.79930 5.72068 5.28013
#
# Compressibility (1/GPa) = 0.03787407
#
# Stress axis : x y z
#
# Youngs Moduli (GPa) = 88.67901 46.12842 128.63431
#
# Poissons Ratio (x) = 0.01360 0.27151
# Poissons Ratio (y) = 0.02614 -0.12580
# Poissons Ratio (z) = 0.18718 -0.04511
#
# Static dielectric constant tensor:
#      x y z
#    x 1.952050 0.000000 0.000000 
#    y 0.000000 2.013880 0.000000 
#    z 0.000000 0.000000 2.014920 
# 
# From -- ./inp_files/16191.got.cif
#   From: 2010.05.17/outbox.cif.g08.bks.cpg/sg60_9_cif.got.tgz:16191.got - 2010.06.03 14:59:27.
