data_PCOD9454577
_publ_section_title
;
Structure prediction by ZEFSAII (Michael W. Deem and Ramdas Pophale) SiO2 
 PCOD9454577
Probable space group: P B C N
;
_chemical_formula_sum "Si O2"
_cell_formula_units_Z 32
_cell_length_a 7.349059
_cell_length_b 22.022817
_cell_length_c 8.096463
_cell_angle_alpha 90.000000
_cell_angle_beta 90.000000
_cell_angle_gamma 90.000000
_cell_volume 1310.388097
_symmetry_space_group_name_H-M "P B C N"
_symmetry_group_IT_number 60
_symmetry_cell_setting 'orthorhombic'
loop_
_space_group_symop_operation_xyz
x,y,z
1/2-x,1/2-y,1/2+z
1/2+x,1/2-y,-z
-x,y,1/2-z
-x,-y,-z
1/2+x,1/2+y,1/2-z
1/2-x,1/2+y,z
x,-y,1/2+z
loop_
_atom_site_type_symbol
_atom_site_label
_atom_site_fract_x
_atom_site_fract_y
_atom_site_fract_z
Si Si1 0.208736 0.667033 0.679613
Si Si2 0.293504 0.709087 0.306880
Si Si3 0.711742 0.041271 0.696362
Si Si4 0.201702 0.581351 0.179270
O O1 0.236197 0.686444 0.488962
O O2 0.292315 0.724283 0.778689
O O3 0.287878 0.599275 0.703908
O O4 0.000000 0.659745 0.750000
O O5 0.500000 0.721380 0.250000
O O6 0.257851 0.650978 0.192266
O O7 0.500000 0.034788 0.750000
O O8 0.711958 0.059836 0.507272
O O9 0.793771 0.974136 0.720504
O O10 0.000000 0.584815 0.250000
#
# Coordination Sequence:
#
# PCOD9454577 Si02
#       4
#     8   8   8   8
#     4  10  21  41  64  90 125 170 217 263 317 390
#     4  11  24  42  64  96 130 164 208 269 329 383
#     4  10  19  35  60  90 117 162 220 266 304 375
#     4  11  20  36  62  90 123 166 214 264 316 384
#
# _framework density 24.420245999999999
#
# number of rings (size 3 to 8) (size 9 to 14) (size 15 to 20)
#    0.000    1.500    0.000    9.000    0.000    2.000 
#    0.000   11.250    0.000    0.000    0.000    0.000 
#    0.000    0.000    0.000    0.000    0.000    0.000 
#
# Total GULP energy -178434.201164 kJ/mol
# GULP energy per Si atom -5576.068786 kJ/mol
# Density = 2.436466 g / cm^3
# Si number density = 24.420246 Si / 1000 Ang^3
#
#
#
# Elastic Constant Matrix: (Units=GPa)
#
#
# Indices 1 2 3 4 5 6 
#
# 1 74.4937 1.6463 -10.1709 0.0000 0.0000 0.0000
# 2 1.6463 177.4466 -37.7112 0.0000 0.0000 0.0000
# 3 -10.1709 -37.7112 78.5860 0.0000 0.0000 0.0000
# 4 0.0000 0.0000 0.0000 62.6643 0.0000 0.0000
# 5 0.0000 0.0000 0.0000 0.0000 19.1186 0.0000
# 6 0.0000 0.0000 0.0000 0.0000 0.0000 0.5337
#
#
#
# Elastic Compliance Matrix: (Units=1/GPa)
#
#
# Indices 1 2 3 4 5 6 
#
# 1 0.013678 0.000278 0.001903 0.000000 0.000000 0.000000
# 2 0.000278 0.006281 0.003050 0.000000 0.000000 0.000000
# 3 0.001903 0.003050 0.014435 0.000000 0.000000 0.000000
# 4 0.000000 0.000000 0.000000 0.015958 0.000000 0.000000
# 5 0.000000 0.000000 0.000000 0.000000 0.052305 0.000000
# 6 0.000000 0.000000 0.000000 0.000000 0.000000 1.873807
#
#
# Mechanical properties :
#
#
# Convention : Reuss Voigt Hill
#
# Bulk Modulus (GPa) = 22.29357 26.45054 24.37205
# Shear Modulus (GPa) = 2.52404 41.58080 22.05242
#
# Velocity S-wave (km/s) = 1.01776 4.13088 3.00832
# Velocity P-wave (km/s) = 3.24501 5.79716 4.69772
#
# Compressibility (1/GPa) = 0.04485598
#
# Stress axis : x y z
#
# Youngs Moduli (GPa) = 73.11173 159.20717 69.27654
#
# Poissons Ratio (x) = -0.04420 -0.13186
# Poissons Ratio (y) = -0.02030 -0.21130
# Poissons Ratio (z) = -0.13916 -0.48559
#
# Static dielectric constant tensor:
#      x y z
#    x 3.631750 0.000000 0.000000 
#    y 0.000000 2.141320 0.000000 
#    z 0.000000 0.000000 1.975110 
# 
# From -- ./inp_files/3764.got.cif
#   From: 2010.05.17/outbox.cif.g08.bks.cpg/sg60_2_cif.got.tgz:3764.got - 2010.06.03 14:59:27.
