data_PCOD9454971
_publ_section_title
;
Structure prediction by ZEFSAII (Michael W. Deem and Ramdas Pophale) SiO2 
 PCOD9454971
Probable space group: P B C N
;
_chemical_formula_sum "Si O2"
_cell_formula_units_Z 40
_cell_length_a 14.397709
_cell_length_b 21.758712
_cell_length_c 5.190015
_cell_angle_alpha 90.000000
_cell_angle_beta 90.000000
_cell_angle_gamma 90.000000
_cell_volume 1625.905082
_symmetry_space_group_name_H-M "P B C N"
_symmetry_group_IT_number 60
_symmetry_cell_setting 'orthorhombic'
loop_
_space_group_symop_operation_xyz
x,y,z
1/2-x,1/2-y,1/2+z
1/2+x,1/2-y,-z
-x,y,1/2-z
-x,-y,-z
1/2+x,1/2+y,1/2-z
1/2-x,1/2+y,z
x,-y,1/2+z
loop_
_atom_site_type_symbol
_atom_site_label
_atom_site_fract_x
_atom_site_fract_y
_atom_site_fract_z
Si Si1 0.302567 0.331129 0.139678
Si Si2 0.115808 0.345421 0.904436
Si Si3 0.396837 0.023359 0.664214
Si Si4 0.374886 0.216550 0.901094
Si Si5 0.389021 0.539361 0.776005
O O1 0.228231 0.344379 0.913513
O O2 0.376953 0.282933 0.031176
O O3 0.235028 0.299016 0.350481
O O4 0.341943 0.394821 0.238445
O O5 0.094543 0.409837 0.040212
O O6 0.086957 0.293372 0.113239
O O7 0.087875 0.331993 0.612939
O O8 0.500000 0.002091 0.750000
O O9 0.350814 0.980674 0.446056
O O10 0.500000 0.548762 0.750000
O O11 0.365548 0.492703 0.545063
#
# Coordination Sequence:
#
# PCOD9454971 Si02
#       5
#     8   8   8   8   8
#     4  10  21  37  63  79 120 144 184 235 295 327
#     4  10  20  34  54  85 110 140 190 231 276 346
#     4  10  21  37  54  74 111 154 185 227 280 326
#     4  10  20  35  57  85 113 142 179 234 289 335
#     4  10  24  41  58  84 117 154 196 237 284 344
#
# _framework density 24.601680999999999
#
# number of rings (size 3 to 8) (size 9 to 14) (size 15 to 20)
#    1.200    0.800    2.000    1.200    2.800    1.600 
#    0.000    2.000    0.000    0.000    0.000    0.000 
#    0.000    0.000    0.000    0.000    0.000    0.000 
#
# Total GULP energy -223398.879621 kJ/mol
# GULP energy per Si atom -5584.971991 kJ/mol
# Density = 2.454569 g / cm^3
# Si number density = 24.601681 Si / 1000 Ang^3
#
#
#
# Elastic Constant Matrix: (Units=GPa)
#
#
# Indices 1 2 3 4 5 6 
#
# 1 54.5683 9.5486 12.0865 0.0000 0.0000 0.0000
# 2 9.5486 117.1124 30.2910 0.0000 0.0000 0.0000
# 3 12.0865 30.2910 165.7731 0.0000 0.0000 0.0000
# 4 0.0000 0.0000 0.0000 34.8841 0.0000 0.0000
# 5 0.0000 0.0000 0.0000 0.0000 27.8336 0.0000
# 6 0.0000 0.0000 0.0000 0.0000 0.0000 36.3980
#
#
#
# Elastic Compliance Matrix: (Units=1/GPa)
#
#
# Indices 1 2 3 4 5 6 
#
# 1 0.018795 -0.001236 -0.001144 0.000000 0.000000 0.000000
# 2 -0.001236 0.009044 -0.001562 0.000000 0.000000 0.000000
# 3 -0.001144 -0.001562 0.006401 0.000000 0.000000 0.000000
# 4 0.000000 0.000000 0.000000 0.028666 0.000000 0.000000
# 5 0.000000 0.000000 0.000000 0.000000 0.035928 0.000000
# 6 0.000000 0.000000 0.000000 0.000000 0.000000 0.027474
#
#
# Mechanical properties :
#
#
# Convention : Reuss Voigt Hill
#
# Bulk Modulus (GPa) = 37.94500 49.03401 43.48951
# Shear Modulus (GPa) = 34.96994 38.85830 36.91412
#
# Velocity S-wave (km/s) = 3.77430 3.97860 3.87779
# Velocity P-wave (km/s) = 5.86949 6.40938 6.14537
#
# Compressibility (1/GPa) = 0.02635394
#
# Stress axis : x y z
#
# Youngs Moduli (GPa) = 53.20424 110.57390 156.21901
#
# Poissons Ratio (x) = 0.13672 0.17878
# Poissons Ratio (y) = 0.06579 0.24407
# Poissons Ratio (z) = 0.06089 0.17276
#
# Static dielectric constant tensor:
#      x y z
#    x 2.116990 0.000000 0.000000 
#    y 0.000000 1.921800 0.000000 
#    z 0.000000 0.000000 2.039030 
# 
# From -- ./inp_files/2015.got.cif
#   From: 2010.05.17/outbox.cif.g08.bks.cpg/sg60_2_cif.got.tgz:2015.got - 2010.06.03 14:59:27.
