data_PCOD9454643
_publ_section_title
;
Structure prediction by ZEFSAII (Michael W. Deem and Ramdas Pophale) SiO2 
 PCOD9454643
Probable space group: P B C N
;
_chemical_formula_sum "Si O2"
_cell_formula_units_Z 56
_cell_length_a 14.887350
_cell_length_b 11.792033
_cell_length_c 14.913921
_cell_angle_alpha 90.000000
_cell_angle_beta 90.000000
_cell_angle_gamma 90.000000
_cell_volume 2618.170486
_symmetry_space_group_name_H-M "P B C N"
_symmetry_group_IT_number 60
_symmetry_cell_setting 'orthorhombic'
loop_
_space_group_symop_operation_xyz
x,y,z
1/2-x,1/2-y,1/2+z
1/2+x,1/2-y,-z
-x,y,1/2-z
-x,-y,-z
1/2+x,1/2+y,1/2-z
1/2-x,1/2+y,z
x,-y,1/2+z
loop_
_atom_site_type_symbol
_atom_site_label
_atom_site_fract_x
_atom_site_fract_y
_atom_site_fract_z
Si Si1 0.775643 0.491716 0.982728
Si Si2 0.611323 0.777505 0.918502
Si Si3 0.908927 0.055281 0.036799
Si Si4 0.580538 0.763030 0.318456
Si Si5 0.733402 0.365824 0.303299
Si Si6 0.595259 0.529904 0.237190
Si Si7 0.444699 0.882953 0.986930
O O1 0.828987 0.376884 0.962198
O O2 0.756570 0.556185 0.889450
O O3 0.843738 0.576185 0.035774
O O4 0.677916 0.475128 0.024666
O O5 0.664959 0.734270 0.831785
O O6 0.609636 0.668476 0.982030
O O7 0.507288 0.816828 0.915972
O O8 0.912761 0.086553 0.140655
O O9 0.000000 0.000000 0.000000
O O10 0.500000 0.788201 0.250000
O O11 0.670781 0.817347 0.277609
O O12 0.599013 0.627661 0.312583
O O13 0.561850 0.812279 0.418566
O O14 0.678866 0.447610 0.239005
O O15 0.500000 0.466402 0.250000
O O16 0.500000 0.000000 0.000000
#
# Coordination Sequence:
#
# PCOD9454643 Si02
#       7
#     8   8   8   8   8   8   8
#     4   9  20  38  58  84 117 151 191 243 298 353
#     4  10  19  36  60  85 115 153 193 238 299 359
#     4  11  24  38  59  86 114 153 203 252 298 362
#     4  10  21  38  62  87 119 164 202 240 301 368
#     4  10  21  36  58  88 121 154 190 245 301 354
#     4  11  22  38  57  83 117 153 197 246 301 364
#     4   9  19  36  61  89 116 150 197 246 290 352
#
# _framework density 21.388981999999999
#
# number of rings (size 3 to 8) (size 9 to 14) (size 15 to 20)
#    0.000    2.000    0.000    4.286    0.000    8.000 
#    0.000    1.429    0.000   24.000    0.000    0.000 
#    0.000    0.000    0.000    0.000    0.000    0.000 
#
# Total GULP energy -312295.847734 kJ/mol
# GULP energy per Si atom -5576.711567 kJ/mol
# Density = 2.134030 g / cm^3
# Si number density = 21.388982 Si / 1000 Ang^3
#
#
#
# Elastic Constant Matrix: (Units=GPa)
#
#
# Indices 1 2 3 4 5 6 
#
# 1 174.2133 51.1894 29.7346 0.0000 0.0000 0.0000
# 2 51.1894 87.4045 15.8073 0.0000 0.0000 0.0000
# 3 29.7346 15.8073 24.6317 0.0000 0.0000 0.0000
# 4 0.0000 0.0000 0.0000 15.8119 0.0000 0.0000
# 5 0.0000 0.0000 0.0000 0.0000 28.0779 0.0000
# 6 0.0000 0.0000 0.0000 0.0000 0.0000 40.2157
#
#
#
# Elastic Compliance Matrix: (Units=1/GPa)
#
#
# Indices 1 2 3 4 5 6 
#
# 1 0.008002 -0.003325 -0.007525 0.000000 0.000000 0.000000
# 2 -0.003325 0.014325 -0.005179 0.000000 0.000000 0.000000
# 3 -0.007525 -0.005179 0.053006 0.000000 0.000000 0.000000
# 4 0.000000 0.000000 0.000000 0.063243 0.000000 0.000000
# 5 0.000000 0.000000 0.000000 0.000000 0.035615 0.000000
# 6 0.000000 0.000000 0.000000 0.000000 0.000000 0.024866
#
#
# Mechanical properties :
#
#
# Convention : Reuss Voigt Hill
#
# Bulk Modulus (GPa) = 23.10875 53.30132 38.20504
# Shear Modulus (GPa) = 20.36324 29.45565 24.90945
#
# Velocity S-wave (km/s) = 3.08887 3.71501 3.41631
# Velocity P-wave (km/s) = 4.85273 6.58603 5.78467
#
# Compressibility (1/GPa) = 0.04327365
#
# Stress axis : x y z
#
# Youngs Moduli (GPa) = 124.97571 69.80732 18.86585
#
# Poissons Ratio (x) = 0.23213 0.14197
# Poissons Ratio (y) = 0.41557 0.09771
# Poissons Ratio (z) = 0.94047 0.36153
#
# Static dielectric constant tensor:
#      x y z
#    x 1.847690 0.000000 0.000000 
#    y 0.000000 1.802510 0.000000 
#    z 0.000000 0.000000 1.806930 
# 
# From -- ./inp_files/16862.got.cif
#   From: 2010.05.17/outbox.cif.g08.bks.cpg/sg60_9_cif.got.tgz:16862.got - 2010.06.03 14:59:27.
