data_PCOD9454736
_publ_section_title
;
Structure prediction by ZEFSAII (Michael W. Deem and Ramdas Pophale) SiO2 
 PCOD9454736
Probable space group: P B C N
;
_chemical_formula_sum "Si O2"
_cell_formula_units_Z 32
_cell_length_a 18.268147
_cell_length_b 12.816848
_cell_length_c 5.170817
_cell_angle_alpha 90.000000
_cell_angle_beta 90.000000
_cell_angle_gamma 90.000000
_cell_volume 1210.695420
_symmetry_space_group_name_H-M "P B C N"
_symmetry_group_IT_number 60
_symmetry_cell_setting 'orthorhombic'
loop_
_space_group_symop_operation_xyz
x,y,z
1/2-x,1/2-y,1/2+z
1/2+x,1/2-y,-z
-x,y,1/2-z
-x,-y,-z
1/2+x,1/2+y,1/2-z
1/2-x,1/2+y,z
x,-y,1/2+z
loop_
_atom_site_type_symbol
_atom_site_label
_atom_site_fract_x
_atom_site_fract_y
_atom_site_fract_z
Si Si1 0.500000 0.649428 0.750000
Si Si2 0.777926 0.877998 0.530618
Si Si3 0.392112 0.066039 0.468944
Si Si4 0.344861 0.389535 0.461106
Si Si5 0.000000 0.724956 0.750000
O O1 0.570701 0.596258 0.618019
O O2 0.469219 0.709011 0.494210
O O3 0.691879 0.897738 0.533467
O O4 0.804688 0.827221 0.266342
O O5 0.810501 0.996116 0.507527
O O6 0.820530 0.833968 0.776304
O O7 0.441933 0.155641 0.591334
O O8 0.405839 0.028411 0.174812
#
# Coordination Sequence:
#
# PCOD9454736 Si02
#       5
#     4   8   8   8   4
#     4  12  26  45  59  94 152 192 218 262 342 460
#     4  10  19  37  68 103 120 162 237 299 330 374
#     4  12  21  43  72 100 128 164 237 307 336 385
#     4  10  20  38  65  95 134 170 225 279 337 395
#     4  12  28  43  63 100 140 192 224 262 360 426
#
# _framework density 26.431090999999999
#
# number of rings (size 3 to 8) (size 9 to 14) (size 15 to 20)
#    0.000    1.000    5.000    3.750    0.000    4.000 
#    0.000    5.000    0.000    0.000    0.000    0.000 
#    0.000    0.000    0.000    0.000    0.000    0.000 
#
# Total GULP energy -178917.555005 kJ/mol
# GULP energy per Si atom -5591.173594 kJ/mol
# Density = 2.637093 g / cm^3
# Si number density = 26.431091 Si / 1000 Ang^3
#
#
#
# Elastic Constant Matrix: (Units=GPa)
#
#
# Indices 1 2 3 4 5 6 
#
# 1 160.4535 34.0486 7.1998 0.0000 0.0000 0.0000
# 2 34.0486 62.6110 4.9041 0.0000 0.0000 0.0000
# 3 7.1998 4.9041 210.5913 0.0000 0.0000 0.0000
# 4 0.0000 0.0000 0.0000 25.9979 0.0000 0.0000
# 5 0.0000 0.0000 0.0000 0.0000 27.2478 0.0000
# 6 0.0000 0.0000 0.0000 0.0000 0.0000 16.5599
#
#
#
# Elastic Compliance Matrix: (Units=1/GPa)
#
#
# Indices 1 2 3 4 5 6 
#
# 1 0.007050 -0.003822 -0.000152 0.000000 0.000000 0.000000
# 2 -0.003822 0.018073 -0.000290 0.000000 0.000000 0.000000
# 3 -0.000152 -0.000290 0.004760 0.000000 0.000000 0.000000
# 4 0.000000 0.000000 0.000000 0.038465 0.000000 0.000000
# 5 0.000000 0.000000 0.000000 0.000000 0.036700 0.000000
# 6 0.000000 0.000000 0.000000 0.000000 0.000000 0.060387
#
#
# Mechanical properties :
#
#
# Convention : Reuss Voigt Hill
#
# Bulk Modulus (GPa) = 46.82758 58.44012 52.63385
# Shear Modulus (GPa) = 27.61175 39.79466 33.70321
#
# Velocity S-wave (km/s) = 3.23564 3.88442 3.57478
# Velocity P-wave (km/s) = 5.63156 6.50205 6.08240
#
# Compressibility (1/GPa) = 0.02135493
#
# Stress axis : x y z
#
# Youngs Moduli (GPa) = 141.83975 55.33159 210.06242
#
# Poissons Ratio (x) = 0.21148 0.03194
# Poissons Ratio (y) = 0.54212 0.06096
# Poissons Ratio (z) = 0.02156 0.01606
#
# Static dielectric constant tensor:
#      x y z
#    x 2.050390 0.000000 0.000000 
#    y 0.000000 2.307180 0.000000 
#    z 0.000000 0.000000 2.424670 
# 
# From -- ./inp_files/1584.got.cif
#   From: 2010.05.17/outbox.cif.g08.bks.cpg/sg60_1_cif.got.tgz:1584.got - 2010.06.03 14:59:27.
