data_PCOD9454642
_publ_section_title
;
Structure prediction by ZEFSAII (Michael W. Deem and Ramdas Pophale) SiO2 
 PCOD9454642
Probable space group: P B C N
;
_chemical_formula_sum "Si O2"
_cell_formula_units_Z 40
_cell_length_a 8.083166
_cell_length_b 21.793192
_cell_length_c 9.977564
_cell_angle_alpha 90.000000
_cell_angle_beta 90.000000
_cell_angle_gamma 90.000000
_cell_volume 1757.627605
_symmetry_space_group_name_H-M "P B C N"
_symmetry_group_IT_number 60
_symmetry_cell_setting 'orthorhombic'
loop_
_space_group_symop_operation_xyz
x,y,z
1/2-x,1/2-y,1/2+z
1/2+x,1/2-y,-z
-x,y,1/2-z
-x,-y,-z
1/2+x,1/2+y,1/2-z
1/2-x,1/2+y,z
x,-y,1/2+z
loop_
_atom_site_type_symbol
_atom_site_label
_atom_site_fract_x
_atom_site_fract_y
_atom_site_fract_z
Si Si1 0.669363 0.995108 0.686172
Si Si2 0.683688 0.629889 0.265271
Si Si3 0.924779 0.298688 0.899599
Si Si4 0.771632 0.175775 0.996456
Si Si5 0.157623 0.965542 0.063871
O O1 0.500000 0.018343 0.750000
O O2 0.691510 0.923013 0.719028
O O3 0.698344 0.997854 0.527582
O O4 0.810081 0.024438 0.779889
O O5 0.500000 0.603041 0.250000
O O6 0.761438 0.657780 0.399470
O O7 0.677927 0.682654 0.152875
O O8 0.000000 0.304925 0.750000
O O9 0.071845 0.317279 0.000936
O O10 0.861731 0.229856 0.919508
O O11 0.832123 0.107586 0.958580
O O12 0.000000 0.000000 0.000000
#
# Coordination Sequence:
#
# PCOD9454642 Si02
#       5
#     8   8   8   8   8
#     4  11  22  39  61  88 123 161 201 251 304 362
#     4  10  19  36  60  84 113 158 203 245 301 362
#     4  10  21  37  59  86 119 154 198 250 301 360
#     4  10  21  38  58  86 118 155 199 248 300 358
#     4  11  23  40  62  90 123 162 205 248 301 366
#
# _framework density 22.757949
#
# number of rings (size 3 to 8) (size 9 to 14) (size 15 to 20)
#    0.000    1.600    0.000    7.800    0.000    1.600 
#    0.000    7.000    0.000    0.000    0.000    0.000 
#    0.000    0.000    0.000    0.000    0.000    0.000 
#
# Total GULP energy -222913.172028 kJ/mol
# GULP energy per Si atom -5572.829301 kJ/mol
# Density = 2.270615 g / cm^3
# Si number density = 22.757949 Si / 1000 Ang^3
#
#
#
# Elastic Constant Matrix: (Units=GPa)
#
#
# Indices 1 2 3 4 5 6 
#
# 1 120.7159 26.6830 -4.5812 0.0000 0.0000 0.0000
# 2 26.6830 104.8856 9.8828 0.0000 0.0000 0.0000
# 3 -4.5812 9.8828 35.0986 0.0000 0.0000 0.0000
# 4 0.0000 0.0000 0.0000 33.9083 0.0000 0.0000
# 5 0.0000 0.0000 0.0000 0.0000 24.2228 0.0000
# 6 0.0000 0.0000 0.0000 0.0000 0.0000 22.7531
#
#
#
# Elastic Compliance Matrix: (Units=1/GPa)
#
#
# Indices 1 2 3 4 5 6 
#
# 1 0.008893 -0.002436 0.001847 0.000000 0.000000 0.000000
# 2 -0.002436 0.010462 -0.003264 0.000000 0.000000 0.000000
# 3 0.001847 -0.003264 0.029651 0.000000 0.000000 0.000000
# 4 0.000000 0.000000 0.000000 0.029491 0.000000 0.000000
# 5 0.000000 0.000000 0.000000 0.000000 0.041283 0.000000
# 6 0.000000 0.000000 0.000000 0.000000 0.000000 0.043950
#
#
# Mechanical properties :
#
#
# Convention : Reuss Voigt Hill
#
# Bulk Modulus (GPa) = 24.21385 36.07438 30.14412
# Shear Modulus (GPa) = 26.99742 31.42451 29.21097
#
# Velocity S-wave (km/s) = 3.44799 3.71996 3.58655
# Velocity P-wave (km/s) = 5.14920 5.85974 5.51593
#
# Compressibility (1/GPa) = 0.04129867
#
# Stress axis : x y z
#
# Youngs Moduli (GPa) = 112.45420 95.58857 33.72545
#
# Poissons Ratio (x) = 0.23288 -0.06228
# Poissons Ratio (y) = 0.27397 0.11007
# Poissons Ratio (z) = -0.20767 0.31197
#
# Static dielectric constant tensor:
#      x y z
#    x 2.059910 0.000000 0.000000 
#    y 0.000000 1.809720 0.000000 
#    z 0.000000 0.000000 1.909690 
# 
# From -- ./inp_files/9951.got.cif
#   From: 2010.05.17/outbox.cif.g08.bks.cpg/sg60_5_cif.got.tgz:9951.got - 2010.06.03 14:59:27.
