data_PCOD9454916
_publ_section_title
;
Structure prediction by ZEFSAII (Michael W. Deem and Ramdas Pophale) SiO2 
 PCOD9454916
Probable space group: P B C N
;
_chemical_formula_sum "Si O2"
_cell_formula_units_Z 40
_cell_length_a 18.510418
_cell_length_b 22.010095
_cell_length_c 5.008337
_cell_angle_alpha 90.000000
_cell_angle_beta 90.000000
_cell_angle_gamma 90.000000
_cell_volume 2040.476921
_symmetry_space_group_name_H-M "P B C N"
_symmetry_group_IT_number 60
_symmetry_cell_setting 'orthorhombic'
loop_
_space_group_symop_operation_xyz
x,y,z
1/2-x,1/2-y,1/2+z
1/2+x,1/2-y,-z
-x,y,1/2-z
-x,-y,-z
1/2+x,1/2+y,1/2-z
1/2-x,1/2+y,z
x,-y,1/2+z
loop_
_atom_site_type_symbol
_atom_site_label
_atom_site_fract_x
_atom_site_fract_y
_atom_site_fract_z
Si Si1 0.903326 0.536070 0.531700
Si Si2 0.785135 0.825612 0.188151
Si Si3 0.654419 0.740714 0.188593
Si Si4 0.770191 0.961998 0.023397
Si Si5 0.000000 0.286691 0.250000
Si Si6 0.000000 0.365343 0.750000
O O1 0.923023 0.520565 0.836354
O O2 0.817163 0.541876 0.522636
O O3 0.940342 0.593188 0.394797
O O4 0.702121 0.802266 0.157634
O O5 0.811797 0.807384 0.481356
O O6 0.794786 0.895692 0.114684
O O7 0.830348 0.784807 0.982128
O O8 0.569907 0.750884 0.146427
O O9 0.792025 0.014039 0.233807
O O10 0.971501 0.325355 0.503292
#
# Coordination Sequence:
#
# PCOD9454916 Si02
#       6
#     8   8   8   8   4   4
#     4  10  20  33  48  73 109 149 188 220 258 310
#     4  10  20  38  58  82 111 146 183 226 280 330
#     4  10  22  37  58  81 111 146 185 230 276 331
#     4  10  20  33  54  82 109 139 181 230 273 324
#     4  12  24  37  54  84 108 141 190 232 282 326
#     4  12  22  33  52  72 110 153 186 224 260 322
#
# _framework density 19.603261
#
# number of rings (size 3 to 8) (size 9 to 14) (size 15 to 20)
#    0.000    1.600    0.000    5.400    0.000    6.400 
#    0.000    0.000    0.000    0.000    0.000   14.000 
#    0.000    0.000    0.000    0.000    0.000    0.000 
#
# Total GULP energy -223463.030259 kJ/mol
# GULP energy per Si atom -5586.575756 kJ/mol
# Density = 1.955864 g / cm^3
# Si number density = 19.603261 Si / 1000 Ang^3
#
#
#
# Elastic Constant Matrix: (Units=GPa)
#
#
# Indices 1 2 3 4 5 6 
#
# 1 68.6567 14.1394 -2.6061 0.0000 0.0000 0.0000
# 2 14.1394 66.4032 -5.6674 0.0000 0.0000 0.0000
# 3 -2.6061 -5.6674 72.6143 0.0000 0.0000 0.0000
# 4 0.0000 0.0000 0.0000 25.9800 0.0000 0.0000
# 5 0.0000 0.0000 0.0000 0.0000 16.2145 0.0000
# 6 0.0000 0.0000 0.0000 0.0000 0.0000 8.9010
#
#
#
# Elastic Compliance Matrix: (Units=1/GPa)
#
#
# Indices 1 2 3 4 5 6 
#
# 1 0.015240 -0.003220 0.000296 0.000000 0.000000 0.000000
# 2 -0.003220 0.015841 0.001121 0.000000 0.000000 0.000000
# 3 0.000296 0.001121 0.013869 0.000000 0.000000 0.000000
# 4 0.000000 0.000000 0.000000 0.038491 0.000000 0.000000
# 5 0.000000 0.000000 0.000000 0.000000 0.061673 0.000000
# 6 0.000000 0.000000 0.000000 0.000000 0.000000 0.112347
#
#
# Mechanical properties :
#
#
# Convention : Reuss Voigt Hill
#
# Bulk Modulus (GPa) = 24.18783 24.37845 24.28314
# Shear Modulus (GPa) = 18.19180 23.67298 20.93239
#
# Velocity S-wave (km/s) = 3.04961 3.47883 3.27127
# Velocity P-wave (km/s) = 4.97651 5.34783 5.16551
#
# Compressibility (1/GPa) = 0.04134311
#
# Stress axis : x y z
#
# Youngs Moduli (GPa) = 65.61885 63.12827 72.10077
#
# Poissons Ratio (x) = 0.20326 -0.02132
# Poissons Ratio (y) = 0.21128 -0.08081
# Poissons Ratio (z) = -0.01940 -0.07075
#
# Static dielectric constant tensor:
#      x y z
#    x 1.674570 0.000000 0.000000 
#    y 0.000000 1.704030 0.000000 
#    z 0.000000 0.000000 1.683080 
# 
# From -- ./inp_files/1651.got.cif
#   From: 2010.05.17/outbox.cif.g08.bks.cpg/sg60_1_cif.got.tgz:1651.got - 2010.06.03 14:59:27.
