data_PCOD9454842
_publ_section_title
;
Structure prediction by ZEFSAII (Michael W. Deem and Ramdas Pophale) SiO2 
 PCOD9454842
Probable space group: P B C N
;
_chemical_formula_sum "Si O2"
_cell_formula_units_Z 64
_cell_length_a 9.364646
_cell_length_b 14.323354
_cell_length_c 23.950362
_cell_angle_alpha 90.000000
_cell_angle_beta 90.000000
_cell_angle_gamma 90.000000
_cell_volume 3212.537253
_symmetry_space_group_name_H-M "P B C N"
_symmetry_group_IT_number 60
_symmetry_cell_setting 'orthorhombic'
loop_
_space_group_symop_operation_xyz
x,y,z
1/2-x,1/2-y,1/2+z
1/2+x,1/2-y,-z
-x,y,1/2-z
-x,-y,-z
1/2+x,1/2+y,1/2-z
1/2-x,1/2+y,z
x,-y,1/2+z
loop_
_atom_site_type_symbol
_atom_site_label
_atom_site_fract_x
_atom_site_fract_y
_atom_site_fract_z
Si Si1 0.878392 0.708997 0.458919
Si Si2 0.163943 0.090763 0.235811
Si Si3 0.415292 0.140602 0.307442
Si Si4 0.649228 0.261546 0.863234
Si Si5 0.951385 0.519062 0.404664
Si Si6 0.380559 0.170605 0.915219
Si Si7 0.437971 0.672902 0.878190
Si Si8 0.796454 0.070102 0.840105
O O1 0.737239 0.719660 0.420367
O O2 0.855412 0.717629 0.524522
O O3 0.939590 0.605491 0.446645
O O4 0.988259 0.785111 0.434085
O O5 0.253172 0.127437 0.288128
O O6 0.174704 0.156947 0.181231
O O7 0.000000 0.085688 0.250000
O O8 0.215851 0.989413 0.215878
O O9 0.500000 0.132302 0.250000
O O10 0.470969 0.063062 0.350417
O O11 0.444161 0.240809 0.334913
O O12 0.486695 0.235642 0.878754
O O13 0.720576 0.169834 0.836227
O O14 0.037371 0.427691 0.422869
O O15 0.793461 0.484577 0.387225
O O16 0.227042 0.151383 0.888043
O O17 0.539767 0.590029 0.856743
#
# Coordination Sequence:
#
# PCOD9454842 Si02
#       8
#     8   8   8   8   8   8   8   8
#     4  10  19  41  67  84 124 171 200 251 327 373
#     4  12  24  39  62  91 124 165 203 258 317 364
#     4  11  21  42  63  83 122 170 204 246 315 372
#     4  10  22  42  63  88 129 161 209 259 308 383
#     4  10  21  39  61  90 122 160 211 257 301 386
#     4  11  22  38  62  96 121 159 211 262 312 370
#     4  10  23  39  62  94 125 155 212 261 305 376
#     4  10  21  41  61  85 125 162 198 253 311 364
#
# _framework density 19.921949000000001
#
# number of rings (size 3 to 8) (size 9 to 14) (size 15 to 20)
#    0.000    1.500    2.500    3.375    1.750    1.500 
#    4.500    0.625    0.000    0.000    0.000    0.000 
#    0.000    0.000    0.000    0.000    0.000    0.000 
#
# Total GULP energy -357467.870165 kJ/mol
# GULP energy per Si atom -5585.435471 kJ/mol
# Density = 1.987661 g / cm^3
# Si number density = 19.921949 Si / 1000 Ang^3
#
#
#
# Elastic Constant Matrix: (Units=GPa)
#
#
# Indices 1 2 3 4 5 6 
#
# 1 107.0179 -0.5719 21.3059 0.0000 0.0000 0.0000
# 2 -0.5719 54.1564 11.4825 0.0000 0.0000 0.0000
# 3 21.3059 11.4825 66.6589 0.0000 0.0000 0.0000
# 4 0.0000 0.0000 0.0000 7.4839 0.0000 0.0000
# 5 0.0000 0.0000 0.0000 0.0000 20.6498 0.0000
# 6 0.0000 0.0000 0.0000 0.0000 0.0000 19.6539
#
#
#
# Elastic Compliance Matrix: (Units=1/GPa)
#
#
# Indices 1 2 3 4 5 6 
#
# 1 0.010014 0.000814 -0.003341 0.000000 0.000000 0.000000
# 2 0.000814 0.019231 -0.003573 0.000000 0.000000 0.000000
# 3 -0.003341 -0.003573 0.016685 0.000000 0.000000 0.000000
# 4 0.000000 0.000000 0.000000 0.133620 0.000000 0.000000
# 5 0.000000 0.000000 0.000000 0.000000 0.048427 0.000000
# 6 0.000000 0.000000 0.000000 0.000000 0.000000 0.050880
#
#
# Mechanical properties :
#
#
# Convention : Reuss Voigt Hill
#
# Bulk Modulus (GPa) = 29.64675 32.47403 31.06039
# Shear Modulus (GPa) = 16.53988 22.59864 19.56926
#
# Velocity S-wave (km/s) = 2.88450 3.37168 3.13756
# Velocity P-wave (km/s) = 5.09976 5.61192 5.36196
#
# Compressibility (1/GPa) = 0.03373051
#
# Stress axis : x y z
#
# Youngs Moduli (GPa) = 99.86313 51.99890 59.93386
#
# Poissons Ratio (x) = -0.04233 0.20023
# Poissons Ratio (y) = -0.08130 0.21414
# Poissons Ratio (z) = 0.33363 0.18579
#
# Static dielectric constant tensor:
#      x y z
#    x 1.740820 0.000000 0.000000 
#    y 0.000000 1.686000 0.000000 
#    z 0.000000 0.000000 1.699280 
# 
# From -- ./inp_files/24081.got.cif
#   From: 2010.05.17/outbox.cif.g08.bks.cpg/sg60_13_cif.got.tgz:24081.got - 2010.06.03 14:59:27.
