data_PCOD9454033
_publ_section_title
;
Structure prediction by ZEFSAII (Michael W. Deem and Ramdas Pophale) SiO2 
 PCOD9454033
Probable space group: P B C N
;
_chemical_formula_sum "Si O2"
_cell_formula_units_Z 60
_cell_length_a 8.335225
_cell_length_b 13.866212
_cell_length_c 21.764492
_cell_angle_alpha 90.000000
_cell_angle_beta 90.000000
_cell_angle_gamma 90.000000
_cell_volume 2515.496389
_symmetry_space_group_name_H-M "P B C N"
_symmetry_group_IT_number 60
_symmetry_cell_setting 'orthorhombic'
loop_
_space_group_symop_operation_xyz
x,y,z
1/2-x,1/2-y,1/2+z
1/2+x,1/2-y,-z
-x,y,1/2-z
-x,-y,-z
1/2+x,1/2+y,1/2-z
1/2-x,1/2+y,z
x,-y,1/2+z
loop_
_atom_site_type_symbol
_atom_site_label
_atom_site_fract_x
_atom_site_fract_y
_atom_site_fract_z
Si Si1 0.926039 0.765389 0.310371
Si Si2 0.955280 0.622245 0.616348
Si Si3 0.849753 0.990684 0.291748
Si Si4 0.347066 0.286622 0.428268
Si Si5 0.500000 0.039883 0.750000
Si Si6 0.695212 0.278721 0.900351
Si Si7 0.734230 0.981951 0.927031
Si Si8 0.353612 0.355088 0.006155
O O1 0.872065 0.874148 0.294086
O O2 0.768444 0.711052 0.332805
O O3 0.000000 0.720963 0.250000
O O4 0.054480 0.764910 0.365979
O O5 0.778267 0.629525 0.588926
O O6 0.962820 0.600269 0.688438
O O7 0.021207 0.732077 0.606656
O O8 0.066313 0.537717 0.585951
O O9 0.671633 0.010716 0.264812
O O10 0.843967 0.015321 0.364696
O O11 0.000000 0.026722 0.250000
O O12 0.252806 0.193267 0.453778
O O13 0.466423 0.318414 0.483656
O O14 0.774084 0.368017 0.936275
O O15 0.778688 0.185997 0.930623
O O16 0.822905 0.032929 0.983684
#
# Coordination Sequence:
#
# PCOD9454033 Si02
#       8
#     8   8   8   8   4   8   8   8
#     4  10  19  38  64  90 124 165 206 257 324 369
#     4  10  20  37  59  91 119 164 206 255 319 381
#     4  10  18  35  59  89 123 167 209 261 318 379
#     4  11  21  39  70  89 124 164 214 259 326 383
#     4  10  18  32  64  88 124 162 208 254 318 384
#     4  10  20  39  61  88 125 163 208 261 315 378
#     4  10  20  39  59  87 124 165 208 256 317 377
#     4  10  21  40  61  90 118 162 205 264 315 372
#
# _framework density 23.852150999999999
#
# number of rings (size 3 to 8) (size 9 to 14) (size 15 to 20)
#    0.000    1.867    5.333    3.200    0.000    0.000 
#    6.000   11.333    0.000    0.000    0.000    0.000 
#    0.000    0.000    0.000    0.000    0.000    0.000 
#
# Total GULP energy -334318.452920 kJ/mol
# GULP energy per Si atom -5571.974215 kJ/mol
# Density = 2.379786 g / cm^3
# Si number density = 23.852151 Si / 1000 Ang^3
#
#
#
# Elastic Constant Matrix: (Units=GPa)
#
#
# Indices 1 2 3 4 5 6 
#
# 1 110.1327 3.6060 30.9868 0.0000 0.0000 0.0000
# 2 3.6060 54.4137 -9.2232 0.0000 0.0000 0.0000
# 3 30.9868 -9.2232 64.8486 0.0000 0.0000 0.0000
# 4 0.0000 0.0000 0.0000 19.3411 0.0000 0.0000
# 5 0.0000 0.0000 0.0000 0.0000 48.2516 0.0000
# 6 0.0000 0.0000 0.0000 0.0000 0.0000 7.9728
#
#
#
# Elastic Compliance Matrix: (Units=1/GPa)
#
#
# Indices 1 2 3 4 5 6 
#
# 1 0.010625 -0.001603 -0.005305 0.000000 0.000000 0.000000
# 2 -0.001603 0.019074 0.003479 0.000000 0.000000 0.000000
# 3 -0.005305 0.003479 0.018450 0.000000 0.000000 0.000000
# 4 0.000000 0.000000 0.000000 0.051703 0.000000 0.000000
# 5 0.000000 0.000000 0.000000 0.000000 0.020725 0.000000
# 6 0.000000 0.000000 0.000000 0.000000 0.000000 0.125426
#
#
# Mechanical properties :
#
#
# Convention : Reuss Voigt Hill
#
# Bulk Modulus (GPa) = 24.21891 31.12602 27.67246
# Shear Modulus (GPa) = 18.75291 28.71480 23.73385
#
# Velocity S-wave (km/s) = 2.80699 3.47344 3.15785
# Velocity P-wave (km/s) = 4.54768 5.40040 4.99228
#
# Compressibility (1/GPa) = 0.04129006
#
# Stress axis : x y z
#
# Youngs Moduli (GPa) = 94.11693 52.42828 54.19980
#
# Poissons Ratio (x) = 0.08406 0.28753
# Poissons Ratio (y) = 0.15090 -0.18856
# Poissons Ratio (z) = 0.49930 -0.18239
#
# Static dielectric constant tensor:
#      x y z
#    x 2.017080 0.000000 0.000000 
#    y 0.000000 1.939310 0.000000 
#    z 0.000000 0.000000 1.935700 
# 
# From -- ./inp_files/25252.got.cif
#   From: 2010.05.17/outbox.cif.g08.bks.cpg/sg60_13_cif.got.tgz:25252.got - 2010.06.03 14:59:27.
