data_PCOD9454472
_publ_section_title
;
Structure prediction by ZEFSAII (Michael W. Deem and Ramdas Pophale) SiO2 
 PCOD9454472
Probable space group: P B C N
;
_chemical_formula_sum "Si O2"
_cell_formula_units_Z 64
_cell_length_a 19.754062
_cell_length_b 20.382955
_cell_length_c 8.545061
_cell_angle_alpha 90.000000
_cell_angle_beta 90.000000
_cell_angle_gamma 90.000000
_cell_volume 3440.635971
_symmetry_space_group_name_H-M "P B C N"
_symmetry_group_IT_number 60
_symmetry_cell_setting 'orthorhombic'
loop_
_space_group_symop_operation_xyz
x,y,z
1/2-x,1/2-y,1/2+z
1/2+x,1/2-y,-z
-x,y,1/2-z
-x,-y,-z
1/2+x,1/2+y,1/2-z
1/2-x,1/2+y,z
x,-y,1/2+z
loop_
_atom_site_type_symbol
_atom_site_label
_atom_site_fract_x
_atom_site_fract_y
_atom_site_fract_z
Si Si1 0.047828 0.364683 0.367818
Si Si2 0.572697 0.264776 0.295624
Si Si3 0.214991 0.173761 0.377690
Si Si4 0.445400 0.123081 0.354802
Si Si5 0.691842 0.917443 0.162742
Si Si6 0.570115 0.719551 0.170370
Si Si7 0.307650 0.058015 0.463510
Si Si8 0.286217 0.698250 0.752551
O O1 0.118030 0.398846 0.405139
O O2 0.072076 0.296857 0.283195
O O3 0.000000 0.404653 0.250000
O O4 0.994053 0.352445 0.505114
O O5 0.500000 0.290730 0.250000
O O6 0.577825 0.189077 0.236924
O O7 0.572341 0.272772 0.482222
O O8 0.634043 0.302542 0.214467
O O9 0.139543 0.179493 0.303552
O O10 0.253341 0.104700 0.376379
O O11 0.216709 0.189483 0.564524
O O12 0.257439 0.230772 0.295011
O O13 0.500000 0.084656 0.250000
O O14 0.381535 0.080427 0.402341
O O15 0.688818 0.931234 0.349514
O O16 0.743135 0.856195 0.155648
O O17 0.711268 0.983746 0.075838
O O18 0.500000 0.694727 0.250000
#
# Coordination Sequence:
#
# PCOD9454472 Si02
#       8
#     8   8   8   8   8   8   8   8
#     4  11  20  34  55  82 116 150 193 229 275 336
#     4  10  19  34  55  86 116 143 185 237 290 337
#     4  10  21  37  59  86 113 148 191 240 287 340
#     4  11  21  34  55  83 116 153 190 230 278 338
#     4  11  25  40  57  81 115 157 196 234 283 338
#     4  10  20  33  57  85 116 146 184 237 288 339
#     4  11  25  41  57  81 117 157 195 236 281 340
#     4  10  21  36  59  85 113 148 191 239 289 339
#
# _framework density 18.601212
#
# number of rings (size 3 to 8) (size 9 to 14) (size 15 to 20)
#    0.000    1.500    6.250    0.000    1.750    3.000 
#    0.000    0.000    0.000    0.750    0.000    5.250 
#    0.000    0.000    0.000    0.000    0.000    0.000 
#
# Total GULP energy -356367.095165 kJ/mol
# GULP energy per Si atom -5568.235862 kJ/mol
# Density = 1.855887 g / cm^3
# Si number density = 18.601212 Si / 1000 Ang^3
#
#
#
# Elastic Constant Matrix: (Units=GPa)
#
#
# Indices 1 2 3 4 5 6 
#
# 1 108.9245 25.0282 5.9018 0.0000 0.0000 0.0000
# 2 25.0282 50.5228 3.0710 0.0000 0.0000 0.0000
# 3 5.9018 3.0710 23.0316 0.0000 0.0000 0.0000
# 4 0.0000 0.0000 0.0000 18.6443 0.0000 0.0000
# 5 0.0000 0.0000 0.0000 0.0000 23.4626 0.0000
# 6 0.0000 0.0000 0.0000 0.0000 0.0000 14.6991
#
#
#
# Elastic Compliance Matrix: (Units=1/GPa)
#
#
# Indices 1 2 3 4 5 6 
#
# 1 0.010451 -0.005055 -0.002004 0.000000 0.000000 0.000000
# 2 -0.005055 0.022400 -0.001691 0.000000 0.000000 0.000000
# 3 -0.002004 -0.001691 0.044158 0.000000 0.000000 0.000000
# 4 0.000000 0.000000 0.000000 0.053636 0.000000 0.000000
# 5 0.000000 0.000000 0.000000 0.000000 0.042621 0.000000
# 6 0.000000 0.000000 0.000000 0.000000 0.000000 0.068032
#
#
# Mechanical properties :
#
#
# Convention : Reuss Voigt Hill
#
# Bulk Modulus (GPa) = 16.80467 27.83123 22.31795
# Shear Modulus (GPa) = 17.94469 21.25973 19.60221
#
# Velocity S-wave (km/s) = 3.10934 3.38438 3.24977
# Velocity P-wave (km/s) = 4.68449 5.50151 5.10936
#
# Compressibility (1/GPa) = 0.05950728
#
# Stress axis : x y z
#
# Youngs Moduli (GPa) = 95.68596 44.64246 22.64616
#
# Poissons Ratio (x) = 0.22568 0.04538
# Poissons Ratio (y) = 0.48373 0.03830
# Poissons Ratio (z) = 0.19175 0.07551
#
# Static dielectric constant tensor:
#      x y z
#    x 1.691140 0.000000 0.000000 
#    y 0.000000 1.646570 0.000000 
#    z 0.000000 0.000000 1.773760 
# 
# From -- ./inp_files/7568.got.cif
#   From: 2010.05.17/outbox.cif.g08.bks.cpg/sg60_4_cif.got.tgz:7568.got - 2010.06.03 14:59:27.
