data_PCOD9454238
_publ_section_title
;
Structure prediction by ZEFSAII (Michael W. Deem and Ramdas Pophale) SiO2 
 PCOD9454238
Probable space group: P B C N
;
_chemical_formula_sum "Si O2"
_cell_formula_units_Z 60
_cell_length_a 18.374378
_cell_length_b 15.448136
_cell_length_c 11.451122
_cell_angle_alpha 90.000000
_cell_angle_beta 90.000000
_cell_angle_gamma 90.000000
_cell_volume 3250.399723
_symmetry_space_group_name_H-M "P B C N"
_symmetry_group_IT_number 60
_symmetry_cell_setting 'orthorhombic'
loop_
_space_group_symop_operation_xyz
x,y,z
1/2-x,1/2-y,1/2+z
1/2+x,1/2-y,-z
-x,y,1/2-z
-x,-y,-z
1/2+x,1/2+y,1/2-z
1/2-x,1/2+y,z
x,-y,1/2+z
loop_
_atom_site_type_symbol
_atom_site_label
_atom_site_fract_x
_atom_site_fract_y
_atom_site_fract_z
Si Si1 0.405611 0.319310 0.348974
Si Si2 0.557516 0.254645 0.408670
Si Si3 0.500000 0.800565 0.250000
Si Si4 0.169295 0.860860 0.950031
Si Si5 0.827638 0.693165 0.995018
Si Si6 0.583909 0.469446 0.999814
Si Si7 0.514985 0.898635 0.487340
Si Si8 0.868649 0.826682 0.809897
O O1 0.478410 0.299176 0.426693
O O2 0.419434 0.290176 0.217658
O O3 0.342470 0.259366 0.398737
O O4 0.396014 0.419289 0.379455
O O5 0.618860 0.282758 0.499934
O O6 0.533718 0.154694 0.418557
O O7 0.489519 0.860810 0.362602
O O8 0.565299 0.735174 0.273412
O O9 0.165365 0.860893 0.809664
O O10 0.132058 0.945215 0.003967
O O11 0.252214 0.854590 0.989361
O O12 0.899495 0.631073 0.993396
O O13 0.821591 0.758691 0.885349
O O14 0.500000 0.500000 0.000000
O O15 0.604076 0.404059 0.894357
O O16 0.500000 0.000000 0.500000
#
# Coordination Sequence:
#
# PCOD9454238 Si02
#       8
#     8   8   4   8   8   8   8   8
#     4   9  20  40  60  87 127 162 199 259 307 374
#     4  10  20  37  65  89 118 165 206 246 321 373
#     4  10  18  40  66  88 116 164 206 258 314 372
#     4  12  23  38  61  94 123 167 210 253 322 384
#     4   9  23  42  59  87 127 161 206 255 314 374
#     4  11  22  38  63  98 126 162 209 264 309 383
#     4  10  21  41  64  93 116 159 217 264 301 368
#     4  10  22  41  63  88 128 168 206 255 318 389
#
# _framework density 18.459268999999999
#
# number of rings (size 3 to 8) (size 9 to 14) (size 15 to 20)
#    0.000    1.867    2.667    1.600    3.733    2.133 
#    4.800    2.667    0.000    0.000    0.000    0.000 
#    0.000    0.000    0.000    0.000    0.000    0.000 
#
# Total GULP energy -334366.826545 kJ/mol
# GULP energy per Si atom -5572.780442 kJ/mol
# Density = 1.841725 g / cm^3
# Si number density = 18.459269 Si / 1000 Ang^3
#
#
#
# Elastic Constant Matrix: (Units=GPa)
#
#
# Indices 1 2 3 4 5 6 
#
# 1 105.8012 62.6972 46.7625 0.0000 0.0000 0.0000
# 2 62.6972 140.9841 40.7931 0.0000 0.0000 0.0000
# 3 46.7625 40.7931 104.9643 0.0000 0.0000 0.0000
# 4 0.0000 0.0000 0.0000 19.1390 0.0000 0.0000
# 5 0.0000 0.0000 0.0000 0.0000 19.1716 0.0000
# 6 0.0000 0.0000 0.0000 0.0000 0.0000 23.1040
#
#
#
# Elastic Compliance Matrix: (Units=1/GPa)
#
#
# Indices 1 2 3 4 5 6 
#
# 1 0.014466 -0.005147 -0.004444 0.000000 0.000000 0.000000
# 2 -0.005147 0.009823 -0.001524 0.000000 0.000000 0.000000
# 3 -0.004444 -0.001524 0.012100 0.000000 0.000000 0.000000
# 4 0.000000 0.000000 0.000000 0.052249 0.000000 0.000000
# 5 0.000000 0.000000 0.000000 0.000000 0.052161 0.000000
# 6 0.000000 0.000000 0.000000 0.000000 0.000000 0.043283
#
#
# Mechanical properties :
#
#
# Convention : Reuss Voigt Hill
#
# Bulk Modulus (GPa) = 70.63860 72.47280 71.55570
# Shear Modulus (GPa) = 23.69300 25.71604 24.70452
#
# Velocity S-wave (km/s) = 3.58652 3.73651 3.66228
# Velocity P-wave (km/s) = 7.44991 7.61324 7.53202
#
# Compressibility (1/GPa) = 0.01415657
#
# Stress axis : x y z
#
# Youngs Moduli (GPa) = 69.12588 101.79994 82.64771
#
# Poissons Ratio (x) = 0.52400 0.36732
# Poissons Ratio (y) = 0.35582 0.12599
# Poissons Ratio (z) = 0.30723 0.15519
#
# Static dielectric constant tensor:
#      x y z
#    x 1.643690 0.000000 0.000000 
#    y 0.000000 1.660210 0.000000 
#    z 0.000000 0.000000 1.716580 
# 
# From -- ./inp_files/12516.got.cif
#   From: 2010.05.17/outbox.cif.g08.bks.cpg/sg60_7_cif.got.tgz:12516.got - 2010.06.03 14:59:27.
