data_PCOD9454342
_publ_section_title
;
Structure prediction by ZEFSAII (Michael W. Deem and Ramdas Pophale) SiO2 
 PCOD9454342
Probable space group: P B C N
;
_chemical_formula_sum "Si O2"
_cell_formula_units_Z 56
_cell_length_a 14.607233
_cell_length_b 14.316801
_cell_length_c 14.000892
_cell_angle_alpha 90.000000
_cell_angle_beta 90.000000
_cell_angle_gamma 90.000000
_cell_volume 2927.990415
_symmetry_space_group_name_H-M "P B C N"
_symmetry_group_IT_number 60
_symmetry_cell_setting 'orthorhombic'
loop_
_space_group_symop_operation_xyz
x,y,z
1/2-x,1/2-y,1/2+z
1/2+x,1/2-y,-z
-x,y,1/2-z
-x,-y,-z
1/2+x,1/2+y,1/2-z
1/2-x,1/2+y,z
x,-y,1/2+z
loop_
_atom_site_type_symbol
_atom_site_label
_atom_site_fract_x
_atom_site_fract_y
_atom_site_fract_z
Si Si1 0.740068 0.397531 0.817345
Si Si2 0.197398 0.756578 0.524828
Si Si3 0.317950 0.748445 0.335207
Si Si4 0.782511 0.398857 0.329044
Si Si5 0.019110 0.710020 0.964120
Si Si6 0.554923 0.168964 0.334435
Si Si7 0.482040 0.035008 0.641522
O O1 0.714772 0.354261 0.920526
O O2 0.690709 0.339463 0.734791
O O3 0.723952 0.508284 0.810962
O O4 0.846718 0.368345 0.802669
O O5 0.242226 0.752180 0.420074
O O6 0.244441 0.677123 0.591730
O O7 0.087851 0.736977 0.531086
O O8 0.303474 0.839155 0.266633
O O9 0.417300 0.743588 0.384702
O O10 0.875118 0.445027 0.371086
O O11 0.030623 0.600447 0.934548
O O12 0.059906 0.725186 0.068522
O O13 0.500000 0.217977 0.250000
O O14 0.497261 0.074403 0.359217
O O15 0.500000 0.067765 0.750000
#
# Coordination Sequence:
#
# PCOD9454342 Si02
#       7
#     8   8   8   8   8   8   8
#     4  10  21  37  55  85 117 154 190 233 290 351
#     4  10  22  37  58  86 118 151 196 238 293 347
#     4  11  21  37  60  86 115 153 195 239 291 347
#     4   9  20  35  57  81 118 152 183 240 287 342
#     4  11  20  34  56  84 114 148 190 241 290 348
#     4  10  19  32  52  81 118 145 177 229 299 361
#     4   9  16  29  50  84 113 138 175 225 295 358
#
# _framework density 19.125745999999999
#
# number of rings (size 3 to 8) (size 9 to 14) (size 15 to 20)
#    0.000    2.000    2.857    1.286    0.000    1.143 
#    2.571    0.000    0.000    5.143    0.000    0.000 
#    0.000    0.000    0.000    0.000    0.000    0.000 
#
# Total GULP energy -311908.892001 kJ/mol
# GULP energy per Si atom -5569.801643 kJ/mol
# Density = 1.908221 g / cm^3
# Si number density = 19.125746 Si / 1000 Ang^3
#
#
#
# Elastic Constant Matrix: (Units=GPa)
#
#
# Indices 1 2 3 4 5 6 
#
# 1 48.1667 8.6675 -0.1985 0.0000 0.0000 0.0000
# 2 8.6675 84.1747 23.3572 0.0000 0.0000 0.0000
# 3 -0.1985 23.3572 96.2171 0.0000 0.0000 0.0000
# 4 0.0000 0.0000 0.0000 10.9614 0.0000 0.0000
# 5 0.0000 0.0000 0.0000 0.0000 27.7664 0.0000
# 6 0.0000 0.0000 0.0000 0.0000 0.0000 20.2008
#
#
#
# Elastic Compliance Matrix: (Units=1/GPa)
#
#
# Indices 1 2 3 4 5 6 
#
# 1 0.021187 -0.002352 0.000615 0.000000 0.000000 0.000000
# 2 -0.002352 0.012999 -0.003160 0.000000 0.000000 0.000000
# 3 0.000615 -0.003160 0.011162 0.000000 0.000000 0.000000
# 4 0.000000 0.000000 0.000000 0.091230 0.000000 0.000000
# 5 0.000000 0.000000 0.000000 0.000000 0.036015 0.000000
# 6 0.000000 0.000000 0.000000 0.000000 0.000000 0.049503
#
#
# Mechanical properties :
#
#
# Convention : Reuss Voigt Hill
#
# Bulk Modulus (GPa) = 28.12782 32.46788 30.29785
# Shear Modulus (GPa) = 20.51350 24.90120 22.70735
#
# Velocity S-wave (km/s) = 3.27855 3.61220 3.44941
# Velocity P-wave (km/s) = 5.39171 5.86602 5.63386
#
# Compressibility (1/GPa) = 0.03555199
#
# Stress axis : x y z
#
# Youngs Moduli (GPa) = 47.19865 76.92753 89.59246
#
# Poissons Ratio (x) = 0.18095 -0.05507
# Poissons Ratio (y) = 0.11102 0.28316
# Poissons Ratio (z) = -0.02901 0.24313
#
# Static dielectric constant tensor:
#      x y z
#    x 1.717910 0.000000 0.000000 
#    y 0.000000 1.707550 0.000000 
#    z 0.000000 0.000000 1.714530 
# 
# From -- ./inp_files/16950.got.cif
#   From: 2010.05.17/outbox.cif.g08.bks.cpg/sg60_9_cif.got.tgz:16950.got - 2010.06.03 14:59:27.
