data_PCOD9454634
_publ_section_title
;
Structure prediction by ZEFSAII (Michael W. Deem and Ramdas Pophale) SiO2 
 PCOD9454634
Probable space group: P B C N
;
_chemical_formula_sum "Si O2"
_cell_formula_units_Z 52
_cell_length_a 11.469195
_cell_length_b 13.971502
_cell_length_c 13.728981
_cell_angle_alpha 90.000000
_cell_angle_beta 90.000000
_cell_angle_gamma 90.000000
_cell_volume 2199.957738
_symmetry_space_group_name_H-M "P B C N"
_symmetry_group_IT_number 60
_symmetry_cell_setting 'orthorhombic'
loop_
_space_group_symop_operation_xyz
x,y,z
1/2-x,1/2-y,1/2+z
1/2+x,1/2-y,-z
-x,y,1/2-z
-x,-y,-z
1/2+x,1/2+y,1/2-z
1/2-x,1/2+y,z
x,-y,1/2+z
loop_
_atom_site_type_symbol
_atom_site_label
_atom_site_fract_x
_atom_site_fract_y
_atom_site_fract_z
Si Si1 0.500000 0.794244 0.250000
Si Si2 0.423151 0.109903 0.115218
Si Si3 0.435247 0.065893 0.884514
Si Si4 0.676718 0.471782 0.881169
Si Si5 0.821299 0.939512 0.116039
Si Si6 0.559219 0.332626 0.396108
Si Si7 0.067014 0.866977 0.871896
O O1 0.467234 0.866548 0.163939
O O2 0.412412 0.723668 0.304507
O O3 0.301611 0.065823 0.152011
O O4 0.425533 0.222944 0.134941
O O5 0.531843 0.042477 0.143332
O O6 0.430093 0.091197 0.998167
O O7 0.305461 0.089443 0.848668
O O8 0.643439 0.582097 0.857977
O O9 0.564669 0.406428 0.857532
O O10 0.682572 0.460310 0.999490
O O11 0.928314 0.867366 0.129927
O O12 0.853690 0.043749 0.155700
O O13 0.575034 0.338177 0.514236
#
# Coordination Sequence:
#
# PCOD9454634 Si02
#       7
#     4   8   8   8   8   8   8
#     4  12  22  36  54  80 126 156 190 234 308 362
#     4  10  19  36  58  87 115 148 199 248 292 338
#     4  10  22  36  53  85 119 154 193 245 290 357
#     4   8  17  33  58  87 111 135 189 252 284 339
#     4   8  17  36  58  83 110 143 196 240 278 344
#     4   9  16  34  63  85 109 144 196 247 289 330
#     4   9  18  35  56  83 110 150 191 233 291 356
#
# _framework density 23.636817000000001
#
# number of rings (size 3 to 8) (size 9 to 14) (size 15 to 20)
#    0.000    2.769    1.538    1.846    0.000    2.462 
#   19.385    0.000    0.000    0.923    0.000    0.000 
#    0.000    0.000    0.000    0.000    0.000    0.000 
#
# Total GULP energy -290144.691411 kJ/mol
# GULP energy per Si atom -5579.705604 kJ/mol
# Density = 2.358302 g / cm^3
# Si number density = 23.636817 Si / 1000 Ang^3
#
#
#
# Elastic Constant Matrix: (Units=GPa)
#
#
# Indices 1 2 3 4 5 6 
#
# 1 135.6278 85.8226 20.0116 0.0000 0.0000 0.0000
# 2 85.8226 219.4482 12.2987 0.0000 0.0000 0.0000
# 3 20.0116 12.2987 65.8905 0.0000 0.0000 0.0000
# 4 0.0000 0.0000 0.0000 26.3798 0.0000 0.0000
# 5 0.0000 0.0000 0.0000 0.0000 16.5704 0.0000
# 6 0.0000 0.0000 0.0000 0.0000 0.0000 18.1988
#
#
#
# Elastic Compliance Matrix: (Units=1/GPa)
#
#
# Indices 1 2 3 4 5 6 
#
# 1 0.010150 -0.003837 -0.002367 0.000000 0.000000 0.000000
# 2 -0.003837 0.006055 0.000035 0.000000 0.000000 0.000000
# 3 -0.002367 0.000035 0.015889 0.000000 0.000000 0.000000
# 4 0.000000 0.000000 0.000000 0.037908 0.000000 0.000000
# 5 0.000000 0.000000 0.000000 0.000000 0.060349 0.000000
# 6 0.000000 0.000000 0.000000 0.000000 0.000000 0.054949
#
#
# Mechanical properties :
#
#
# Convention : Reuss Voigt Hill
#
# Bulk Modulus (GPa) = 50.61316 73.02581 61.81949
# Shear Modulus (GPa) = 24.48309 32.41870 28.45090
#
# Velocity S-wave (km/s) = 3.22188 3.70744 3.47316
# Velocity P-wave (km/s) = 5.94138 7.02060 6.50342
#
# Compressibility (1/GPa) = 0.01975771
#
# Stress axis : x y z
#
# Youngs Moduli (GPa) = 98.51964 165.13922 62.93701
#
# Poissons Ratio (x) = 0.63363 0.14894
# Poissons Ratio (y) = 0.37802 -0.00221
# Poissons Ratio (z) = 0.23315 -0.00579
#
# Static dielectric constant tensor:
#      x y z
#    x 1.869570 0.000000 0.000000 
#    y 0.000000 1.872360 0.000000 
#    z 0.000000 0.000000 2.009740 
# 
# From -- ./inp_files/20115.got.cif
#   From: 2010.05.17/outbox.cif.g08.bks.cpg/sg60_11_cif.got.tgz:20115.got - 2010.06.03 14:59:27.
