data_PCOD9454515
_publ_section_title
;
Structure prediction by ZEFSAII (Michael W. Deem and Ramdas Pophale) SiO2 
 PCOD9454515
Probable space group: P B C N
;
_chemical_formula_sum "Si O2"
_cell_formula_units_Z 48
_cell_length_a 7.823378
_cell_length_b 16.544752
_cell_length_c 15.935948
_cell_angle_alpha 90.000000
_cell_angle_beta 90.000000
_cell_angle_gamma 90.000000
_cell_volume 2062.682956
_symmetry_space_group_name_H-M "P B C N"
_symmetry_group_IT_number 60
_symmetry_cell_setting 'orthorhombic'
loop_
_space_group_symop_operation_xyz
x,y,z
1/2-x,1/2-y,1/2+z
1/2+x,1/2-y,-z
-x,y,1/2-z
-x,-y,-z
1/2+x,1/2+y,1/2-z
1/2-x,1/2+y,z
x,-y,1/2+z
loop_
_atom_site_type_symbol
_atom_site_label
_atom_site_fract_x
_atom_site_fract_y
_atom_site_fract_z
Si Si1 0.000000 0.060481 0.750000
Si Si2 0.633367 0.065874 0.122397
Si Si3 0.258415 0.062636 0.182360
Si Si4 0.207929 0.762330 0.626036
Si Si5 0.738970 0.105316 0.616657
Si Si6 0.413107 0.239719 0.451680
Si Si7 0.000000 0.334228 0.250000
O O1 0.116187 0.108390 0.812630
O O2 0.121264 0.007578 0.689458
O O3 0.430155 0.049239 0.129185
O O4 0.692618 0.074335 0.219338
O O5 0.658678 0.153218 0.080047
O O6 0.725145 0.986834 0.082612
O O7 0.180381 0.143709 0.145080
O O8 0.403489 0.749203 0.594597
O O9 0.082499 0.734361 0.552050
O O10 0.153345 0.718255 0.711407
O O11 0.790620 0.182032 0.561458
O O12 0.569277 0.114565 0.672670
#
# Coordination Sequence:
#
# PCOD9454515 Si02
#       7
#     4   8   8   8   8   8   4
#     4  10  19  34  59  96 126 158 212 264 304 372
#     4   9  20  40  62  89 128 166 207 259 316 370
#     4   9  18  36  62  89 123 167 209 258 311 368
#     4  11  24  42  66  94 128 169 213 261 317 380
#     4  11  22  39  65  96 127 167 212 259 315 375
#     4  11  24  43  64  94 133 168 208 264 323 374
#     4  12  23  40  65  94 126 170 216 258 308 380
#
# _framework density 23.270662000000002
#
# number of rings (size 3 to 8) (size 9 to 14) (size 15 to 20)
#    0.000    1.667    0.000    5.500    0.000    6.667 
#    0.000   14.167    0.000    0.000    0.000    0.000 
#    0.000    0.000    0.000    0.000    0.000    0.000 
#
# Total GULP energy -268079.782574 kJ/mol
# GULP energy per Si atom -5584.995470 kJ/mol
# Density = 2.321770 g / cm^3
# Si number density = 23.270662 Si / 1000 Ang^3
#
#
#
# Elastic Constant Matrix: (Units=GPa)
#
#
# Indices 1 2 3 4 5 6 
#
# 1 48.4111 23.4395 12.9661 0.0000 0.0000 0.0000
# 2 23.4395 121.5111 53.6290 0.0000 0.0000 0.0000
# 3 12.9661 53.6290 49.2388 0.0000 0.0000 0.0000
# 4 0.0000 0.0000 0.0000 -5.6329 0.0000 0.0000
# 5 0.0000 0.0000 0.0000 0.0000 29.2981 0.0000
# 6 0.0000 0.0000 0.0000 0.0000 0.0000 12.0738
#
#
#
# Elastic Compliance Matrix: (Units=1/GPa)
#
#
# Indices 1 2 3 4 5 6 
#
# 1 0.022925 -0.003385 -0.002350 0.000000 0.000000 0.000000
# 2 -0.003385 0.016348 -0.016914 0.000000 0.000000 0.000000
# 3 -0.002350 -0.016914 0.039350 0.000000 0.000000 0.000000
# 4 0.000000 0.000000 0.000000 -0.177528 0.000000 0.000000
# 5 0.000000 0.000000 0.000000 0.000000 0.034132 0.000000
# 6 0.000000 0.000000 0.000000 0.000000 0.000000 0.082824
#
#
# Mechanical properties :
#
#
# Convention : Reuss Voigt Hill
#
# Bulk Modulus (GPa) = 30.00778 44.35888 37.18333
# Shear Modulus (GPa) = 67.15453 15.75623 41.45538
#
# Velocity S-wave (km/s) = 5.37779 2.60491 4.22529
# Velocity P-wave (km/s) = 7.17524 5.30575 6.31011
#
# Compressibility (1/GPa) = 0.03332469
#
# Stress axis : x y z
#
# Youngs Moduli (GPa) = 43.62097 61.17117 25.41307
#
# Poissons Ratio (x) = 0.20707 0.05972
# Poissons Ratio (y) = 0.14766 0.42983
# Poissons Ratio (z) = 0.10251 1.03463
#
# Static dielectric constant tensor:
#      x y z
#    x 1.948980 0.000000 0.000000 
#    y 0.000000 1.906060 0.000000 
#    z 0.000000 0.000000 1.906240 
# 
# From -- ./inp_files/19374.got.cif
#   From: 2010.05.17/outbox.cif.g08.bks.cpg/sg60_10_cif.got.tgz:19374.got - 2010.06.03 14:59:27.
