data_PCOD9454508
_publ_section_title
;
Structure prediction by ZEFSAII (Michael W. Deem and Ramdas Pophale) SiO2 
 PCOD9454508
Probable space group: P B C N
;
_chemical_formula_sum "Si O2"
_cell_formula_units_Z 36
_cell_length_a 5.138506
_cell_length_b 23.417094
_cell_length_c 13.087411
_cell_angle_alpha 90.000000
_cell_angle_beta 90.000000
_cell_angle_gamma 90.000000
_cell_volume 1574.793482
_symmetry_space_group_name_H-M "P B C N"
_symmetry_group_IT_number 60
_symmetry_cell_setting 'orthorhombic'
loop_
_space_group_symop_operation_xyz
x,y,z
1/2-x,1/2-y,1/2+z
1/2+x,1/2-y,-z
-x,y,1/2-z
-x,-y,-z
1/2+x,1/2+y,1/2-z
1/2-x,1/2+y,z
x,-y,1/2+z
loop_
_atom_site_type_symbol
_atom_site_label
_atom_site_fract_x
_atom_site_fract_y
_atom_site_fract_z
Si Si1 0.257005 0.548999 0.680793
Si Si2 0.500000 0.347303 0.250000
Si Si3 0.663051 0.191826 0.408293
Si Si4 0.334835 0.242765 0.863878
Si Si5 0.749379 0.428111 0.823990
O O1 0.500000 0.530088 0.750000
O O2 0.365618 0.612885 0.661042
O O3 0.232965 0.490164 0.617809
O O4 0.000000 0.556138 0.750000
O O5 0.276527 0.308470 0.296264
O O6 0.381844 0.207449 0.363709
O O7 0.662342 0.214625 0.523345
O O8 0.726794 0.125385 0.398956
O O9 0.885196 0.228274 0.350687
O O10 0.500000 0.418548 0.750000
O O11 0.000000 0.427966 0.750000
#
# Coordination Sequence:
#
# PCOD9454508 Si02
#       5
#     8   4   8   8   8
#     4   8  18  33  52  78 106 136 183 232 262 316
#     4  10  22  36  58  80 106 156 180 224 276 346
#     4  10  22  39  51  86 111 146 180 239 272 328
#     4  10  23  36  57  78 119 143 185 224 283 332
#     4  10  19  34  59  79 108 142 185 231 270 324
#
# _framework density 22.860142
#
# number of rings (size 3 to 8) (size 9 to 14) (size 15 to 20)
#    0.667    1.778    0.000    1.333    7.778    0.000 
#    0.000    1.111    0.000    2.667    0.000    0.000 
#    0.000    0.000    0.000    0.000    0.000    0.000 
#
# Total GULP energy -200413.455068 kJ/mol
# GULP energy per Si atom -5567.040419 kJ/mol
# Density = 2.280811 g / cm^3
# Si number density = 22.860142 Si / 1000 Ang^3
#
#
#
# Elastic Constant Matrix: (Units=GPa)
#
#
# Indices 1 2 3 4 5 6 
#
# 1 150.7746 19.4981 10.5465 0.0000 0.0000 0.0000
# 2 19.4981 142.7059 10.4193 0.0000 0.0000 0.0000
# 3 10.5465 10.4193 24.3588 0.0000 0.0000 0.0000
# 4 0.0000 0.0000 0.0000 19.3905 0.0000 0.0000
# 5 0.0000 0.0000 0.0000 0.0000 20.8069 0.0000
# 6 0.0000 0.0000 0.0000 0.0000 0.0000 18.9758
#
#
#
# Elastic Compliance Matrix: (Units=1/GPa)
#
#
# Indices 1 2 3 4 5 6 
#
# 1 0.006916 -0.000750 -0.002674 0.000000 0.000000 0.000000
# 2 -0.000750 0.007315 -0.002804 0.000000 0.000000 0.000000
# 3 -0.002674 -0.002804 0.043410 0.000000 0.000000 0.000000
# 4 0.000000 0.000000 0.000000 0.051572 0.000000 0.000000
# 5 0.000000 0.000000 0.000000 0.000000 0.048061 0.000000
# 6 0.000000 0.000000 0.000000 0.000000 0.000000 0.052699
#
#
# Mechanical properties :
#
#
# Convention : Reuss Voigt Hill
#
# Bulk Modulus (GPa) = 22.13094 44.30744 33.21919
# Shear Modulus (GPa) = 21.05353 30.32634 25.68994
#
# Velocity S-wave (km/s) = 3.03804 3.64621 3.35593
# Velocity P-wave (km/s) = 4.69130 6.09512 5.43869
#
# Compressibility (1/GPa) = 0.04518561
#
# Stress axis : x y z
#
# Youngs Moduli (GPa) = 144.58372 136.71297 23.03610
#
# Poissons Ratio (x) = 0.10250 0.06160
# Poissons Ratio (y) = 0.10840 0.06460
# Poissons Ratio (z) = 0.38660 0.38336
#
# Static dielectric constant tensor:
#      x y z
#    x 1.839190 0.000000 0.000000 
#    y 0.000000 1.991060 0.000000 
#    z 0.000000 0.000000 1.952320 
# 
# From -- ./inp_files/13786.got.cif
#   From: 2010.05.17/outbox.cif.g08.bks.cpg/sg60_7_cif.got.tgz:13786.got - 2010.06.03 14:59:27.
