data_PCOD9454390
_publ_section_title
;
Structure prediction by ZEFSAII (Michael W. Deem and Ramdas Pophale) SiO2 
 PCOD9454390
Probable space group: P B C N
;
_chemical_formula_sum "Si O2"
_cell_formula_units_Z 64
_cell_length_a 11.494895
_cell_length_b 31.534132
_cell_length_c 9.244255
_cell_angle_alpha 90.000000
_cell_angle_beta 90.000000
_cell_angle_gamma 90.000000
_cell_volume 3350.871754
_symmetry_space_group_name_H-M "P B C N"
_symmetry_group_IT_number 60
_symmetry_cell_setting 'orthorhombic'
loop_
_space_group_symop_operation_xyz
x,y,z
1/2-x,1/2-y,1/2+z
1/2+x,1/2-y,-z
-x,y,1/2-z
-x,-y,-z
1/2+x,1/2+y,1/2-z
1/2-x,1/2+y,z
x,-y,1/2+z
loop_
_atom_site_type_symbol
_atom_site_label
_atom_site_fract_x
_atom_site_fract_y
_atom_site_fract_z
Si Si1 0.431301 0.328334 0.613118
Si Si2 0.766646 0.831851 0.362313
Si Si3 0.991761 0.677873 0.923206
Si Si4 0.277764 0.141680 0.959301
Si Si5 0.653923 0.553157 0.557776
Si Si6 0.457472 0.736866 0.589876
Si Si7 0.582383 0.594770 0.003359
Si Si8 0.360790 0.528556 0.267428
O O1 0.500000 0.309027 0.750000
O O2 0.295574 0.339819 0.595791
O O3 0.456022 0.297093 0.481423
O O4 0.500421 0.372137 0.588956
O O5 0.644086 0.831573 0.446490
O O6 0.747305 0.832584 0.189504
O O7 0.837252 0.789400 0.403826
O O8 0.840586 0.874010 0.404733
O O9 0.000000 0.681145 0.750000
O O10 0.084130 0.643235 0.978328
O O11 0.036303 0.721202 0.994830
O O12 0.227140 0.095618 0.923861
O O13 0.515471 0.564885 0.570615
O O14 0.679780 0.538239 0.393891
O O15 0.682140 0.515592 0.667425
O O16 0.500000 0.747122 0.750000
O O17 0.655390 0.566204 0.115051
O O18 0.500000 0.525928 0.250000
#
# Coordination Sequence:
#
# PCOD9454390 Si02
#       8
#     8   8   8   8   8   8   8   8
#     4  10  19  34  58  86 117 160 192 245 305 361
#     4  10  22  38  63  88 119 162 204 251 310 362
#     4  10  24  43  60  86 116 166 210 254 301 365
#     4  10  21  39  61  83 124 164 207 244 306 373
#     4  10  21  32  59  87 125 153 192 248 305 361
#     4  11  22  39  59  91 119 148 204 257 313 365
#     4   9  18  32  54  85 123 149 193 238 299 362
#     4  10  19  33  51  93 124 150 191 238 309 362
#
# _framework density 19.099508
#
# number of rings (size 3 to 8) (size 9 to 14) (size 15 to 20)
#    0.000    2.000    1.250    3.750    5.250    0.000 
#    6.750    0.000    0.000    0.750    0.000    0.000 
#    0.000    0.000    0.000    0.000    0.000    0.000 
#
# Total GULP energy -356738.850670 kJ/mol
# GULP energy per Si atom -5574.044542 kJ/mol
# Density = 1.905604 g / cm^3
# Si number density = 19.099508 Si / 1000 Ang^3
#
#
#
# Elastic Constant Matrix: (Units=GPa)
#
#
# Indices 1 2 3 4 5 6 
#
# 1 107.3113 26.4704 29.2557 0.0000 0.0000 0.0000
# 2 26.4704 62.0830 14.8318 0.0000 0.0000 0.0000
# 3 29.2557 14.8318 50.6294 0.0000 0.0000 0.0000
# 4 0.0000 0.0000 0.0000 25.0938 0.0000 0.0000
# 5 0.0000 0.0000 0.0000 0.0000 14.8145 0.0000
# 6 0.0000 0.0000 0.0000 0.0000 0.0000 0.6787
#
#
#
# Elastic Compliance Matrix: (Units=1/GPa)
#
#
# Indices 1 2 3 4 5 6 
#
# 1 0.011785 -0.003653 -0.005739 0.000000 0.000000 0.000000
# 2 -0.003653 0.018452 -0.003294 0.000000 0.000000 0.000000
# 3 -0.005739 -0.003294 0.024033 0.000000 0.000000 0.000000
# 4 0.000000 0.000000 0.000000 0.039850 0.000000 0.000000
# 5 0.000000 0.000000 0.000000 0.000000 0.067502 0.000000
# 6 0.000000 0.000000 0.000000 0.000000 0.000000 1.473402
#
#
# Mechanical properties :
#
#
# Convention : Reuss Voigt Hill
#
# Bulk Modulus (GPa) = 34.60777 40.12662 37.36719
# Shear Modulus (GPa) = 2.99396 18.08178 10.53787
#
# Velocity S-wave (km/s) = 1.25338 3.08021 2.35145
# Velocity P-wave (km/s) = 4.50041 5.80561 5.19417
#
# Compressibility (1/GPa) = 0.02889525
#
# Stress axis : x y z
#
# Youngs Moduli (GPa) = 84.85675 54.19386 41.60964
#
# Poissons Ratio (x) = 0.19800 0.23881
# Poissons Ratio (y) = 0.31002 0.13708
# Poissons Ratio (z) = 0.48702 0.17854
#
# Static dielectric constant tensor:
#      x y z
#    x 1.694910 0.000000 0.000000 
#    y 0.000000 1.694590 0.000000 
#    z 0.000000 0.000000 1.681880 
# 
# From -- ./inp_files/5319.got.cif
#   From: 2010.05.17/outbox.cif.g08.bks.cpg/sg60_3_cif.got.tgz:5319.got - 2010.06.03 14:59:27.
