data_PCOD9454674
_publ_section_title
;
Structure prediction by ZEFSAII (Michael W. Deem and Ramdas Pophale) SiO2 
 PCOD9454674
Probable space group: P B C N
;
_chemical_formula_sum "Si O2"
_cell_formula_units_Z 60
_cell_length_a 17.434161
_cell_length_b 11.334220
_cell_length_c 15.129235
_cell_angle_alpha 90.000000
_cell_angle_beta 90.000000
_cell_angle_gamma 90.000000
_cell_volume 2989.576418
_symmetry_space_group_name_H-M "P B C N"
_symmetry_group_IT_number 60
_symmetry_cell_setting 'orthorhombic'
loop_
_space_group_symop_operation_xyz
x,y,z
1/2-x,1/2-y,1/2+z
1/2+x,1/2-y,-z
-x,y,1/2-z
-x,-y,-z
1/2+x,1/2+y,1/2-z
1/2-x,1/2+y,z
x,-y,1/2+z
loop_
_atom_site_type_symbol
_atom_site_label
_atom_site_fract_x
_atom_site_fract_y
_atom_site_fract_z
Si Si1 0.106941 0.005593 0.064573
Si Si2 0.510675 0.145324 0.900439
Si Si3 0.359685 0.730478 0.337998
Si Si4 0.432989 0.477003 0.370659
Si Si5 0.832945 0.224389 0.355795
Si Si6 0.810380 0.759976 0.468796
Si Si7 0.500000 0.708175 0.750000
Si Si8 0.055408 0.624251 0.094090
O O1 0.160999 0.085331 0.124341
O O2 0.136621 0.873002 0.053072
O O3 0.103217 0.058572 0.965029
O O4 0.021750 0.004788 0.104970
O O5 0.434657 0.186361 0.848529
O O6 0.582771 0.225177 0.876168
O O7 0.533518 0.009828 0.884688
O O8 0.489890 0.158695 0.004245
O O9 0.392473 0.596750 0.339436
O O10 0.317009 0.750474 0.246330
O O11 0.308807 0.748797 0.425306
O O12 0.437441 0.376888 0.296547
O O13 0.770152 0.275378 0.421699
O O14 0.855807 0.646984 0.430383
O O15 0.466443 0.790605 0.673836
#
# Coordination Sequence:
#
# PCOD9454674 Si02
#       8
#     8   8   8   8   8   8   4   8
#     4  10  20  39  63  89 123 167 201 262 321 370
#     4  10  22  42  66  91 121 169 214 260 311 375
#     4  10  22  42  66  94 121 163 218 266 303 382
#     4  10  19  36  64  95 122 151 217 272 310 351
#     4  12  23  38  69  91 124 168 210 251 323 381
#     4  10  24  44  58  88 138 163 202 262 324 381
#     4  12  20  32  62 100 116 158 208 270 304 368
#     4  10  23  41  61  88 132 164 207 260 313 372
#
# _framework density 20.069732999999999
#
# number of rings (size 3 to 8) (size 9 to 14) (size 15 to 20)
#    0.000    1.600    2.667    2.000    3.733    0.000 
#    4.800    0.000    0.000    0.000    0.000    0.000 
#    0.000    0.000    0.000    0.000    0.000    0.000 
#
# Total GULP energy -335257.855112 kJ/mol
# GULP energy per Si atom -5587.630919 kJ/mol
# Density = 2.002405 g / cm^3
# Si number density = 20.069733 Si / 1000 Ang^3
#
#
#
# Elastic Constant Matrix: (Units=GPa)
#
#
# Indices 1 2 3 4 5 6 
#
# 1 51.4791 1.7354 43.2364 0.0000 0.0000 0.0000
# 2 1.7354 73.3280 44.5864 0.0000 0.0000 0.0000
# 3 43.2364 44.5864 116.2323 0.0000 0.0000 0.0000
# 4 0.0000 0.0000 0.0000 35.9391 0.0000 0.0000
# 5 0.0000 0.0000 0.0000 0.0000 16.3553 0.0000
# 6 0.0000 0.0000 0.0000 0.0000 0.0000 6.1558
#
#
#
# Elastic Compliance Matrix: (Units=1/GPa)
#
#
# Indices 1 2 3 4 5 6 
#
# 1 0.031772 0.008392 -0.015038 0.000000 0.000000 0.000000
# 2 0.008392 0.020002 -0.010794 0.000000 0.000000 0.000000
# 3 -0.015038 -0.010794 0.018338 0.000000 0.000000 0.000000
# 4 0.000000 0.000000 0.000000 0.027825 0.000000 0.000000
# 5 0.000000 0.000000 0.000000 0.000000 0.061142 0.000000
# 6 0.000000 0.000000 0.000000 0.000000 0.000000 0.162448
#
#
# Mechanical properties :
#
#
# Convention : Reuss Voigt Hill
#
# Bulk Modulus (GPa) = 28.38366 46.68397 37.53382
# Shear Modulus (GPa) = 13.58134 21.78881 17.68508
#
# Velocity S-wave (km/s) = 2.60418 3.29850 2.97169
# Velocity P-wave (km/s) = 4.81825 6.14965 5.52421
#
# Compressibility (1/GPa) = 0.03523154
#
# Stress axis : x y z
#
# Youngs Moduli (GPa) = 31.47387 49.99473 54.53187
#
# Poissons Ratio (x) = -0.41954 0.82004
# Poissons Ratio (y) = -0.26412 0.58863
# Poissons Ratio (z) = 0.47330 0.53966
#
# Static dielectric constant tensor:
#      x y z
#    x 1.687040 0.000000 0.000000 
#    y 0.000000 1.710960 0.000000 
#    z 0.000000 0.000000 1.732940 
# 
# From -- ./inp_files/17470.got.cif
#   From: 2010.05.17/outbox.cif.g08.bks.cpg/sg60_9_cif.got.tgz:17470.got - 2010.06.03 14:59:27.
