data_PCOD9454755
_publ_section_title
;
Structure prediction by ZEFSAII (Michael W. Deem and Ramdas Pophale) SiO2 
 PCOD9454755
Probable space group: P B C N
;
_chemical_formula_sum "Si O2"
_cell_formula_units_Z 40
_cell_length_a 14.321348
_cell_length_b 14.389369
_cell_length_c 9.510847
_cell_angle_alpha 90.000000
_cell_angle_beta 90.000000
_cell_angle_gamma 90.000000
_cell_volume 1959.949326
_symmetry_space_group_name_H-M "P B C N"
_symmetry_group_IT_number 60
_symmetry_cell_setting 'orthorhombic'
loop_
_space_group_symop_operation_xyz
x,y,z
1/2-x,1/2-y,1/2+z
1/2+x,1/2-y,-z
-x,y,1/2-z
-x,-y,-z
1/2+x,1/2+y,1/2-z
1/2-x,1/2+y,z
x,-y,1/2+z
loop_
_atom_site_type_symbol
_atom_site_label
_atom_site_fract_x
_atom_site_fract_y
_atom_site_fract_z
Si Si1 0.703224 0.517996 0.291891
Si Si2 0.702988 0.294805 0.607481
Si Si3 0.087016 0.061696 0.945157
Si Si4 0.008054 0.771618 0.596086
Si Si5 0.678930 0.850375 0.337997
O O1 0.706781 0.614191 0.207210
O O2 0.622222 0.460020 0.210540
O O3 0.671489 0.535930 0.450531
O O4 0.796827 0.456458 0.301257
O O5 0.599233 0.268573 0.551834
O O6 0.767503 0.317956 0.477256
O O7 0.722195 0.208883 0.709753
O O8 0.060781 0.166729 0.982233
O O9 0.000000 0.000000 0.000000
O O10 0.927963 0.682621 0.865093
O O11 0.000000 0.822120 0.750000
#
# Coordination Sequence:
#
# PCOD9454755 Si02
#       5
#     8   8   8   8   8
#     4  12  22  36  59  92 126 163 207 261 318 376
#     4  11  23  41  63  91 129 163 210 265 320 385
#     4  12  19  34  59  91 124 158 201 263 316 374
#     4  10  19  38  61  88 127 160 201 258 324 371
#     4  11  23  38  63  95 124 169 210 261 324 386
#
# _framework density 20.408691000000001
#
# number of rings (size 3 to 8) (size 9 to 14) (size 15 to 20)
#    0.000    0.800    8.000    1.800    0.000    0.000 
#    0.000    3.000    0.000   19.200    0.000    0.000 
#    0.000    0.000    0.000    0.000    0.000    0.000 
#
# Total GULP energy -223110.488554 kJ/mol
# GULP energy per Si atom -5577.762214 kJ/mol
# Density = 2.036224 g / cm^3
# Si number density = 20.408691 Si / 1000 Ang^3
#
#
#
# Elastic Constant Matrix: (Units=GPa)
#
#
# Indices 1 2 3 4 5 6 
#
# 1 85.9591 37.8961 9.4117 0.0000 0.0000 0.0000
# 2 37.8961 64.9496 -6.8412 0.0000 0.0000 0.0000
# 3 9.4117 -6.8412 56.5732 0.0000 0.0000 0.0000
# 4 0.0000 0.0000 0.0000 11.8783 0.0000 0.0000
# 5 0.0000 0.0000 0.0000 0.0000 34.6937 0.0000
# 6 0.0000 0.0000 0.0000 0.0000 0.0000 32.1510
#
#
#
# Elastic Compliance Matrix: (Units=1/GPa)
#
#
# Indices 1 2 3 4 5 6 
#
# 1 0.016493 -0.010040 -0.003958 0.000000 0.000000 0.000000
# 2 -0.010040 0.021707 0.004295 0.000000 0.000000 0.000000
# 3 -0.003958 0.004295 0.018854 0.000000 0.000000 0.000000
# 4 0.000000 0.000000 0.000000 0.084187 0.000000 0.000000
# 5 0.000000 0.000000 0.000000 0.000000 0.028824 0.000000
# 6 0.000000 0.000000 0.000000 0.000000 0.000000 0.031103
#
#
# Mechanical properties :
#
#
# Convention : Reuss Voigt Hill
#
# Bulk Modulus (GPa) = 26.56140 32.04615 29.30377
# Shear Modulus (GPa) = 21.44786 26.87895 24.16340
#
# Velocity S-wave (km/s) = 3.24530 3.63303 3.44463
# Velocity P-wave (km/s) = 5.20439 5.77364 5.49639
#
# Compressibility (1/GPa) = 0.03764862
#
# Stress axis : x y z
#
# Youngs Moduli (GPa) = 60.63138 46.06789 53.03893
#
# Poissons Ratio (x) = 0.46253 0.20993
# Poissons Ratio (y) = 0.60875 -0.22782
# Poissons Ratio (z) = 0.23998 -0.19787
#
# Static dielectric constant tensor:
#      x y z
#    x 1.775550 0.000000 0.000000 
#    y 0.000000 1.763880 0.000000 
#    z 0.000000 0.000000 1.736820 
# 
# From -- ./inp_files/5688.got.cif
#   From: 2010.05.17/outbox.cif.g08.bks.cpg/sg60_3_cif.got.tgz:5688.got - 2010.06.03 14:59:27.
