data_PCOD9454053
_publ_section_title
;
Structure prediction by ZEFSAII (Michael W. Deem and Ramdas Pophale) SiO2 
 PCOD9454053
Probable space group: P B C N
;
_chemical_formula_sum "Si O2"
_cell_formula_units_Z 48
_cell_length_a 13.094371
_cell_length_b 11.416113
_cell_length_c 13.784573
_cell_angle_alpha 90.000000
_cell_angle_beta 90.000000
_cell_angle_gamma 90.000000
_cell_volume 2060.611969
_symmetry_space_group_name_H-M "P B C N"
_symmetry_group_IT_number 60
_symmetry_cell_setting 'orthorhombic'
loop_
_space_group_symop_operation_xyz
x,y,z
1/2-x,1/2-y,1/2+z
1/2+x,1/2-y,-z
-x,y,1/2-z
-x,-y,-z
1/2+x,1/2+y,1/2-z
1/2-x,1/2+y,z
x,-y,1/2+z
loop_
_atom_site_type_symbol
_atom_site_label
_atom_site_fract_x
_atom_site_fract_y
_atom_site_fract_z
Si Si1 0.154947 0.140759 0.561278
Si Si2 0.147114 0.115004 0.083912
Si Si3 0.439626 0.968041 0.870589
Si Si4 0.789140 0.315359 0.095423
Si Si5 0.899969 0.364815 0.423085
Si Si6 0.181313 0.307981 0.727168
O O1 0.152381 0.208751 0.459214
O O2 0.277623 0.120195 0.576266
O O3 0.124833 0.229502 0.646554
O O4 0.103324 0.014811 0.572893
O O5 0.079675 0.230114 0.105007
O O6 0.234082 0.119010 0.167191
O O7 0.202738 0.145716 0.981946
O O8 0.394318 0.885001 0.789743
O O9 0.360346 0.073715 0.888720
O O10 0.545333 0.037795 0.858445
O O11 0.441243 0.891956 0.969340
O O12 0.741098 0.272557 0.195494
#
# Coordination Sequence:
#
# PCOD9454053 Si02
#       6
#     8   8   8   8   8   8
#     4  10  20  36  58  86 120 167 206 249 311 377
#     4  10  19  37  55  83 124 158 206 251 312 372
#     4  11  18  35  59  89 121 153 211 257 308 361
#     4  10  18  33  56  83 118 159 205 253 306 373
#     4   9  20  33  59  88 118 156 199 260 307 351
#     4  10  19  32  56  89 115 162 204 255 303 368
#
# _framework density 23.294052000000001
#
# number of rings (size 3 to 8) (size 9 to 14) (size 15 to 20)
#    0.000    2.333    5.000    1.000    0.000    0.000 
#    0.000    8.333    0.000    0.000    8.667    0.000 
#    0.000    0.000    0.000    0.000    0.000    0.000 
#
# Total GULP energy -268474.754008 kJ/mol
# GULP energy per Si atom -5593.224042 kJ/mol
# Density = 2.324103 g / cm^3
# Si number density = 23.294052 Si / 1000 Ang^3
#
#
#
# Elastic Constant Matrix: (Units=GPa)
#
#
# Indices 1 2 3 4 5 6 
#
# 1 59.2672 18.5297 4.3948 0.0000 0.0000 0.0000
# 2 18.5297 145.1589 17.2682 0.0000 0.0000 0.0000
# 3 4.3948 17.2682 77.6514 0.0000 0.0000 0.0000
# 4 0.0000 0.0000 0.0000 38.6243 0.0000 0.0000
# 5 0.0000 0.0000 0.0000 0.0000 24.7534 0.0000
# 6 0.0000 0.0000 0.0000 0.0000 0.0000 39.1634
#
#
#
# Elastic Compliance Matrix: (Units=1/GPa)
#
#
# Indices 1 2 3 4 5 6 
#
# 1 0.017594 -0.002185 -0.000510 0.000000 0.000000 0.000000
# 2 -0.002185 0.007348 -0.001510 0.000000 0.000000 0.000000
# 3 -0.000510 -0.001510 0.013243 0.000000 0.000000 0.000000
# 4 0.000000 0.000000 0.000000 0.025890 0.000000 0.000000
# 5 0.000000 0.000000 0.000000 0.000000 0.040398 0.000000
# 6 0.000000 0.000000 0.000000 0.000000 0.000000 0.025534
#
#
# Mechanical properties :
#
#
# Convention : Reuss Voigt Hill
#
# Bulk Modulus (GPa) = 33.58690 40.27367 36.93029
# Shear Modulus (GPa) = 33.70584 36.63387 35.16986
#
# Velocity S-wave (km/s) = 3.80804 3.96999 3.88986
# Velocity P-wave (km/s) = 5.81247 6.19203 6.00525
#
# Compressibility (1/GPa) = 0.02977351
#
# Stress axis : x y z
#
# Youngs Moduli (GPa) = 56.83841 136.09857 75.51287
#
# Poissons Ratio (x) = 0.29741 0.03850
# Poissons Ratio (y) = 0.12420 0.11405
# Poissons Ratio (z) = 0.02898 0.20555
#
# Static dielectric constant tensor:
#      x y z
#    x 1.919550 0.000000 0.000000 
#    y 0.000000 1.901840 0.000000 
#    z 0.000000 0.000000 1.879740 
# 
# From -- ./inp_files/16792.got.cif
#   From: 2010.05.17/outbox.cif.g08.bks.cpg/sg60_9_cif.got.tgz:16792.got - 2010.06.03 14:59:27.
