data_PCOD9454731
_publ_section_title
;
Structure prediction by ZEFSAII (Michael W. Deem and Ramdas Pophale) SiO2 
 PCOD9454731
Probable space group: P B C N
;
_chemical_formula_sum "Si O2"
_cell_formula_units_Z 48
_cell_length_a 26.190777
_cell_length_b 5.835045
_cell_length_c 13.015949
_cell_angle_alpha 90.000000
_cell_angle_beta 90.000000
_cell_angle_gamma 90.000000
_cell_volume 1989.154107
_symmetry_space_group_name_H-M "P B C N"
_symmetry_group_IT_number 60
_symmetry_cell_setting 'orthorhombic'
loop_
_space_group_symop_operation_xyz
x,y,z
1/2-x,1/2-y,1/2+z
1/2+x,1/2-y,-z
-x,y,1/2-z
-x,-y,-z
1/2+x,1/2+y,1/2-z
1/2-x,1/2+y,z
x,-y,1/2+z
loop_
_atom_site_type_symbol
_atom_site_label
_atom_site_fract_x
_atom_site_fract_y
_atom_site_fract_z
Si Si1 0.880783 0.240301 0.145255
Si Si2 0.374190 0.040069 0.163236
Si Si3 0.274171 0.591703 0.320202
Si Si4 0.238951 0.608715 0.086678
Si Si5 0.940133 0.562511 0.009782
Si Si6 0.943132 0.141733 0.714784
O O1 0.861855 0.426554 0.226922
O O2 0.832068 0.076966 0.137286
O O3 0.904414 0.349564 0.044357
O O4 0.928909 0.118398 0.196820
O O5 0.320950 0.099012 0.111640
O O6 0.406841 0.258303 0.197469
O O7 0.411421 0.877186 0.095706
O O8 0.247559 0.347536 0.346557
O O9 0.270877 0.599302 0.194309
O O10 0.250292 0.358848 0.037871
O O11 0.935421 0.738564 0.103815
O O12 0.000000 0.500000 0.000000
O O13 0.000000 0.183117 0.750000
#
# Coordination Sequence:
#
# PCOD9454731 Si02
#       6
#     8   8   8   8   8   8
#     4  11  25  40  70 101 132 189 234 290 364 428
#     4  11  23  43  69  94 139 182 229 287 361 430
#     4  10  19  38  69 100 137 178 232 291 353 426
#     4  10  19  37  67 100 134 180 231 283 351 427
#     4  11  26  46  62 100 142 180 234 302 352 430
#     4  11  24  42  70  97 131 181 238 291 362 423
#
# _framework density 24.130859999999998
#
# number of rings (size 3 to 8) (size 9 to 14) (size 15 to 20)
#    0.000    1.333    5.000    2.000    4.667    2.000 
#    0.000    1.667    0.000    0.000    0.000    0.000 
#    0.000    0.000    0.000    0.000    0.000    0.000 
#
# Total GULP energy -268099.996929 kJ/mol
# GULP energy per Si atom -5585.416603 kJ/mol
# Density = 2.407594 g / cm^3
# Si number density = 24.130860 Si / 1000 Ang^3
#
#
#
# Elastic Constant Matrix: (Units=GPa)
#
#
# Indices 1 2 3 4 5 6 
#
# 1 88.5629 -8.2280 27.5440 0.0000 0.0000 0.0000
# 2 -8.2280 104.3331 29.9396 0.0000 0.0000 0.0000
# 3 27.5440 29.9396 76.0348 0.0000 0.0000 0.0000
# 4 0.0000 0.0000 0.0000 25.3157 0.0000 0.0000
# 5 0.0000 0.0000 0.0000 0.0000 33.0988 0.0000
# 6 0.0000 0.0000 0.0000 0.0000 0.0000 30.7651
#
#
#
# Elastic Compliance Matrix: (Units=1/GPa)
#
#
# Indices 1 2 3 4 5 6 
#
# 1 0.013395 0.002761 -0.005940 0.000000 0.000000 0.000000
# 2 0.002761 0.011375 -0.005479 0.000000 0.000000 0.000000
# 3 -0.005940 -0.005479 0.017461 0.000000 0.000000 0.000000
# 4 0.000000 0.000000 0.000000 0.039501 0.000000 0.000000
# 5 0.000000 0.000000 0.000000 0.000000 0.030213 0.000000
# 6 0.000000 0.000000 0.000000 0.000000 0.000000 0.032504
#
#
# Mechanical properties :
#
#
# Convention : Reuss Voigt Hill
#
# Bulk Modulus (GPa) = 40.13613 40.82690 40.48152
# Shear Modulus (GPa) = 29.39971 32.48092 30.94032
#
# Velocity S-wave (km/s) = 3.49427 3.67281 3.58465
# Velocity P-wave (km/s) = 5.74009 5.91115 5.82625
#
# Compressibility (1/GPa) = 0.02491521
#
# Stress axis : x y z
#
# Youngs Moduli (GPa) = 74.65372 87.91451 57.27063
#
# Poissons Ratio (x) = -0.24272 0.34016
# Poissons Ratio (y) = -0.20611 0.31379
# Poissons Ratio (z) = 0.44341 0.48169
#
# Static dielectric constant tensor:
#      x y z
#    x 1.867360 0.000000 0.000000 
#    y 0.000000 1.969000 0.000000 
#    z 0.000000 0.000000 2.059650 
# 
# From -- ./inp_files/18055.got.cif
#   From: 2010.05.17/outbox.cif.g08.bks.cpg/sg60_10_cif.got.tgz:18055.got - 2010.06.03 14:59:27.
