data_PCOD9454402
_publ_section_title
;
Structure prediction by ZEFSAII (Michael W. Deem and Ramdas Pophale) SiO2 
 PCOD9454402
Probable space group: P B C N
;
_chemical_formula_sum "Si O2"
_cell_formula_units_Z 48
_cell_length_a 8.158857
_cell_length_b 11.315014
_cell_length_c 19.968701
_cell_angle_alpha 90.000000
_cell_angle_beta 90.000000
_cell_angle_gamma 90.000000
_cell_volume 1843.462176
_symmetry_space_group_name_H-M "P B C N"
_symmetry_group_IT_number 60
_symmetry_cell_setting 'orthorhombic'
loop_
_space_group_symop_operation_xyz
x,y,z
1/2-x,1/2-y,1/2+z
1/2+x,1/2-y,-z
-x,y,1/2-z
-x,-y,-z
1/2+x,1/2+y,1/2-z
1/2-x,1/2+y,z
x,-y,1/2+z
loop_
_atom_site_type_symbol
_atom_site_label
_atom_site_fract_x
_atom_site_fract_y
_atom_site_fract_z
Si Si1 0.327101 0.099321 0.286774
Si Si2 0.982542 0.270598 0.451427
Si Si3 0.335334 0.474308 0.919066
Si Si4 0.072727 0.716832 0.812971
Si Si5 0.690396 0.114350 0.455489
Si Si6 0.130174 0.963435 0.666293
O O1 0.500000 0.108774 0.250000
O O2 0.299153 0.054935 0.362309
O O3 0.248074 0.230919 0.293757
O O4 0.208951 0.018218 0.238806
O O5 0.085622 0.147505 0.448531
O O6 0.050495 0.336299 0.385769
O O7 0.015686 0.346865 0.517099
O O8 0.795315 0.234235 0.445776
O O9 0.276692 0.548500 0.982216
O O10 0.487130 0.530355 0.874968
O O11 0.000000 0.648597 0.750000
O O12 0.957472 0.834937 0.821627
O O13 0.721265 0.047151 0.386724
#
# Coordination Sequence:
#
# PCOD9454402 Si02
#       6
#     8   8   8   8   8   8
#     4   9  16  28  50  77 100 129 171 219 257 289
#     4   9  18  32  52  76 103 133 170 215 254 304
#     4   9  18  35  54  72 102 141 172 202 254 320
#     4   7  13  28  48  66  93 135 170 196 249 316
#     4  10  19  33  54  78 103 136 174 211 254 306
#     4   8  15  30  52  71  97 138 170 195 250 319
#
# _framework density 26.037963000000001
#
# number of rings (size 3 to 8) (size 9 to 14) (size 15 to 20)
#    0.000    4.000    0.000    3.500    0.000    2.667 
#    0.000    5.833    0.000   28.000    0.000    0.000 
#    0.000    0.000    0.000    0.000    0.000    0.000 
#
# Total GULP energy -267643.330126 kJ/mol
# GULP energy per Si atom -5575.902711 kJ/mol
# Density = 2.597870 g / cm^3
# Si number density = 26.037963 Si / 1000 Ang^3
#
#
#
# Elastic Constant Matrix: (Units=GPa)
#
#
# Indices 1 2 3 4 5 6 
#
# 1 77.1871 21.6710 18.8982 0.0000 0.0000 0.0000
# 2 21.6710 45.1672 15.4137 0.0000 0.0000 0.0000
# 3 18.8982 15.4137 164.7041 0.0000 0.0000 0.0000
# 4 0.0000 0.0000 0.0000 3.6290 0.0000 0.0000
# 5 0.0000 0.0000 0.0000 0.0000 53.4206 0.0000
# 6 0.0000 0.0000 0.0000 0.0000 0.0000 22.1603
#
#
#
# Elastic Compliance Matrix: (Units=1/GPa)
#
#
# Indices 1 2 3 4 5 6 
#
# 1 0.015161 -0.006901 -0.001094 0.000000 0.000000 0.000000
# 2 -0.006901 0.026011 -0.001642 0.000000 0.000000 0.000000
# 3 -0.001094 -0.001642 0.006351 0.000000 0.000000 0.000000
# 4 0.000000 0.000000 0.000000 0.275555 0.000000 0.000000
# 5 0.000000 0.000000 0.000000 0.000000 0.018719 0.000000
# 6 0.000000 0.000000 0.000000 0.000000 0.000000 0.045126
#
#
# Mechanical properties :
#
#
# Convention : Reuss Voigt Hill
#
# Bulk Modulus (GPa) = 35.39962 44.33601 39.86782
# Shear Modulus (GPa) = 12.03042 31.24701 21.63871
#
# Velocity S-wave (km/s) = 2.15183 3.46794 2.88591
# Velocity P-wave (km/s) = 4.44958 5.75325 5.14289
#
# Compressibility (1/GPa) = 0.02824889
#
# Stress axis : x y z
#
# Youngs Moduli (GPa) = 65.95957 38.44456 157.46296
#
# Poissons Ratio (x) = 0.26530 0.17222
# Poissons Ratio (y) = 0.45518 0.25863
# Poissons Ratio (z) = 0.07214 0.06314
#
# Static dielectric constant tensor:
#      x y z
#    x 2.140100 0.000000 0.000000 
#    y 0.000000 2.080730 0.000000 
#    z 0.000000 0.000000 2.164920 
# 
# From -- ./inp_files/19449.got.cif
#   From: 2010.05.17/outbox.cif.g08.bks.cpg/sg60_10_cif.got.tgz:19449.got - 2010.06.03 14:59:27.
