data_PCOD9454197
_publ_section_title
;
Structure prediction by ZEFSAII (Michael W. Deem and Ramdas Pophale) SiO2 
 PCOD9454197
Probable space group: P B C N
;
_chemical_formula_sum "Si O2"
_cell_formula_units_Z 44
_cell_length_a 5.414177
_cell_length_b 21.331060
_cell_length_c 14.767278
_cell_angle_alpha 90.000000
_cell_angle_beta 90.000000
_cell_angle_gamma 90.000000
_cell_volume 1705.474921
_symmetry_space_group_name_H-M "P B C N"
_symmetry_group_IT_number 60
_symmetry_cell_setting 'orthorhombic'
loop_
_space_group_symop_operation_xyz
x,y,z
1/2-x,1/2-y,1/2+z
1/2+x,1/2-y,-z
-x,y,1/2-z
-x,-y,-z
1/2+x,1/2+y,1/2-z
1/2-x,1/2+y,z
x,-y,1/2+z
loop_
_atom_site_type_symbol
_atom_site_label
_atom_site_fract_x
_atom_site_fract_y
_atom_site_fract_z
Si Si1 0.588759 0.908137 0.611840
Si Si2 0.289393 0.220531 0.882416
Si Si3 0.409062 0.964515 0.148678
Si Si4 0.590026 0.482917 0.099252
Si Si5 0.215586 0.824521 0.043293
Si Si6 0.500000 0.800650 0.750000
O O1 0.385425 0.962456 0.616990
O O2 0.817026 0.952174 0.648572
O O3 0.698069 0.883112 0.517964
O O4 0.477014 0.849760 0.666756
O O5 0.558217 0.188891 0.887818
O O6 0.049970 0.179180 0.908963
O O7 0.216284 0.256481 0.789532
O O8 0.300046 0.270890 0.965083
O O9 0.500000 0.958092 0.250000
O O10 0.651968 0.945562 0.093250
O O11 0.128227 0.944027 0.144488
O O12 0.500000 0.500000 0.000000
#
# Coordination Sequence:
#
# PCOD9454197 Si02
#       6
#     8   8   8   8   8   4
#     4   9  20  32  59  80 115 144 189 233 291 350
#     4   9  19  32  47  71 107 140 179 224 269 330
#     4  10  20  35  55  88 113 146 178 243 300 346
#     4  10  21  36  55  86 117 149 187 236 300 361
#     4   9  18  33  47  74 103 144 180 214 271 335
#     4  10  18  38  50  88 110 150 182 246 296 340
#
# _framework density 25.799267
#
# number of rings (size 3 to 8) (size 9 to 14) (size 15 to 20)
#    1.091    1.455    0.909    1.091    2.545    0.727 
#    6.545    0.000    0.000    0.000    9.455    0.000 
#    0.000    0.000    0.000    0.000    0.000    0.000 
#
# Total GULP energy -245029.137877 kJ/mol
# GULP energy per Si atom -5568.844043 kJ/mol
# Density = 2.574055 g / cm^3
# Si number density = 25.799267 Si / 1000 Ang^3
#
#
#
# Elastic Constant Matrix: (Units=GPa)
#
#
# Indices 1 2 3 4 5 6 
#
# 1 158.5393 28.4446 42.9194 0.0000 0.0000 0.0000
# 2 28.4446 75.6615 11.3071 0.0000 0.0000 0.0000
# 3 42.9194 11.3071 77.8590 0.0000 0.0000 0.0000
# 4 0.0000 0.0000 0.0000 25.1935 0.0000 0.0000
# 5 0.0000 0.0000 0.0000 0.0000 44.7315 0.0000
# 6 0.0000 0.0000 0.0000 0.0000 0.0000 13.0477
#
#
#
# Elastic Compliance Matrix: (Units=1/GPa)
#
#
# Indices 1 2 3 4 5 6 
#
# 1 0.007799 -0.002340 -0.003959 0.000000 0.000000 0.000000
# 2 -0.002340 0.014212 -0.000774 0.000000 0.000000 0.000000
# 3 -0.003959 -0.000774 0.015139 0.000000 0.000000 0.000000
# 4 0.000000 0.000000 0.000000 0.039693 0.000000 0.000000
# 5 0.000000 0.000000 0.000000 0.000000 0.022356 0.000000
# 6 0.000000 0.000000 0.000000 0.000000 0.000000 0.076642
#
#
# Mechanical properties :
#
#
# Convention : Reuss Voigt Hill
#
# Bulk Modulus (GPa) = 43.47271 53.04465 48.25868
# Shear Modulus (GPa) = 25.29650 31.88713 28.59182
#
# Velocity S-wave (km/s) = 3.13471 3.51945 3.33264
# Velocity P-wave (km/s) = 5.47621 6.09266 5.79264
#
# Compressibility (1/GPa) = 0.02300294
#
# Stress axis : x y z
#
# Youngs Moduli (GPa) = 128.21503 70.36174 66.05565
#
# Poissons Ratio (x) = 0.16468 0.26155
# Poissons Ratio (y) = 0.30008 0.05112
# Poissons Ratio (z) = 0.50767 0.05445
#
# Static dielectric constant tensor:
#      x y z
#    x 2.059100 0.000000 0.000000 
#    y 0.000000 2.127040 0.000000 
#    z 0.000000 0.000000 2.052630 
# 
# From -- ./inp_files/14014.got.cif
#   From: 2010.05.17/outbox.cif.g08.bks.cpg/sg60_8_cif.got.tgz:14014.got - 2010.06.03 14:59:27.
