data_PCOD9454565
_publ_section_title
;
Structure prediction by ZEFSAII (Michael W. Deem and Ramdas Pophale) SiO2 
 PCOD9454565
Probable space group: P B C N
;
_chemical_formula_sum "Si O2"
_cell_formula_units_Z 64
_cell_length_a 9.386329
_cell_length_b 13.113876
_cell_length_c 23.221603
_cell_angle_alpha 90.000000
_cell_angle_beta 90.000000
_cell_angle_gamma 90.000000
_cell_volume 2858.373925
_symmetry_space_group_name_H-M "P B C N"
_symmetry_group_IT_number 60
_symmetry_cell_setting 'orthorhombic'
loop_
_space_group_symop_operation_xyz
x,y,z
1/2-x,1/2-y,1/2+z
1/2+x,1/2-y,-z
-x,y,1/2-z
-x,-y,-z
1/2+x,1/2+y,1/2-z
1/2-x,1/2+y,z
x,-y,1/2+z
loop_
_atom_site_type_symbol
_atom_site_label
_atom_site_fract_x
_atom_site_fract_y
_atom_site_fract_z
Si Si1 0.194668 0.670654 0.115004
Si Si2 0.479902 0.666094 0.686267
Si Si3 0.353807 0.625291 0.424762
Si Si4 0.390251 0.658238 0.006165
Si Si5 0.133301 0.369308 0.424468
Si Si6 0.236966 0.974571 0.330299
Si Si7 0.145539 0.051753 0.216477
Si Si8 0.536999 0.124901 0.032695
O O1 0.106210 0.761185 0.144636
O O2 0.295805 0.698116 0.060571
O O3 0.288973 0.619054 0.165556
O O4 0.073661 0.602289 0.083734
O O5 0.500000 0.713054 0.750000
O O6 0.636746 0.626186 0.670066
O O7 0.396712 0.559355 0.692493
O O8 0.486373 0.593478 0.463977
O O9 0.372717 0.747273 0.414528
O O10 0.344222 0.561002 0.366908
O O11 0.201510 0.607213 0.454516
O O12 0.281461 0.613349 0.959704
O O13 0.468186 0.751249 0.974491
O O14 0.130496 0.433735 0.366400
O O15 0.016643 0.407379 0.469907
O O16 0.255489 0.023600 0.267872
O O17 0.000000 0.089095 0.250000
#
# Coordination Sequence:
#
# PCOD9454565 Si02
#       8
#     8   8   8   8   8   8   8   8
#     4  11  20  38  66  89 121 165 204 261 316 365
#     4   9  20  38  60  88 118 155 203 254 305 365
#     4  10  19  35  58  84 121 165 204 254 311 370
#     4   9  18  35  59  87 118 156 206 254 311 381
#     4   9  19  35  53  84 122 154 201 259 309 363
#     4  10  20  35  59  86 117 159 208 249 298 375
#     4   9  21  39  58  89 121 155 212 257 299 376
#     4   9  20  35  55  87 125 161 203 253 315 372
#
# _framework density 22.390352
#
# number of rings (size 3 to 8) (size 9 to 14) (size 15 to 20)
#    0.000    2.750    0.000    3.750    0.000    4.000 
#    0.000   12.500    0.000    3.750    0.000    0.000 
#    0.000    0.000    0.000    0.000    0.000    0.000 
#
# Total GULP energy -357039.215378 kJ/mol
# GULP energy per Si atom -5578.737740 kJ/mol
# Density = 2.233939 g / cm^3
# Si number density = 22.390352 Si / 1000 Ang^3
#
#
#
# Elastic Constant Matrix: (Units=GPa)
#
#
# Indices 1 2 3 4 5 6 
#
# 1 73.6889 7.8457 34.1954 0.0000 0.0000 0.0000
# 2 7.8457 59.5902 32.6908 0.0000 0.0000 0.0000
# 3 34.1954 32.6908 128.2677 0.0000 0.0000 0.0000
# 4 0.0000 0.0000 0.0000 28.3878 0.0000 0.0000
# 5 0.0000 0.0000 0.0000 0.0000 37.4538 0.0000
# 6 0.0000 0.0000 0.0000 0.0000 0.0000 18.4097
#
#
#
# Elastic Compliance Matrix: (Units=1/GPa)
#
#
# Indices 1 2 3 4 5 6 
#
# 1 0.015490 0.000263 -0.004197 0.000000 0.000000 0.000000
# 2 0.000263 0.019513 -0.005043 0.000000 0.000000 0.000000
# 3 -0.004197 -0.005043 0.010200 0.000000 0.000000 0.000000
# 4 0.000000 0.000000 0.000000 0.035226 0.000000 0.000000
# 5 0.000000 0.000000 0.000000 0.000000 0.026700 0.000000
# 6 0.000000 0.000000 0.000000 0.000000 0.000000 0.054319
#
#
# Mechanical properties :
#
#
# Convention : Reuss Voigt Hill
#
# Bulk Modulus (GPa) = 36.69780 45.66785 41.18283
# Shear Modulus (GPa) = 26.52712 29.30458 27.91585
#
# Velocity S-wave (km/s) = 3.44576 3.62166 3.53481
# Velocity P-wave (km/s) = 5.67949 6.15866 5.92392
#
# Compressibility (1/GPa) = 0.02724959
#
# Stress axis : x y z
#
# Youngs Moduli (GPa) = 64.55782 51.24682 98.03611
#
# Poissons Ratio (x) = -0.01347 0.41141
# Poissons Ratio (y) = -0.01696 0.49443
# Poissons Ratio (z) = 0.27092 0.25845
#
# Static dielectric constant tensor:
#      x y z
#    x 1.878450 0.000000 0.000000 
#    y 0.000000 1.886250 0.000000 
#    z 0.000000 0.000000 1.844540 
# 
# From -- ./inp_files/24085.got.cif
#   From: 2010.05.17/outbox.cif.g08.bks.cpg/sg60_13_cif.got.tgz:24085.got - 2010.06.03 14:59:27.
