data_PCOD9454568
_publ_section_title
;
Structure prediction by ZEFSAII (Michael W. Deem and Ramdas Pophale) SiO2 
 PCOD9454568
Probable space group: P B C N
;
_chemical_formula_sum "Si O2"
_cell_formula_units_Z 48
_cell_length_a 18.684800
_cell_length_b 9.626797
_cell_length_c 11.435587
_cell_angle_alpha 90.000000
_cell_angle_beta 90.000000
_cell_angle_gamma 90.000000
_cell_volume 2056.973657
_symmetry_space_group_name_H-M "P B C N"
_symmetry_group_IT_number 60
_symmetry_cell_setting 'orthorhombic'
loop_
_space_group_symop_operation_xyz
x,y,z
1/2-x,1/2-y,1/2+z
1/2+x,1/2-y,-z
-x,y,1/2-z
-x,-y,-z
1/2+x,1/2+y,1/2-z
1/2-x,1/2+y,z
x,-y,1/2+z
loop_
_atom_site_type_symbol
_atom_site_label
_atom_site_fract_x
_atom_site_fract_y
_atom_site_fract_z
Si Si1 0.208580 0.256622 0.881191
Si Si2 0.696497 0.470319 0.482431
Si Si3 0.046112 0.288251 0.864410
Si Si4 0.964573 0.291739 0.373766
Si Si5 0.824847 0.171575 0.291700
Si Si6 0.934207 0.960136 0.606484
O O1 0.251217 0.350714 0.975546
O O2 0.201014 0.101963 0.930010
O O3 0.130975 0.319631 0.851748
O O4 0.261025 0.251124 0.771413
O O5 0.709856 0.544780 0.361356
O O6 0.612303 0.431653 0.489071
O O7 0.000000 0.327741 0.750000
O O8 0.046292 0.119356 0.873330
O O9 0.022003 0.345747 0.992954
O O10 0.879062 0.272318 0.361368
O O11 0.000000 0.347406 0.250000
O O12 0.997855 0.137515 0.383619
O O13 0.878558 0.101218 0.199956
#
# Coordination Sequence:
#
# PCOD9454568 Si02
#       6
#     8   8   8   8   8   8
#     4  10  23  40  59  93 125 167 210 260 318 381
#     4  10  21  39  61  90 129 164 211 256 321 378
#     4  11  21  36  59  91 126 166 211 272 319 371
#     4  10  19  35  58  94 130 157 204 271 328 373
#     4  10  19  36  59  91 127 166 204 259 319 382
#     4   9  19  32  57  93 127 156 204 266 326 366
#
# _framework density 23.335255
#
# number of rings (size 3 to 8) (size 9 to 14) (size 15 to 20)
#    0.000    2.000    3.333    2.000    2.333    4.000 
#    6.000    0.000    0.000    6.000    0.000    0.000 
#    0.000    0.000    0.000    0.000    0.000    0.000 
#
# Total GULP energy -267779.359297 kJ/mol
# GULP energy per Si atom -5578.736652 kJ/mol
# Density = 2.328214 g / cm^3
# Si number density = 23.335255 Si / 1000 Ang^3
#
#
#
# Elastic Constant Matrix: (Units=GPa)
#
#
# Indices 1 2 3 4 5 6 
#
# 1 136.1888 21.4310 48.6709 0.0000 0.0000 0.0000
# 2 21.4310 42.6561 1.5656 0.0000 0.0000 0.0000
# 3 48.6709 1.5656 126.0977 0.0000 0.0000 0.0000
# 4 0.0000 0.0000 0.0000 12.6474 0.0000 0.0000
# 5 0.0000 0.0000 0.0000 0.0000 41.5264 0.0000
# 6 0.0000 0.0000 0.0000 0.0000 0.0000 32.5353
#
#
#
# Elastic Compliance Matrix: (Units=1/GPa)
#
#
# Indices 1 2 3 4 5 6 
#
# 1 0.009326 -0.004555 -0.003543 0.000000 0.000000 0.000000
# 2 -0.004555 0.025679 0.001439 0.000000 0.000000 0.000000
# 3 -0.003543 0.001439 0.009280 0.000000 0.000000 0.000000
# 4 0.000000 0.000000 0.000000 0.079068 0.000000 0.000000
# 5 0.000000 0.000000 0.000000 0.000000 0.024081 0.000000
# 6 0.000000 0.000000 0.000000 0.000000 0.000000 0.030736
#
#
# Mechanical properties :
#
#
# Convention : Reuss Voigt Hill
#
# Bulk Modulus (GPa) = 32.29231 49.80862 41.05046
# Shear Modulus (GPa) = 24.77583 32.89350 28.83466
#
# Velocity S-wave (km/s) = 3.26196 3.75854 3.51902
# Velocity P-wave (km/s) = 5.29676 6.34245 5.84304
#
# Compressibility (1/GPa) = 0.03096713
#
# Stress axis : x y z
#
# Youngs Moduli (GPa) = 107.22967 38.94209 107.75865
#
# Poissons Ratio (x) = 0.17740 0.38179
# Poissons Ratio (y) = 0.48847 -0.15511
# Poissons Ratio (z) = 0.37991 -0.05605
#
# Static dielectric constant tensor:
#      x y z
#    x 1.875090 0.000000 0.000000 
#    y 0.000000 1.825150 0.000000 
#    z 0.000000 0.000000 2.072400 
# 
# From -- ./inp_files/12412.got.cif
#   From: 2010.05.17/outbox.cif.g08.bks.cpg/sg60_7_cif.got.tgz:12412.got - 2010.06.03 14:59:27.
