data_PCOD9454785
_publ_section_title
;
Structure prediction by ZEFSAII (Michael W. Deem and Ramdas Pophale) SiO2 
 PCOD9454785
Probable space group: P B C N
;
_chemical_formula_sum "Si O2"
_cell_formula_units_Z 48
_cell_length_a 8.801671
_cell_length_b 30.004207
_cell_length_c 10.109591
_cell_angle_alpha 90.000000
_cell_angle_beta 90.000000
_cell_angle_gamma 90.000000
_cell_volume 2669.813162
_symmetry_space_group_name_H-M "P B C N"
_symmetry_group_IT_number 60
_symmetry_cell_setting 'orthorhombic'
loop_
_space_group_symop_operation_xyz
x,y,z
1/2-x,1/2-y,1/2+z
1/2+x,1/2-y,-z
-x,y,1/2-z
-x,-y,-z
1/2+x,1/2+y,1/2-z
1/2-x,1/2+y,z
x,-y,1/2+z
loop_
_atom_site_type_symbol
_atom_site_label
_atom_site_fract_x
_atom_site_fract_y
_atom_site_fract_z
Si Si1 0.597445 0.709755 0.116833
Si Si2 0.441942 0.391580 0.898404
Si Si3 0.823389 0.538885 0.717572
Si Si4 0.884398 0.226311 0.632042
Si Si5 0.141578 0.876384 0.350182
Si Si6 0.828315 0.981237 0.493653
O O1 0.500000 0.713903 0.250000
O O2 0.633472 0.657278 0.098763
O O3 0.747592 0.739274 0.121674
O O4 0.487263 0.724377 0.998537
O O5 0.500000 0.400473 0.750000
O O6 0.336059 0.431198 0.948810
O O7 0.580570 0.388215 0.003278
O O8 0.771900 0.589771 0.692048
O O9 0.775794 0.511094 0.588284
O O10 0.000000 0.535630 0.750000
O O11 0.729525 0.520597 0.843627
O O12 0.821777 0.176016 0.654898
O O13 0.000000 0.237323 0.750000
O O14 0.000000 0.883547 0.250000
O O15 0.000000 0.000000 0.500000
#
# Coordination Sequence:
#
# PCOD9454785 Si02
#       6
#     8   8   8   8   8   8
#     4  10  21  38  58  88 122 155 200 251 302 355
#     4  10  20  36  62  87 113 154 211 246 281 362
#     4  12  25  40  59  94 129 150 196 260 309 344
#     4  10  21  37  63  87 120 158 203 249 301 359
#     4  10  19  39  61  86 114 160 209 243 288 372
#     4  12  22  41  67  87 116 167 209 236 296 374
#
# _framework density 17.978785999999999
#
# number of rings (size 3 to 8) (size 9 to 14) (size 15 to 20)
#    0.000    1.333    3.333    3.000    0.000    0.667 
#    3.000    0.833    0.000    0.000    0.000    0.000 
#    0.000    0.000    0.000    0.000    0.000    0.000 
#
# Total GULP energy -268153.406947 kJ/mol
# GULP energy per Si atom -5586.529311 kJ/mol
# Density = 1.793787 g / cm^3
# Si number density = 17.978786 Si / 1000 Ang^3
#
#
#
# Elastic Constant Matrix: (Units=GPa)
#
#
# Indices 1 2 3 4 5 6 
#
# 1 86.1163 57.4061 23.1462 0.0000 0.0000 0.0000
# 2 57.4061 107.5376 26.0452 0.0000 0.0000 0.0000
# 3 23.1462 26.0452 112.9146 0.0000 0.0000 0.0000
# 4 0.0000 0.0000 0.0000 32.9597 0.0000 0.0000
# 5 0.0000 0.0000 0.0000 0.0000 22.2351 0.0000
# 6 0.0000 0.0000 0.0000 0.0000 0.0000 29.4626
#
#
#
# Elastic Compliance Matrix: (Units=1/GPa)
#
#
# Indices 1 2 3 4 5 6 
#
# 1 0.018292 -0.009380 -0.001586 0.000000 0.000000 0.000000
# 2 -0.009380 0.014660 -0.001459 0.000000 0.000000 0.000000
# 3 -0.001586 -0.001459 0.009518 0.000000 0.000000 0.000000
# 4 0.000000 0.000000 0.000000 0.030340 0.000000 0.000000
# 5 0.000000 0.000000 0.000000 0.000000 0.044974 0.000000
# 6 0.000000 0.000000 0.000000 0.000000 0.000000 0.033941
#
#
# Mechanical properties :
#
#
# Convention : Reuss Voigt Hill
#
# Bulk Modulus (GPa) = 56.75539 57.75147 57.25343
# Shear Modulus (GPa) = 27.40520 30.26290 28.83405
#
# Velocity S-wave (km/s) = 3.90847 4.10720 4.00907
# Velocity P-wave (km/s) = 7.21143 7.39485 7.30372
#
# Compressibility (1/GPa) = 0.01761947
#
# Stress axis : x y z
#
# Youngs Moduli (GPa) = 54.67019 68.21378 105.06657
#
# Poissons Ratio (x) = 0.63987 0.16662
# Poissons Ratio (y) = 0.51283 0.15325
# Poissons Ratio (z) = 0.08670 0.09950
#
# Static dielectric constant tensor:
#      x y z
#    x 1.561690 0.000000 0.000000 
#    y 0.000000 1.633390 0.000000 
#    z 0.000000 0.000000 1.604430 
# 
# From -- ./inp_files/4213.got.cif
#   From: 2010.05.17/outbox.cif.g08.bks.cpg/sg60_3_cif.got.tgz:4213.got - 2010.06.03 14:59:27.
