data_PCOD9454740
_publ_section_title
;
Structure prediction by ZEFSAII (Michael W. Deem and Ramdas Pophale) SiO2 
 PCOD9454740
Probable space group: P B C N
;
_chemical_formula_sum "Si O2"
_cell_formula_units_Z 52
_cell_length_a 5.206906
_cell_length_b 25.856652
_cell_length_c 17.899993
_cell_angle_alpha 90.000000
_cell_angle_beta 90.000000
_cell_angle_gamma 90.000000
_cell_volume 2409.932558
_symmetry_space_group_name_H-M "P B C N"
_symmetry_group_IT_number 60
_symmetry_cell_setting 'orthorhombic'
loop_
_space_group_symop_operation_xyz
x,y,z
1/2-x,1/2-y,1/2+z
1/2+x,1/2-y,-z
-x,y,1/2-z
-x,-y,-z
1/2+x,1/2+y,1/2-z
1/2-x,1/2+y,z
x,-y,1/2+z
loop_
_atom_site_type_symbol
_atom_site_label
_atom_site_fract_x
_atom_site_fract_y
_atom_site_fract_z
Si Si1 0.561098 0.584092 0.002978
Si Si2 0.373440 0.916916 0.866936
Si Si3 0.210177 0.185284 0.965107
Si Si4 0.794478 0.734499 0.902145
Si Si5 0.500000 0.153483 0.250000
Si Si6 0.500000 0.532758 0.250000
Si Si7 0.755494 0.999944 0.397228
Si Si8 0.000000 0.780448 0.750000
O O1 0.752296 0.610624 0.062123
O O2 0.421484 0.540977 0.054320
O O3 0.362125 0.625623 0.973511
O O4 0.711681 0.554232 0.937974
O O5 0.571762 0.880624 0.823342
O O6 0.481832 0.971883 0.895280
O O7 0.180018 0.931772 0.800925
O O8 0.990762 0.211480 0.912544
O O9 0.493188 0.195150 0.934189
O O10 0.190253 0.215003 0.044475
O O11 0.885827 0.748520 0.819336
O O12 0.248709 0.185642 0.273321
O O13 0.347262 0.499583 0.188605
#
# Coordination Sequence:
#
# PCOD9454740 Si02
#       8
#     8   8   8   8   4   4   8   4
#     4  10  23  37  61  91 123 167 221 254 315 382
#     4  11  21  35  59  90 131 163 208 266 314 383
#     4  10  22  42  65  91 123 169 210 257 322 381
#     4  10  23  42  65  90 127 160 207 273 318 377
#     4  12  24  34  66  98 128 165 205 260 340 384
#     4  10  19  38  54  83 128 174 205 254 319 360
#     4  10  21  38  58  90 130 167 207 269 307 376
#     4  12  25  42  64 101 126 161 210 272 335 382
#
# _framework density 21.577369000000001
#
# number of rings (size 3 to 8) (size 9 to 14) (size 15 to 20)
#    0.000    1.538    1.538    2.769    6.462    1.231 
#    0.000    1.538    0.000    0.000    0.000    0.000 
#    0.000    0.000    0.000    0.000    0.000    0.000 
#
# Total GULP energy -290562.151837 kJ/mol
# GULP energy per Si atom -5587.733689 kJ/mol
# Density = 2.152826 g / cm^3
# Si number density = 21.577369 Si / 1000 Ang^3
#
#
#
# Elastic Constant Matrix: (Units=GPa)
#
#
# Indices 1 2 3 4 5 6 
#
# 1 63.2338 -3.5539 -2.0544 0.0000 0.0000 0.0000
# 2 -3.5539 51.0541 16.7625 0.0000 0.0000 0.0000
# 3 -2.0544 16.7625 92.2510 0.0000 0.0000 0.0000
# 4 0.0000 0.0000 0.0000 10.3760 0.0000 0.0000
# 5 0.0000 0.0000 0.0000 0.0000 27.6978 0.0000
# 6 0.0000 0.0000 0.0000 0.0000 0.0000 11.7395
#
#
#
# Elastic Compliance Matrix: (Units=1/GPa)
#
#
# Indices 1 2 3 4 5 6 
#
# 1 0.015879 0.001052 0.000162 0.000000 0.000000 0.000000
# 2 0.001052 0.020899 -0.003774 0.000000 0.000000 0.000000
# 3 0.000162 -0.003774 0.011529 0.000000 0.000000 0.000000
# 4 0.000000 0.000000 0.000000 0.096377 0.000000 0.000000
# 5 0.000000 0.000000 0.000000 0.000000 0.036104 0.000000
# 6 0.000000 0.000000 0.000000 0.000000 0.000000 0.085182
#
#
# Mechanical properties :
#
#
# Convention : Reuss Voigt Hill
#
# Bulk Modulus (GPa) = 23.15445 25.42747 24.29096
# Shear Modulus (GPa) = 17.51400 22.98830 20.25115
#
# Velocity S-wave (km/s) = 2.85210 3.26757 3.06688
# Velocity P-wave (km/s) = 4.64759 5.10352 4.88088
#
# Compressibility (1/GPa) = 0.04318825
#
# Stress axis : x y z
#
# Youngs Moduli (GPa) = 62.97732 47.84812 86.73487
#
# Poissons Ratio (x) = -0.05034 -0.01409
# Poissons Ratio (y) = -0.06625 0.32735
# Poissons Ratio (z) = -0.01023 0.18058
#
# Static dielectric constant tensor:
#      x y z
#    x 1.873640 0.000000 0.000000 
#    y 0.000000 1.801860 0.000000 
#    z 0.000000 0.000000 1.786930 
# 
# From -- ./inp_files/18773.got.cif
#   From: 2010.05.17/outbox.cif.g08.bks.cpg/sg60_10_cif.got.tgz:18773.got - 2010.06.03 14:59:27.
