data_PCOD9454519
_publ_section_title
;
Structure prediction by ZEFSAII (Michael W. Deem and Ramdas Pophale) SiO2 
 PCOD9454519
Probable space group: P B C N
;
_chemical_formula_sum "Si O2"
_cell_formula_units_Z 40
_cell_length_a 8.435028
_cell_length_b 24.214812
_cell_length_c 8.737697
_cell_angle_alpha 90.000000
_cell_angle_beta 90.000000
_cell_angle_gamma 90.000000
_cell_volume 1784.697481
_symmetry_space_group_name_H-M "P B C N"
_symmetry_group_IT_number 60
_symmetry_cell_setting 'orthorhombic'
loop_
_space_group_symop_operation_xyz
x,y,z
1/2-x,1/2-y,1/2+z
1/2+x,1/2-y,-z
-x,y,1/2-z
-x,-y,-z
1/2+x,1/2+y,1/2-z
1/2-x,1/2+y,z
x,-y,1/2+z
loop_
_atom_site_type_symbol
_atom_site_label
_atom_site_fract_x
_atom_site_fract_y
_atom_site_fract_z
Si Si1 0.805374 0.920374 0.748814
Si Si2 0.599924 0.785119 0.407065
Si Si3 0.319756 0.628493 0.747046
Si Si4 0.801069 0.675351 0.438812
Si Si5 0.674244 0.520155 0.944535
O O1 0.734559 0.861544 0.791442
O O2 0.756237 0.947324 0.588591
O O3 0.000000 0.915812 0.750000
O O4 0.752521 0.964762 0.876703
O O5 0.500000 0.776856 0.250000
O O6 0.721783 0.834113 0.370294
O O7 0.689929 0.728961 0.443235
O O8 0.478292 0.803498 0.537226
O O9 0.500000 0.648636 0.750000
O O10 0.326707 0.565355 0.690840
O O11 0.244545 0.638127 0.913188
O O12 0.500000 0.500000 0.000000
#
# Coordination Sequence:
#
# PCOD9454519 Si02
#       5
#     8   8   8   8   8
#     4  10  19  34  60  89 122 160 207 261 320 388
#     4  10  24  41  62  96 131 170 219 270 327 387
#     4  11  21  38  63  90 123 162 206 260 317 380
#     4  11  22  40  62  89 126 168 212 266 321 382
#     4  10  20  35  59  94 124 156 208 261 321 393
#
# _framework density 22.412761
#
# number of rings (size 3 to 8) (size 9 to 14) (size 15 to 20)
#    0.000    1.600    0.000    7.200    0.000    3.200 
#    0.000    6.000    0.000    2.400    0.000    0.000 
#    0.000    0.000    0.000    0.000    0.000    0.000 
#
# Total GULP energy -223723.044852 kJ/mol
# GULP energy per Si atom -5593.076121 kJ/mol
# Density = 2.236175 g / cm^3
# Si number density = 22.412761 Si / 1000 Ang^3
#
#
#
# Elastic Constant Matrix: (Units=GPa)
#
#
# Indices 1 2 3 4 5 6 
#
# 1 91.6956 62.8810 24.2111 0.0000 0.0000 0.0000
# 2 62.8810 162.1451 45.0544 0.0000 0.0000 0.0000
# 3 24.2111 45.0544 57.7718 0.0000 0.0000 0.0000
# 4 0.0000 0.0000 0.0000 1.3808 0.0000 0.0000
# 5 0.0000 0.0000 0.0000 0.0000 26.1475 0.0000
# 6 0.0000 0.0000 0.0000 0.0000 0.0000 17.4515
#
#
#
# Elastic Compliance Matrix: (Units=1/GPa)
#
#
# Indices 1 2 3 4 5 6 
#
# 1 0.015081 -0.005225 -0.002246 0.000000 0.000000 0.000000
# 2 -0.005225 0.009683 -0.005362 0.000000 0.000000 0.000000
# 3 -0.002246 -0.005362 0.022433 0.000000 0.000000 0.000000
# 4 0.000000 0.000000 0.000000 0.724242 0.000000 0.000000
# 5 0.000000 0.000000 0.000000 0.000000 0.038245 0.000000
# 6 0.000000 0.000000 0.000000 0.000000 0.000000 0.057302
#
#
# Mechanical properties :
#
#
# Convention : Reuss Voigt Hill
#
# Bulk Modulus (GPa) = 46.44257 63.98951 55.21604
# Shear Modulus (GPa) = 5.55661 20.96034 13.25848
#
# Velocity S-wave (km/s) = 1.57626 3.06142 2.43484
# Velocity P-wave (km/s) = 4.90706 6.41162 5.70912
#
# Compressibility (1/GPa) = 0.02153197
#
# Stress axis : x y z
#
# Youngs Moduli (GPa) = 66.30642 103.26884 44.57811
#
# Poissons Ratio (x) = 0.53955 0.10011
# Poissons Ratio (y) = 0.34643 0.23904
# Poissons Ratio (z) = 0.14891 0.55376
#
# Static dielectric constant tensor:
#      x y z
#    x 1.803200 0.000000 0.000000 
#    y 0.000000 1.795830 0.000000 
#    z 0.000000 0.000000 1.882250 
# 
# From -- ./inp_files/3827.got.cif
#   From: 2010.05.17/outbox.cif.g08.bks.cpg/sg60_2_cif.got.tgz:3827.got - 2010.06.03 14:59:27.
