data_PCOD9454237
_publ_section_title
;
Structure prediction by ZEFSAII (Michael W. Deem and Ramdas Pophale) SiO2 
 PCOD9454237
Probable space group: P B C N
;
_chemical_formula_sum "Si O2"
_cell_formula_units_Z 36
_cell_length_a 7.085225
_cell_length_b 12.803861
_cell_length_c 14.737629
_cell_angle_alpha 90.000000
_cell_angle_beta 90.000000
_cell_angle_gamma 90.000000
_cell_volume 1336.971706
_symmetry_space_group_name_H-M "P B C N"
_symmetry_group_IT_number 60
_symmetry_cell_setting 'orthorhombic'
loop_
_space_group_symop_operation_xyz
x,y,z
1/2-x,1/2-y,1/2+z
1/2+x,1/2-y,-z
-x,y,1/2-z
-x,-y,-z
1/2+x,1/2+y,1/2-z
1/2-x,1/2+y,z
x,-y,1/2+z
loop_
_atom_site_type_symbol
_atom_site_label
_atom_site_fract_x
_atom_site_fract_y
_atom_site_fract_z
Si Si1 0.962231 0.034982 0.896570
Si Si2 0.369596 0.760147 0.588991
Si Si3 0.000000 0.134817 0.250000
Si Si4 0.426412 0.207576 0.876558
Si Si5 0.028815 0.511803 0.107598
O O1 0.991443 0.158160 0.887383
O O2 0.741805 0.021665 0.875953
O O3 0.043806 0.950420 0.829207
O O4 0.000000 0.000000 0.000000
O O5 0.149380 0.745599 0.615777
O O6 0.358967 0.770790 0.478941
O O7 0.465826 0.865377 0.626981
O O8 0.143866 0.221300 0.294884
O O9 0.408061 0.084331 0.853886
O O10 0.000000 0.500000 0.000000
#
# Coordination Sequence:
#
# PCOD9454237 Si02
#       5
#     8   8   4   8   8
#     4  11  21  38  67  92 130 176 217 266 321 392
#     4  10  18  40  64  92 123 172 212 264 326 386
#     4  12  22  40  62 100 128 178 222 260 320 402
#     4  10  21  36  68  89 130 167 216 269 323 389
#     4   9  19  37  65  91 121 163 212 269 329 377
#
# _framework density 26.926524000000001
#
# number of rings (size 3 to 8) (size 9 to 14) (size 15 to 20)
#    0.000    1.778    4.444    0.000    0.000    0.000 
#    0.000   14.444    0.000    0.000    0.000    0.000 
#    0.000    0.000    0.000    0.000    0.000    0.000 
#
# Total GULP energy -200710.618773 kJ/mol
# GULP energy per Si atom -5575.294966 kJ/mol
# Density = 2.686524 g / cm^3
# Si number density = 26.926524 Si / 1000 Ang^3
#
#
#
# Elastic Constant Matrix: (Units=GPa)
#
#
# Indices 1 2 3 4 5 6 
#
# 1 56.9863 12.9271 5.9135 0.0000 0.0000 0.0000
# 2 12.9271 291.4834 61.3880 0.0000 0.0000 0.0000
# 3 5.9135 61.3880 143.6494 0.0000 0.0000 0.0000
# 4 0.0000 0.0000 0.0000 14.6683 0.0000 0.0000
# 5 0.0000 0.0000 0.0000 0.0000 17.8672 0.0000
# 6 0.0000 0.0000 0.0000 0.0000 0.0000 22.4900
#
#
#
# Elastic Compliance Matrix: (Units=1/GPa)
#
#
# Indices 1 2 3 4 5 6 
#
# 1 0.017751 -0.000696 -0.000433 0.000000 0.000000 0.000000
# 2 -0.000696 0.003797 -0.001594 0.000000 0.000000 0.000000
# 3 -0.000433 -0.001594 0.007660 0.000000 0.000000 0.000000
# 4 0.000000 0.000000 0.000000 0.068174 0.000000 0.000000
# 5 0.000000 0.000000 0.000000 0.000000 0.055969 0.000000
# 6 0.000000 0.000000 0.000000 0.000000 0.000000 0.044464
#
#
# Mechanical properties :
#
#
# Convention : Reuss Voigt Hill
#
# Bulk Modulus (GPa) = 42.08421 72.50847 57.29634
# Shear Modulus (GPa) = 23.67613 38.46446 31.07029
#
# Velocity S-wave (km/s) = 2.96849 3.78365 3.40058
# Velocity P-wave (km/s) = 5.23569 6.78783 6.06165
#
# Compressibility (1/GPa) = 0.02376188
#
# Stress axis : x y z
#
# Youngs Moduli (GPa) = 56.33510 263.34334 130.54024
#
# Poissons Ratio (x) = 0.18328 0.05657
# Poissons Ratio (y) = 0.03921 0.20810
# Poissons Ratio (z) = 0.02441 0.41980
#
# Static dielectric constant tensor:
#      x y z
#    x 2.115510 0.000000 0.000000 
#    y 0.000000 2.158280 0.000000 
#    z 0.000000 0.000000 2.283980 
# 
# From -- ./inp_files/14597.got.cif
#   From: 2010.05.17/outbox.cif.g08.bks.cpg/sg60_8_cif.got.tgz:14597.got - 2010.06.03 14:59:27.
