data_PCOD9454775
_publ_section_title
;
Structure prediction by ZEFSAII (Michael W. Deem and Ramdas Pophale) SiO2 
 PCOD9454775
Probable space group: P B C N
;
_chemical_formula_sum "Si O2"
_cell_formula_units_Z 60
_cell_length_a 12.565065
_cell_length_b 13.827300
_cell_length_c 18.073856
_cell_angle_alpha 90.000000
_cell_angle_beta 90.000000
_cell_angle_gamma 90.000000
_cell_volume 3140.168429
_symmetry_space_group_name_H-M "P B C N"
_symmetry_group_IT_number 60
_symmetry_cell_setting 'orthorhombic'
loop_
_space_group_symop_operation_xyz
x,y,z
1/2-x,1/2-y,1/2+z
1/2+x,1/2-y,-z
-x,y,1/2-z
-x,-y,-z
1/2+x,1/2+y,1/2-z
1/2-x,1/2+y,z
x,-y,1/2+z
loop_
_atom_site_type_symbol
_atom_site_label
_atom_site_fract_x
_atom_site_fract_y
_atom_site_fract_z
Si Si1 0.478448 0.625545 0.631019
Si Si2 0.569552 0.829432 0.680251
Si Si3 0.227287 0.874960 0.045902
Si Si4 0.185608 0.862491 0.820946
Si Si5 0.656484 0.792149 0.063144
Si Si6 0.000000 0.040456 0.250000
Si Si7 0.328363 0.538538 0.939880
Si Si8 0.958019 0.392077 0.508042
O O1 0.533043 0.718426 0.668452
O O2 0.356223 0.647490 0.610802
O O3 0.482231 0.532168 0.682457
O O4 0.559209 0.594608 0.564900
O O5 0.500000 0.868264 0.750000
O O6 0.693209 0.841559 0.700574
O O7 0.559794 0.872695 0.596186
O O8 0.210694 0.787763 0.988575
O O9 0.354188 0.883378 0.044219
O O10 0.186424 0.977970 0.014455
O O11 0.142536 0.766158 0.860991
O O12 0.104169 0.894425 0.758412
O O13 0.183182 0.954528 0.877569
O O14 0.734539 0.883622 0.070564
O O15 0.547972 0.821992 0.023789
O O16 0.000000 0.500000 0.500000
#
# Coordination Sequence:
#
# PCOD9454775 Si02
#       8
#     8   8   8   8   8   4   8   8
#     4  11  21  39  64  94 127 169 221 267 333 398
#     4  12  23  41  67  91 129 179 212 264 342 415
#     4  11  22  36  62  95 123 166 216 271 326 386
#     4  10  22  43  63  89 124 172 218 263 336 388
#     4  11  20  38  66  88 130 165 213 270 325 386
#     4  10  24  44  62  92 130 168 222 280 320 404
#     4  10  19  38  65  88 122 167 207 274 327 381
#     4  12  23  42  65  99 134 168 225 282 331 399
#
# _framework density 19.107254999999999
#
# number of rings (size 3 to 8) (size 9 to 14) (size 15 to 20)
#    0.000    1.067    7.333    0.400    0.000    1.067 
#    2.400    0.000    5.867    0.000    0.000    0.000 
#    0.000    0.000    0.000    0.000    0.000    0.000 
#
# Total GULP energy -334382.452567 kJ/mol
# GULP energy per Si atom -5573.040876 kJ/mol
# Density = 1.906377 g / cm^3
# Si number density = 19.107255 Si / 1000 Ang^3
#
#
#
# Elastic Constant Matrix: (Units=GPa)
#
#
# Indices 1 2 3 4 5 6 
#
# 1 149.9895 39.5119 33.0706 0.0000 0.0000 0.0000
# 2 39.5119 90.0946 14.0437 0.0000 0.0000 0.0000
# 3 33.0706 14.0437 36.7906 0.0000 0.0000 0.0000
# 4 0.0000 0.0000 0.0000 19.9027 0.0000 0.0000
# 5 0.0000 0.0000 0.0000 0.0000 27.0862 0.0000
# 6 0.0000 0.0000 0.0000 0.0000 0.0000 35.3402
#
#
#
# Elastic Compliance Matrix: (Units=1/GPa)
#
#
# Indices 1 2 3 4 5 6 
#
# 1 0.008950 -0.002840 -0.006961 0.000000 0.000000 0.000000
# 2 -0.002840 0.012703 -0.002296 0.000000 0.000000 0.000000
# 3 -0.006961 -0.002296 0.034315 0.000000 0.000000 0.000000
# 4 0.000000 0.000000 0.000000 0.050245 0.000000 0.000000
# 5 0.000000 0.000000 0.000000 0.000000 0.036919 0.000000
# 6 0.000000 0.000000 0.000000 0.000000 0.000000 0.028296
#
#
# Mechanical properties :
#
#
# Convention : Reuss Voigt Hill
#
# Bulk Modulus (GPa) = 31.47306 50.01412 40.74359
# Shear Modulus (GPa) = 24.24678 29.14905 26.69791
#
# Velocity S-wave (km/s) = 3.56614 3.91006 3.74206
# Velocity P-wave (km/s) = 5.78481 6.82767 6.32776
#
# Compressibility (1/GPa) = 0.03177321
#
# Stress axis : x y z
#
# Youngs Moduli (GPa) = 111.73051 78.72222 29.14219
#
# Poissons Ratio (x) = 0.22358 0.20286
# Poissons Ratio (y) = 0.31732 0.06691
# Poissons Ratio (z) = 0.77776 0.18075
#
# Static dielectric constant tensor:
#      x y z
#    x 1.697400 0.000000 0.000000 
#    y 0.000000 1.645970 0.000000 
#    z 0.000000 0.000000 1.713990 
# 
# From -- ./inp_files/22687.got.cif
#   From: 2010.05.17/outbox.cif.g08.bks.cpg/sg60_12_cif.got.tgz:22687.got - 2010.06.03 14:59:27.
