data_PCOD9454357
_publ_section_title
;
Structure prediction by ZEFSAII (Michael W. Deem and Ramdas Pophale) SiO2 
 PCOD9454357
Probable space group: P B C N
;
_chemical_formula_sum "Si O2"
_cell_formula_units_Z 64
_cell_length_a 11.309470
_cell_length_b 13.085202
_cell_length_c 22.709656
_cell_angle_alpha 90.000000
_cell_angle_beta 90.000000
_cell_angle_gamma 90.000000
_cell_volume 3360.727037
_symmetry_space_group_name_H-M "P B C N"
_symmetry_group_IT_number 60
_symmetry_cell_setting 'orthorhombic'
loop_
_space_group_symop_operation_xyz
x,y,z
1/2-x,1/2-y,1/2+z
1/2+x,1/2-y,-z
-x,y,1/2-z
-x,-y,-z
1/2+x,1/2+y,1/2-z
1/2-x,1/2+y,z
x,-y,1/2+z
loop_
_atom_site_type_symbol
_atom_site_label
_atom_site_fract_x
_atom_site_fract_y
_atom_site_fract_z
Si Si1 0.773563 0.244174 0.120863
Si Si2 0.648773 0.715266 0.415034
Si Si3 0.069819 0.092538 0.970485
Si Si4 0.686864 0.450682 0.146392
Si Si5 0.397040 0.927485 0.889285
Si Si6 0.925740 0.280533 0.917022
Si Si7 0.458358 0.868911 0.454386
Si Si8 0.476591 0.379838 0.817809
O O1 0.703527 0.330642 0.156896
O O2 0.691034 0.162169 0.088528
O O3 0.853924 0.302409 0.074437
O O4 0.864270 0.186100 0.162076
O O5 0.630060 0.652957 0.475917
O O6 0.787402 0.730599 0.404018
O O7 0.578306 0.821014 0.427153
O O8 0.581513 0.653349 0.362502
O O9 0.160354 0.044710 0.923810
O O10 0.987740 0.171902 0.933151
O O11 0.000000 0.000000 0.000000
O O12 0.811212 0.510503 0.156090
O O13 0.574136 0.505201 0.174806
O O14 0.506963 0.855304 0.870657
O O15 0.438096 0.015941 0.933514
O O16 0.945931 0.344201 0.977332
O O17 0.500000 0.359783 0.750000
#
# Coordination Sequence:
#
# PCOD9454357 Si02
#       8
#     8   8   8   8   8   8   8   8
#     4   9  18  36  59  80 106 145 192 241 278 342
#     4  10  21  36  53  82 123 151 190 240 293 354
#     4  11  21  34  55  86 120 160 191 235 294 356
#     4  10  19  37  62  83 111 148 198 238 292 347
#     4  10  19  32  55  80 109 149 192 231 275 343
#     4  11  22  32  51  83 122 153 190 231 290 345
#     4   9  20  33  50  80 113 156 186 223 282 343
#     4  10  21  39  63  83 109 151 199 241 297 352
#
# _framework density 19.043498
#
# number of rings (size 3 to 8) (size 9 to 14) (size 15 to 20)
#    0.000    2.000    2.500    1.875    3.500    1.000 
#    0.000    1.250    5.500    1.500    0.000    0.000 
#    0.000    0.000    0.000    0.000    0.000    0.000 
#
# Total GULP energy -356336.190989 kJ/mol
# GULP energy per Si atom -5567.752984 kJ/mol
# Density = 1.900015 g / cm^3
# Si number density = 19.043498 Si / 1000 Ang^3
#
#
#
# Elastic Constant Matrix: (Units=GPa)
#
#
# Indices 1 2 3 4 5 6 
#
# 1 123.6376 43.8335 15.9377 0.0000 0.0000 0.0000
# 2 43.8335 107.6492 -6.6333 0.0000 0.0000 0.0000
# 3 15.9377 -6.6333 45.4898 0.0000 0.0000 0.0000
# 4 0.0000 0.0000 0.0000 7.1296 0.0000 0.0000
# 5 0.0000 0.0000 0.0000 0.0000 5.0769 0.0000
# 6 0.0000 0.0000 0.0000 0.0000 0.0000 29.7035
#
#
#
# Elastic Compliance Matrix: (Units=1/GPa)
#
#
# Indices 1 2 3 4 5 6 
#
# 1 0.010195 -0.004411 -0.004215 0.000000 0.000000 0.000000
# 2 -0.004411 0.011282 0.003191 0.000000 0.000000 0.000000
# 3 -0.004215 0.003191 0.023925 0.000000 0.000000 0.000000
# 4 0.000000 0.000000 0.000000 0.140260 0.000000 0.000000
# 5 0.000000 0.000000 0.000000 0.000000 0.196971 0.000000
# 6 0.000000 0.000000 0.000000 0.000000 0.000000 0.033666
#
#
# Mechanical properties :
#
#
# Convention : Reuss Voigt Hill
#
# Bulk Modulus (GPa) = 28.95943 42.56140 35.76041
# Shear Modulus (GPa) = 11.39778 23.29125 17.34452
#
# Velocity S-wave (km/s) = 2.44911 3.50101 3.02119
# Velocity P-wave (km/s) = 4.82053 6.22422 5.56679
#
# Compressibility (1/GPa) = 0.03453106
#
# Stress axis : x y z
#
# Youngs Moduli (GPa) = 98.08291 88.63493 41.79718
#
# Poissons Ratio (x) = 0.39099 0.17619
# Poissons Ratio (y) = 0.43267 -0.13336
# Poissons Ratio (z) = 0.41345 -0.28281
#
# Static dielectric constant tensor:
#      x y z
#    x 1.728460 0.000000 0.000000 
#    y 0.000000 1.729280 0.000000 
#    z 0.000000 0.000000 1.693530 
# 
# From -- ./inp_files/24325.got.cif
#   From: 2010.05.17/outbox.cif.g08.bks.cpg/sg60_13_cif.got.tgz:24325.got - 2010.06.03 14:59:27.
