data_PCOD9454093
_publ_section_title
;
Structure prediction by ZEFSAII (Michael W. Deem and Ramdas Pophale) SiO2 
 PCOD9454093
Probable space group: P B C N
;
_chemical_formula_sum "Si O2"
_cell_formula_units_Z 48
_cell_length_a 7.689105
_cell_length_b 15.251454
_cell_length_c 19.195812
_cell_angle_alpha 90.000000
_cell_angle_beta 90.000000
_cell_angle_gamma 90.000000
_cell_volume 2251.093472
_symmetry_space_group_name_H-M "P B C N"
_symmetry_group_IT_number 60
_symmetry_cell_setting 'orthorhombic'
loop_
_space_group_symop_operation_xyz
x,y,z
1/2-x,1/2-y,1/2+z
1/2+x,1/2-y,-z
-x,y,1/2-z
-x,-y,-z
1/2+x,1/2+y,1/2-z
1/2-x,1/2+y,z
x,-y,1/2+z
loop_
_atom_site_type_symbol
_atom_site_label
_atom_site_fract_x
_atom_site_fract_y
_atom_site_fract_z
Si Si1 0.612139 0.084766 0.021120
Si Si2 0.423231 0.875409 0.644200
Si Si3 0.263472 0.937157 0.122698
Si Si4 0.294646 0.354437 0.267335
Si Si5 0.619036 0.485230 0.635957
Si Si6 0.274298 0.666452 0.273411
O O1 0.487091 0.149059 0.066070
O O2 0.767574 0.050379 0.071389
O O3 0.500000 0.000000 0.000000
O O4 0.686381 0.114961 0.946957
O O5 0.381253 0.977710 0.636481
O O6 0.267251 0.836647 0.690594
O O7 0.593884 0.860154 0.689589
O O8 0.068308 0.976464 0.114879
O O9 0.276923 0.882740 0.192923
O O10 0.500000 0.334727 0.250000
O O11 0.291009 0.434824 0.321433
O O12 0.198455 0.267437 0.292833
O O13 0.602090 0.404837 0.690688
#
# Coordination Sequence:
#
# PCOD9454093 Si02
#       6
#     8   8   8   8   8   8
#     4   9  19  35  59  82 112 159 192 227 291 355
#     4   9  17  32  59  76 113 146 191 224 283 341
#     4  10  19  34  59  87 117 149 189 241 295 338
#     4  10  19  32  58  87 113 145 192 240 290 343
#     4  10  20  34  62  84 117 148 191 246 292 337
#     4  10  18  34  59  83 111 152 189 233 289 341
#
# _framework density 21.322972
#
# number of rings (size 3 to 8) (size 9 to 14) (size 15 to 20)
#    0.000    2.333    3.333    0.500    0.000    0.000 
#    0.000    0.000   36.667    0.000    0.000    0.000 
#    0.000    0.000    0.000    0.000    0.000    0.000 
#
# Total GULP energy -267364.664747 kJ/mol
# GULP energy per Si atom -5570.097182 kJ/mol
# Density = 2.127444 g / cm^3
# Si number density = 21.322972 Si / 1000 Ang^3
#
#
#
# Elastic Constant Matrix: (Units=GPa)
#
#
# Indices 1 2 3 4 5 6 
#
# 1 53.0254 5.6926 13.3002 0.0000 0.0000 0.0000
# 2 5.6926 80.6033 29.4016 0.0000 0.0000 0.0000
# 3 13.3002 29.4016 109.7226 0.0000 0.0000 0.0000
# 4 0.0000 0.0000 0.0000 -39.5420 0.0000 0.0000
# 5 0.0000 0.0000 0.0000 0.0000 39.9005 0.0000
# 6 0.0000 0.0000 0.0000 0.0000 0.0000 0.5692
#
#
#
# Elastic Compliance Matrix: (Units=1/GPa)
#
#
# Indices 1 2 3 4 5 6 
#
# 1 0.019474 -0.000570 -0.002208 0.000000 0.000000 0.000000
# 2 -0.000570 0.013767 -0.003620 0.000000 0.000000 0.000000
# 3 -0.002208 -0.003620 0.010352 0.000000 0.000000 0.000000
# 4 0.000000 0.000000 0.000000 -0.025290 0.000000 0.000000
# 5 0.000000 0.000000 0.000000 0.000000 0.025062 0.000000
# 6 0.000000 0.000000 0.000000 0.000000 0.000000 1.756960
#
#
# Mechanical properties :
#
#
# Convention : Reuss Voigt Hill
#
# Bulk Modulus (GPa) = 32.47078 37.79334 35.13206
# Shear Modulus (GPa) = 2.74215 13.18266 7.96241
#
# Velocity S-wave (km/s) = 1.13525 2.48914 1.93450
# Velocity P-wave (km/s) = 4.12062 5.10135 4.63699
#
# Compressibility (1/GPa) = 0.03079692
#
# Stress axis : x y z
#
# Youngs Moduli (GPa) = 51.35094 72.63665 96.60397
#
# Poissons Ratio (x) = 0.04140 0.21328
# Poissons Ratio (y) = 0.02927 0.34971
# Poissons Ratio (z) = 0.11337 0.26294
#
# Static dielectric constant tensor:
#      x y z
#    x 1.839450 0.000000 0.000000 
#    y 0.000000 1.751340 0.000000 
#    z 0.000000 0.000000 1.828310 
# 
# From -- ./inp_files/19276.got.cif
#   From: 2010.05.17/outbox.cif.g08.bks.cpg/sg60_10_cif.got.tgz:19276.got - 2010.06.03 14:59:27.
