data_PCOD9454001
_publ_section_title
;
Structure prediction by ZEFSAII (Michael W. Deem and Ramdas Pophale) SiO2 
 PCOD9454001
Probable space group: P B C N
;
_chemical_formula_sum "Si O2"
_cell_formula_units_Z 52
_cell_length_a 15.425714
_cell_length_b 9.014409
_cell_length_c 18.585577
_cell_angle_alpha 90.000000
_cell_angle_beta 90.000000
_cell_angle_gamma 90.000000
_cell_volume 2584.393158
_symmetry_space_group_name_H-M "P B C N"
_symmetry_group_IT_number 60
_symmetry_cell_setting 'orthorhombic'
loop_
_space_group_symop_operation_xyz
x,y,z
1/2-x,1/2-y,1/2+z
1/2+x,1/2-y,-z
-x,y,1/2-z
-x,-y,-z
1/2+x,1/2+y,1/2-z
1/2-x,1/2+y,z
x,-y,1/2+z
loop_
_atom_site_type_symbol
_atom_site_label
_atom_site_fract_x
_atom_site_fract_y
_atom_site_fract_z
Si Si1 0.929051 0.433981 0.641979
Si Si2 0.429859 0.494386 0.631730
Si Si3 0.743326 0.610778 0.067258
Si Si4 0.517586 0.762329 0.971641
Si Si5 0.000000 0.805700 0.250000
Si Si6 0.582076 0.747326 0.125444
Si Si7 0.171253 0.841818 0.522175
O O1 0.834990 0.418537 0.605252
O O2 0.003593 0.397629 0.582826
O O3 0.945049 0.303555 0.698983
O O4 0.934457 0.602597 0.669202
O O5 0.448852 0.617128 0.570001
O O6 0.435314 0.589536 0.704412
O O7 0.509908 0.378385 0.637602
O O8 0.345198 0.407781 0.601935
O O9 0.678635 0.682968 0.125600
O O10 0.762271 0.711539 0.996516
O O11 0.697706 0.466359 0.035385
O O12 0.422933 0.718701 0.000471
O O13 0.573127 0.795608 0.041444
#
# Coordination Sequence:
#
# PCOD9454001 Si02
#       7
#     8   8   8   8   4   8   8
#     4  10  22  34  55  84 120 155 195 244 288 347
#     4  10  19  36  60  78 115 164 202 228 289 367
#     4  11  19  31  58  91 119 142 182 251 315 344
#     4   9  17  32  55  87 112 148 186 240 302 349
#     4  10  24  42  56  74 118 168 214 236 272 362
#     4  11  18  32  60  91 112 141 200 256 296 348
#     4  10  18  32  54  88 119 143 181 240 309 347
#
# _framework density 20.120777
#
# number of rings (size 3 to 8) (size 9 to 14) (size 15 to 20)
#    0.000    1.846    4.615    1.385    0.000    0.615 
#    0.000    0.000    6.769    0.000    0.000    0.000 
#    0.000    0.000    0.000    0.000    0.000    0.000 
#
# Total GULP energy -289816.403652 kJ/mol
# GULP energy per Si atom -5573.392378 kJ/mol
# Density = 2.007498 g / cm^3
# Si number density = 20.120777 Si / 1000 Ang^3
#
#
#
# Elastic Constant Matrix: (Units=GPa)
#
#
# Indices 1 2 3 4 5 6 
#
# 1 55.4949 12.0661 0.6440 0.0000 0.0000 0.0000
# 2 12.0661 82.0604 7.9399 0.0000 0.0000 0.0000
# 3 0.6440 7.9399 51.6306 0.0000 0.0000 0.0000
# 4 0.0000 0.0000 0.0000 15.0896 0.0000 0.0000
# 5 0.0000 0.0000 0.0000 0.0000 16.7758 0.0000
# 6 0.0000 0.0000 0.0000 0.0000 0.0000 2.5168
#
#
#
# Elastic Compliance Matrix: (Units=1/GPa)
#
#
# Indices 1 2 3 4 5 6 
#
# 1 0.018617 -0.002756 0.000192 0.000000 0.000000 0.000000
# 2 -0.002756 0.012778 -0.001931 0.000000 0.000000 0.000000
# 3 0.000192 -0.001931 0.019663 0.000000 0.000000 0.000000
# 4 0.000000 0.000000 0.000000 0.066271 0.000000 0.000000
# 5 0.000000 0.000000 0.000000 0.000000 0.059610 0.000000
# 6 0.000000 0.000000 0.000000 0.000000 0.000000 0.397328
#
#
# Mechanical properties :
#
#
# Convention : Reuss Voigt Hill
#
# Bulk Modulus (GPa) = 23.77123 25.60957 24.69040
# Shear Modulus (GPa) = 8.37129 18.11217 13.24173
#
# Velocity S-wave (km/s) = 2.04195 3.00354 2.56815
# Velocity P-wave (km/s) = 4.17125 4.97834 4.59256
#
# Compressibility (1/GPa) = 0.04206766
#
# Stress axis : x y z
#
# Youngs Moduli (GPa) = 53.71533 78.25839 50.85730
#
# Poissons Ratio (x) = 0.21567 -0.00974
# Poissons Ratio (y) = 0.14804 0.09819
# Poissons Ratio (z) = -0.01029 0.15109
#
# Static dielectric constant tensor:
#      x y z
#    x 1.692750 0.000000 0.000000 
#    y 0.000000 1.774960 0.000000 
#    z 0.000000 0.000000 1.749200 
# 
# From -- ./inp_files/24378.got.cif
#   From: 2010.05.17/outbox.cif.g08.bks.cpg/sg60_13_cif.got.tgz:24378.got - 2010.06.03 14:59:27.
