data_PCOD9454425
_publ_section_title
;
Structure prediction by ZEFSAII (Michael W. Deem and Ramdas Pophale) SiO2 
 PCOD9454425
Probable space group: P B C N
;
_chemical_formula_sum "Si O2"
_cell_formula_units_Z 52
_cell_length_a 13.451831
_cell_length_b 21.857397
_cell_length_c 7.839926
_cell_angle_alpha 90.000000
_cell_angle_beta 90.000000
_cell_angle_gamma 90.000000
_cell_volume 2305.110805
_symmetry_space_group_name_H-M "P B C N"
_symmetry_group_IT_number 60
_symmetry_cell_setting 'orthorhombic'
loop_
_space_group_symop_operation_xyz
x,y,z
1/2-x,1/2-y,1/2+z
1/2+x,1/2-y,-z
-x,y,1/2-z
-x,-y,-z
1/2+x,1/2+y,1/2-z
1/2-x,1/2+y,z
x,-y,1/2+z
loop_
_atom_site_type_symbol
_atom_site_label
_atom_site_fract_x
_atom_site_fract_y
_atom_site_fract_z
Si Si1 0.000000 0.306993 0.250000
Si Si2 0.790212 0.661808 0.896883
Si Si3 0.219133 0.786763 0.452773
Si Si4 0.008383 0.223376 0.551375
Si Si5 0.789575 0.040740 0.054425
Si Si6 0.783621 0.085262 0.441951
Si Si7 0.990324 0.092714 0.044430
O O1 0.093100 0.339295 0.158067
O O2 0.050065 0.268393 0.406790
O O3 0.731502 0.690412 0.738007
O O4 0.761695 0.714138 0.035542
O O5 0.761212 0.593707 0.945166
O O6 0.104709 0.785433 0.512767
O O7 0.262871 0.846786 0.549461
O O8 0.000000 0.243075 0.750000
O O9 0.052204 0.155799 0.533206
O O10 0.787158 0.063753 0.247641
O O11 0.907066 0.042416 0.001971
O O12 0.740772 0.974065 0.037922
O O13 0.896401 0.087705 0.517245
O O14 0.000000 0.098237 0.250000
#
# Coordination Sequence:
#
# PCOD9454425 Si02
#       7
#     4   8   8   8   8   8   8
#     4  10  24  40  56  84 126 156 212 262 320 352
#     4  11  23  39  61  87 123 160 203 266 308 369
#     4  10  22  36  58  88 115 155 205 245 307 370
#     4  10  19  33  57  85 119 161 199 246 309 370
#     4  11  21  35  59  84 124 165 203 246 307 374
#     4  10  21  37  56  88 124 161 202 246 307 372
#     4   9  18  32  55  87 127 162 196 244 299 375
#
# _framework density 22.558568000000001
#
# number of rings (size 3 to 8) (size 9 to 14) (size 15 to 20)
#    0.000    1.846    0.769    3.231    6.462    1.231 
#    0.000    0.769    0.000    3.692    0.000    0.000 
#    0.000    0.000    0.000    0.000    0.000    0.000 
#
# Total GULP energy -289683.214665 kJ/mol
# GULP energy per Si atom -5570.831051 kJ/mol
# Density = 2.250722 g / cm^3
# Si number density = 22.558568 Si / 1000 Ang^3
#
#
#
# Elastic Constant Matrix: (Units=GPa)
#
#
# Indices 1 2 3 4 5 6 
#
# 1 49.2599 19.4121 1.1033 0.0000 0.0000 0.0000
# 2 19.4121 110.1444 34.0990 0.0000 0.0000 0.0000
# 3 1.1033 34.0990 67.6185 0.0000 0.0000 0.0000
# 4 0.0000 0.0000 0.0000 33.2609 0.0000 0.0000
# 5 0.0000 0.0000 0.0000 0.0000 23.9603 0.0000
# 6 0.0000 0.0000 0.0000 0.0000 0.0000 29.6926
#
#
#
# Elastic Compliance Matrix: (Units=1/GPa)
#
#
# Indices 1 2 3 4 5 6 
#
# 1 0.022018 -0.004467 0.001893 0.000000 0.000000 0.000000
# 2 -0.004467 0.011665 -0.005809 0.000000 0.000000 0.000000
# 3 0.001893 -0.005809 0.017688 0.000000 0.000000 0.000000
# 4 0.000000 0.000000 0.000000 0.030065 0.000000 0.000000
# 5 0.000000 0.000000 0.000000 0.000000 0.041736 0.000000
# 6 0.000000 0.000000 0.000000 0.000000 0.000000 0.033678
#
#
# Mechanical properties :
#
#
# Convention : Reuss Voigt Hill
#
# Bulk Modulus (GPa) = 28.89776 37.36130 33.12953
# Shear Modulus (GPa) = 27.00500 28.87664 27.94082
#
# Velocity S-wave (km/s) = 3.46368 3.58169 3.52318
# Velocity P-wave (km/s) = 5.36973 5.80539 5.59180
#
# Compressibility (1/GPa) = 0.03460476
#
# Stress axis : x y z
#
# Youngs Moduli (GPa) = 45.41678 85.72848 56.53684
#
# Poissons Ratio (x) = 0.38292 -0.10704
# Poissons Ratio (y) = 0.20286 0.32845
# Poissons Ratio (z) = -0.08598 0.49804
#
# Static dielectric constant tensor:
#      x y z
#    x 2.009960 0.000000 0.000000 
#    y 0.000000 1.939690 0.000000 
#    z 0.000000 0.000000 1.899580 
# 
# From -- ./inp_files/6096.got.cif
#   From: 2010.05.17/outbox.cif.g08.bks.cpg/sg60_4_cif.got.tgz:6096.got - 2010.06.03 14:59:27.
