data_PCOD9454578
_publ_section_title
;
Structure prediction by ZEFSAII (Michael W. Deem and Ramdas Pophale) SiO2 
 PCOD9454578
Probable space group: P B C N
;
_chemical_formula_sum "Si O2"
_cell_formula_units_Z 52
_cell_length_a 14.154390
_cell_length_b 8.300330
_cell_length_c 21.137677
_cell_angle_alpha 90.000000
_cell_angle_beta 90.000000
_cell_angle_gamma 90.000000
_cell_volume 2483.383402
_symmetry_space_group_name_H-M "P B C N"
_symmetry_group_IT_number 60
_symmetry_cell_setting 'orthorhombic'
loop_
_space_group_symop_operation_xyz
x,y,z
1/2-x,1/2-y,1/2+z
1/2+x,1/2-y,-z
-x,y,1/2-z
-x,-y,-z
1/2+x,1/2+y,1/2-z
1/2-x,1/2+y,z
x,-y,1/2+z
loop_
_atom_site_type_symbol
_atom_site_label
_atom_site_fract_x
_atom_site_fract_y
_atom_site_fract_z
Si Si1 0.373298 0.926208 0.349459
Si Si2 0.884355 0.109557 0.545189
Si Si3 0.815710 0.763551 0.540204
Si Si4 0.000000 0.727829 0.750000
Si Si5 0.203243 0.275537 0.784970
Si Si6 0.343105 0.521291 0.208940
Si Si7 0.408776 0.410321 0.074398
O O1 0.372643 0.873597 0.422144
O O2 0.463153 0.877028 0.308351
O O3 0.349560 0.108783 0.333225
O O4 0.288751 0.814288 0.320838
O O5 0.795252 0.226903 0.543651
O O6 0.982152 0.145043 0.580823
O O7 0.843287 0.937380 0.570063
O O8 0.912019 0.066668 0.472353
O O9 0.850699 0.782845 0.468050
O O10 0.080407 0.843743 0.723431
O O11 0.143966 0.132502 0.754374
O O12 0.245330 0.392312 0.729949
O O13 0.356591 0.457995 0.138208
#
# Coordination Sequence:
#
# PCOD9454578 Si02
#       7
#     8   8   8   4   8   8   8
#     4  10  19  37  55  83 113 146 200 237 289 355
#     4   9  20  36  55  89 111 155 192 235 298 346
#     4  10  19  35  61  81 113 156 189 239 298 346
#     4  10  22  34  58  82 114 158 184 244 308 330
#     4   9  21  35  54  81 107 153 194 236 282 342
#     4  10  20  37  57  80 115 150 195 239 288 357
#     4   9  21  36  59  85 120 150 197 237 305 344
#
# _framework density 20.939174000000001
#
# number of rings (size 3 to 8) (size 9 to 14) (size 15 to 20)
#    0.923    1.538    0.000    1.846    2.154    3.077 
#    0.000    2.308    0.000    0.000    0.000    0.000 
#    0.000    0.000    0.000    0.000    0.000    0.000 
#
# Total GULP energy -289969.729997 kJ/mol
# GULP energy per Si atom -5576.340961 kJ/mol
# Density = 2.089152 g / cm^3
# Si number density = 20.939174 Si / 1000 Ang^3
#
#
#
# Elastic Constant Matrix: (Units=GPa)
#
#
# Indices 1 2 3 4 5 6 
#
# 1 82.7435 24.5950 5.7147 0.0000 0.0000 0.0000
# 2 24.5950 70.9391 -0.7198 0.0000 0.0000 0.0000
# 3 5.7147 -0.7198 60.7276 0.0000 0.0000 0.0000
# 4 0.0000 0.0000 0.0000 23.6609 0.0000 0.0000
# 5 0.0000 0.0000 0.0000 0.0000 17.7547 0.0000
# 6 0.0000 0.0000 0.0000 0.0000 0.0000 32.7911
#
#
#
# Elastic Compliance Matrix: (Units=1/GPa)
#
#
# Indices 1 2 3 4 5 6 
#
# 1 0.013581 -0.004722 -0.001334 0.000000 0.000000 0.000000
# 2 -0.004722 0.015740 0.000631 0.000000 0.000000 0.000000
# 3 -0.001334 0.000631 0.016600 0.000000 0.000000 0.000000
# 4 0.000000 0.000000 0.000000 0.042264 0.000000 0.000000
# 5 0.000000 0.000000 0.000000 0.000000 0.056323 0.000000
# 6 0.000000 0.000000 0.000000 0.000000 0.000000 0.030496
#
#
# Mechanical properties :
#
#
# Convention : Reuss Voigt Hill
#
# Bulk Modulus (GPa) = 28.51369 30.39889 29.45629
# Shear Modulus (GPa) = 25.31062 27.16269 26.23666
#
# Velocity S-wave (km/s) = 3.48051 3.60560 3.54361
# Velocity P-wave (km/s) = 5.45883 5.64651 5.55346
#
# Compressibility (1/GPa) = 0.03507088
#
# Stress axis : x y z
#
# Youngs Moduli (GPa) = 73.63039 63.53141 60.24098
#
# Poissons Ratio (x) = 0.30001 0.08036
# Poissons Ratio (y) = 0.34770 -0.03801
# Poissons Ratio (z) = 0.09822 -0.04008
#
# Static dielectric constant tensor:
#      x y z
#    x 1.781300 0.000000 0.000000 
#    y 0.000000 1.757080 0.000000 
#    z 0.000000 0.000000 1.792180 
# 
# From -- ./inp_files/24385.got.cif
#   From: 2010.05.17/outbox.cif.g08.bks.cpg/sg60_13_cif.got.tgz:24385.got - 2010.06.03 14:59:27.
