data_PCOD9454684
_publ_section_title
;
Structure prediction by ZEFSAII (Michael W. Deem and Ramdas Pophale) SiO2 
 PCOD9454684
Probable space group: P B C N
;
_chemical_formula_sum "Si O2"
_cell_formula_units_Z 48
_cell_length_a 29.751772
_cell_length_b 9.678212
_cell_length_c 8.710341
_cell_angle_alpha 90.000000
_cell_angle_beta 90.000000
_cell_angle_gamma 90.000000
_cell_volume 2508.090053
_symmetry_space_group_name_H-M "P B C N"
_symmetry_group_IT_number 60
_symmetry_cell_setting 'orthorhombic'
loop_
_space_group_symop_operation_xyz
x,y,z
1/2-x,1/2-y,1/2+z
1/2+x,1/2-y,-z
-x,y,1/2-z
-x,-y,-z
1/2+x,1/2+y,1/2-z
1/2-x,1/2+y,z
x,-y,1/2+z
loop_
_atom_site_type_symbol
_atom_site_label
_atom_site_fract_x
_atom_site_fract_y
_atom_site_fract_z
Si Si1 0.468063 0.076774 0.377418
Si Si2 0.090859 0.614490 0.652089
Si Si3 0.155062 0.151104 0.192206
Si Si4 0.830038 0.857309 0.166785
Si Si5 0.222304 0.356771 0.336393
Si Si6 0.827790 0.410201 0.850834
O O1 0.500000 0.149888 0.250000
O O2 0.435177 0.155151 0.495566
O O3 0.500000 0.000000 0.500000
O O4 0.439849 0.966820 0.275248
O O5 0.114458 0.745115 0.732213
O O6 0.130661 0.508510 0.603529
O O7 0.200260 0.225721 0.252103
O O8 0.152802 0.998553 0.258776
O O9 0.156363 0.147545 0.009351
O O10 0.775657 0.854614 0.170207
O O11 0.845234 0.722088 0.258742
O O12 0.201632 0.360326 0.506160
O O13 0.203648 0.494035 0.254473
#
# Coordination Sequence:
#
# PCOD9454684 Si02
#       6
#     8   8   8   8   8   8
#     4   9  18  33  60  90 109 130 163 216 274 333
#     4  10  19  37  55  85 115 133 175 225 277 339
#     4  11  24  35  53  78 112 154 190 239 285 318
#     4  12  22  36  51  77 110 156 205 234 274 328
#     4  11  21  36  52  76 108 150 203 251 278 310
#     4  11  22  35  57  78 109 153 188 239 288 318
#
# _framework density 19.138068000000001
#
# number of rings (size 3 to 8) (size 9 to 14) (size 15 to 20)
#    0.000    1.333    0.000    9.000    0.000    0.000 
#    0.000    0.000    0.000    0.000    0.000   73.500 
#    0.000    0.000    0.000    0.000    0.000    0.000 
#
# Total GULP energy -268131.236429 kJ/mol
# GULP energy per Si atom -5586.067426 kJ/mol
# Density = 1.909451 g / cm^3
# Si number density = 19.138068 Si / 1000 Ang^3
#
#
#
# Elastic Constant Matrix: (Units=GPa)
#
#
# Indices 1 2 3 4 5 6 
#
# 1 55.6297 -14.0923 -6.0157 0.0000 0.0000 0.0000
# 2 -14.0923 67.8196 -2.5336 0.0000 0.0000 0.0000
# 3 -6.0157 -2.5336 78.4451 0.0000 0.0000 0.0000
# 4 0.0000 0.0000 0.0000 98.6000 0.0000 0.0000
# 5 0.0000 0.0000 0.0000 0.0000 39.2027 0.0000
# 6 0.0000 0.0000 0.0000 0.0000 0.0000 11.4346
#
#
#
# Elastic Compliance Matrix: (Units=1/GPa)
#
#
# Indices 1 2 3 4 5 6 
#
# 1 0.019174 0.004044 0.001601 0.000000 0.000000 0.000000
# 2 0.004044 0.015616 0.000814 0.000000 0.000000 0.000000
# 3 0.001601 0.000814 0.012897 0.000000 0.000000 0.000000
# 4 0.000000 0.000000 0.000000 0.010142 0.000000 0.000000
# 5 0.000000 0.000000 0.000000 0.000000 0.025508 0.000000
# 6 0.000000 0.000000 0.000000 0.000000 0.000000 0.087454
#
#
# Mechanical properties :
#
#
# Convention : Reuss Voigt Hill
#
# Bulk Modulus (GPa) = 16.50034 17.40123 16.95079
# Shear Modulus (GPa) = 28.07834 44.81654 36.44744
#
# Velocity S-wave (km/s) = 3.83449 4.84441 4.36873
# Velocity P-wave (km/s) = 5.31459 6.35636 5.85868
#
# Compressibility (1/GPa) = 0.06060481
#
# Stress axis : x y z
#
# Youngs Moduli (GPa) = 52.15518 64.03803 77.53830
#
# Poissons Ratio (x) = -0.25896 -0.12414
# Poissons Ratio (y) = -0.21091 -0.06315
# Poissons Ratio (z) = -0.08350 -0.05216
#
# Static dielectric constant tensor:
#      x y z
#    x 1.703880 0.000000 0.000000 
#    y 0.000000 1.670340 0.000000 
#    z 0.000000 0.000000 1.679420 
# 
# From -- ./inp_files/8378.got.cif
#   From: 2010.05.17/outbox.cif.g08.bks.cpg/sg60_5_cif.got.tgz:8378.got - 2010.06.03 14:59:27.
