data_PCOD9454850
_publ_section_title
;
Structure prediction by ZEFSAII (Michael W. Deem and Ramdas Pophale) SiO2 
 PCOD9454850
Probable space group: P B C N
;
_chemical_formula_sum "Si O2"
_cell_formula_units_Z 56
_cell_length_a 15.391924
_cell_length_b 11.703082
_cell_length_c 13.576290
_cell_angle_alpha 90.000000
_cell_angle_beta 90.000000
_cell_angle_gamma 90.000000
_cell_volume 2445.537150
_symmetry_space_group_name_H-M "P B C N"
_symmetry_group_IT_number 60
_symmetry_cell_setting 'orthorhombic'
loop_
_space_group_symop_operation_xyz
x,y,z
1/2-x,1/2-y,1/2+z
1/2+x,1/2-y,-z
-x,y,1/2-z
-x,-y,-z
1/2+x,1/2+y,1/2-z
1/2-x,1/2+y,z
x,-y,1/2+z
loop_
_atom_site_type_symbol
_atom_site_label
_atom_site_fract_x
_atom_site_fract_y
_atom_site_fract_z
Si Si1 0.792091 0.859388 0.879338
Si Si2 0.960220 0.234838 0.953003
Si Si3 0.603691 0.092239 0.311099
Si Si4 0.598935 0.168538 0.768280
Si Si5 0.126953 0.749798 0.362381
Si Si6 0.590689 0.554313 0.786990
Si Si7 0.803062 0.279788 0.074445
O O1 0.704558 0.874836 0.817718
O O2 0.844713 0.748912 0.840337
O O3 0.750019 0.848993 0.989186
O O4 0.850611 0.966585 0.846894
O O5 0.935931 0.359116 0.912031
O O6 0.938432 0.150088 0.864319
O O7 0.887272 0.212022 0.034020
O O8 0.064229 0.230373 0.957208
O O9 0.580712 0.158793 0.209942
O O10 0.589194 0.958723 0.308383
O O11 0.500000 0.212143 0.750000
O O12 0.654251 0.157047 0.667190
O O13 0.132795 0.870390 0.301757
O O14 0.222099 0.705466 0.388455
O O15 0.500000 0.499926 0.750000
#
# Coordination Sequence:
#
# PCOD9454850 Si02
#       7
#     8   8   8   8   8   8   8
#     4  11  24  42  66  96 139 170 229 280 343 409
#     4   9  21  40  66  94 128 171 231 274 329 412
#     4  10  21  42  68  93 128 178 223 275 339 404
#     4  12  26  46  68 101 143 179 227 288 349 403
#     4  10  19  42  68  91 131 177 231 271 335 406
#     4   9  19  41  68  92 126 179 221 280 340 400
#     4  11  25  41  62 105 131 183 223 276 350 399
#
# _framework density 22.898854
#
# number of rings (size 3 to 8) (size 9 to 14) (size 15 to 20)
#    0.000    1.714    1.429    3.429    6.000    1.143 
#    5.143    5.000    0.000    0.000    0.000    0.000 
#    0.000    0.000    0.000    0.000    0.000    0.000 
#
# Total GULP energy -312009.569323 kJ/mol
# GULP energy per Si atom -5571.599452 kJ/mol
# Density = 2.284673 g / cm^3
# Si number density = 22.898854 Si / 1000 Ang^3
#
#
#
# Elastic Constant Matrix: (Units=GPa)
#
#
# Indices 1 2 3 4 5 6 
#
# 1 119.5521 4.0467 26.3022 0.0000 0.0000 0.0000
# 2 4.0467 78.5136 16.8739 0.0000 0.0000 0.0000
# 3 26.3022 16.8739 67.9980 0.0000 0.0000 0.0000
# 4 0.0000 0.0000 0.0000 1.5575 0.0000 0.0000
# 5 0.0000 0.0000 0.0000 0.0000 46.5917 0.0000
# 6 0.0000 0.0000 0.0000 0.0000 0.0000 45.3978
#
#
#
# Elastic Compliance Matrix: (Units=1/GPa)
#
#
# Indices 1 2 3 4 5 6 
#
# 1 0.009150 0.000305 -0.003615 0.000000 0.000000 0.000000
# 2 0.000305 0.013464 -0.003459 0.000000 0.000000 0.000000
# 3 -0.003615 -0.003459 0.016963 0.000000 0.000000 0.000000
# 4 0.000000 0.000000 0.000000 0.642067 0.000000 0.000000
# 5 0.000000 0.000000 0.000000 0.000000 0.021463 0.000000
# 6 0.000000 0.000000 0.000000 0.000000 0.000000 0.022027
#
#
# Mechanical properties :
#
#
# Convention : Reuss Voigt Hill
#
# Bulk Modulus (GPa) = 38.40372 40.05660 39.23016
# Shear Modulus (GPa) = 6.69029 33.29879 19.99454
#
# Velocity S-wave (km/s) = 1.71114 3.81749 2.95815
# Velocity P-wave (km/s) = 4.55098 6.07962 5.36998
#
# Compressibility (1/GPa) = 0.02603914
#
# Stress axis : x y z
#
# Youngs Moduli (GPa) = 109.29540 74.26999 58.95173
#
# Poissons Ratio (x) = -0.02268 0.21310
# Poissons Ratio (y) = -0.03337 0.20393
# Poissons Ratio (z) = 0.39509 0.25692
#
# Static dielectric constant tensor:
#      x y z
#    x 1.933830 0.000000 0.000000 
#    y 0.000000 1.810110 0.000000 
#    z 0.000000 0.000000 1.800150 
# 
# From -- ./inp_files/16856.got.cif
#   From: 2010.05.17/outbox.cif.g08.bks.cpg/sg60_9_cif.got.tgz:16856.got - 2010.06.03 14:59:27.
