data_PCOD9454668
_publ_section_title
;
Structure prediction by ZEFSAII (Michael W. Deem and Ramdas Pophale) SiO2 
 PCOD9454668
Probable space group: P B C N
;
_chemical_formula_sum "Si O2"
_cell_formula_units_Z 64
_cell_length_a 15.817725
_cell_length_b 22.977408
_cell_length_c 8.231099
_cell_angle_alpha 90.000000
_cell_angle_beta 90.000000
_cell_angle_gamma 90.000000
_cell_volume 2991.595573
_symmetry_space_group_name_H-M "P B C N"
_symmetry_group_IT_number 60
_symmetry_cell_setting 'orthorhombic'
loop_
_space_group_symop_operation_xyz
x,y,z
1/2-x,1/2-y,1/2+z
1/2+x,1/2-y,-z
-x,y,1/2-z
-x,-y,-z
1/2+x,1/2+y,1/2-z
1/2-x,1/2+y,z
x,-y,1/2+z
loop_
_atom_site_type_symbol
_atom_site_label
_atom_site_fract_x
_atom_site_fract_y
_atom_site_fract_z
Si Si1 0.425667 0.452589 0.862424
Si Si2 0.851874 0.435422 0.845404
Si Si3 0.167024 0.056715 0.041316
Si Si4 0.089936 0.458484 0.330538
Si Si5 0.965097 0.861487 0.069358
Si Si6 0.418157 0.766381 0.947060
Si Si7 0.396125 0.170857 0.758379
Si Si8 0.396387 0.192726 0.120130
O O1 0.500000 0.481614 0.750000
O O2 0.361694 0.430343 0.726137
O O3 0.376711 0.497754 0.976109
O O4 0.472571 0.401974 0.962122
O O5 0.766648 0.444401 0.948709
O O6 0.857612 0.483460 0.707380
O O7 0.864422 0.368295 0.805284
O O8 0.923046 0.448307 0.979253
O O9 0.125300 0.106522 0.932733
O O10 0.126706 0.397631 0.260332
O O11 0.000000 0.465475 0.250000
O O12 0.951700 0.796970 0.001613
O O13 0.000000 0.857168 0.250000
O O14 0.502661 0.804248 0.911768
O O15 0.376838 0.762448 0.766657
O O16 0.368438 0.795579 0.095645
O O17 0.500000 0.173870 0.750000
O O18 0.364782 0.196491 0.932597
#
# Coordination Sequence:
#
# PCOD9454668 Si02
#       8
#     8   8   8   8   8   8   8   8
#     4  10  21  38  63  92 120 164 202 257 310 386
#     4  11  23  36  59  87 129 165 204 257 324 388
#     4  11  22  39  60  90 133 159 198 257 330 384
#     4  10  21  35  56  91 115 164 214 256 300 371
#     4  11  21  38  65  93 113 155 216 254 311 380
#     4  10  19  36  63  85 115 158 209 266 300 357
#     4   8  17  32  52  81 120 146 197 260 300 342
#     4   9  19  34  55  85 114 155 206 248 308 354
#
# _framework density 21.393265
#
# number of rings (size 3 to 8) (size 9 to 14) (size 15 to 20)
#    0.000    2.000    1.250    4.500    3.500    4.500 
#    0.000    0.000    8.250    0.000    0.000    0.000 
#    0.000    0.000    0.000    0.000    0.000    0.000 
#
# Total GULP energy -356595.624851 kJ/mol
# GULP energy per Si atom -5571.806638 kJ/mol
# Density = 2.134457 g / cm^3
# Si number density = 21.393265 Si / 1000 Ang^3
#
#
#
# Elastic Constant Matrix: (Units=GPa)
#
#
# Indices 1 2 3 4 5 6 
#
# 1 14.5697 10.6312 -17.8411 0.0000 0.0000 0.0000
# 2 10.6312 101.1755 35.5926 0.0000 0.0000 0.0000
# 3 -17.8411 35.5926 69.7005 0.0000 0.0000 0.0000
# 4 0.0000 0.0000 0.0000 22.1540 0.0000 0.0000
# 5 0.0000 0.0000 0.0000 0.0000 15.5795 0.0000
# 6 0.0000 0.0000 0.0000 0.0000 0.0000 -44.6720
#
#
#
# Elastic Compliance Matrix: (Units=1/GPa)
#
#
# Indices 1 2 3 4 5 6 
#
# 1 0.188420 -0.044816 0.071115 0.000000 0.000000 0.000000
# 2 -0.044816 0.022708 -0.023067 0.000000 0.000000 0.000000
# 3 0.071115 -0.023067 0.044330 0.000000 0.000000 0.000000
# 4 0.000000 0.000000 0.000000 0.045139 0.000000 0.000000
# 5 0.000000 0.000000 0.000000 0.000000 0.064187 0.000000
# 6 0.000000 0.000000 0.000000 0.000000 0.000000 -0.022385
#
#
# Mechanical properties :
#
#
# Convention : Reuss Voigt Hill
#
# Bulk Modulus (GPa) = 3.81796 26.91234 15.36515
# Shear Modulus (GPa) = 11.81360 9.08317 10.44838
#
# Velocity S-wave (km/s) = 2.35247 2.06277 2.21237
# Velocity P-wave (km/s) = 3.02776 4.27557 3.70458
#
# Compressibility (1/GPa) = 0.26192027
#
# Stress axis : x y z
#
# Youngs Moduli (GPa) = 5.30730 44.03772 22.55830
#
# Poissons Ratio (x) = 1.97360 -1.60423
# Poissons Ratio (y) = 0.23785 0.52036
# Poissons Ratio (z) = -0.37743 1.01583
#
# Static dielectric constant tensor:
#      x y z
#    x 1.824300 0.000000 0.000000 
#    y 0.000000 1.800560 0.000000 
#    z 0.000000 0.000000 1.906460 
# 
# From -- ./inp_files/7041.got.cif
#   From: 2010.05.17/outbox.cif.g08.bks.cpg/sg60_4_cif.got.tgz:7041.got - 2010.06.03 14:59:27.
