data_PCOD9454099
_publ_section_title
;
Structure prediction by ZEFSAII (Michael W. Deem and Ramdas Pophale) SiO2 
 PCOD9454099
Probable space group: P B C N
;
_chemical_formula_sum "Si O2"
_cell_formula_units_Z 32
_cell_length_a 20.027101
_cell_length_b 14.337576
_cell_length_c 4.972669
_cell_angle_alpha 90.000000
_cell_angle_beta 90.000000
_cell_angle_gamma 90.000000
_cell_volume 1427.852588
_symmetry_space_group_name_H-M "P B C N"
_symmetry_group_IT_number 60
_symmetry_cell_setting 'orthorhombic'
loop_
_space_group_symop_operation_xyz
x,y,z
1/2-x,1/2-y,1/2+z
1/2+x,1/2-y,-z
-x,y,1/2-z
-x,-y,-z
1/2+x,1/2+y,1/2-z
1/2-x,1/2+y,z
x,-y,1/2+z
loop_
_atom_site_type_symbol
_atom_site_label
_atom_site_fract_x
_atom_site_fract_y
_atom_site_fract_z
Si Si1 0.823274 0.444072 0.299742
Si Si2 0.678881 0.620173 0.682727
Si Si3 0.356230 0.733043 0.287596
Si Si4 0.956760 0.107099 0.488498
O O1 0.843619 0.475146 0.594706
O O2 0.742771 0.435902 0.275809
O O3 0.849590 0.343049 0.217855
O O4 0.695663 0.685749 0.425367
O O5 0.613691 0.562427 0.586358
O O6 0.655113 0.686478 0.924790
O O7 0.426096 0.697689 0.162521
O O8 0.000000 0.130834 0.750000
O O9 0.000000 0.059228 0.250000
#
# Coordination Sequence:
#
# PCOD9454099 Si02
#       4
#     8   8   8   8
#     4  12  24  36  56  86 124 150 180 230 292 344
#     4  10  20  36  60  83 114 145 193 233 278 329
#     4  10  20  36  60  83 114 145 193 233 278 329
#     4  10  18  34  60  88 104 140 198 246 264 316
#
# _framework density 22.411280000000001
#
# number of rings (size 3 to 8) (size 9 to 14) (size 15 to 20)
#    1.500    0.000    2.500    4.500    0.000    0.000 
#    0.000    0.000    0.000    9.000    0.000    0.000 
#    0.000    0.000    0.000    0.000    0.000    0.000 
#
# Total GULP energy -178744.362077 kJ/mol
# GULP energy per Si atom -5585.761315 kJ/mol
# Density = 2.236027 g / cm^3
# Si number density = 22.411280 Si / 1000 Ang^3
#
#
#
# Elastic Constant Matrix: (Units=GPa)
#
#
# Indices 1 2 3 4 5 6 
#
# 1 61.3278 19.0624 18.8629 0.0000 0.0000 0.0000
# 2 19.0624 80.9642 18.6489 0.0000 0.0000 0.0000
# 3 18.8629 18.6489 111.2973 0.0000 0.0000 0.0000
# 4 0.0000 0.0000 0.0000 40.2168 0.0000 0.0000
# 5 0.0000 0.0000 0.0000 0.0000 18.2820 0.0000
# 6 0.0000 0.0000 0.0000 0.0000 0.0000 16.6080
#
#
#
# Elastic Compliance Matrix: (Units=1/GPa)
#
#
# Indices 1 2 3 4 5 6 
#
# 1 0.018221 -0.003722 -0.002464 0.000000 0.000000 0.000000
# 2 -0.003722 0.013607 -0.001649 0.000000 0.000000 0.000000
# 3 -0.002464 -0.001649 0.009679 0.000000 0.000000 0.000000
# 4 0.000000 0.000000 0.000000 0.024865 0.000000 0.000000
# 5 0.000000 0.000000 0.000000 0.000000 0.054699 0.000000
# 6 0.000000 0.000000 0.000000 0.000000 0.000000 0.060212
#
#
# Mechanical properties :
#
#
# Convention : Reuss Voigt Hill
#
# Bulk Modulus (GPa) = 38.70661 40.74862 39.72762
# Shear Modulus (GPa) = 24.32302 28.15570 26.23936
#
# Velocity S-wave (km/s) = 3.29797 3.54830 3.42542
# Velocity P-wave (km/s) = 5.64009 5.91684 5.78012
#
# Compressibility (1/GPa) = 0.02583538
#
# Stress axis : x y z
#
# Youngs Moduli (GPa) = 54.88226 73.48944 103.31705
#
# Poissons Ratio (x) = 0.27355 0.25461
# Poissons Ratio (y) = 0.20429 0.17039
# Poissons Ratio (z) = 0.13525 0.12120
#
# Static dielectric constant tensor:
#      x y z
#    x 1.901340 0.000000 0.000000 
#    y 0.000000 1.802240 0.000000 
#    z 0.000000 0.000000 1.864860 
# 
# From -- ./inp_files/2505.got.cif
#   From: 2010.05.17/outbox.cif.g08.bks.cpg/sg60_2_cif.got.tgz:2505.got - 2010.06.03 14:59:27.
