data_PCOD9454345
_publ_section_title
;
Structure prediction by ZEFSAII (Michael W. Deem and Ramdas Pophale) SiO2 
 PCOD9454345
Probable space group: P B C N
;
_chemical_formula_sum "Si O2"
_cell_formula_units_Z 40
_cell_length_a 7.912369
_cell_length_b 28.687466
_cell_length_c 9.117002
_cell_angle_alpha 90.000000
_cell_angle_beta 90.000000
_cell_angle_gamma 90.000000
_cell_volume 2069.430145
_symmetry_space_group_name_H-M "P B C N"
_symmetry_group_IT_number 60
_symmetry_cell_setting 'orthorhombic'
loop_
_space_group_symop_operation_xyz
x,y,z
1/2-x,1/2-y,1/2+z
1/2+x,1/2-y,-z
-x,y,1/2-z
-x,-y,-z
1/2+x,1/2+y,1/2-z
1/2-x,1/2+y,z
x,-y,1/2+z
loop_
_atom_site_type_symbol
_atom_site_label
_atom_site_fract_x
_atom_site_fract_y
_atom_site_fract_z
Si Si1 0.619523 0.141218 0.967458
Si Si2 0.043601 0.548204 0.923120
Si Si3 0.742303 0.194152 0.529153
Si Si4 0.301854 0.212116 0.295416
Si Si5 0.330519 0.390537 0.316718
O O1 0.562237 0.088774 0.004615
O O2 0.445014 0.170994 0.953001
O O3 0.717749 0.132087 0.815322
O O4 0.718388 0.168949 0.092991
O O5 0.230068 0.570888 0.910109
O O6 0.000000 0.544420 0.750000
O O7 0.000000 0.500000 0.000000
O O8 0.751141 0.240763 0.623458
O O9 0.784333 0.205528 0.361206
O O10 0.868881 0.154488 0.585114
O O11 0.500000 0.215270 0.250000
O O12 0.500000 0.410838 0.250000
#
# Coordination Sequence:
#
# PCOD9454345 Si02
#       5
#     8   8   8   8   8
#     4   9  20  38  55  78 111 145 185 228 275 329
#     4   9  19  36  61  84 108 145 183 224 277 334
#     4  10  19  32  53  77 107 147 185 227 274 328
#     4  10  20  33  52  79 108 146 189 230 272 325
#     4  10  20  37  56  80 111 143 180 229 277 326
#
# _framework density 19.328990999999998
#
# number of rings (size 3 to 8) (size 9 to 14) (size 15 to 20)
#    0.000    2.400    0.000    3.600    0.000    7.200 
#    0.000    9.000    0.000    0.000    0.000    0.000 
#    0.000    0.000    0.000    0.000    0.000    0.000 
#
# Total GULP energy -222894.693299 kJ/mol
# GULP energy per Si atom -5572.367332 kJ/mol
# Density = 1.928500 g / cm^3
# Si number density = 19.328991 Si / 1000 Ang^3
#
#
#
# Elastic Constant Matrix: (Units=GPa)
#
#
# Indices 1 2 3 4 5 6 
#
# 1 22.5141 33.9280 19.5778 0.0000 0.0000 0.0000
# 2 33.9280 184.3286 69.9800 0.0000 0.0000 0.0000
# 3 19.5778 69.9800 88.9728 0.0000 0.0000 0.0000
# 4 0.0000 0.0000 0.0000 33.1582 0.0000 0.0000
# 5 0.0000 0.0000 0.0000 0.0000 16.3174 0.0000
# 6 0.0000 0.0000 0.0000 0.0000 0.0000 8.5564
#
#
#
# Elastic Compliance Matrix: (Units=1/GPa)
#
#
# Indices 1 2 3 4 5 6 
#
# 1 0.064306 -0.009216 -0.006901 0.000000 0.000000 0.000000
# 2 -0.009216 0.009056 -0.005095 0.000000 0.000000 0.000000
# 3 -0.006901 -0.005095 0.016765 0.000000 0.000000 0.000000
# 4 0.000000 0.000000 0.000000 0.030158 0.000000 0.000000
# 5 0.000000 0.000000 0.000000 0.000000 0.061284 0.000000
# 6 0.000000 0.000000 0.000000 0.000000 0.000000 0.116872
#
#
# Mechanical properties :
#
#
# Convention : Reuss Voigt Hill
#
# Bulk Modulus (GPa) = 20.96311 60.30968 40.63639
# Shear Modulus (GPa) = 14.01478 23.09506 18.55492
#
# Velocity S-wave (km/s) = 2.69562 3.46040 3.10167
# Velocity P-wave (km/s) = 4.53404 6.87279 5.82206
#
# Compressibility (1/GPa) = 0.04770285
#
# Stress axis : x y z
#
# Youngs Moduli (GPa) = 15.55054 110.42861 59.64823
#
# Poissons Ratio (x) = 1.01776 0.41164
# Poissons Ratio (y) = 0.14332 0.30388
# Poissons Ratio (z) = 0.10732 0.56258
#
# Static dielectric constant tensor:
#      x y z
#    x 1.772650 0.000000 0.000000 
#    y 0.000000 1.647870 0.000000 
#    z 0.000000 0.000000 1.742910 
# 
# From -- ./inp_files/3818.got.cif
#   From: 2010.05.17/outbox.cif.g08.bks.cpg/sg60_2_cif.got.tgz:3818.got - 2010.06.03 14:59:27.
