data_PCOD9454169
_publ_section_title
;
Structure prediction by ZEFSAII (Michael W. Deem and Ramdas Pophale) SiO2 
 PCOD9454169
Probable space group: P B C N
;
_chemical_formula_sum "Si O2"
_cell_formula_units_Z 56
_cell_length_a 16.130454
_cell_length_b 8.926420
_cell_length_c 17.999297
_cell_angle_alpha 90.000000
_cell_angle_beta 90.000000
_cell_angle_gamma 90.000000
_cell_volume 2591.668506
_symmetry_space_group_name_H-M "P B C N"
_symmetry_group_IT_number 60
_symmetry_cell_setting 'orthorhombic'
loop_
_space_group_symop_operation_xyz
x,y,z
1/2-x,1/2-y,1/2+z
1/2+x,1/2-y,-z
-x,y,1/2-z
-x,-y,-z
1/2+x,1/2+y,1/2-z
1/2-x,1/2+y,z
x,-y,1/2+z
loop_
_atom_site_type_symbol
_atom_site_label
_atom_site_fract_x
_atom_site_fract_y
_atom_site_fract_z
Si Si1 0.758745 0.513095 0.421865
Si Si2 0.410937 0.078008 0.502706
Si Si3 0.184649 0.395055 0.374033
Si Si4 0.836825 0.053531 0.076439
Si Si5 0.409825 0.112595 0.276186
Si Si6 0.467639 0.331304 0.409808
Si Si7 0.844501 0.209295 0.864024
O O1 0.850690 0.439211 0.427527
O O2 0.702117 0.472645 0.494052
O O3 0.704642 0.445353 0.355422
O O4 0.783175 0.685760 0.412680
O O5 0.429583 0.247262 0.481039
O O6 0.500000 0.000000 0.500000
O O7 0.358516 0.989821 0.440366
O O8 0.174498 0.221667 0.394161
O O9 0.280291 0.441744 0.374725
O O10 0.141033 0.468795 0.303340
O O11 0.930542 0.996939 0.085956
O O12 0.500000 0.060037 0.250000
O O13 0.431085 0.232278 0.341556
O O14 0.363921 0.201958 0.211051
O O15 0.566466 0.316955 0.403288
#
# Coordination Sequence:
#
# PCOD9454169 Si02
#       7
#     8   8   8   8   8   8   8
#     4  11  22  38  58  92 127 159 205 258 329 380
#     4  10  18  36  62  85 122 163 207 255 320 378
#     4  10  21  38  64  89 120 167 211 267 307 376
#     4  11  22  39  64  94 124 159 220 265 314 388
#     4   9  21  42  64  88 123 169 219 255 317 380
#     4  10  21  40  63  87 121 167 208 264 315 377
#     4  11  23  40  58  88 129 165 200 261 318 381
#
# _framework density 21.607703000000001
#
# number of rings (size 3 to 8) (size 9 to 14) (size 15 to 20)
#    0.000    1.714    1.429    5.143    0.000    2.857 
#    2.571    2.143    0.000    0.000    0.000    0.000 
#    0.000    0.000    0.000    0.000    0.000    0.000 
#
# Total GULP energy -312505.177211 kJ/mol
# GULP energy per Si atom -5580.449593 kJ/mol
# Density = 2.155852 g / cm^3
# Si number density = 21.607703 Si / 1000 Ang^3
#
#
#
# Elastic Constant Matrix: (Units=GPa)
#
#
# Indices 1 2 3 4 5 6 
#
# 1 100.1847 58.7216 16.5364 0.0000 0.0000 0.0000
# 2 58.7216 121.9562 10.7990 0.0000 0.0000 0.0000
# 3 16.5364 10.7990 27.5231 0.0000 0.0000 0.0000
# 4 0.0000 0.0000 0.0000 16.0863 0.0000 0.0000
# 5 0.0000 0.0000 0.0000 0.0000 30.7132 0.0000
# 6 0.0000 0.0000 0.0000 0.0000 0.0000 39.5337
#
#
#
# Elastic Compliance Matrix: (Units=1/GPa)
#
#
# Indices 1 2 3 4 5 6 
#
# 1 0.014909 -0.006615 -0.006362 0.000000 0.000000 0.000000
# 2 -0.006615 0.011430 -0.000510 0.000000 0.000000 0.000000
# 3 -0.006362 -0.000510 0.040356 0.000000 0.000000 0.000000
# 4 0.000000 0.000000 0.000000 0.062165 0.000000 0.000000
# 5 0.000000 0.000000 0.000000 0.000000 0.032559 0.000000
# 6 0.000000 0.000000 0.000000 0.000000 0.000000 0.025295
#
#
# Mechanical properties :
#
#
# Convention : Reuss Voigt Hill
#
# Bulk Modulus (GPa) = 25.17632 46.86424 36.02028
# Shear Modulus (GPa) = 22.03333 28.17378 25.10356
#
# Velocity S-wave (km/s) = 3.19674 3.61484 3.41220
# Velocity P-wave (km/s) = 5.03014 6.25768 5.67718
#
# Compressibility (1/GPa) = 0.03971987
#
# Stress axis : x y z
#
# Youngs Moduli (GPa) = 67.07269 87.48812 24.77964
#
# Poissons Ratio (x) = 0.57877 0.15765
# Poissons Ratio (y) = 0.44371 0.01264
# Poissons Ratio (z) = 0.42672 0.04463
#
# Static dielectric constant tensor:
#      x y z
#    x 1.824210 0.000000 0.000000 
#    y 0.000000 1.790490 0.000000 
#    z 0.000000 0.000000 1.901060 
# 
# From -- ./inp_files/22935.got.cif
#   From: 2010.05.17/outbox.cif.g08.bks.cpg/sg60_12_cif.got.tgz:22935.got - 2010.06.03 14:59:27.
