data_PCOD9454717
_publ_section_title
;
Structure prediction by ZEFSAII (Michael W. Deem and Ramdas Pophale) SiO2 
 PCOD9454717
Probable space group: P B C N
;
_chemical_formula_sum "Si O2"
_cell_formula_units_Z 64
_cell_length_a 7.202919
_cell_length_b 16.417685
_cell_length_c 21.289384
_cell_angle_alpha 90.000000
_cell_angle_beta 90.000000
_cell_angle_gamma 90.000000
_cell_volume 2517.581538
_symmetry_space_group_name_H-M "P B C N"
_symmetry_group_IT_number 60
_symmetry_cell_setting 'orthorhombic'
loop_
_space_group_symop_operation_xyz
x,y,z
1/2-x,1/2-y,1/2+z
1/2+x,1/2-y,-z
-x,y,1/2-z
-x,-y,-z
1/2+x,1/2+y,1/2-z
1/2-x,1/2+y,z
x,-y,1/2+z
loop_
_atom_site_type_symbol
_atom_site_label
_atom_site_fract_x
_atom_site_fract_y
_atom_site_fract_z
Si Si1 0.201401 0.003157 0.373375
Si Si2 0.849733 0.208892 0.883086
Si Si3 0.280071 0.202294 0.237113
Si Si4 0.291793 0.459783 0.097873
Si Si5 0.761527 0.842977 0.083101
Si Si6 0.628416 0.321700 0.626578
Si Si7 0.245052 0.130438 0.060212
Si Si8 0.784211 0.513113 0.266411
O O1 0.329336 0.926898 0.392349
O O2 0.010950 0.982439 0.410443
O O3 0.256211 0.097365 0.383994
O O4 0.174636 0.998080 0.298129
O O5 0.747909 0.232997 0.818336
O O6 0.756959 0.133789 0.920826
O O7 0.872724 0.293462 0.920398
O O8 0.058586 0.176088 0.873509
O O9 0.500000 0.210920 0.250000
O O10 0.163292 0.205451 0.301370
O O11 0.257971 0.108180 0.216623
O O12 0.187691 0.537509 0.068832
O O13 0.262923 0.461717 0.172825
O O14 0.650747 0.759611 0.086953
O O15 0.813636 0.856732 0.011174
O O16 0.431183 0.355966 0.605398
O O17 0.000000 0.501752 0.250000
#
# Coordination Sequence:
#
# PCOD9454717 Si02
#       8
#     8   8   8   8   8   8   8   8
#     4   9  22  38  62  91 119 164 210 252 310 372
#     4  11  23  39  65  90 119 169 207 254 316 371
#     4  10  19  37  63  90 122 157 205 252 312 381
#     4  10  22  39  61  88 122 164 207 253 308 373
#     4  11  23  41  66  88 124 170 213 252 307 393
#     4  10  22  39  62  93 124 163 204 268 313 359
#     4  11  24  42  60  93 129 160 213 262 312 364
#     4  10  20  36  61  91 127 153 197 261 319 368
#
# _framework density 25.421222
#
# number of rings (size 3 to 8) (size 9 to 14) (size 15 to 20)
#    0.000    1.750    2.500    1.125    1.750    7.000 
#    0.000    0.000    0.000    3.750    0.000    0.000 
#    0.000    0.000    0.000    0.000    0.000    0.000 
#
# Total GULP energy -357422.988349 kJ/mol
# GULP energy per Si atom -5584.734193 kJ/mol
# Density = 2.536336 g / cm^3
# Si number density = 25.421222 Si / 1000 Ang^3
#
#
#
# Elastic Constant Matrix: (Units=GPa)
#
#
# Indices 1 2 3 4 5 6 
#
# 1 40.2734 20.7399 16.0327 0.0000 0.0000 0.0000
# 2 20.7399 210.8908 39.9717 0.0000 0.0000 0.0000
# 3 16.0327 39.9717 92.8955 0.0000 0.0000 0.0000
# 4 0.0000 0.0000 0.0000 27.7734 0.0000 0.0000
# 5 0.0000 0.0000 0.0000 0.0000 8.5849 0.0000
# 6 0.0000 0.0000 0.0000 0.0000 0.0000 29.5338
#
#
#
# Elastic Compliance Matrix: (Units=1/GPa)
#
#
# Indices 1 2 3 4 5 6 
#
# 1 0.027384 -0.001957 -0.003884 0.000000 0.000000 0.000000
# 2 -0.001957 0.005303 -0.001944 0.000000 0.000000 0.000000
# 3 -0.003884 -0.001944 0.012272 0.000000 0.000000 0.000000
# 4 0.000000 0.000000 0.000000 0.036006 0.000000 0.000000
# 5 0.000000 0.000000 0.000000 0.000000 0.116483 0.000000
# 6 0.000000 0.000000 0.000000 0.000000 0.000000 0.033860
#
#
# Mechanical properties :
#
#
# Convention : Reuss Voigt Hill
#
# Bulk Modulus (GPa) = 34.02683 55.28315 44.65499
# Shear Modulus (GPa) = 19.48004 30.99946 25.23975
#
# Velocity S-wave (km/s) = 2.77120 3.49583 3.15439
# Velocity P-wave (km/s) = 4.86350 6.17158 5.55617
#
# Compressibility (1/GPa) = 0.02938857
#
# Stress axis : x y z
#
# Youngs Moduli (GPa) = 36.51725 188.58360 81.48900
#
# Poissons Ratio (x) = 0.36904 0.31652
# Poissons Ratio (y) = 0.07146 0.15841
# Poissons Ratio (z) = 0.14184 0.36660
#
# Static dielectric constant tensor:
#      x y z
#    x 2.144090 0.000000 0.000000 
#    y 0.000000 2.141270 0.000000 
#    z 0.000000 0.000000 1.955720 
# 
# From -- ./inp_files/24092.got.cif
#   From: 2010.05.17/outbox.cif.g08.bks.cpg/sg60_13_cif.got.tgz:24092.got - 2010.06.03 14:59:27.
