data_PCOD9454144
_publ_section_title
;
Structure prediction by ZEFSAII (Michael W. Deem and Ramdas Pophale) SiO2 
 PCOD9454144
Probable space group: P B C N
;
_chemical_formula_sum "Si O2"
_cell_formula_units_Z 44
_cell_length_a 25.282066
_cell_length_b 5.526253
_cell_length_c 12.941561
_cell_angle_alpha 90.000000
_cell_angle_beta 90.000000
_cell_angle_gamma 90.000000
_cell_volume 1808.131400
_symmetry_space_group_name_H-M "P B C N"
_symmetry_group_IT_number 60
_symmetry_cell_setting 'orthorhombic'
loop_
_space_group_symop_operation_xyz
x,y,z
1/2-x,1/2-y,1/2+z
1/2+x,1/2-y,-z
-x,y,1/2-z
-x,-y,-z
1/2+x,1/2+y,1/2-z
1/2-x,1/2+y,z
x,-y,1/2+z
loop_
_atom_site_type_symbol
_atom_site_label
_atom_site_fract_x
_atom_site_fract_y
_atom_site_fract_z
Si Si1 0.718786 0.116901 0.708331
Si Si2 0.371486 0.379318 0.158997
Si Si3 0.578807 0.128014 0.914283
Si Si4 0.000000 0.411866 0.250000
Si Si5 0.108734 0.394592 0.848844
Si Si6 0.743785 0.625769 0.935329
O O1 0.745801 0.376443 0.687327
O O2 0.659908 0.071226 0.662264
O O3 0.717267 0.118111 0.835871
O O4 0.390748 0.646605 0.135629
O O5 0.372551 0.335415 0.281822
O O6 0.313781 0.362770 0.112627
O O7 0.403348 0.150426 0.109490
O O8 0.521417 0.180715 0.862239
O O9 0.590717 0.155143 0.035418
O O10 0.055211 0.523918 0.290230
O O11 0.751690 0.874775 0.994088
#
# Coordination Sequence:
#
# PCOD9454144 Si02
#       6
#     8   8   8   4   8   8
#     4  10  21  37  70 101 139 193 225 288 366 421
#     4  11  24  44  72 103 146 188 233 296 368 429
#     4  11  27  46  72 112 138 189 247 303 360 438
#     4  10  26  48  80 106 140 200 242 310 370 422
#     4  11  24  49  76 105 152 187 248 304 369 434
#     4  10  18  35  66  96 136 190 225 278 355 417
#
# _framework density 24.334513999999999
#
# number of rings (size 3 to 8) (size 9 to 14) (size 15 to 20)
#    0.000    1.455    3.636    1.636    7.636    7.273 
#    0.000   10.909    0.000    0.000    0.000    0.000 
#    0.000    0.000    0.000    0.000    0.000    0.000 
#
# Total GULP energy -245297.793909 kJ/mol
# GULP energy per Si atom -5574.949862 kJ/mol
# Density = 2.427913 g / cm^3
# Si number density = 24.334514 Si / 1000 Ang^3
#
#
#
# Elastic Constant Matrix: (Units=GPa)
#
#
# Indices 1 2 3 4 5 6 
#
# 1 138.9036 49.8998 9.0639 0.0000 0.0000 0.0000
# 2 49.8998 156.2660 47.8851 0.0000 0.0000 0.0000
# 3 9.0639 47.8851 97.1031 0.0000 0.0000 0.0000
# 4 0.0000 0.0000 0.0000 30.5311 0.0000 0.0000
# 5 0.0000 0.0000 0.0000 0.0000 -31.0677 0.0000
# 6 0.0000 0.0000 0.0000 0.0000 0.0000 35.6248
#
#
#
# Elastic Compliance Matrix: (Units=1/GPa)
#
#
# Indices 1 2 3 4 5 6 
#
# 1 0.008163 -0.002796 0.000617 0.000000 0.000000 0.000000
# 2 -0.002796 0.008496 -0.003929 0.000000 0.000000 0.000000
# 3 0.000617 -0.003929 0.012178 0.000000 0.000000 0.000000
# 4 0.000000 0.000000 0.000000 0.032753 0.000000 0.000000
# 5 0.000000 0.000000 0.000000 0.000000 -0.032188 0.000000
# 6 0.000000 0.000000 0.000000 0.000000 0.000000 0.028070
#
#
# Mechanical properties :
#
#
# Convention : Reuss Voigt Hill
#
# Bulk Modulus (GPa) = 60.16139 67.33001 63.74570
# Shear Modulus (GPa) = 66.46315 26.04592 46.25454
#
# Velocity S-wave (km/s) = 5.23179 3.27514 4.36452
# Velocity P-wave (km/s) = 7.82763 6.48310 7.18688
#
# Compressibility (1/GPa) = 0.01662196
#
# Stress axis : x y z
#
# Youngs Moduli (GPa) = 122.49890 117.70266 82.11423
#
# Poissons Ratio (x) = 0.32907 -0.05064
# Poissons Ratio (y) = 0.34247 0.32260
# Poissons Ratio (z) = -0.07554 0.46242
#
# Static dielectric constant tensor:
#      x y z
#    x 1.970280 0.000000 0.000000 
#    y 0.000000 2.008140 0.000000 
#    z 0.000000 0.000000 2.052440 
# 
# From -- ./inp_files/18018.got.cif
#   From: 2010.05.17/outbox.cif.g08.bks.cpg/sg60_10_cif.got.tgz:18018.got - 2010.06.03 14:59:27.
