data_PCOD9454052
_publ_section_title
;
Structure prediction by ZEFSAII (Michael W. Deem and Ramdas Pophale) SiO2 
 PCOD9454052
Probable space group: P B C N
;
_chemical_formula_sum "Si O2"
_cell_formula_units_Z 36
_cell_length_a 7.900945
_cell_length_b 9.235456
_cell_length_c 19.370315
_cell_angle_alpha 90.000000
_cell_angle_beta 90.000000
_cell_angle_gamma 90.000000
_cell_volume 1413.429220
_symmetry_space_group_name_H-M "P B C N"
_symmetry_group_IT_number 60
_symmetry_cell_setting 'orthorhombic'
loop_
_space_group_symop_operation_xyz
x,y,z
1/2-x,1/2-y,1/2+z
1/2+x,1/2-y,-z
-x,y,1/2-z
-x,-y,-z
1/2+x,1/2+y,1/2-z
1/2-x,1/2+y,z
x,-y,1/2+z
loop_
_atom_site_type_symbol
_atom_site_label
_atom_site_fract_x
_atom_site_fract_y
_atom_site_fract_z
Si Si1 0.837993 0.197946 0.538707
Si Si2 0.016455 0.418688 0.632258
Si Si3 0.364909 0.512402 0.343882
Si Si4 0.037108 0.740664 0.602746
Si Si5 0.500000 0.267688 0.250000
O O1 0.963661 0.325728 0.565077
O O2 0.891054 0.052144 0.578387
O O3 0.650352 0.225560 0.567989
O O4 0.843568 0.195451 0.456577
O O5 0.828123 0.441554 0.664022
O O6 0.091247 0.577366 0.620686
O O7 0.100755 0.323432 0.691928
O O8 0.496480 0.643767 0.337680
O O9 0.388480 0.376650 0.294773
#
# Coordination Sequence:
#
# PCOD9454052 Si02
#       5
#     8   8   8   8   4
#     4   9  18  33  54  80 112 142 177 225 277 331
#     4   9  19  35  55  77 107 148 185 226 279 327
#     4   9  19  35  55  77 107 148 185 226 279 327
#     4  10  18  33  56  82 111 145 181 222 279 338
#     4  10  20  38  56  74 106 148 192 228 268 326
#
# _framework density 25.469971000000001
#
# number of rings (size 3 to 8) (size 9 to 14) (size 15 to 20)
#    0.000    2.667    0.000    2.667    0.000    0.889 
#    0.000    8.889    0.000    0.000    0.000    0.000 
#    0.000    0.000    0.000    0.000    0.000    0.000 
#
# Total GULP energy -201214.219302 kJ/mol
# GULP energy per Si atom -5589.283870 kJ/mol
# Density = 2.541200 g / cm^3
# Si number density = 25.469971 Si / 1000 Ang^3
#
#
#
# Elastic Constant Matrix: (Units=GPa)
#
#
# Indices 1 2 3 4 5 6 
#
# 1 59.4471 8.1522 -3.5336 0.0000 0.0000 0.0000
# 2 8.1522 123.4849 13.9501 0.0000 0.0000 0.0000
# 3 -3.5336 13.9501 71.9945 0.0000 0.0000 0.0000
# 4 0.0000 0.0000 0.0000 24.1972 0.0000 0.0000
# 5 0.0000 0.0000 0.0000 0.0000 4.4223 0.0000
# 6 0.0000 0.0000 0.0000 0.0000 0.0000 20.5345
#
#
#
# Elastic Compliance Matrix: (Units=1/GPa)
#
#
# Indices 1 2 3 4 5 6 
#
# 1 0.017057 -0.001248 0.001079 0.000000 0.000000 0.000000
# 2 -0.001248 0.008371 -0.001683 0.000000 0.000000 0.000000
# 3 0.001079 -0.001683 0.014269 0.000000 0.000000 0.000000
# 4 0.000000 0.000000 0.000000 0.041327 0.000000 0.000000
# 5 0.000000 0.000000 0.000000 0.000000 0.226128 0.000000
# 6 0.000000 0.000000 0.000000 0.000000 0.000000 0.048699
#
#
# Mechanical properties :
#
#
# Convention : Reuss Voigt Hill
#
# Bulk Modulus (GPa) = 27.78368 32.45155 30.11761
# Shear Modulus (GPa) = 13.45707 25.58798 19.52252
#
# Velocity S-wave (km/s) = 2.30108 3.17303 2.77156
# Velocity P-wave (km/s) = 4.24170 5.11790 4.70027
#
# Compressibility (1/GPa) = 0.03599235
#
# Stress axis : x y z
#
# Youngs Moduli (GPa) = 58.62712 119.46436 70.08172
#
# Poissons Ratio (x) = 0.14909 -0.07562
# Poissons Ratio (y) = 0.07316 0.11796
# Poissons Ratio (z) = -0.06326 0.20108
#
# Static dielectric constant tensor:
#      x y z
#    x 2.012190 0.000000 0.000000 
#    y 0.000000 2.033150 0.000000 
#    z 0.000000 0.000000 2.055150 
# 
# From -- ./inp_files/21948.got.cif
#   From: 2010.05.17/outbox.cif.g08.bks.cpg/sg60_11_cif.got.tgz:21948.got - 2010.06.03 14:59:27.
