data_PCOD9454297
_publ_section_title
;
Structure prediction by ZEFSAII (Michael W. Deem and Ramdas Pophale) SiO2 
 PCOD9454297
Probable space group: P B C N
;
_chemical_formula_sum "Si O2"
_cell_formula_units_Z 44
_cell_length_a 21.455323
_cell_length_b 4.854326
_cell_length_c 19.089335
_cell_angle_alpha 90.000000
_cell_angle_beta 90.000000
_cell_angle_gamma 90.000000
_cell_volume 1988.175855
_symmetry_space_group_name_H-M "P B C N"
_symmetry_group_IT_number 60
_symmetry_cell_setting 'orthorhombic'
loop_
_space_group_symop_operation_xyz
x,y,z
1/2-x,1/2-y,1/2+z
1/2+x,1/2-y,-z
-x,y,1/2-z
-x,-y,-z
1/2+x,1/2+y,1/2-z
1/2-x,1/2+y,z
x,-y,1/2+z
loop_
_atom_site_type_symbol
_atom_site_label
_atom_site_fract_x
_atom_site_fract_y
_atom_site_fract_z
Si Si1 0.002614 0.722420 0.087104
Si Si2 0.579063 0.229681 0.281751
Si Si3 0.708854 0.120314 0.341539
Si Si4 0.574288 0.251113 0.553940
Si Si5 0.292307 0.126378 0.992969
Si Si6 0.000000 0.808713 0.750000
O O1 0.963892 0.447789 0.106343
O O2 0.048220 0.839615 0.145954
O O3 0.951047 0.942727 0.063745
O O4 0.048542 0.660470 0.022353
O O5 0.652164 0.207631 0.292588
O O6 0.552100 0.452350 0.226911
O O7 0.550435 0.923420 0.275629
O O8 0.769380 0.309279 0.330238
O O9 0.691797 0.154839 0.424013
O O10 0.647760 0.208211 0.552172
O O11 0.232759 0.321007 0.980238
#
# Coordination Sequence:
#
# PCOD9454297 Si02
#       6
#     8   8   8   8   8   4
#     4  10  20  31  54  72 115 136 178 210 261 303
#     4  11  20  40  53  86 109 142 178 236 266 345
#     4  10  20  32  54  81 112 145 166 210 280 339
#     4  10  19  32  47  83 101 152 171 204 254 326
#     4  10  19  31  48  75 112 146 177 213 255 320
#     4  10  24  34  60  76 106 140 184 228 296 302
#
# _framework density 22.130838000000001
#
# number of rings (size 3 to 8) (size 9 to 14) (size 15 to 20)
#    0.000    1.818    1.818    3.273    0.000    0.000 
#    0.000    0.000    0.000    0.000    0.000   89.091 
#    0.000    0.000    0.000    0.000    0.000    0.000 
#
# Total GULP energy -245052.885044 kJ/mol
# GULP energy per Si atom -5569.383751 kJ/mol
# Density = 2.208047 g / cm^3
# Si number density = 22.130838 Si / 1000 Ang^3
#
#
#
# Elastic Constant Matrix: (Units=GPa)
#
#
# Indices 1 2 3 4 5 6 
#
# 1 98.1038 7.3410 13.2399 0.0000 0.0000 0.0000
# 2 7.3410 101.2102 -12.9570 0.0000 0.0000 0.0000
# 3 13.2399 -12.9570 20.3129 0.0000 0.0000 0.0000
# 4 0.0000 0.0000 0.0000 13.9425 0.0000 0.0000
# 5 0.0000 0.0000 0.0000 0.0000 30.4429 0.0000
# 6 0.0000 0.0000 0.0000 0.0000 0.0000 18.1215
#
#
#
# Elastic Compliance Matrix: (Units=1/GPa)
#
#
# Indices 1 2 3 4 5 6 
#
# 1 0.011522 -0.001957 -0.008758 0.000000 0.000000 0.000000
# 2 -0.001957 0.011091 0.008350 0.000000 0.000000 0.000000
# 3 -0.008758 0.008350 0.060265 0.000000 0.000000 0.000000
# 4 0.000000 0.000000 0.000000 0.071723 0.000000 0.000000
# 5 0.000000 0.000000 0.000000 0.000000 0.032848 0.000000
# 6 0.000000 0.000000 0.000000 0.000000 0.000000 0.055183
#
#
# Mechanical properties :
#
#
# Convention : Reuss Voigt Hill
#
# Bulk Modulus (GPa) = 12.79614 26.09718 19.44666
# Shear Modulus (GPa) = 18.28748 26.63492 22.46120
#
# Velocity S-wave (km/s) = 2.87772 3.47294 3.18925
# Velocity P-wave (km/s) = 4.10321 5.28201 4.72948
#
# Compressibility (1/GPa) = 0.07814858
#
# Stress axis : x y z
#
# Youngs Moduli (GPa) = 86.79295 90.16013 16.59348
#
# Poissons Ratio (x) = 0.17643 0.14533
# Poissons Ratio (y) = 0.16984 -0.13856
# Poissons Ratio (z) = 0.76013 -0.75287
#
# Static dielectric constant tensor:
#      x y z
#    x 1.773640 0.000000 0.000000 
#    y 0.000000 1.818790 0.000000 
#    z 0.000000 0.000000 2.048920 
# 
# From -- ./inp_files/24482.got.cif
#   From: 2010.05.17/outbox.cif.g08.bks.cpg/sg60_13_cif.got.tgz:24482.got - 2010.06.03 14:59:27.
