data_PCOD9454564
_publ_section_title
;
Structure prediction by ZEFSAII (Michael W. Deem and Ramdas Pophale) SiO2 
 PCOD9454564
Probable space group: P B C N
;
_chemical_formula_sum "Si O2"
_cell_formula_units_Z 56
_cell_length_a 28.176280
_cell_length_b 15.690221
_cell_length_c 5.463547
_cell_angle_alpha 90.000000
_cell_angle_beta 90.000000
_cell_angle_gamma 90.000000
_cell_volume 2415.390749
_symmetry_space_group_name_H-M "P B C N"
_symmetry_group_IT_number 60
_symmetry_cell_setting 'orthorhombic'
loop_
_space_group_symop_operation_xyz
x,y,z
1/2-x,1/2-y,1/2+z
1/2+x,1/2-y,-z
-x,y,1/2-z
-x,-y,-z
1/2+x,1/2+y,1/2-z
1/2-x,1/2+y,z
x,-y,1/2+z
loop_
_atom_site_type_symbol
_atom_site_label
_atom_site_fract_x
_atom_site_fract_y
_atom_site_fract_z
Si Si1 0.753495 0.195505 0.315114
Si Si2 0.000000 0.356289 0.750000
Si Si3 0.318750 0.544020 0.138986
Si Si4 0.414011 0.731401 0.224371
Si Si5 0.397350 0.789630 0.723329
Si Si6 0.500000 0.135070 0.750000
Si Si7 0.066709 0.956640 0.641045
Si Si8 0.669522 0.055494 0.314893
O O1 0.748849 0.251413 0.562410
O O2 0.801020 0.139542 0.327720
O O3 0.712117 0.123983 0.313837
O O4 0.045898 0.296295 0.744777
O O5 0.999557 0.409783 0.506246
O O6 0.301298 0.491806 0.377460
O O7 0.375655 0.537424 0.136576
O O8 0.386659 0.733506 0.483901
O O9 0.452850 0.806375 0.247465
O O10 0.441154 0.643175 0.182724
O O11 0.382661 0.751608 0.984757
O O12 0.376800 0.883910 0.689059
O O13 0.050106 0.991441 0.379269
O O14 0.670809 0.000581 0.565791
#
# Coordination Sequence:
#
# PCOD9454564 Si02
#       8
#     8   4   8   8   8   4   8   8
#     4  12  26  41  65  92 118 153 207 246 286 350
#     4   8  16  34  54  88 118 150 204 244 292 352
#     4  10  21  39  58  78 113 155 184 229 297 345
#     4  10  19  35  58  83 119 151 208 247 294 353
#     4  10  21  36  64  88 118 162 202 250 295 358
#     4   8  16  30  52  80 110 160 190 246 300 348
#     4  10  21  34  53  80 113 149 189 242 300 348
#     4  12  26  45  65  93 131 163 195 247 316 362
#
# _framework density 23.184656
#
# number of rings (size 3 to 8) (size 9 to 14) (size 15 to 20)
#    0.000    1.714    0.000    4.286    4.000    0.000 
#    0.000    1.429    0.000    0.000    0.000    0.000 
#    0.000    0.000    0.000    0.000    0.000    0.000 
#
# Total GULP energy -312816.417241 kJ/mol
# GULP energy per Si atom -5586.007451 kJ/mol
# Density = 2.313189 g / cm^3
# Si number density = 23.184656 Si / 1000 Ang^3
#
#
#
# Elastic Constant Matrix: (Units=GPa)
#
#
# Indices 1 2 3 4 5 6 
#
# 1 59.6903 22.8525 32.6414 0.0000 0.0000 0.0000
# 2 22.8525 114.2451 71.6671 0.0000 0.0000 0.0000
# 3 32.6414 71.6671 263.9645 0.0000 0.0000 0.0000
# 4 0.0000 0.0000 0.0000 61.6798 0.0000 0.0000
# 5 0.0000 0.0000 0.0000 0.0000 12.2533 0.0000
# 6 0.0000 0.0000 0.0000 0.0000 0.0000 -167.1037
#
#
#
# Elastic Compliance Matrix: (Units=1/GPa)
#
#
# Indices 1 2 3 4 5 6 
#
# 1 0.018661 -0.002754 -0.001560 0.000000 0.000000 0.000000
# 2 -0.002754 0.010956 -0.002634 0.000000 0.000000 0.000000
# 3 -0.001560 -0.002634 0.004696 0.000000 0.000000 0.000000
# 4 0.000000 0.000000 0.000000 0.016213 0.000000 0.000000
# 5 0.000000 0.000000 0.000000 0.000000 0.081611 0.000000
# 6 0.000000 0.000000 0.000000 0.000000 0.000000 -0.005984
#
#
# Mechanical properties :
#
#
# Convention : Reuss Voigt Hill
#
# Bulk Modulus (GPa) = 48.97823 76.91354 62.94589
# Shear Modulus (GPa) = 34.04724 2.08181 18.06452
#
# Velocity S-wave (km/s) = 3.83629 0.94862 2.79437
# Velocity P-wave (km/s) = 6.38702 5.86909 6.13352
#
# Compressibility (1/GPa) = 0.02041723
#
# Stress axis : x y z
#
# Youngs Moduli (GPa) = 53.58901 91.27046 212.92732
#
# Poissons Ratio (x) = 0.25138 0.33211
# Poissons Ratio (y) = 0.14760 0.56088
# Poissons Ratio (z) = 0.08359 0.24042
#
# Static dielectric constant tensor:
#      x y z
#    x 1.960510 0.000000 0.000000 
#    y 0.000000 1.796950 0.000000 
#    z 0.000000 0.000000 1.985950 
# 
# From -- ./inp_files/2713.got.cif
#   From: 2010.05.17/outbox.cif.g08.bks.cpg/sg60_2_cif.got.tgz:2713.got - 2010.06.03 14:59:27.
