data_PCOD9454523
_publ_section_title
;
Structure prediction by ZEFSAII (Michael W. Deem and Ramdas Pophale) SiO2 
 PCOD9454523
Probable space group: P B C N
;
_chemical_formula_sum "Si O2"
_cell_formula_units_Z 40
_cell_length_a 11.928385
_cell_length_b 11.053773
_cell_length_c 18.440676
_cell_angle_alpha 90.000000
_cell_angle_beta 90.000000
_cell_angle_gamma 90.000000
_cell_volume 2431.470624
_symmetry_space_group_name_H-M "P B C N"
_symmetry_group_IT_number 60
_symmetry_cell_setting 'orthorhombic'
loop_
_space_group_symop_operation_xyz
x,y,z
1/2-x,1/2-y,1/2+z
1/2+x,1/2-y,-z
-x,y,1/2-z
-x,-y,-z
1/2+x,1/2+y,1/2-z
1/2-x,1/2+y,z
x,-y,1/2+z
loop_
_atom_site_type_symbol
_atom_site_label
_atom_site_fract_x
_atom_site_fract_y
_atom_site_fract_z
Si Si1 0.170076 0.033066 0.456322
Si Si2 0.665670 0.317561 0.927276
Si Si3 0.094872 0.214237 0.582004
Si Si4 0.419002 0.108852 0.477238
Si Si5 0.015464 0.986787 0.664762
O O1 0.116015 0.138785 0.506904
O O2 0.300798 0.063382 0.445355
O O3 0.097911 0.020350 0.383633
O O4 0.163165 0.911344 0.504855
O O5 0.793527 0.291912 0.906015
O O6 0.594669 0.380042 0.864733
O O7 0.614270 0.190947 0.953608
O O8 0.989529 0.302158 0.573897
O O9 0.073595 0.112883 0.641988
O O10 0.500000 0.000000 0.500000
O O11 0.000000 0.979091 0.750000
#
# Coordination Sequence:
#
# PCOD9454523 Si02
#       5
#     8   8   8   8   8
#     4  10  19  34  61  81 108 152 191 235 291 329
#     4  10  19  37  58  84 112 142 193 245 280 330
#     4  10  19  36  58  84 113 140 192 247 277 329
#     4  11  19  31  60  92 108 135 189 252 287 317
#     4  11  22  40  57  81 119 162 189 222 291 359
#
# _framework density 16.450949000000001
#
# number of rings (size 3 to 8) (size 9 to 14) (size 15 to 20)
#    0.000    1.600    6.000    1.200    0.000    0.000 
#    3.600    0.000    0.000    1.200    0.000    0.000 
#    0.000    0.000    0.000    0.000    0.000    0.000 
#
# Total GULP energy -223168.392712 kJ/mol
# GULP energy per Si atom -5579.209818 kJ/mol
# Density = 1.641351 g / cm^3
# Si number density = 16.450949 Si / 1000 Ang^3
#
#
#
# Elastic Constant Matrix: (Units=GPa)
#
#
# Indices 1 2 3 4 5 6 
#
# 1 143.3652 49.3720 67.3643 0.0000 0.0000 0.0000
# 2 49.3720 70.4153 34.8708 0.0000 0.0000 0.0000
# 3 67.3643 34.8708 122.0908 0.0000 0.0000 0.0000
# 4 0.0000 0.0000 0.0000 8.1622 0.0000 0.0000
# 5 0.0000 0.0000 0.0000 0.0000 12.8981 0.0000
# 6 0.0000 0.0000 0.0000 0.0000 0.0000 44.9535
#
#
#
# Elastic Compliance Matrix: (Units=1/GPa)
#
#
# Indices 1 2 3 4 5 6 
#
# 1 0.010968 -0.005466 -0.004490 0.000000 0.000000 0.000000
# 2 -0.005466 0.019266 -0.002486 0.000000 0.000000 0.000000
# 3 -0.004490 -0.002486 0.011378 0.000000 0.000000 0.000000
# 4 0.000000 0.000000 0.000000 0.122516 0.000000 0.000000
# 5 0.000000 0.000000 0.000000 0.000000 0.077531 0.000000
# 6 0.000000 0.000000 0.000000 0.000000 0.000000 0.022245
#
#
# Mechanical properties :
#
#
# Convention : Reuss Voigt Hill
#
# Bulk Modulus (GPa) = 59.78891 71.00951 65.39921
# Shear Modulus (GPa) = 16.98578 25.48705 21.23641
#
# Velocity S-wave (km/s) = 3.21676 3.94035 3.59680
# Velocity P-wave (km/s) = 7.08656 7.99750 7.55577
#
# Compressibility (1/GPa) = 0.01672551
#
# Stress axis : x y z
#
# Youngs Moduli (GPa) = 91.17846 51.90623 87.88709
#
# Poissons Ratio (x) = 0.28374 0.39462
# Poissons Ratio (y) = 0.49841 0.21852
# Poissons Ratio (z) = 0.40940 0.12906
#
# Static dielectric constant tensor:
#      x y z
#    x 1.578620 0.000000 0.000000 
#    y 0.000000 1.568070 0.000000 
#    z 0.000000 0.000000 1.506170 
# 
# From -- ./inp_files/15818.got.cif
#   From: 2010.05.17/outbox.cif.g08.bks.cpg/sg60_8_cif.got.tgz:15818.got - 2010.06.03 14:59:27.
