data_PCOD9454935
_publ_section_title
;
Structure prediction by ZEFSAII (Michael W. Deem and Ramdas Pophale) SiO2 
 PCOD9454935
Probable space group: P B C N
;
_chemical_formula_sum "Si O2"
_cell_formula_units_Z 56
_cell_length_a 19.690349
_cell_length_b 14.611006
_cell_length_c 9.184138
_cell_angle_alpha 90.000000
_cell_angle_beta 90.000000
_cell_angle_gamma 90.000000
_cell_volume 2642.237997
_symmetry_space_group_name_H-M "P B C N"
_symmetry_group_IT_number 60
_symmetry_cell_setting 'orthorhombic'
loop_
_space_group_symop_operation_xyz
x,y,z
1/2-x,1/2-y,1/2+z
1/2+x,1/2-y,-z
-x,y,1/2-z
-x,-y,-z
1/2+x,1/2+y,1/2-z
1/2-x,1/2+y,z
x,-y,1/2+z
loop_
_atom_site_type_symbol
_atom_site_label
_atom_site_fract_x
_atom_site_fract_y
_atom_site_fract_z
Si Si1 0.000000 0.521718 0.250000
Si Si2 0.805149 0.013302 0.657447
Si Si3 0.785354 0.441583 0.887990
Si Si4 0.120811 0.609032 0.669650
Si Si5 0.455417 0.187897 0.432502
Si Si6 0.386031 0.804504 0.485162
Si Si7 0.619344 0.401113 0.428755
Si Si8 0.500000 0.347338 0.250000
O O1 0.053800 0.455953 0.173126
O O2 0.043520 0.591044 0.348812
O O3 0.758571 0.062162 0.536005
O O4 0.834509 0.073435 0.789269
O O5 0.760656 0.936744 0.743550
O O6 0.864620 0.969159 0.560675
O O7 0.818801 0.542563 0.876432
O O8 0.845551 0.368580 0.902121
O O9 0.102222 0.685478 0.552581
O O10 0.129285 0.654081 0.826748
O O11 0.532341 0.192401 0.494862
O O12 0.449138 0.275367 0.328436
O O13 0.365837 0.700320 0.512378
O O14 0.542628 0.402594 0.367633
#
# Coordination Sequence:
#
# PCOD9454935 Si02
#       8
#     4   8   8   8   8   8   8   4
#     4  11  18  28  54  87 136 190 198 239 310 384
#     4  10  24  46  64  88 127 164 225 278 316 373
#     4  11  22  38  64  93 132 177 214 247 311 399
#     4  12  20  32  58  97 138 182 206 246 314 393
#     4  10  20  33  54  96 140 168 208 257 312 392
#     4  11  21  37  62  94 133 170 217 257 318 391
#     4  10  24  47  70  92 120 160 212 290 337 386
#     4   9  22  42  68  97 120 160 218 279 344 394
#
# _framework density 21.194154000000001
#
# number of rings (size 3 to 8) (size 9 to 14) (size 15 to 20)
#    0.000    1.429    4.286    1.286    0.000    1.714 
#    5.143    0.000    0.000    0.000    0.000    0.000 
#    0.000    0.000    0.000    0.000    0.000    0.000 
#
# Total GULP energy -312741.520913 kJ/mol
# GULP energy per Si atom -5584.670016 kJ/mol
# Density = 2.114592 g / cm^3
# Si number density = 21.194154 Si / 1000 Ang^3
#
#
#
# Elastic Constant Matrix: (Units=GPa)
#
#
# Indices 1 2 3 4 5 6 
#
# 1 41.9131 13.8870 15.8498 0.0000 0.0000 0.0000
# 2 13.8870 42.4007 1.2936 0.0000 0.0000 0.0000
# 3 15.8498 1.2936 66.6011 0.0000 0.0000 0.0000
# 4 0.0000 0.0000 0.0000 -30.6541 0.0000 0.0000
# 5 0.0000 0.0000 0.0000 0.0000 35.4780 0.0000
# 6 0.0000 0.0000 0.0000 0.0000 0.0000 1.4531
#
#
#
# Elastic Compliance Matrix: (Units=1/GPa)
#
#
# Indices 1 2 3 4 5 6 
#
# 1 0.029595 -0.009484 -0.006859 0.000000 0.000000 0.000000
# 2 -0.009484 0.026638 0.001740 0.000000 0.000000 0.000000
# 3 -0.006859 0.001740 0.016613 0.000000 0.000000 0.000000
# 4 0.000000 0.000000 0.000000 -0.032622 0.000000 0.000000
# 5 0.000000 0.000000 0.000000 0.000000 0.028186 0.000000
# 6 0.000000 0.000000 0.000000 0.000000 0.000000 0.688183
#
#
# Mechanical properties :
#
#
# Convention : Reuss Voigt Hill
#
# Bulk Modulus (GPa) = 22.91484 23.66396 23.28940
# Shear Modulus (GPa) = 6.24730 9.24770 7.74750
#
# Velocity S-wave (km/s) = 1.71874 2.09112 1.91401
# Velocity P-wave (km/s) = 3.84371 4.12553 3.98711
#
# Compressibility (1/GPa) = 0.04363984
#
# Stress axis : x y z
#
# Youngs Moduli (GPa) = 33.78975 37.54101 60.19293
#
# Poissons Ratio (x) = 0.35602 0.41285
# Poissons Ratio (y) = 0.32045 -0.10471
# Poissons Ratio (z) = 0.23176 -0.06530
#
# Static dielectric constant tensor:
#      x y z
#    x 1.790720 0.000000 0.000000 
#    y 0.000000 1.739020 0.000000 
#    z 0.000000 0.000000 1.796410 
# 
# From -- ./inp_files/7453.got.cif
#   From: 2010.05.17/outbox.cif.g08.bks.cpg/sg60_4_cif.got.tgz:7453.got - 2010.06.03 14:59:27.
