data_PCOD9454512
_publ_section_title
;
Structure prediction by ZEFSAII (Michael W. Deem and Ramdas Pophale) SiO2 
 PCOD9454512
Probable space group: P B C N
;
_chemical_formula_sum "Si O2"
_cell_formula_units_Z 40
_cell_length_a 15.225131
_cell_length_b 14.102356
_cell_length_c 9.168886
_cell_angle_alpha 90.000000
_cell_angle_beta 90.000000
_cell_angle_gamma 90.000000
_cell_volume 1968.653507
_symmetry_space_group_name_H-M "P B C N"
_symmetry_group_IT_number 60
_symmetry_cell_setting 'orthorhombic'
loop_
_space_group_symop_operation_xyz
x,y,z
1/2-x,1/2-y,1/2+z
1/2+x,1/2-y,-z
-x,y,1/2-z
-x,-y,-z
1/2+x,1/2+y,1/2-z
1/2-x,1/2+y,z
x,-y,1/2+z
loop_
_atom_site_type_symbol
_atom_site_label
_atom_site_fract_x
_atom_site_fract_y
_atom_site_fract_z
Si Si1 0.029901 0.290210 0.089407
Si Si2 0.947071 0.573495 0.399216
Si Si3 0.927320 0.926854 0.938524
Si Si4 0.805188 0.426435 0.445650
Si Si5 0.692191 0.482882 0.192247
O O1 0.121351 0.344126 0.050165
O O2 0.000000 0.322419 0.250000
O O3 0.037392 0.178104 0.084969
O O4 0.956336 0.326253 0.976951
O O5 0.147485 0.525984 0.099538
O O6 0.000000 0.576312 0.250000
O O7 0.000000 0.500000 0.500000
O O8 0.854876 0.924104 0.065779
O O9 0.120055 0.962917 0.708822
O O10 0.000000 0.000000 0.000000
O O11 0.755271 0.446305 0.597992
O O12 0.740854 0.415011 0.308156
#
# Coordination Sequence:
#
# PCOD9454512 Si02
#       5
#     8   8   8   8   8
#     4  11  22  37  62  89 119 158 195 240 290 354
#     4  10  19  34  59  91 125 155 184 232 293 357
#     4  11  24  43  60  80 114 161 210 246 292 353
#     4  10  19  37  60  91 121 144 189 241 305 357
#     4  10  22  39  61  81 116 158 190 251 301 345
#
# _framework density 20.318456999999999
#
# number of rings (size 3 to 8) (size 9 to 14) (size 15 to 20)
#    0.000    1.600    0.000    7.800    0.000    3.200 
#    0.000    8.000    0.000    0.000    0.000    0.000 
#    0.000    0.000    0.000    0.000    0.000    0.000 
#
# Total GULP energy -223163.284110 kJ/mol
# GULP energy per Si atom -5579.082103 kJ/mol
# Density = 2.027221 g / cm^3
# Si number density = 20.318457 Si / 1000 Ang^3
#
#
#
# Elastic Constant Matrix: (Units=GPa)
#
#
# Indices 1 2 3 4 5 6 
#
# 1 63.9905 26.1160 30.3712 0.0000 0.0000 0.0000
# 2 26.1160 84.6749 24.5874 0.0000 0.0000 0.0000
# 3 30.3712 24.5874 149.8974 0.0000 0.0000 0.0000
# 4 0.0000 0.0000 0.0000 12.1151 0.0000 0.0000
# 5 0.0000 0.0000 0.0000 0.0000 52.5316 0.0000
# 6 0.0000 0.0000 0.0000 0.0000 0.0000 24.5941
#
#
#
# Elastic Compliance Matrix: (Units=1/GPa)
#
#
# Indices 1 2 3 4 5 6 
#
# 1 0.019121 -0.005011 -0.003052 0.000000 0.000000 0.000000
# 2 -0.005011 0.013714 -0.001234 0.000000 0.000000 0.000000
# 3 -0.003052 -0.001234 0.007492 0.000000 0.000000 0.000000
# 4 0.000000 0.000000 0.000000 0.082541 0.000000 0.000000
# 5 0.000000 0.000000 0.000000 0.000000 0.019036 0.000000
# 6 0.000000 0.000000 0.000000 0.000000 0.000000 0.040660
#
#
# Mechanical properties :
#
#
# Convention : Reuss Voigt Hill
#
# Bulk Modulus (GPa) = 46.01510 51.19020 48.60265
# Shear Modulus (GPa) = 23.99190 32.34740 28.16965
#
# Velocity S-wave (km/s) = 3.44000 3.99434 3.72749
# Velocity P-wave (km/s) = 6.20276 6.82068 6.51904
#
# Compressibility (1/GPa) = 0.02173200
#
# Stress axis : x y z
#
# Youngs Moduli (GPa) = 52.29811 72.91921 133.47434
#
# Poissons Ratio (x) = 0.36541 0.40739
# Poissons Ratio (y) = 0.26208 0.16472
# Poissons Ratio (z) = 0.15963 0.08999
#
# Static dielectric constant tensor:
#      x y z
#    x 1.795000 0.000000 0.000000 
#    y 0.000000 1.715560 0.000000 
#    z 0.000000 0.000000 1.729930 
# 
# From -- ./inp_files/5682.got.cif
#   From: 2010.05.17/outbox.cif.g08.bks.cpg/sg60_3_cif.got.tgz:5682.got - 2010.06.03 14:59:27.
