data_PCOD9454239
_publ_section_title
;
Structure prediction by ZEFSAII (Michael W. Deem and Ramdas Pophale) SiO2 
 PCOD9454239
Probable space group: P B C N
;
_chemical_formula_sum "Si O2"
_cell_formula_units_Z 48
_cell_length_a 10.790770
_cell_length_b 9.370236
_cell_length_c 17.785054
_cell_angle_alpha 90.000000
_cell_angle_beta 90.000000
_cell_angle_gamma 90.000000
_cell_volume 1798.283474
_symmetry_space_group_name_H-M "P B C N"
_symmetry_group_IT_number 60
_symmetry_cell_setting 'orthorhombic'
loop_
_space_group_symop_operation_xyz
x,y,z
1/2-x,1/2-y,1/2+z
1/2+x,1/2-y,-z
-x,y,1/2-z
-x,-y,-z
1/2+x,1/2+y,1/2-z
1/2-x,1/2+y,z
x,-y,1/2+z
loop_
_atom_site_type_symbol
_atom_site_label
_atom_site_fract_x
_atom_site_fract_y
_atom_site_fract_z
Si Si1 0.635781 0.717229 0.721088
Si Si2 0.110131 0.180475 0.464655
Si Si3 0.577393 0.179540 0.061092
Si Si4 0.589135 0.220268 0.697514
Si Si5 0.615451 0.973893 0.834528
Si Si6 0.258093 0.048989 0.023390
O O1 0.500000 0.659540 0.750000
O O2 0.630760 0.730138 0.630816
O O3 0.779821 0.664073 0.733416
O O4 0.639245 0.872394 0.762993
O O5 0.120309 0.191082 0.375824
O O6 0.216064 0.286874 0.500861
O O7 0.133694 0.024638 0.495005
O O8 0.979840 0.243660 0.489387
O O9 0.455439 0.124416 0.104656
O O10 0.647664 0.039712 0.031331
O O11 0.500000 0.314304 0.750000
O O12 0.513053 0.097875 0.823133
O O13 0.732351 0.999567 0.888910
#
# Coordination Sequence:
#
# PCOD9454239 Si02
#       6
#     8   8   8   8   8   8
#     4  10  23  42  67 102 147 187 249 301 376 438
#     4  11  23  40  72 106 137 191 246 310 374 447
#     4  10  18  40  66  93 131 182 239 289 351 446
#     4  12  23  38  72 107 140 195 255 302 371 453
#     4  10  21  40  70 101 137 190 250 295 374 452
#     4  11  21  41  71 100 142 177 251 304 370 445
#
# _framework density 26.692122000000001
#
# number of rings (size 3 to 8) (size 9 to 14) (size 15 to 20)
#    0.000    1.333    5.000    2.500    0.000    4.000 
#    0.000    0.833    0.000   14.000    0.000    0.000 
#    0.000    0.000    0.000    0.000    0.000    0.000 
#
# Total GULP energy -267574.520598 kJ/mol
# GULP energy per Si atom -5574.469179 kJ/mol
# Density = 2.663137 g / cm^3
# Si number density = 26.692122 Si / 1000 Ang^3
#
#
#
# Elastic Constant Matrix: (Units=GPa)
#
#
# Indices 1 2 3 4 5 6 
#
# 1 148.5844 13.9504 38.3344 0.0000 0.0000 0.0000
# 2 13.9504 103.3424 2.1573 0.0000 0.0000 0.0000
# 3 38.3344 2.1573 93.9714 0.0000 0.0000 0.0000
# 4 0.0000 0.0000 0.0000 14.3125 0.0000 0.0000
# 5 0.0000 0.0000 0.0000 0.0000 31.1344 0.0000
# 6 0.0000 0.0000 0.0000 0.0000 0.0000 18.4128
#
#
#
# Elastic Compliance Matrix: (Units=1/GPa)
#
#
# Indices 1 2 3 4 5 6 
#
# 1 0.007617 -0.000964 -0.003085 0.000000 0.000000 0.000000
# 2 -0.000964 0.009803 0.000168 0.000000 0.000000 0.000000
# 3 -0.003085 0.000168 0.011896 0.000000 0.000000 0.000000
# 4 0.000000 0.000000 0.000000 0.069869 0.000000 0.000000
# 5 0.000000 0.000000 0.000000 0.000000 0.032119 0.000000
# 6 0.000000 0.000000 0.000000 0.000000 0.000000 0.054310
#
#
# Mechanical properties :
#
#
# Convention : Reuss Voigt Hill
#
# Bulk Modulus (GPa) = 46.39372 50.53136 48.46254
# Shear Modulus (GPa) = 24.93019 32.20233 28.56626
#
# Velocity S-wave (km/s) = 3.05944 3.47715 3.27496
# Velocity P-wave (km/s) = 5.46800 5.92394 5.70053
#
# Compressibility (1/GPa) = 0.02155464
#
# Stress axis : x y z
#
# Youngs Moduli (GPa) = 131.29251 102.00789 84.06083
#
# Poissons Ratio (x) = 0.09831 0.25932
# Poissons Ratio (y) = 0.12654 -0.01413
# Poissons Ratio (z) = 0.40503 -0.01715
#
# Static dielectric constant tensor:
#      x y z
#    x 2.533240 0.000000 0.000000 
#    y 0.000000 2.091710 0.000000 
#    z 0.000000 0.000000 2.486570 
# 
# From -- ./inp_files/20019.got.cif
#   From: 2010.05.17/outbox.cif.g08.bks.cpg/sg60_11_cif.got.tgz:20019.got - 2010.06.03 14:59:27.
