data_PCOD9454621
_publ_section_title
;
Structure prediction by ZEFSAII (Michael W. Deem and Ramdas Pophale) SiO2 
 PCOD9454621
Probable space group: P B C N
;
_chemical_formula_sum "Si O2"
_cell_formula_units_Z 64
_cell_length_a 5.455546
_cell_length_b 32.323498
_cell_length_c 15.100354
_cell_angle_alpha 90.000000
_cell_angle_beta 90.000000
_cell_angle_gamma 90.000000
_cell_volume 2662.831612
_symmetry_space_group_name_H-M "P B C N"
_symmetry_group_IT_number 60
_symmetry_cell_setting 'orthorhombic'
loop_
_space_group_symop_operation_xyz
x,y,z
1/2-x,1/2-y,1/2+z
1/2+x,1/2-y,-z
-x,y,1/2-z
-x,-y,-z
1/2+x,1/2+y,1/2-z
1/2-x,1/2+y,z
x,-y,1/2+z
loop_
_atom_site_type_symbol
_atom_site_label
_atom_site_fract_x
_atom_site_fract_y
_atom_site_fract_z
Si Si1 0.325689 0.264377 0.962626
Si Si2 0.749940 0.174061 0.255723
Si Si3 0.250068 0.387027 0.308232
Si Si4 0.748813 0.525501 0.603160
Si Si5 0.750457 0.203989 0.694145
Si Si6 0.748131 0.981019 0.888647
Si Si7 0.259366 0.361075 0.935804
Si Si8 0.242647 0.390004 0.586283
O O1 0.250044 0.241303 0.873651
O O2 0.281605 0.313491 0.964329
O O3 0.615084 0.254692 0.973433
O O4 0.500000 0.198340 0.250000
O O5 0.751230 0.142306 0.172547
O O6 0.749549 0.148813 0.346363
O O7 0.000000 0.198476 0.250000
O O8 0.500000 0.388822 0.250000
O O9 0.252485 0.426956 0.369541
O O10 0.249548 0.341436 0.352401
O O11 0.000000 0.389117 0.250000
O O12 0.750533 0.521427 0.496474
O O13 0.501052 0.503231 0.637067
O O14 0.999581 0.504421 0.637181
O O15 0.500000 0.204985 0.750000
O O16 0.000000 0.204817 0.750000
O O17 0.738182 0.933053 0.861500
O O18 0.498741 0.386341 0.963067
O O19 0.011214 0.383400 0.964908
#
# Coordination Sequence:
#
# PCOD9454621 Si02
#       8
#     8   8   8   8   8   8   8   8
#     4  12  26  43  64  99 136 166 215 273 328 391
#     4   8  16  30  49  74 105 143 186 227 269 333
#     4  10  21  40  63  90 119 158 215 266 316 371
#     4  10  21  38  58  85 119 157 196 246 306 365
#     4  10  23  44  70  96 127 170 219 272 329 392
#     4  10  21  37  59  87 121 156 196 243 302 370
#     4  10  21  36  56  81 119 161 194 238 301 363
#     4  10  19  36  57  84 114 153 203 243 285 361
#
# _framework density 24.034565000000001
#
# number of rings (size 3 to 8) (size 9 to 14) (size 15 to 20)
#    0.000    2.000    0.000    3.000    0.000    5.000 
#    0.000   11.250    0.000    0.000    0.000    0.000 
#    0.000    0.000    0.000    0.000    0.000    0.000 
#
# Total GULP energy -357705.930106 kJ/mol
# GULP energy per Si atom -5589.155158 kJ/mol
# Density = 2.397986 g / cm^3
# Si number density = 24.034565 Si / 1000 Ang^3
#
#
#
# Elastic Constant Matrix: (Units=GPa)
#
#
# Indices 1 2 3 4 5 6 
#
# 1 224.3829 41.1535 11.5670 0.0000 0.0000 0.0000
# 2 41.1535 127.1088 7.0244 0.0000 0.0000 0.0000
# 3 11.5670 7.0244 29.3899 0.0000 0.0000 0.0000
# 4 0.0000 0.0000 0.0000 23.7740 0.0000 0.0000
# 5 0.0000 0.0000 0.0000 0.0000 17.0073 0.0000
# 6 0.0000 0.0000 0.0000 0.0000 0.0000 57.3151
#
#
#
# Elastic Compliance Matrix: (Units=1/GPa)
#
#
# Indices 1 2 3 4 5 6 
#
# 1 0.004806 -0.001471 -0.001540 0.000000 0.000000 0.000000
# 2 -0.001471 0.008423 -0.001434 0.000000 0.000000 0.000000
# 3 -0.001540 -0.001434 0.034974 0.000000 0.000000 0.000000
# 4 0.000000 0.000000 0.000000 0.042063 0.000000 0.000000
# 5 0.000000 0.000000 0.000000 0.000000 0.058798 0.000000
# 6 0.000000 0.000000 0.000000 0.000000 0.000000 0.017447
#
#
# Mechanical properties :
#
#
# Convention : Reuss Voigt Hill
#
# Bulk Modulus (GPa) = 25.43700 55.59682 40.51691
# Shear Modulus (GPa) = 26.52447 41.02840 33.77643
#
# Velocity S-wave (km/s) = 3.32565 4.13614 3.75284
# Velocity P-wave (km/s) = 5.03518 6.78177 5.97267
#
# Compressibility (1/GPa) = 0.03931281
#
# Stress axis : x y z
#
# Youngs Moduli (GPa) = 208.08127 118.72609 28.59253
#
# Poissons Ratio (x) = 0.17463 0.04403
# Poissons Ratio (y) = 0.30606 0.04101
# Poissons Ratio (z) = 0.32042 0.17028
#
# Static dielectric constant tensor:
#      x y z
#    x 2.056760 0.000000 0.000000 
#    y 0.000000 1.851610 0.000000 
#    z 0.000000 0.000000 1.999600 
# 
# From -- ./inp_files/18865.got.cif
#   From: 2010.05.17/outbox.cif.g08.bks.cpg/sg60_10_cif.got.tgz:18865.got - 2010.06.03 14:59:27.
