data_PCOD9454196
_publ_section_title
;
Structure prediction by ZEFSAII (Michael W. Deem and Ramdas Pophale) SiO2 
 PCOD9454196
Probable space group: P B C N
;
_chemical_formula_sum "Si O2"
_cell_formula_units_Z 32
_cell_length_a 16.679629
_cell_length_b 15.164630
_cell_length_c 5.080716
_cell_angle_alpha 90.000000
_cell_angle_beta 90.000000
_cell_angle_gamma 90.000000
_cell_volume 1285.118349
_symmetry_space_group_name_H-M "P B C N"
_symmetry_group_IT_number 60
_symmetry_cell_setting 'orthorhombic'
loop_
_space_group_symop_operation_xyz
x,y,z
1/2-x,1/2-y,1/2+z
1/2+x,1/2-y,-z
-x,y,1/2-z
-x,-y,-z
1/2+x,1/2+y,1/2-z
1/2-x,1/2+y,z
x,-y,1/2+z
loop_
_atom_site_type_symbol
_atom_site_label
_atom_site_fract_x
_atom_site_fract_y
_atom_site_fract_z
Si Si1 0.855059 0.558458 0.800490
Si Si2 0.923393 0.723675 0.058606
Si Si3 0.586955 0.400165 0.745385
Si Si4 0.319694 0.633270 0.769873
O O1 0.862889 0.477216 0.004320
O O2 0.914790 0.631633 0.913112
O O3 0.769078 0.607394 0.808835
O O4 0.842105 0.762078 0.202780
O O5 0.000000 0.725574 0.250000
O O6 0.928113 0.800250 0.843529
O O7 0.500000 0.445100 0.750000
O O8 0.619870 0.397872 0.454655
O O9 0.655164 0.419336 0.964077
#
# Coordination Sequence:
#
# PCOD9454196 Si02
#       4
#     8   8   8   8
#     4  12  29  44  64 102 154 193 223 284 371 437
#     4  10  24  42  75 103 134 182 250 297 342 412
#     4  10  18  37  70 104 125 161 235 307 345 384
#     4  10  22  40  70  97 134 182 243 296 337 419
#
# _framework density 24.900431000000001
#
# number of rings (size 3 to 8) (size 9 to 14) (size 15 to 20)
#    1.500    0.000    2.500    2.250    7.000    1.000 
#    0.000    0.000    0.000   25.500    0.000    0.000 
#    0.000    0.000    0.000    0.000    0.000    0.000 
#
# Total GULP energy -178671.767601 kJ/mol
# GULP energy per Si atom -5583.492738 kJ/mol
# Density = 2.484376 g / cm^3
# Si number density = 24.900431 Si / 1000 Ang^3
#
#
#
# Elastic Constant Matrix: (Units=GPa)
#
#
# Indices 1 2 3 4 5 6 
#
# 1 -3.9708 52.7263 -27.4876 0.0000 0.0000 0.0000
# 2 52.7263 74.6029 10.3206 0.0000 0.0000 0.0000
# 3 -27.4876 10.3206 61.1358 0.0000 0.0000 0.0000
# 4 0.0000 0.0000 0.0000 30.9021 0.0000 0.0000
# 5 0.0000 0.0000 0.0000 0.0000 -1.2963 0.0000
# 6 0.0000 0.0000 0.0000 0.0000 0.0000 48.1482
#
#
#
# Elastic Compliance Matrix: (Units=1/GPa)
#
#
# Indices 1 2 3 4 5 6 
#
# 1 -0.016261 0.012803 -0.009472 0.000000 0.000000 0.000000
# 2 0.012803 0.003644 0.005141 0.000000 0.000000 0.000000
# 3 -0.009472 0.005141 0.011230 0.000000 0.000000 0.000000
# 4 0.000000 0.000000 0.000000 0.032360 0.000000 0.000000
# 5 0.000000 0.000000 0.000000 0.000000 -0.771432 0.000000
# 6 0.000000 0.000000 0.000000 0.000000 0.000000 0.020769
#
#
# Mechanical properties :
#
#
# Convention : Reuss Voigt Hill
#
# Bulk Modulus (GPa) = 64.27948 22.54293 43.41120
# Shear Modulus (GPa) = -6.83577 21.96473 7.56448
#
# Velocity S-wave (km/s) = -1.65867 2.97324 1.74485
# Velocity P-wave (km/s) = 4.71194 4.56725 4.64016
#
# Compressibility (1/GPa) = 0.01555707
#
# Stress axis : x y z
#
# Youngs Moduli (GPa) = -61.49716 274.39102 89.04611
#
# Poissons Ratio (x) = -3.51303 0.84349
# Poissons Ratio (y) = 0.78735 -0.45780
# Poissons Ratio (z) = -0.58253 -1.41070
#
# Static dielectric constant tensor:
#      x y z
#    x 2.024900 0.000000 0.000000 
#    y 0.000000 2.050820 0.000000 
#    z 0.000000 0.000000 2.009210 
# 
# From -- ./inp_files/1038.got.cif
#   From: 2010.05.17/outbox.cif.g08.bks.cpg/sg60_1_cif.got.tgz:1038.got - 2010.06.03 14:59:27.
