data_PCOD9454180
_publ_section_title
;
Structure prediction by ZEFSAII (Michael W. Deem and Ramdas Pophale) SiO2 
 PCOD9454180
Probable space group: P B C N
;
_chemical_formula_sum "Si O2"
_cell_formula_units_Z 64
_cell_length_a 14.782444
_cell_length_b 9.272212
_cell_length_c 20.075253
_cell_angle_alpha 90.000000
_cell_angle_beta 90.000000
_cell_angle_gamma 90.000000
_cell_volume 2751.633717
_symmetry_space_group_name_H-M "P B C N"
_symmetry_group_IT_number 60
_symmetry_cell_setting 'orthorhombic'
loop_
_space_group_symop_operation_xyz
x,y,z
1/2-x,1/2-y,1/2+z
1/2+x,1/2-y,-z
-x,y,1/2-z
-x,-y,-z
1/2+x,1/2+y,1/2-z
1/2-x,1/2+y,z
x,-y,1/2+z
loop_
_atom_site_type_symbol
_atom_site_label
_atom_site_fract_x
_atom_site_fract_y
_atom_site_fract_z
Si Si1 0.400369 0.597714 0.653538
Si Si2 0.022744 0.862392 0.823151
Si Si3 0.768453 0.496282 0.767410
Si Si4 0.140242 0.402703 0.596957
Si Si5 0.035080 0.681979 0.556189
Si Si6 0.606732 0.459563 0.987060
Si Si7 0.783093 0.751718 0.673739
Si Si8 0.823330 0.747820 0.531970
O O1 0.496373 0.528497 0.669524
O O2 0.332489 0.551589 0.712517
O O3 0.404949 0.762267 0.631089
O O4 0.370428 0.510464 0.587756
O O5 0.965402 0.763635 0.872864
O O6 0.873368 0.843294 0.663015
O O7 0.000000 0.812794 0.750000
O O8 0.812207 0.476755 0.839735
O O9 0.808193 0.615000 0.718205
O O10 0.774434 0.351248 0.723409
O O11 0.074764 0.523593 0.565718
O O12 0.201775 0.332205 0.537682
O O13 0.097255 0.785529 0.509614
O O14 0.928298 0.691965 0.538672
O O15 0.666645 0.577882 0.026204
O O16 0.500000 0.500000 0.000000
O O17 0.762808 0.711251 0.596872
#
# Coordination Sequence:
#
# PCOD9454180 Si02
#       8
#     8   8   8   8   8   8   8   8
#     4  10  21  37  63  95 123 171 228 272 330 406
#     4  10  18  36  64  91 122 173 228 267 337 413
#     4  12  24  43  64  91 136 182 227 280 340 414
#     4  11  22  39  65 100 134 172 222 288 340 411
#     4   9  18  33  65 100 130 165 215 291 338 398
#     4   8  16  34  62  95 123 158 214 272 332 394
#     4  11  24  44  66  91 134 179 222 284 344 407
#     4   9  20  41  62  96 133 171 223 277 341 412
#
# _framework density 23.258908999999999
#
# number of rings (size 3 to 8) (size 9 to 14) (size 15 to 20)
#    0.000    2.000    2.500    1.875    1.750    0.000 
#    4.500    6.875    0.000    0.000    0.000    0.000 
#    0.000    0.000    0.000    0.000    0.000    0.000 
#
# Total GULP energy -356637.803211 kJ/mol
# GULP energy per Si atom -5572.465675 kJ/mol
# Density = 2.320597 g / cm^3
# Si number density = 23.258909 Si / 1000 Ang^3
#
#
#
# Elastic Constant Matrix: (Units=GPa)
#
#
# Indices 1 2 3 4 5 6 
#
# 1 24.3003 6.9254 10.2887 0.0000 0.0000 0.0000
# 2 6.9254 122.6081 32.5989 0.0000 0.0000 0.0000
# 3 10.2887 32.5989 151.5397 0.0000 0.0000 0.0000
# 4 0.0000 0.0000 0.0000 39.1943 0.0000 0.0000
# 5 0.0000 0.0000 0.0000 0.0000 29.9635 0.0000
# 6 0.0000 0.0000 0.0000 0.0000 0.0000 17.3064
#
#
#
# Elastic Compliance Matrix: (Units=1/GPa)
#
#
# Indices 1 2 3 4 5 6 
#
# 1 0.042717 -0.001741 -0.002526 0.000000 0.000000 0.000000
# 2 -0.001741 0.008722 -0.001758 0.000000 0.000000 0.000000
# 3 -0.002526 -0.001758 0.007149 0.000000 0.000000 0.000000
# 4 0.000000 0.000000 0.000000 0.025514 0.000000 0.000000
# 5 0.000000 0.000000 0.000000 0.000000 0.033374 0.000000
# 6 0.000000 0.000000 0.000000 0.000000 0.000000 0.057782
#
#
# Mechanical properties :
#
#
# Convention : Reuss Voigt Hill
#
# Bulk Modulus (GPa) = 21.48790 44.23045 32.85918
# Shear Modulus (GPa) = 24.65237 33.86852 29.26044
#
# Velocity S-wave (km/s) = 3.25916 3.82010 3.55072
# Velocity P-wave (km/s) = 4.83957 6.20607 5.56493
#
# Compressibility (1/GPa) = 0.04653781
#
# Stress axis : x y z
#
# Youngs Moduli (GPa) = 23.40969 114.65469 139.88778
#
# Poissons Ratio (x) = 0.19965 0.35331
# Poissons Ratio (y) = 0.04076 0.24592
# Poissons Ratio (z) = 0.05913 0.20156
#
# Static dielectric constant tensor:
#      x y z
#    x 1.987190 0.000000 0.000000 
#    y 0.000000 1.917450 0.000000 
#    z 0.000000 0.000000 2.008840 
# 
# From -- ./inp_files/21050.got.cif
#   From: 2010.05.17/outbox.cif.g08.bks.cpg/sg60_11_cif.got.tgz:21050.got - 2010.06.03 14:59:27.
