data_PCOD9454178
_publ_section_title
;
Structure prediction by ZEFSAII (Michael W. Deem and Ramdas Pophale) SiO2 
 PCOD9454178
Probable space group: P B C N
;
_chemical_formula_sum "Si O2"
_cell_formula_units_Z 28
_cell_length_a 7.270330
_cell_length_b 15.062497
_cell_length_c 9.109651
_cell_angle_alpha 90.000000
_cell_angle_beta 90.000000
_cell_angle_gamma 90.000000
_cell_volume 997.591721
_symmetry_space_group_name_H-M "P B C N"
_symmetry_group_IT_number 60
_symmetry_cell_setting 'orthorhombic'
loop_
_space_group_symop_operation_xyz
x,y,z
1/2-x,1/2-y,1/2+z
1/2+x,1/2-y,-z
-x,y,1/2-z
-x,-y,-z
1/2+x,1/2+y,1/2-z
1/2-x,1/2+y,z
x,-y,1/2+z
loop_
_atom_site_type_symbol
_atom_site_label
_atom_site_fract_x
_atom_site_fract_y
_atom_site_fract_z
Si Si1 0.287857 0.468636 0.527609
Si Si2 0.000000 0.124483 0.250000
Si Si3 0.784035 0.663102 0.013335
Si Si4 0.318145 0.321040 0.305787
O O1 0.500000 0.500000 0.500000
O O2 0.320588 0.429321 0.689849
O O3 0.175922 0.558797 0.504056
O O4 0.228880 0.388344 0.421253
O O5 0.911031 0.169363 0.105338
O O6 0.889179 0.732425 0.114529
O O7 0.785968 0.696791 0.845417
O O8 0.500000 0.371520 0.250000
#
# Coordination Sequence:
#
# PCOD9454178 Si02
#       4
#     8   4   8   8
#     4  10  19  37  63  90 117 159 209 256 299 360
#     4  10  18  36  64  88 118 160 208 254 298 362
#     4  11  23  35  62  91 126 158 207 258 305 362
#     4  12  23  39  62  95 126 162 207 256 312 366
#
# _framework density 28.067595000000001
#
# number of rings (size 3 to 8) (size 9 to 14) (size 15 to 20)
#    0.000    1.143    5.714    5.143    2.000    0.000 
#    0.000    0.000    3.143    5.143    0.000    0.000 
#    0.000    0.000    0.000    0.000    0.000    0.000 
#
# Total GULP energy -156296.954320 kJ/mol
# GULP energy per Si atom -5582.034083 kJ/mol
# Density = 2.800371 g / cm^3
# Si number density = 28.067595 Si / 1000 Ang^3
#
#
#
# Elastic Constant Matrix: (Units=GPa)
#
#
# Indices 1 2 3 4 5 6 
#
# 1 46.2068 33.0733 24.6720 0.0000 0.0000 0.0000
# 2 33.0733 156.2228 105.2805 0.0000 0.0000 0.0000
# 3 24.6720 105.2805 243.0368 0.0000 0.0000 0.0000
# 4 0.0000 0.0000 0.0000 57.9320 0.0000 0.0000
# 5 0.0000 0.0000 0.0000 0.0000 35.5120 0.0000
# 6 0.0000 0.0000 0.0000 0.0000 0.0000 35.0100
#
#
#
# Elastic Compliance Matrix: (Units=1/GPa)
#
#
# Indices 1 2 3 4 5 6 
#
# 1 0.025528 -0.005166 -0.000354 0.000000 0.000000 0.000000
# 2 -0.005166 0.010086 -0.003845 0.000000 0.000000 0.000000
# 3 -0.000354 -0.003845 0.005816 0.000000 0.000000 0.000000
# 4 0.000000 0.000000 0.000000 0.017262 0.000000 0.000000
# 5 0.000000 0.000000 0.000000 0.000000 0.028159 0.000000
# 6 0.000000 0.000000 0.000000 0.000000 0.000000 0.028563
#
#
# Mechanical properties :
#
#
# Convention : Reuss Voigt Hill
#
# Bulk Modulus (GPa) = 44.05025 85.72419 64.88722
# Shear Modulus (GPa) = 35.28325 44.52019 39.90172
#
# Velocity S-wave (km/s) = 3.54938 3.98701 3.77454
# Velocity P-wave (km/s) = 5.70315 7.19745 6.49343
#
# Compressibility (1/GPa) = 0.02270135
#
# Stress axis : x y z
#
# Youngs Moduli (GPa) = 39.17196 99.14992 171.94208
#
# Poissons Ratio (x) = 0.51223 0.06080
# Poissons Ratio (y) = 0.20237 0.66104
# Poissons Ratio (z) = 0.01385 0.38119
#
# Static dielectric constant tensor:
#      x y z
#    x 2.408610 0.000000 0.000000 
#    y 0.000000 2.324870 0.000000 
#    z 0.000000 0.000000 2.272850 
# 
# From -- ./inp_files/3461.got.cif
#   From: 2010.05.17/outbox.cif.g08.bks.cpg/sg60_2_cif.got.tgz:3461.got - 2010.06.03 14:59:27.
