data_PCOD9454922
_publ_section_title
;
Structure prediction by ZEFSAII (Michael W. Deem and Ramdas Pophale) SiO2 
 PCOD9454922
Probable space group: P B C N
;
_chemical_formula_sum "Si O2"
_cell_formula_units_Z 48
_cell_length_a 8.128717
_cell_length_b 18.852789
_cell_length_c 15.405157
_cell_angle_alpha 90.000000
_cell_angle_beta 90.000000
_cell_angle_gamma 90.000000
_cell_volume 2360.824696
_symmetry_space_group_name_H-M "P B C N"
_symmetry_group_IT_number 60
_symmetry_cell_setting 'orthorhombic'
loop_
_space_group_symop_operation_xyz
x,y,z
1/2-x,1/2-y,1/2+z
1/2+x,1/2-y,-z
-x,y,1/2-z
-x,-y,-z
1/2+x,1/2+y,1/2-z
1/2-x,1/2+y,z
x,-y,1/2+z
loop_
_atom_site_type_symbol
_atom_site_label
_atom_site_fract_x
_atom_site_fract_y
_atom_site_fract_z
Si Si1 0.272302 0.046650 0.451755
Si Si2 0.118749 0.543113 0.122482
Si Si3 0.257213 0.911678 0.208079
Si Si4 0.261031 0.169196 0.031160
Si Si5 0.377252 0.175513 0.555772
Si Si6 0.595594 0.419252 0.115957
O O1 0.423289 0.049434 0.384785
O O2 0.266086 0.124739 0.492960
O O3 0.328596 0.998020 0.533514
O O4 0.124365 0.001827 0.410408
O O5 0.175744 0.491041 0.196964
O O6 0.204871 0.618951 0.114089
O O7 0.369525 0.859159 0.151549
O O8 0.224305 0.898032 0.308481
O O9 0.081743 0.909516 0.158283
O O10 0.438307 0.173128 0.982611
O O11 0.135419 0.129514 0.966282
O O12 0.194522 0.246011 0.054707
#
# Coordination Sequence:
#
# PCOD9454922 Si02
#       6
#     8   8   8   8   8   8
#     4   8  16  31  50  72  96 125 163 202 243 294
#     4   8  16  31  50  72  96 125 163 202 243 294
#     4  10  20  33  51  76 103 131 167 210 252 297
#     4  10  20  34  53  76 102 134 170 208 253 304
#     4  10  20  34  53  76 102 134 170 208 253 304
#     4  10  20  33  51  76 103 131 167 210 252 297
#
# _framework density 20.331879000000001
#
# number of rings (size 3 to 8) (size 9 to 14) (size 15 to 20)
#    0.000    2.667    0.000    4.000    0.000   10.000 
#    0.000    1.667    0.000    2.000    0.000    0.000 
#    0.000    0.000    0.000    0.000    0.000    0.000 
#
# Total GULP energy -267839.964234 kJ/mol
# GULP energy per Si atom -5579.999255 kJ/mol
# Density = 2.028560 g / cm^3
# Si number density = 20.331879 Si / 1000 Ang^3
#
#
#
# Elastic Constant Matrix: (Units=GPa)
#
#
# Indices 1 2 3 4 5 6 
#
# 1 52.7817 16.5278 8.6581 0.0000 0.0000 0.0000
# 2 16.5278 136.5090 10.3125 0.0000 0.0000 0.0000
# 3 8.6581 10.3125 46.5249 0.0000 0.0000 0.0000
# 4 0.0000 0.0000 0.0000 4.4179 0.0000 0.0000
# 5 0.0000 0.0000 0.0000 0.0000 22.8273 0.0000
# 6 0.0000 0.0000 0.0000 0.0000 0.0000 25.1563
#
#
#
# Elastic Compliance Matrix: (Units=1/GPa)
#
#
# Indices 1 2 3 4 5 6 
#
# 1 0.020169 -0.002195 -0.003267 0.000000 0.000000 0.000000
# 2 -0.002195 0.007689 -0.001296 0.000000 0.000000 0.000000
# 3 -0.003267 -0.001296 0.022389 0.000000 0.000000 0.000000
# 4 0.000000 0.000000 0.000000 0.226352 0.000000 0.000000
# 5 0.000000 0.000000 0.000000 0.000000 0.043807 0.000000
# 6 0.000000 0.000000 0.000000 0.000000 0.000000 0.039752
#
#
# Mechanical properties :
#
#
# Convention : Reuss Voigt Hill
#
# Bulk Modulus (GPa) = 27.22438 34.09025 30.65731
# Shear Modulus (GPa) = 12.95611 23.83477 18.39544
#
# Velocity S-wave (km/s) = 2.52708 3.42758 3.01118
# Velocity P-wave (km/s) = 4.68337 5.69804 5.21544
#
# Compressibility (1/GPa) = 0.03673178
#
# Stress axis : x y z
#
# Youngs Moduli (GPa) = 49.58044 130.05248 44.66469
#
# Poissons Ratio (x) = 0.28549 0.14591
# Poissons Ratio (y) = 0.10884 0.05788
# Poissons Ratio (z) = 0.16197 0.16853
#
# Static dielectric constant tensor:
#      x y z
#    x 1.777330 0.000000 0.000000 
#    y 0.000000 1.712540 0.000000 
#    z 0.000000 0.000000 1.724360 
# 
# From -- ./inp_files/14987.got.cif
#   From: 2010.05.17/outbox.cif.g08.bks.cpg/sg60_8_cif.got.tgz:14987.got - 2010.06.03 14:59:27.
