data_PCOD9454463
_publ_section_title
;
Structure prediction by ZEFSAII (Michael W. Deem and Ramdas Pophale) SiO2 
 PCOD9454463
Probable space group: P B C N
;
_chemical_formula_sum "Si O2"
_cell_formula_units_Z 36
_cell_length_a 23.215219
_cell_length_b 14.136268
_cell_length_c 4.878787
_cell_angle_alpha 90.000000
_cell_angle_beta 90.000000
_cell_angle_gamma 90.000000
_cell_volume 1601.103522
_symmetry_space_group_name_H-M "P B C N"
_symmetry_group_IT_number 60
_symmetry_cell_setting 'orthorhombic'
loop_
_space_group_symop_operation_xyz
x,y,z
1/2-x,1/2-y,1/2+z
1/2+x,1/2-y,-z
-x,y,1/2-z
-x,-y,-z
1/2+x,1/2+y,1/2-z
1/2-x,1/2+y,z
x,-y,1/2+z
loop_
_atom_site_type_symbol
_atom_site_label
_atom_site_fract_x
_atom_site_fract_y
_atom_site_fract_z
Si Si1 0.500000 0.071937 0.750000
Si Si2 0.372529 0.929088 0.251648
Si Si3 0.319555 0.563579 0.228712
Si Si4 0.558620 0.568211 0.164337
Si Si5 0.234647 0.307126 0.057443
O O1 0.563443 0.117949 0.760068
O O2 0.500000 0.000000 0.500000
O O3 0.323249 0.854311 0.174533
O O4 0.367024 0.981646 0.543020
O O5 0.319388 0.468905 0.416531
O O6 0.380261 0.615918 0.283451
O O7 0.267874 0.619214 0.363896
O O8 0.500000 0.620311 0.250000
O O9 0.558166 0.474789 0.361186
O O10 0.271057 0.275055 0.326000
#
# Coordination Sequence:
#
# PCOD9454463 Si02
#       5
#     4   8   8   8   8
#     4   8  16  30  56  88 106 132 186 244 290 330
#     4  10  19  36  60  86 111 146 194 242 287 344
#     4  10  19  34  55  77 102 140 188 229 267 325
#     4   8  14  25  45  73  95 119 161 217 259 289
#     4  12  24  36  52  80 119 155 182 229 290 347
#
# _framework density 22.484494999999999
#
# number of rings (size 3 to 8) (size 9 to 14) (size 15 to 20)
#    0.000    2.222    0.000    4.000    0.000    0.000 
#    0.000    0.000    2.444    0.000    0.000    0.000 
#    0.000    0.000    0.000    0.000    0.000    0.000 
#
# Total GULP energy -200585.982833 kJ/mol
# GULP energy per Si atom -5571.832856 kJ/mol
# Density = 2.243332 g / cm^3
# Si number density = 22.484495 Si / 1000 Ang^3
#
#
#
# Elastic Constant Matrix: (Units=GPa)
#
#
# Indices 1 2 3 4 5 6 
#
# 1 159.7639 38.7070 -10.6988 0.0000 0.0000 0.0000
# 2 38.7070 33.4491 -0.8850 0.0000 0.0000 0.0000
# 3 -10.6988 -0.8850 105.6103 0.0000 0.0000 0.0000
# 4 0.0000 0.0000 0.0000 38.2414 0.0000 0.0000
# 5 0.0000 0.0000 0.0000 0.0000 35.3300 0.0000
# 6 0.0000 0.0000 0.0000 0.0000 0.0000 9.1552
#
#
#
# Elastic Compliance Matrix: (Units=1/GPa)
#
#
# Indices 1 2 3 4 5 6 
#
# 1 0.008765 -0.010122 0.000803 0.000000 0.000000 0.000000
# 2 -0.010122 0.041591 -0.000677 0.000000 0.000000 0.000000
# 3 0.000803 -0.000677 0.009544 0.000000 0.000000 0.000000
# 4 0.000000 0.000000 0.000000 0.026150 0.000000 0.000000
# 5 0.000000 0.000000 0.000000 0.000000 0.028305 0.000000
# 6 0.000000 0.000000 0.000000 0.000000 0.000000 0.109227
#
#
# Mechanical properties :
#
#
# Convention : Reuss Voigt Hill
#
# Bulk Modulus (GPa) = 25.05653 39.22996 32.14324
# Shear Modulus (GPa) = 19.46457 34.65868 27.06162
#
# Velocity S-wave (km/s) = 2.94545 3.93039 3.47301
# Velocity P-wave (km/s) = 4.76819 6.17112 5.51445
#
# Compressibility (1/GPa) = 0.03990976
#
# Stress axis : x y z
#
# Youngs Moduli (GPa) = 114.08605 24.04354 104.77274
#
# Poissons Ratio (x) = 0.24337 -0.08415
# Poissons Ratio (y) = 1.15477 0.07092
# Poissons Ratio (z) = -0.09163 0.01627
#
# Static dielectric constant tensor:
#      x y z
#    x 1.988890 0.000000 0.000000 
#    y 0.000000 2.326080 0.000000 
#    z 0.000000 0.000000 1.797610 
# 
# From -- ./inp_files/2288.got.cif
#   From: 2010.05.17/outbox.cif.g08.bks.cpg/sg60_2_cif.got.tgz:2288.got - 2010.06.03 14:59:27.
