data_PCOD9454588
_publ_section_title
;
Structure prediction by ZEFSAII (Michael W. Deem and Ramdas Pophale) SiO2 
 PCOD9454588
Probable space group: P B C N
;
_chemical_formula_sum "Si O2"
_cell_formula_units_Z 32
_cell_length_a 5.208460
_cell_length_b 17.139161
_cell_length_c 14.815540
_cell_angle_alpha 90.000000
_cell_angle_beta 90.000000
_cell_angle_gamma 90.000000
_cell_volume 1322.563025
_symmetry_space_group_name_H-M "P B C N"
_symmetry_group_IT_number 60
_symmetry_cell_setting 'orthorhombic'
loop_
_space_group_symop_operation_xyz
x,y,z
1/2-x,1/2-y,1/2+z
1/2+x,1/2-y,-z
-x,y,1/2-z
-x,-y,-z
1/2+x,1/2+y,1/2-z
1/2-x,1/2+y,z
x,-y,1/2+z
loop_
_atom_site_type_symbol
_atom_site_label
_atom_site_fract_x
_atom_site_fract_y
_atom_site_fract_z
Si Si1 0.434535 0.228445 0.538771
Si Si2 0.243046 0.833464 0.690601
Si Si3 0.468175 0.056746 0.912665
Si Si4 0.539746 0.494855 0.891043
O O1 0.693167 0.282490 0.531028
O O2 0.253582 0.266473 0.615759
O O3 0.566919 0.144988 0.556148
O O4 0.500000 0.841228 0.750000
O O5 0.000000 0.811351 0.750000
O O6 0.156562 0.913719 0.641888
O O7 0.743254 0.056441 0.865537
O O8 0.238634 0.019158 0.855950
O O9 0.500000 0.000000 0.000000
O O10 0.500000 0.500000 0.000000
#
# Coordination Sequence:
#
# PCOD9454588 Si02
#       4
#     8   8   8   8
#     4  12  23  41  70 102 138 188 243 293 355 447
#     4  12  26  45  68 104 149 189 232 307 388 438
#     4  10  19  35  62  96 127 166 233 297 333 399
#     4  10  20  39  65  94 129 179 242 291 347 434
#
# _framework density 24.195444999999999
#
# number of rings (size 3 to 8) (size 9 to 14) (size 15 to 20)
#    0.000    1.000    0.000   10.500    0.000    0.000 
#    0.000    5.000    0.000    0.000    0.000    0.000 
#    0.000    0.000    0.000    0.000    0.000    0.000 
#
# Total GULP energy -178391.749097 kJ/mol
# GULP energy per Si atom -5574.742159 kJ/mol
# Density = 2.414038 g / cm^3
# Si number density = 24.195445 Si / 1000 Ang^3
#
#
#
# Elastic Constant Matrix: (Units=GPa)
#
#
# Indices 1 2 3 4 5 6 
#
# 1 219.4304 10.8441 16.3656 0.0000 0.0000 0.0000
# 2 10.8441 98.1919 0.0367 0.0000 0.0000 0.0000
# 3 16.3656 0.0367 39.8166 0.0000 0.0000 0.0000
# 4 0.0000 0.0000 0.0000 13.9532 0.0000 0.0000
# 5 0.0000 0.0000 0.0000 0.0000 36.7066 0.0000
# 6 0.0000 0.0000 0.0000 0.0000 0.0000 36.2506
#
#
#
# Elastic Compliance Matrix: (Units=1/GPa)
#
#
# Indices 1 2 3 4 5 6 
#
# 1 0.004728 -0.000521 -0.001943 0.000000 0.000000 0.000000
# 2 -0.000521 0.010242 0.000205 0.000000 0.000000 0.000000
# 3 -0.001943 0.000205 0.025913 0.000000 0.000000 0.000000
# 4 0.000000 0.000000 0.000000 0.071668 0.000000 0.000000
# 5 0.000000 0.000000 0.000000 0.000000 0.027243 0.000000
# 6 0.000000 0.000000 0.000000 0.000000 0.000000 0.027586
#
#
# Mechanical properties :
#
#
# Convention : Reuss Voigt Hill
#
# Bulk Modulus (GPa) = 27.49946 45.77021 36.63483
# Shear Modulus (GPa) = 27.17094 39.39490 33.28292
#
# Velocity S-wave (km/s) = 3.35472 4.03947 3.71291
# Velocity P-wave (km/s) = 5.13768 6.38078 5.79267
#
# Compressibility (1/GPa) = 0.03636435
#
# Stress axis : x y z
#
# Youngs Moduli (GPa) = 211.50944 97.64051 38.58994
#
# Poissons Ratio (x) = 0.05091 0.07497
# Poissons Ratio (y) = 0.11028 -0.00791
# Poissons Ratio (z) = 0.41092 -0.02000
#
# Static dielectric constant tensor:
#      x y z
#    x 2.101580 0.000000 0.000000 
#    y 0.000000 1.501900 0.000000 
#    z 0.000000 0.000000 2.966930 
# 
# From -- ./inp_files/13623.got.cif
#   From: 2010.05.17/outbox.cif.g08.bks.cpg/sg60_7_cif.got.tgz:13623.got - 2010.06.03 14:59:27.
