data_PCOD9454083
_publ_section_title
;
Structure prediction by ZEFSAII (Michael W. Deem and Ramdas Pophale) SiO2 
 PCOD9454083
Probable space group: P B C N
;
_chemical_formula_sum "Si O2"
_cell_formula_units_Z 60
_cell_length_a 10.143422
_cell_length_b 25.111601
_cell_length_c 12.975608
_cell_angle_alpha 90.000000
_cell_angle_beta 90.000000
_cell_angle_gamma 90.000000
_cell_volume 3305.115288
_symmetry_space_group_name_H-M "P B C N"
_symmetry_group_IT_number 60
_symmetry_cell_setting 'orthorhombic'
loop_
_space_group_symop_operation_xyz
x,y,z
1/2-x,1/2-y,1/2+z
1/2+x,1/2-y,-z
-x,y,1/2-z
-x,-y,-z
1/2+x,1/2+y,1/2-z
1/2-x,1/2+y,z
x,-y,1/2+z
loop_
_atom_site_type_symbol
_atom_site_label
_atom_site_fract_x
_atom_site_fract_y
_atom_site_fract_z
Si Si1 0.661647 0.940724 0.530270
Si Si2 0.156881 0.562963 0.024806
Si Si3 0.849595 0.405837 0.751329
Si Si4 0.483789 0.286626 0.075314
Si Si5 0.760819 0.849808 0.133618
Si Si6 0.500000 0.801506 0.750000
Si Si7 0.981684 0.272418 0.134084
Si Si8 0.726308 0.851736 0.370867
O O1 0.502804 0.930898 0.526167
O O2 0.710926 0.925026 0.644470
O O3 0.722612 0.902064 0.445386
O O4 0.685312 0.002334 0.505858
O O5 0.207788 0.576364 0.139853
O O6 0.215633 0.604219 0.943457
O O7 0.876387 0.342258 0.749871
O O8 0.000000 0.428990 0.750000
O O9 0.594395 0.328661 0.108531
O O10 0.498902 0.235296 0.149643
O O11 0.341374 0.311717 0.095457
O O12 0.500894 0.268983 0.957550
O O13 0.660943 0.799815 0.122968
O O14 0.749063 0.867517 0.252227
O O15 0.088941 0.319642 0.123076
O O16 0.000000 0.250655 0.250000
#
# Coordination Sequence:
#
# PCOD9454083 Si02
#       8
#     8   8   8   8   8   4   8   8
#     4  10  20  36  60  87 117 151 188 248 300 337
#     4  10  20  36  60  87 117 151 188 248 300 337
#     4   8  18  34  53  84 116 149 195 228 288 348
#     4  12  22  40  59  82 121 168 195 223 294 358
#     4  11  22  39  59  89 118 152 199 240 287 354
#     4  10  18  34  56  76 114 158 196 218 268 364
#     4  10  22  38  56  89 119 154 196 250 287 322
#     4  11  22  39  59  89 118 152 199 240 287 354
#
# _framework density 18.153677999999999
#
# number of rings (size 3 to 8) (size 9 to 14) (size 15 to 20)
#    0.400    1.333    2.667    2.400    1.867    0.000 
#    2.400    0.667    0.000    0.000    0.000    0.000 
#    0.000    0.000    0.000    0.000    0.000    0.000 
#
# Total GULP energy -334821.101396 kJ/mol
# GULP energy per Si atom -5580.351690 kJ/mol
# Density = 1.811236 g / cm^3
# Si number density = 18.153678 Si / 1000 Ang^3
#
#
#
# Elastic Constant Matrix: (Units=GPa)
#
#
# Indices 1 2 3 4 5 6 
#
# 1 16.9249 -1.3077 3.7972 0.0000 0.0000 0.0000
# 2 -1.3077 80.1337 68.7231 0.0000 0.0000 0.0000
# 3 3.7972 68.7231 175.3011 0.0000 0.0000 0.0000
# 4 0.0000 0.0000 0.0000 7.2817 0.0000 0.0000
# 5 0.0000 0.0000 0.0000 0.0000 13.9961 0.0000
# 6 0.0000 0.0000 0.0000 0.0000 0.0000 -7.7012
#
#
#
# Elastic Compliance Matrix: (Units=1/GPa)
#
#
# Indices 1 2 3 4 5 6 
#
# 1 0.059896 0.003149 -0.002532 0.000000 0.000000 0.000000
# 2 0.003149 0.018965 -0.007503 0.000000 0.000000 0.000000
# 3 -0.002532 -0.007503 0.008701 0.000000 0.000000 0.000000
# 4 0.000000 0.000000 0.000000 0.137331 0.000000 0.000000
# 5 0.000000 0.000000 0.000000 0.000000 0.071449 0.000000
# 6 0.000000 0.000000 0.000000 0.000000 0.000000 -0.129851
#
#
# Mechanical properties :
#
#
# Convention : Reuss Voigt Hill
#
# Bulk Modulus (GPa) = 13.55208 46.08720 29.81964
# Shear Modulus (GPa) = 24.40695 16.12512 20.26604
#
# Velocity S-wave (km/s) = 3.67067 2.98360 3.34482
# Velocity P-wave (km/s) = 5.04445 6.10831 5.60170
#
# Compressibility (1/GPa) = 0.07378943
#
# Stress axis : x y z
#
# Youngs Moduli (GPa) = 16.69566 52.72800 114.93249
#
# Poissons Ratio (x) = -0.16603 0.29098
# Poissons Ratio (y) = -0.05257 0.86235
# Poissons Ratio (z) = 0.04227 0.39563
#
# Static dielectric constant tensor:
#      x y z
#    x 1.605300 0.000000 0.000000 
#    y 0.000000 1.584730 0.000000 
#    z 0.000000 0.000000 1.636230 
# 
# From -- ./inp_files/10316.got.cif
#   From: 2010.05.17/outbox.cif.g08.bks.cpg/sg60_6_cif.got.tgz:10316.got - 2010.06.03 14:59:27.
