data_PCOD9454848
_publ_section_title
;
Structure prediction by ZEFSAII (Michael W. Deem and Ramdas Pophale) SiO2 
 PCOD9454848
Probable space group: P B C N
;
_chemical_formula_sum "Si O2"
_cell_formula_units_Z 36
_cell_length_a 7.727494
_cell_length_b 12.999220
_cell_length_c 13.690318
_cell_angle_alpha 90.000000
_cell_angle_beta 90.000000
_cell_angle_gamma 90.000000
_cell_volume 1375.211535
_symmetry_space_group_name_H-M "P B C N"
_symmetry_group_IT_number 60
_symmetry_cell_setting 'orthorhombic'
loop_
_space_group_symop_operation_xyz
x,y,z
1/2-x,1/2-y,1/2+z
1/2+x,1/2-y,-z
-x,y,1/2-z
-x,-y,-z
1/2+x,1/2+y,1/2-z
1/2-x,1/2+y,z
x,-y,1/2+z
loop_
_atom_site_type_symbol
_atom_site_label
_atom_site_fract_x
_atom_site_fract_y
_atom_site_fract_z
Si Si1 0.500000 0.432622 0.250000
Si Si2 0.740417 0.080644 0.369840
Si Si3 0.125764 0.620153 0.578214
Si Si4 0.245693 0.238306 0.765964
Si Si5 0.057084 0.191425 0.455411
O O1 0.370521 0.506466 0.192485
O O2 0.382235 0.349052 0.308489
O O3 0.598912 0.000066 0.407148
O O4 0.669834 0.170850 0.301477
O O5 0.875635 0.132265 0.445015
O O6 0.145129 0.674284 0.684515
O O7 0.309845 0.636418 0.525802
O O8 0.990757 0.690516 0.519633
O O9 0.348764 0.296133 0.850640
#
# Coordination Sequence:
#
# PCOD9454848 Si02
#       5
#     4   8   8   8   8
#     4  10  20  38  70  94 124 176 218 266 332 382
#     4  10  19  42  62  93 129 179 216 266 335 385
#     4  10  23  38  66  95 129 175 221 266 332 390
#     4  10  22  41  66  92 133 171 225 264 330 395
#     4  11  22  43  66  94 136 176 218 279 326 393
#
# _framework density 26.177793000000001
#
# number of rings (size 3 to 8) (size 9 to 14) (size 15 to 20)
#    0.000    1.778    2.222    2.667    6.222    0.000 
#    8.000    4.444    0.000    0.000    0.000    0.000 
#    0.000    0.000    0.000    0.000    0.000    0.000 
#
# Total GULP energy -201315.480612 kJ/mol
# GULP energy per Si atom -5592.096684 kJ/mol
# Density = 2.611821 g / cm^3
# Si number density = 26.177793 Si / 1000 Ang^3
#
#
#
# Elastic Constant Matrix: (Units=GPa)
#
#
# Indices 1 2 3 4 5 6 
#
# 1 38.7235 -3.8564 18.9562 0.0000 0.0000 0.0000
# 2 -3.8564 178.1316 28.6056 0.0000 0.0000 0.0000
# 3 18.9562 28.6056 85.9735 0.0000 0.0000 0.0000
# 4 0.0000 0.0000 0.0000 17.3735 0.0000 0.0000
# 5 0.0000 0.0000 0.0000 0.0000 45.4144 0.0000
# 6 0.0000 0.0000 0.0000 0.0000 0.0000 51.2141
#
#
#
# Elastic Compliance Matrix: (Units=1/GPa)
#
#
# Indices 1 2 3 4 5 6 
#
# 1 0.029471 0.001776 -0.007089 0.000000 0.000000 0.000000
# 2 0.001776 0.006038 -0.002401 0.000000 0.000000 0.000000
# 3 -0.007089 -0.002401 0.013993 0.000000 0.000000 0.000000
# 4 0.000000 0.000000 0.000000 0.057559 0.000000 0.000000
# 5 0.000000 0.000000 0.000000 0.000000 0.022019 0.000000
# 6 0.000000 0.000000 0.000000 0.000000 0.000000 0.019526
#
#
# Mechanical properties :
#
#
# Convention : Reuss Voigt Hill
#
# Bulk Modulus (GPa) = 29.34634 43.35995 36.35315
# Shear Modulus (GPa) = 28.50756 40.07528 34.29142
#
# Velocity S-wave (km/s) = 3.30358 3.91690 3.62324
# Velocity P-wave (km/s) = 5.07801 6.08734 5.60544
#
# Compressibility (1/GPa) = 0.03407580
#
# Stress axis : x y z
#
# Youngs Moduli (GPa) = 33.93122 165.62341 71.46262
#
# Poissons Ratio (x) = -0.29422 0.50661
# Poissons Ratio (y) = -0.06028 0.17155
# Poissons Ratio (z) = 0.24055 0.39760
#
# Static dielectric constant tensor:
#      x y z
#    x 2.150680 0.000000 0.000000 
#    y 0.000000 2.021530 0.000000 
#    z 0.000000 0.000000 2.052990 
# 
# From -- ./inp_files/19124.got.cif
#   From: 2010.05.17/outbox.cif.g08.bks.cpg/sg60_10_cif.got.tgz:19124.got - 2010.06.03 14:59:27.
