data_PCOD9454687
_publ_section_title
;
Structure prediction by ZEFSAII (Michael W. Deem and Ramdas Pophale) SiO2 
 PCOD9454687
Probable space group: P B C N
;
_chemical_formula_sum "Si O2"
_cell_formula_units_Z 56
_cell_length_a 22.210608
_cell_length_b 20.332029
_cell_length_c 5.417869
_cell_angle_alpha 90.000000
_cell_angle_beta 90.000000
_cell_angle_gamma 90.000000
_cell_volume 2446.637723
_symmetry_space_group_name_H-M "P B C N"
_symmetry_group_IT_number 60
_symmetry_cell_setting 'orthorhombic'
loop_
_space_group_symop_operation_xyz
x,y,z
1/2-x,1/2-y,1/2+z
1/2+x,1/2-y,-z
-x,y,1/2-z
-x,-y,-z
1/2+x,1/2+y,1/2-z
1/2-x,1/2+y,z
x,-y,1/2+z
loop_
_atom_site_type_symbol
_atom_site_label
_atom_site_fract_x
_atom_site_fract_y
_atom_site_fract_z
Si Si1 0.293416 0.349131 0.980536
Si Si2 0.032970 0.784595 0.498571
Si Si3 0.533938 0.876445 0.500154
Si Si4 0.170520 0.783248 0.485450
Si Si5 0.831944 0.629128 0.878233
Si Si6 0.645432 0.483592 0.523349
Si Si7 0.216034 0.535112 0.962658
O O1 0.302183 0.301460 0.217372
O O2 0.230886 0.388314 0.992915
O O3 0.296461 0.315902 0.716076
O O4 0.341257 0.406848 0.997446
O O5 0.032821 0.703945 0.496675
O O6 0.101715 0.806956 0.489252
O O7 0.000000 0.805879 0.250000
O O8 0.000000 0.804533 0.750000
O O9 0.500000 0.898270 0.750000
O O10 0.603869 0.895992 0.471076
O O11 0.500000 0.897251 0.250000
O O12 0.167665 0.706758 0.560185
O O13 0.814940 0.605892 0.598637
O O14 0.613294 0.504875 0.278072
O O15 0.709877 0.526756 0.534190
O O16 0.194769 0.496215 0.717006
#
# Coordination Sequence:
#
# PCOD9454687 Si02
#       7
#     8   8   8   8   8   8   8
#     4  12  23  37  56  87 130 152 186 239 300 366
#     4   9  17  35  58  75 111 158 195 228 271 341
#     4   9  20  36  55  81 104 147 208 245 278 340
#     4  11  25  36  54  95 126 150 190 233 303 359
#     4  11  23  39  62  81 122 165 185 243 306 356
#     4  10  19  37  57  78 108 157 205 234 265 341
#     4  10  21  36  58  82 100 152 217 234 270 347
#
# _framework density 22.888553000000002
#
# number of rings (size 3 to 8) (size 9 to 14) (size 15 to 20)
#    0.000    1.714    2.857    2.571    2.000    6.857 
#    0.000    0.000    0.000    2.571    0.000    0.000 
#    0.000   40.000    0.000    0.000    0.000    0.000 
#
# Total GULP energy -312415.745624 kJ/mol
# GULP energy per Si atom -5578.852600 kJ/mol
# Density = 2.283646 g / cm^3
# Si number density = 22.888553 Si / 1000 Ang^3
#
#
#
# Elastic Constant Matrix: (Units=GPa)
#
#
# Indices 1 2 3 4 5 6 
#
# 1 91.5007 -10.5103 50.6660 0.0000 0.0000 0.0000
# 2 -10.5103 52.3724 28.8181 0.0000 0.0000 0.0000
# 3 50.6660 28.8181 200.5188 0.0000 0.0000 0.0000
# 4 0.0000 0.0000 0.0000 42.6075 0.0000 0.0000
# 5 0.0000 0.0000 0.0000 0.0000 21.5777 0.0000
# 6 0.0000 0.0000 0.0000 0.0000 0.0000 2.8596
#
#
#
# Elastic Compliance Matrix: (Units=1/GPa)
#
#
# Indices 1 2 3 4 5 6 
#
# 1 0.013863 0.005114 -0.004238 0.000000 0.000000 0.000000
# 2 0.005114 0.022620 -0.004543 0.000000 0.000000 0.000000
# 3 -0.004238 -0.004543 0.006711 0.000000 0.000000 0.000000
# 4 0.000000 0.000000 0.000000 0.023470 0.000000 0.000000
# 5 0.000000 0.000000 0.000000 0.000000 0.046344 0.000000
# 6 0.000000 0.000000 0.000000 0.000000 0.000000 0.349703
#
#
# Mechanical properties :
#
#
# Convention : Reuss Voigt Hill
#
# Bulk Modulus (GPa) = 27.88634 53.59329 40.73982
# Shear Modulus (GPa) = 10.37348 31.77017 21.07183
#
# Velocity S-wave (km/s) = 2.13120 3.72968 3.03748
# Velocity P-wave (km/s) = 4.27387 6.48175 5.48995
#
# Compressibility (1/GPa) = 0.03585985
#
# Stress axis : x y z
#
# Youngs Moduli (GPa) = 72.13540 44.20841 149.01464
#
# Poissons Ratio (x) = -0.22608 0.63148
# Poissons Ratio (y) = -0.36889 0.67698
# Poissons Ratio (z) = 0.30569 0.20084
#
# Static dielectric constant tensor:
#      x y z
#    x 1.854610 0.000000 0.000000 
#    y 0.000000 1.955660 0.000000 
#    z 0.000000 0.000000 1.918000 
# 
# From -- ./inp_files/2135.got.cif
#   From: 2010.05.17/outbox.cif.g08.bks.cpg/sg60_2_cif.got.tgz:2135.got - 2010.06.03 14:59:27.
