data_PCOD9454228
_publ_section_title
;
Structure prediction by ZEFSAII (Michael W. Deem and Ramdas Pophale) SiO2 
 PCOD9454228
Probable space group: P B C N
;
_chemical_formula_sum "Si O2"
_cell_formula_units_Z 28
_cell_length_a 15.396196
_cell_length_b 9.299414
_cell_length_c 8.054467
_cell_angle_alpha 90.000000
_cell_angle_beta 90.000000
_cell_angle_gamma 90.000000
_cell_volume 1153.203150
_symmetry_space_group_name_H-M "P B C N"
_symmetry_group_IT_number 60
_symmetry_cell_setting 'orthorhombic'
loop_
_space_group_symop_operation_xyz
x,y,z
1/2-x,1/2-y,1/2+z
1/2+x,1/2-y,-z
-x,y,1/2-z
-x,-y,-z
1/2+x,1/2+y,1/2-z
1/2-x,1/2+y,z
x,-y,1/2+z
loop_
_atom_site_type_symbol
_atom_site_label
_atom_site_fract_x
_atom_site_fract_y
_atom_site_fract_z
Si Si1 0.337021 0.143041 0.309151
Si Si2 0.500000 0.404008 0.750000
Si Si3 0.893267 0.858104 0.445409
Si Si4 0.296408 0.849129 0.157128
O O1 0.245085 0.217975 0.257154
O O2 0.331614 0.974443 0.273656
O O3 0.398927 0.221963 0.177557
O O4 0.357175 0.182277 0.499638
O O5 0.558443 0.508904 0.861420
O O6 0.563506 0.324379 0.622071
O O7 0.791815 0.904549 0.437545
#
# Coordination Sequence:
#
# PCOD9454228 Si02
#       4
#     8   4   8   8
#     4  10  21  34  57  89 114 140 186 230 303 315
#     4  10  18  40  54  82 114 150 204 210 264 346
#     4   9  22  33  60  83 109 152 185 235 268 331
#     4  10  20  36  56  91 108 145 179 240 289 332
#
# _framework density 24.280196
#
# number of rings (size 3 to 8) (size 9 to 14) (size 15 to 20)
#    1.714    0.571    0.000    3.429    4.000    0.000 
#    0.000    0.000    0.000    5.143    0.000    0.000 
#    0.000    0.000    0.000    0.000    0.000    0.000 
#
# Total GULP energy -156244.856142 kJ/mol
# GULP energy per Si atom -5580.173434 kJ/mol
# Density = 2.422493 g / cm^3
# Si number density = 24.280196 Si / 1000 Ang^3
#
#
#
# Elastic Constant Matrix: (Units=GPa)
#
#
# Indices 1 2 3 4 5 6 
#
# 1 49.7681 -8.8881 -23.5834 0.0000 0.0000 0.0000
# 2 -8.8881 70.5962 20.4947 0.0000 0.0000 0.0000
# 3 -23.5834 20.4947 80.6433 0.0000 0.0000 0.0000
# 4 0.0000 0.0000 0.0000 40.3838 0.0000 0.0000
# 5 0.0000 0.0000 0.0000 0.0000 41.6895 0.0000
# 6 0.0000 0.0000 0.0000 0.0000 0.0000 -1.9328
#
#
#
# Elastic Compliance Matrix: (Units=1/GPa)
#
#
# Indices 1 2 3 4 5 6 
#
# 1 0.023396 0.001036 0.006579 0.000000 0.000000 0.000000
# 2 0.001036 0.015339 -0.003595 0.000000 0.000000 0.000000
# 3 0.006579 -0.003595 0.015238 0.000000 0.000000 0.000000
# 4 0.000000 0.000000 0.000000 0.024762 0.000000 0.000000
# 5 0.000000 0.000000 0.000000 0.000000 0.023987 0.000000
# 6 0.000000 0.000000 0.000000 0.000000 0.000000 -0.517391
#
#
# Mechanical properties :
#
#
# Convention : Reuss Voigt Hill
#
# Bulk Modulus (GPa) = 16.12633 19.67266 17.89950
# Shear Modulus (GPa) = -12.43667 30.22707 8.89520
#
# Velocity S-wave (km/s) = -2.26567 3.53218 1.91612
# Velocity P-wave (km/s) = 0.43379 4.97544 3.50477
#
# Compressibility (1/GPa) = 0.06201038
#
# Stress axis : x y z
#
# Youngs Moduli (GPa) = 42.74318 65.19218 65.62594
#
# Poissons Ratio (x) = -0.06752 -0.43173
# Poissons Ratio (y) = -0.04427 0.23595
# Poissons Ratio (z) = -0.28119 0.23439
#
# Static dielectric constant tensor:
#      x y z
#    x 2.022320 0.000000 0.000000 
#    y 0.000000 1.862910 0.000000 
#    z 0.000000 0.000000 1.994990 
# 
# From -- ./inp_files/5421.got.cif
#   From: 2010.05.17/outbox.cif.g08.bks.cpg/sg60_3_cif.got.tgz:5421.got - 2010.06.03 14:59:27.
