data_PCOD9454841
_publ_section_title
;
Structure prediction by ZEFSAII (Michael W. Deem and Ramdas Pophale) SiO2 
 PCOD9454841
Probable space group: P B C N
;
_chemical_formula_sum "Si O2"
_cell_formula_units_Z 56
_cell_length_a 15.210277
_cell_length_b 5.298292
_cell_length_c 27.275969
_cell_angle_alpha 90.000000
_cell_angle_beta 90.000000
_cell_angle_gamma 90.000000
_cell_volume 2198.129126
_symmetry_space_group_name_H-M "P B C N"
_symmetry_group_IT_number 60
_symmetry_cell_setting 'orthorhombic'
loop_
_space_group_symop_operation_xyz
x,y,z
1/2-x,1/2-y,1/2+z
1/2+x,1/2-y,-z
-x,y,1/2-z
-x,-y,-z
1/2+x,1/2+y,1/2-z
1/2-x,1/2+y,z
x,-y,1/2+z
loop_
_atom_site_type_symbol
_atom_site_label
_atom_site_fract_x
_atom_site_fract_y
_atom_site_fract_z
Si Si1 0.000000 0.500000 0.500000
Si Si2 0.210388 0.453184 0.379124
Si Si3 0.972777 0.768418 0.600325
Si Si4 0.268818 0.326000 0.132950
Si Si5 0.965178 0.723564 0.352720
Si Si6 0.696768 0.809534 0.259437
Si Si7 0.000000 0.503266 0.250000
Si Si8 0.295587 0.018613 0.997264
O O1 0.970855 0.713670 0.542555
O O2 0.895243 0.442739 0.490532
O O3 0.221925 0.739052 0.360898
O O4 0.116427 0.322257 0.372744
O O5 0.215763 0.482296 0.437748
O O6 0.037010 0.549055 0.620866
O O7 0.989038 0.059291 0.614387
O O8 0.251799 0.074033 0.104323
O O9 0.367187 0.324181 0.151922
O O10 0.208260 0.316226 0.181375
O O11 0.001370 0.675400 0.298626
O O12 0.755526 0.051233 0.242897
O O13 0.592555 0.847467 0.249729
O O14 0.272330 0.301610 0.012456
#
# Coordination Sequence:
#
# PCOD9454841 Si02
#       8
#     4   8   8   8   8   8   4   8
#     4  10  24  48  74  96 154 188 228 318 358 418
#     4   9  17  36  64  86 128 176 216 289 355 400
#     4  11  26  44  68 108 135 189 248 286 367 439
#     4  10  19  41  66  93 138 187 223 292 355 408
#     4  12  26  43  69 105 140 185 245 290 357 440
#     4  10  22  41  68 102 133 191 237 286 365 417
#     4  12  26  46  78  98 148 198 236 308 354 436
#     4   9  19  35  63  97 125 174 232 272 351 425
#
# _framework density 25.476209000000001
#
# number of rings (size 3 to 8) (size 9 to 14) (size 15 to 20)
#    0.000    1.714    2.857    1.714    2.000    8.000 
#    0.000    8.571    0.000    0.000    0.000    0.000 
#    0.000    0.000    0.000    0.000    0.000    0.000 
#
# Total GULP energy -312020.280627 kJ/mol
# GULP energy per Si atom -5571.790725 kJ/mol
# Density = 2.541822 g / cm^3
# Si number density = 25.476209 Si / 1000 Ang^3
#
#
#
# Elastic Constant Matrix: (Units=GPa)
#
#
# Indices 1 2 3 4 5 6 
#
# 1 141.2258 47.2782 -25.8188 0.0000 0.0000 0.0000
# 2 47.2782 139.1232 10.6256 0.0000 0.0000 0.0000
# 3 -25.8188 10.6256 85.3247 0.0000 0.0000 0.0000
# 4 0.0000 0.0000 0.0000 30.0576 0.0000 0.0000
# 5 0.0000 0.0000 0.0000 0.0000 -15.4374 0.0000
# 6 0.0000 0.0000 0.0000 0.0000 0.0000 -82.0541
#
#
#
# Elastic Compliance Matrix: (Units=1/GPa)
#
#
# Indices 1 2 3 4 5 6 
#
# 1 0.008702 -0.003189 0.003030 0.000000 0.000000 0.000000
# 2 -0.003189 0.008425 -0.002014 0.000000 0.000000 0.000000
# 3 0.003030 -0.002014 0.012888 0.000000 0.000000 0.000000
# 4 0.000000 0.000000 0.000000 0.033269 0.000000 0.000000
# 5 0.000000 0.000000 0.000000 0.000000 -0.064778 0.000000
# 6 0.000000 0.000000 0.000000 0.000000 0.000000 -0.012187
#
#
# Mechanical properties :
#
#
# Convention : Reuss Voigt Hill
#
# Bulk Modulus (GPa) = 38.95528 47.76041 43.35785
# Shear Modulus (GPa) = -6428.02067 8.75244 -3209.63411
#
# Velocity S-wave (km/s) = -50.28543 1.85553 -35.53295
# Velocity P-wave (km/s) = 57.93250 4.83512 40.82154
#
# Compressibility (1/GPa) = 0.02567046
#
# Stress axis : x y z
#
# Youngs Moduli (GPa) = 114.91103 118.68950 77.59311
#
# Poissons Ratio (x) = 0.37847 -0.23514
# Poissons Ratio (y) = 0.36643 0.15628
# Poissons Ratio (z) = -0.34823 0.23906
#
# Static dielectric constant tensor:
#      x y z
#    x 0.482280 0.000000 0.000000 
#    y 0.000000 2.053470 0.000000 
#    z 0.000000 0.000000 2.058730 
# 
# From -- ./inp_files/26162.got.cif
#   From: 2010.05.17/outbox.cif.g08.bks.cpg/sg60_14_cif.got.tgz:26162.got - 2010.06.03 14:59:27.
