data_PCOD9454062
_publ_section_title
;
Structure prediction by ZEFSAII (Michael W. Deem and Ramdas Pophale) SiO2 
 PCOD9454062
Probable space group: P B C N
;
_chemical_formula_sum "Si O2"
_cell_formula_units_Z 56
_cell_length_a 9.478301
_cell_length_b 16.591939
_cell_length_c 20.103328
_cell_angle_alpha 90.000000
_cell_angle_beta 90.000000
_cell_angle_gamma 90.000000
_cell_volume 3161.517552
_symmetry_space_group_name_H-M "P B C N"
_symmetry_group_IT_number 60
_symmetry_cell_setting 'orthorhombic'
loop_
_space_group_symop_operation_xyz
x,y,z
1/2-x,1/2-y,1/2+z
1/2+x,1/2-y,-z
-x,y,1/2-z
-x,-y,-z
1/2+x,1/2+y,1/2-z
1/2-x,1/2+y,z
x,-y,1/2+z
loop_
_atom_site_type_symbol
_atom_site_label
_atom_site_fract_x
_atom_site_fract_y
_atom_site_fract_z
Si Si1 0.226170 0.397670 0.939702
Si Si2 0.102418 0.603477 0.302685
Si Si3 0.642607 0.547996 0.286598
Si Si4 0.306019 0.066667 0.004682
Si Si5 0.048175 0.670715 0.557026
Si Si6 0.109055 0.475867 0.139843
Si Si7 0.449331 0.640358 0.082189
O O1 0.142104 0.364414 0.875528
O O2 0.201033 0.493276 0.952245
O O3 0.391485 0.387559 0.929186
O O4 0.171085 0.351872 0.004765
O O5 0.250058 0.586805 0.266465
O O6 0.000000 0.648807 0.250000
O O7 0.010562 0.523445 0.319768
O O8 0.500000 0.520909 0.250000
O O9 0.741473 0.481782 0.322356
O O10 0.601603 0.610193 0.345280
O O11 0.405192 0.137683 0.977628
O O12 0.155731 0.100479 0.028175
O O13 0.372667 0.025688 0.070759
O O14 0.069465 0.614166 0.621025
O O15 0.051912 0.763716 0.574486
#
# Coordination Sequence:
#
# PCOD9454062 Si02
#       7
#     8   8   8   8   8   8   8
#     4  11  19  36  59  83 110 149 191 224 274 338
#     4  10  18  33  59  82  99 145 202 224 256 328
#     4  10  20  35  56  78 108 146 191 229 270 331
#     4  10  19  35  58  83 108 144 186 225 271 336
#     4  11  20  36  57  85 115 142 179 237 291 332
#     4   9  18  35  59  81 100 143 192 233 262 331
#     4  11  23  34  53  88 120 143 173 238 296 326
#
# _framework density 17.713011999999999
#
# number of rings (size 3 to 8) (size 9 to 14) (size 15 to 20)
#    0.000    1.714    4.286    2.143    0.000    0.000 
#    0.000    2.143    0.000    4.286    0.000    0.000 
#    0.000    0.000    0.000    0.000    0.000    0.000 
#
# Total GULP energy -312136.318964 kJ/mol
# GULP energy per Si atom -5573.862839 kJ/mol
# Density = 1.767270 g / cm^3
# Si number density = 17.713012 Si / 1000 Ang^3
#
#
#
# Elastic Constant Matrix: (Units=GPa)
#
#
# Indices 1 2 3 4 5 6 
#
# 1 123.5360 19.4541 30.1790 0.0000 0.0000 0.0000
# 2 19.4541 55.8257 17.5291 0.0000 0.0000 0.0000
# 3 30.1790 17.5291 67.4677 0.0000 0.0000 0.0000
# 4 0.0000 0.0000 0.0000 7.6354 0.0000 0.0000
# 5 0.0000 0.0000 0.0000 0.0000 3.7562 0.0000
# 6 0.0000 0.0000 0.0000 0.0000 0.0000 21.1074
#
#
#
# Elastic Compliance Matrix: (Units=1/GPa)
#
#
# Indices 1 2 3 4 5 6 
#
# 1 0.009310 -0.002109 -0.003617 0.000000 0.000000 0.000000
# 2 -0.002109 0.019982 -0.004248 0.000000 0.000000 0.000000
# 3 -0.003617 -0.004248 0.017543 0.000000 0.000000 0.000000
# 4 0.000000 0.000000 0.000000 0.130970 0.000000 0.000000
# 5 0.000000 0.000000 0.000000 0.000000 0.266225 0.000000
# 6 0.000000 0.000000 0.000000 0.000000 0.000000 0.047377
#
#
# Mechanical properties :
#
#
# Convention : Reuss Voigt Hill
#
# Bulk Modulus (GPa) = 37.19138 42.35044 39.77091
# Shear Modulus (GPa) = 9.60952 18.47761 14.04357
#
# Velocity S-wave (km/s) = 2.33172 3.23331 2.81879
# Velocity P-wave (km/s) = 5.31897 6.15631 5.75290
#
# Compressibility (1/GPa) = 0.02688795
#
# Stress axis : x y z
#
# Youngs Moduli (GPa) = 107.40619 50.04576 57.00128
#
# Poissons Ratio (x) = 0.10554 0.20616
# Poissons Ratio (y) = 0.22650 0.24216
# Poissons Ratio (z) = 0.38846 0.21261
#
# Static dielectric constant tensor:
#      x y z
#    x 1.619520 0.000000 0.000000 
#    y 0.000000 1.565140 0.000000 
#    z 0.000000 0.000000 1.646370 
# 
# From -- ./inp_files/22300.got.cif
#   From: 2010.05.17/outbox.cif.g08.bks.cpg/sg60_12_cif.got.tgz:22300.got - 2010.06.03 14:59:27.
