data_PCOD9454057
_publ_section_title
;
Structure prediction by ZEFSAII (Michael W. Deem and Ramdas Pophale) SiO2 
 PCOD9454057
Probable space group: P B C N
;
_chemical_formula_sum "Si O2"
_cell_formula_units_Z 60
_cell_length_a 13.267718
_cell_length_b 7.714539
_cell_length_c 24.151779
_cell_angle_alpha 90.000000
_cell_angle_beta 90.000000
_cell_angle_gamma 90.000000
_cell_volume 2472.039108
_symmetry_space_group_name_H-M "P B C N"
_symmetry_group_IT_number 60
_symmetry_cell_setting 'orthorhombic'
loop_
_space_group_symop_operation_xyz
x,y,z
1/2-x,1/2-y,1/2+z
1/2+x,1/2-y,-z
-x,y,1/2-z
-x,-y,-z
1/2+x,1/2+y,1/2-z
1/2-x,1/2+y,z
x,-y,1/2+z
loop_
_atom_site_type_symbol
_atom_site_label
_atom_site_fract_x
_atom_site_fract_y
_atom_site_fract_z
Si Si1 0.820930 0.507841 0.553205
Si Si2 0.673061 0.573125 0.248601
Si Si3 0.859366 0.169093 0.495575
Si Si4 0.154789 0.183660 0.370426
Si Si5 0.898065 0.678836 0.359283
Si Si6 0.810220 0.640348 0.825431
Si Si7 0.489796 0.516792 0.580916
Si Si8 0.500000 0.706059 0.750000
O O1 0.877502 0.363020 0.517247
O O2 0.755345 0.619279 0.509155
O O3 0.745464 0.402216 0.594164
O O4 0.872119 0.641941 0.595675
O O5 0.632356 0.704281 0.295518
O O6 0.690790 0.682295 0.192869
O O7 0.772871 0.490222 0.276183
O O8 0.596081 0.417114 0.239693
O O9 0.899736 0.111310 0.436183
O O10 0.925055 0.040632 0.534149
O O11 0.055466 0.065551 0.370746
O O12 0.792958 0.782263 0.349767
O O13 0.951225 0.792439 0.405624
O O14 0.969100 0.689110 0.304812
O O15 0.869886 0.479743 0.367745
#
# Coordination Sequence:
#
# PCOD9454057 Si02
#       8
#     8   8   8   8   8   8   8   4
#     4   9  19  35  54  81 110 141 191 223 282 328
#     4  10  18  35  52  79 105 148 177 232 263 323
#     4   9  20  37  55  82 109 146 183 238 273 338
#     4  10  18  33  57  81 109 146 182 232 268 336
#     4  10  20  39  53  81 107 151 178 233 267 340
#     4   9  21  35  55  75 113 142 192 216 273 330
#     4  10  20  36  58  79 114 144 185 229 291 318
#     4  10  20  34  56  74 114 136 182 220 278 312
#
# _framework density 24.271460000000001
#
# number of rings (size 3 to 8) (size 9 to 14) (size 15 to 20)
#    0.000    2.400    1.333    0.800    0.000    2.133 
#    7.200    0.000    0.000    0.000    0.000    0.000 
#    0.000    0.000    0.000    0.000    0.000    0.000 
#
# Total GULP energy -335002.352107 kJ/mol
# GULP energy per Si atom -5583.372535 kJ/mol
# Density = 2.421622 g / cm^3
# Si number density = 24.271460 Si / 1000 Ang^3
#
#
#
# Elastic Constant Matrix: (Units=GPa)
#
#
# Indices 1 2 3 4 5 6 
#
# 1 43.2537 5.4218 0.9524 0.0000 0.0000 0.0000
# 2 5.4218 70.9541 -10.2313 0.0000 0.0000 0.0000
# 3 0.9524 -10.2313 27.1800 0.0000 0.0000 0.0000
# 4 0.0000 0.0000 0.0000 26.2232 0.0000 0.0000
# 5 0.0000 0.0000 0.0000 0.0000 19.7765 0.0000
# 6 0.0000 0.0000 0.0000 0.0000 0.0000 5.2430
#
#
#
# Elastic Compliance Matrix: (Units=1/GPa)
#
#
# Indices 1 2 3 4 5 6 
#
# 1 0.023407 -0.002016 -0.001579 0.000000 0.000000 0.000000
# 2 -0.002016 0.015076 0.005746 0.000000 0.000000 0.000000
# 3 -0.001579 0.005746 0.039010 0.000000 0.000000 0.000000
# 4 0.000000 0.000000 0.000000 0.038134 0.000000 0.000000
# 5 0.000000 0.000000 0.000000 0.000000 0.050565 0.000000
# 6 0.000000 0.000000 0.000000 0.000000 0.000000 0.190732
#
#
# Mechanical properties :
#
#
# Convention : Reuss Voigt Hill
#
# Bulk Modulus (GPa) = 12.22590 14.85262 13.53926
# Shear Modulus (GPa) = 13.16178 19.93152 16.54665
#
# Velocity S-wave (km/s) = 2.33120 2.86875 2.61383
# Velocity P-wave (km/s) = 3.50629 4.13590 3.83404
#
# Compressibility (1/GPa) = 0.08179359
#
# Stress axis : x y z
#
# Youngs Moduli (GPa) = 42.72237 66.32968 25.63447
#
# Poissons Ratio (x) = 0.13374 0.04048
# Poissons Ratio (y) = 0.08614 -0.14729
# Poissons Ratio (z) = 0.06747 -0.38111
#
# Static dielectric constant tensor:
#      x y z
#    x 1.924920 0.000000 0.000000 
#    y 0.000000 1.946410 0.000000 
#    z 0.000000 0.000000 2.020200 
# 
# From -- ./inp_files/24401.got.cif
#   From: 2010.05.17/outbox.cif.g08.bks.cpg/sg60_13_cif.got.tgz:24401.got - 2010.06.03 14:59:27.
