data_PCOD9454378
_publ_section_title
;
Structure prediction by ZEFSAII (Michael W. Deem and Ramdas Pophale) SiO2 
 PCOD9454378
Probable space group: P B C N
;
_chemical_formula_sum "Si O2"
_cell_formula_units_Z 40
_cell_length_a 21.174515
_cell_length_b 17.950121
_cell_length_c 5.106911
_cell_angle_alpha 90.000000
_cell_angle_beta 90.000000
_cell_angle_gamma 90.000000
_cell_volume 1941.060811
_symmetry_space_group_name_H-M "P B C N"
_symmetry_group_IT_number 60
_symmetry_cell_setting 'orthorhombic'
loop_
_space_group_symop_operation_xyz
x,y,z
1/2-x,1/2-y,1/2+z
1/2+x,1/2-y,-z
-x,y,1/2-z
-x,-y,-z
1/2+x,1/2+y,1/2-z
1/2-x,1/2+y,z
x,-y,1/2+z
loop_
_atom_site_type_symbol
_atom_site_label
_atom_site_fract_x
_atom_site_fract_y
_atom_site_fract_z
Si Si1 0.591911 0.315607 0.122589
Si Si2 0.290836 0.250342 0.635631
Si Si3 0.119676 0.679968 0.008531
Si Si4 0.000000 0.723630 0.750000
Si Si5 0.500000 0.553626 0.750000
Si Si6 0.573786 0.048183 0.203836
O O1 0.611391 0.261134 0.359025
O O2 0.561476 0.392302 0.221876
O O3 0.654944 0.310828 0.941481
O O4 0.535513 0.275402 0.960714
O O5 0.258406 0.225333 0.363031
O O6 0.326138 0.184591 0.793862
O O7 0.118773 0.617011 0.225805
O O8 0.053918 0.671438 0.859798
O O9 0.500000 0.500000 0.500000
O O10 0.500000 0.068769 0.250000
O O11 0.585049 0.983945 0.418042
#
# Coordination Sequence:
#
# PCOD9454378 Si02
#       6
#     8   8   8   4   4   8
#     4  11  22  40  67  97 133 173 220 279 336 412
#     4  11  24  41  66  99 122 166 233 294 323 375
#     4  11  22  37  67  90 132 168 220 269 323 390
#     4  10  19  32  62  99 124 158 218 258 335 380
#     4  12  27  42  66 105 146 174 214 276 365 438
#     4  10  23  36  54  90 135 167 198 244 312 383
#
# _framework density 20.607289999999999
#
# number of rings (size 3 to 8) (size 9 to 14) (size 15 to 20)
#    0.000    1.200    4.000    1.800   12.600    0.000 
#    0.000    0.000    0.000    7.200    0.000    0.000 
#    0.000    0.000    0.000    0.000    0.000    0.000 
#
# Total GULP energy -223281.923046 kJ/mol
# GULP energy per Si atom -5582.048076 kJ/mol
# Density = 2.056039 g / cm^3
# Si number density = 20.607290 Si / 1000 Ang^3
#
#
#
# Elastic Constant Matrix: (Units=GPa)
#
#
# Indices 1 2 3 4 5 6 
#
# 1 106.5912 33.9188 41.4880 0.0000 0.0000 0.0000
# 2 33.9188 109.0095 46.0936 0.0000 0.0000 0.0000
# 3 41.4880 46.0936 126.5741 0.0000 0.0000 0.0000
# 4 0.0000 0.0000 0.0000 35.1132 0.0000 0.0000
# 5 0.0000 0.0000 0.0000 0.0000 50.8288 0.0000
# 6 0.0000 0.0000 0.0000 0.0000 0.0000 6.9558
#
#
#
# Elastic Compliance Matrix: (Units=1/GPa)
#
#
# Indices 1 2 3 4 5 6 
#
# 1 0.011216 -0.002288 -0.002843 0.000000 0.000000 0.000000
# 2 -0.002288 0.011310 -0.003369 0.000000 0.000000 0.000000
# 3 -0.002843 -0.003369 0.010059 0.000000 0.000000 0.000000
# 4 0.000000 0.000000 0.000000 0.028479 0.000000 0.000000
# 5 0.000000 0.000000 0.000000 0.000000 0.019674 0.000000
# 6 0.000000 0.000000 0.000000 0.000000 0.000000 0.143765
#
#
# Mechanical properties :
#
#
# Convention : Reuss Voigt Hill
#
# Bulk Modulus (GPa) = 64.16117 65.01951 64.59034
# Shear Modulus (GPa) = 20.26763 33.29119 26.77941
#
# Velocity S-wave (km/s) = 3.13951 4.02370 3.60878
# Velocity P-wave (km/s) = 6.65919 7.29432 6.98398
#
# Compressibility (1/GPa) = 0.01558575
#
# Stress axis : x y z
#
# Youngs Moduli (GPa) = 89.15572 88.41899 99.41096
#
# Poissons Ratio (x) = 0.20228 0.28266
# Poissons Ratio (y) = 0.20396 0.33489
# Poissons Ratio (z) = 0.25350 0.29786
#
# Static dielectric constant tensor:
#      x y z
#    x 1.819150 0.000000 0.000000 
#    y 0.000000 1.741660 0.000000 
#    z 0.000000 0.000000 1.803130 
# 
# From -- ./inp_files/2025.got.cif
#   From: 2010.05.17/outbox.cif.g08.bks.cpg/sg60_2_cif.got.tgz:2025.got - 2010.06.03 14:59:27.
