data_PCOD9454456
_publ_section_title
;
Structure prediction by ZEFSAII (Michael W. Deem and Ramdas Pophale) SiO2 
 PCOD9454456
Probable space group: P B C N
;
_chemical_formula_sum "Si O2"
_cell_formula_units_Z 48
_cell_length_a 19.117781
_cell_length_b 8.558811
_cell_length_c 14.109438
_cell_angle_alpha 90.000000
_cell_angle_beta 90.000000
_cell_angle_gamma 90.000000
_cell_volume 2308.663485
_symmetry_space_group_name_H-M "P B C N"
_symmetry_group_IT_number 60
_symmetry_cell_setting 'orthorhombic'
loop_
_space_group_symop_operation_xyz
x,y,z
1/2-x,1/2-y,1/2+z
1/2+x,1/2-y,-z
-x,y,1/2-z
-x,-y,-z
1/2+x,1/2+y,1/2-z
1/2-x,1/2+y,z
x,-y,1/2+z
loop_
_atom_site_type_symbol
_atom_site_label
_atom_site_fract_x
_atom_site_fract_y
_atom_site_fract_z
Si Si1 0.058524 0.188278 0.034328
Si Si2 0.262578 0.811507 0.231636
Si Si3 0.331626 0.066267 0.553443
Si Si4 0.710468 0.240980 0.553323
Si Si5 0.421657 0.439596 0.885778
Si Si6 0.854443 0.982184 0.808773
O O1 0.093199 0.357370 0.034163
O O2 0.109501 0.074689 0.095922
O O3 0.983321 0.176827 0.083186
O O4 0.058260 0.104587 0.932917
O O5 0.314265 0.912355 0.164571
O O6 0.267719 0.833288 0.344803
O O7 0.291175 0.638048 0.213214
O O8 0.184612 0.852533 0.196408
O O9 0.275594 0.176706 0.498016
O O10 0.319808 0.895242 0.512734
O O11 0.650961 0.368762 0.575404
O O12 0.410131 0.461210 0.774657
#
# Coordination Sequence:
#
# PCOD9454456 Si02
#       6
#     8   8   8   8   8   8
#     4  10  21  36  54  77 107 144 183 222 269 324
#     4  10  20  32  52  80 106 134 174 222 268 320
#     4  11  21  35  56  81 109 141 180 228 274 322
#     4  11  21  35  56  81 109 141 180 228 274 322
#     4  10  21  36  54  77 107 144 183 222 269 324
#     4  10  19  34  54  78 107 138 176 222 273 320
#
# _framework density 20.791248
#
# number of rings (size 3 to 8) (size 9 to 14) (size 15 to 20)
#    0.000    1.667    0.000    7.500    0.000    0.667 
#    0.000    0.000    0.000    0.000    0.000    2.333 
#    0.000    0.000    0.000    0.000    0.000    0.000 
#
# Total GULP energy -268113.953186 kJ/mol
# GULP energy per Si atom -5585.707358 kJ/mol
# Density = 2.074393 g / cm^3
# Si number density = 20.791248 Si / 1000 Ang^3
#
#
#
# Elastic Constant Matrix: (Units=GPa)
#
#
# Indices 1 2 3 4 5 6 
#
# 1 51.4457 -15.5228 -13.6113 0.0000 0.0000 0.0000
# 2 -15.5228 16.3261 14.4967 0.0000 0.0000 0.0000
# 3 -13.6113 14.4967 65.7767 0.0000 0.0000 0.0000
# 4 0.0000 0.0000 0.0000 23.0422 0.0000 0.0000
# 5 0.0000 0.0000 0.0000 0.0000 24.5473 0.0000
# 6 0.0000 0.0000 0.0000 0.0000 0.0000 18.0117
#
#
#
# Elastic Compliance Matrix: (Units=1/GPa)
#
#
# Indices 1 2 3 4 5 6 
#
# 1 0.027258 0.025996 -0.000089 0.000000 0.000000 0.000000
# 2 0.025996 0.100947 -0.016869 0.000000 0.000000 0.000000
# 3 -0.000089 -0.016869 0.018902 0.000000 0.000000 0.000000
# 4 0.000000 0.000000 0.000000 0.043399 0.000000 0.000000
# 5 0.000000 0.000000 0.000000 0.000000 0.040738 0.000000
# 6 0.000000 0.000000 0.000000 0.000000 0.000000 0.055519
#
#
# Mechanical properties :
#
#
# Convention : Reuss Voigt Hill
#
# Bulk Modulus (GPa) = 6.05382 11.58596 8.81989
# Shear Modulus (GPa) = 15.44413 22.99931 19.22172
#
# Velocity S-wave (km/s) = 2.72843 3.32957 3.04387
# Velocity P-wave (km/s) = 3.58382 4.51287 4.07491
#
# Compressibility (1/GPa) = 0.16518496
#
# Stress axis : x y z
#
# Youngs Moduli (GPa) = 36.68604 9.90618 52.90360
#
# Poissons Ratio (x) = -0.25752 0.00469
# Poissons Ratio (y) = -0.95369 0.89241
# Poissons Ratio (z) = 0.00325 0.16710
#
# Static dielectric constant tensor:
#      x y z
#    x 1.746530 0.000000 0.000000 
#    y 0.000000 1.762230 0.000000 
#    z 0.000000 0.000000 1.765690 
# 
# From -- ./inp_files/17320.got.cif
#   From: 2010.05.17/outbox.cif.g08.bks.cpg/sg60_9_cif.got.tgz:17320.got - 2010.06.03 14:59:27.
