data_PCOD9454734
_publ_section_title
;
Structure prediction by ZEFSAII (Michael W. Deem and Ramdas Pophale) SiO2 
 PCOD9454734
Probable space group: P B C N
;
_chemical_formula_sum "Si O2"
_cell_formula_units_Z 56
_cell_length_a 8.975864
_cell_length_b 17.054199
_cell_length_c 14.896403
_cell_angle_alpha 90.000000
_cell_angle_beta 90.000000
_cell_angle_gamma 90.000000
_cell_volume 2280.284331
_symmetry_space_group_name_H-M "P B C N"
_symmetry_group_IT_number 60
_symmetry_cell_setting 'orthorhombic'
loop_
_space_group_symop_operation_xyz
x,y,z
1/2-x,1/2-y,1/2+z
1/2+x,1/2-y,-z
-x,y,1/2-z
-x,-y,-z
1/2+x,1/2+y,1/2-z
1/2-x,1/2+y,z
x,-y,1/2+z
loop_
_atom_site_type_symbol
_atom_site_label
_atom_site_fract_x
_atom_site_fract_y
_atom_site_fract_z
Si Si1 0.659238 0.517133 0.709821
Si Si2 0.162984 0.595717 0.633696
Si Si3 0.388859 0.101595 0.985551
Si Si4 0.663627 0.689961 0.622698
Si Si5 0.156987 0.232802 0.220722
Si Si6 0.335551 0.534703 0.481382
Si Si7 0.556775 0.179658 0.349161
O O1 0.500000 0.495579 0.750000
O O2 0.776936 0.536005 0.789440
O O3 0.640295 0.603651 0.664315
O O4 0.688059 0.458625 0.626166
O O5 0.140385 0.682589 0.673860
O O6 0.285010 0.599944 0.552804
O O7 0.999125 0.578118 0.594542
O O8 0.486766 0.122920 0.071046
O O9 0.278652 0.172680 0.957437
O O10 0.281166 0.031829 0.009332
O O11 0.752912 0.745483 0.690229
O O12 0.507967 0.735873 0.619381
O O13 0.264534 0.180519 0.160588
O O14 0.000000 0.199180 0.250000
O O15 0.500000 0.500000 0.500000
O O16 0.500000 0.160036 0.250000
#
# Coordination Sequence:
#
# PCOD9454734 Si02
#       7
#     8   8   8   8   8   8   8
#     4  10  19  38  67  93 121 172 220 280 336 390
#     4  11  22  41  66  99 133 166 233 283 322 405
#     4  11  24  40  63  98 131 177 221 273 346 403
#     4   9  19  35  61  89 121 162 216 265 321 388
#     4  10  19  37  67  96 122 169 222 271 319 383
#     4  11  24  42  63  95 134 173 228 283 344 409
#     4  10  23  42  61  93 139 174 213 272 340 407
#
# _framework density 24.558340999999999
#
# number of rings (size 3 to 8) (size 9 to 14) (size 15 to 20)
#    0.000    1.714    2.857    2.571    4.000    0.000 
#    2.571    2.857    0.000    0.000    0.000    0.000 
#    0.000    0.000    0.000    0.000    0.000    0.000 
#
# Total GULP energy -312861.751953 kJ/mol
# GULP energy per Si atom -5586.816999 kJ/mol
# Density = 2.450244 g / cm^3
# Si number density = 24.558341 Si / 1000 Ang^3
#
#
#
# Elastic Constant Matrix: (Units=GPa)
#
#
# Indices 1 2 3 4 5 6 
#
# 1 133.4224 19.2352 44.9968 0.0000 0.0000 0.0000
# 2 19.2352 27.1471 27.3534 0.0000 0.0000 0.0000
# 3 44.9968 27.3534 154.0254 0.0000 0.0000 0.0000
# 4 0.0000 0.0000 0.0000 17.5714 0.0000 0.0000
# 5 0.0000 0.0000 0.0000 0.0000 48.2802 0.0000
# 6 0.0000 0.0000 0.0000 0.0000 0.0000 4.2547
#
#
#
# Elastic Compliance Matrix: (Units=1/GPa)
#
#
# Indices 1 2 3 4 5 6 
#
# 1 0.008726 -0.004402 -0.001767 0.000000 0.000000 0.000000
# 2 -0.004402 0.047085 -0.007076 0.000000 0.000000 0.000000
# 3 -0.001767 -0.007076 0.008265 0.000000 0.000000 0.000000
# 4 0.000000 0.000000 0.000000 0.056911 0.000000 0.000000
# 5 0.000000 0.000000 0.000000 0.000000 0.020712 0.000000
# 6 0.000000 0.000000 0.000000 0.000000 0.000000 0.235032
#
#
# Mechanical properties :
#
#
# Convention : Reuss Voigt Hill
#
# Bulk Modulus (GPa) = 26.60574 55.30732 40.95653
# Shear Modulus (GPa) = 12.02647 28.88857 20.45752
#
# Velocity S-wave (km/s) = 2.21534 3.43348 2.88933
# Velocity P-wave (km/s) = 4.17143 6.18773 5.27678
#
# Compressibility (1/GPa) = 0.03758587
#
# Stress axis : x y z
#
# Youngs Moduli (GPa) = 114.60479 21.23816 120.98666
#
# Poissons Ratio (x) = 0.09349 0.21383
# Poissons Ratio (y) = 0.50447 0.85609
# Poissons Ratio (z) = 0.20255 0.15028
#
# Static dielectric constant tensor:
#      x y z
#    x 1.997750 0.000000 0.000000 
#    y 0.000000 1.936950 0.000000 
#    z 0.000000 0.000000 2.154060 
# 
# From -- ./inp_files/15276.got.cif
#   From: 2010.05.17/outbox.cif.g08.bks.cpg/sg60_8_cif.got.tgz:15276.got - 2010.06.03 14:59:27.
