data_PCOD9454145
_publ_section_title
;
Structure prediction by ZEFSAII (Michael W. Deem and Ramdas Pophale) SiO2 
 PCOD9454145
Probable space group: P B C N
;
_chemical_formula_sum "Si O2"
_cell_formula_units_Z 64
_cell_length_a 7.234795
_cell_length_b 21.395290
_cell_length_c 17.056479
_cell_angle_alpha 90.000000
_cell_angle_beta 90.000000
_cell_angle_gamma 90.000000
_cell_volume 2640.181546
_symmetry_space_group_name_H-M "P B C N"
_symmetry_group_IT_number 60
_symmetry_cell_setting 'orthorhombic'
loop_
_space_group_symop_operation_xyz
x,y,z
1/2-x,1/2-y,1/2+z
1/2+x,1/2-y,-z
-x,y,1/2-z
-x,-y,-z
1/2+x,1/2+y,1/2-z
1/2-x,1/2+y,z
x,-y,1/2+z
loop_
_atom_site_type_symbol
_atom_site_label
_atom_site_fract_x
_atom_site_fract_y
_atom_site_fract_z
Si Si1 0.651596 0.690163 0.990243
Si Si2 0.624891 0.873559 0.676888
Si Si3 0.286566 0.912393 0.101821
Si Si4 0.142980 0.553289 0.073562
Si Si5 0.021235 0.091106 0.385476
Si Si6 0.358126 0.454863 0.415816
Si Si7 0.717604 0.378689 0.226974
Si Si8 0.164461 0.234194 0.881653
O O1 0.814682 0.646702 0.954954
O O2 0.526885 0.708710 0.916770
O O3 0.542626 0.648194 0.054003
O O4 0.720041 0.748892 0.040326
O O5 0.500000 0.889436 0.750000
O O6 0.534004 0.909371 0.602716
O O7 0.837381 0.893721 0.683461
O O8 0.626494 0.799608 0.661119
O O9 0.319698 0.892157 0.191559
O O10 0.065074 0.926194 0.090664
O O11 0.379998 0.978440 0.081012
O O12 0.310545 0.574997 0.130569
O O13 0.234116 0.566961 0.988660
O O14 0.103180 0.027982 0.423637
O O15 0.264408 0.435602 0.334210
O O16 0.500000 0.374040 0.250000
O O17 0.754530 0.315985 0.176872
#
# Coordination Sequence:
#
# PCOD9454145 Si02
#       8
#     8   8   8   8   8   8   8   8
#     4  11  21  40  63  91 124 161 227 272 313 400
#     4  11  28  42  58  98 138 172 215 267 335 402
#     4  10  19  37  68  98 123 168 222 276 326 397
#     4  11  21  41  73  95 129 174 215 269 341 383
#     4  10  21  42  64  96 128 166 217 272 320 399
#     4  10  18  35  66  97 124 157 217 267 327 387
#     4  10  19  35  63  96 124 169 218 261 329 395
#     4  11  24  40  64  89 125 173 218 268 331 391
#
# _framework density 24.240755
#
# number of rings (size 3 to 8) (size 9 to 14) (size 15 to 20)
#    0.000    1.500    5.000    1.125    5.250    1.000 
#    0.000    0.000    0.000    0.000    0.000    0.000 
#    0.000    0.000    0.000    0.000    0.000    0.000 
#
# Total GULP energy -357988.423809 kJ/mol
# GULP energy per Si atom -5593.569122 kJ/mol
# Density = 2.418558 g / cm^3
# Si number density = 24.240755 Si / 1000 Ang^3
#
#
#
# Elastic Constant Matrix: (Units=GPa)
#
#
# Indices 1 2 3 4 5 6 
#
# 1 86.0077 19.3459 27.8815 0.0000 0.0000 0.0000
# 2 19.3459 81.5544 31.4292 0.0000 0.0000 0.0000
# 3 27.8815 31.4292 131.6059 0.0000 0.0000 0.0000
# 4 0.0000 0.0000 0.0000 25.3272 0.0000 0.0000
# 5 0.0000 0.0000 0.0000 0.0000 35.9797 0.0000
# 6 0.0000 0.0000 0.0000 0.0000 0.0000 17.8564
#
#
#
# Elastic Compliance Matrix: (Units=1/GPa)
#
#
# Indices 1 2 3 4 5 6 
#
# 1 0.012833 -0.002199 -0.002194 0.000000 0.000000 0.000000
# 2 -0.002199 0.013881 -0.002849 0.000000 0.000000 0.000000
# 3 -0.002194 -0.002849 0.008744 0.000000 0.000000 0.000000
# 4 0.000000 0.000000 0.000000 0.039483 0.000000 0.000000
# 5 0.000000 0.000000 0.000000 0.000000 0.027793 0.000000
# 6 0.000000 0.000000 0.000000 0.000000 0.000000 0.056002
#
#
# Mechanical properties :
#
#
# Convention : Reuss Voigt Hill
#
# Bulk Modulus (GPa) = 47.67707 50.72014 49.19860
# Shear Modulus (GPa) = 27.74524 30.53342 29.13933
#
# Velocity S-wave (km/s) = 3.38682 3.55292 3.47086
# Velocity P-wave (km/s) = 5.91649 6.14816 6.03344
#
# Compressibility (1/GPa) = 0.02097444
#
# Stress axis : x y z
#
# Youngs Moduli (GPa) = 77.92694 72.03905 114.36942
#
# Poissons Ratio (x) = 0.15839 0.25088
# Poissons Ratio (y) = 0.17134 0.32587
# Poissons Ratio (z) = 0.17094 0.20526
#
# Static dielectric constant tensor:
#      x y z
#    x 2.007450 0.000000 0.000000 
#    y 0.000000 1.910630 0.000000 
#    z 0.000000 0.000000 1.984770 
# 
# From -- ./inp_files/19671.got.cif
#   From: 2010.05.17/outbox.cif.g08.bks.cpg/sg60_10_cif.got.tgz:19671.got - 2010.06.03 14:59:27.
