data_PCOD9454337
_publ_section_title
;
Structure prediction by ZEFSAII (Michael W. Deem and Ramdas Pophale) SiO2 
 PCOD9454337
Probable space group: P B C N
;
_chemical_formula_sum "Si O2"
_cell_formula_units_Z 64
_cell_length_a 23.341742
_cell_length_b 16.875208
_cell_length_c 8.267951
_cell_angle_alpha 90.000000
_cell_angle_beta 90.000000
_cell_angle_gamma 90.000000
_cell_volume 3256.719039
_symmetry_space_group_name_H-M "P B C N"
_symmetry_group_IT_number 60
_symmetry_cell_setting 'orthorhombic'
loop_
_space_group_symop_operation_xyz
x,y,z
1/2-x,1/2-y,1/2+z
1/2+x,1/2-y,-z
-x,y,1/2-z
-x,-y,-z
1/2+x,1/2+y,1/2-z
1/2-x,1/2+y,z
x,-y,1/2+z
loop_
_atom_site_type_symbol
_atom_site_label
_atom_site_fract_x
_atom_site_fract_y
_atom_site_fract_z
Si Si1 0.256794 0.799083 0.363292
Si Si2 0.625649 0.482038 0.989099
Si Si3 0.645139 0.113302 0.473721
Si Si4 0.066099 0.711368 0.789877
Si Si5 0.209030 0.039166 0.747807
Si Si6 0.818616 0.449143 0.639216
Si Si7 0.828606 0.703971 0.932412
Si Si8 0.064525 0.896852 0.802211
O O1 0.300160 0.828052 0.503136
O O2 0.239113 0.878469 0.272318
O O3 0.296350 0.760147 0.226389
O O4 0.200981 0.754647 0.425689
O O5 0.649167 0.446964 0.155247
O O6 0.582116 0.549852 0.044646
O O7 0.685012 0.519134 0.926396
O O8 0.602971 0.422517 0.853244
O O9 0.593529 0.157706 0.567384
O O10 0.644136 0.087953 0.286200
O O11 0.656890 0.031859 0.571611
O O12 0.105876 0.704407 0.628732
O O13 0.069489 0.804041 0.837886
O O14 0.000000 0.692167 0.750000
O O15 0.255616 0.971644 0.791418
O O16 0.817194 0.385536 0.494717
O O17 0.000000 0.914270 0.750000
#
# Coordination Sequence:
#
# PCOD9454337 Si02
#       8
#     8   8   8   8   8   8   8   8
#     4  10  20  33  52  83 118 152 189 240 302 371
#     4  10  20  32  55  82 109 147 187 223 278 357
#     4  10  21  38  60  87 119 159 201 247 310 369
#     4  10  23  43  62  84 120 163 209 261 311 361
#     4  10  19  32  51  80 114 143 176 227 291 355
#     4  11  21  38  60  87 123 156 196 254 311 371
#     4  11  22  36  58  86 119 159 202 250 311 372
#     4  10  21  38  57  79 112 153 198 246 288 338
#
# _framework density 19.651679000000001
#
# number of rings (size 3 to 8) (size 9 to 14) (size 15 to 20)
#    0.000    1.750    0.000    6.375    0.000    8.000 
#    0.000    3.125    0.000    6.000    0.000    0.000 
#    0.000    0.000    0.000    0.000    0.000    0.000 
#
# Total GULP energy -356364.436296 kJ/mol
# GULP energy per Si atom -5568.194317 kJ/mol
# Density = 1.960695 g / cm^3
# Si number density = 19.651679 Si / 1000 Ang^3
#
#
#
# Elastic Constant Matrix: (Units=GPa)
#
#
# Indices 1 2 3 4 5 6 
#
# 1 110.6085 35.1863 32.0450 0.0000 0.0000 0.0000
# 2 35.1863 59.6809 24.3209 0.0000 0.0000 0.0000
# 3 32.0450 24.3209 63.9905 0.0000 0.0000 0.0000
# 4 0.0000 0.0000 0.0000 -11.3650 0.0000 0.0000
# 5 0.0000 0.0000 0.0000 0.0000 28.9816 0.0000
# 6 0.0000 0.0000 0.0000 0.0000 0.0000 471.5918
#
#
#
# Elastic Compliance Matrix: (Units=1/GPa)
#
#
# Indices 1 2 3 4 5 6 
#
# 1 0.011895 -0.005426 -0.003895 0.000000 0.000000 0.000000
# 2 -0.005426 0.022302 -0.005759 0.000000 0.000000 0.000000
# 3 -0.003895 -0.005759 0.019766 0.000000 0.000000 0.000000
# 4 0.000000 0.000000 0.000000 -0.087989 0.000000 0.000000
# 5 0.000000 0.000000 0.000000 0.000000 0.034505 0.000000
# 6 0.000000 0.000000 0.000000 0.000000 0.000000 0.002120
#
#
# Mechanical properties :
#
#
# Convention : Reuss Voigt Hill
#
# Bulk Modulus (GPa) = 42.00940 46.37603 44.19272
# Shear Modulus (GPa) = 122.87032 107.35686 115.11359
#
# Velocity S-wave (km/s) = 7.91580 7.39922 7.66186
# Velocity P-wave (km/s) = 10.24548 9.83098 10.04037
#
# Compressibility (1/GPa) = 0.02380419
#
# Stress axis : x y z
#
# Youngs Moduli (GPa) = 84.06659 44.83965 50.59072
#
# Poissons Ratio (x) = 0.24330 0.19703
# Poissons Ratio (y) = 0.45615 0.29135
# Poissons Ratio (z) = 0.32741 0.25823
#
# Static dielectric constant tensor:
#      x y z
#    x 1.727020 0.000000 0.000000 
#    y 0.000000 1.713820 0.000000 
#    z 0.000000 0.000000 1.732660 
# 
# From -- ./inp_files/7974.got.cif
#   From: 2010.05.17/outbox.cif.g08.bks.cpg/sg60_4_cif.got.tgz:7974.got - 2010.06.03 14:59:27.
