data_PCOD9454424
_publ_section_title
;
Structure prediction by ZEFSAII (Michael W. Deem and Ramdas Pophale) SiO2 
 PCOD9454424
Probable space group: P B C N
;
_chemical_formula_sum "Si O2"
_cell_formula_units_Z 56
_cell_length_a 14.849270
_cell_length_b 15.661674
_cell_length_c 8.783717
_cell_angle_alpha 90.000000
_cell_angle_beta 90.000000
_cell_angle_gamma 90.000000
_cell_volume 2042.780101
_symmetry_space_group_name_H-M "P B C N"
_symmetry_group_IT_number 60
_symmetry_cell_setting 'orthorhombic'
loop_
_space_group_symop_operation_xyz
x,y,z
1/2-x,1/2-y,1/2+z
1/2+x,1/2-y,-z
-x,y,1/2-z
-x,-y,-z
1/2+x,1/2+y,1/2-z
1/2-x,1/2+y,z
x,-y,1/2+z
loop_
_atom_site_type_symbol
_atom_site_label
_atom_site_fract_x
_atom_site_fract_y
_atom_site_fract_z
Si Si1 0.228525 0.412044 0.954022
Si Si2 0.955614 0.799583 0.409162
Si Si3 0.116164 0.465915 0.233251
Si Si4 0.291724 0.651601 0.078148
Si Si5 0.783566 0.768305 0.227267
Si Si6 0.085267 0.072621 0.326310
Si Si7 0.421174 0.885551 0.530347
O O1 0.168379 0.474041 0.851175
O O2 0.214049 0.319313 0.875725
O O3 0.330494 0.448454 0.937518
O O4 0.188052 0.421937 0.121402
O O5 0.851264 0.792928 0.362299
O O6 0.961778 0.853678 0.564884
O O7 0.978851 0.698661 0.431055
O O8 0.000000 0.828423 0.250000
O O9 0.057705 0.529632 0.126658
O O10 0.074668 0.398282 0.350203
O O11 0.302835 0.739821 0.175036
O O12 0.355359 0.592573 0.175891
O O13 0.184866 0.628643 0.074448
O O14 0.307120 0.663326 0.900936
O O15 0.000000 0.024469 0.250000
#
# Coordination Sequence:
#
# PCOD9454424 Si02
#       7
#     8   8   8   8   8   8   8
#     4  10  20  37  60  86 117 147 200 244 291 341
#     4  11  23  40  56  85 120 156 192 242 301 356
#     4  10  20  36  62  88 114 154 196 250 284 342
#     4  10  19  33  57  85 112 148 195 247 293 344
#     4  10  19  33  57  85 112 148 195 247 293 344
#     4  11  23  40  56  85 120 156 192 242 301 356
#     4  10  20  37  60  86 117 147 200 244 291 341
#
# _framework density 27.413623000000001
#
# number of rings (size 3 to 8) (size 9 to 14) (size 15 to 20)
#    0.000    1.714    4.286    4.286    6.000    0.000 
#    0.000    1.429    0.000    0.000    0.000    0.000 
#    0.000    0.000    0.000    0.000    0.000    0.000 
#
# Total GULP energy -312063.922966 kJ/mol
# GULP energy per Si atom -5572.570053 kJ/mol
# Density = 2.735123 g / cm^3
# Si number density = 27.413623 Si / 1000 Ang^3
#
#
#
# Elastic Constant Matrix: (Units=GPa)
#
#
# Indices 1 2 3 4 5 6 
#
# 1 91.2991 10.9064 31.8698 0.0000 0.0000 0.0000
# 2 10.9064 74.7716 44.1224 0.0000 0.0000 0.0000
# 3 31.8698 44.1224 213.9996 0.0000 0.0000 0.0000
# 4 0.0000 0.0000 0.0000 30.3467 0.0000 0.0000
# 5 0.0000 0.0000 0.0000 0.0000 62.1600 0.0000
# 6 0.0000 0.0000 0.0000 0.0000 0.0000 13.0557
#
#
#
# Elastic Compliance Matrix: (Units=1/GPa)
#
#
# Indices 1 2 3 4 5 6 
#
# 1 0.011592 -0.000765 -0.001569 0.000000 0.000000 0.000000
# 2 -0.000765 0.015277 -0.003036 0.000000 0.000000 0.000000
# 3 -0.001569 -0.003036 0.005532 0.000000 0.000000 0.000000
# 4 0.000000 0.000000 0.000000 0.032953 0.000000 0.000000
# 5 0.000000 0.000000 0.000000 0.000000 0.016088 0.000000
# 6 0.000000 0.000000 0.000000 0.000000 0.000000 0.076595
#
#
# Mechanical properties :
#
#
# Convention : Reuss Voigt Hill
#
# Bulk Modulus (GPa) = 46.16336 61.54084 53.85210
# Shear Modulus (GPa) = 28.40970 40.65727 34.53348
#
# Velocity S-wave (km/s) = 3.22271 3.85529 3.55310
# Velocity P-wave (km/s) = 5.54292 6.50503 6.04315
#
# Compressibility (1/GPa) = 0.02166220
#
# Stress axis : x y z
#
# Youngs Moduli (GPa) = 86.26668 65.45730 180.75210
#
# Poissons Ratio (x) = 0.05009 0.28352
# Poissons Ratio (y) = 0.06601 0.54874
# Poissons Ratio (z) = 0.13531 0.19872
#
# Static dielectric constant tensor:
#      x y z
#    x 2.369990 0.000000 0.000000 
#    y 0.000000 2.325630 0.000000 
#    z 0.000000 0.000000 2.141340 
# 
# From -- ./inp_files/6978.got.cif
#   From: 2010.05.17/outbox.cif.g08.bks.cpg/sg60_4_cif.got.tgz:6978.got - 2010.06.03 14:59:27.
