data_PCOD9454016
_publ_section_title
;
Structure prediction by ZEFSAII (Michael W. Deem and Ramdas Pophale) SiO2 
 PCOD9454016
Probable space group: P B C N
;
_chemical_formula_sum "Si O2"
_cell_formula_units_Z 60
_cell_length_a 5.744369
_cell_length_b 23.317335
_cell_length_c 16.374378
_cell_angle_alpha 90.000000
_cell_angle_beta 90.000000
_cell_angle_gamma 90.000000
_cell_volume 2193.239475
_symmetry_space_group_name_H-M "P B C N"
_symmetry_group_IT_number 60
_symmetry_cell_setting 'orthorhombic'
loop_
_space_group_symop_operation_xyz
x,y,z
1/2-x,1/2-y,1/2+z
1/2+x,1/2-y,-z
-x,y,1/2-z
-x,-y,-z
1/2+x,1/2+y,1/2-z
1/2-x,1/2+y,z
x,-y,1/2+z
loop_
_atom_site_type_symbol
_atom_site_label
_atom_site_fract_x
_atom_site_fract_y
_atom_site_fract_z
Si Si1 0.683944 0.443953 0.320388
Si Si2 0.460247 0.340117 0.373249
Si Si3 0.405240 0.063829 0.928081
Si Si4 0.354100 0.170311 0.502359
Si Si5 0.139928 0.962804 0.885687
Si Si6 0.880780 0.856823 0.837984
Si Si7 0.500000 0.079535 0.250000
Si Si8 0.861118 0.752123 0.616218
O O1 0.500000 0.455788 0.250000
O O2 0.654788 0.374525 0.324201
O O3 0.952544 0.446621 0.344034
O O4 0.583042 0.495123 0.377670
O O5 0.610274 0.318851 0.450393
O O6 0.304812 0.393788 0.403533
O O7 0.300737 0.291513 0.332941
O O8 0.562153 0.104597 0.986567
O O9 0.297845 0.001505 0.946308
O O10 0.548518 0.208523 0.547347
O O11 0.312756 0.198809 0.415508
O O12 0.300704 0.953376 0.803106
O O13 0.018817 0.900558 0.898458
O O14 0.629134 0.882381 0.818696
O O15 0.917971 0.789991 0.857166
O O16 0.000000 0.862308 0.750000
#
# Coordination Sequence:
#
# PCOD9454016 Si02
#       8
#     8   8   8   8   8   8   4   8
#     4  10  18  32  57  88 120 157 194 245 305 363
#     4   9  20  36  53  83 114 151 202 252 303 361
#     4   9  19  34  57  90 121 150 199 257 298 365
#     4  10  20  37  63  85 111 161 213 254 313 361
#     4  10  18  34  60  86 123 160 203 244 301 367
#     4  10  23  39  58  89 124 164 204 249 313 372
#     4  10  20  38  58  86 118 166 208 242 306 388
#     4  11  21  40  62  84 117 163 213 262 305 380
#
# _framework density 27.356793
#
# number of rings (size 3 to 8) (size 9 to 14) (size 15 to 20)
#    0.000    2.133    1.333    2.800    0.000    3.733 
#    7.200    0.667    0.000   11.200    0.000    0.000 
#    0.000    0.000    0.000    0.000    0.000    0.000 
#
# Total GULP energy -334193.554982 kJ/mol
# GULP energy per Si atom -5569.892583 kJ/mol
# Density = 2.729453 g / cm^3
# Si number density = 27.356793 Si / 1000 Ang^3
#
#
#
# Elastic Constant Matrix: (Units=GPa)
#
#
# Indices 1 2 3 4 5 6 
#
# 1 58.9206 37.1563 11.8426 0.0000 0.0000 0.0000
# 2 37.1563 229.0006 21.5910 0.0000 0.0000 0.0000
# 3 11.8426 21.5910 39.5547 0.0000 0.0000 0.0000
# 4 0.0000 0.0000 0.0000 29.0886 0.0000 0.0000
# 5 0.0000 0.0000 0.0000 0.0000 36.0846 0.0000
# 6 0.0000 0.0000 0.0000 0.0000 0.0000 40.7995
#
#
#
# Elastic Compliance Matrix: (Units=1/GPa)
#
#
# Indices 1 2 3 4 5 6 
#
# 1 0.019593 -0.002768 -0.004355 0.000000 0.000000 0.000000
# 2 -0.002768 0.004995 -0.001898 0.000000 0.000000 0.000000
# 3 -0.004355 -0.001898 0.027621 0.000000 0.000000 0.000000
# 4 0.000000 0.000000 0.000000 0.034378 0.000000 0.000000
# 5 0.000000 0.000000 0.000000 0.000000 0.027713 0.000000
# 6 0.000000 0.000000 0.000000 0.000000 0.000000 0.024510
#
#
# Mechanical properties :
#
#
# Convention : Reuss Voigt Hill
#
# Bulk Modulus (GPa) = 29.26793 52.07287 40.67040
# Shear Modulus (GPa) = 29.71929 38.32027 34.01978
#
# Velocity S-wave (km/s) = 3.29957 3.74673 3.53024
# Velocity P-wave (km/s) = 5.02375 6.14763 5.61389
#
# Compressibility (1/GPa) = 0.03416709
#
# Stress axis : x y z
#
# Youngs Moduli (GPa) = 51.03825 200.20387 36.20412
#
# Poissons Ratio (x) = 0.55426 0.15767
# Poissons Ratio (y) = 0.14130 0.06870
# Poissons Ratio (z) = 0.22227 0.37991
#
# Static dielectric constant tensor:
#      x y z
#    x 2.189360 0.000000 0.000000 
#    y 0.000000 2.125030 0.000000 
#    z 0.000000 0.000000 2.353370 
# 
# From -- ./inp_files/23724.got.cif
#   From: 2010.05.17/outbox.cif.g08.bks.cpg/sg60_12_cif.got.tgz:23724.got - 2010.06.03 14:59:27.
