data_PCOD9454682
_publ_section_title
;
Structure prediction by ZEFSAII (Michael W. Deem and Ramdas Pophale) SiO2 
 PCOD9454682
Probable space group: P B C N
;
_chemical_formula_sum "Si O2"
_cell_formula_units_Z 56
_cell_length_a 14.475105
_cell_length_b 12.105784
_cell_length_c 12.848896
_cell_angle_alpha 90.000000
_cell_angle_beta 90.000000
_cell_angle_gamma 90.000000
_cell_volume 2251.544098
_symmetry_space_group_name_H-M "P B C N"
_symmetry_group_IT_number 60
_symmetry_cell_setting 'orthorhombic'
loop_
_space_group_symop_operation_xyz
x,y,z
1/2-x,1/2-y,1/2+z
1/2+x,1/2-y,-z
-x,y,1/2-z
-x,-y,-z
1/2+x,1/2+y,1/2-z
1/2-x,1/2+y,z
x,-y,1/2+z
loop_
_atom_site_type_symbol
_atom_site_label
_atom_site_fract_x
_atom_site_fract_y
_atom_site_fract_z
Si Si1 0.764411 0.142575 0.412423
Si Si2 0.923421 0.845504 0.166372
Si Si3 0.263041 0.389726 0.062692
Si Si4 0.107072 0.606608 0.249122
Si Si5 0.223978 0.585163 0.802696
Si Si6 0.101788 0.786204 0.778398
Si Si7 0.958894 0.119590 0.009346
O O1 0.771678 0.263767 0.468986
O O2 0.663993 0.126714 0.357412
O O3 0.841721 0.155273 0.317360
O O4 0.766447 0.022383 0.471587
O O5 0.893773 0.727940 0.207462
O O6 0.830570 0.915942 0.168250
O O7 0.000000 0.888716 0.250000
O O8 0.961846 0.816308 0.051521
O O9 0.221340 0.401730 0.176980
O O10 0.371001 0.366973 0.062678
O O11 0.167836 0.526300 0.321369
O O12 0.000000 0.567843 0.250000
O O13 0.166130 0.693332 0.831947
O O14 0.000000 0.737922 0.750000
O O15 0.072337 0.863376 0.873682
O O16 0.000000 0.000000 0.000000
#
# Coordination Sequence:
#
# PCOD9454682 Si02
#       7
#     8   8   8   8   8   8   8
#     4  10  21  41  72  99 137 192 229 298 355 430
#     4  11  21  43  71 101 138 181 238 298 359 422
#     4  10  20  43  67 101 135 178 238 285 359 413
#     4  10  19  36  69 103 132 184 239 285 356 432
#     4  10  21  41  73  97 137 193 233 291 360 425
#     4  11  24  45  64 101 146 184 234 294 365 417
#     4  12  27  40  67 106 137 186 236 301 350 429
#
# _framework density 24.87182
#
# number of rings (size 3 to 8) (size 9 to 14) (size 15 to 20)
#    0.000    1.429    4.286    2.143    4.000    0.571 
#    7.714    0.714    0.000    0.000    0.000    0.000 
#    0.000    0.000    0.000    0.000    0.000    0.000 
#
# Total GULP energy -311778.441502 kJ/mol
# GULP energy per Si atom -5567.472170 kJ/mol
# Density = 2.481521 g / cm^3
# Si number density = 24.871820 Si / 1000 Ang^3
#
#
#
# Elastic Constant Matrix: (Units=GPa)
#
#
# Indices 1 2 3 4 5 6 
#
# 1 173.0019 51.9329 19.1893 0.0000 0.0000 0.0000
# 2 51.9329 146.9357 38.8316 0.0000 0.0000 0.0000
# 3 19.1893 38.8316 48.9714 0.0000 0.0000 0.0000
# 4 0.0000 0.0000 0.0000 154.2262 0.0000 0.0000
# 5 0.0000 0.0000 0.0000 0.0000 13.2706 0.0000
# 6 0.0000 0.0000 0.0000 0.0000 0.0000 44.4276
#
#
#
# Elastic Compliance Matrix: (Units=1/GPa)
#
#
# Indices 1 2 3 4 5 6 
#
# 1 0.006499 -0.002054 -0.000917 0.000000 0.000000 0.000000
# 2 -0.002054 0.009259 -0.006537 0.000000 0.000000 0.000000
# 3 -0.000917 -0.006537 0.025963 0.000000 0.000000 0.000000
# 4 0.000000 0.000000 0.000000 0.006484 0.000000 0.000000
# 5 0.000000 0.000000 0.000000 0.000000 0.075355 0.000000
# 6 0.000000 0.000000 0.000000 0.000000 0.000000 0.022509
#
#
# Mechanical properties :
#
#
# Convention : Reuss Voigt Hill
#
# Bulk Modulus (GPa) = 44.04662 65.42408 54.73535
# Shear Modulus (GPa) = 28.95954 59.64855 44.30405
#
# Velocity S-wave (km/s) = 3.41596 4.90249 4.22512
# Velocity P-wave (km/s) = 5.77116 7.64248 6.77177
#
# Compressibility (1/GPa) = 0.02270322
#
# Stress axis : x y z
#
# Youngs Moduli (GPa) = 153.87533 107.99778 38.51605
#
# Poissons Ratio (x) = 0.22188 0.03534
# Poissons Ratio (y) = 0.31613 0.25179
# Poissons Ratio (z) = 0.14117 0.70600
#
# Static dielectric constant tensor:
#      x y z
#    x 1.947370 0.000000 0.000000 
#    y 0.000000 2.124110 0.000000 
#    z 0.000000 0.000000 1.844770 
# 
# From -- ./inp_files/16877.got.cif
#   From: 2010.05.17/outbox.cif.g08.bks.cpg/sg60_9_cif.got.tgz:16877.got - 2010.06.03 14:59:27.
