data_PCOD9454324
_publ_section_title
;
Structure prediction by ZEFSAII (Michael W. Deem and Ramdas Pophale) SiO2 
 PCOD9454324
Probable space group: P B C N
;
_chemical_formula_sum "Si O2"
_cell_formula_units_Z 56
_cell_length_a 14.535704
_cell_length_b 24.085053
_cell_length_c 8.590997
_cell_angle_alpha 90.000000
_cell_angle_beta 90.000000
_cell_angle_gamma 90.000000
_cell_volume 3007.649642
_symmetry_space_group_name_H-M "P B C N"
_symmetry_group_IT_number 60
_symmetry_cell_setting 'orthorhombic'
loop_
_space_group_symop_operation_xyz
x,y,z
1/2-x,1/2-y,1/2+z
1/2+x,1/2-y,-z
-x,y,1/2-z
-x,-y,-z
1/2+x,1/2+y,1/2-z
1/2-x,1/2+y,z
x,-y,1/2+z
loop_
_atom_site_type_symbol
_atom_site_label
_atom_site_fract_x
_atom_site_fract_y
_atom_site_fract_z
Si Si1 0.393757 0.060850 0.055862
Si Si2 0.000000 0.468267 0.250000
Si Si3 0.405075 0.676909 0.339929
Si Si4 0.030380 0.865623 0.415494
Si Si5 0.214453 0.879778 0.572336
Si Si6 0.116245 0.743374 0.381755
Si Si7 0.500000 0.150983 0.250000
Si Si8 0.293335 0.237470 0.040858
O O1 0.284444 0.069229 0.069395
O O2 0.431895 0.112014 0.156815
O O3 0.432121 0.006742 0.145627
O O4 0.437325 0.061834 0.881747
O O5 0.500000 0.692251 0.250000
O O6 0.444527 0.634533 0.468426
O O7 0.329843 0.646531 0.230643
O O8 0.359922 0.729725 0.423993
O O9 0.122871 0.893420 0.476547
O O10 0.060759 0.800454 0.400820
O O11 0.000000 0.886784 0.250000
O O12 0.272851 0.827226 0.504694
O O13 0.049804 0.691374 0.370937
O O14 0.168008 0.744632 0.214481
O O15 0.191768 0.737139 0.515714
#
# Coordination Sequence:
#
# PCOD9454324 Si02
#       8
#     8   4   8   8   8   8   4   8
#     4  10  20  41  60  83 107 131 180 227 286 348
#     4   9  22  42  66  82 106 134 162 234 308 347
#     4  10  19  32  47  69 107 155 184 213 268 296
#     4  10  19  32  50  73 111 154 189 219 253 301
#     4  10  21  34  51  77 106 143 191 225 258 329
#     4  11  20  31  46  70 110 161 189 228 258 292
#     4  11  18  34  52  74 112 150 184 218 268 319
#     4  11  18  32  44  69 108 149 197 219 252 299
#
# _framework density 18.619191000000001
#
# number of rings (size 3 to 8) (size 9 to 14) (size 15 to 20)
#    0.000    1.714    5.000    0.000    0.000    0.000 
#    6.429    2.857    0.000    0.000    0.000   13.000 
#    0.000    0.000    0.000    0.000    0.000    0.000 
#
# Total GULP energy -312065.563530 kJ/mol
# GULP energy per Si atom -5572.599349 kJ/mol
# Density = 1.857681 g / cm^3
# Si number density = 18.619191 Si / 1000 Ang^3
#
#
#
# Elastic Constant Matrix: (Units=GPa)
#
#
# Indices 1 2 3 4 5 6 
#
# 1 97.2662 18.8070 31.8643 0.0000 0.0000 0.0000
# 2 18.8070 17.8903 -5.8728 0.0000 0.0000 0.0000
# 3 31.8643 -5.8728 69.4273 0.0000 0.0000 0.0000
# 4 0.0000 0.0000 0.0000 9.6016 0.0000 0.0000
# 5 0.0000 0.0000 0.0000 0.0000 39.0272 0.0000
# 6 0.0000 0.0000 0.0000 0.0000 0.0000 13.1924
#
#
#
# Elastic Compliance Matrix: (Units=1/GPa)
#
#
# Indices 1 2 3 4 5 6 
#
# 1 0.017838 -0.022052 -0.010052 0.000000 0.000000 0.000000
# 2 -0.022052 0.084754 0.017290 0.000000 0.000000 0.000000
# 3 -0.010052 0.017290 0.020480 0.000000 0.000000 0.000000
# 4 0.000000 0.000000 0.000000 0.104150 0.000000 0.000000
# 5 0.000000 0.000000 0.000000 0.000000 0.025623 0.000000
# 6 0.000000 0.000000 0.000000 0.000000 0.000000 0.075801
#
#
# Mechanical properties :
#
#
# Convention : Reuss Voigt Hill
#
# Bulk Modulus (GPa) = 10.70162 30.46453 20.58307
# Shear Modulus (GPa) = 12.83954 21.68324 17.26139
#
# Velocity S-wave (km/s) = 2.62885 3.41627 3.04809
# Velocity P-wave (km/s) = 3.86970 5.65320 4.84423
#
# Compressibility (1/GPa) = 0.09344381
#
# Stress axis : x y z
#
# Youngs Moduli (GPa) = 56.05987 11.79884 48.82876
#
# Poissons Ratio (x) = 0.26019 0.49084
# Poissons Ratio (y) = 1.23623 -0.84426
# Poissons Ratio (z) = 0.56353 -0.20400
#
# Static dielectric constant tensor:
#      x y z
#    x 1.695740 0.000000 0.000000 
#    y 0.000000 1.632000 0.000000 
#    z 0.000000 0.000000 1.695450 
# 
# From -- ./inp_files/6208.got.cif
#   From: 2010.05.17/outbox.cif.g08.bks.cpg/sg60_4_cif.got.tgz:6208.got - 2010.06.03 14:59:27.
