data_PCOD9454320
_publ_section_title
;
Structure prediction by ZEFSAII (Michael W. Deem and Ramdas Pophale) SiO2 
 PCOD9454320
Probable space group: P B C N
;
_chemical_formula_sum "Si O2"
_cell_formula_units_Z 40
_cell_length_a 20.841969
_cell_length_b 8.678493
_cell_length_c 9.154684
_cell_angle_alpha 90.000000
_cell_angle_beta 90.000000
_cell_angle_gamma 90.000000
_cell_volume 1655.870698
_symmetry_space_group_name_H-M "P B C N"
_symmetry_group_IT_number 60
_symmetry_cell_setting 'orthorhombic'
loop_
_space_group_symop_operation_xyz
x,y,z
1/2-x,1/2-y,1/2+z
1/2+x,1/2-y,-z
-x,y,1/2-z
-x,-y,-z
1/2+x,1/2+y,1/2-z
1/2-x,1/2+y,z
x,-y,1/2+z
loop_
_atom_site_type_symbol
_atom_site_label
_atom_site_fract_x
_atom_site_fract_y
_atom_site_fract_z
Si Si1 0.298126 0.410354 0.344955
Si Si2 0.280688 0.122390 0.549046
Si Si3 0.068245 0.156367 0.820364
Si Si4 0.494202 0.774280 0.094369
Si Si5 0.092936 0.425106 0.606501
O O1 0.302956 0.279498 0.471486
O O2 0.265605 0.550694 0.427195
O O3 0.370440 0.448577 0.295798
O O4 0.256738 0.359865 0.203087
O O5 0.338707 0.000895 0.573769
O O6 0.090648 0.322018 0.752268
O O7 0.000000 0.124402 0.750000
O O8 0.049485 0.175335 0.987896
O O9 0.500000 0.699574 0.250000
O O10 0.456597 0.934545 0.119444
O O11 0.562086 0.815782 0.018550
#
# Coordination Sequence:
#
# PCOD9454320 Si02
#       5
#     8   8   8   8   8
#     4  12  26  47  68 103 133 189 222 292 335 419
#     4  12  26  44  72  99 143 176 236 273 352 406
#     4  10  21  40  62  95 136 176 225 283 340 403
#     4  10  19  31  61  99 134 162 218 282 346 378
#     4  10  19  35  59  96 134 170 211 284 335 391
#
# _framework density 24.156476000000001
#
# number of rings (size 3 to 8) (size 9 to 14) (size 15 to 20)
#    0.000    1.200    2.000    6.600    2.800    0.000 
#    0.000    1.000    0.000    0.000    0.000    0.000 
#    0.000    0.000    0.000    0.000    0.000    0.000 
#
# Total GULP energy -223919.836964 kJ/mol
# GULP energy per Si atom -5597.995924 kJ/mol
# Density = 2.410150 g / cm^3
# Si number density = 24.156476 Si / 1000 Ang^3
#
#
#
# Elastic Constant Matrix: (Units=GPa)
#
#
# Indices 1 2 3 4 5 6 
#
# 1 168.1681 8.8285 39.2908 0.0000 0.0000 0.0000
# 2 8.8285 33.3215 -11.7267 0.0000 0.0000 0.0000
# 3 39.2908 -11.7267 141.4719 0.0000 0.0000 0.0000
# 4 0.0000 0.0000 0.0000 -23.6804 0.0000 0.0000
# 5 0.0000 0.0000 0.0000 0.0000 24.5752 0.0000
# 6 0.0000 0.0000 0.0000 0.0000 0.0000 -147.1498
#
#
#
# Elastic Compliance Matrix: (Units=1/GPa)
#
#
# Indices 1 2 3 4 5 6 
#
# 1 0.006547 -0.002446 -0.002021 0.000000 0.000000 0.000000
# 2 -0.002446 0.031826 0.003317 0.000000 0.000000 0.000000
# 3 -0.002021 0.003317 0.007905 0.000000 0.000000 0.000000
# 4 0.000000 0.000000 0.000000 -0.042229 0.000000 0.000000
# 5 0.000000 0.000000 0.000000 0.000000 0.040691 0.000000
# 6 0.000000 0.000000 0.000000 0.000000 0.000000 -0.006796
#
#
# Mechanical properties :
#
#
# Convention : Reuss Voigt Hill
#
# Bulk Modulus (GPa) = 22.73816 46.19407 34.46612
# Shear Modulus (GPa) = 91.06936 -8.81304 41.12816
#
# Velocity S-wave (km/s) = 6.14668 -1.91213 4.13070
# Velocity P-wave (km/s) = 7.73361 3.78013 6.08680
#
# Compressibility (1/GPa) = 0.04397893
#
# Stress axis : x y z
#
# Youngs Moduli (GPa) = 152.74097 31.42070 126.50503
#
# Poissons Ratio (x) = 0.07685 0.25567
# Poissons Ratio (y) = 0.37359 -0.41967
# Poissons Ratio (z) = 0.30870 -0.10423
#
# Static dielectric constant tensor:
#      x y z
#    x 1.930080 0.000000 0.000000 
#    y 0.000000 1.920830 0.000000 
#    z 0.000000 0.000000 1.925600 
# 
# From -- ./inp_files/6532.got.cif
#   From: 2010.05.17/outbox.cif.g08.bks.cpg/sg60_4_cif.got.tgz:6532.got - 2010.06.03 14:59:27.
