data_PCOD9454780
_publ_section_title
;
Structure prediction by ZEFSAII (Michael W. Deem and Ramdas Pophale) SiO2 
 PCOD9454780
Probable space group: P B C N
;
_chemical_formula_sum "Si O2"
_cell_formula_units_Z 56
_cell_length_a 21.667416
_cell_length_b 7.849029
_cell_length_c 15.713937
_cell_angle_alpha 90.000000
_cell_angle_beta 90.000000
_cell_angle_gamma 90.000000
_cell_volume 2672.440612
_symmetry_space_group_name_H-M "P B C N"
_symmetry_group_IT_number 60
_symmetry_cell_setting 'orthorhombic'
loop_
_space_group_symop_operation_xyz
x,y,z
1/2-x,1/2-y,1/2+z
1/2+x,1/2-y,-z
-x,y,1/2-z
-x,-y,-z
1/2+x,1/2+y,1/2-z
1/2-x,1/2+y,z
x,-y,1/2+z
loop_
_atom_site_type_symbol
_atom_site_label
_atom_site_fract_x
_atom_site_fract_y
_atom_site_fract_z
Si Si1 0.762942 0.368327 0.203719
Si Si2 0.315669 0.049746 0.031921
Si Si3 0.688342 0.663678 0.527519
Si Si4 0.555338 0.853821 0.685997
Si Si5 0.173837 0.676701 0.214439
Si Si6 0.444449 0.461262 0.436130
Si Si7 0.614764 0.208792 0.624158
O O1 0.790815 0.554118 0.218958
O O2 0.723419 0.326906 0.287695
O O3 0.825796 0.262993 0.185444
O O4 0.718002 0.361631 0.121895
O O5 0.322034 0.860508 0.995262
O O6 0.243070 0.093094 0.030688
O O7 0.338419 0.080990 0.127071
O O8 0.352830 0.171452 0.967066
O O9 0.622373 0.574254 0.520994
O O10 0.500000 0.886568 0.750000
O O11 0.610649 0.773834 0.741648
O O12 0.540525 0.711254 0.615790
O O13 0.579449 0.034544 0.649442
O O14 0.500000 0.500000 0.500000
O O15 0.430028 0.629561 0.380015
#
# Coordination Sequence:
#
# PCOD9454780 Si02
#       7
#     8   8   8   8   8   8   8
#     4  10  19  38  67  94 128 175 214 274 348 397
#     4  11  22  38  70 104 137 176 222 291 347 404
#     4  11  20  42  63 100 142 176 227 276 343 418
#     4  11  26  48  68  93 139 183 225 286 340 404
#     4  11  22  38  65 100 132 172 222 278 346 402
#     4  12  26  43  70 100 132 186 238 273 337 420
#     4  10  23  45  72  98 130 184 226 278 351 404
#
# _framework density 20.954630000000002
#
# number of rings (size 3 to 8) (size 9 to 14) (size 15 to 20)
#    0.000    1.143    2.857    5.143    2.000    2.286 
#    0.000    1.429    0.000    0.000    0.000    0.000 
#    0.000    0.000    0.000    0.000    0.000    0.000 
#
# Total GULP energy -312699.017454 kJ/mol
# GULP energy per Si atom -5583.911026 kJ/mol
# Density = 2.090694 g / cm^3
# Si number density = 20.954630 Si / 1000 Ang^3
#
#
#
# Elastic Constant Matrix: (Units=GPa)
#
#
# Indices 1 2 3 4 5 6 
#
# 1 96.4631 10.9858 17.1437 0.0000 0.0000 0.0000
# 2 10.9858 59.7083 -5.3850 0.0000 0.0000 0.0000
# 3 17.1437 -5.3850 56.9478 0.0000 0.0000 0.0000
# 4 0.0000 0.0000 0.0000 23.3228 0.0000 0.0000
# 5 0.0000 0.0000 0.0000 0.0000 34.7871 0.0000
# 6 0.0000 0.0000 0.0000 0.0000 0.0000 22.4113
#
#
#
# Elastic Compliance Matrix: (Units=1/GPa)
#
#
# Indices 1 2 3 4 5 6 
#
# 1 0.011284 -0.002403 -0.003624 0.000000 0.000000 0.000000
# 2 -0.002403 0.017404 0.002369 0.000000 0.000000 0.000000
# 3 -0.003624 0.002369 0.018875 0.000000 0.000000 0.000000
# 4 0.000000 0.000000 0.000000 0.042877 0.000000 0.000000
# 5 0.000000 0.000000 0.000000 0.000000 0.028746 0.000000
# 6 0.000000 0.000000 0.000000 0.000000 0.000000 0.044620
#
#
# Mechanical properties :
#
#
# Convention : Reuss Voigt Hill
#
# Bulk Modulus (GPa) = 24.84667 28.73424 26.79046
# Shear Modulus (GPa) = 27.09456 28.79587 27.94522
#
# Velocity S-wave (km/s) = 3.59975 3.71104 3.65582
# Velocity P-wave (km/s) = 5.40006 5.66611 5.53469
#
# Compressibility (1/GPa) = 0.04024684
#
# Stress axis : x y z
#
# Youngs Moduli (GPa) = 88.61743 57.45833 52.97998
#
# Poissons Ratio (x) = 0.13808 0.19202
# Poissons Ratio (y) = 0.21296 -0.12552
# Poissons Ratio (z) = 0.32118 -0.13613
#
# Static dielectric constant tensor:
#      x y z
#    x 1.771090 0.000000 0.000000 
#    y 0.000000 1.834820 0.000000 
#    z 0.000000 0.000000 1.774210 
# 
# From -- ./inp_files/17700.got.cif
#   From: 2010.05.17/outbox.cif.g08.bks.cpg/sg60_9_cif.got.tgz:17700.got - 2010.06.03 14:59:27.
