data_PCOD9454762
_publ_section_title
;
Structure prediction by ZEFSAII (Michael W. Deem and Ramdas Pophale) SiO2 
 PCOD9454762
Probable space group: P B C N
;
_chemical_formula_sum "Si O2"
_cell_formula_units_Z 56
_cell_length_a 17.198000
_cell_length_b 15.390073
_cell_length_c 10.072180
_cell_angle_alpha 90.000000
_cell_angle_beta 90.000000
_cell_angle_gamma 90.000000
_cell_volume 2665.889247
_symmetry_space_group_name_H-M "P B C N"
_symmetry_group_IT_number 60
_symmetry_cell_setting 'orthorhombic'
loop_
_space_group_symop_operation_xyz
x,y,z
1/2-x,1/2-y,1/2+z
1/2+x,1/2-y,-z
-x,y,1/2-z
-x,-y,-z
1/2+x,1/2+y,1/2-z
1/2-x,1/2+y,z
x,-y,1/2+z
loop_
_atom_site_type_symbol
_atom_site_label
_atom_site_fract_x
_atom_site_fract_y
_atom_site_fract_z
Si Si1 0.916051 0.495700 0.300626
Si Si2 0.858487 0.757201 0.449883
Si Si3 0.850354 0.665871 0.189156
Si Si4 0.167483 0.436031 0.450479
Si Si5 0.705133 0.430378 0.576201
Si Si6 0.031556 0.773563 0.402251
Si Si7 0.052845 0.968547 0.379444
O O1 0.906696 0.595067 0.253779
O O2 0.894296 0.508903 0.456250
O O3 0.000000 0.464183 0.250000
O O4 0.854969 0.445993 0.204768
O O5 0.840338 0.742173 0.294842
O O6 0.829913 0.666076 0.514506
O O7 0.823169 0.850079 0.486797
O O8 0.951066 0.762882 0.480304
O O9 0.770029 0.617781 0.164684
O O10 0.900479 0.704753 0.068840
O O11 0.246926 0.487824 0.482415
O O12 0.628899 0.473116 0.639100
O O13 0.000000 0.763669 0.250000
O O14 0.068912 0.868128 0.411472
O O15 0.000000 0.970818 0.250000
O O16 0.000000 0.000000 0.500000
#
# Coordination Sequence:
#
# PCOD9454762 Si02
#       7
#     8   8   8   8   8   8   8
#     4  10  19  38  62  90 126 164 209 254 316 383
#     4  10  20  40  61  88 125 167 214 257 316 388
#     4   9  20  37  59  90 120 166 212 257 304 391
#     4  10  23  37  62  94 124 167 207 268 318 381
#     4  11  24  40  60  96 133 164 218 271 330 373
#     4   9  18  38  65  88 115 172 219 247 312 395
#     4  11  24  43  66  94 128 175 219 271 319 387
#
# _framework density 21.006122999999999
#
# number of rings (size 3 to 8) (size 9 to 14) (size 15 to 20)
#    0.000    2.000    1.429    2.571    2.000    5.714 
#    0.000    0.714    0.000    0.000    0.000    0.000 
#    0.000    0.000    0.000    0.000    0.000    0.000 
#
# Total GULP energy -311749.426855 kJ/mol
# GULP energy per Si atom -5566.954051 kJ/mol
# Density = 2.095831 g / cm^3
# Si number density = 21.006123 Si / 1000 Ang^3
#
#
#
# Elastic Constant Matrix: (Units=GPa)
#
#
# Indices 1 2 3 4 5 6 
#
# 1 112.9225 52.1002 2.0498 0.0000 0.0000 0.0000
# 2 52.1002 129.4407 3.5210 0.0000 0.0000 0.0000
# 3 2.0498 3.5210 22.9323 0.0000 0.0000 0.0000
# 4 0.0000 0.0000 0.0000 25.9544 0.0000 0.0000
# 5 0.0000 0.0000 0.0000 0.0000 14.2885 0.0000
# 6 0.0000 0.0000 0.0000 0.0000 0.0000 42.3826
#
#
#
# Elastic Compliance Matrix: (Units=1/GPa)
#
#
# Indices 1 2 3 4 5 6 
#
# 1 0.010877 -0.004370 -0.000301 0.000000 0.000000 0.000000
# 2 -0.004370 0.009514 -0.001070 0.000000 0.000000 0.000000
# 3 -0.000301 -0.001070 0.043798 0.000000 0.000000 0.000000
# 4 0.000000 0.000000 0.000000 0.038529 0.000000 0.000000
# 5 0.000000 0.000000 0.000000 0.000000 0.069986 0.000000
# 6 0.000000 0.000000 0.000000 0.000000 0.000000 0.023595
#
#
# Mechanical properties :
#
#
# Convention : Reuss Voigt Hill
#
# Bulk Modulus (GPa) = 18.97313 42.29305 30.63309
# Shear Modulus (GPa) = 22.18767 30.36672 26.27719
#
# Velocity S-wave (km/s) = 3.25352 3.80625 3.54069
# Velocity P-wave (km/s) = 4.81307 6.28443 5.59731
#
# Compressibility (1/GPa) = 0.05270611
#
# Stress axis : x y z
#
# Youngs Moduli (GPa) = 91.93453 105.11299 22.83212
#
# Poissons Ratio (x) = 0.45934 0.00688
# Poissons Ratio (y) = 0.40175 0.02443
# Poissons Ratio (z) = 0.02770 0.11248
#
# Static dielectric constant tensor:
#      x y z
#    x 1.849570 0.000000 0.000000 
#    y 0.000000 1.772520 0.000000 
#    z 0.000000 0.000000 1.806150 
# 
# From -- ./inp_files/11952.got.cif
#   From: 2010.05.17/outbox.cif.g08.bks.cpg/sg60_6_cif.got.tgz:11952.got - 2010.06.03 14:59:27.
