data_PCOD9454375
_publ_section_title
;
Structure prediction by ZEFSAII (Michael W. Deem and Ramdas Pophale) SiO2 
 PCOD9454375
Probable space group: P B C N
;
_chemical_formula_sum "Si O2"
_cell_formula_units_Z 60
_cell_length_a 8.505776
_cell_length_b 13.913386
_cell_length_c 19.845329
_cell_angle_alpha 90.000000
_cell_angle_beta 90.000000
_cell_angle_gamma 90.000000
_cell_volume 2348.578487
_symmetry_space_group_name_H-M "P B C N"
_symmetry_group_IT_number 60
_symmetry_cell_setting 'orthorhombic'
loop_
_space_group_symop_operation_xyz
x,y,z
1/2-x,1/2-y,1/2+z
1/2+x,1/2-y,-z
-x,y,1/2-z
-x,-y,-z
1/2+x,1/2+y,1/2-z
1/2-x,1/2+y,z
x,-y,1/2+z
loop_
_atom_site_type_symbol
_atom_site_label
_atom_site_fract_x
_atom_site_fract_y
_atom_site_fract_z
Si Si1 0.000000 0.418174 0.250000
Si Si2 0.686709 0.404246 0.817586
Si Si3 0.374265 0.602057 0.606862
Si Si4 0.236536 0.561480 0.326993
Si Si5 0.927471 0.718185 0.869455
Si Si6 0.773015 0.020022 0.020577
Si Si7 0.493822 0.219451 0.140538
Si Si8 0.948333 0.641970 0.501464
O O1 0.109071 0.485052 0.297104
O O2 0.074788 0.344342 0.197846
O O3 0.683970 0.506613 0.854605
O O4 0.660656 0.422536 0.738961
O O5 0.569606 0.329382 0.852336
O O6 0.853712 0.345703 0.826416
O O7 0.235099 0.680342 0.599966
O O8 0.398543 0.567020 0.530144
O O9 0.493907 0.665741 0.651698
O O10 0.301683 0.525350 0.399110
O O11 0.149996 0.662784 0.340110
O O12 0.052541 0.688961 0.925198
O O13 0.715697 0.915146 0.996126
O O14 0.604439 0.075246 0.008078
O O15 0.474312 0.212163 0.060151
#
# Coordination Sequence:
#
# PCOD9454375 Si02
#       8
#     4   8   8   8   8   8   8   8
#     4  12  18  34  58  82 108 152 196 232 288 342
#     4  11  20  35  57  84 116 150 196 242 294 349
#     4  10  19  35  56  86 113 152 190 241 295 343
#     4  11  19  33  59  87 112 150 195 244 289 355
#     4  10  21  33  56  83 111 146 194 244 286 342
#     4   9  17  30  54  80 109 140 195 246 274 333
#     4  10  19  32  59  86 114 148 195 240 294 352
#     4   9  16  31  52  80 106 143 190 241 286 334
#
# _framework density 25.547370000000001
#
# number of rings (size 3 to 8) (size 9 to 14) (size 15 to 20)
#    0.000    1.867    5.333    0.000    0.000    0.000 
#    2.400    0.667    8.800    0.000    0.000    0.000 
#    0.000    0.000    0.000    0.000    0.000    0.000 
#
# Total GULP energy -335115.863094 kJ/mol
# GULP energy per Si atom -5585.264385 kJ/mol
# Density = 2.548922 g / cm^3
# Si number density = 25.547370 Si / 1000 Ang^3
#
#
#
# Elastic Constant Matrix: (Units=GPa)
#
#
# Indices 1 2 3 4 5 6 
#
# 1 30.7571 12.4854 -1.1235 0.0000 0.0000 0.0000
# 2 12.4854 133.7820 28.2347 0.0000 0.0000 0.0000
# 3 -1.1235 28.2347 139.3336 0.0000 0.0000 0.0000
# 4 0.0000 0.0000 0.0000 6.1438 0.0000 0.0000
# 5 0.0000 0.0000 0.0000 0.0000 25.1033 0.0000
# 6 0.0000 0.0000 0.0000 0.0000 0.0000 25.7416
#
#
#
# Elastic Compliance Matrix: (Units=1/GPa)
#
#
# Indices 1 2 3 4 5 6 
#
# 1 0.033914 -0.003367 0.000956 0.000000 0.000000 0.000000
# 2 -0.003367 0.008143 -0.001677 0.000000 0.000000 0.000000
# 3 0.000956 -0.001677 0.007525 0.000000 0.000000 0.000000
# 4 0.000000 0.000000 0.000000 0.162765 0.000000 0.000000
# 5 0.000000 0.000000 0.000000 0.000000 0.039835 0.000000
# 6 0.000000 0.000000 0.000000 0.000000 0.000000 0.038848
#
#
# Mechanical properties :
#
#
# Convention : Reuss Voigt Hill
#
# Bulk Modulus (GPa) = 24.15146 42.56287 33.35717
# Shear Modulus (GPa) = 15.97398 29.01615 22.49506
#
# Velocity S-wave (km/s) = 2.50325 3.37379 2.97058
# Velocity P-wave (km/s) = 4.22246 5.64563 4.98509
#
# Compressibility (1/GPa) = 0.04140536
#
# Stress axis : x y z
#
# Youngs Moduli (GPa) = 29.48598 122.80419 132.89732
#
# Poissons Ratio (x) = 0.41346 -0.12701
# Poissons Ratio (y) = 0.09927 0.22290
# Poissons Ratio (z) = -0.02818 0.20597
#
# Static dielectric constant tensor:
#      x y z
#    x 2.155700 0.000000 0.000000 
#    y 0.000000 2.055810 0.000000 
#    z 0.000000 0.000000 1.997860 
# 
# From -- ./inp_files/20629.got.cif
#   From: 2010.05.17/outbox.cif.g08.bks.cpg/sg60_11_cif.got.tgz:20629.got - 2010.06.03 14:59:27.
