data_PCOD9454732
_publ_section_title
;
Structure prediction by ZEFSAII (Michael W. Deem and Ramdas Pophale) SiO2 
 PCOD9454732
Probable space group: P B C N
;
_chemical_formula_sum "Si O2"
_cell_formula_units_Z 32
_cell_length_a 7.413121
_cell_length_b 32.414338
_cell_length_c 5.468535
_cell_angle_alpha 90.000000
_cell_angle_beta 90.000000
_cell_angle_gamma 90.000000
_cell_volume 1314.041984
_symmetry_space_group_name_H-M "P B C N"
_symmetry_group_IT_number 60
_symmetry_cell_setting 'orthorhombic'
loop_
_space_group_symop_operation_xyz
x,y,z
1/2-x,1/2-y,1/2+z
1/2+x,1/2-y,-z
-x,y,1/2-z
-x,-y,-z
1/2+x,1/2+y,1/2-z
1/2-x,1/2+y,z
x,-y,1/2+z
loop_
_atom_site_type_symbol
_atom_site_label
_atom_site_fract_x
_atom_site_fract_y
_atom_site_fract_z
Si Si1 0.793781 0.983118 0.990871
Si Si2 0.819657 0.354813 0.493784
Si Si3 0.774742 0.612985 0.493130
Si Si4 0.333728 0.240133 0.606209
O O1 0.783874 0.934095 0.972163
O O2 0.710892 0.002588 0.747116
O O3 0.000000 0.000000 0.000000
O O4 0.720773 0.362901 0.748319
O O5 0.872380 0.307125 0.466487
O O6 0.006492 0.380916 0.500770
O O7 0.715212 0.368807 0.252609
O O8 0.299048 0.260935 0.343096
O O9 0.500000 0.260535 0.750000
#
# Coordination Sequence:
#
# PCOD9454732 Si02
#       4
#     8   8   8   8
#     4  10  21  38  61  90 128 171 213 276 345 408
#     4  10  21  39  65  95 126 176 228 278 333 420
#     4  10  19  37  67  89 125 171 227 273 337 401
#     4  12  25  44  76 105 149 188 241 303 363 429
#
# _framework density 24.352342
#
# number of rings (size 3 to 8) (size 9 to 14) (size 15 to 20)
#    0.000    1.500    2.500    3.750    3.500    0.000 
#    0.000   15.000   55.000    0.000    0.000    0.000 
#    0.000    0.000    0.000    0.000    0.000    0.000 
#
# Total GULP energy -178669.362011 kJ/mol
# GULP energy per Si atom -5583.417563 kJ/mol
# Density = 2.429692 g / cm^3
# Si number density = 24.352342 Si / 1000 Ang^3
#
#
#
# Elastic Constant Matrix: (Units=GPa)
#
#
# Indices 1 2 3 4 5 6 
#
# 1 88.7474 12.3774 14.9338 0.0000 0.0000 0.0000
# 2 12.3774 102.0504 27.6559 0.0000 0.0000 0.0000
# 3 14.9338 27.6559 265.8902 0.0000 0.0000 0.0000
# 4 0.0000 0.0000 0.0000 62.2223 0.0000 0.0000
# 5 0.0000 0.0000 0.0000 0.0000 -0.1964 0.0000
# 6 0.0000 0.0000 0.0000 0.0000 0.0000 86.2144
#
#
#
# Elastic Compliance Matrix: (Units=1/GPa)
#
#
# Indices 1 2 3 4 5 6 
#
# 1 0.011530 -0.001258 -0.000517 0.000000 0.000000 0.000000
# 2 -0.001258 0.010221 -0.000992 0.000000 0.000000 0.000000
# 3 -0.000517 -0.000992 0.003893 0.000000 0.000000 0.000000
# 4 0.000000 0.000000 0.000000 0.016071 0.000000 0.000000
# 5 0.000000 0.000000 0.000000 0.000000 -5.091404 0.000000
# 6 0.000000 0.000000 0.000000 0.000000 0.000000 0.011599
#
#
# Mechanical properties :
#
#
# Convention : Reuss Voigt Hill
#
# Bulk Modulus (GPa) = 49.72869 62.95802 56.34336
# Shear Modulus (GPa) = -0.99486 56.42947 27.71731
#
# Velocity S-wave (km/s) = -0.63985 4.81896 3.37735
# Velocity P-wave (km/s) = 4.46306 7.54137 6.19642
#
# Compressibility (1/GPa) = 0.02010912
#
# Stress axis : x y z
#
# Youngs Moduli (GPa) = 86.72726 97.84111 256.85859
#
# Poissons Ratio (x) = 0.12313 0.13272
# Poissons Ratio (y) = 0.10914 0.25490
# Poissons Ratio (z) = 0.04481 0.09710
#
# Static dielectric constant tensor:
#      x y z
#    x 1.972770 0.000000 0.000000 
#    y 0.000000 1.854460 0.000000 
#    z 0.000000 0.000000 2.109030 
# 
# From -- ./inp_files/366.got.cif
#   From: 2010.05.17/outbox.cif.g08.bks.cpg/sg60_1_cif.got.tgz:366.got - 2010.06.03 14:59:27.
