data_PCOD9454660
_publ_section_title
;
Structure prediction by ZEFSAII (Michael W. Deem and Ramdas Pophale) SiO2 
 PCOD9454660
Probable space group: P B C N
;
_chemical_formula_sum "Si O2"
_cell_formula_units_Z 56
_cell_length_a 21.874575
_cell_length_b 23.487404
_cell_length_c 5.245464
_cell_angle_alpha 90.000000
_cell_angle_beta 90.000000
_cell_angle_gamma 90.000000
_cell_volume 2694.998654
_symmetry_space_group_name_H-M "P B C N"
_symmetry_group_IT_number 60
_symmetry_cell_setting 'orthorhombic'
loop_
_space_group_symop_operation_xyz
x,y,z
1/2-x,1/2-y,1/2+z
1/2+x,1/2-y,-z
-x,y,1/2-z
-x,-y,-z
1/2+x,1/2+y,1/2-z
1/2-x,1/2+y,z
x,-y,1/2+z
loop_
_atom_site_type_symbol
_atom_site_label
_atom_site_fract_x
_atom_site_fract_y
_atom_site_fract_z
Si Si1 0.500000 0.462194 0.250000
Si Si2 0.097680 0.883339 0.102942
Si Si3 0.119101 0.207971 0.997538
Si Si4 0.293204 0.621362 0.315533
Si Si5 0.500000 0.673458 0.250000
Si Si6 0.433102 0.961656 0.769180
Si Si7 0.274854 0.779559 0.069035
Si Si8 0.805214 0.461205 0.882230
O O1 0.500000 0.500000 0.500000
O O2 0.561123 0.424320 0.212703
O O3 0.118035 0.823477 0.226506
O O4 0.157024 0.911898 0.983498
O O5 0.044105 0.866627 0.910937
O O6 0.153880 0.267387 0.019096
O O7 0.162608 0.165100 0.162219
O O8 0.049223 0.209147 0.089374
O O9 0.249038 0.658560 0.495579
O O10 0.251058 0.581486 0.147694
O O11 0.500000 0.933146 0.750000
O O12 0.370337 0.930794 0.687176
O O13 0.431732 0.012534 0.555336
O O14 0.242842 0.738109 0.856438
O O15 0.802973 0.509176 0.658354
#
# Coordination Sequence:
#
# PCOD9454660 Si02
#       8
#     4   8   8   8   4   8   8   8
#     4  12  27  40  56  82 118 160 218 263 296 344
#     4  11  21  39  59  79 116 161 205 252 304 362
#     4  10  20  36  62  86 116 153 204 249 308 368
#     4  10  23  36  59  86 122 156 198 253 305 368
#     4  10  19  36  62  88 110 156 206 243 302 370
#     4   8  14  28  50  74  97 132 180 221 260 324
#     4  10  20  37  59  91 114 148 196 245 303 368
#     4  10  22  36  54  84 118 155 196 238 296 355
#
# _framework density 20.779232
#
# number of rings (size 3 to 8) (size 9 to 14) (size 15 to 20)
#    0.000    2.000    2.857    0.429    4.000    1.143 
#    0.000    0.000    0.000    1.714   14.857    0.000 
#    0.000    0.000    0.000    0.000    0.000    0.000 
#
# Total GULP energy -312035.879113 kJ/mol
# GULP energy per Si atom -5572.069270 kJ/mol
# Density = 2.073194 g / cm^3
# Si number density = 20.779232 Si / 1000 Ang^3
#
#
#
# Elastic Constant Matrix: (Units=GPa)
#
#
# Indices 1 2 3 4 5 6 
#
# 1 138.5975 23.4583 11.9130 0.0000 0.0000 0.0000
# 2 23.4583 18.8848 0.4157 0.0000 0.0000 0.0000
# 3 11.9130 0.4157 75.7146 0.0000 0.0000 0.0000
# 4 0.0000 0.0000 0.0000 13.1684 0.0000 0.0000
# 5 0.0000 0.0000 0.0000 0.0000 35.8652 0.0000
# 6 0.0000 0.0000 0.0000 0.0000 0.0000 14.5478
#
#
#
# Elastic Compliance Matrix: (Units=1/GPa)
#
#
# Indices 1 2 3 4 5 6 
#
# 1 0.009281 -0.011498 -0.001397 0.000000 0.000000 0.000000
# 2 -0.011498 0.067204 0.001440 0.000000 0.000000 0.000000
# 3 -0.001397 0.001440 0.013419 0.000000 0.000000 0.000000
# 4 0.000000 0.000000 0.000000 0.075940 0.000000 0.000000
# 5 0.000000 0.000000 0.000000 0.000000 0.027882 0.000000
# 6 0.000000 0.000000 0.000000 0.000000 0.000000 0.068739
#
#
# Mechanical properties :
#
#
# Convention : Reuss Voigt Hill
#
# Bulk Modulus (GPa) = 14.92673 33.86342 24.39508
# Shear Modulus (GPa) = 16.24920 25.87694 21.06307
#
# Velocity S-wave (km/s) = 2.79945 3.53275 3.18726
# Velocity P-wave (km/s) = 4.20099 5.74217 5.03095
#
# Compressibility (1/GPa) = 0.06699389
#
# Stress axis : x y z
#
# Youngs Moduli (GPa) = 107.74242 14.88010 74.51883
#
# Poissons Ratio (x) = 0.17110 0.10412
# Poissons Ratio (y) = 1.23886 -0.10732
# Poissons Ratio (z) = 0.15054 -0.02143
#
# Static dielectric constant tensor:
#      x y z
#    x 1.775570 0.000000 0.000000 
#    y 0.000000 1.744620 0.000000 
#    z 0.000000 0.000000 1.799380 
# 
# From -- ./inp_files/2149.got.cif
#   From: 2010.05.17/outbox.cif.g08.bks.cpg/sg60_2_cif.got.tgz:2149.got - 2010.06.03 14:59:27.
