data_PCOD9454275
_publ_section_title
;
Structure prediction by ZEFSAII (Michael W. Deem and Ramdas Pophale) SiO2 
 PCOD9454275
Probable space group: P B C N
;
_chemical_formula_sum "Si O2"
_cell_formula_units_Z 48
_cell_length_a 4.984277
_cell_length_b 25.705471
_cell_length_c 21.144414
_cell_angle_alpha 90.000000
_cell_angle_beta 90.000000
_cell_angle_gamma 90.000000
_cell_volume 2709.089728
_symmetry_space_group_name_H-M "P B C N"
_symmetry_group_IT_number 60
_symmetry_cell_setting 'orthorhombic'
loop_
_space_group_symop_operation_xyz
x,y,z
1/2-x,1/2-y,1/2+z
1/2+x,1/2-y,-z
-x,y,1/2-z
-x,-y,-z
1/2+x,1/2+y,1/2-z
1/2-x,1/2+y,z
x,-y,1/2+z
loop_
_atom_site_type_symbol
_atom_site_label
_atom_site_fract_x
_atom_site_fract_y
_atom_site_fract_z
Si Si1 0.725302 0.562748 0.041059
Si Si2 0.993088 0.927879 0.325138
Si Si3 0.233719 0.291564 0.431472
Si Si4 0.737999 0.318891 0.514509
Si Si5 0.711439 0.001653 0.419537
Si Si6 0.007270 0.361699 0.325644
O O1 0.427381 0.541223 0.050802
O O2 0.933828 0.532796 0.087009
O O3 0.716050 0.624524 0.044653
O O4 0.821580 0.544429 0.971198
O O5 0.793244 0.879894 0.340946
O O6 0.000000 0.935837 0.250000
O O7 0.293336 0.910063 0.342146
O O8 0.859029 0.976396 0.359819
O O9 0.522091 0.308985 0.458415
O O10 0.210725 0.229212 0.437100
O O11 0.132152 0.314504 0.365168
O O12 0.027508 0.314406 0.482763
O O13 0.000000 0.352686 0.250000
#
# Coordination Sequence:
#
# PCOD9454275 Si02
#       6
#     8   8   8   8   8   8
#     4  10  19  30  46  70  97 125 159 195 238 287
#     4  10  20  33  50  73  99 128 161 200 246 294
#     4  10  19  32  50  72  99 129 159 199 248 293
#     4  10  20  32  49  72  99 130 162 199 244 295
#     4  10  19  30  47  69  95 127 157 196 240 283
#     4  10  19  31  50  74  98 125 159 201 248 294
#
# _framework density 17.718129999999999
#
# number of rings (size 3 to 8) (size 9 to 14) (size 15 to 20)
#    0.000    2.000    0.000    5.000    0.000    2.667 
#    0.000    0.000    0.000    1.000    0.000    7.000 
#    0.000    0.000    0.000    0.000    0.000    0.000 
#
# Total GULP energy -267642.929173 kJ/mol
# GULP energy per Si atom -5575.894358 kJ/mol
# Density = 1.767780 g / cm^3
# Si number density = 17.718130 Si / 1000 Ang^3
#
#
#
# Elastic Constant Matrix: (Units=GPa)
#
#
# Indices 1 2 3 4 5 6 
#
# 1 61.3375 3.9045 7.3332 0.0000 0.0000 0.0000
# 2 3.9045 103.6982 35.1785 0.0000 0.0000 0.0000
# 3 7.3332 35.1785 50.9700 0.0000 0.0000 0.0000
# 4 0.0000 0.0000 0.0000 19.0976 0.0000 0.0000
# 5 0.0000 0.0000 0.0000 0.0000 23.0400 0.0000
# 6 0.0000 0.0000 0.0000 0.0000 0.0000 21.7194
#
#
#
# Elastic Compliance Matrix: (Units=1/GPa)
#
#
# Indices 1 2 3 4 5 6 
#
# 1 0.016593 0.000242 -0.002554 0.000000 0.000000 0.000000
# 2 0.000242 0.012595 -0.008728 0.000000 0.000000 0.000000
# 3 -0.002554 -0.008728 0.026010 0.000000 0.000000 0.000000
# 4 0.000000 0.000000 0.000000 0.052363 0.000000 0.000000
# 5 0.000000 0.000000 0.000000 0.000000 0.043403 0.000000
# 6 0.000000 0.000000 0.000000 0.000000 0.000000 0.046042
#
#
# Mechanical properties :
#
#
# Convention : Reuss Voigt Hill
#
# Bulk Modulus (GPa) = 30.19448 34.31534 32.25491
# Shear Modulus (GPa) = 21.72728 24.07737 22.90232
#
# Velocity S-wave (km/s) = 3.50562 3.69034 3.59916
# Velocity P-wave (km/s) = 5.78484 6.12924 5.95953
#
# Compressibility (1/GPa) = 0.03311863
#
# Stress axis : x y z
#
# Youngs Moduli (GPa) = 60.26560 79.39646 38.44602
#
# Poissons Ratio (x) = -0.01919 0.09820
# Poissons Ratio (y) = -0.01456 0.33554
# Poissons Ratio (z) = 0.15392 0.69294
#
# Static dielectric constant tensor:
#      x y z
#    x 1.618070 0.000000 0.000000 
#    y 0.000000 1.613900 0.000000 
#    z 0.000000 0.000000 1.610310 
# 
# From -- ./inp_files/21591.got.cif
#   From: 2010.05.17/outbox.cif.g08.bks.cpg/sg60_11_cif.got.tgz:21591.got - 2010.06.03 14:59:27.
