data_PCOD9454726
_publ_section_title
;
Structure prediction by ZEFSAII (Michael W. Deem and Ramdas Pophale) SiO2 
 PCOD9454726
Probable space group: P B C N
;
_chemical_formula_sum "Si O2"
_cell_formula_units_Z 48
_cell_length_a 16.226262
_cell_length_b 17.095221
_cell_length_c 9.385650
_cell_angle_alpha 90.000000
_cell_angle_beta 90.000000
_cell_angle_gamma 90.000000
_cell_volume 2603.499859
_symmetry_space_group_name_H-M "P B C N"
_symmetry_group_IT_number 60
_symmetry_cell_setting 'orthorhombic'
loop_
_space_group_symop_operation_xyz
x,y,z
1/2-x,1/2-y,1/2+z
1/2+x,1/2-y,-z
-x,y,1/2-z
-x,-y,-z
1/2+x,1/2+y,1/2-z
1/2-x,1/2+y,z
x,-y,1/2+z
loop_
_atom_site_type_symbol
_atom_site_label
_atom_site_fract_x
_atom_site_fract_y
_atom_site_fract_z
Si Si1 0.939254 0.655942 0.622038
Si Si2 0.964027 0.572350 0.091428
Si Si3 0.950913 0.059355 0.896913
Si Si4 0.811109 0.477323 0.045332
Si Si5 0.298322 0.536622 0.220204
Si Si6 0.583081 0.335788 0.658583
O O1 0.865318 0.594841 0.602435
O O2 0.907380 0.742619 0.652374
O O3 0.000000 0.631870 0.750000
O O4 0.997670 0.648624 0.482893
O O5 0.867325 0.555237 0.069390
O O6 0.000000 0.567122 0.250000
O O7 0.000000 0.500000 0.000000
O O8 0.000000 0.076036 0.750000
O O9 0.868014 0.015384 0.852890
O O10 0.930637 0.132131 0.998954
O O11 0.000000 0.000000 0.000000
O O12 0.731626 0.491211 0.140634
O O13 0.779794 0.459675 0.886359
O O14 0.341801 0.617401 0.267805
O O15 0.500000 0.352508 0.750000
#
# Coordination Sequence:
#
# PCOD9454726 Si02
#       6
#     8   8   8   8   8   8
#     4  10  22  42  61  86 124 162 202 249 302 357
#     4  10  19  37  65  90 120 160 208 244 289 366
#     4  12  20  38  63  82 111 155 211 243 284 361
#     4  11  21  36  62  93 117 156 197 246 305 361
#     4  12  21  36  61  88 120 153 197 251 299 359
#     4  11  23  41  61  85 119 161 203 254 303 354
#
# _framework density 18.436720000000001
#
# number of rings (size 3 to 8) (size 9 to 14) (size 15 to 20)
#    0.000    1.000    5.000    5.000    0.000    0.667 
#    3.000    1.667    0.000    0.000    0.000    0.000 
#    0.000    0.000    0.000    0.000    0.000    0.000 
#
# Total GULP energy -267707.337563 kJ/mol
# GULP energy per Si atom -5577.236199 kJ/mol
# Density = 1.839476 g / cm^3
# Si number density = 18.436720 Si / 1000 Ang^3
#
#
#
# Elastic Constant Matrix: (Units=GPa)
#
#
# Indices 1 2 3 4 5 6 
#
# 1 78.0693 30.0663 29.9859 0.0000 0.0000 0.0000
# 2 30.0663 78.4494 27.4197 0.0000 0.0000 0.0000
# 3 29.9859 27.4197 126.2543 0.0000 0.0000 0.0000
# 4 0.0000 0.0000 0.0000 27.1480 0.0000 0.0000
# 5 0.0000 0.0000 0.0000 0.0000 48.6580 0.0000
# 6 0.0000 0.0000 0.0000 0.0000 0.0000 22.9813
#
#
#
# Elastic Compliance Matrix: (Units=1/GPa)
#
#
# Indices 1 2 3 4 5 6 
#
# 1 0.015799 -0.005133 -0.002638 0.000000 0.000000 0.000000
# 2 -0.005133 0.015462 -0.002139 0.000000 0.000000 0.000000
# 3 -0.002638 -0.002139 0.009011 0.000000 0.000000 0.000000
# 4 0.000000 0.000000 0.000000 0.036835 0.000000 0.000000
# 5 0.000000 0.000000 0.000000 0.000000 0.020552 0.000000
# 6 0.000000 0.000000 0.000000 0.000000 0.000000 0.043514
#
#
# Mechanical properties :
#
#
# Convention : Reuss Voigt Hill
#
# Bulk Modulus (GPa) = 48.89181 50.85744 49.87463
# Shear Modulus (GPa) = 29.79561 32.77753 31.28657
#
# Velocity S-wave (km/s) = 4.02444 4.22102 4.12390
# Velocity P-wave (km/s) = 6.94054 7.16943 7.05591
#
# Compressibility (1/GPa) = 0.02045332
#
# Stress axis : x y z
#
# Youngs Moduli (GPa) = 63.29464 64.67463 110.96984
#
# Poissons Ratio (x) = 0.33199 0.29269
# Poissons Ratio (y) = 0.32491 0.23735
# Poissons Ratio (z) = 0.16694 0.13833
#
# Static dielectric constant tensor:
#      x y z
#    x 1.588260 0.000000 0.000000 
#    y 0.000000 1.631520 0.000000 
#    z 0.000000 0.000000 1.674190 
# 
# From -- ./inp_files/5893.got.cif
#   From: 2010.05.17/outbox.cif.g08.bks.cpg/sg60_3_cif.got.tgz:5893.got - 2010.06.03 14:59:27.
