data_PCOD9454858
_publ_section_title
;
Structure prediction by ZEFSAII (Michael W. Deem and Ramdas Pophale) SiO2 
 PCOD9454858
Probable space group: P B C N
;
_chemical_formula_sum "Si O2"
_cell_formula_units_Z 28
_cell_length_a 14.587101
_cell_length_b 5.446306
_cell_length_c 14.093373
_cell_angle_alpha 90.000000
_cell_angle_beta 90.000000
_cell_angle_gamma 90.000000
_cell_volume 1119.659514
_symmetry_space_group_name_H-M "P B C N"
_symmetry_group_IT_number 60
_symmetry_cell_setting 'orthorhombic'
loop_
_space_group_symop_operation_xyz
x,y,z
1/2-x,1/2-y,1/2+z
1/2+x,1/2-y,-z
-x,y,1/2-z
-x,-y,-z
1/2+x,1/2+y,1/2-z
1/2-x,1/2+y,z
x,-y,1/2+z
loop_
_atom_site_type_symbol
_atom_site_label
_atom_site_fract_x
_atom_site_fract_y
_atom_site_fract_z
Si Si1 0.029950 0.251300 0.051394
Si Si2 0.737799 0.203298 0.999111
Si Si3 0.000000 0.963129 0.750000
Si Si4 0.304391 0.683488 0.707707
O O1 0.138763 0.275485 0.046895
O O2 0.996632 0.210982 0.158103
O O3 0.000000 0.500000 0.000000
O O4 0.000000 0.000000 0.000000
O O5 0.754516 0.451715 0.054906
O O6 0.805178 0.196989 0.908408
O O7 0.907453 0.127440 0.757166
O O8 0.241665 0.445146 0.732704
#
# Coordination Sequence:
#
# PCOD9454858 Si02
#       4
#     8   8   4   8
#     4  12  28  46  74 118 149 204 270 314 392 474
#     4  10  19  43  72  96 152 201 231 320 397 422
#     4  12  26  50  84 106 164 202 262 334 388 476
#     4  10  22  41  74 106 143 208 242 308 407 438
#
# _framework density 25.0076
#
# number of rings (size 3 to 8) (size 9 to 14) (size 15 to 20)
#    0.000    1.143    5.714    1.714    4.000    4.571 
#    0.000    8.571    0.000    0.000    0.000    0.000 
#    0.000    0.000    0.000    0.000    0.000    0.000 
#
# Total GULP energy -156669.711640 kJ/mol
# GULP energy per Si atom -5595.346844 kJ/mol
# Density = 2.495068 g / cm^3
# Si number density = 25.007600 Si / 1000 Ang^3
#
#
#
# Elastic Constant Matrix: (Units=GPa)
#
#
# Indices 1 2 3 4 5 6 
#
# 1 123.1800 51.5181 10.7856 0.0000 0.0000 0.0000
# 2 51.5181 278.6097 76.5652 0.0000 0.0000 0.0000
# 3 10.7856 76.5652 139.5890 0.0000 0.0000 0.0000
# 4 0.0000 0.0000 0.0000 26.6290 0.0000 0.0000
# 5 0.0000 0.0000 0.0000 0.0000 -18.0136 0.0000
# 6 0.0000 0.0000 0.0000 0.0000 0.0000 -2.8869
#
#
#
# Elastic Compliance Matrix: (Units=1/GPa)
#
#
# Indices 1 2 3 4 5 6 
#
# 1 0.008806 -0.001697 0.000250 0.000000 0.000000 0.000000
# 2 -0.001697 0.004553 -0.002366 0.000000 0.000000 0.000000
# 3 0.000250 -0.002366 0.008443 0.000000 0.000000 0.000000
# 4 0.000000 0.000000 0.000000 0.037553 0.000000 0.000000
# 5 0.000000 0.000000 0.000000 0.000000 -0.055514 0.000000
# 6 0.000000 0.000000 0.000000 0.000000 0.000000 -0.346391
#
#
# Mechanical properties :
#
#
# Convention : Reuss Voigt Hill
#
# Bulk Modulus (GPa) = 70.54280 91.01293 80.77787
# Shear Modulus (GPa) = -15.14244 27.97970 6.41863
#
# Velocity S-wave (km/s) = -2.46339 3.34855 1.60382
# Velocity P-wave (km/s) = 4.49208 7.17102 5.98340
#
# Compressibility (1/GPa) = 0.01417579
#
# Stress axis : x y z
#
# Youngs Moduli (GPa) = 113.55777 219.61613 118.44800
#
# Poissons Ratio (x) = 0.37273 -0.02967
# Poissons Ratio (y) = 0.19273 0.28030
# Poissons Ratio (z) = -0.02845 0.51970
#
# Static dielectric constant tensor:
#      x y z
#    x 2.025760 0.000000 0.000000 
#    y 0.000000 2.106780 0.000000 
#    z 0.000000 0.000000 1.954600 
# 
# From -- ./inp_files/20326.got.cif
#   From: 2010.05.17/outbox.cif.g08.bks.cpg/sg60_11_cif.got.tgz:20326.got - 2010.06.03 14:59:27.
