data_PCOD9454991
_publ_section_title
;
Structure prediction by ZEFSAII (Michael W. Deem and Ramdas Pophale) SiO2 
 PCOD9454991
Probable space group: P B C N
;
_chemical_formula_sum "Si O2"
_cell_formula_units_Z 44
_cell_length_a 24.516159
_cell_length_b 5.683831
_cell_length_c 13.387651
_cell_angle_alpha 90.000000
_cell_angle_beta 90.000000
_cell_angle_gamma 90.000000
_cell_volume 1865.511661
_symmetry_space_group_name_H-M "P B C N"
_symmetry_group_IT_number 60
_symmetry_cell_setting 'orthorhombic'
loop_
_space_group_symop_operation_xyz
x,y,z
1/2-x,1/2-y,1/2+z
1/2+x,1/2-y,-z
-x,y,1/2-z
-x,-y,-z
1/2+x,1/2+y,1/2-z
1/2-x,1/2+y,z
x,-y,1/2+z
loop_
_atom_site_type_symbol
_atom_site_label
_atom_site_fract_x
_atom_site_fract_y
_atom_site_fract_z
Si Si1 0.586251 0.340730 0.985909
Si Si2 0.971924 0.247623 0.072057
Si Si3 0.899103 0.618635 0.186579
Si Si4 0.330833 0.922310 0.143932
Si Si5 0.000000 0.104056 0.750000
Si Si6 0.736507 0.230209 0.474056
O O1 0.530031 0.189051 0.977362
O O2 0.623284 0.254172 0.896356
O O3 0.565954 0.606342 0.995076
O O4 0.615434 0.279362 0.091179
O O5 0.934062 0.412631 0.136840
O O6 0.992122 0.055906 0.153793
O O7 0.849044 0.521176 0.250228
O O8 0.944382 0.746100 0.255419
O O9 0.274608 0.781799 0.123934
O O10 0.321462 0.142069 0.067364
O O11 0.739683 0.488871 0.524245
#
# Coordination Sequence:
#
# PCOD9454991 Si02
#       6
#     8   8   8   8   4   8
#     4  10  22  37  60  94 128 174 212 266 322 403
#     4  10  21  37  56  94 136 168 212 259 320 405
#     4  11  22  37  62  94 123 169 213 262 325 388
#     4  10  21  41  64  89 126 171 216 276 333 389
#     4  10  20  34  56  92 128 172 212 248 320 398
#     4   8  20  40  65  90 121 165 220 269 331 386
#
# _framework density 23.586023999999998
#
# number of rings (size 3 to 8) (size 9 to 14) (size 15 to 20)
#    1.091    1.091    0.000    3.273    0.000    8.727 
#    0.000    1.818    0.000    0.000    0.000    0.000 
#    0.000    0.000    0.000    0.000    0.000    0.000 
#
# Total GULP energy -245131.907024 kJ/mol
# GULP energy per Si atom -5571.179705 kJ/mol
# Density = 2.353234 g / cm^3
# Si number density = 23.586024 Si / 1000 Ang^3
#
#
#
# Elastic Constant Matrix: (Units=GPa)
#
#
# Indices 1 2 3 4 5 6 
#
# 1 57.7333 -0.9874 -5.2323 0.0000 0.0000 0.0000
# 2 -0.9874 56.1256 0.0372 0.0000 0.0000 0.0000
# 3 -5.2323 0.0372 37.9782 0.0000 0.0000 0.0000
# 4 0.0000 0.0000 0.0000 26.1092 0.0000 0.0000
# 5 0.0000 0.0000 0.0000 0.0000 16.2152 0.0000
# 6 0.0000 0.0000 0.0000 0.0000 0.0000 26.0229
#
#
#
# Elastic Compliance Matrix: (Units=1/GPa)
#
#
# Indices 1 2 3 4 5 6 
#
# 1 0.017545 0.000307 0.002417 0.000000 0.000000 0.000000
# 2 0.000307 0.017823 0.000025 0.000000 0.000000 0.000000
# 3 0.002417 0.000025 0.026664 0.000000 0.000000 0.000000
# 4 0.000000 0.000000 0.000000 0.038301 0.000000 0.000000
# 5 0.000000 0.000000 0.000000 0.000000 0.061670 0.000000
# 6 0.000000 0.000000 0.000000 0.000000 0.000000 0.038428
#
#
# Mechanical properties :
#
#
# Convention : Reuss Voigt Hill
#
# Bulk Modulus (GPa) = 14.80834 15.49688 15.15261
# Shear Modulus (GPa) = 22.99457 24.20410 23.59934
#
# Velocity S-wave (km/s) = 3.12576 3.20692 3.16660
# Velocity P-wave (km/s) = 4.39537 4.50523 4.45064
#
# Compressibility (1/GPa) = 0.06752953
#
# Stress axis : x y z
#
# Youngs Moduli (GPa) = 56.99523 56.10861 37.50395
#
# Poissons Ratio (x) = -0.01723 -0.09064
# Poissons Ratio (y) = -0.01750 -0.00093
# Poissons Ratio (z) = -0.13775 -0.00140
#
# Static dielectric constant tensor:
#      x y z
#    x 1.904410 0.000000 0.000000 
#    y 0.000000 2.067260 0.000000 
#    z 0.000000 0.000000 1.887190 
# 
# From -- ./inp_files/18119.got.cif
#   From: 2010.05.17/outbox.cif.g08.bks.cpg/sg60_10_cif.got.tgz:18119.got - 2010.06.03 14:59:27.
