data_PCOD9454164
_publ_section_title
;
Structure prediction by ZEFSAII (Michael W. Deem and Ramdas Pophale) SiO2 
 PCOD9454164
Probable space group: P B C N
;
_chemical_formula_sum "Si O2"
_cell_formula_units_Z 48
_cell_length_a 9.780893
_cell_length_b 13.655165
_cell_length_c 18.229928
_cell_angle_alpha 90.000000
_cell_angle_beta 90.000000
_cell_angle_gamma 90.000000
_cell_volume 2434.783856
_symmetry_space_group_name_H-M "P B C N"
_symmetry_group_IT_number 60
_symmetry_cell_setting 'orthorhombic'
loop_
_space_group_symop_operation_xyz
x,y,z
1/2-x,1/2-y,1/2+z
1/2+x,1/2-y,-z
-x,y,1/2-z
-x,-y,-z
1/2+x,1/2+y,1/2-z
1/2-x,1/2+y,z
x,-y,1/2+z
loop_
_atom_site_type_symbol
_atom_site_label
_atom_site_fract_x
_atom_site_fract_y
_atom_site_fract_z
Si Si1 0.191898 0.492173 0.989634
Si Si2 0.136610 0.590681 0.714958
Si Si3 0.706059 0.571361 0.360497
Si Si4 0.909412 0.132143 0.087601
Si Si5 0.335903 0.707002 0.263816
Si Si6 0.008961 0.647741 0.933972
O O1 0.330904 0.440216 0.966105
O O2 0.134287 0.570869 0.932057
O O3 0.209095 0.552386 0.065588
O O4 0.086374 0.402924 0.004312
O O5 0.256388 0.519322 0.691574
O O6 0.187524 0.677463 0.767054
O O7 0.000000 0.542879 0.750000
O O8 0.078954 0.641518 0.640581
O O9 0.550297 0.583480 0.385678
O O10 0.737499 0.662545 0.307200
O O11 0.814898 0.153368 0.159181
O O12 0.945760 0.240176 0.055553
O O13 0.500000 0.696465 0.250000
#
# Coordination Sequence:
#
# PCOD9454164 Si02
#       6
#     8   8   8   8   8   8
#     4  10  24  37  60  90 120 157 203 252 306 379
#     4  10  18  36  61  83 113 161 198 244 302 364
#     4  10  21  36  59  88 119 154 205 246 304 361
#     4  11  21  38  62  88 121 160 203 256 311 359
#     4   9  18  35  58  83 110 155 198 239 301 359
#     4  10  21  40  59  85 117 157 200 246 311 371
#
# _framework density 19.714276000000002
#
# number of rings (size 3 to 8) (size 9 to 14) (size 15 to 20)
#    0.000    2.000    5.000    0.500    4.667    0.000 
#    0.000    0.000    0.000    3.000    0.000    0.000 
#    0.000    0.000    0.000    0.000    0.000    0.000 
#
# Total GULP energy -267341.410447 kJ/mol
# GULP energy per Si atom -5569.612718 kJ/mol
# Density = 1.966941 g / cm^3
# Si number density = 19.714276 Si / 1000 Ang^3
#
#
#
# Elastic Constant Matrix: (Units=GPa)
#
#
# Indices 1 2 3 4 5 6 
#
# 1 52.2719 44.7307 9.2145 0.0000 0.0000 0.0000
# 2 44.7307 94.7456 29.2565 0.0000 0.0000 0.0000
# 3 9.2145 29.2565 58.9685 0.0000 0.0000 0.0000
# 4 0.0000 0.0000 0.0000 27.4753 0.0000 0.0000
# 5 0.0000 0.0000 0.0000 0.0000 16.1349 0.0000
# 6 0.0000 0.0000 0.0000 0.0000 0.0000 34.2651
#
#
#
# Elastic Compliance Matrix: (Units=1/GPa)
#
#
# Indices 1 2 3 4 5 6 
#
# 1 0.032541 -0.016288 0.002996 0.000000 0.000000 0.000000
# 2 -0.016288 0.020617 -0.007684 0.000000 0.000000 0.000000
# 3 0.002996 -0.007684 0.020302 0.000000 0.000000 0.000000
# 4 0.000000 0.000000 0.000000 0.036396 0.000000 0.000000
# 5 0.000000 0.000000 0.000000 0.000000 0.061977 0.000000
# 6 0.000000 0.000000 0.000000 0.000000 0.000000 0.029184
#
#
# Mechanical properties :
#
#
# Convention : Reuss Voigt Hill
#
# Bulk Modulus (GPa) = 31.73700 41.37659 36.55680
# Shear Modulus (GPa) = 19.72600 23.76068 21.74334
#
# Velocity S-wave (km/s) = 3.16665 3.47544 3.32463
# Velocity P-wave (km/s) = 5.43173 6.09415 5.77245
#
# Compressibility (1/GPa) = 0.03150896
#
# Stress axis : x y z
#
# Youngs Moduli (GPa) = 30.73053 48.50330 49.25577
#
# Poissons Ratio (x) = 0.79003 -0.14759
# Poissons Ratio (y) = 0.50055 0.37847
# Poissons Ratio (z) = -0.09208 0.37269
#
# Static dielectric constant tensor:
#      x y z
#    x 1.703570 0.000000 0.000000 
#    y 0.000000 1.714750 0.000000 
#    z 0.000000 0.000000 1.765290 
# 
# From -- ./inp_files/19320.got.cif
#   From: 2010.05.17/outbox.cif.g08.bks.cpg/sg60_10_cif.got.tgz:19320.got - 2010.06.03 14:59:27.
