data_PCOD9454407
_publ_section_title
;
Structure prediction by ZEFSAII (Michael W. Deem and Ramdas Pophale) SiO2 
 PCOD9454407
Probable space group: P B C N
;
_chemical_formula_sum "Si O2"
_cell_formula_units_Z 64
_cell_length_a 23.031918
_cell_length_b 9.331347
_cell_length_c 15.256291
_cell_angle_alpha 90.000000
_cell_angle_beta 90.000000
_cell_angle_gamma 90.000000
_cell_volume 3278.864043
_symmetry_space_group_name_H-M "P B C N"
_symmetry_group_IT_number 60
_symmetry_cell_setting 'orthorhombic'
loop_
_space_group_symop_operation_xyz
x,y,z
1/2-x,1/2-y,1/2+z
1/2+x,1/2-y,-z
-x,y,1/2-z
-x,-y,-z
1/2+x,1/2+y,1/2-z
1/2-x,1/2+y,z
x,-y,1/2+z
loop_
_atom_site_type_symbol
_atom_site_label
_atom_site_fract_x
_atom_site_fract_y
_atom_site_fract_z
Si Si1 0.112216 0.171847 0.595502
Si Si2 0.435946 0.951809 0.527444
Si Si3 0.261932 0.352099 0.677049
Si Si4 0.065407 0.585952 0.718267
Si Si5 0.257323 0.600621 0.560731
Si Si6 0.647835 0.812466 0.535321
Si Si7 0.110842 0.866580 0.637990
Si Si8 0.852842 0.344573 0.728011
O O1 0.076814 0.282779 0.535193
O O2 0.174466 0.131837 0.551151
O O3 0.126161 0.250661 0.688304
O O4 0.082690 0.019635 0.617011
O O5 0.500000 0.000000 0.500000
O O6 0.428674 0.011410 0.624712
O O7 0.388437 0.040424 0.473785
O O8 0.244018 0.437748 0.588271
O O9 0.261513 0.186988 0.648555
O O10 0.328190 0.398169 0.688091
O O11 0.214638 0.376794 0.750932
O O12 0.078628 0.751904 0.698630
O O13 0.110981 0.493284 0.774431
O O14 0.000000 0.567721 0.750000
O O15 0.214912 0.652225 0.485130
O O16 0.626129 0.708978 0.456166
O O17 0.640543 0.764374 0.635397
#
# Coordination Sequence:
#
# PCOD9454407 Si02
#       8
#     8   8   8   8   8   8   8   8
#     4   9  19  37  57  77 109 151 184 223 285 342
#     4  10  20  37  58  79 106 145 190 229 271 331
#     4   9  16  31  52  74 105 145 180 215 271 335
#     4  10  20  37  57  79 108 145 186 227 272 328
#     4   9  16  31  52  74 105 145 181 217 274 334
#     4  10  19  33  54  82 112 145 189 239 276 323
#     4   9  19  37  56  77 112 150 180 226 289 339
#     4  10  19  33  55  82 109 146 193 234 270 324
#
# _framework density 19.518954999999998
#
# number of rings (size 3 to 8) (size 9 to 14) (size 15 to 20)
#    0.000    2.500    0.000    4.500    0.000    0.000 
#    0.000   30.000    0.000    0.000    0.000    0.000 
#    0.000    0.000    0.000    0.000    0.000    0.000 
#
# Total GULP energy -356303.273590 kJ/mol
# GULP energy per Si atom -5567.238650 kJ/mol
# Density = 1.947453 g / cm^3
# Si number density = 19.518955 Si / 1000 Ang^3
#
#
#
# Elastic Constant Matrix: (Units=GPa)
#
#
# Indices 1 2 3 4 5 6 
#
# 1 61.6940 21.1839 23.2472 0.0000 0.0000 0.0000
# 2 21.1839 108.3558 9.8851 0.0000 0.0000 0.0000
# 3 23.2472 9.8851 76.1803 0.0000 0.0000 0.0000
# 4 0.0000 0.0000 0.0000 9.4154 0.0000 0.0000
# 5 0.0000 0.0000 0.0000 0.0000 28.7938 0.0000
# 6 0.0000 0.0000 0.0000 0.0000 0.0000 44.3643
#
#
#
# Elastic Compliance Matrix: (Units=1/GPa)
#
#
# Indices 1 2 3 4 5 6 
#
# 1 0.019411 -0.003293 -0.005496 0.000000 0.000000 0.000000
# 2 -0.003293 0.009898 -0.000279 0.000000 0.000000 0.000000
# 3 -0.005496 -0.000279 0.014840 0.000000 0.000000 0.000000
# 4 0.000000 0.000000 0.000000 0.106209 0.000000 0.000000
# 5 0.000000 0.000000 0.000000 0.000000 0.034730 0.000000
# 6 0.000000 0.000000 0.000000 0.000000 0.000000 0.022541
#
#
# Mechanical properties :
#
#
# Convention : Reuss Voigt Hill
#
# Bulk Modulus (GPa) = 38.44455 39.42917 38.93686
# Shear Modulus (GPa) = 21.32765 29.30896 25.31831
#
# Velocity S-wave (km/s) = 3.30913 3.87921 3.60545
# Velocity P-wave (km/s) = 5.85997 6.34891 6.10933
#
# Compressibility (1/GPa) = 0.02601149
#
# Stress axis : x y z
#
# Youngs Moduli (GPa) = 51.51742 101.02820 67.38458
#
# Poissons Ratio (x) = 0.33273 0.37035
# Poissons Ratio (y) = 0.16967 0.01882
# Poissons Ratio (z) = 0.28314 0.02822
#
# Static dielectric constant tensor:
#      x y z
#    x 1.367200 0.000000 0.000000 
#    y 0.000000 1.740510 0.000000 
#    z 0.000000 0.000000 1.672650 
# 
# From -- ./inp_files/17935.got.cif
#   From: 2010.05.17/outbox.cif.g08.bks.cpg/sg60_9_cif.got.tgz:17935.got - 2010.06.03 14:59:27.
