data_PCOD9454445
_publ_section_title
;
Structure prediction by ZEFSAII (Michael W. Deem and Ramdas Pophale) SiO2 
 PCOD9454445
Probable space group: P B C N
;
_chemical_formula_sum "Si O2"
_cell_formula_units_Z 64
_cell_length_a 16.883208
_cell_length_b 23.246529
_cell_length_c 9.695306
_cell_angle_alpha 90.000000
_cell_angle_beta 90.000000
_cell_angle_gamma 90.000000
_cell_volume 3805.174766
_symmetry_space_group_name_H-M "P B C N"
_symmetry_group_IT_number 60
_symmetry_cell_setting 'orthorhombic'
loop_
_space_group_symop_operation_xyz
x,y,z
1/2-x,1/2-y,1/2+z
1/2+x,1/2-y,-z
-x,y,1/2-z
-x,-y,-z
1/2+x,1/2+y,1/2-z
1/2-x,1/2+y,z
x,-y,1/2+z
loop_
_atom_site_type_symbol
_atom_site_label
_atom_site_fract_x
_atom_site_fract_y
_atom_site_fract_z
Si Si1 0.500379 0.244903 0.415550
Si Si2 0.942169 0.125076 0.980626
Si Si3 0.592222 0.532902 0.761461
Si Si4 0.653092 0.791721 0.413235
Si Si5 0.894075 0.932634 0.958555
Si Si6 0.228951 0.834619 0.596189
Si Si7 0.644054 0.795858 0.098717
Si Si8 0.716987 0.332928 0.600263
O O1 0.500000 0.237005 0.250000
O O2 0.519693 0.312676 0.445691
O O3 0.419086 0.222892 0.484129
O O4 0.569086 0.211641 0.498843
O O5 0.909888 0.092973 0.844596
O O6 0.864708 0.132579 0.075383
O O7 0.012901 0.085870 0.041345
O O8 0.500000 0.517308 0.750000
O O9 0.623614 0.542108 0.609382
O O10 0.627859 0.481319 0.848991
O O11 0.697852 0.730681 0.399751
O O12 0.626861 0.809631 0.258842
O O13 0.716945 0.834913 0.481112
O O14 0.843717 0.875874 0.935926
O O15 0.294941 0.837862 0.478277
O O16 0.255296 0.847322 0.752570
O O17 0.686034 0.733071 0.102185
#
# Coordination Sequence:
#
# PCOD9454445 Si02
#       8
#     8   8   8   8   8   8   8   8
#     4  11  19  31  53  75 104 136 173 207 254 314
#     4  10  20  33  51  73 100 142 182 210 259 299
#     4  10  22  35  47  72  98 138 178 228 254 285
#     4  10  19  34  50  72 101 133 172 211 253 305
#     4  11  22  35  52  70 105 140 181 221 255 301
#     4  10  20  33  50  70  99 138 175 210 261 301
#     4   9  20  33  46  74 100 130 171 213 252 304
#     4   9  20  31  50  70  97 134 174 217 248 307
#
# _framework density 16.819199999999999
#
# number of rings (size 3 to 8) (size 9 to 14) (size 15 to 20)
#    0.000    2.000    1.250    3.750    5.250    2.000 
#    0.000    0.000    0.000    0.000    0.000    0.000 
#    0.000    1.000    0.750    0.125    0.000    0.000 
#
# Total GULP energy -356617.742639 kJ/mol
# GULP energy per Si atom -5572.152229 kJ/mol
# Density = 1.678092 g / cm^3
# Si number density = 16.819200 Si / 1000 Ang^3
#
#
#
# Elastic Constant Matrix: (Units=GPa)
#
#
# Indices 1 2 3 4 5 6 
#
# 1 54.7461 15.2188 43.4655 0.0000 0.0000 0.0000
# 2 15.2188 34.4878 26.4010 0.0000 0.0000 0.0000
# 3 43.4655 26.4010 138.7633 0.0000 0.0000 0.0000
# 4 0.0000 0.0000 0.0000 5.3285 0.0000 0.0000
# 5 0.0000 0.0000 0.0000 0.0000 20.2510 0.0000
# 6 0.0000 0.0000 0.0000 0.0000 0.0000 2.0450
#
#
#
# Elastic Compliance Matrix: (Units=1/GPa)
#
#
# Indices 1 2 3 4 5 6 
#
# 1 0.025321 -0.005972 -0.006795 0.000000 0.000000 0.000000
# 2 -0.005972 0.035347 -0.004855 0.000000 0.000000 0.000000
# 3 -0.006795 -0.004855 0.010259 0.000000 0.000000 0.000000
# 4 0.000000 0.000000 0.000000 0.187671 0.000000 0.000000
# 5 0.000000 0.000000 0.000000 0.000000 0.049380 0.000000
# 6 0.000000 0.000000 0.000000 0.000000 0.000000 0.489000
#
#
# Mechanical properties :
#
#
# Convention : Reuss Voigt Hill
#
# Bulk Modulus (GPa) = 28.02395 44.24089 36.13242
# Shear Modulus (GPa) = 5.92335 15.05235 10.48785
#
# Velocity S-wave (km/s) = 1.87868 2.99482 2.49984
# Velocity P-wave (km/s) = 4.62644 6.19027 5.46459
#
# Compressibility (1/GPa) = 0.03568376
#
# Stress axis : x y z
#
# Youngs Moduli (GPa) = 39.49229 28.29075 97.47841
#
# Poissons Ratio (x) = 0.16895 0.66240
# Poissons Ratio (y) = 0.23584 0.47321
# Poissons Ratio (z) = 0.26836 0.13734
#
# Static dielectric constant tensor:
#      x y z
#    x 1.571050 0.000000 0.000000 
#    y 0.000000 1.558920 0.000000 
#    z 0.000000 0.000000 1.642560 
# 
# From -- ./inp_files/7089.got.cif
#   From: 2010.05.17/outbox.cif.g08.bks.cpg/sg60_4_cif.got.tgz:7089.got - 2010.06.03 14:59:27.
