data_PCOD9454961
_publ_section_title
;
Structure prediction by ZEFSAII (Michael W. Deem and Ramdas Pophale) SiO2 
 PCOD9454961
Probable space group: P B C N
;
_chemical_formula_sum "Si O2"
_cell_formula_units_Z 56
_cell_length_a 12.181736
_cell_length_b 23.386800
_cell_length_c 10.742598
_cell_angle_alpha 90.000000
_cell_angle_beta 90.000000
_cell_angle_gamma 90.000000
_cell_volume 3060.478333
_symmetry_space_group_name_H-M "P B C N"
_symmetry_group_IT_number 60
_symmetry_cell_setting 'orthorhombic'
loop_
_space_group_symop_operation_xyz
x,y,z
1/2-x,1/2-y,1/2+z
1/2+x,1/2-y,-z
-x,y,1/2-z
-x,-y,-z
1/2+x,1/2+y,1/2-z
1/2-x,1/2+y,z
x,-y,1/2+z
loop_
_atom_site_type_symbol
_atom_site_label
_atom_site_fract_x
_atom_site_fract_y
_atom_site_fract_z
Si Si1 0.598142 0.232447 0.849625
Si Si2 0.689105 0.329601 0.247691
Si Si3 0.571067 0.388899 0.578493
Si Si4 0.762173 0.822407 0.963006
Si Si5 0.063992 0.235285 0.543311
Si Si6 0.113200 0.952230 0.176205
Si Si7 0.328566 0.421633 0.676578
O O1 0.500000 0.230977 0.750000
O O2 0.693349 0.188326 0.808133
O O3 0.662726 0.292292 0.857923
O O4 0.543325 0.231843 0.988109
O O5 0.684239 0.320882 0.099671
O O6 0.597992 0.292289 0.322651
O O7 0.668906 0.396823 0.263641
O O8 0.573607 0.322233 0.540525
O O9 0.588544 0.429867 0.461405
O O10 0.449858 0.405399 0.624982
O O11 0.663167 0.401779 0.680897
O O12 0.657096 0.782594 0.976429
O O13 0.746384 0.885949 0.910345
O O14 0.000000 0.964259 0.250000
O O15 0.181717 0.010302 0.173184
#
# Coordination Sequence:
#
# PCOD9454961 Si02
#       7
#     8   8   8   8   8   8   8
#     4  11  20  39  59  82 121 158 193 241 306 361
#     4  10  24  36  56  89 119 156 202 248 295 367
#     4  10  20  34  52  82 114 157 181 231 304 359
#     4  11  22  34  59  89 116 154 203 238 295 368
#     4  10  21  36  58  86 119 153 192 244 298 357
#     4  11  22  36  54  85 122 153 192 248 307 351
#     4  11  21  32  58  81 116 156 190 236 296 370
#
# _framework density 18.297794
#
# number of rings (size 3 to 8) (size 9 to 14) (size 15 to 20)
#    0.000    1.429    4.286    2.143    6.000    0.000 
#    0.000    0.000    0.000    0.857    0.000    0.000 
#    0.000    0.000    0.000    0.000    0.000    0.000 
#
# Total GULP energy -311927.867066 kJ/mol
# GULP energy per Si atom -5570.140483 kJ/mol
# Density = 1.825615 g / cm^3
# Si number density = 18.297794 Si / 1000 Ang^3
#
#
#
# Elastic Constant Matrix: (Units=GPa)
#
#
# Indices 1 2 3 4 5 6 
#
# 1 51.9424 23.1777 13.5068 0.0000 0.0000 0.0000
# 2 23.1777 111.6985 33.5952 0.0000 0.0000 0.0000
# 3 13.5068 33.5952 84.4950 0.0000 0.0000 0.0000
# 4 0.0000 0.0000 0.0000 4.5360 0.0000 0.0000
# 5 0.0000 0.0000 0.0000 0.0000 21.7246 0.0000
# 6 0.0000 0.0000 0.0000 0.0000 0.0000 24.8742
#
#
#
# Elastic Compliance Matrix: (Units=1/GPa)
#
#
# Indices 1 2 3 4 5 6 
#
# 1 0.021478 -0.003889 -0.001887 0.000000 0.000000 0.000000
# 2 -0.003889 0.010873 -0.003701 0.000000 0.000000 0.000000
# 3 -0.001887 -0.003701 0.013608 0.000000 0.000000 0.000000
# 4 0.000000 0.000000 0.000000 0.220461 0.000000 0.000000
# 5 0.000000 0.000000 0.000000 0.000000 0.046031 0.000000
# 6 0.000000 0.000000 0.000000 0.000000 0.000000 0.040202
#
#
# Mechanical properties :
#
#
# Convention : Reuss Voigt Hill
#
# Bulk Modulus (GPa) = 37.03114 43.18835 40.10975
# Shear Modulus (GPa) = 13.13680 22.08402 17.61041
#
# Velocity S-wave (km/s) = 2.68236 3.47785 3.10568
# Velocity P-wave (km/s) = 5.46583 6.30726 5.90156
#
# Compressibility (1/GPa) = 0.02700430
#
# Stress axis : x y z
#
# Youngs Moduli (GPa) = 46.55875 91.97133 73.48436
#
# Poissons Ratio (x) = 0.35770 0.13866
# Poissons Ratio (y) = 0.18108 0.27199
# Poissons Ratio (z) = 0.08786 0.34042
#
# Static dielectric constant tensor:
#      x y z
#    x 1.654530 0.000000 0.000000 
#    y 0.000000 1.642610 0.000000 
#    z 0.000000 0.000000 1.705790 
# 
# From -- ./inp_files/11191.got.cif
#   From: 2010.05.17/outbox.cif.g08.bks.cpg/sg60_6_cif.got.tgz:11191.got - 2010.06.03 14:59:27.
