data_PCOD9454957
_publ_section_title
;
Structure prediction by ZEFSAII (Michael W. Deem and Ramdas Pophale) SiO2 
 PCOD9454957
Probable space group: P B C N
;
_chemical_formula_sum "Si O2"
_cell_formula_units_Z 48
_cell_length_a 11.409259
_cell_length_b 26.242551
_cell_length_c 8.546700
_cell_angle_alpha 90.000000
_cell_angle_beta 90.000000
_cell_angle_gamma 90.000000
_cell_volume 2558.950876
_symmetry_space_group_name_H-M "P B C N"
_symmetry_group_IT_number 60
_symmetry_cell_setting 'orthorhombic'
loop_
_space_group_symop_operation_xyz
x,y,z
1/2-x,1/2-y,1/2+z
1/2+x,1/2-y,-z
-x,y,1/2-z
-x,-y,-z
1/2+x,1/2+y,1/2-z
1/2-x,1/2+y,z
x,-y,1/2+z
loop_
_atom_site_type_symbol
_atom_site_label
_atom_site_fract_x
_atom_site_fract_y
_atom_site_fract_z
Si Si1 0.500000 0.696564 0.750000
Si Si2 0.833229 0.248090 0.497457
Si Si3 0.625529 0.054569 0.433660
Si Si4 0.147878 0.554437 0.439064
Si Si5 0.173171 0.341779 0.423150
Si Si6 0.500000 0.215533 0.750000
Si Si7 0.784235 0.149710 0.920073
O O1 0.418078 0.731894 0.859805
O O2 0.418697 0.662446 0.632172
O O3 0.739750 0.203094 0.490165
O O4 0.901490 0.251093 0.332670
O O5 0.766749 0.301895 0.515371
O O6 0.638105 0.053531 0.247754
O O7 0.489299 0.061082 0.489026
O O8 0.686236 0.105243 0.493014
O O9 0.676765 0.002236 0.501079
O O10 0.237805 0.597663 0.499523
O O11 0.221822 0.348671 0.248687
O O12 0.043758 0.320422 0.390733
#
# Coordination Sequence:
#
# PCOD9454957 Si02
#       7
#     4   8   8   8   8   4   8
#     4  10  22  38  56  80 118 154 192 238 284 346
#     4  10  21  35  55  81 111 148 185 227 279 338
#     4  10  20  35  55  83 111 139 183 235 289 345
#     4  10  21  34  56  82 109 144 182 234 293 345
#     4  10  20  34  53  76 108 144 179 224 273 330
#     4  10  20  34  52  76 110 144 180 224 276 334
#     4  10  21  36  55  80 111 149 187 229 284 340
#
# _framework density 18.757687000000001
#
# number of rings (size 3 to 8) (size 9 to 14) (size 15 to 20)
#    0.000    2.000    0.000    4.000    0.000   10.667 
#    0.000    0.000    0.000   10.000    0.000    0.000 
#    0.000    0.000    0.000    0.000    0.000    0.000 
#
# Total GULP energy -267515.329276 kJ/mol
# GULP energy per Si atom -5573.236027 kJ/mol
# Density = 1.871499 g / cm^3
# Si number density = 18.757687 Si / 1000 Ang^3
#
#
#
# Elastic Constant Matrix: (Units=GPa)
#
#
# Indices 1 2 3 4 5 6 
#
# 1 76.2379 60.0717 23.2615 0.0000 0.0000 0.0000
# 2 60.0717 192.7333 56.6151 0.0000 0.0000 0.0000
# 3 23.2615 56.6151 54.1333 0.0000 0.0000 0.0000
# 4 0.0000 0.0000 0.0000 31.6605 0.0000 0.0000
# 5 0.0000 0.0000 0.0000 0.0000 25.4251 0.0000
# 6 0.0000 0.0000 0.0000 0.0000 0.0000 15.8331
#
#
#
# Elastic Compliance Matrix: (Units=1/GPa)
#
#
# Indices 1 2 3 4 5 6 
#
# 1 0.017645 -0.004724 -0.002642 0.000000 0.000000 0.000000
# 2 -0.004724 0.008754 -0.007125 0.000000 0.000000 0.000000
# 3 -0.002642 -0.007125 0.027060 0.000000 0.000000 0.000000
# 4 0.000000 0.000000 0.000000 0.031585 0.000000 0.000000
# 5 0.000000 0.000000 0.000000 0.000000 0.039331 0.000000
# 6 0.000000 0.000000 0.000000 0.000000 0.000000 0.063159
#
#
# Mechanical properties :
#
#
# Convention : Reuss Voigt Hill
#
# Bulk Modulus (GPa) = 40.85465 67.00012 53.92739
# Shear Modulus (GPa) = 22.25436 26.79417 24.52426
#
# Velocity S-wave (km/s) = 3.44817 3.78357 3.61976
# Velocity P-wave (km/s) = 6.13846 7.40834 6.80309
#
# Compressibility (1/GPa) = 0.02447702
#
# Stress axis : x y z
#
# Youngs Moduli (GPa) = 56.67372 114.23558 36.95444
#
# Poissons Ratio (x) = 0.53959 0.09764
# Poissons Ratio (y) = 0.26770 0.26332
# Poissons Ratio (z) = 0.14974 0.81398
#
# Static dielectric constant tensor:
#      x y z
#    x 1.754770 0.000000 0.000000 
#    y 0.000000 1.648770 0.000000 
#    z 0.000000 0.000000 1.646760 
# 
# From -- ./inp_files/5177.got.cif
#   From: 2010.05.17/outbox.cif.g08.bks.cpg/sg60_3_cif.got.tgz:5177.got - 2010.06.03 14:59:27.
