data_PCOD9454629
_publ_section_title
;
Structure prediction by ZEFSAII (Michael W. Deem and Ramdas Pophale) SiO2 
 PCOD9454629
Probable space group: P B C N
;
_chemical_formula_sum "Si O2"
_cell_formula_units_Z 64
_cell_length_a 8.285461
_cell_length_b 16.884304
_cell_length_c 18.436610
_cell_angle_alpha 90.000000
_cell_angle_beta 90.000000
_cell_angle_gamma 90.000000
_cell_volume 2579.175587
_symmetry_space_group_name_H-M "P B C N"
_symmetry_group_IT_number 60
_symmetry_cell_setting 'orthorhombic'
loop_
_space_group_symop_operation_xyz
x,y,z
1/2-x,1/2-y,1/2+z
1/2+x,1/2-y,-z
-x,y,1/2-z
-x,-y,-z
1/2+x,1/2+y,1/2-z
1/2-x,1/2+y,z
x,-y,1/2+z
loop_
_atom_site_type_symbol
_atom_site_label
_atom_site_fract_x
_atom_site_fract_y
_atom_site_fract_z
Si Si1 0.323781 0.405646 0.426322
Si Si2 0.471990 0.306289 0.970956
Si Si3 0.353149 0.644535 0.162693
Si Si4 0.837009 0.636106 0.202440
Si Si5 0.526604 0.842119 0.930781
Si Si6 0.208979 0.439752 0.009152
Si Si7 0.833931 0.552328 0.707031
Si Si8 0.637971 0.540661 0.843903
O O1 0.375147 0.341442 0.484493
O O2 0.290309 0.484682 0.472127
O O3 0.184914 0.398030 0.366284
O O4 0.483169 0.417875 0.377313
O O5 0.447844 0.222728 0.008090
O O6 0.519861 0.308493 0.886524
O O7 0.325221 0.365287 0.989230
O O8 0.305014 0.666708 0.245038
O O9 0.401652 0.552291 0.163779
O O10 0.185179 0.646709 0.117390
O O11 0.885805 0.678358 0.128001
O O12 0.812498 0.541731 0.187899
O O13 0.000000 0.639786 0.250000
O O14 0.461907 0.919088 0.973128
O O15 0.221257 0.450172 0.095588
O O16 0.698537 0.571486 0.767083
O O17 0.000000 0.560649 0.750000
#
# Coordination Sequence:
#
# PCOD9454629 Si02
#       8
#     8   8   8   8   8   8   8   8
#     4  11  20  38  60  84 118 156 196 242 297 355
#     4  11  22  39  56  85 120 160 194 242 293 366
#     4  10  19  36  58  82 113 149 197 248 288 348
#     4   8  17  33  53  79 108 141 187 233 288 346
#     4  11  22  36  58  86 117 154 197 244 305 345
#     4  11  21  38  59  87 116 153 202 239 297 361
#     4  10  20  35  58  91 117 145 196 253 294 340
#     4  10  20  36  58  86 117 149 197 240 298 348
#
# _framework density 24.814131
#
# number of rings (size 3 to 8) (size 9 to 14) (size 15 to 20)
#    0.000    1.750    3.750    2.625    0.000    1.500 
#    0.000    9.375    0.000    0.000    0.000    0.000 
#    0.000    0.000    0.000    0.000    0.000    0.000 
#
# Total GULP energy -358214.319283 kJ/mol
# GULP energy per Si atom -5597.098739 kJ/mol
# Density = 2.475765 g / cm^3
# Si number density = 24.814131 Si / 1000 Ang^3
#
#
#
# Elastic Constant Matrix: (Units=GPa)
#
#
# Indices 1 2 3 4 5 6 
#
# 1 66.7810 17.8841 28.9601 0.0000 0.0000 0.0000
# 2 17.8841 28.3690 6.5831 0.0000 0.0000 0.0000
# 3 28.9601 6.5831 151.3742 0.0000 0.0000 0.0000
# 4 0.0000 0.0000 0.0000 20.6816 0.0000 0.0000
# 5 0.0000 0.0000 0.0000 0.0000 48.3955 0.0000
# 6 0.0000 0.0000 0.0000 0.0000 0.0000 -62.1035
#
#
#
# Elastic Compliance Matrix: (Units=1/GPa)
#
#
# Indices 1 2 3 4 5 6 
#
# 1 0.019456 -0.011518 -0.003221 0.000000 0.000000 0.000000
# 2 -0.011518 0.042427 0.000358 0.000000 0.000000 0.000000
# 3 -0.003221 0.000358 0.007207 0.000000 0.000000 0.000000
# 4 0.000000 0.000000 0.000000 0.048352 0.000000 0.000000
# 5 0.000000 0.000000 0.000000 0.000000 0.020663 0.000000
# 6 0.000000 0.000000 0.000000 0.000000 0.000000 -0.016102
#
#
# Mechanical properties :
#
#
# Convention : Reuss Voigt Hill
#
# Bulk Modulus (GPa) = 24.79610 39.26432 32.03021
# Shear Modulus (GPa) = 30.44936 14.26783 22.35860
#
# Velocity S-wave (km/s) = 3.50680 2.40049 3.00499
# Velocity P-wave (km/s) = 5.13919 4.85189 4.99761
#
# Compressibility (1/GPa) = 0.04032892
#
# Stress axis : x y z
#
# Youngs Moduli (GPa) = 51.39883 23.56969 138.75712
#
# Poissons Ratio (x) = 0.27147 0.44697
# Poissons Ratio (y) = 0.59199 -0.04972
# Poissons Ratio (z) = 0.16557 -0.00845
#
# Static dielectric constant tensor:
#      x y z
#    x 2.085270 0.000000 0.000000 
#    y 0.000000 1.913880 0.000000 
#    z 0.000000 0.000000 1.965960 
# 
# From -- ./inp_files/19679.got.cif
#   From: 2010.05.17/outbox.cif.g08.bks.cpg/sg60_10_cif.got.tgz:19679.got - 2010.06.03 14:59:27.
