data_PCOD9454161
_publ_section_title
;
Structure prediction by ZEFSAII (Michael W. Deem and Ramdas Pophale) SiO2 
 PCOD9454161
Probable space group: P B C N
;
_chemical_formula_sum "Si O2"
_cell_formula_units_Z 48
_cell_length_a 11.213208
_cell_length_b 7.895552
_cell_length_c 23.299309
_cell_angle_alpha 90.000000
_cell_angle_beta 90.000000
_cell_angle_gamma 90.000000
_cell_volume 2062.791900
_symmetry_space_group_name_H-M "P B C N"
_symmetry_group_IT_number 60
_symmetry_cell_setting 'orthorhombic'
loop_
_space_group_symop_operation_xyz
x,y,z
1/2-x,1/2-y,1/2+z
1/2+x,1/2-y,-z
-x,y,1/2-z
-x,-y,-z
1/2+x,1/2+y,1/2-z
1/2-x,1/2+y,z
x,-y,1/2+z
loop_
_atom_site_type_symbol
_atom_site_label
_atom_site_fract_x
_atom_site_fract_y
_atom_site_fract_z
Si Si1 0.835910 0.832126 0.878621
Si Si2 0.095386 0.789534 0.991586
Si Si3 0.370176 0.808186 0.247990
Si Si4 0.960823 0.060406 0.593219
Si Si5 0.173663 0.470490 0.045317
Si Si6 0.616034 0.436695 0.211848
O O1 0.841411 0.755292 0.816205
O O2 0.710434 0.898337 0.903757
O O3 0.884216 0.690005 0.923328
O O4 0.914407 0.001322 0.879212
O O5 0.116719 0.590100 0.997134
O O6 0.208316 0.889175 0.018427
O O7 0.089134 0.883567 0.931104
O O8 0.986590 0.832337 0.035818
O O9 0.500000 0.900025 0.250000
O O10 0.391051 0.641672 0.287315
O O11 0.248505 0.898985 0.265643
O O12 0.891178 0.133598 0.646866
O O13 0.500000 0.380608 0.250000
#
# Coordination Sequence:
#
# PCOD9454161 Si02
#       6
#     8   8   8   8   8   8
#     4  10  18  36  60  84 121 160 204 255 303 388
#     4   9  20  36  58  89 120 162 206 256 324 381
#     4  11  23  42  63  93 126 170 212 260 324 378
#     4  10  20  39  59  84 127 161 205 266 319 372
#     4   9  19  33  60  87 114 163 204 250 310 384
#     4  11  24  42  64  94 127 166 212 267 317 377
#
# _framework density 23.269435000000001
#
# number of rings (size 3 to 8) (size 9 to 14) (size 15 to 20)
#    0.000    2.000    3.333    1.000    4.667    2.667 
#    3.000    0.000    0.000    0.000    0.000    0.000 
#    0.000    0.000    0.000    0.000    0.000    0.000 
#
# Total GULP energy -267542.956597 kJ/mol
# GULP energy per Si atom -5573.811596 kJ/mol
# Density = 2.321647 g / cm^3
# Si number density = 23.269435 Si / 1000 Ang^3
#
#
#
# Elastic Constant Matrix: (Units=GPa)
#
#
# Indices 1 2 3 4 5 6 
#
# 1 109.3652 15.8055 21.8917 0.0000 0.0000 0.0000
# 2 15.8055 52.7556 -10.6817 0.0000 0.0000 0.0000
# 3 21.8917 -10.6817 97.0594 0.0000 0.0000 0.0000
# 4 0.0000 0.0000 0.0000 13.7103 0.0000 0.0000
# 5 0.0000 0.0000 0.0000 0.0000 21.7271 0.0000
# 6 0.0000 0.0000 0.0000 0.0000 0.0000 32.0978
#
#
#
# Elastic Compliance Matrix: (Units=1/GPa)
#
#
# Indices 1 2 3 4 5 6 
#
# 1 0.010205 -0.003604 -0.002698 0.000000 0.000000 0.000000
# 2 -0.003604 0.020660 0.003086 0.000000 0.000000 0.000000
# 3 -0.002698 0.003086 0.011251 0.000000 0.000000 0.000000
# 4 0.000000 0.000000 0.000000 0.072938 0.000000 0.000000
# 5 0.000000 0.000000 0.000000 0.000000 0.046025 0.000000
# 6 0.000000 0.000000 0.000000 0.000000 0.000000 0.031155
#
#
# Mechanical properties :
#
#
# Convention : Reuss Voigt Hill
#
# Bulk Modulus (GPa) = 28.02299 34.80125 31.41212
# Shear Modulus (GPa) = 23.74625 28.98469 26.36547
#
# Velocity S-wave (km/s) = 3.19798 3.53315 3.36973
# Velocity P-wave (km/s) = 5.07002 5.62427 5.35432
#
# Compressibility (1/GPa) = 0.03568499
#
# Stress axis : x y z
#
# Youngs Moduli (GPa) = 97.99530 48.40299 88.87922
#
# Poissons Ratio (x) = 0.17442 0.23982
# Poissons Ratio (y) = 0.35314 -0.27432
# Poissons Ratio (z) = 0.26441 -0.14939
#
# Static dielectric constant tensor:
#      x y z
#    x 1.980190 0.000000 0.000000 
#    y 0.000000 1.891990 0.000000 
#    z 0.000000 0.000000 1.933390 
# 
# From -- ./inp_files/24219.got.cif
#   From: 2010.05.17/outbox.cif.g08.bks.cpg/sg60_13_cif.got.tgz:24219.got - 2010.06.03 14:59:27.
