data_PCOD9454188
_publ_section_title
;
Structure prediction by ZEFSAII (Michael W. Deem and Ramdas Pophale) SiO2 
 PCOD9454188
Probable space group: P B C N
;
_chemical_formula_sum "Si O2"
_cell_formula_units_Z 40
_cell_length_a 7.190732
_cell_length_b 17.779395
_cell_length_c 14.226502
_cell_angle_alpha 90.000000
_cell_angle_beta 90.000000
_cell_angle_gamma 90.000000
_cell_volume 1818.813674
_symmetry_space_group_name_H-M "P B C N"
_symmetry_group_IT_number 60
_symmetry_cell_setting 'orthorhombic'
loop_
_space_group_symop_operation_xyz
x,y,z
1/2-x,1/2-y,1/2+z
1/2+x,1/2-y,-z
-x,y,1/2-z
-x,-y,-z
1/2+x,1/2+y,1/2-z
1/2-x,1/2+y,z
x,-y,1/2+z
loop_
_atom_site_type_symbol
_atom_site_label
_atom_site_fract_x
_atom_site_fract_y
_atom_site_fract_z
Si Si1 0.423674 0.453527 0.147570
Si Si2 0.352457 0.795748 0.431009
Si Si3 0.716550 0.567385 0.483541
Si Si4 0.116544 0.810806 0.665149
Si Si5 0.071657 0.782216 0.124941
O O1 0.500000 0.477119 0.250000
O O2 0.264497 0.502008 0.094046
O O3 0.370169 0.365836 0.154420
O O4 0.593279 0.458420 0.072039
O O5 0.376668 0.880635 0.470296
O O6 0.508682 0.765164 0.362879
O O7 0.358445 0.740647 0.520953
O O8 0.151212 0.786349 0.382966
O O9 0.612634 0.630980 0.420770
O O10 0.326370 0.783198 0.684128
O O11 0.000000 0.844320 0.750000
#
# Coordination Sequence:
#
# PCOD9454188 Si02
#       5
#     8   8   8   8   8
#     4  10  19  34  58  83 113 154 197 232 290 351
#     4  10  18  37  57  82 119 149 191 240 295 338
#     4   9  20  36  54  85 117 150 188 239 290 346
#     4  11  22  35  60  87 118 151 196 243 291 347
#     4  10  20  35  58  87 114 151 194 242 287 344
#
# _framework density 21.992357999999999
#
# number of rings (size 3 to 8) (size 9 to 14) (size 15 to 20)
#    0.000    2.000    6.000    0.600    5.600    0.000 
#    0.000    1.000    0.000    0.000    0.000    0.000 
#    0.000    0.000    0.000    0.000    0.000    0.000 
#
# Total GULP energy -222683.787935 kJ/mol
# GULP energy per Si atom -5567.094698 kJ/mol
# Density = 2.194230 g / cm^3
# Si number density = 21.992358 Si / 1000 Ang^3
#
#
#
# Elastic Constant Matrix: (Units=GPa)
#
#
# Indices 1 2 3 4 5 6 
#
# 1 66.0286 16.1173 10.8828 0.0000 0.0000 0.0000
# 2 16.1173 77.6156 26.4868 0.0000 0.0000 0.0000
# 3 10.8828 26.4868 125.9246 0.0000 0.0000 0.0000
# 4 0.0000 0.0000 0.0000 10.2593 0.0000 0.0000
# 5 0.0000 0.0000 0.0000 0.0000 27.8208 0.0000
# 6 0.0000 0.0000 0.0000 0.0000 0.0000 14.2381
#
#
#
# Elastic Compliance Matrix: (Units=1/GPa)
#
#
# Indices 1 2 3 4 5 6 
#
# 1 0.016017 -0.003074 -0.000738 0.000000 0.000000 0.000000
# 2 -0.003074 0.014470 -0.002778 0.000000 0.000000 0.000000
# 3 -0.000738 -0.002778 0.008589 0.000000 0.000000 0.000000
# 4 0.000000 0.000000 0.000000 0.097472 0.000000 0.000000
# 5 0.000000 0.000000 0.000000 0.000000 0.035944 0.000000
# 6 0.000000 0.000000 0.000000 0.000000 0.000000 0.070234
#
#
# Mechanical properties :
#
#
# Convention : Reuss Voigt Hill
#
# Bulk Modulus (GPa) = 38.61463 41.83806 40.22635
# Shear Modulus (GPa) = 18.90077 24.86910 21.88494
#
# Velocity S-wave (km/s) = 2.93477 3.36639 3.15797
# Velocity P-wave (km/s) = 5.39261 5.84597 5.62386
#
# Compressibility (1/GPa) = 0.02589692
#
# Stress axis : x y z
#
# Youngs Moduli (GPa) = 62.43384 69.10653 116.42359
#
# Poissons Ratio (x) = 0.21245 0.08587
# Poissons Ratio (y) = 0.19194 0.32342
# Poissons Ratio (z) = 0.04605 0.19198
#
# Static dielectric constant tensor:
#      x y z
#    x 1.848080 0.000000 0.000000 
#    y 0.000000 1.857230 0.000000 
#    z 0.000000 0.000000 1.899560 
# 
# From -- ./inp_files/14837.got.cif
#   From: 2010.05.17/outbox.cif.g08.bks.cpg/sg60_8_cif.got.tgz:14837.got - 2010.06.03 14:59:27.
