data_PCOD9454055
_publ_section_title
;
Structure prediction by ZEFSAII (Michael W. Deem and Ramdas Pophale) SiO2 
 PCOD9454055
Probable space group: P B C N
;
_chemical_formula_sum "Si O2"
_cell_formula_units_Z 48
_cell_length_a 12.018850
_cell_length_b 8.234650
_cell_length_c 23.757599
_cell_angle_alpha 90.000000
_cell_angle_beta 90.000000
_cell_angle_gamma 90.000000
_cell_volume 2351.313881
_symmetry_space_group_name_H-M "P B C N"
_symmetry_group_IT_number 60
_symmetry_cell_setting 'orthorhombic'
loop_
_space_group_symop_operation_xyz
x,y,z
1/2-x,1/2-y,1/2+z
1/2+x,1/2-y,-z
-x,y,1/2-z
-x,-y,-z
1/2+x,1/2+y,1/2-z
1/2-x,1/2+y,z
x,-y,1/2+z
loop_
_atom_site_type_symbol
_atom_site_label
_atom_site_fract_x
_atom_site_fract_y
_atom_site_fract_z
Si Si1 0.168137 0.664675 0.077788
Si Si2 0.423914 0.387366 0.696431
Si Si3 0.234802 0.869306 0.455659
Si Si4 0.287498 0.099217 0.659897
Si Si5 0.576684 0.342354 0.587364
Si Si6 0.464966 0.185163 0.486681
O O1 0.142388 0.535181 0.126475
O O2 0.248348 0.787940 0.108530
O O3 0.054815 0.746628 0.058345
O O4 0.223319 0.599959 0.019930
O O5 0.500000 0.423850 0.750000
O O6 0.359878 0.213285 0.700201
O O7 0.323209 0.515927 0.685818
O O8 0.509088 0.374211 0.644016
O O9 0.338198 0.812293 0.416960
O O10 0.156450 0.710133 0.462860
O O11 0.152990 0.005963 0.431451
O O12 0.484803 0.296769 0.540683
O O13 0.500000 0.000000 0.500000
#
# Coordination Sequence:
#
# PCOD9454055 Si02
#       6
#     8   8   8   8   8   8
#     4  10  18  33  56  85 119 159 195 231 298 379
#     4  11  25  45  65  87 116 158 213 261 302 348
#     4  11  21  34  56  91 131 162 197 250 308 368
#     4  10  21  40  63  85 115 156 198 245 300 368
#     4  11  23  37  57  88 125 165 206 253 304 363
#     4  11  19  31  53  86 125 164 199 240 300 372
#
# _framework density 20.414117000000001
#
# number of rings (size 3 to 8) (size 9 to 14) (size 15 to 20)
#    0.000    1.333    0.000    9.500    0.000    1.333 
#    0.000    3.333    0.000    0.000    0.000    0.000 
#    0.000    0.000    0.000    0.000    0.000    0.000 
#
# Total GULP energy -267846.271479 kJ/mol
# GULP energy per Si atom -5580.130656 kJ/mol
# Density = 2.036765 g / cm^3
# Si number density = 20.414117 Si / 1000 Ang^3
#
#
#
# Elastic Constant Matrix: (Units=GPa)
#
#
# Indices 1 2 3 4 5 6 
#
# 1 116.4890 20.7607 42.5216 0.0000 0.0000 0.0000
# 2 20.7607 70.2270 23.6074 0.0000 0.0000 0.0000
# 3 42.5216 23.6074 80.2055 0.0000 0.0000 0.0000
# 4 0.0000 0.0000 0.0000 13.2461 0.0000 0.0000
# 5 0.0000 0.0000 0.0000 0.0000 34.4513 0.0000
# 6 0.0000 0.0000 0.0000 0.0000 0.0000 43.9219
#
#
#
# Elastic Compliance Matrix: (Units=1/GPa)
#
#
# Indices 1 2 3 4 5 6 
#
# 1 0.010768 -0.001403 -0.005296 0.000000 0.000000 0.000000
# 2 -0.001403 0.015986 -0.003961 0.000000 0.000000 0.000000
# 3 -0.005296 -0.003961 0.016441 0.000000 0.000000 0.000000
# 4 0.000000 0.000000 0.000000 0.075494 0.000000 0.000000
# 5 0.000000 0.000000 0.000000 0.000000 0.029026 0.000000
# 6 0.000000 0.000000 0.000000 0.000000 0.000000 0.022768
#
#
# Mechanical properties :
#
#
# Convention : Reuss Voigt Hill
#
# Bulk Modulus (GPa) = 45.71428 48.96675 47.34051
# Shear Modulus (GPa) = 25.11370 30.32600 27.71985
#
# Velocity S-wave (km/s) = 3.51124 3.85845 3.68893
# Velocity P-wave (km/s) = 6.23542 6.62488 6.43310
#
# Compressibility (1/GPa) = 0.02187500
#
# Stress axis : x y z
#
# Youngs Moduli (GPa) = 92.87156 62.55483 60.82186
#
# Poissons Ratio (x) = 0.08776 0.32209
# Poissons Ratio (y) = 0.13030 0.24094
# Poissons Ratio (z) = 0.49181 0.24781
#
# Static dielectric constant tensor:
#      x y z
#    x 1.800090 0.000000 0.000000 
#    y 0.000000 1.867870 0.000000 
#    z 0.000000 0.000000 1.686640 
# 
# From -- ./inp_files/24255.got.cif
#   From: 2010.05.17/outbox.cif.g08.bks.cpg/sg60_13_cif.got.tgz:24255.got - 2010.06.03 14:59:27.
