data_PCOD9454697
_publ_section_title
;
Structure prediction by ZEFSAII (Michael W. Deem and Ramdas Pophale) SiO2 
 PCOD9454697
Probable space group: P B C N
;
_chemical_formula_sum "Si O2"
_cell_formula_units_Z 48
_cell_length_a 10.205753
_cell_length_b 14.685033
_cell_length_c 14.534373
_cell_angle_alpha 90.000000
_cell_angle_beta 90.000000
_cell_angle_gamma 90.000000
_cell_volume 2178.292928
_symmetry_space_group_name_H-M "P B C N"
_symmetry_group_IT_number 60
_symmetry_cell_setting 'orthorhombic'
loop_
_space_group_symop_operation_xyz
x,y,z
1/2-x,1/2-y,1/2+z
1/2+x,1/2-y,-z
-x,y,1/2-z
-x,-y,-z
1/2+x,1/2+y,1/2-z
1/2-x,1/2+y,z
x,-y,1/2+z
loop_
_atom_site_type_symbol
_atom_site_label
_atom_site_fract_x
_atom_site_fract_y
_atom_site_fract_z
Si Si1 0.600191 0.792407 0.455432
Si Si2 0.952217 0.021082 0.852929
Si Si3 0.846051 0.708580 0.752083
Si Si4 0.101065 0.154391 0.391489
Si Si5 0.193452 0.865020 0.417237
Si Si6 0.783199 0.533522 0.978469
O O1 0.682292 0.782996 0.359985
O O2 0.461756 0.742942 0.439079
O O3 0.668018 0.732108 0.534679
O O4 0.591714 0.901148 0.469000
O O5 0.051655 0.084950 0.910816
O O6 0.000000 0.039033 0.750000
O O7 0.803664 0.033927 0.885286
O O8 0.984480 0.915945 0.872468
O O9 0.842376 0.807690 0.703810
O O10 0.756466 0.648591 0.684117
O O11 0.000000 0.678546 0.750000
O O12 0.200057 0.095340 0.450132
O O13 0.280945 0.933310 0.478752
#
# Coordination Sequence:
#
# PCOD9454697 Si02
#       6
#     8   8   8   8   8   8
#     4  11  20  37  59  86 117 153 200 238 302 352
#     4  11  20  34  59  93 117 145 202 258 298 345
#     4  10  22  38  60  84 119 166 199 239 295 370
#     4  10  19  37  59  81 117 157 195 241 296 356
#     4  11  21  38  58  85 122 153 198 252 297 354
#     4  11  21  35  61  88 118 154 194 250 304 342
#
# _framework density 22.035605
#
# number of rings (size 3 to 8) (size 9 to 14) (size 15 to 20)
#    0.000    1.333    5.000    3.500    0.000    0.000 
#    0.000    3.333    0.000    1.000    0.000    0.000 
#    0.000    0.000    0.000    0.000    0.000    0.000 
#
# Total GULP energy -267689.244928 kJ/mol
# GULP energy per Si atom -5576.859269 kJ/mol
# Density = 2.198545 g / cm^3
# Si number density = 22.035605 Si / 1000 Ang^3
#
#
#
# Elastic Constant Matrix: (Units=GPa)
#
#
# Indices 1 2 3 4 5 6 
#
# 1 44.4967 -5.7580 -6.9280 0.0000 0.0000 0.0000
# 2 -5.7580 66.9953 -19.6427 0.0000 0.0000 0.0000
# 3 -6.9280 -19.6427 72.6969 0.0000 0.0000 0.0000
# 4 0.0000 0.0000 0.0000 36.3624 0.0000 0.0000
# 5 0.0000 0.0000 0.0000 0.0000 26.1870 0.0000
# 6 0.0000 0.0000 0.0000 0.0000 0.0000 34.7984
#
#
#
# Elastic Compliance Matrix: (Units=1/GPa)
#
#
# Indices 1 2 3 4 5 6 
#
# 1 0.023314 0.002884 0.003001 0.000000 0.000000 0.000000
# 2 0.002884 0.016567 0.004751 0.000000 0.000000 0.000000
# 3 0.003001 0.004751 0.015326 0.000000 0.000000 0.000000
# 4 0.000000 0.000000 0.000000 0.027501 0.000000 0.000000
# 5 0.000000 0.000000 0.000000 0.000000 0.038187 0.000000
# 6 0.000000 0.000000 0.000000 0.000000 0.000000 0.028737
#
#
# Mechanical properties :
#
#
# Convention : Reuss Voigt Hill
#
# Bulk Modulus (GPa) = 13.07555 13.28127 13.17841
# Shear Modulus (GPa) = 32.49863 33.90407 33.20135
#
# Velocity S-wave (km/s) = 3.84451 3.92676 3.88585
# Velocity P-wave (km/s) = 5.06495 5.15747 5.11142
#
# Compressibility (1/GPa) = 0.07647865
#
# Stress axis : x y z
#
# Youngs Moduli (GPa) = 42.89271 60.35980 65.25060
#
# Poissons Ratio (x) = -0.17406 -0.19582
# Poissons Ratio (y) = -0.12369 -0.31002
# Poissons Ratio (z) = -0.12872 -0.28679
#
# Static dielectric constant tensor:
#      x y z
#    x 1.887840 0.000000 0.000000 
#    y 0.000000 1.831170 0.000000 
#    z 0.000000 0.000000 1.884580 
# 
# From -- ./inp_files/16073.got.cif
#   From: 2010.05.17/outbox.cif.g08.bks.cpg/sg60_9_cif.got.tgz:16073.got - 2010.06.03 14:59:27.
