data_PCOD9454231
_publ_section_title
;
Structure prediction by ZEFSAII (Michael W. Deem and Ramdas Pophale) SiO2 
 PCOD9454231
Probable space group: P B C N
;
_chemical_formula_sum "Si O2"
_cell_formula_units_Z 36
_cell_length_a 7.679447
_cell_length_b 15.260910
_cell_length_c 15.048894
_cell_angle_alpha 90.000000
_cell_angle_beta 90.000000
_cell_angle_gamma 90.000000
_cell_volume 1763.660392
_symmetry_space_group_name_H-M "P B C N"
_symmetry_group_IT_number 60
_symmetry_cell_setting 'orthorhombic'
loop_
_space_group_symop_operation_xyz
x,y,z
1/2-x,1/2-y,1/2+z
1/2+x,1/2-y,-z
-x,y,1/2-z
-x,-y,-z
1/2+x,1/2+y,1/2-z
1/2-x,1/2+y,z
x,-y,1/2+z
loop_
_atom_site_type_symbol
_atom_site_label
_atom_site_fract_x
_atom_site_fract_y
_atom_site_fract_z
Si Si1 0.193224 0.690572 0.046181
Si Si2 0.786772 0.335803 0.586846
Si Si3 0.189855 0.132110 0.227297
Si Si4 0.152611 0.470287 0.432957
Si Si5 0.500000 0.005013 0.750000
O O1 0.307473 0.684277 0.134941
O O2 0.993968 0.675665 0.075599
O O3 0.204201 0.779363 0.990902
O O4 0.243670 0.611380 0.979529
O O5 0.738595 0.309385 0.687047
O O6 0.742381 0.439354 0.580275
O O7 0.339280 0.057849 0.221028
O O8 0.000000 0.095174 0.250000
O O9 0.067684 0.446098 0.337743
O O10 0.000000 0.500000 0.500000
#
# Coordination Sequence:
#
# PCOD9454231 Si02
#       5
#     8   8   8   8   4
#     4  11  20  40  62  88 127 162 213 252 316 378
#     4  10  21  38  58  93 118 163 204 254 309 367
#     4  11  20  37  63  89 121 165 201 257 313 364
#     4   9  18  37  65  83 120 169 194 249 319 359
#     4  10  18  40  62  86 126 152 208 252 316 364
#
# _framework density 20.412094
#
# number of rings (size 3 to 8) (size 9 to 14) (size 15 to 20)
#    0.000    1.778    6.667    1.333    0.000    0.000 
#   10.000   10.000    0.000    0.000    0.000    0.000 
#    0.000    0.000    0.000    0.000    0.000    0.000 
#
# Total GULP energy -200748.145787 kJ/mol
# GULP energy per Si atom -5576.337383 kJ/mol
# Density = 2.036563 g / cm^3
# Si number density = 20.412094 Si / 1000 Ang^3
#
#
#
# Elastic Constant Matrix: (Units=GPa)
#
#
# Indices 1 2 3 4 5 6 
#
# 1 73.1740 17.8731 21.9071 0.0000 0.0000 0.0000
# 2 17.8731 55.3266 45.9987 0.0000 0.0000 0.0000
# 3 21.9071 45.9987 185.9179 0.0000 0.0000 0.0000
# 4 0.0000 0.0000 0.0000 26.5999 0.0000 0.0000
# 5 0.0000 0.0000 0.0000 0.0000 23.3949 0.0000
# 6 0.0000 0.0000 0.0000 0.0000 0.0000 13.2140
#
#
#
# Elastic Compliance Matrix: (Units=1/GPa)
#
#
# Indices 1 2 3 4 5 6 
#
# 1 0.014911 -0.004225 -0.000712 0.000000 0.000000 0.000000
# 2 -0.004225 0.023953 -0.005428 0.000000 0.000000 0.000000
# 3 -0.000712 -0.005428 0.006806 0.000000 0.000000 0.000000
# 4 0.000000 0.000000 0.000000 0.037594 0.000000 0.000000
# 5 0.000000 0.000000 0.000000 0.000000 0.042744 0.000000
# 6 0.000000 0.000000 0.000000 0.000000 0.000000 0.075677
#
#
# Mechanical properties :
#
#
# Convention : Reuss Voigt Hill
#
# Bulk Modulus (GPa) = 40.09818 53.99737 47.04777
# Shear Modulus (GPa) = 21.67046 27.88440 24.77743
#
# Velocity S-wave (km/s) = 3.26183 3.70005 3.48783
# Velocity P-wave (km/s) = 5.82005 6.69066 6.27048
#
# Compressibility (1/GPa) = 0.02493879
#
# Stress axis : x y z
#
# Youngs Moduli (GPa) = 67.06388 41.74908 146.93762
#
# Poissons Ratio (x) = 0.17641 0.10456
# Poissons Ratio (y) = 0.28337 0.79763
# Poissons Ratio (z) = 0.04772 0.22663
#
# Static dielectric constant tensor:
#      x y z
#    x 1.759920 0.000000 0.000000 
#    y 0.000000 1.753480 0.000000 
#    z 0.000000 0.000000 1.773590 
# 
# From -- ./inp_files/14588.got.cif
#   From: 2010.05.17/outbox.cif.g08.bks.cpg/sg60_8_cif.got.tgz:14588.got - 2010.06.03 14:59:27.
