data_PCOD9454837
_publ_section_title
;
Structure prediction by ZEFSAII (Michael W. Deem and Ramdas Pophale) SiO2 
 PCOD9454837
Probable space group: P B C N
;
_chemical_formula_sum "Si O2"
_cell_formula_units_Z 60
_cell_length_a 11.636821
_cell_length_b 26.707384
_cell_length_c 9.593662
_cell_angle_alpha 90.000000
_cell_angle_beta 90.000000
_cell_angle_gamma 90.000000
_cell_volume 2981.605070
_symmetry_space_group_name_H-M "P B C N"
_symmetry_group_IT_number 60
_symmetry_cell_setting 'orthorhombic'
loop_
_space_group_symop_operation_xyz
x,y,z
1/2-x,1/2-y,1/2+z
1/2+x,1/2-y,-z
-x,y,1/2-z
-x,-y,-z
1/2+x,1/2+y,1/2-z
1/2-x,1/2+y,z
x,-y,1/2+z
loop_
_atom_site_type_symbol
_atom_site_label
_atom_site_fract_x
_atom_site_fract_y
_atom_site_fract_z
Si Si1 0.381763 0.694972 0.910469
Si Si2 0.423704 0.282452 0.886627
Si Si3 0.103664 0.964886 0.052748
Si Si4 0.211214 0.638244 0.102131
Si Si5 0.973522 0.665722 0.593730
Si Si6 0.164781 0.692354 0.370559
Si Si7 0.361027 0.552939 0.248934
Si Si8 0.500000 0.383276 0.250000
O O1 0.356805 0.748744 0.846729
O O2 0.394509 0.650677 0.801530
O O3 0.505417 0.700015 0.981149
O O4 0.294985 0.679573 0.032830
O O5 0.500000 0.294351 0.750000
O O6 0.417371 0.221751 0.892540
O O7 0.301870 0.309296 0.889999
O O8 0.045446 0.917748 0.125770
O O9 0.159495 0.999611 0.172287
O O10 0.171667 0.950286 0.912640
O O11 0.000000 0.000000 0.000000
O O12 0.142239 0.661782 0.231102
O O13 0.290236 0.593830 0.161350
O O14 0.115847 0.629430 0.983747
O O15 0.087403 0.674503 0.499792
O O16 0.000000 0.649215 0.750000
O O17 0.500000 0.563890 0.250000
#
# Coordination Sequence:
#
# PCOD9454837 Si02
#       8
#     8   8   8   8   8   8   8   4
#     4  11  25  35  59  94 138 175 226 273 330 404
#     4  10  20  39  59  86 128 182 230 277 330 383
#     4  10  19  41  62  93 134 170 209 277 359 416
#     4  12  24  41  64  94 134 181 231 272 341 412
#     4  10  24  43  62  87 128 185 238 281 327 385
#     4  11  24  41  63  90 138 189 228 285 329 393
#     4  10  22  39  66  97 138 173 211 282 358 422
#     4  12  24  34  62  96 136 178 222 272 344 420
#
# _framework density 20.123389
#
# number of rings (size 3 to 8) (size 9 to 14) (size 15 to 20)
#    0.000    1.333    4.667    2.000    7.467    1.067 
#    0.000    0.000    0.000    0.000    0.000    6.533 
#    0.000    0.000    0.000    0.000    0.000    0.000 
#
# Total GULP energy -335034.644258 kJ/mol
# GULP energy per Si atom -5583.910738 kJ/mol
# Density = 2.007759 g / cm^3
# Si number density = 20.123389 Si / 1000 Ang^3
#
#
#
# Elastic Constant Matrix: (Units=GPa)
#
#
# Indices 1 2 3 4 5 6 
#
# 1 89.6450 21.3077 46.1389 0.0000 0.0000 0.0000
# 2 21.3077 66.8600 32.6607 0.0000 0.0000 0.0000
# 3 46.1389 32.6607 123.2465 0.0000 0.0000 0.0000
# 4 0.0000 0.0000 0.0000 26.1636 0.0000 0.0000
# 5 0.0000 0.0000 0.0000 0.0000 29.8164 0.0000
# 6 0.0000 0.0000 0.0000 0.0000 0.0000 6.7091
#
#
#
# Elastic Compliance Matrix: (Units=1/GPa)
#
#
# Indices 1 2 3 4 5 6 
#
# 1 0.014093 -0.002199 -0.004693 0.000000 0.000000 0.000000
# 2 -0.002199 0.017524 -0.003821 0.000000 0.000000 0.000000
# 3 -0.004693 -0.003821 0.010883 0.000000 0.000000 0.000000
# 4 0.000000 0.000000 0.000000 0.038221 0.000000 0.000000
# 5 0.000000 0.000000 0.000000 0.000000 0.033539 0.000000
# 6 0.000000 0.000000 0.000000 0.000000 0.000000 0.149052
#
#
# Mechanical properties :
#
#
# Convention : Reuss Voigt Hill
#
# Bulk Modulus (GPa) = 47.45005 53.32956 50.38980
# Shear Modulus (GPa) = 17.13724 24.51408 20.82566
#
# Velocity S-wave (km/s) = 2.92140 3.49404 3.22047
# Velocity P-wave (km/s) = 5.91694 6.54497 6.23886
#
# Compressibility (1/GPa) = 0.02107479
#
# Stress axis : x y z
#
# Youngs Moduli (GPa) = 70.95561 57.06541 91.88359
#
# Poissons Ratio (x) = 0.12547 0.43124
# Poissons Ratio (y) = 0.15601 0.35106
# Poissons Ratio (z) = 0.33302 0.21803
#
# Static dielectric constant tensor:
#      x y z
#    x 1.741390 0.000000 0.000000 
#    y 0.000000 1.733630 0.000000 
#    z 0.000000 0.000000 1.764880 
# 
# From -- ./inp_files/5241.got.cif
#   From: 2010.05.17/outbox.cif.g08.bks.cpg/sg60_3_cif.got.tgz:5241.got - 2010.06.03 14:59:27.
