data_PCOD9454917
_publ_section_title
;
Structure prediction by ZEFSAII (Michael W. Deem and Ramdas Pophale) SiO2 
 PCOD9454917
Probable space group: P B C N
;
_chemical_formula_sum "Si O2"
_cell_formula_units_Z 52
_cell_length_a 30.937870
_cell_length_b 12.644404
_cell_length_c 7.346228
_cell_angle_alpha 90.000000
_cell_angle_beta 90.000000
_cell_angle_gamma 90.000000
_cell_volume 2873.777743
_symmetry_space_group_name_H-M "P B C N"
_symmetry_group_IT_number 60
_symmetry_cell_setting 'orthorhombic'
loop_
_space_group_symop_operation_xyz
x,y,z
1/2-x,1/2-y,1/2+z
1/2+x,1/2-y,-z
-x,y,1/2-z
-x,-y,-z
1/2+x,1/2+y,1/2-z
1/2-x,1/2+y,z
x,-y,1/2+z
loop_
_atom_site_type_symbol
_atom_site_label
_atom_site_fract_x
_atom_site_fract_y
_atom_site_fract_z
Si Si1 0.211845 0.400126 0.441863
Si Si2 0.500000 0.413462 0.750000
Si Si3 0.438523 0.419331 0.454900
Si Si4 0.815377 0.177513 0.146616
Si Si5 0.783366 0.367048 0.631554
Si Si6 0.690912 0.636468 0.560386
Si Si7 0.378646 0.413470 0.153223
O O1 0.186725 0.305912 0.341962
O O2 0.215497 0.368216 0.651128
O O3 0.197553 0.521270 0.431219
O O4 0.261472 0.398888 0.377675
O O5 0.469322 0.358682 0.598774
O O6 0.532122 0.489393 0.636794
O O7 0.416081 0.361417 0.283303
O O8 0.402473 0.483538 0.571458
O O9 0.767090 0.146883 0.072185
O O10 0.817423 0.124647 0.345702
O O11 0.854302 0.145080 0.012872
O O12 0.809502 0.263013 0.580913
O O13 0.658701 0.578893 0.695406
#
# Coordination Sequence:
#
# PCOD9454917 Si02
#       7
#     8   4   8   8   8   8   8
#     4  10  20  33  49  66  93 143 187 224 272 300
#     4   8  16  38  52  76 102 132 168 184 244 364
#     4   9  20  32  56  76 102 138 162 202 264 308
#     4  10  22  34  47  70 101 131 183 237 256 298
#     4  10  20  33  49  66  93 143 187 224 272 300
#     4  10  22  34  47  70 101 131 183 237 256 298
#     4  11  22  33  48  79 102 132 175 215 258 296
#
# _framework density 18.094647999999999
#
# number of rings (size 3 to 8) (size 9 to 14) (size 15 to 20)
#    0.000    2.154    1.538    0.923   10.769    0.000 
#    0.000    0.000    0.000    0.000    0.000    0.000 
#    0.000    0.000    0.000   69.231    0.615    0.000 
#
# Total GULP energy -289580.808644 kJ/mol
# GULP energy per Si atom -5568.861705 kJ/mol
# Density = 1.805346 g / cm^3
# Si number density = 18.094648 Si / 1000 Ang^3
#
#
#
# Elastic Constant Matrix: (Units=GPa)
#
#
# Indices 1 2 3 4 5 6 
#
# 1 65.9299 15.7780 32.5116 0.0000 0.0000 0.0000
# 2 15.7780 94.9762 15.7108 0.0000 0.0000 0.0000
# 3 32.5116 15.7108 89.3328 0.0000 0.0000 0.0000
# 4 0.0000 0.0000 0.0000 -15.6342 0.0000 0.0000
# 5 0.0000 0.0000 0.0000 0.0000 50.5271 0.0000
# 6 0.0000 0.0000 0.0000 0.0000 0.0000-6758.2913
#
#
#
# Elastic Compliance Matrix: (Units=1/GPa)
#
#
# Indices 1 2 3 4 5 6 
#
# 1 0.018868 -0.002058 -0.006505 0.000000 0.000000 0.000000
# 2 -0.002058 0.011069 -0.001198 0.000000 0.000000 0.000000
# 3 -0.006505 -0.001198 0.013772 0.000000 0.000000 0.000000
# 4 0.000000 0.000000 0.000000 -0.063962 0.000000 0.000000
# 5 0.000000 0.000000 0.000000 0.000000 0.019791 0.000000
# 6 0.000000 0.000000 0.000000 0.000000 0.000000 -0.000148
#
#
# Mechanical properties :
#
#
# Convention : Reuss Voigt Hill
#
# Bulk Modulus (GPa) = 41.34367 42.02662 41.68515
# Shear Modulus (GPa) = 185.36358 -1332.26378 -573.45010
#
# Velocity S-wave (km/s) = 10.13230 -27.16383 -17.82148
# Velocity P-wave (km/s) = 12.64052 30.99282 20.00965
#
# Compressibility (1/GPa) = 0.02418750
#
# Stress axis : x y z
#
# Youngs Moduli (GPa) = 53.00019 90.34229 72.61100
#
# Poissons Ratio (x) = 0.18596 0.47231
# Poissons Ratio (y) = 0.10910 0.08695
# Poissons Ratio (z) = 0.34475 0.10819
#
# Static dielectric constant tensor:
#      x y z
#    x 1.679970 0.000000 0.000000 
#    y 0.000000 1.643720 0.000000 
#    z 0.000000 0.000000 1.712890 
# 
# From -- ./inp_files/8212.got.cif
#   From: 2010.05.17/outbox.cif.g08.bks.cpg/sg60_5_cif.got.tgz:8212.got - 2010.06.03 14:59:27.
