data_PCOD9454310
_publ_section_title
;
Structure prediction by ZEFSAII (Michael W. Deem and Ramdas Pophale) SiO2 
 PCOD9454310
Probable space group: P B C N
;
_chemical_formula_sum "Si O2"
_cell_formula_units_Z 52
_cell_length_a 22.755598
_cell_length_b 13.887371
_cell_length_c 5.474122
_cell_angle_alpha 90.000000
_cell_angle_beta 90.000000
_cell_angle_gamma 90.000000
_cell_volume 1729.907027
_symmetry_space_group_name_H-M "P B C N"
_symmetry_group_IT_number 60
_symmetry_cell_setting 'orthorhombic'
loop_
_space_group_symop_operation_xyz
x,y,z
1/2-x,1/2-y,1/2+z
1/2+x,1/2-y,-z
-x,y,1/2-z
-x,-y,-z
1/2+x,1/2+y,1/2-z
1/2-x,1/2+y,z
x,-y,1/2+z
loop_
_atom_site_type_symbol
_atom_site_label
_atom_site_fract_x
_atom_site_fract_y
_atom_site_fract_z
Si Si1 0.060100 0.066336 0.678635
Si Si2 0.554218 0.246784 0.858343
Si Si3 0.328148 0.447475 0.985929
Si Si4 0.833624 0.771070 0.082179
Si Si5 0.117309 0.613077 0.036990
Si Si6 0.000000 0.600069 0.250000
Si Si7 0.223290 0.616208 0.733469
O O1 0.120233 0.123847 0.586808
O O2 0.000000 0.123624 0.750000
O O3 0.058845 0.001798 0.425016
O O4 0.500000 0.304445 0.750000
O O5 0.583824 0.184122 0.647118
O O6 0.603935 0.307919 0.985274
O O7 0.528393 0.168857 0.045954
O O8 0.337036 0.523177 0.208076
O O9 0.258555 0.426895 0.003004
O O10 0.849039 0.682124 0.267182
O O11 0.782676 0.848013 0.132363
O O12 0.805850 0.714872 0.851773
O O13 0.170532 0.565095 0.881136
O O14 0.060790 0.552711 0.143817
#
# Coordination Sequence:
#
# PCOD9454310 Si02
#       7
#     8   8   8   8   8   4   8
#     4   8  14  29  54  76  97 135 189 239 280 328
#     4   8  15  28  48  72 107 144 179 225 273 343
#     4  10  23  39  58  83 112 153 197 244 292 343
#     4  10  19  31  51  80 108 148 185 230 290 348
#     4   9  17  30  49  79 107 145 182 224 284 345
#     4   8  14  28  50  74 108 140 186 222 266 350
#     4  11  21  33  55  79 116 148 192 237 291 355
#
# _framework density 30.059421
#
# number of rings (size 3 to 8) (size 9 to 14) (size 15 to 20)
#    0.000    2.769    1.538    0.000    2.154    0.000 
#    0.000    0.000   10.154    3.692    0.000    1.077 
#    0.000    0.000    0.000    0.000    0.000    0.000 
#
# Total GULP energy -290081.444777 kJ/mol
# GULP energy per Si atom -5578.489323 kJ/mol
# Density = 2.999100 g / cm^3
# Si number density = 30.059421 Si / 1000 Ang^3
#
#
#
# Elastic Constant Matrix: (Units=GPa)
#
#
# Indices 1 2 3 4 5 6 
#
# 1 244.1916 31.9915 52.2420 0.0000 0.0000 0.0000
# 2 31.9915 54.1134 30.0537 0.0000 0.0000 0.0000
# 3 52.2420 30.0537 141.2106 0.0000 0.0000 0.0000
# 4 0.0000 0.0000 0.0000 34.5401 0.0000 0.0000
# 5 0.0000 0.0000 0.0000 0.0000 68.9311 0.0000
# 6 0.0000 0.0000 0.0000 0.0000 0.0000 27.4063
#
#
#
# Elastic Compliance Matrix: (Units=1/GPa)
#
#
# Indices 1 2 3 4 5 6 
#
# 1 0.004635 -0.002028 -0.001283 0.000000 0.000000 0.000000
# 2 -0.002028 0.021844 -0.003899 0.000000 0.000000 0.000000
# 3 -0.001283 -0.003899 0.008386 0.000000 0.000000 0.000000
# 4 0.000000 0.000000 0.000000 0.028952 0.000000 0.000000
# 5 0.000000 0.000000 0.000000 0.000000 0.014507 0.000000
# 6 0.000000 0.000000 0.000000 0.000000 0.000000 0.036488
#
#
# Mechanical properties :
#
#
# Convention : Reuss Voigt Hill
#
# Bulk Modulus (GPa) = 48.91012 74.23224 61.57118
# Shear Modulus (GPa) = 36.75194 47.85739 42.30466
#
# Velocity S-wave (km/s) = 3.50042 3.99443 3.75556
# Velocity P-wave (km/s) = 5.71347 6.78401 6.27162
#
# Compressibility (1/GPa) = 0.02044567
#
# Stress axis : x y z
#
# Youngs Moduli (GPa) = 215.73380 45.77959 119.24367
#
# Poissons Ratio (x) = 0.09282 0.15303
# Poissons Ratio (y) = 0.43743 0.46491
# Poissons Ratio (z) = 0.27686 0.17849
#
# Static dielectric constant tensor:
#      x y z
#    x 2.671610 0.000000 0.000000 
#    y 0.000000 2.327800 0.000000 
#    z 0.000000 0.000000 2.618890 
# 
# From -- ./inp_files/2085.got.cif
#   From: 2010.05.17/outbox.cif.g08.bks.cpg/sg60_2_cif.got.tgz:2085.got - 2010.06.03 14:59:27.
