data_PCOD9454117
_publ_section_title
;
Structure prediction by ZEFSAII (Michael W. Deem and Ramdas Pophale) SiO2 
 PCOD9454117
Probable space group: P B C N
;
_chemical_formula_sum "Si O2"
_cell_formula_units_Z 52
_cell_length_a 14.250329
_cell_length_b 9.964959
_cell_length_c 16.613944
_cell_angle_alpha 90.000000
_cell_angle_beta 90.000000
_cell_angle_gamma 90.000000
_cell_volume 2359.245577
_symmetry_space_group_name_H-M "P B C N"
_symmetry_group_IT_number 60
_symmetry_cell_setting 'orthorhombic'
loop_
_space_group_symop_operation_xyz
x,y,z
1/2-x,1/2-y,1/2+z
1/2+x,1/2-y,-z
-x,y,1/2-z
-x,-y,-z
1/2+x,1/2+y,1/2-z
1/2-x,1/2+y,z
x,-y,1/2+z
loop_
_atom_site_type_symbol
_atom_site_label
_atom_site_fract_x
_atom_site_fract_y
_atom_site_fract_z
Si Si1 0.339200 0.747114 0.865163
Si Si2 0.694097 0.545978 0.103739
Si Si3 0.796443 0.068237 0.910545
Si Si4 0.014161 0.340518 0.997007
Si Si5 0.485245 0.419963 0.585582
Si Si6 0.500000 0.796735 0.750000
Si Si7 0.145258 0.345961 0.621796
O O1 0.264517 0.862188 0.845733
O O2 0.286086 0.611387 0.886852
O O3 0.398643 0.803159 0.940408
O O4 0.420795 0.719761 0.800353
O O5 0.585393 0.564453 0.127718
O O6 0.703751 0.579940 0.008430
O O7 0.891868 0.991750 0.882831
O O8 0.709098 0.973384 0.891351
O O9 0.793709 0.211551 0.866168
O O10 0.916833 0.299674 0.954683
O O11 0.000000 0.500000 0.000000
O O12 0.027988 0.239087 0.070846
O O13 0.500000 0.500000 0.500000
O O14 0.565121 0.875732 0.812480
#
# Coordination Sequence:
#
# PCOD9454117 Si02
#       7
#     8   8   8   8   8   4   8
#     4  11  23  40  63  88 126 165 206 252 296 377
#     4  11  21  37  65  99 126 154 199 256 322 361
#     4  11  21  37  65  99 126 154 199 256 322 361
#     4  11  21  34  57  91 130 163 190 248 309 359
#     4  10  18  35  55  90 136 153 186 236 318 376
#     4  10  26  48  60  80 120 180 212 244 304 352
#     4  11  23  40  63  88 126 165 206 252 296 377
#
# _framework density 22.040944
#
# number of rings (size 3 to 8) (size 9 to 14) (size 15 to 20)
#    0.000    1.231    6.154    2.769    4.308    1.231 
#    0.000    0.000    0.000    1.846    0.000    0.000 
#    0.000    0.000    0.000    0.000    0.000    0.000 
#
# Total GULP energy -290096.060451 kJ/mol
# GULP energy per Si atom -5578.770393 kJ/mol
# Density = 2.199078 g / cm^3
# Si number density = 22.040944 Si / 1000 Ang^3
#
#
#
# Elastic Constant Matrix: (Units=GPa)
#
#
# Indices 1 2 3 4 5 6 
#
# 1 103.1852 16.6139 17.2917 0.0000 0.0000 0.0000
# 2 16.6139 117.9451 9.9531 0.0000 0.0000 0.0000
# 3 17.2917 9.9531 27.9638 0.0000 0.0000 0.0000
# 4 0.0000 0.0000 0.0000 3.4955 0.0000 0.0000
# 5 0.0000 0.0000 0.0000 0.0000 14.7246 0.0000
# 6 0.0000 0.0000 0.0000 0.0000 0.0000 36.6005
#
#
#
# Elastic Compliance Matrix: (Units=1/GPa)
#
#
# Indices 1 2 3 4 5 6 
#
# 1 0.010925 -0.000999 -0.006400 0.000000 0.000000 0.000000
# 2 -0.000999 0.008832 -0.002526 0.000000 0.000000 0.000000
# 3 -0.006400 -0.002526 0.040617 0.000000 0.000000 0.000000
# 4 0.000000 0.000000 0.000000 0.286084 0.000000 0.000000
# 5 0.000000 0.000000 0.000000 0.000000 0.067914 0.000000
# 6 0.000000 0.000000 0.000000 0.000000 0.000000 0.027322
#
#
# Mechanical properties :
#
#
# Convention : Reuss Voigt Hill
#
# Bulk Modulus (GPa) = 24.67640 37.42351 31.04995
# Shear Modulus (GPa) = 10.52518 24.64648 17.58583
#
# Velocity S-wave (km/s) = 2.18761 3.34760 2.82773
# Velocity P-wave (km/s) = 4.19534 5.65313 4.97789
#
# Compressibility (1/GPa) = 0.04052456
#
# Stress axis : x y z
#
# Youngs Moduli (GPa) = 91.53642 113.21979 24.62023
#
# Poissons Ratio (x) = 0.11308 0.15757
# Poissons Ratio (y) = 0.09143 0.06219
# Poissons Ratio (z) = 0.58582 0.28600
#
# Static dielectric constant tensor:
#      x y z
#    x 1.886390 0.000000 0.000000 
#    y 0.000000 1.862350 0.000000 
#    z 0.000000 0.000000 1.907580 
# 
# From -- ./inp_files/22849.got.cif
#   From: 2010.05.17/outbox.cif.g08.bks.cpg/sg60_12_cif.got.tgz:22849.got - 2010.06.03 14:59:27.
