data_PCOD9454421
_publ_section_title
;
Structure prediction by ZEFSAII (Michael W. Deem and Ramdas Pophale) SiO2 
 PCOD9454421
Probable space group: P B C N
;
_chemical_formula_sum "Si O2"
_cell_formula_units_Z 56
_cell_length_a 16.202152
_cell_length_b 5.298207
_cell_length_c 26.377339
_cell_angle_alpha 90.000000
_cell_angle_beta 90.000000
_cell_angle_gamma 90.000000
_cell_volume 2264.292902
_symmetry_space_group_name_H-M "P B C N"
_symmetry_group_IT_number 60
_symmetry_cell_setting 'orthorhombic'
loop_
_space_group_symop_operation_xyz
x,y,z
1/2-x,1/2-y,1/2+z
1/2+x,1/2-y,-z
-x,y,1/2-z
-x,-y,-z
1/2+x,1/2+y,1/2-z
1/2-x,1/2+y,z
x,-y,1/2+z
loop_
_atom_site_type_symbol
_atom_site_label
_atom_site_fract_x
_atom_site_fract_y
_atom_site_fract_z
Si Si1 0.975381 0.249252 0.032208
Si Si2 0.797273 0.313036 0.743120
Si Si3 0.701249 0.132527 0.507318
Si Si4 0.051914 0.708218 0.188956
Si Si5 0.529224 0.286244 0.649805
Si Si6 0.277224 0.316430 0.867721
Si Si7 0.196571 0.323715 0.608531
O O1 0.004309 0.230885 0.091232
O O2 0.876707 0.274674 0.039206
O O3 0.000000 0.500000 0.000000
O O4 0.000000 0.000000 0.000000
O O5 0.754623 0.570838 0.761911
O O6 0.891513 0.291594 0.760623
O O7 0.781651 0.317185 0.682538
O O8 0.774472 0.338793 0.509940
O O9 0.668833 0.171093 0.449540
O O10 0.120554 0.683751 0.145519
O O11 0.996108 0.463304 0.180207
O O12 0.006269 0.969286 0.177902
O O13 0.628406 0.309585 0.648513
O O14 0.252574 0.568885 0.896327
O O15 0.249587 0.574410 0.616707
#
# Coordination Sequence:
#
# PCOD9454421 Si02
#       7
#     8   8   8   8   8   8   8
#     4  12  25  43  65  93 136 179 218 275 340 390
#     4  10  21  42  68  96 132 173 215 262 332 400
#     4  10  21  36  57  86 117 160 215 262 308 372
#     4  12  23  40  64  99 132 169 217 272 334 394
#     4  12  26  42  67  99 131 173 224 277 329 395
#     4  10  23  46  69  95 132 174 217 272 332 398
#     4  10  19  33  56  86 123 164 208 258 312 377
#
# _framework density 24.731781000000002
#
# number of rings (size 3 to 8) (size 9 to 14) (size 15 to 20)
#    0.000    1.143    0.000    6.857    0.000    3.429 
#    0.000   17.143    0.000    0.000    0.000    0.000 
#    0.000    0.000    0.000    0.000    0.000    0.000 
#
# Total GULP energy -313761.257239 kJ/mol
# GULP energy per Si atom -5602.879594 kJ/mol
# Density = 2.467549 g / cm^3
# Si number density = 24.731781 Si / 1000 Ang^3
#
#
#
# Elastic Constant Matrix: (Units=GPa)
#
#
# Indices 1 2 3 4 5 6 
#
# 1 116.2693 65.3239 17.9743 0.0000 0.0000 0.0000
# 2 65.3239 237.3090 32.4653 0.0000 0.0000 0.0000
# 3 17.9743 32.4653 131.6518 0.0000 0.0000 0.0000
# 4 0.0000 0.0000 0.0000 13.8255 0.0000 0.0000
# 5 0.0000 0.0000 0.0000 0.0000 48.3020 0.0000
# 6 0.0000 0.0000 0.0000 0.0000 0.0000 49.5085
#
#
#
# Elastic Compliance Matrix: (Units=1/GPa)
#
#
# Indices 1 2 3 4 5 6 
#
# 1 0.010241 -0.002720 -0.000728 0.000000 0.000000 0.000000
# 2 -0.002720 0.005083 -0.000882 0.000000 0.000000 0.000000
# 3 -0.000728 -0.000882 0.007913 0.000000 0.000000 0.000000
# 4 0.000000 0.000000 0.000000 0.072330 0.000000 0.000000
# 5 0.000000 0.000000 0.000000 0.000000 0.020703 0.000000
# 6 0.000000 0.000000 0.000000 0.000000 0.000000 0.020199
#
#
# Mechanical properties :
#
#
# Convention : Reuss Voigt Hill
#
# Bulk Modulus (GPa) = 68.59482 79.63967 74.11724
# Shear Modulus (GPa) = 33.33629 46.95831 40.14730
#
# Velocity S-wave (km/s) = 3.67538 4.36214 4.03340
# Velocity P-wave (km/s) = 6.76808 7.59225 7.19198
#
# Compressibility (1/GPa) = 0.01457836
#
# Stress axis : x y z
#
# Youngs Moduli (GPa) = 97.64555 196.72600 126.37938
#
# Poissons Ratio (x) = 0.53500 0.09195
# Poissons Ratio (y) = 0.26555 0.11149
# Poissons Ratio (z) = 0.07104 0.17356
#
# Static dielectric constant tensor:
#      x y z
#    x 1.930170 0.000000 0.000000 
#    y 0.000000 1.949740 0.000000 
#    z 0.000000 0.000000 2.065070 
# 
# From -- ./inp_files/26154.got.cif
#   From: 2010.05.17/outbox.cif.g08.bks.cpg/sg60_14_cif.got.tgz:26154.got - 2010.06.03 14:59:27.
