data_PCOD9454181
_publ_section_title
;
Structure prediction by ZEFSAII (Michael W. Deem and Ramdas Pophale) SiO2 
 PCOD9454181
Probable space group: P B C N
;
_chemical_formula_sum "Si O2"
_cell_formula_units_Z 64
_cell_length_a 18.192491
_cell_length_b 7.808611
_cell_length_c 21.793193
_cell_angle_alpha 90.000000
_cell_angle_beta 90.000000
_cell_angle_gamma 90.000000
_cell_volume 3095.899271
_symmetry_space_group_name_H-M "P B C N"
_symmetry_group_IT_number 60
_symmetry_cell_setting 'orthorhombic'
loop_
_space_group_symop_operation_xyz
x,y,z
1/2-x,1/2-y,1/2+z
1/2+x,1/2-y,-z
-x,y,1/2-z
-x,-y,-z
1/2+x,1/2+y,1/2-z
1/2-x,1/2+y,z
x,-y,1/2+z
loop_
_atom_site_type_symbol
_atom_site_label
_atom_site_fract_x
_atom_site_fract_y
_atom_site_fract_z
Si Si1 0.605285 0.714963 0.429358
Si Si2 0.754201 0.802093 0.364215
Si Si3 0.825198 0.232536 0.558675
Si Si4 0.968712 0.468744 0.861414
Si Si5 0.837645 0.830428 0.565473
Si Si6 0.826760 0.430378 0.787378
Si Si7 0.092913 0.829196 0.061312
Si Si8 0.136149 0.474149 0.344235
O O1 0.685283 0.706962 0.396121
O O2 0.623007 0.760125 0.499850
O O3 0.558252 0.860518 0.396529
O O4 0.570596 0.525872 0.427116
O O5 0.713467 0.976510 0.344605
O O6 0.786570 0.748636 0.297250
O O7 0.825751 0.810085 0.407515
O O8 0.741095 0.267724 0.539597
O O9 0.839592 0.371783 0.610933
O O10 0.833564 0.033847 0.578290
O O11 0.911411 0.428754 0.807263
O O12 0.960101 0.309028 0.907964
O O13 0.049489 0.497827 0.836804
O O14 0.896231 0.801809 0.511137
O O15 0.851696 0.708003 0.623038
O O16 0.822789 0.507658 0.720318
#
# Coordination Sequence:
#
# PCOD9454181 Si02
#       8
#     8   8   8   8   8   8   8   8
#     4  10  20  37  65  95 124 149 211 266 304 368
#     4  10  18  36  64  96 114 152 210 270 310 342
#     4  11  23  37  63  95 125 162 201 258 323 371
#     4  10  24  42  63  89 120 180 207 245 312 362
#     4  11  23  37  63  95 125 162 201 258 323 371
#     4  10  23  38  66  88 122 163 215 259 300 362
#     4  10  20  37  65  95 124 149 211 266 304 368
#     4  12  26  44  57  87 141 166 203 250 307 389
#
# _framework density 20.672507
#
# number of rings (size 3 to 8) (size 9 to 14) (size 15 to 20)
#    0.000    1.500    3.750    1.125    1.750    3.000 
#    0.000    2.500    0.000    4.500    0.000    0.000 
#    0.000    0.000    0.000    0.000    0.000    0.000 
#
# Total GULP energy -357126.548249 kJ/mol
# GULP energy per Si atom -5580.102316 kJ/mol
# Density = 2.062546 g / cm^3
# Si number density = 20.672507 Si / 1000 Ang^3
#
#
#
# Elastic Constant Matrix: (Units=GPa)
#
#
# Indices 1 2 3 4 5 6 
#
# 1 33.2389 -3.8704 -0.3997 0.0000 0.0000 0.0000
# 2 -3.8704 77.4231 32.1386 0.0000 0.0000 0.0000
# 3 -0.3997 32.1386 92.7175 0.0000 0.0000 0.0000
# 4 0.0000 0.0000 0.0000 25.0797 0.0000 0.0000
# 5 0.0000 0.0000 0.0000 0.0000 22.3615 0.0000
# 6 0.0000 0.0000 0.0000 0.0000 0.0000 16.1250
#
#
#
# Elastic Compliance Matrix: (Units=1/GPa)
#
#
# Indices 1 2 3 4 5 6 
#
# 1 0.030278 0.001705 -0.000460 0.000000 0.000000 0.000000
# 2 0.001705 0.015183 -0.005255 0.000000 0.000000 0.000000
# 3 -0.000460 -0.005255 0.012605 0.000000 0.000000 0.000000
# 4 0.000000 0.000000 0.000000 0.039873 0.000000 0.000000
# 5 0.000000 0.000000 0.000000 0.000000 0.044720 0.000000
# 6 0.000000 0.000000 0.000000 0.000000 0.000000 0.062016
#
#
# Mechanical properties :
#
#
# Convention : Reuss Voigt Hill
#
# Bulk Modulus (GPa) = 19.98242 28.79071 24.38657
# Shear Modulus (GPa) = 21.79810 24.41398 23.10604
#
# Velocity S-wave (km/s) = 3.25075 3.44028 3.34686
# Velocity P-wave (km/s) = 4.87617 5.45325 5.17276
#
# Compressibility (1/GPa) = 0.05004399
#
# Stress axis : x y z
#
# Youngs Moduli (GPa) = 33.02703 65.86396 79.33260
#
# Poissons Ratio (x) = -0.11228 0.03652
# Poissons Ratio (y) = -0.05630 0.41693
# Poissons Ratio (z) = 0.01521 0.34614
#
# Static dielectric constant tensor:
#      x y z
#    x 1.773180 0.000000 0.000000 
#    y 0.000000 1.842480 0.000000 
#    z 0.000000 0.000000 1.726240 
# 
# From -- ./inp_files/23102.got.cif
#   From: 2010.05.17/outbox.cif.g08.bks.cpg/sg60_12_cif.got.tgz:23102.got - 2010.06.03 14:59:27.
