data_PCOD9454651
_publ_section_title
;
Structure prediction by ZEFSAII (Michael W. Deem and Ramdas Pophale) SiO2 
 PCOD9454651
Probable space group: P B C N
;
_chemical_formula_sum "Si O2"
_cell_formula_units_Z 56
_cell_length_a 10.758443
_cell_length_b 21.216143
_cell_length_c 11.225414
_cell_angle_alpha 90.000000
_cell_angle_beta 90.000000
_cell_angle_gamma 90.000000
_cell_volume 2562.230663
_symmetry_space_group_name_H-M "P B C N"
_symmetry_group_IT_number 60
_symmetry_cell_setting 'orthorhombic'
loop_
_space_group_symop_operation_xyz
x,y,z
1/2-x,1/2-y,1/2+z
1/2+x,1/2-y,-z
-x,y,1/2-z
-x,-y,-z
1/2+x,1/2+y,1/2-z
1/2-x,1/2+y,z
x,-y,1/2+z
loop_
_atom_site_type_symbol
_atom_site_label
_atom_site_fract_x
_atom_site_fract_y
_atom_site_fract_z
Si Si1 0.301544 0.800332 0.912524
Si Si2 0.773188 0.907271 0.264072
Si Si3 0.931447 0.400509 0.460145
Si Si4 0.929077 0.158871 0.951074
Si Si5 0.390489 0.201371 0.163310
Si Si6 0.703255 0.659579 0.511629
Si Si7 0.608388 0.001967 0.656548
O O1 0.423931 0.835475 0.967306
O O2 0.294372 0.785877 0.773014
O O3 0.295179 0.734740 0.979498
O O4 0.182528 0.839703 0.954581
O O5 0.656143 0.888950 0.346716
O O6 0.890255 0.890121 0.346906
O O7 0.778291 0.867852 0.143281
O O8 0.734241 0.977819 0.223611
O O9 0.875868 0.450546 0.554605
O O10 0.051477 0.435781 0.408332
O O11 0.929551 0.229690 0.890699
O O12 0.059689 0.142817 0.012712
O O13 0.500000 0.176602 0.250000
O O14 0.316850 0.151251 0.080515
O O15 0.500000 0.982696 0.750000
#
# Coordination Sequence:
#
# PCOD9454651 Si02
#       7
#     8   8   8   8   8   8   8
#     4  10  21  35  59  89 124 168 205 260 311 372
#     4  10  19  36  61  85 118 162 204 250 307 384
#     4   9  20  37  58  87 127 160 202 269 321 375
#     4  10  20  39  59  83 127 164 211 252 305 379
#     4  11  21  36  55  91 129 160 208 257 307 370
#     4  11  22  36  60  89 124 174 208 248 317 379
#     4   9  19  37  58  91 122 160 213 259 327 380
#
# _framework density 21.855957
#
# number of rings (size 3 to 8) (size 9 to 14) (size 15 to 20)
#    0.000    2.000    2.857    0.429    2.000    1.143 
#    5.143    0.000    0.000    7.714    0.000    0.000 
#    0.000    0.000    0.000    0.000    0.000    0.000 
#
# Total GULP energy -311746.843527 kJ/mol
# GULP energy per Si atom -5566.907920 kJ/mol
# Density = 2.180621 g / cm^3
# Si number density = 21.855957 Si / 1000 Ang^3
#
#
#
# Elastic Constant Matrix: (Units=GPa)
#
#
# Indices 1 2 3 4 5 6 
#
# 1 111.8459 4.7544 18.2564 0.0000 0.0000 0.0000
# 2 4.7544 15.0901 -17.9125 0.0000 0.0000 0.0000
# 3 18.2564 -17.9125 56.3951 0.0000 0.0000 0.0000
# 4 0.0000 0.0000 0.0000 23.9910 0.0000 0.0000
# 5 0.0000 0.0000 0.0000 0.0000 40.5854 0.0000
# 6 0.0000 0.0000 0.0000 0.0000 0.0000 11.9536
#
#
#
# Elastic Compliance Matrix: (Units=1/GPa)
#
#
# Indices 1 2 3 4 5 6 
#
# 1 0.010628 -0.011931 -0.007230 0.000000 0.000000 0.000000
# 2 -0.011931 0.119770 0.041904 0.000000 0.000000 0.000000
# 3 -0.007230 0.041904 0.033383 0.000000 0.000000 0.000000
# 4 0.000000 0.000000 0.000000 0.041682 0.000000 0.000000
# 5 0.000000 0.000000 0.000000 0.000000 0.024639 0.000000
# 6 0.000000 0.000000 0.000000 0.000000 0.000000 0.083657
#
#
# Mechanical properties :
#
#
# Convention : Reuss Voigt Hill
#
# Bulk Modulus (GPa) = 4.77859 21.50307 13.14083
# Shear Modulus (GPa) = 14.79163 27.18818 20.98991
#
# Velocity S-wave (km/s) = 2.60432 3.53082 3.10235
# Velocity P-wave (km/s) = 3.35178 5.14608 4.34262
#
# Compressibility (1/GPa) = 0.20926678
#
# Stress axis : x y z
#
# Youngs Moduli (GPa) = 94.08893 8.34933 29.95574
#
# Poissons Ratio (x) = 0.09962 0.21659
# Poissons Ratio (y) = 1.12260 -1.25528
# Poissons Ratio (z) = 0.68029 -0.34987
#
# Static dielectric constant tensor:
#      x y z
#    x 1.958200 0.000000 0.000000 
#    y 0.000000 1.800380 0.000000 
#    z 0.000000 0.000000 1.884290 
# 
# From -- ./inp_files/11209.got.cif
#   From: 2010.05.17/outbox.cif.g08.bks.cpg/sg60_6_cif.got.tgz:11209.got - 2010.06.03 14:59:27.
