data_PCOD9454382
_publ_section_title
;
Structure prediction by ZEFSAII (Michael W. Deem and Ramdas Pophale) SiO2 
 PCOD9454382
Probable space group: P B C N
;
_chemical_formula_sum "Si O2"
_cell_formula_units_Z 64
_cell_length_a 24.480086
_cell_length_b 12.114517
_cell_length_c 9.514630
_cell_angle_alpha 90.000000
_cell_angle_beta 90.000000
_cell_angle_gamma 90.000000
_cell_volume 2821.700709
_symmetry_space_group_name_H-M "P B C N"
_symmetry_group_IT_number 60
_symmetry_cell_setting 'orthorhombic'
loop_
_space_group_symop_operation_xyz
x,y,z
1/2-x,1/2-y,1/2+z
1/2+x,1/2-y,-z
-x,y,1/2-z
-x,-y,-z
1/2+x,1/2+y,1/2-z
1/2-x,1/2+y,z
x,-y,1/2+z
loop_
_atom_site_type_symbol
_atom_site_label
_atom_site_fract_x
_atom_site_fract_y
_atom_site_fract_z
Si Si1 0.870612 0.185530 0.082498
Si Si2 0.389221 0.068506 0.836604
Si Si3 0.944994 0.195589 0.827511
Si Si4 0.789990 0.422564 0.670851
Si Si5 0.450739 0.956759 0.597136
Si Si6 0.736984 0.646241 0.903605
Si Si7 0.836945 0.173833 0.653651
Si Si8 0.308761 0.644728 0.153907
O O1 0.888906 0.301468 0.148323
O O2 0.852235 0.120994 0.222300
O O3 0.918140 0.149071 0.973682
O O4 0.814158 0.201925 0.992800
O O5 0.332496 0.016277 0.792255
O O6 0.436794 0.025425 0.735205
O O7 0.399369 0.026527 0.994397
O O8 0.953889 0.327075 0.862040
O O9 0.897209 0.175302 0.715526
O O10 0.000000 0.155642 0.750000
O O11 0.760535 0.435821 0.520912
O O12 0.819443 0.303234 0.656000
O O13 0.746746 0.409912 0.794078
O O14 0.500000 0.000000 0.500000
O O15 0.705497 0.617561 0.760715
O O16 0.785980 0.728966 0.860491
O O17 0.831981 0.121460 0.499793
#
# Coordination Sequence:
#
# PCOD9454382 Si02
#       8
#     8   8   8   8   8   8   8   8
#     4   9  20  32  46  71  95 126 167 213 244 299
#     4  11  22  33  48  69  95 124 178 223 238 290
#     4  10  19  33  48  62  91 129 177 214 248 279
#     4   9  17  31  47  68  89 122 160 212 253 302
#     4  11  23  35  46  61  93 139 177 216 256 276
#     4   8  16  31  48  66  91 118 158 198 259 312
#     4   9  16  29  48  67  86 118 162 209 249 302
#     4   9  17  30  50  67  92 119 163 204 262 310
#
# _framework density 22.681355
#
# number of rings (size 3 to 8) (size 9 to 14) (size 15 to 20)
#    0.000    2.500    1.250    1.875    5.250    0.000 
#    0.000    1.875    0.000    0.000    0.000    0.000 
#    0.000    0.000    0.000    0.000    0.000  722.500 
#
# Total GULP energy -357138.034740 kJ/mol
# GULP energy per Si atom -5580.281793 kJ/mol
# Density = 2.262973 g / cm^3
# Si number density = 22.681355 Si / 1000 Ang^3
#
#
#
# Elastic Constant Matrix: (Units=GPa)
#
#
# Indices 1 2 3 4 5 6 
#
# 1 114.0170 4.5841 63.1313 0.0000 0.0000 0.0000
# 2 4.5841 21.3131 1.7949 0.0000 0.0000 0.0000
# 3 63.1313 1.7949 170.8405 0.0000 0.0000 0.0000
# 4 0.0000 0.0000 0.0000 19.9489 0.0000 0.0000
# 5 0.0000 0.0000 0.0000 0.0000 24.0624 0.0000
# 6 0.0000 0.0000 0.0000 0.0000 0.0000 17.9847
#
#
#
# Elastic Compliance Matrix: (Units=1/GPa)
#
#
# Indices 1 2 3 4 5 6 
#
# 1 0.011115 -0.002047 -0.004086 0.000000 0.000000 0.000000
# 2 -0.002047 0.047338 0.000259 0.000000 0.000000 0.000000
# 3 -0.004086 0.000259 0.007361 0.000000 0.000000 0.000000
# 4 0.000000 0.000000 0.000000 0.050128 0.000000 0.000000
# 5 0.000000 0.000000 0.000000 0.000000 0.041559 0.000000
# 6 0.000000 0.000000 0.000000 0.000000 0.000000 0.055603
#
#
# Mechanical properties :
#
#
# Convention : Reuss Voigt Hill
#
# Bulk Modulus (GPa) = 18.49575 49.46569 33.98072
# Shear Modulus (GPa) = 20.58693 28.17658 24.38175
#
# Velocity S-wave (km/s) = 3.01601 3.52842 3.28223
# Velocity P-wave (km/s) = 4.50563 6.20129 5.42018
#
# Compressibility (1/GPa) = 0.05406648
#
# Stress axis : x y z
#
# Youngs Moduli (GPa) = 89.96597 21.12475 135.85852
#
# Poissons Ratio (x) = 0.04323 0.55512
# Poissons Ratio (y) = 0.18412 -0.03518
# Poissons Ratio (z) = 0.36760 -0.00547
#
# Static dielectric constant tensor:
#      x y z
#    x 1.847980 0.000000 0.000000 
#    y 0.000000 1.941160 0.000000 
#    z 0.000000 0.000000 1.873020 
# 
# From -- ./inp_files/7989.got.cif
#   From: 2010.05.17/outbox.cif.g08.bks.cpg/sg60_4_cif.got.tgz:7989.got - 2010.06.03 14:59:27.
