data_PCOD9454148
_publ_section_title
;
Structure prediction by ZEFSAII (Michael W. Deem and Ramdas Pophale) SiO2 
 PCOD9454148
Probable space group: P B C N
;
_chemical_formula_sum "Si O2"
_cell_formula_units_Z 44
_cell_length_a 18.076892
_cell_length_b 13.867614
_cell_length_c 9.287159
_cell_angle_alpha 90.000000
_cell_angle_beta 90.000000
_cell_angle_gamma 90.000000
_cell_volume 2328.136228
_symmetry_space_group_name_H-M "P B C N"
_symmetry_group_IT_number 60
_symmetry_cell_setting 'orthorhombic'
loop_
_space_group_symop_operation_xyz
x,y,z
1/2-x,1/2-y,1/2+z
1/2+x,1/2-y,-z
-x,y,1/2-z
-x,-y,-z
1/2+x,1/2+y,1/2-z
1/2-x,1/2+y,z
x,-y,1/2+z
loop_
_atom_site_type_symbol
_atom_site_label
_atom_site_fract_x
_atom_site_fract_y
_atom_site_fract_z
Si Si1 0.862447 0.775239 0.430582
Si Si2 0.420048 0.594287 0.992176
Si Si3 0.227696 0.045009 0.696358
Si Si4 0.243772 0.608695 0.982515
Si Si5 0.602436 0.593165 0.181871
Si Si6 0.000000 0.219283 0.750000
O O1 0.828392 0.873324 0.361362
O O2 0.798755 0.696451 0.446686
O O3 0.887992 0.810249 0.589595
O O4 0.928604 0.735498 0.329689
O O5 0.332919 0.623032 0.979178
O O6 0.572129 0.513928 0.069176
O O7 0.435769 0.603858 0.162093
O O8 0.466385 0.657203 0.881249
O O9 0.268516 0.990556 0.568536
O O10 0.179999 0.959272 0.772172
O O11 0.277936 0.093304 0.816880
#
# Coordination Sequence:
#
# PCOD9454148 Si02
#       6
#     8   8   8   8   8   4
#     4  12  23  37  62  90 128 166 209 254 317 372
#     4  10  20  35  55  83 126 164 197 247 300 368
#     4  10  19  39  56  92 120 156 211 255 303 358
#     4  10  22  38  61  89 121 162 212 257 299 375
#     4  10  18  36  52  84 122 163 198 236 304 375
#     4  12  24  40  56  94 134 166 198 258 324 378
#
# _framework density 18.899236999999999
#
# number of rings (size 3 to 8) (size 9 to 14) (size 15 to 20)
#    0.000    1.455    9.091    0.000    5.091    3.636 
#    0.000    0.000    0.000    1.091    0.000    0.000 
#    0.000    0.000    0.000    0.000    0.000    0.000 
#
# Total GULP energy -245222.874894 kJ/mol
# GULP energy per Si atom -5573.247157 kJ/mol
# Density = 1.885622 g / cm^3
# Si number density = 18.899237 Si / 1000 Ang^3
#
#
#
# Elastic Constant Matrix: (Units=GPa)
#
#
# Indices 1 2 3 4 5 6 
#
# 1 77.2565 35.0553 37.1178 0.0000 0.0000 0.0000
# 2 35.0553 30.8942 25.0793 0.0000 0.0000 0.0000
# 3 37.1178 25.0793 148.1726 0.0000 0.0000 0.0000
# 4 0.0000 0.0000 0.0000 12.2971 0.0000 0.0000
# 5 0.0000 0.0000 0.0000 0.0000 27.7545 0.0000
# 6 0.0000 0.0000 0.0000 0.0000 0.0000 19.6439
#
#
#
# Elastic Compliance Matrix: (Units=1/GPa)
#
#
# Indices 1 2 3 4 5 6 
#
# 1 0.027106 -0.029265 -0.001837 0.000000 0.000000 0.000000
# 2 -0.029265 0.069122 -0.004368 0.000000 0.000000 0.000000
# 3 -0.001837 -0.004368 0.007948 0.000000 0.000000 0.000000
# 4 0.000000 0.000000 0.000000 0.081320 0.000000 0.000000
# 5 0.000000 0.000000 0.000000 0.000000 0.036030 0.000000
# 6 0.000000 0.000000 0.000000 0.000000 0.000000 0.050906
#
#
# Mechanical properties :
#
#
# Convention : Reuss Voigt Hill
#
# Bulk Modulus (GPa) = 30.08882 50.09200 40.09041
# Shear Modulus (GPa) = 14.10633 22.54383 18.32508
#
# Velocity S-wave (km/s) = 2.73499 3.45750 3.11725
# Velocity P-wave (km/s) = 5.09203 6.51931 5.84937
#
# Compressibility (1/GPa) = 0.03323494
#
# Stress axis : x y z
#
# Youngs Moduli (GPa) = 36.89285 14.46726 125.81244
#
# Poissons Ratio (x) = 0.42339 0.23108
# Poissons Ratio (y) = 1.07968 0.54958
# Poissons Ratio (z) = 0.06776 0.06320
#
# Static dielectric constant tensor:
#      x y z
#    x 1.741910 0.000000 0.000000 
#    y 0.000000 1.614140 0.000000 
#    z 0.000000 0.000000 1.742100 
# 
# From -- ./inp_files/6667.got.cif
#   From: 2010.05.17/outbox.cif.g08.bks.cpg/sg60_4_cif.got.tgz:6667.got - 2010.06.03 14:59:27.
