data_PCOD9454257
_publ_section_title
;
Structure prediction by ZEFSAII (Michael W. Deem and Ramdas Pophale) SiO2 
 PCOD9454257
Probable space group: P B C N
;
_chemical_formula_sum "Si O2"
_cell_formula_units_Z 44
_cell_length_a 8.170333
_cell_length_b 14.171821
_cell_length_c 14.830637
_cell_angle_alpha 90.000000
_cell_angle_beta 90.000000
_cell_angle_gamma 90.000000
_cell_volume 1717.217165
_symmetry_space_group_name_H-M "P B C N"
_symmetry_group_IT_number 60
_symmetry_cell_setting 'orthorhombic'
loop_
_space_group_symop_operation_xyz
x,y,z
1/2-x,1/2-y,1/2+z
1/2+x,1/2-y,-z
-x,y,1/2-z
-x,-y,-z
1/2+x,1/2+y,1/2-z
1/2-x,1/2+y,z
x,-y,1/2+z
loop_
_atom_site_type_symbol
_atom_site_label
_atom_site_fract_x
_atom_site_fract_y
_atom_site_fract_z
Si Si1 0.768736 0.211711 0.968680
Si Si2 0.474154 0.597983 0.388322
Si Si3 0.000000 0.237355 0.250000
Si Si4 0.367108 0.415357 0.172776
Si Si5 0.851890 0.471079 0.700626
Si Si6 0.415137 0.141403 0.918959
O O1 0.832387 0.185317 0.870004
O O2 0.588427 0.165182 0.966894
O O3 0.900704 0.152855 0.027718
O O4 0.780138 0.315300 0.012731
O O5 0.580504 0.667665 0.325226
O O6 0.563712 0.497718 0.393565
O O7 0.307753 0.583313 0.330603
O O8 0.094872 0.301922 0.323040
O O9 0.500000 0.406775 0.250000
O O10 0.207505 0.458696 0.219538
O O11 0.896944 0.533993 0.612489
O O12 0.000000 0.417969 0.750000
#
# Coordination Sequence:
#
# PCOD9454257 Si02
#       6
#     8   8   4   8   8   8
#     4  11  24  42  58  97 127 167 208 268 319 386
#     4  10  22  39  67  92 122 162 221 257 317 381
#     4  10  18  44  64  86 118 176 206 254 306 398
#     4  10  20  39  66  89 116 168 213 255 312 380
#     4  11  20  41  64  91 122 169 210 265 308 378
#     4  11  24  39  64  88 135 165 207 261 329 374
#
# _framework density 25.622851000000001
#
# number of rings (size 3 to 8) (size 9 to 14) (size 15 to 20)
#    0.000    1.455    5.455    0.545    5.091    0.727 
#    3.273    0.000    0.000    0.000    0.000    0.000 
#    0.000    0.000    0.000    0.000    0.000    0.000 
#
# Total GULP energy -245439.218326 kJ/mol
# GULP energy per Si atom -5578.164053 kJ/mol
# Density = 2.556453 g / cm^3
# Si number density = 25.622851 Si / 1000 Ang^3
#
#
#
# Elastic Constant Matrix: (Units=GPa)
#
#
# Indices 1 2 3 4 5 6 
#
# 1 81.0447 10.2636 -4.4790 0.0000 0.0000 0.0000
# 2 10.2636 65.4605 2.1115 0.0000 0.0000 0.0000
# 3 -4.4790 2.1115 34.8898 0.0000 0.0000 0.0000
# 4 0.0000 0.0000 0.0000 21.1930 0.0000 0.0000
# 5 0.0000 0.0000 0.0000 0.0000 31.9261 0.0000
# 6 0.0000 0.0000 0.0000 0.0000 0.0000 29.7482
#
#
#
# Elastic Compliance Matrix: (Units=1/GPa)
#
#
# Indices 1 2 3 4 5 6 
#
# 1 0.012695 -0.002047 0.001754 0.000000 0.000000 0.000000
# 2 -0.002047 0.015636 -0.001209 0.000000 0.000000 0.000000
# 3 0.001754 -0.001209 0.028960 0.000000 0.000000 0.000000
# 4 0.000000 0.000000 0.000000 0.047185 0.000000 0.000000
# 5 0.000000 0.000000 0.000000 0.000000 0.031322 0.000000
# 6 0.000000 0.000000 0.000000 0.000000 0.000000 0.033615
#
#
# Mechanical properties :
#
#
# Convention : Reuss Voigt Hill
#
# Bulk Modulus (GPa) = 18.42086 21.90971 20.16529
# Shear Modulus (GPa) = 26.24466 28.14006 27.19236
#
# Velocity S-wave (km/s) = 3.20389 3.31757 3.26122
# Velocity P-wave (km/s) = 4.57071 4.82125 4.69765
#
# Compressibility (1/GPa) = 0.05428628
#
# Stress axis : x y z
#
# Youngs Moduli (GPa) = 78.77105 63.95361 34.53045
#
# Poissons Ratio (x) = 0.13092 -0.06055
# Poissons Ratio (y) = 0.16125 0.04175
# Poissons Ratio (z) = -0.13813 0.07733
#
# Static dielectric constant tensor:
#      x y z
#    x 2.145440 0.000000 0.000000 
#    y 0.000000 2.096170 0.000000 
#    z 0.000000 0.000000 2.059180 
# 
# From -- ./inp_files/14927.got.cif
#   From: 2010.05.17/outbox.cif.g08.bks.cpg/sg60_8_cif.got.tgz:14927.got - 2010.06.03 14:59:27.
