data_PCOD9454013
_publ_section_title
;
Structure prediction by ZEFSAII (Michael W. Deem and Ramdas Pophale) SiO2 
 PCOD9454013
Probable space group: P B C N
;
_chemical_formula_sum "Si O2"
_cell_formula_units_Z 52
_cell_length_a 13.814784
_cell_length_b 16.051785
_cell_length_c 8.846585
_cell_angle_alpha 90.000000
_cell_angle_beta 90.000000
_cell_angle_gamma 90.000000
_cell_volume 1961.747409
_symmetry_space_group_name_H-M "P B C N"
_symmetry_group_IT_number 60
_symmetry_cell_setting 'orthorhombic'
loop_
_space_group_symop_operation_xyz
x,y,z
1/2-x,1/2-y,1/2+z
1/2+x,1/2-y,-z
-x,y,1/2-z
-x,-y,-z
1/2+x,1/2+y,1/2-z
1/2-x,1/2+y,z
x,-y,1/2+z
loop_
_atom_site_type_symbol
_atom_site_label
_atom_site_fract_x
_atom_site_fract_y
_atom_site_fract_z
Si Si1 0.624071 0.465963 0.463652
Si Si2 0.608427 0.626268 0.654719
Si Si3 0.315347 0.060080 0.095461
Si Si4 0.404752 0.191693 0.482419
Si Si5 0.842281 0.345024 0.193464
Si Si6 0.702302 0.336820 0.667261
Si Si7 0.000000 0.430196 0.750000
O O1 0.588596 0.555534 0.526223
O O2 0.583400 0.413534 0.321373
O O3 0.735460 0.490104 0.425180
O O4 0.633035 0.409914 0.612745
O O5 0.574201 0.714113 0.579873
O O6 0.723733 0.643503 0.690981
O O7 0.255731 0.135984 0.176844
O O8 0.401372 0.027136 0.199649
O O9 0.363248 0.092630 0.942651
O O10 0.403741 0.159178 0.653449
O O11 0.292680 0.176127 0.441906
O O12 0.468594 0.130902 0.383574
O O13 0.855010 0.247933 0.152303
#
# Coordination Sequence:
#
# PCOD9454013 Si02
#       7
#     8   8   8   8   8   8   4
#     4  11  19  33  57  91 124 150 187 255 322 360
#     4  10  21  33  59  92 123 150 189 256 318 361
#     4  10  22  37  55  85 122 161 201 241 300 367
#     4  10  21  37  58  85 117 157 208 243 294 359
#     4  10  19  34  60  87 113 150 205 259 301 345
#     4  10  18  32  56  88 118 146 190 257 308 351
#     4  10  24  42  58  80 120 172 214 238 284 368
#
# _framework density 26.506982000000001
#
# number of rings (size 3 to 8) (size 9 to 14) (size 15 to 20)
#    0.000    1.846    3.077    2.769    4.308    0.615 
#    0.000    3.077    0.000    0.923    0.000    0.000 
#    0.000    0.000    0.000    0.000    0.000    0.000 
#
# Total GULP energy -290327.680670 kJ/mol
# GULP energy per Si atom -5583.224628 kJ/mol
# Density = 2.644665 g / cm^3
# Si number density = 26.506982 Si / 1000 Ang^3
#
#
#
# Elastic Constant Matrix: (Units=GPa)
#
#
# Indices 1 2 3 4 5 6 
#
# 1 58.9468 5.8034 46.4027 0.0000 0.0000 0.0000
# 2 5.8034 141.0962 61.3704 0.0000 0.0000 0.0000
# 3 46.4027 61.3704 189.6770 0.0000 0.0000 0.0000
# 4 0.0000 0.0000 0.0000 45.8919 0.0000 0.0000
# 5 0.0000 0.0000 0.0000 0.0000 30.3212 0.0000
# 6 0.0000 0.0000 0.0000 0.0000 0.0000 51.2637
#
#
#
# Elastic Compliance Matrix: (Units=1/GPa)
#
#
# Indices 1 2 3 4 5 6 
#
# 1 0.021324 0.001620 -0.005741 0.000000 0.000000 0.000000
# 2 0.001620 0.008371 -0.003105 0.000000 0.000000 0.000000
# 3 -0.005741 -0.003105 0.007681 0.000000 0.000000 0.000000
# 4 0.000000 0.000000 0.000000 0.021790 0.000000 0.000000
# 5 0.000000 0.000000 0.000000 0.000000 0.032980 0.000000
# 6 0.000000 0.000000 0.000000 0.000000 0.000000 0.019507
#
#
# Mechanical properties :
#
#
# Convention : Reuss Voigt Hill
#
# Bulk Modulus (GPa) = 43.62054 68.54144 56.08099
# Shear Modulus (GPa) = 37.38395 43.90494 40.64444
#
# Velocity S-wave (km/s) = 3.75953 4.07425 3.92005
# Velocity P-wave (km/s) = 5.94452 6.93157 6.45694
#
# Compressibility (1/GPa) = 0.02292498
#
# Stress axis : x y z
#
# Youngs Moduli (GPa) = 46.89511 119.45730 130.18879
#
# Poissons Ratio (x) = -0.19352 0.74740
# Poissons Ratio (y) = -0.07597 0.40421
# Poissons Ratio (z) = 0.26922 0.37089
#
# Static dielectric constant tensor:
#      x y z
#    x 2.139480 0.000000 0.000000 
#    y 0.000000 2.026240 0.000000 
#    z 0.000000 0.000000 2.135610 
# 
# From -- ./inp_files/6851.got.cif
#   From: 2010.05.17/outbox.cif.g08.bks.cpg/sg60_4_cif.got.tgz:6851.got - 2010.06.03 14:59:27.
