data_PCOD9454132
_publ_section_title
;
Structure prediction by ZEFSAII (Michael W. Deem and Ramdas Pophale) SiO2 
 PCOD9454132
Probable space group: P B C N
;
_chemical_formula_sum "Si O2"
_cell_formula_units_Z 56
_cell_length_a 10.510017
_cell_length_b 14.373424
_cell_length_c 17.539562
_cell_angle_alpha 90.000000
_cell_angle_beta 90.000000
_cell_angle_gamma 90.000000
_cell_volume 2649.612716
_symmetry_space_group_name_H-M "P B C N"
_symmetry_group_IT_number 60
_symmetry_cell_setting 'orthorhombic'
loop_
_space_group_symop_operation_xyz
x,y,z
1/2-x,1/2-y,1/2+z
1/2+x,1/2-y,-z
-x,y,1/2-z
-x,-y,-z
1/2+x,1/2+y,1/2-z
1/2-x,1/2+y,z
x,-y,1/2+z
loop_
_atom_site_type_symbol
_atom_site_label
_atom_site_fract_x
_atom_site_fract_y
_atom_site_fract_z
Si Si1 0.301090 0.586063 0.462119
Si Si2 0.978669 0.238486 0.052591
Si Si3 0.369540 0.334879 0.269435
Si Si4 0.196634 0.594945 0.903776
Si Si5 0.442072 0.187709 0.393129
Si Si6 0.457063 0.986755 0.663234
Si Si7 0.288236 0.846268 0.125140
O O1 0.429969 0.634235 0.432383
O O2 0.280112 0.475218 0.455480
O O3 0.184840 0.630183 0.413925
O O4 0.281233 0.625325 0.547236
O O5 0.856132 0.307741 0.062811
O O6 0.093257 0.278622 0.104535
O O7 0.025476 0.250089 0.965917
O O8 0.500000 0.388634 0.250000
O O9 0.274771 0.387156 0.326626
O O10 0.414177 0.246997 0.318915
O O11 0.300371 0.307327 0.191425
O O12 0.067056 0.541992 0.882081
O O13 0.552059 0.112215 0.377835
O O14 0.500000 0.972991 0.750000
O O15 0.339742 0.055766 0.658074
#
# Coordination Sequence:
#
# PCOD9454132 Si02
#       7
#     8   8   8   8   8   8   8
#     4  10  20  39  63  92 122 164 212 257 313 381
#     4  10  20  40  66  90 126 167 217 264 309 392
#     4  12  23  40  60  92 134 168 200 272 333 376
#     4  10  21  38  63  89 125 165 209 260 316 377
#     4  10  21  36  61  92 123 163 209 260 318 373
#     4  10  18  35  61  91 117 155 214 265 304 377
#     4  10  22  38  65  95 123 164 218 264 326 379
#
# _framework density 21.135164
#
# number of rings (size 3 to 8) (size 9 to 14) (size 15 to 20)
#    0.000    1.714    2.857    2.143    0.000    3.429 
#    0.000    5.714    3.143    0.000    0.000    0.000 
#    0.000    0.000    0.000    0.000    0.000    0.000 
#
# Total GULP energy -312570.271113 kJ/mol
# GULP energy per Si atom -5581.611984 kJ/mol
# Density = 2.108706 g / cm^3
# Si number density = 21.135164 Si / 1000 Ang^3
#
#
#
# Elastic Constant Matrix: (Units=GPa)
#
#
# Indices 1 2 3 4 5 6 
#
# 1 67.3086 23.3541 29.5456 0.0000 0.0000 0.0000
# 2 23.3541 47.8275 15.4183 0.0000 0.0000 0.0000
# 3 29.5456 15.4183 92.1439 0.0000 0.0000 0.0000
# 4 0.0000 0.0000 0.0000 15.8284 0.0000 0.0000
# 5 0.0000 0.0000 0.0000 0.0000 23.5340 0.0000
# 6 0.0000 0.0000 0.0000 0.0000 0.0000 6.6078
#
#
#
# Elastic Compliance Matrix: (Units=1/GPa)
#
#
# Indices 1 2 3 4 5 6 
#
# 1 0.019863 -0.008082 -0.005017 0.000000 0.000000 0.000000
# 2 -0.008082 0.025389 -0.001657 0.000000 0.000000 0.000000
# 3 -0.005017 -0.001657 0.012738 0.000000 0.000000 0.000000
# 4 0.000000 0.000000 0.000000 0.063178 0.000000 0.000000
# 5 0.000000 0.000000 0.000000 0.000000 0.042492 0.000000
# 6 0.000000 0.000000 0.000000 0.000000 0.000000 0.151337
#
#
# Mechanical properties :
#
#
# Convention : Reuss Voigt Hill
#
# Bulk Modulus (GPa) = 35.11285 38.21291 36.66288
# Shear Modulus (GPa) = 14.12425 18.45817 16.29121
#
# Velocity S-wave (km/s) = 2.58792 2.95844 2.77936
# Velocity P-wave (km/s) = 5.05760 5.45796 5.26159
#
# Compressibility (1/GPa) = 0.02847960
#
# Stress axis : x y z
#
# Youngs Moduli (GPa) = 50.34409 39.38712 78.50258
#
# Poissons Ratio (x) = 0.31833 0.39383
# Poissons Ratio (y) = 0.40688 0.13007
# Poissons Ratio (z) = 0.25256 0.06526
#
# Static dielectric constant tensor:
#      x y z
#    x 1.787030 0.000000 0.000000 
#    y 0.000000 1.796340 0.000000 
#    z 0.000000 0.000000 1.734290 
# 
# From -- ./inp_files/16170.got.cif
#   From: 2010.05.17/outbox.cif.g08.bks.cpg/sg60_9_cif.got.tgz:16170.got - 2010.06.03 14:59:27.
