data_PCOD9454483
_publ_section_title
;
Structure prediction by ZEFSAII (Michael W. Deem and Ramdas Pophale) SiO2 
 PCOD9454483
Probable space group: P B C N
;
_chemical_formula_sum "Si O2"
_cell_formula_units_Z 44
_cell_length_a 10.613753
_cell_length_b 16.845807
_cell_length_c 10.674323
_cell_angle_alpha 90.000000
_cell_angle_beta 90.000000
_cell_angle_gamma 90.000000
_cell_volume 1908.539433
_symmetry_space_group_name_H-M "P B C N"
_symmetry_group_IT_number 60
_symmetry_cell_setting 'orthorhombic'
loop_
_space_group_symop_operation_xyz
x,y,z
1/2-x,1/2-y,1/2+z
1/2+x,1/2-y,-z
-x,y,1/2-z
-x,-y,-z
1/2+x,1/2+y,1/2-z
1/2-x,1/2+y,z
x,-y,1/2+z
loop_
_atom_site_type_symbol
_atom_site_label
_atom_site_fract_x
_atom_site_fract_y
_atom_site_fract_z
Si Si1 0.403575 0.861030 0.493361
Si Si2 0.386087 0.329554 0.993192
Si Si3 0.000000 0.080911 0.250000
Si Si4 0.000000 0.442261 0.250000
Si Si5 0.640526 0.830904 0.638184
Si Si6 0.263517 0.049194 0.168276
Si Si7 0.000000 0.815708 0.250000
O O1 0.388629 0.766547 0.490710
O O2 0.458365 0.888728 0.364186
O O3 0.512407 0.873724 0.597997
O O4 0.287436 0.918524 0.528256
O O5 0.460415 0.366956 0.873815
O O6 0.237845 0.344515 0.974307
O O7 0.437755 0.356099 0.128597
O O8 0.878594 0.030396 0.293338
O O9 0.874073 0.490040 0.291477
O O10 0.709394 0.870395 0.754043
O O11 0.602945 0.742792 0.682719
#
# Coordination Sequence:
#
# PCOD9454483 Si02
#       7
#     8   8   4   4   8   8   4
#     4  11  22  38  64  97 120 166 216 273 316 384
#     4  10  22  37  65  95 134 163 208 268 341 402
#     4  10  25  42  66  92 133 176 214 260 354 402
#     4  12  24  40  68  92 123 166 239 268 296 382
#     4  10  19  37  62  87 128 165 200 257 332 387
#     4  11  21  42  62  89 123 178 207 266 321 385
#     4  10  19  34  56  94 128 168 197 260 322 396
#
# _framework density 23.054279000000001
#
# number of rings (size 3 to 8) (size 9 to 14) (size 15 to 20)
#    0.000    1.455    5.455    1.091    5.091    1.455 
#    0.000    0.909    0.000    1.091    0.000    0.000 
#    0.000    0.000    0.000    0.000    0.000    0.000 
#
# Total GULP energy -245459.821721 kJ/mol
# GULP energy per Si atom -5578.632312 kJ/mol
# Density = 2.300181 g / cm^3
# Si number density = 23.054279 Si / 1000 Ang^3
#
#
#
# Elastic Constant Matrix: (Units=GPa)
#
#
# Indices 1 2 3 4 5 6 
#
# 1 132.5385 25.7218 42.1586 0.0000 0.0000 0.0000
# 2 25.7218 45.7676 12.9029 0.0000 0.0000 0.0000
# 3 42.1586 12.9029 139.1750 0.0000 0.0000 0.0000
# 4 0.0000 0.0000 0.0000 13.6349 0.0000 0.0000
# 5 0.0000 0.0000 0.0000 0.0000 38.8632 0.0000
# 6 0.0000 0.0000 0.0000 0.0000 0.0000 -3.4605
#
#
#
# Elastic Compliance Matrix: (Units=1/GPa)
#
#
# Indices 1 2 3 4 5 6 
#
# 1 0.009167 -0.004486 -0.002361 0.000000 0.000000 0.000000
# 2 -0.004486 0.024631 -0.000925 0.000000 0.000000 0.000000
# 3 -0.002361 -0.000925 0.007986 0.000000 0.000000 0.000000
# 4 0.000000 0.000000 0.000000 0.073341 0.000000 0.000000
# 5 0.000000 0.000000 0.000000 0.000000 0.025731 0.000000
# 6 0.000000 0.000000 0.000000 0.000000 0.000000 -0.288976
#
#
# Mechanical properties :
#
#
# Convention : Reuss Voigt Hill
#
# Bulk Modulus (GPa) = 38.10849 53.22751 45.66800
# Shear Modulus (GPa) = -40.37798 25.58738 -7.39530
#
# Velocity S-wave (km/s) = -4.18955 3.33509 -1.79297
# Velocity P-wave (km/s) = 2.61483 6.16186 3.94532
#
# Compressibility (1/GPa) = 0.02624087
#
# Stress axis : x y z
#
# Youngs Moduli (GPa) = 109.09245 40.59857 125.21833
#
# Poissons Ratio (x) = 0.18213 0.29562
# Poissons Ratio (y) = 0.48940 0.11578
# Poissons Ratio (z) = 0.25755 0.03754
#
# Static dielectric constant tensor:
#      x y z
#    x 2.027110 0.000000 0.000000 
#    y 0.000000 1.851000 0.000000 
#    z 0.000000 0.000000 1.790130 
# 
# From -- ./inp_files/10981.got.cif
#   From: 2010.05.17/outbox.cif.g08.bks.cpg/sg60_6_cif.got.tgz:10981.got - 2010.06.03 14:59:27.
