data_PCOD9454719
_publ_section_title
;
Structure prediction by ZEFSAII (Michael W. Deem and Ramdas Pophale) SiO2 
 PCOD9454719
Probable space group: P B C N
;
_chemical_formula_sum "Si O2"
_cell_formula_units_Z 48
_cell_length_a 9.147503
_cell_length_b 26.257147
_cell_length_c 8.342111
_cell_angle_alpha 90.000000
_cell_angle_beta 90.000000
_cell_angle_gamma 90.000000
_cell_volume 2003.669376
_symmetry_space_group_name_H-M "P B C N"
_symmetry_group_IT_number 60
_symmetry_cell_setting 'orthorhombic'
loop_
_space_group_symop_operation_xyz
x,y,z
1/2-x,1/2-y,1/2+z
1/2+x,1/2-y,-z
-x,y,1/2-z
-x,-y,-z
1/2+x,1/2+y,1/2-z
1/2-x,1/2+y,z
x,-y,1/2+z
loop_
_atom_site_type_symbol
_atom_site_label
_atom_site_fract_x
_atom_site_fract_y
_atom_site_fract_z
Si Si1 0.634313 0.046623 0.871090
Si Si2 0.809436 0.010348 0.605982
Si Si3 0.788448 0.177123 0.540206
Si Si4 0.371267 0.417039 0.656891
Si Si5 0.144701 0.343728 0.138670
Si Si6 0.000826 0.738371 0.059728
O O1 0.500000 0.039844 0.750000
O O2 0.772724 0.047271 0.751735
O O3 0.636468 0.101930 0.948724
O O4 0.669670 0.001315 0.991658
O O5 0.911626 0.043239 0.487554
O O6 0.827665 0.957034 0.701507
O O7 0.775499 0.126068 0.431304
O O8 0.770947 0.164483 0.729946
O O9 0.655102 0.215842 0.500634
O O10 0.942102 0.205818 0.511244
O O11 0.500000 0.388481 0.750000
O O12 0.000000 0.344404 0.250000
O O13 0.121454 0.299339 0.013679
O O14 0.000000 0.735593 0.250000
#
# Coordination Sequence:
#
# PCOD9454719 Si02
#       6
#     8   8   8   8   8   8
#     4  10  19  37  63  97 138 182 226 287 349 419
#     4  10  22  40  65  98 141 182 238 284 348 419
#     4  11  24  47  69 104 139 188 230 298 359 424
#     4  11  24  44  69 103 141 188 239 291 350 421
#     4   9  20  40  64  89 137 178 222 286 350 415
#     4  11  25  44  73 100 141 177 240 293 358 427
#
# _framework density 23.956046000000001
#
# number of rings (size 3 to 8) (size 9 to 14) (size 15 to 20)
#    0.000    1.667    1.667    2.000    2.333    3.333 
#    3.000    0.833    0.000    0.000    0.000    0.000 
#    0.000    0.000    0.000    0.000    0.000    0.000 
#
# Total GULP energy -267214.637403 kJ/mol
# GULP energy per Si atom -5566.971613 kJ/mol
# Density = 2.390152 g / cm^3
# Si number density = 23.956046 Si / 1000 Ang^3
#
#
#
# Elastic Constant Matrix: (Units=GPa)
#
#
# Indices 1 2 3 4 5 6 
#
# 1 45.9986 35.2741 26.6918 0.0000 0.0000 0.0000
# 2 35.2741 122.0101 35.1456 0.0000 0.0000 0.0000
# 3 26.6918 35.1456 81.0359 0.0000 0.0000 0.0000
# 4 0.0000 0.0000 0.0000 37.1213 0.0000 0.0000
# 5 0.0000 0.0000 0.0000 0.0000 17.7842 0.0000
# 6 0.0000 0.0000 0.0000 0.0000 0.0000 18.8613
#
#
#
# Elastic Compliance Matrix: (Units=1/GPa)
#
#
# Indices 1 2 3 4 5 6 
#
# 1 0.031302 -0.006948 -0.007297 0.000000 0.000000 0.000000
# 2 -0.006948 0.010908 -0.002443 0.000000 0.000000 0.000000
# 3 -0.007297 -0.002443 0.015803 0.000000 0.000000 0.000000
# 4 0.000000 0.000000 0.000000 0.026939 0.000000 0.000000
# 5 0.000000 0.000000 0.000000 0.000000 0.056230 0.000000
# 6 0.000000 0.000000 0.000000 0.000000 0.000000 0.053019
#
#
# Mechanical properties :
#
#
# Convention : Reuss Voigt Hill
#
# Bulk Modulus (GPa) = 40.58649 49.25195 44.91922
# Shear Modulus (GPa) = 21.20552 24.88224 23.04388
#
# Velocity S-wave (km/s) = 2.97843 3.22632 3.10485
# Velocity P-wave (km/s) = 5.36721 5.87221 5.62538
#
# Compressibility (1/GPa) = 0.02463874
#
# Stress axis : x y z
#
# Youngs Moduli (GPa) = 31.94688 91.67365 63.27896
#
# Poissons Ratio (x) = 0.63692 0.46175
# Poissons Ratio (y) = 0.22196 0.15456
# Poissons Ratio (z) = 0.23312 0.22391
#
# Static dielectric constant tensor:
#      x y z
#    x 2.043210 0.000000 0.000000 
#    y 0.000000 1.912770 0.000000 
#    z 0.000000 0.000000 1.881690 
# 
# From -- ./inp_files/5153.got.cif
#   From: 2010.05.17/outbox.cif.g08.bks.cpg/sg60_3_cif.got.tgz:5153.got - 2010.06.03 14:59:27.
