data_PCOD9454586
_publ_section_title
;
Structure prediction by ZEFSAII (Michael W. Deem and Ramdas Pophale) SiO2 
 PCOD9454586
Probable space group: P B C N
;
_chemical_formula_sum "Si O2"
_cell_formula_units_Z 56
_cell_length_a 28.571367
_cell_length_b 5.496028
_cell_length_c 14.488655
_cell_angle_alpha 90.000000
_cell_angle_beta 90.000000
_cell_angle_gamma 90.000000
_cell_volume 2275.139485
_symmetry_space_group_name_H-M "P B C N"
_symmetry_group_IT_number 60
_symmetry_cell_setting 'orthorhombic'
loop_
_space_group_symop_operation_xyz
x,y,z
1/2-x,1/2-y,1/2+z
1/2+x,1/2-y,-z
-x,y,1/2-z
-x,-y,-z
1/2+x,1/2+y,1/2-z
1/2-x,1/2+y,z
x,-y,1/2+z
loop_
_atom_site_type_symbol
_atom_site_label
_atom_site_fract_x
_atom_site_fract_y
_atom_site_fract_z
Si Si1 0.432708 0.412789 0.438777
Si Si2 0.774219 0.807804 0.021617
Si Si3 0.133379 0.567792 0.523262
Si Si4 0.579607 0.958712 0.297460
Si Si5 0.261611 0.232799 0.769763
Si Si6 0.137919 0.250719 0.356487
Si Si7 0.536624 0.445515 0.365285
O O1 0.416030 0.156731 0.479801
O O2 0.391635 0.509788 0.374005
O O3 0.481729 0.432463 0.387430
O O4 0.438454 0.568327 0.533699
O O5 0.746789 0.564695 0.991925
O O6 0.827192 0.773939 0.987828
O O7 0.768585 0.793556 0.134299
O O8 0.121660 0.517636 0.628298
O O9 0.150996 0.356792 0.456242
O O10 0.602830 0.925836 0.198570
O O11 0.551847 0.706125 0.321543
O O12 0.550747 0.206059 0.308839
O O13 0.244231 0.475051 0.720754
O O14 0.315238 0.269337 0.798303
#
# Coordination Sequence:
#
# PCOD9454586 Si02
#       7
#     8   8   8   8   8   8   8
#     4  10  23  41  73  93 125 187 218 275 340 397
#     4  10  19  35  62  91 123 164 211 267 318 387
#     4  11  23  42  69  94 132 173 224 265 338 393
#     4  11  27  44  64 101 136 172 218 287 319 405
#     4  10  20  36  61  91 126 165 214 269 316 393
#     4  12  24  41  69  97 132 180 222 267 345 395
#     4  10  24  47  65  95 139 164 230 279 331 391
#
# _framework density 24.613876000000001
#
# number of rings (size 3 to 8) (size 9 to 14) (size 15 to 20)
#    0.000    1.429    4.286    1.714    4.000    2.286 
#    0.000    1.429    0.000    0.000    0.000    0.000 
#    0.000    0.000    0.000    0.000    0.000    0.000 
#
# Total GULP energy -313313.793920 kJ/mol
# GULP energy per Si atom -5594.889177 kJ/mol
# Density = 2.455785 g / cm^3
# Si number density = 24.613876 Si / 1000 Ang^3
#
#
#
# Elastic Constant Matrix: (Units=GPa)
#
#
# Indices 1 2 3 4 5 6 
#
# 1 84.5324 30.8823 -5.5863 0.0000 0.0000 0.0000
# 2 30.8823 165.7251 17.1903 0.0000 0.0000 0.0000
# 3 -5.5863 17.1903 72.4674 0.0000 0.0000 0.0000
# 4 0.0000 0.0000 0.0000 17.8115 0.0000 0.0000
# 5 0.0000 0.0000 0.0000 0.0000 10.1285 0.0000
# 6 0.0000 0.0000 0.0000 0.0000 0.0000 29.4512
#
#
#
# Elastic Compliance Matrix: (Units=1/GPa)
#
#
# Indices 1 2 3 4 5 6 
#
# 1 0.012873 -0.002565 0.001601 0.000000 0.000000 0.000000
# 2 -0.002565 0.006697 -0.001786 0.000000 0.000000 0.000000
# 3 0.001601 -0.001786 0.014346 0.000000 0.000000 0.000000
# 4 0.000000 0.000000 0.000000 0.056143 0.000000 0.000000
# 5 0.000000 0.000000 0.000000 0.000000 0.098731 0.000000
# 6 0.000000 0.000000 0.000000 0.000000 0.000000 0.033954
#
#
# Mechanical properties :
#
#
# Convention : Reuss Voigt Hill
#
# Bulk Modulus (GPa) = 35.19222 45.29971 40.24597
# Shear Modulus (GPa) = 21.03330 30.16083 25.59706
#
# Velocity S-wave (km/s) = 2.92641 3.50431 3.22832
# Velocity P-wave (km/s) = 5.07417 5.90065 5.50295
#
# Compressibility (1/GPa) = 0.02841537
#
# Stress axis : x y z
#
# Youngs Moduli (GPa) = 77.68459 149.31328 69.70363
#
# Poissons Ratio (x) = 0.38296 -0.11158
# Poissons Ratio (y) = 0.19924 0.12452
# Poissons Ratio (z) = -0.12435 0.26673
#
# Static dielectric constant tensor:
#      x y z
#    x 1.933670 0.000000 0.000000 
#    y 0.000000 1.990490 0.000000 
#    z 0.000000 0.000000 1.937590 
# 
# From -- ./inp_files/18167.got.cif
#   From: 2010.05.17/outbox.cif.g08.bks.cpg/sg60_10_cif.got.tgz:18167.got - 2010.06.03 14:59:27.
