data_PCOD9454675
_publ_section_title
;
Structure prediction by ZEFSAII (Michael W. Deem and Ramdas Pophale) SiO2 
 PCOD9454675
Probable space group: P B C N
;
_chemical_formula_sum "Si O2"
_cell_formula_units_Z 56
_cell_length_a 28.024109
_cell_length_b 5.512823
_cell_length_c 13.800144
_cell_angle_alpha 90.000000
_cell_angle_beta 90.000000
_cell_angle_gamma 90.000000
_cell_volume 2132.011193
_symmetry_space_group_name_H-M "P B C N"
_symmetry_group_IT_number 60
_symmetry_cell_setting 'orthorhombic'
loop_
_space_group_symop_operation_xyz
x,y,z
1/2-x,1/2-y,1/2+z
1/2+x,1/2-y,-z
-x,y,1/2-z
-x,-y,-z
1/2+x,1/2+y,1/2-z
1/2-x,1/2+y,z
x,-y,1/2+z
loop_
_atom_site_type_symbol
_atom_site_label
_atom_site_fract_x
_atom_site_fract_y
_atom_site_fract_z
Si Si1 0.433489 0.967896 0.725588
Si Si2 0.430603 0.573982 0.038939
Si Si3 0.743282 0.386833 0.393290
Si Si4 0.777123 0.391977 0.174890
Si Si5 0.877531 0.198983 0.133516
Si Si6 0.511271 0.211303 0.114316
Si Si7 0.862459 0.087634 0.815462
O O1 0.455335 0.748751 0.792770
O O2 0.477231 0.008580 0.651563
O O3 0.389209 0.842892 0.673859
O O4 0.417966 0.160197 0.805208
O O5 0.474267 0.420419 0.084417
O O6 0.393777 0.612695 0.126346
O O7 0.400777 0.405034 0.963490
O O8 0.451884 0.792101 0.974613
O O9 0.751083 0.636099 0.448162
O O10 0.776178 0.388011 0.295213
O O11 0.689399 0.396614 0.357615
O O12 0.752267 0.647180 0.151139
O O13 0.830295 0.367164 0.130717
O O14 0.859780 0.982746 0.203381
#
# Coordination Sequence:
#
# PCOD9454675 Si02
#       7
#     8   8   8   8   8   8   8
#     4  10  21  40  67  93 126 183 222 283 344 421
#     4  10  23  43  66  96 134 181 223 295 346 417
#     4  10  19  36  64  95 132 179 224 283 350 422
#     4  10  20  37  68  98 134 181 229 292 350 421
#     4  12  23  40  69  98 130 182 235 276 362 421
#     4   9  20  45  60  90 137 167 226 284 342 407
#     4  11  22  41  66  95 134 173 228 281 353 413
#
# _framework density 26.266276999999999
#
# number of rings (size 3 to 8) (size 9 to 14) (size 15 to 20)
#    0.000    1.714    4.286    1.714    0.000    0.571 
#   20.571    1.429    0.000    0.000    0.000    0.000 
#    0.000    0.000    0.000    0.000    0.000    0.000 
#
# Total GULP energy -313033.094163 kJ/mol
# GULP energy per Si atom -5589.876681 kJ/mol
# Density = 2.620649 g / cm^3
# Si number density = 26.266277 Si / 1000 Ang^3
#
#
#
# Elastic Constant Matrix: (Units=GPa)
#
#
# Indices 1 2 3 4 5 6 
#
# 1 115.9135 22.4804 22.6110 0.0000 0.0000 0.0000
# 2 22.4804 123.7002 27.8589 0.0000 0.0000 0.0000
# 3 22.6110 27.8589 123.4618 0.0000 0.0000 0.0000
# 4 0.0000 0.0000 0.0000 41.5372 0.0000 0.0000
# 5 0.0000 0.0000 0.0000 0.0000 14.0214 0.0000
# 6 0.0000 0.0000 0.0000 0.0000 0.0000 19.1767
#
#
#
# Elastic Compliance Matrix: (Units=1/GPa)
#
#
# Indices 1 2 3 4 5 6 
#
# 1 0.009157 -0.001355 -0.001371 0.000000 0.000000 0.000000
# 2 -0.001355 0.008717 -0.001719 0.000000 0.000000 0.000000
# 3 -0.001371 -0.001719 0.008739 0.000000 0.000000 0.000000
# 4 0.000000 0.000000 0.000000 0.024075 0.000000 0.000000
# 5 0.000000 0.000000 0.000000 0.000000 0.071320 0.000000
# 6 0.000000 0.000000 0.000000 0.000000 0.000000 0.052147
#
#
# Mechanical properties :
#
#
# Convention : Reuss Voigt Hill
#
# Bulk Modulus (GPa) = 56.42513 56.55289 56.48901
# Shear Modulus (GPa) = 26.46156 34.28874 30.37515
#
# Velocity S-wave (km/s) = 3.17745 3.61699 3.40432
# Velocity P-wave (km/s) = 5.91525 6.24667 6.08322
#
# Compressibility (1/GPa) = 0.01772260
#
# Stress axis : x y z
#
# Youngs Moduli (GPa) = 109.20035 114.71196 114.43392
#
# Poissons Ratio (x) = 0.15548 0.15692
# Poissons Ratio (y) = 0.14801 0.19670
# Poissons Ratio (z) = 0.14974 0.19717
#
# Static dielectric constant tensor:
#      x y z
#    x 2.060310 0.000000 0.000000 
#    y 0.000000 2.213090 0.000000 
#    z 0.000000 0.000000 2.099620 
# 
# From -- ./inp_files/18168.got.cif
#   From: 2010.05.17/outbox.cif.g08.bks.cpg/sg60_10_cif.got.tgz:18168.got - 2010.06.03 14:59:27.
