data_PCOD9454655
_publ_section_title
;
Structure prediction by ZEFSAII (Michael W. Deem and Ramdas Pophale) SiO2 
 PCOD9454655
Probable space group: P B C N
;
_chemical_formula_sum "Si O2"
_cell_formula_units_Z 52
_cell_length_a 19.524129
_cell_length_b 25.229751
_cell_length_c 5.351345
_cell_angle_alpha 90.000000
_cell_angle_beta 90.000000
_cell_angle_gamma 90.000000
_cell_volume 2636.013218
_symmetry_space_group_name_H-M "P B C N"
_symmetry_group_IT_number 60
_symmetry_cell_setting 'orthorhombic'
loop_
_space_group_symop_operation_xyz
x,y,z
1/2-x,1/2-y,1/2+z
1/2+x,1/2-y,-z
-x,y,1/2-z
-x,-y,-z
1/2+x,1/2+y,1/2-z
1/2-x,1/2+y,z
x,-y,1/2+z
loop_
_atom_site_type_symbol
_atom_site_label
_atom_site_fract_x
_atom_site_fract_y
_atom_site_fract_z
Si Si1 0.500000 0.464262 0.250000
Si Si2 0.386658 0.897636 0.589051
Si Si3 0.348618 0.463541 0.183574
Si Si4 0.000000 0.466444 0.750000
Si Si5 0.000000 0.355971 0.250000
Si Si6 0.877063 0.686585 0.029286
Si Si7 0.734731 0.119675 0.696995
Si Si8 0.282113 0.726670 0.031384
O O1 0.500000 0.500000 0.500000
O O2 0.424939 0.437832 0.222413
O O3 0.429132 0.933002 0.779156
O O4 0.444037 0.891851 0.380552
O O5 0.374420 0.838748 0.696781
O O6 0.314651 0.915295 0.481660
O O7 0.342736 0.502351 0.426986
O O8 0.290238 0.418561 0.181186
O O9 0.000000 0.500000 0.500000
O O10 0.953837 0.321918 0.434987
O O11 0.856166 0.747197 0.003315
O O12 0.819862 0.651225 0.876258
O O13 0.772407 0.165695 0.538938
O O14 0.240925 0.759182 0.813244
#
# Coordination Sequence:
#
# PCOD9454655 Si02
#       8
#     4   8   8   4   4   8   8   8
#     4   8  16  36  60  80 106 149 189 224 282 368
#     4  11  21  39  59  80 118 165 208 252 309 365
#     4  10  22  38  62  89 118 156 199 242 302 367
#     4  12  27  40  56  81 118 165 218 263 298 346
#     4  10  19  36  62  85 110 166 215 239 298 370
#     4  10  20  36  62  84 119 162 206 250 306 371
#     4  10  23  36  61  90 124 154 202 258 307 367
#     4  10  20  37  59  89 115 154 194 241 304 369
#
# _framework density 19.726759999999999
#
# number of rings (size 3 to 8) (size 9 to 14) (size 15 to 20)
#    0.000    1.846    3.077    0.462    4.308    1.231 
#    0.000    0.000    3.385    3.692    0.000    0.000 
#    0.000    0.000    0.000    0.000    0.000    0.000 
#
# Total GULP energy -289483.766103 kJ/mol
# GULP energy per Si atom -5566.995502 kJ/mol
# Density = 1.968186 g / cm^3
# Si number density = 19.726760 Si / 1000 Ang^3
#
#
#
# Elastic Constant Matrix: (Units=GPa)
#
#
# Indices 1 2 3 4 5 6 
#
# 1 106.0852 35.2819 6.5307 0.0000 0.0000 0.0000
# 2 35.2819 50.5209 3.9574 0.0000 0.0000 0.0000
# 3 6.5307 3.9574 75.1615 0.0000 0.0000 0.0000
# 4 0.0000 0.0000 0.0000 19.6866 0.0000 0.0000
# 5 0.0000 0.0000 0.0000 0.0000 31.1151 0.0000
# 6 0.0000 0.0000 0.0000 0.0000 0.0000 22.0772
#
#
#
# Elastic Compliance Matrix: (Units=1/GPa)
#
#
# Indices 1 2 3 4 5 6 
#
# 1 0.012307 -0.008546 -0.000619 0.000000 0.000000 0.000000
# 2 -0.008546 0.025810 -0.000616 0.000000 0.000000 0.000000
# 3 -0.000619 -0.000616 0.013391 0.000000 0.000000 0.000000
# 4 0.000000 0.000000 0.000000 0.050796 0.000000 0.000000
# 5 0.000000 0.000000 0.000000 0.000000 0.032139 0.000000
# 6 0.000000 0.000000 0.000000 0.000000 0.000000 0.045296
#
#
# Mechanical properties :
#
#
# Convention : Reuss Voigt Hill
#
# Bulk Modulus (GPa) = 31.30439 35.92306 33.61373
# Shear Modulus (GPa) = 23.81517 26.97561 25.39539
#
# Velocity S-wave (km/s) = 3.47832 3.70193 3.59187
# Velocity P-wave (km/s) = 5.65995 6.04337 5.85480
#
# Compressibility (1/GPa) = 0.03194440
#
# Stress axis : x y z
#
# Youngs Moduli (GPa) = 81.25617 38.74423 74.67725
#
# Poissons Ratio (x) = 0.33111 0.04625
# Poissons Ratio (y) = 0.69442 0.04603
# Poissons Ratio (z) = 0.05033 0.02388
#
# Static dielectric constant tensor:
#      x y z
#    x 1.883120 0.000000 0.000000 
#    y 0.000000 1.728820 0.000000 
#    z 0.000000 0.000000 1.812050 
# 
# From -- ./inp_files/1840.got.cif
#   From: 2010.05.17/outbox.cif.g08.bks.cpg/sg60_1_cif.got.tgz:1840.got - 2010.06.03 14:59:27.
