data_PCOD9454753
_publ_section_title
;
Structure prediction by ZEFSAII (Michael W. Deem and Ramdas Pophale) SiO2 
 PCOD9454753
Probable space group: P B C N
;
_chemical_formula_sum "Si O2"
_cell_formula_units_Z 64
_cell_length_a 10.873467
_cell_length_b 13.113990
_cell_length_c 22.115234
_cell_angle_alpha 90.000000
_cell_angle_beta 90.000000
_cell_angle_gamma 90.000000
_cell_volume 3153.511564
_symmetry_space_group_name_H-M "P B C N"
_symmetry_group_IT_number 60
_symmetry_cell_setting 'orthorhombic'
loop_
_space_group_symop_operation_xyz
x,y,z
1/2-x,1/2-y,1/2+z
1/2+x,1/2-y,-z
-x,y,1/2-z
-x,-y,-z
1/2+x,1/2+y,1/2-z
1/2-x,1/2+y,z
x,-y,1/2+z
loop_
_atom_site_type_symbol
_atom_site_label
_atom_site_fract_x
_atom_site_fract_y
_atom_site_fract_z
Si Si1 0.052407 0.925015 0.582266
Si Si2 0.148088 0.642411 0.514880
Si Si3 0.571144 0.973186 0.313099
Si Si4 0.810127 0.889437 0.363026
Si Si5 0.306716 0.518266 0.964214
Si Si6 0.478362 0.787639 0.392126
Si Si7 0.202946 0.222218 0.901316
Si Si8 0.024153 0.704044 0.178160
O O1 0.144772 0.929507 0.525593
O O2 0.057617 0.815931 0.614845
O O3 0.090177 0.023084 0.621551
O O4 0.915738 0.940300 0.554420
O O5 0.235745 0.635073 0.574464
O O6 0.179573 0.538373 0.479264
O O7 0.184271 0.727234 0.466756
O O8 0.014265 0.671203 0.540753
O O9 0.500000 0.975756 0.250000
O O10 0.713086 0.937682 0.315849
O O11 0.507268 0.883822 0.350932
O O12 0.561272 0.088074 0.338808
O O13 0.873735 0.787152 0.339820
O O14 0.300514 0.601256 0.911989
O O15 0.339895 0.754702 0.380670
O O16 0.098795 0.264090 0.857456
O O17 0.000000 0.707846 0.250000
#
# Coordination Sequence:
#
# PCOD9454753 Si02
#       8
#     8   8   8   8   8   8   8   8
#     4  10  19  38  60  99 133 177 231 259 339 421
#     4  10  23  38  60 103 135 180 216 277 354 410
#     4  10  26  48  70  96 134 171 234 306 347 406
#     4  10  23  44  74  94 136 183 227 281 347 431
#     4  10  20  37  59  90 142 181 212 279 330 415
#     4  11  24  39  65 102 137 181 225 278 353 409
#     4  12  24  39  67  96 143 175 226 292 335 425
#     4  11  27  49  70  99 132 189 237 284 350 406
#
# _framework density 20.294836
#
# number of rings (size 3 to 8) (size 9 to 14) (size 15 to 20)
#    0.000    1.500    3.750    0.000    8.750    1.500 
#    0.000    0.625    0.000    0.000    0.000    0.000 
#    0.000    0.000    0.000    0.000    0.000    0.000 
#
# Total GULP energy -357015.350970 kJ/mol
# GULP energy per Si atom -5578.364859 kJ/mol
# Density = 2.024864 g / cm^3
# Si number density = 20.294836 Si / 1000 Ang^3
#
#
#
# Elastic Constant Matrix: (Units=GPa)
#
#
# Indices 1 2 3 4 5 6 
#
# 1 80.7858 36.8530 21.1560 0.0000 0.0000 0.0000
# 2 36.8530 155.7307 46.4643 0.0000 0.0000 0.0000
# 3 21.1560 46.4643 50.3155 0.0000 0.0000 0.0000
# 4 0.0000 0.0000 0.0000 31.6542 0.0000 0.0000
# 5 0.0000 0.0000 0.0000 0.0000 20.0566 0.0000
# 6 0.0000 0.0000 0.0000 0.0000 0.0000 24.0723
#
#
#
# Elastic Compliance Matrix: (Units=1/GPa)
#
#
# Indices 1 2 3 4 5 6 
#
# 1 0.014444 -0.002217 -0.004026 0.000000 0.000000 0.000000
# 2 -0.002217 0.009204 -0.007567 0.000000 0.000000 0.000000
# 3 -0.004026 -0.007567 0.028555 0.000000 0.000000 0.000000
# 4 0.000000 0.000000 0.000000 0.031591 0.000000 0.000000
# 5 0.000000 0.000000 0.000000 0.000000 0.049859 0.000000
# 6 0.000000 0.000000 0.000000 0.000000 0.000000 0.041542
#
#
# Mechanical properties :
#
#
# Convention : Reuss Voigt Hill
#
# Bulk Modulus (GPa) = 40.67854 55.08651 47.88252
# Shear Modulus (GPa) = 23.69564 27.31387 25.50475
#
# Velocity S-wave (km/s) = 3.42068 3.67257 3.54886
# Velocity P-wave (km/s) = 5.97400 6.72203 6.35903
#
# Compressibility (1/GPa) = 0.02458299
#
# Stress axis : x y z
#
# Youngs Moduli (GPa) = 69.23260 108.65187 35.01973
#
# Poissons Ratio (x) = 0.24087 0.14099
# Poissons Ratio (y) = 0.15348 0.26500
# Poissons Ratio (z) = 0.27873 0.82218
#
# Static dielectric constant tensor:
#      x y z
#    x 1.755440 0.000000 0.000000 
#    y 0.000000 1.758920 0.000000 
#    z 0.000000 0.000000 1.713890 
# 
# From -- ./inp_files/24304.got.cif
#   From: 2010.05.17/outbox.cif.g08.bks.cpg/sg60_13_cif.got.tgz:24304.got - 2010.06.03 14:59:27.
