data_PCOD9454702
_publ_section_title
;
Structure prediction by ZEFSAII (Michael W. Deem and Ramdas Pophale) SiO2 
 PCOD9454702
Probable space group: P B C N
;
_chemical_formula_sum "Si O2"
_cell_formula_units_Z 48
_cell_length_a 6.925018
_cell_length_b 16.253185
_cell_length_c 18.198208
_cell_angle_alpha 90.000000
_cell_angle_beta 90.000000
_cell_angle_gamma 90.000000
_cell_volume 2048.273800
_symmetry_space_group_name_H-M "P B C N"
_symmetry_group_IT_number 60
_symmetry_cell_setting 'orthorhombic'
loop_
_space_group_symop_operation_xyz
x,y,z
1/2-x,1/2-y,1/2+z
1/2+x,1/2-y,-z
-x,y,1/2-z
-x,-y,-z
1/2+x,1/2+y,1/2-z
1/2-x,1/2+y,z
x,-y,1/2+z
loop_
_atom_site_type_symbol
_atom_site_label
_atom_site_fract_x
_atom_site_fract_y
_atom_site_fract_z
Si Si1 0.103286 0.229699 0.065143
Si Si2 0.929091 0.043834 0.424053
Si Si3 0.973583 0.630282 0.836470
Si Si4 0.947809 0.723595 0.099017
Si Si5 0.019234 0.105777 0.664286
Si Si6 0.004152 0.550985 0.159376
O O1 0.017543 0.138561 0.064242
O O2 0.980541 0.290453 0.115486
O O3 0.318164 0.221736 0.096499
O O4 0.118691 0.268433 0.984671
O O5 0.708094 0.049967 0.388783
O O6 0.030227 0.983910 0.366188
O O7 0.000000 0.000000 0.500000
O O8 0.746143 0.617072 0.852509
O O9 0.067522 0.542505 0.855888
O O10 0.000000 0.645910 0.750000
O O11 0.912307 0.812195 0.136982
O O12 0.897954 0.635280 0.134864
O O13 0.000000 0.103602 0.750000
O O14 0.000000 0.554405 0.250000
#
# Coordination Sequence:
#
# PCOD9454702 Si02
#       6
#     8   8   8   8   8   8
#     4  10  21  36  58  85 118 160 197 254 317 372
#     4  10  19  37  60  85 123 160 202 257 318 376
#     4   9  20  38  54  79 118 151 195 252 305 366
#     4  10  20  36  56  85 119 155 204 251 308 376
#     4  10  20  35  59  83 111 155 202 247 301 371
#     4   9  19  37  61  83 121 165 205 256 315 381
#
# _framework density 23.434369
#
# number of rings (size 3 to 8) (size 9 to 14) (size 15 to 20)
#    0.000    2.333    1.667    0.500    0.000    2.667 
#    0.000    5.000    0.000    0.000    0.000    0.000 
#    0.000    0.000    0.000    0.000    0.000    0.000 
#
# Total GULP energy -267342.155132 kJ/mol
# GULP energy per Si atom -5569.628232 kJ/mol
# Density = 2.338103 g / cm^3
# Si number density = 23.434369 Si / 1000 Ang^3
#
#
#
# Elastic Constant Matrix: (Units=GPa)
#
#
# Indices 1 2 3 4 5 6 
#
# 1 66.7219 -22.6901 -6.7671 0.0000 0.0000 0.0000
# 2 -22.6901 251.8057 77.0090 0.0000 0.0000 0.0000
# 3 -6.7671 77.0090 79.1825 0.0000 0.0000 0.0000
# 4 0.0000 0.0000 0.0000 56.0960 0.0000 0.0000
# 5 0.0000 0.0000 0.0000 0.0000 33.2494 0.0000
# 6 0.0000 0.0000 0.0000 0.0000 0.0000 -2.0679
#
#
#
# Elastic Compliance Matrix: (Units=1/GPa)
#
#
# Indices 1 2 3 4 5 6 
#
# 1 0.015462 0.001408 -0.000048 0.000000 0.000000 0.000000
# 2 0.001408 0.005781 -0.005502 0.000000 0.000000 0.000000
# 3 -0.000048 -0.005502 0.017976 0.000000 0.000000 0.000000
# 4 0.000000 0.000000 0.000000 0.017827 0.000000 0.000000
# 5 0.000000 0.000000 0.000000 0.000000 0.030076 0.000000
# 6 0.000000 0.000000 0.000000 0.000000 0.000000 -0.483588
#
#
# Mechanical properties :
#
#
# Convention : Reuss Voigt Hill
#
# Bulk Modulus (GPa) = 32.32640 54.75707 43.54174
# Shear Modulus (GPa) = -13.23196 40.79940 13.78372
#
# Velocity S-wave (km/s) = -2.37879 4.17706 2.42788
# Velocity P-wave (km/s) = 2.50590 6.83233 5.14588
#
# Compressibility (1/GPa) = 0.03093447
#
# Stress axis : x y z
#
# Youngs Moduli (GPa) = 64.67675 172.98728 55.63060
#
# Poissons Ratio (x) = -0.24354 0.00266
# Poissons Ratio (y) = -0.09106 0.30607
# Poissons Ratio (z) = 0.00310 0.95174
#
# Static dielectric constant tensor:
#      x y z
#    x 1.331180 0.000000 0.000000 
#    y 0.000000 1.969140 0.000000 
#    z 0.000000 0.000000 1.783130 
# 
# From -- ./inp_files/19340.got.cif
#   From: 2010.05.17/outbox.cif.g08.bks.cpg/sg60_10_cif.got.tgz:19340.got - 2010.06.03 14:59:27.
