data_PCOD9454279
_publ_section_title
;
Structure prediction by ZEFSAII (Michael W. Deem and Ramdas Pophale) SiO2 
 PCOD9454279
Probable space group: P B C N
;
_chemical_formula_sum "Si O2"
_cell_formula_units_Z 48
_cell_length_a 7.244560
_cell_length_b 17.051028
_cell_length_c 16.788994
_cell_angle_alpha 90.000000
_cell_angle_beta 90.000000
_cell_angle_gamma 90.000000
_cell_volume 2073.897343
_symmetry_space_group_name_H-M "P B C N"
_symmetry_group_IT_number 60
_symmetry_cell_setting 'orthorhombic'
loop_
_space_group_symop_operation_xyz
x,y,z
1/2-x,1/2-y,1/2+z
1/2+x,1/2-y,-z
-x,y,1/2-z
-x,-y,-z
1/2+x,1/2+y,1/2-z
1/2-x,1/2+y,z
x,-y,1/2+z
loop_
_atom_site_type_symbol
_atom_site_label
_atom_site_fract_x
_atom_site_fract_y
_atom_site_fract_z
Si Si1 0.786161 0.150517 0.247613
Si Si2 0.814941 0.910400 0.083536
Si Si3 0.291328 0.340296 0.578775
Si Si4 0.268767 0.654715 0.580861
Si Si5 0.723836 0.664065 0.745092
Si Si6 0.705191 0.594886 0.083158
O O1 0.714374 0.131388 0.335937
O O2 0.777333 0.244676 0.238773
O O3 0.702197 0.115456 0.167352
O O4 0.000000 0.124159 0.250000
O O5 0.723011 0.881402 0.165164
O O6 0.016590 0.870295 0.082556
O O7 0.838557 0.003230 0.082543
O O8 0.724951 0.882525 0.001052
O O9 0.253066 0.248021 0.573110
O O10 0.512634 0.356009 0.583073
O O11 0.201621 0.633260 0.669944
O O12 0.195373 0.616816 0.499377
O O13 0.500000 0.660970 0.750000
#
# Coordination Sequence:
#
# PCOD9454279 Si02
#       6
#     8   8   8   8   8   8
#     4   9  18  31  49  73  97 127 164 203 242 287
#     4  10  19  30  48  74  99 122 158 206 247 285
#     4   9  17  29  45  68  96 125 157 197 241 285
#     4   9  17  29  45  68  96 125 157 197 241 285
#     4   9  18  31  49  73  97 127 164 203 242 287
#     4  10  19  30  48  74  99 122 158 206 247 285
#
# _framework density 23.144829000000001
#
# number of rings (size 3 to 8) (size 9 to 14) (size 15 to 20)
#    0.000    2.667    0.000    3.000    0.000    7.333 
#    0.000    0.000    0.000    1.000    0.000  119.000 
#    0.000    0.000    0.000    0.000    0.000    0.000 
#
# Total GULP energy -267826.693264 kJ/mol
# GULP energy per Si atom -5579.722776 kJ/mol
# Density = 2.309215 g / cm^3
# Si number density = 23.144829 Si / 1000 Ang^3
#
#
#
# Elastic Constant Matrix: (Units=GPa)
#
#
# Indices 1 2 3 4 5 6 
#
# 1 92.4320 20.1909 5.2370 0.0000 0.0000 0.0000
# 2 20.1909 103.8669 79.1273 0.0000 0.0000 0.0000
# 3 5.2370 79.1273 286.0991 0.0000 0.0000 0.0000
# 4 0.0000 0.0000 0.0000 -185.3009 0.0000 0.0000
# 5 0.0000 0.0000 0.0000 0.0000 -39.5925 0.0000
# 6 0.0000 0.0000 0.0000 0.0000 0.0000 22.7889
#
#
#
# Elastic Compliance Matrix: (Units=1/GPa)
#
#
# Indices 1 2 3 4 5 6 
#
# 1 0.011357 -0.002596 0.000510 0.000000 0.000000 0.000000
# 2 -0.002596 0.012791 -0.003490 0.000000 0.000000 0.000000
# 3 0.000510 -0.003490 0.004451 0.000000 0.000000 0.000000
# 4 0.000000 0.000000 0.000000 -0.005397 0.000000 0.000000
# 5 0.000000 0.000000 0.000000 0.000000 -0.025257 0.000000
# 6 0.000000 0.000000 0.000000 0.000000 0.000000 0.043881
#
#
# Mechanical properties :
#
#
# Convention : Reuss Voigt Hill
#
# Bulk Modulus (GPa) = 57.31715 76.83427 67.07571
# Shear Modulus (GPa) = 85.04118 -15.23138 34.90490
#
# Velocity S-wave (km/s) = 6.06818 -2.56811 3.88765
# Velocity P-wave (km/s) = 8.59741 4.94729 7.01395
#
# Compressibility (1/GPa) = 0.01744678
#
# Stress axis : x y z
#
# Youngs Moduli (GPa) = 88.05137 78.17811 224.65602
#
# Poissons Ratio (x) = 0.20298 -0.11462
# Poissons Ratio (y) = 0.22862 0.78410
# Poissons Ratio (z) = -0.04492 0.27286
#
# Static dielectric constant tensor:
#      x y z
#    x 1.847800 0.000000 0.000000 
#    y 0.000000 1.767530 0.000000 
#    z 0.000000 0.000000 1.983020 
# 
# From -- ./inp_files/16227.got.cif
#   From: 2010.05.17/outbox.cif.g08.bks.cpg/sg60_9_cif.got.tgz:16227.got - 2010.06.03 14:59:27.
