data_PCOD9454071
_publ_section_title
;
Structure prediction by ZEFSAII (Michael W. Deem and Ramdas Pophale) SiO2 
 PCOD9454071
Probable space group: P B C N
;
_chemical_formula_sum "Si O2"
_cell_formula_units_Z 56
_cell_length_a 18.973714
_cell_length_b 13.151911
_cell_length_c 8.663614
_cell_angle_alpha 90.000000
_cell_angle_beta 90.000000
_cell_angle_gamma 90.000000
_cell_volume 2161.923417
_symmetry_space_group_name_H-M "P B C N"
_symmetry_group_IT_number 60
_symmetry_cell_setting 'orthorhombic'
loop_
_space_group_symop_operation_xyz
x,y,z
1/2-x,1/2-y,1/2+z
1/2+x,1/2-y,-z
-x,y,1/2-z
-x,-y,-z
1/2+x,1/2+y,1/2-z
1/2-x,1/2+y,z
x,-y,1/2+z
loop_
_atom_site_type_symbol
_atom_site_label
_atom_site_fract_x
_atom_site_fract_y
_atom_site_fract_z
Si Si1 0.777450 0.389606 0.395450
Si Si2 0.936708 0.023966 0.341784
Si Si3 0.040455 0.769120 0.500631
Si Si4 0.111457 0.303589 0.531253
Si Si5 0.179621 0.242218 0.826722
Si Si6 0.077073 0.418861 0.233050
Si Si7 0.847602 0.087853 0.079302
O O1 0.733220 0.338267 0.252964
O O2 0.796142 0.299825 0.518836
O O3 0.847676 0.447937 0.342694
O O4 0.723574 0.451926 0.502436
O O5 0.966695 0.130580 0.398694
O O6 0.000000 0.972359 0.250000
O O7 0.910320 0.954872 0.476976
O O8 0.866517 0.050652 0.246593
O O9 0.103573 0.797335 0.383768
O O10 0.058993 0.679195 0.624398
O O11 0.967632 0.732508 0.426488
O O12 0.158116 0.316084 0.683977
O O13 0.099390 0.391330 0.407345
O O14 0.146246 0.209285 0.436978
O O15 0.000000 0.474430 0.250000
#
# Coordination Sequence:
#
# PCOD9454071 Si02
#       7
#     8   8   8   8   8   8   8
#     4  10  21  36  49  78 107 141 188 235 278 339
#     4  12  23  38  52  75 111 160 195 230 255 313
#     4  10  19  33  54  77 113 147 183 224 271 323
#     4  10  18  34  51  81 105 142 186 225 273 334
#     4  10  21  30  53  74 108 144 183 225 288 327
#     4   9  17  35  59  79 105 138 172 230 294 337
#     4  11  24  34  51  73 111 151 197 225 267 314
#
# _framework density 25.902861999999999
#
# number of rings (size 3 to 8) (size 9 to 14) (size 15 to 20)
#    0.000    1.714    2.857    3.000    6.000    0.000 
#    0.000    0.000    0.000    0.000    0.000    1.000 
#    0.000    0.000    0.000    0.000    0.000    0.000 
#
# Total GULP energy -312804.850777 kJ/mol
# GULP energy per Si atom -5585.800907 kJ/mol
# Density = 2.584391 g / cm^3
# Si number density = 25.902862 Si / 1000 Ang^3
#
#
#
# Elastic Constant Matrix: (Units=GPa)
#
#
# Indices 1 2 3 4 5 6 
#
# 1 164.2207 16.2608 41.7002 0.0000 0.0000 0.0000
# 2 16.2608 35.8452 11.9612 0.0000 0.0000 0.0000
# 3 41.7002 11.9612 100.3856 0.0000 0.0000 0.0000
# 4 0.0000 0.0000 0.0000 11.3134 0.0000 0.0000
# 5 0.0000 0.0000 0.0000 0.0000 71.2567 0.0000
# 6 0.0000 0.0000 0.0000 0.0000 0.0000 9.9859
#
#
#
# Elastic Compliance Matrix: (Units=1/GPa)
#
#
# Indices 1 2 3 4 5 6 
#
# 1 0.006984 -0.002291 -0.002628 0.000000 0.000000 0.000000
# 2 -0.002291 0.029804 -0.002600 0.000000 0.000000 0.000000
# 3 -0.002628 -0.002600 0.011363 0.000000 0.000000 0.000000
# 4 0.000000 0.000000 0.000000 0.088390 0.000000 0.000000
# 5 0.000000 0.000000 0.000000 0.000000 0.014034 0.000000
# 6 0.000000 0.000000 0.000000 0.000000 0.000000 0.100141
#
#
# Mechanical properties :
#
#
# Convention : Reuss Voigt Hill
#
# Bulk Modulus (GPa) = 30.19892 48.92179 39.56035
# Shear Modulus (GPa) = 18.06412 33.87983 25.97198
#
# Velocity S-wave (km/s) = 2.64366 3.62049 3.16993
# Velocity P-wave (km/s) = 4.58284 6.03365 5.35758
#
# Compressibility (1/GPa) = 0.03311377
#
# Stress axis : x y z
#
# Youngs Moduli (GPa) = 143.19388 33.55198 88.00497
#
# Poissons Ratio (x) = 0.07687 0.23127
# Poissons Ratio (y) = 0.32807 0.22878
# Poissons Ratio (z) = 0.37631 0.08722
#
# Static dielectric constant tensor:
#      x y z
#    x 2.168280 0.000000 0.000000 
#    y 0.000000 2.014590 0.000000 
#    z 0.000000 0.000000 2.039980 
# 
# From -- ./inp_files/7618.got.cif
#   From: 2010.05.17/outbox.cif.g08.bks.cpg/sg60_4_cif.got.tgz:7618.got - 2010.06.03 14:59:27.
