data_PCOD9454198
_publ_section_title
;
Structure prediction by ZEFSAII (Michael W. Deem and Ramdas Pophale) SiO2 
 PCOD9454198
Probable space group: P B C N
;
_chemical_formula_sum "Si O2"
_cell_formula_units_Z 36
_cell_length_a 16.546290
_cell_length_b 7.197863
_cell_length_c 11.830305
_cell_angle_alpha 90.000000
_cell_angle_beta 90.000000
_cell_angle_gamma 90.000000
_cell_volume 1408.964820
_symmetry_space_group_name_H-M "P B C N"
_symmetry_group_IT_number 60
_symmetry_cell_setting 'orthorhombic'
loop_
_space_group_symop_operation_xyz
x,y,z
1/2-x,1/2-y,1/2+z
1/2+x,1/2-y,-z
-x,y,1/2-z
-x,-y,-z
1/2+x,1/2+y,1/2-z
1/2-x,1/2+y,z
x,-y,1/2+z
loop_
_atom_site_type_symbol
_atom_site_label
_atom_site_fract_x
_atom_site_fract_y
_atom_site_fract_z
Si Si1 0.836252 0.218186 0.330149
Si Si2 0.000000 0.618448 0.250000
Si Si3 0.571085 0.235984 0.033720
Si Si4 0.342847 0.712286 0.629784
Si Si5 0.092665 0.839225 0.904123
O O1 0.863373 0.330287 0.441378
O O2 0.741113 0.236598 0.312132
O O3 0.889345 0.244046 0.218700
O O4 0.852818 0.007243 0.361769
O O5 0.954291 0.585780 0.127276
O O6 0.920527 0.702967 0.310986
O O7 0.596008 0.432085 0.095798
O O8 0.494775 0.292777 0.955440
O O9 0.343829 0.741047 0.494869
#
# Coordination Sequence:
#
# PCOD9454198 Si02
#       5
#     8   4   8   8   8
#     4  11  21  35  57  86 115 146 189 245 277 343
#     4  10  18  38  56  82 114 152 186 236 280 346
#     4   9  18  31  56  84 108 142 193 238 281 327
#     4  10  23  34  58  83 115 150 192 232 291 331
#     4   9  18  32  55  83 111 144 188 236 282 332
#
# _framework density 25.550674000000001
#
# number of rings (size 3 to 8) (size 9 to 14) (size 15 to 20)
#    0.000    2.222    2.222    2.000    3.111    0.000 
#    0.000    0.000    4.889    2.667    0.000    0.000 
#    0.000    0.000    0.000    0.000    0.000    0.000 
#
# Total GULP energy -200808.718594 kJ/mol
# GULP energy per Si atom -5578.019961 kJ/mol
# Density = 2.549252 g / cm^3
# Si number density = 25.550674 Si / 1000 Ang^3
#
#
#
# Elastic Constant Matrix: (Units=GPa)
#
#
# Indices 1 2 3 4 5 6 
#
# 1 106.7716 6.2933 46.0398 0.0000 0.0000 0.0000
# 2 6.2933 73.1093 25.5058 0.0000 0.0000 0.0000
# 3 46.0398 25.5058 179.9727 0.0000 0.0000 0.0000
# 4 0.0000 0.0000 0.0000 73.1716 0.0000 0.0000
# 5 0.0000 0.0000 0.0000 0.0000 70.7423 0.0000
# 6 0.0000 0.0000 0.0000 0.0000 0.0000 420.4847
#
#
#
# Elastic Compliance Matrix: (Units=1/GPa)
#
#
# Indices 1 2 3 4 5 6 
#
# 1 0.010527 0.000035 -0.002698 0.000000 0.000000 0.000000
# 2 0.000035 0.014390 -0.002048 0.000000 0.000000 0.000000
# 3 -0.002698 -0.002048 0.006537 0.000000 0.000000 0.000000
# 4 0.000000 0.000000 0.000000 0.013667 0.000000 0.000000
# 5 0.000000 0.000000 0.000000 0.000000 0.014136 0.000000
# 6 0.000000 0.000000 0.000000 0.000000 0.000000 0.002378
#
#
# Mechanical properties :
#
#
# Convention : Reuss Voigt Hill
#
# Bulk Modulus (GPa) = 45.38998 57.28126 51.33562
# Shear Modulus (GPa) = 63.77526 131.68070 97.72798
#
# Velocity S-wave (km/s) = 5.00145 7.18672 6.19126
# Velocity P-wave (km/s) = 7.15234 9.55681 8.44063
#
# Compressibility (1/GPa) = 0.02203129
#
# Stress axis : x y z
#
# Youngs Moduli (GPa) = 94.99316 69.49406 152.97867
#
# Poissons Ratio (x) = -0.00244 0.41273
# Poissons Ratio (y) = -0.00333 0.31334
# Poissons Ratio (z) = 0.25629 0.14234
#
# Static dielectric constant tensor:
#      x y z
#    x 2.041290 0.000000 0.000000 
#    y 0.000000 2.070680 0.000000 
#    z 0.000000 0.000000 2.055490 
# 
# From -- ./inp_files/10640.got.cif
#   From: 2010.05.17/outbox.cif.g08.bks.cpg/sg60_6_cif.got.tgz:10640.got - 2010.06.03 14:59:27.
