data_PCOD9454019
_publ_section_title
;
Structure prediction by ZEFSAII (Michael W. Deem and Ramdas Pophale) SiO2 
 PCOD9454019
Probable space group: P B C N
;
_chemical_formula_sum "Si O2"
_cell_formula_units_Z 48
_cell_length_a 12.133496
_cell_length_b 11.740529
_cell_length_c 14.921699
_cell_angle_alpha 90.000000
_cell_angle_beta 90.000000
_cell_angle_gamma 90.000000
_cell_volume 2125.650661
_symmetry_space_group_name_H-M "P B C N"
_symmetry_group_IT_number 60
_symmetry_cell_setting 'orthorhombic'
loop_
_space_group_symop_operation_xyz
x,y,z
1/2-x,1/2-y,1/2+z
1/2+x,1/2-y,-z
-x,y,1/2-z
-x,-y,-z
1/2+x,1/2+y,1/2-z
1/2-x,1/2+y,z
x,-y,1/2+z
loop_
_atom_site_type_symbol
_atom_site_label
_atom_site_fract_x
_atom_site_fract_y
_atom_site_fract_z
Si Si1 0.462443 0.156826 0.902451
Si Si2 0.671989 0.291994 0.866434
Si Si3 0.542213 0.902734 0.605440
Si Si4 0.887924 0.027086 0.947283
Si Si5 0.255801 0.310003 0.946267
Si Si6 0.397838 0.268242 0.188872
O O1 0.560522 0.221553 0.852182
O O2 0.359451 0.241175 0.909304
O O3 0.433924 0.031688 0.868198
O O4 0.509379 0.123701 0.001982
O O5 0.646372 0.425785 0.880008
O O6 0.766942 0.249777 0.798964
O O7 0.714264 0.257854 0.966218
O O8 0.652057 0.827825 0.618548
O O9 0.438695 0.856272 0.659066
O O10 0.905658 0.142185 0.892169
O O11 0.794128 0.064711 0.018612
O O12 0.000000 0.000000 0.000000
O O13 0.500000 0.308062 0.250000
#
# Coordination Sequence:
#
# PCOD9454019 Si02
#       6
#     8   8   8   8   8   8
#     4  10  18  34  59  95 120 154 209 270 324 376
#     4  10  20  34  61  89 125 164 212 263 329 390
#     4  10  20  34  58  86 128 161 204 259 322 383
#     4  11  19  37  65  97 125 161 219 282 334 388
#     4  10  18  32  57  99 124 152 200 272 329 382
#     4  11  25  42  59  89 130 180 220 263 337 412
#
# _framework density 22.581320000000002
#
# number of rings (size 3 to 8) (size 9 to 14) (size 15 to 20)
#    0.000    1.667    5.000    2.000    7.000    0.000 
#    0.000    3.333    0.000    0.000    0.000    0.000 
#    0.000    0.000    0.000    0.000    0.000    0.000 
#
# Total GULP energy -267729.535554 kJ/mol
# GULP energy per Si atom -5577.698657 kJ/mol
# Density = 2.252992 g / cm^3
# Si number density = 22.581320 Si / 1000 Ang^3
#
#
#
# Elastic Constant Matrix: (Units=GPa)
#
#
# Indices 1 2 3 4 5 6 
#
# 1 146.7139 41.5894 15.4815 0.0000 0.0000 0.0000
# 2 41.5894 115.0475 -0.3191 0.0000 0.0000 0.0000
# 3 15.4815 -0.3191 16.9675 0.0000 0.0000 0.0000
# 4 0.0000 0.0000 0.0000 0.1466 0.0000 0.0000
# 5 0.0000 0.0000 0.0000 0.0000 29.2687 0.0000
# 6 0.0000 0.0000 0.0000 0.0000 0.0000 29.2816
#
#
#
# Elastic Compliance Matrix: (Units=1/GPa)
#
#
# Indices 1 2 3 4 5 6 
#
# 1 0.008522 -0.003102 -0.007834 0.000000 0.000000 0.000000
# 2 -0.003102 0.009822 0.003015 0.000000 0.000000 0.000000
# 3 -0.007834 0.003015 0.066141 0.000000 0.000000 0.000000
# 4 0.000000 0.000000 0.000000 6.819722 0.000000 0.000000
# 5 0.000000 0.000000 0.000000 0.000000 0.034166 0.000000
# 6 0.000000 0.000000 0.000000 0.000000 0.000000 0.034151
#
#
# Mechanical properties :
#
#
# Convention : Reuss Voigt Hill
#
# Bulk Modulus (GPa) = 14.56820 43.58139 29.07480
# Shear Modulus (GPa) = 0.71314 26.53786 13.62550
#
# Velocity S-wave (km/s) = 0.56258 3.43186 2.45908
# Velocity P-wave (km/s) = 2.62439 5.91990 4.57890
#
# Compressibility (1/GPa) = 0.06864265
#
# Stress axis : x y z
#
# Youngs Moduli (GPa) = 117.34179 101.81276 15.11928
#
# Poissons Ratio (x) = 0.31587 0.11845
# Poissons Ratio (y) = 0.36405 -0.04559
# Poissons Ratio (z) = 0.91927 -0.30701
#
# Static dielectric constant tensor:
#      x y z
#    x 1.863900 0.000000 0.000000 
#    y 0.000000 1.812080 0.000000 
#    z 0.000000 0.000000 1.595870 
# 
# From -- ./inp_files/20028.got.cif
#   From: 2010.05.17/outbox.cif.g08.bks.cpg/sg60_11_cif.got.tgz:20028.got - 2010.06.03 14:59:27.
