data_PCOD9454813
_publ_section_title
;
Structure prediction by ZEFSAII (Michael W. Deem and Ramdas Pophale) SiO2 
 PCOD9454813
Probable space group: P B C N
;
_chemical_formula_sum "Si O2"
_cell_formula_units_Z 60
_cell_length_a 11.509336
_cell_length_b 17.182292
_cell_length_c 13.364487
_cell_angle_alpha 90.000000
_cell_angle_beta 90.000000
_cell_angle_gamma 90.000000
_cell_volume 2642.917807
_symmetry_space_group_name_H-M "P B C N"
_symmetry_group_IT_number 60
_symmetry_cell_setting 'orthorhombic'
loop_
_space_group_symop_operation_xyz
x,y,z
1/2-x,1/2-y,1/2+z
1/2+x,1/2-y,-z
-x,y,1/2-z
-x,-y,-z
1/2+x,1/2+y,1/2-z
1/2-x,1/2+y,z
x,-y,1/2+z
loop_
_atom_site_type_symbol
_atom_site_label
_atom_site_fract_x
_atom_site_fract_y
_atom_site_fract_z
Si Si1 0.997351 0.435125 0.915094
Si Si2 0.000000 0.463265 0.250000
Si Si3 0.929057 0.993174 0.159686
Si Si4 0.531107 0.170896 0.600787
Si Si5 0.299302 0.729036 0.155142
Si Si6 0.259468 0.115264 0.332199
Si Si7 0.359787 0.696947 0.502598
Si Si8 0.412389 0.395866 0.521209
O O1 0.112385 0.415370 0.852391
O O2 0.927194 0.481787 0.827646
O O3 0.980206 0.360087 0.985762
O O4 0.000000 0.500000 0.000000
O O5 0.939540 0.401301 0.173565
O O6 0.832235 0.050514 0.203200
O O7 0.000000 0.954418 0.250000
O O8 0.868800 0.939513 0.076818
O O9 0.022857 0.044718 0.096821
O O10 0.417311 0.217328 0.646187
O O11 0.627702 0.235368 0.580716
O O12 0.257704 0.687632 0.256799
O O13 0.198061 0.778334 0.104871
O O14 0.322666 0.656261 0.080900
O O15 0.217911 0.134692 0.445115
O O16 0.486550 0.661744 0.516482
#
# Coordination Sequence:
#
# PCOD9454813 Si02
#       8
#     8   4   8   8   8   8   8   8
#     4  10  23  42  60  91 133 168 211 271 330 396
#     4  10  22  40  62  88 118 172 208 252 324 388
#     4  10  19  40  62  90 129 160 207 273 320 394
#     4  10  21  42  64  89 129 163 209 275 320 378
#     4  11  21  40  66  94 125 166 218 265 323 399
#     4  11  22  40  65  95 122 172 223 257 331 397
#     4  10  22  39  64  89 124 164 214 268 321 392
#     4   9  21  38  61  93 123 164 204 268 333 370
#
# _framework density 22.702182000000001
#
# number of rings (size 3 to 8) (size 9 to 14) (size 15 to 20)
#    0.000    1.867    2.667    0.800    1.867    2.133 
#    7.200    0.000    0.000    0.000    0.000    0.000 
#    0.000    0.000    0.000    0.000    0.000    0.000 
#
# Total GULP energy -334021.212032 kJ/mol
# GULP energy per Si atom -5567.020201 kJ/mol
# Density = 2.265051 g / cm^3
# Si number density = 22.702182 Si / 1000 Ang^3
#
#
#
# Elastic Constant Matrix: (Units=GPa)
#
#
# Indices 1 2 3 4 5 6 
#
# 1 23.9744 4.8416 19.5238 0.0000 0.0000 0.0000
# 2 4.8416 60.3177 43.5168 0.0000 0.0000 0.0000
# 3 19.5238 43.5168 114.5281 0.0000 0.0000 0.0000
# 4 0.0000 0.0000 0.0000 43.3288 0.0000 0.0000
# 5 0.0000 0.0000 0.0000 0.0000 16.4455 0.0000
# 6 0.0000 0.0000 0.0000 0.0000 0.0000 10.2831
#
#
#
# Elastic Compliance Matrix: (Units=1/GPa)
#
#
# Indices 1 2 3 4 5 6 
#
# 1 0.048794 0.002872 -0.009409 0.000000 0.000000 0.000000
# 2 0.002872 0.023009 -0.009232 0.000000 0.000000 0.000000
# 3 -0.009409 -0.009232 0.013843 0.000000 0.000000 0.000000
# 4 0.000000 0.000000 0.000000 0.023079 0.000000 0.000000
# 5 0.000000 0.000000 0.000000 0.000000 0.060807 0.000000
# 6 0.000000 0.000000 0.000000 0.000000 0.000000 0.097247
#
#
# Mechanical properties :
#
#
# Convention : Reuss Voigt Hill
#
# Bulk Modulus (GPa) = 18.48195 37.17607 27.82901
# Shear Modulus (GPa) = 15.80507 22.74067 19.27287
#
# Velocity S-wave (km/s) = 2.64141 3.16839 2.91682
# Velocity P-wave (km/s) = 4.17869 5.45857 4.86094
#
# Compressibility (1/GPa) = 0.05410683
#
# Stress axis : x y z
#
# Youngs Moduli (GPa) = 20.49449 43.46123 72.23670
#
# Poissons Ratio (x) = -0.12481 0.67968
# Poissons Ratio (y) = -0.05885 0.66690
# Poissons Ratio (z) = 0.19283 0.40124
#
# Static dielectric constant tensor:
#      x y z
#    x 1.842510 0.000000 0.000000 
#    y 0.000000 1.859780 0.000000 
#    z 0.000000 0.000000 1.771150 
# 
# From -- ./inp_files/16344.got.cif
#   From: 2010.05.17/outbox.cif.g08.bks.cpg/sg60_9_cif.got.tgz:16344.got - 2010.06.03 14:59:27.
