data_PCOD9454076
_publ_section_title
;
Structure prediction by ZEFSAII (Michael W. Deem and Ramdas Pophale) SiO2 
 PCOD9454076
Probable space group: P B C N
;
_chemical_formula_sum "Si O2"
_cell_formula_units_Z 40
_cell_length_a 14.145409
_cell_length_b 8.936581
_cell_length_c 12.114988
_cell_angle_alpha 90.000000
_cell_angle_beta 90.000000
_cell_angle_gamma 90.000000
_cell_volume 1531.474936
_symmetry_space_group_name_H-M "P B C N"
_symmetry_group_IT_number 60
_symmetry_cell_setting 'orthorhombic'
loop_
_space_group_symop_operation_xyz
x,y,z
1/2-x,1/2-y,1/2+z
1/2+x,1/2-y,-z
-x,y,1/2-z
-x,-y,-z
1/2+x,1/2+y,1/2-z
1/2-x,1/2+y,z
x,-y,1/2+z
loop_
_atom_site_type_symbol
_atom_site_label
_atom_site_fract_x
_atom_site_fract_y
_atom_site_fract_z
Si Si1 0.141602 0.191535 0.905907
Si Si2 0.102669 0.437021 0.726280
Si Si3 0.283794 0.562840 0.107522
Si Si4 0.395730 0.379329 0.798145
Si Si5 0.072347 0.196169 0.534841
O O1 0.138065 0.344628 0.835068
O O2 0.040574 0.171885 0.967529
O O3 0.140977 0.045774 0.828600
O O4 0.222495 0.164128 0.997177
O O5 0.190605 0.508923 0.661527
O O6 0.078819 0.315957 0.631587
O O7 0.000000 0.512799 0.750000
O O8 0.326289 0.668700 0.202279
O O9 0.360854 0.437944 0.076194
O O10 0.500000 0.394766 0.750000
O O11 0.399737 0.280080 0.907547
#
# Coordination Sequence:
#
# PCOD9454076 Si02
#       5
#     8   8   8   8   8
#     4  10  18  34  54  82 111 137 183 239 281 329
#     4  10  22  37  52  80 115 151 187 226 277 345
#     4  11  20  31  56  83 107 147 185 225 288 334
#     4  11  16  30  55  85 111 136 175 238 285 322
#     4  10  19  34  55  81 113 140 182 238 284 325
#
# _framework density 26.118614000000001
#
# number of rings (size 3 to 8) (size 9 to 14) (size 15 to 20)
#    0.000    1.600    6.000    1.800    2.800    0.000 
#    0.000    0.000    0.000    6.000    0.000    0.000 
#    0.000    0.000    0.000    0.000    0.000    0.000 
#
# Total GULP energy -223456.774379 kJ/mol
# GULP energy per Si atom -5586.419359 kJ/mol
# Density = 2.605917 g / cm^3
# Si number density = 26.118614 Si / 1000 Ang^3
#
#
#
# Elastic Constant Matrix: (Units=GPa)
#
#
# Indices 1 2 3 4 5 6 
#
# 1 137.0178 24.2355 48.2448 0.0000 0.0000 0.0000
# 2 24.2355 44.8856 14.2805 0.0000 0.0000 0.0000
# 3 48.2448 14.2805 160.5162 0.0000 0.0000 0.0000
# 4 0.0000 0.0000 0.0000 12.3622 0.0000 0.0000
# 5 0.0000 0.0000 0.0000 0.0000 35.7585 0.0000
# 6 0.0000 0.0000 0.0000 0.0000 0.0000 20.9979
#
#
#
# Elastic Compliance Matrix: (Units=1/GPa)
#
#
# Indices 1 2 3 4 5 6 
#
# 1 0.008818 -0.004032 -0.002292 0.000000 0.000000 0.000000
# 2 -0.004032 0.024772 -0.000992 0.000000 0.000000 0.000000
# 3 -0.002292 -0.000992 0.007007 0.000000 0.000000 0.000000
# 4 0.000000 0.000000 0.000000 0.080892 0.000000 0.000000
# 5 0.000000 0.000000 0.000000 0.000000 0.027965 0.000000
# 6 0.000000 0.000000 0.000000 0.000000 0.000000 0.047624
#
#
# Mechanical properties :
#
#
# Convention : Reuss Voigt Hill
#
# Bulk Modulus (GPa) = 38.51312 57.32681 47.91997
# Shear Modulus (GPa) = 22.68961 30.86762 26.77862
#
# Velocity S-wave (km/s) = 2.95059 3.44150 3.20546
# Velocity P-wave (km/s) = 5.13668 6.14721 5.66452
#
# Compressibility (1/GPa) = 0.02596518
#
# Stress axis : x y z
#
# Youngs Moduli (GPa) = 113.39801 40.36874 142.71533
#
# Poissons Ratio (x) = 0.16278 0.32707
# Poissons Ratio (y) = 0.45726 0.14156
# Poissons Ratio (z) = 0.25988 0.04004
#
# Static dielectric constant tensor:
#      x y z
#    x 2.177590 0.000000 0.000000 
#    y 0.000000 2.104760 0.000000 
#    z 0.000000 0.000000 2.076430 
# 
# From -- ./inp_files/10841.got.cif
#   From: 2010.05.17/outbox.cif.g08.bks.cpg/sg60_6_cif.got.tgz:10841.got - 2010.06.03 14:59:27.
