data_PCOD9454516
_publ_section_title
;
Structure prediction by ZEFSAII (Michael W. Deem and Ramdas Pophale) SiO2 
 PCOD9454516
Probable space group: P B C N
;
_chemical_formula_sum "Si O2"
_cell_formula_units_Z 56
_cell_length_a 15.245941
_cell_length_b 19.161080
_cell_length_c 9.112335
_cell_angle_alpha 90.000000
_cell_angle_beta 90.000000
_cell_angle_gamma 90.000000
_cell_volume 2661.974534
_symmetry_space_group_name_H-M "P B C N"
_symmetry_group_IT_number 60
_symmetry_cell_setting 'orthorhombic'
loop_
_space_group_symop_operation_xyz
x,y,z
1/2-x,1/2-y,1/2+z
1/2+x,1/2-y,-z
-x,y,1/2-z
-x,-y,-z
1/2+x,1/2+y,1/2-z
1/2-x,1/2+y,z
x,-y,1/2+z
loop_
_atom_site_type_symbol
_atom_site_label
_atom_site_fract_x
_atom_site_fract_y
_atom_site_fract_z
Si Si1 0.500000 0.530939 0.250000
Si Si2 0.582958 0.582143 0.542958
Si Si3 0.779059 0.557181 0.581702
Si Si4 0.332672 0.226492 0.656904
Si Si5 0.420229 0.332547 0.037586
Si Si6 0.679793 0.804062 0.995903
Si Si7 0.241663 0.585224 0.586247
Si Si8 0.000000 0.795342 0.750000
O O1 0.562180 0.565948 0.372818
O O2 0.439859 0.483667 0.355391
O O3 0.684406 0.593725 0.560710
O O4 0.514956 0.641866 0.591405
O O5 0.841005 0.613291 0.498389
O O6 0.789280 0.557249 0.755800
O O7 0.773096 0.479020 0.521995
O O8 0.266871 0.283867 0.593615
O O9 0.313167 0.156301 0.565571
O O10 0.433543 0.249581 0.653542
O O11 0.310803 0.212820 0.829134
O O12 0.389817 0.253304 0.064586
O O13 0.342925 0.386322 0.082577
O O14 0.435564 0.335479 0.860867
#
# Coordination Sequence:
#
# PCOD9454516 Si02
#       8
#     4   8   8   8   8   8   8   4
#     4  10  21  30  42  70 105 132 164 208 259 318
#     4  11  19  30  47  71 103 138 171 208 262 322
#     4  11  21  35  55  79 109 146 181 226 279 331
#     4   9  19  37  57  82 110 146 189 233 278 335
#     4  10  20  33  51  78 109 140 180 225 270 333
#     4   9  20  35  52  77 111 145 183 226 278 332
#     4  10  22  36  55  82 113 143 182 230 278 331
#     4  10  19  34  60  82 107 148 192 232 277 334
#
# _framework density 21.037016999999999
#
# number of rings (size 3 to 8) (size 9 to 14) (size 15 to 20)
#    0.000    2.000    0.000    4.714    0.000    5.714 
#    0.000    1.429    0.000   10.286    0.000    0.000 
#    0.000    0.000    0.000    0.000    0.000    0.000 
#
# Total GULP energy -312138.779035 kJ/mol
# GULP energy per Si atom -5573.906768 kJ/mol
# Density = 2.098914 g / cm^3
# Si number density = 21.037017 Si / 1000 Ang^3
#
#
#
# Elastic Constant Matrix: (Units=GPa)
#
#
# Indices 1 2 3 4 5 6 
#
# 1 40.4296 4.3382 3.5922 0.0000 0.0000 0.0000
# 2 4.3382 52.2369 5.5418 0.0000 0.0000 0.0000
# 3 3.5922 5.5418 48.9593 0.0000 0.0000 0.0000
# 4 0.0000 0.0000 0.0000 -62.8478 0.0000 0.0000
# 5 0.0000 0.0000 0.0000 0.0000 26.0619 0.0000
# 6 0.0000 0.0000 0.0000 0.0000 0.0000 12.7193
#
#
#
# Elastic Compliance Matrix: (Units=1/GPa)
#
#
# Indices 1 2 3 4 5 6 
#
# 1 0.025084 -0.001911 -0.001624 0.000000 0.000000 0.000000
# 2 -0.001911 0.019522 -0.002070 0.000000 0.000000 0.000000
# 3 -0.001624 -0.002070 0.020779 0.000000 0.000000 0.000000
# 4 0.000000 0.000000 0.000000 -0.015911 0.000000 0.000000
# 5 0.000000 0.000000 0.000000 0.000000 0.038370 0.000000
# 6 0.000000 0.000000 0.000000 0.000000 0.000000 0.078621
#
#
# Mechanical properties :
#
#
# Convention : Reuss Voigt Hill
#
# Bulk Modulus (GPa) = 18.45870 18.73005 18.59437
# Shear Modulus (GPa) = 25.54526 3.73024 14.63775
#
# Velocity S-wave (km/s) = 3.48846 1.33305 2.64068
# Velocity P-wave (km/s) = 5.00193 3.36037 4.26095
#
# Compressibility (1/GPa) = 0.05417499
#
# Stress axis : x y z
#
# Youngs Moduli (GPa) = 39.86654 51.22475 48.12658
#
# Poissons Ratio (x) = 0.09788 0.07816
# Poissons Ratio (y) = 0.07618 0.09960
# Poissons Ratio (z) = 0.06475 0.10601
#
# Static dielectric constant tensor:
#      x y z
#    x 1.809780 0.000000 0.000000 
#    y 0.000000 1.897890 0.000000 
#    z 0.000000 0.000000 1.787300 
# 
# From -- ./inp_files/6188.got.cif
#   From: 2010.05.17/outbox.cif.g08.bks.cpg/sg60_4_cif.got.tgz:6188.got - 2010.06.03 14:59:27.
