data_PCOD9454475
_publ_section_title
;
Structure prediction by ZEFSAII (Michael W. Deem and Ramdas Pophale) SiO2 
 PCOD9454475
Probable space group: P B C N
;
_chemical_formula_sum "Si O2"
_cell_formula_units_Z 64
_cell_length_a 21.293365
_cell_length_b 9.072775
_cell_length_c 16.592715
_cell_angle_alpha 90.000000
_cell_angle_beta 90.000000
_cell_angle_gamma 90.000000
_cell_volume 3205.545111
_symmetry_space_group_name_H-M "P B C N"
_symmetry_group_IT_number 60
_symmetry_cell_setting 'orthorhombic'
loop_
_space_group_symop_operation_xyz
x,y,z
1/2-x,1/2-y,1/2+z
1/2+x,1/2-y,-z
-x,y,1/2-z
-x,-y,-z
1/2+x,1/2+y,1/2-z
1/2-x,1/2+y,z
x,-y,1/2+z
loop_
_atom_site_type_symbol
_atom_site_label
_atom_site_fract_x
_atom_site_fract_y
_atom_site_fract_z
Si Si1 0.960646 0.990690 0.582194
Si Si2 0.080952 0.009592 0.168437
Si Si3 0.750674 0.918155 0.691227
Si Si4 0.059119 0.737263 0.799753
Si Si5 0.772699 0.212689 0.969442
Si Si6 0.842513 0.907035 0.991469
Si Si7 0.171866 0.657593 0.886813
Si Si8 0.191609 0.179337 0.708037
O O1 0.893010 0.063850 0.563502
O O2 0.010920 0.046144 0.647740
O O3 0.953739 0.824543 0.616209
O O4 0.000000 0.000000 0.500000
O O5 0.121435 0.868628 0.190690
O O6 0.080876 0.132694 0.238349
O O7 0.115283 0.084539 0.090430
O O8 0.720117 0.027008 0.627785
O O9 0.777117 0.028653 0.758891
O O10 0.801752 0.809751 0.652483
O O11 0.700372 0.806684 0.727810
O O12 0.111552 0.625807 0.831351
O O13 0.000000 0.674144 0.750000
O O14 0.825302 0.306554 0.018541
O O15 0.703603 0.266200 0.998199
O O16 0.775812 0.233724 0.873805
O O17 0.795175 0.045299 0.982576
#
# Coordination Sequence:
#
# PCOD9454475 Si02
#       8
#     8   8   8   8   8   8   8   8
#     4   9  18  33  53  82 109 141 183 241 277 326
#     4   9  18  32  56  80 107 142 192 235 277 328
#     4  10  22  33  55  77 118 146 188 228 291 338
#     4  10  19  34  56  80 107 144 189 233 278 336
#     4  11  21  32  54  79 116 145 184 230 287 343
#     4  10  20  34  52  82 113 146 186 231 286 343
#     4  11  21  36  53  86 110 149 185 239 286 348
#     4  10  19  36  52  82 111 152 185 233 284 347
#
# _framework density 19.965402000000001
#
# number of rings (size 3 to 8) (size 9 to 14) (size 15 to 20)
#    0.000    2.000    2.500    2.250    1.750    0.000 
#    0.000    0.000    0.000    5.250    0.000    5.250 
#    0.000    0.000    0.000    0.000    0.000    0.000 
#
# Total GULP energy -356339.550098 kJ/mol
# GULP energy per Si atom -5567.805470 kJ/mol
# Density = 1.991996 g / cm^3
# Si number density = 19.965402 Si / 1000 Ang^3
#
#
#
# Elastic Constant Matrix: (Units=GPa)
#
#
# Indices 1 2 3 4 5 6 
#
# 1 69.7889 16.5935 2.5764 0.0000 0.0000 0.0000
# 2 16.5935 50.4070 7.2801 0.0000 0.0000 0.0000
# 3 2.5764 7.2801 59.7363 0.0000 0.0000 0.0000
# 4 0.0000 0.0000 0.0000 13.3926 0.0000 0.0000
# 5 0.0000 0.0000 0.0000 0.0000 25.4964 0.0000
# 6 0.0000 0.0000 0.0000 0.0000 0.0000 23.3846
#
#
#
# Elastic Compliance Matrix: (Units=1/GPa)
#
#
# Indices 1 2 3 4 5 6 
#
# 1 0.015546 -0.005111 -0.000048 0.000000 0.000000 0.000000
# 2 -0.005111 0.021874 -0.002445 0.000000 0.000000 0.000000
# 3 -0.000048 -0.002445 0.017040 0.000000 0.000000 0.000000
# 4 0.000000 0.000000 0.000000 0.074668 0.000000 0.000000
# 5 0.000000 0.000000 0.000000 0.000000 0.039221 0.000000
# 6 0.000000 0.000000 0.000000 0.000000 0.000000 0.042763
#
#
# Mechanical properties :
#
#
# Convention : Reuss Voigt Hill
#
# Bulk Modulus (GPa) = 25.47587 25.87026 25.67307
# Shear Modulus (GPa) = 20.88515 22.68686 21.78600
#
# Velocity S-wave (km/s) = 3.23780 3.37457 3.30690
# Velocity P-wave (km/s) = 5.17354 5.30748 5.24094
#
# Compressibility (1/GPa) = 0.03925282
#
# Stress axis : x y z
#
# Youngs Moduli (GPa) = 64.32591 45.71615 58.68434
#
# Poissons Ratio (x) = 0.23364 0.00280
# Poissons Ratio (y) = 0.32875 0.14351
# Poissons Ratio (z) = 0.00306 0.11179
#
# Static dielectric constant tensor:
#      x y z
#    x 1.825560 0.000000 0.000000 
#    y 0.000000 1.666550 0.000000 
#    z 0.000000 0.000000 1.795030 
# 
# From -- ./inp_files/21049.got.cif
#   From: 2010.05.17/outbox.cif.g08.bks.cpg/sg60_11_cif.got.tgz:21049.got - 2010.06.03 14:59:27.
