data_PCOD9454768
_publ_section_title
;
Structure prediction by ZEFSAII (Michael W. Deem and Ramdas Pophale) SiO2 
 PCOD9454768
Probable space group: P B C N
;
_chemical_formula_sum "Si O2"
_cell_formula_units_Z 40
_cell_length_a 10.672386
_cell_length_b 22.138718
_cell_length_c 8.919768
_cell_angle_alpha 90.000000
_cell_angle_beta 90.000000
_cell_angle_gamma 90.000000
_cell_volume 2107.499846
_symmetry_space_group_name_H-M "P B C N"
_symmetry_group_IT_number 60
_symmetry_cell_setting 'orthorhombic'
loop_
_space_group_symop_operation_xyz
x,y,z
1/2-x,1/2-y,1/2+z
1/2+x,1/2-y,-z
-x,y,1/2-z
-x,-y,-z
1/2+x,1/2+y,1/2-z
1/2-x,1/2+y,z
x,-y,1/2+z
loop_
_atom_site_type_symbol
_atom_site_label
_atom_site_fract_x
_atom_site_fract_y
_atom_site_fract_z
Si Si1 0.871448 0.477605 0.423505
Si Si2 0.158728 0.713831 0.979038
Si Si3 0.282354 0.919676 0.798224
Si Si4 0.500000 0.178860 0.250000
Si Si5 0.500000 0.128626 0.750000
Si Si6 0.855560 0.189644 0.263134
O O1 0.820794 0.532821 0.327737
O O2 0.777486 0.457274 0.551111
O O3 0.000000 0.500000 0.500000
O O4 0.906834 0.417479 0.333432
O O5 0.197792 0.769273 0.872614
O O6 0.087877 0.666700 0.865509
O O7 0.282655 0.698790 0.079244
O O8 0.055956 0.718175 0.113746
O O9 0.391241 0.867919 0.802937
O O10 0.160481 0.880818 0.769650
O O11 0.000000 0.206795 0.250000
#
# Coordination Sequence:
#
# PCOD9454768 Si02
#       6
#     8   8   8   4   4   8
#     4  12  19  35  65 101 130 166 223 292 348 386
#     4  11  25  40  70  98 139 176 233 286 350 409
#     4  11  22  37  63  96 131 170 221 289 342 402
#     4  10  19  38  64 100 130 165 220 292 344 396
#     4  12  21  38  70 104 132 165 228 300 352 378
#     4  11  27  46  63  97 142 187 226 279 348 431
#
# _framework density 18.979835999999999
#
# number of rings (size 3 to 8) (size 9 to 14) (size 15 to 20)
#    0.000    0.800    7.000    1.200    8.400    0.000 
#    0.000    1.000    0.000    0.000    0.000    0.000 
#    0.000    0.000    0.000    0.000    0.000    0.000 
#
# Total GULP energy -222777.751901 kJ/mol
# GULP energy per Si atom -5569.443798 kJ/mol
# Density = 1.893664 g / cm^3
# Si number density = 18.979836 Si / 1000 Ang^3
#
#
#
# Elastic Constant Matrix: (Units=GPa)
#
#
# Indices 1 2 3 4 5 6 
#
# 1 67.7526 28.4775 37.8754 0.0000 0.0000 0.0000
# 2 28.4775 115.9563 74.1811 0.0000 0.0000 0.0000
# 3 37.8754 74.1811 129.5354 0.0000 0.0000 0.0000
# 4 0.0000 0.0000 0.0000 33.9977 0.0000 0.0000
# 5 0.0000 0.0000 0.0000 0.0000 30.7863 0.0000
# 6 0.0000 0.0000 0.0000 0.0000 0.0000 24.0635
#
#
#
# Elastic Compliance Matrix: (Units=1/GPa)
#
#
# Indices 1 2 3 4 5 6 
#
# 1 0.017841 -0.001648 -0.004273 0.000000 0.000000 0.000000
# 2 -0.001648 0.013762 -0.007399 0.000000 0.000000 0.000000
# 3 -0.004273 -0.007399 0.013207 0.000000 0.000000 0.000000
# 4 0.000000 0.000000 0.000000 0.029414 0.000000 0.000000
# 5 0.000000 0.000000 0.000000 0.000000 0.032482 0.000000
# 6 0.000000 0.000000 0.000000 0.000000 0.000000 0.041557
#
#
# Mechanical properties :
#
#
# Convention : Reuss Voigt Hill
#
# Bulk Modulus (GPa) = 55.03763 66.03468 60.53616
# Shear Modulus (GPa) = 27.63056 29.28354 28.45705
#
# Velocity S-wave (km/s) = 3.81961 3.93221 3.87632
# Velocity P-wave (km/s) = 6.96516 7.44875 7.21101
#
# Compressibility (1/GPa) = 0.01816939
#
# Stress axis : x y z
#
# Youngs Moduli (GPa) = 56.05104 72.66214 75.71951
#
# Poissons Ratio (x) = 0.11975 0.32353
# Poissons Ratio (y) = 0.09238 0.56028
# Poissons Ratio (z) = 0.23949 0.53766
#
# Static dielectric constant tensor:
#      x y z
#    x 1.497000 0.000000 0.000000 
#    y 0.000000 1.643080 0.000000 
#    z 0.000000 0.000000 1.762860 
# 
# From -- ./inp_files/4934.got.cif
#   From: 2010.05.17/outbox.cif.g08.bks.cpg/sg60_3_cif.got.tgz:4934.got - 2010.06.03 14:59:27.
