data_PCOD9454628
_publ_section_title
;
Structure prediction by ZEFSAII (Michael W. Deem and Ramdas Pophale) SiO2 
 PCOD9454628
Probable space group: P B C N
;
_chemical_formula_sum "Si O2"
_cell_formula_units_Z 64
_cell_length_a 8.885627
_cell_length_b 28.947264
_cell_length_c 11.798042
_cell_angle_alpha 90.000000
_cell_angle_beta 90.000000
_cell_angle_gamma 90.000000
_cell_volume 3034.628543
_symmetry_space_group_name_H-M "P B C N"
_symmetry_group_IT_number 60
_symmetry_cell_setting 'orthorhombic'
loop_
_space_group_symop_operation_xyz
x,y,z
1/2-x,1/2-y,1/2+z
1/2+x,1/2-y,-z
-x,y,1/2-z
-x,-y,-z
1/2+x,1/2+y,1/2-z
1/2-x,1/2+y,z
x,-y,1/2+z
loop_
_atom_site_type_symbol
_atom_site_label
_atom_site_fract_x
_atom_site_fract_y
_atom_site_fract_z
Si Si1 0.285268 0.382235 0.881053
Si Si2 0.689879 0.557736 0.527367
Si Si3 0.519464 0.205684 0.885399
Si Si4 0.365331 0.731835 0.577041
Si Si5 0.705138 0.823492 0.826594
Si Si6 0.439880 0.347670 0.472086
Si Si7 0.525349 0.114590 0.480466
Si Si8 0.924104 0.026635 0.145619
O O1 0.260920 0.341345 0.792601
O O2 0.341790 0.427137 0.813997
O O3 0.412348 0.365357 0.964972
O O4 0.144831 0.398331 0.955741
O O5 0.632224 0.606374 0.582348
O O6 0.856141 0.573191 0.490411
O O7 0.690239 0.510288 0.595341
O O8 0.559495 0.544358 0.435764
O O9 0.500000 0.213372 0.750000
O O10 0.694684 0.211464 0.924957
O O11 0.470247 0.153472 0.920241
O O12 0.418940 0.241251 0.961369
O O13 0.350849 0.771645 0.670301
O O14 0.495878 0.694529 0.600311
O O15 0.574397 0.856884 0.869460
O O16 0.829379 0.829853 0.927308
O O17 0.000000 0.001421 0.250000
#
# Coordination Sequence:
#
# PCOD9454628 Si02
#       8
#     8   8   8   8   8   8   8   8
#     4  11  20  34  64  95 119 161 210 264 330 379
#     4   9  21  40  62  85 123 163 200 268 325 388
#     4  11  25  43  62  91 133 174 221 267 319 385
#     4  11  22  39  63  89 128 173 218 264 317 384
#     4  10  21  34  58  90 127 163 208 266 312 379
#     4  10  19  36  58  81 123 169 205 249 318 384
#     4  10  21  39  58  87 130 159 205 264 329 379
#     4  10  20  39  64  92 117 157 217 260 325 401
#
# _framework density 21.089894999999999
#
# number of rings (size 3 to 8) (size 9 to 14) (size 15 to 20)
#    0.000    1.750    2.500    3.000    1.750    0.500 
#    2.250    0.625    0.000    1.500    0.000    0.000 
#    0.000    0.000    0.000    0.000    0.000    0.000 
#
# Total GULP energy -356700.231622 kJ/mol
# GULP energy per Si atom -5573.441119 kJ/mol
# Density = 2.104189 g / cm^3
# Si number density = 21.089895 Si / 1000 Ang^3
#
#
#
# Elastic Constant Matrix: (Units=GPa)
#
#
# Indices 1 2 3 4 5 6 
#
# 1 96.0783 28.6899 12.2987 0.0000 0.0000 0.0000
# 2 28.6899 100.1328 25.2189 0.0000 0.0000 0.0000
# 3 12.2987 25.2189 36.7146 0.0000 0.0000 0.0000
# 4 0.0000 0.0000 0.0000 7.6833 0.0000 0.0000
# 5 0.0000 0.0000 0.0000 0.0000 17.1319 0.0000
# 6 0.0000 0.0000 0.0000 0.0000 0.0000 21.6048
#
#
#
# Elastic Compliance Matrix: (Units=1/GPa)
#
#
# Indices 1 2 3 4 5 6 
#
# 1 0.011493 -0.002809 -0.001920 0.000000 0.000000 0.000000
# 2 -0.002809 0.012763 -0.007825 0.000000 0.000000 0.000000
# 3 -0.001920 -0.007825 0.033256 0.000000 0.000000 0.000000
# 4 0.000000 0.000000 0.000000 0.130153 0.000000 0.000000
# 5 0.000000 0.000000 0.000000 0.000000 0.058371 0.000000
# 6 0.000000 0.000000 0.000000 0.000000 0.000000 0.046286
#
#
# Mechanical properties :
#
#
# Convention : Reuss Voigt Hill
#
# Bulk Modulus (GPa) = 30.86313 40.59342 35.72827
# Shear Modulus (GPa) = 15.23318 20.39854 17.81586
#
# Velocity S-wave (km/s) = 2.69048 3.11339 2.90963
# Velocity P-wave (km/s) = 4.93127 5.67572 5.31654
#
# Compressibility (1/GPa) = 0.03240112
#
# Stress axis : x y z
#
# Youngs Moduli (GPa) = 87.01055 78.35451 30.07017
#
# Poissons Ratio (x) = 0.22012 0.05774
# Poissons Ratio (y) = 0.24444 0.23531
# Poissons Ratio (z) = 0.16708 0.61315
#
# Static dielectric constant tensor:
#      x y z
#    x 1.794830 0.000000 0.000000 
#    y 0.000000 1.801660 0.000000 
#    z 0.000000 0.000000 1.786290 
# 
# From -- ./inp_files/10374.got.cif
#   From: 2010.05.17/outbox.cif.g08.bks.cpg/sg60_6_cif.got.tgz:10374.got - 2010.06.03 14:59:27.
