data_PCOD9454460
_publ_section_title
;
Structure prediction by ZEFSAII (Michael W. Deem and Ramdas Pophale) SiO2 
 PCOD9454460
Probable space group: P B C N
;
_chemical_formula_sum "Si O2"
_cell_formula_units_Z 40
_cell_length_a 17.371475
_cell_length_b 15.246573
_cell_length_c 5.509108
_cell_angle_alpha 90.000000
_cell_angle_beta 90.000000
_cell_angle_gamma 90.000000
_cell_volume 1459.117343
_symmetry_space_group_name_H-M "P B C N"
_symmetry_group_IT_number 60
_symmetry_cell_setting 'orthorhombic'
loop_
_space_group_symop_operation_xyz
x,y,z
1/2-x,1/2-y,1/2+z
1/2+x,1/2-y,-z
-x,y,1/2-z
-x,-y,-z
1/2+x,1/2+y,1/2-z
1/2-x,1/2+y,z
x,-y,1/2+z
loop_
_atom_site_type_symbol
_atom_site_label
_atom_site_fract_x
_atom_site_fract_y
_atom_site_fract_z
Si Si1 0.500000 0.440591 0.250000
Si Si2 0.500000 0.733746 0.250000
Si Si3 0.845955 0.049419 0.907301
Si Si4 0.076326 0.637990 0.140695
Si Si5 0.712653 0.875174 0.162644
Si Si6 0.854243 0.223882 0.472001
O O1 0.500000 0.500000 0.500000
O O2 0.580419 0.389887 0.323882
O O3 0.465692 0.797732 0.452230
O O4 0.431911 0.681533 0.129246
O O5 0.756506 0.078165 0.883858
O O6 0.853727 0.981830 0.682065
O O7 0.122225 0.702251 0.327448
O O8 0.000000 0.589842 0.250000
O O9 0.142802 0.585308 0.994305
O O10 0.679826 0.783678 0.258025
O O11 0.788794 0.846456 0.019094
#
# Coordination Sequence:
#
# PCOD9454460 Si02
#       6
#     4   4   8   8   8   8
#     4   8  16  38  59  78 114 158 205 246 294 342
#     4   8  18  34  51  80 118 156 187 228 300 380
#     4  10  23  41  62  86 119 166 210 252 301 360
#     4   9  18  35  56  80 120 153 189 234 312 370
#     4  11  21  34  60  87 121 154 203 253 302 364
#     4  10  19  34  54  88 117 154 190 247 308 357
#
# _framework density 27.413834999999999
#
# number of rings (size 3 to 8) (size 9 to 14) (size 15 to 20)
#    0.000    2.400    2.000    0.000    2.800    0.000 
#    5.400    4.000    0.000    1.200    0.000    0.000 
#    0.000    0.000    0.000    0.000    0.000    0.000 
#
# Total GULP energy -223025.199103 kJ/mol
# GULP energy per Si atom -5575.629978 kJ/mol
# Density = 2.735144 g / cm^3
# Si number density = 27.413835 Si / 1000 Ang^3
#
#
#
# Elastic Constant Matrix: (Units=GPa)
#
#
# Indices 1 2 3 4 5 6 
#
# 1 194.3153 13.9428 33.2385 0.0000 0.0000 0.0000
# 2 13.9428 14.9046 7.0935 0.0000 0.0000 0.0000
# 3 33.2385 7.0935 106.1648 0.0000 0.0000 0.0000
# 4 0.0000 0.0000 0.0000 37.4382 0.0000 0.0000
# 5 0.0000 0.0000 0.0000 0.0000 53.9098 0.0000
# 6 0.0000 0.0000 0.0000 0.0000 0.0000 26.0614
#
#
#
# Elastic Compliance Matrix: (Units=1/GPa)
#
#
# Indices 1 2 3 4 5 6 
#
# 1 0.005734 -0.004658 -0.001484 0.000000 0.000000 0.000000
# 2 -0.004658 0.073081 -0.003425 0.000000 0.000000 0.000000
# 3 -0.001484 -0.003425 0.010113 0.000000 0.000000 0.000000
# 4 0.000000 0.000000 0.000000 0.026711 0.000000 0.000000
# 5 0.000000 0.000000 0.000000 0.000000 0.018550 0.000000
# 6 0.000000 0.000000 0.000000 0.000000 0.000000 0.038371
#
#
# Mechanical properties :
#
#
# Convention : Reuss Voigt Hill
#
# Bulk Modulus (GPa) = 14.32779 47.10380 30.71579
# Shear Modulus (GPa) = 23.26044 40.88921 32.07482
#
# Velocity S-wave (km/s) = 2.91605 3.86625 3.42427
# Velocity P-wave (km/s) = 4.07132 6.09511 5.18295
#
# Compressibility (1/GPa) = 0.06979445
#
# Stress axis : x y z
#
# Youngs Moduli (GPa) = 174.38723 13.68350 98.88474
#
# Poissons Ratio (x) = 0.06374 0.14676
# Poissons Ratio (y) = 0.81229 0.33864
# Poissons Ratio (z) = 0.25881 0.04686
#
# Static dielectric constant tensor:
#      x y z
#    x 2.368020 0.000000 0.000000 
#    y 0.000000 2.134010 0.000000 
#    z 0.000000 0.000000 2.281850 
# 
# From -- ./inp_files/1219.got.cif
#   From: 2010.05.17/outbox.cif.g08.bks.cpg/sg60_1_cif.got.tgz:1219.got - 2010.06.03 14:59:27.
