data_PCOD9454617
_publ_section_title
;
Structure prediction by ZEFSAII (Michael W. Deem and Ramdas Pophale) SiO2 
 PCOD9454617
Probable space group: P B C N
;
_chemical_formula_sum "Si O2"
_cell_formula_units_Z 64
_cell_length_a 20.959220
_cell_length_b 18.399375
_cell_length_c 7.947077
_cell_angle_alpha 90.000000
_cell_angle_beta 90.000000
_cell_angle_gamma 90.000000
_cell_volume 3064.683345
_symmetry_space_group_name_H-M "P B C N"
_symmetry_group_IT_number 60
_symmetry_cell_setting 'orthorhombic'
loop_
_space_group_symop_operation_xyz
x,y,z
1/2-x,1/2-y,1/2+z
1/2+x,1/2-y,-z
-x,y,1/2-z
-x,-y,-z
1/2+x,1/2+y,1/2-z
1/2-x,1/2+y,z
x,-y,1/2+z
loop_
_atom_site_type_symbol
_atom_site_label
_atom_site_fract_x
_atom_site_fract_y
_atom_site_fract_z
Si Si1 0.070791 0.978716 0.197466
Si Si2 0.185504 0.670869 0.572703
Si Si3 0.759942 0.388391 0.963986
Si Si4 0.122028 0.848146 0.400151
Si Si5 0.260173 0.956394 0.906328
Si Si6 0.692896 0.755068 0.796245
Si Si7 0.121167 0.099121 0.387371
Si Si8 0.427182 0.736394 0.201001
O O1 0.099032 0.924857 0.336715
O O2 0.073858 0.934878 0.024600
O O3 0.000000 0.997048 0.250000
O O4 0.111433 0.051737 0.216969
O O5 0.192245 0.585886 0.531467
O O6 0.193182 0.705222 0.385209
O O7 0.244400 0.705702 0.675319
O O8 0.120480 0.696998 0.660430
O O9 0.690319 0.355717 0.005862
O O10 0.768093 0.456922 0.087151
O O11 0.764285 0.428242 0.783979
O O12 0.805573 0.318118 0.937600
O O13 0.134685 0.799987 0.231688
O O14 0.073934 0.808442 0.525217
O O15 0.190400 0.924196 0.956893
O O16 0.106158 0.181376 0.335458
O O17 0.500000 0.753096 0.250000
#
# Coordination Sequence:
#
# PCOD9454617 Si02
#       8
#     8   8   8   8   8   8   8   8
#     4  12  24  35  51  80 117 162 204 240 279 346
#     4  10  21  35  55  85 113 146 194 243 299 352
#     4  11  21  37  55  86 113 153 189 239 310 358
#     4  11  21  38  57  80 118 154 199 251 299 351
#     4  11  22  35  57  84 117 147 190 242 303 357
#     4  10  19  36  56  81 115 147 189 252 304 351
#     4  12  21  36  54  80 115 159 201 241 291 348
#     4  11  21  38  58  78 114 161 204 243 287 360
#
# _framework density 20.883071000000001
#
# number of rings (size 3 to 8) (size 9 to 14) (size 15 to 20)
#    0.000    1.000    5.000    4.500    1.750    0.000 
#    0.000    0.000    0.000    0.000    0.000    8.750 
#    0.000    0.000    0.000    0.000    0.000    0.000 
#
# Total GULP energy -357329.362611 kJ/mol
# GULP energy per Si atom -5583.271291 kJ/mol
# Density = 2.083554 g / cm^3
# Si number density = 20.883071 Si / 1000 Ang^3
#
#
#
# Elastic Constant Matrix: (Units=GPa)
#
#
# Indices 1 2 3 4 5 6 
#
# 1 50.7734 24.6287 19.2592 0.0000 0.0000 0.0000
# 2 24.6287 77.4525 18.5307 0.0000 0.0000 0.0000
# 3 19.2592 18.5307 79.7659 0.0000 0.0000 0.0000
# 4 0.0000 0.0000 0.0000 33.6639 0.0000 0.0000
# 5 0.0000 0.0000 0.0000 0.0000 23.7578 0.0000
# 6 0.0000 0.0000 0.0000 0.0000 0.0000 20.6393
#
#
#
# Elastic Compliance Matrix: (Units=1/GPa)
#
#
# Indices 1 2 3 4 5 6 
#
# 1 0.024649 -0.006791 -0.004374 0.000000 0.000000 0.000000
# 2 -0.006791 0.015542 -0.001971 0.000000 0.000000 0.000000
# 3 -0.004374 -0.001971 0.014051 0.000000 0.000000 0.000000
# 4 0.000000 0.000000 0.000000 0.029705 0.000000 0.000000
# 5 0.000000 0.000000 0.000000 0.000000 0.042092 0.000000
# 6 0.000000 0.000000 0.000000 0.000000 0.000000 0.048451
#
#
# Mechanical properties :
#
#
# Convention : Reuss Voigt Hill
#
# Bulk Modulus (GPa) = 35.75318 36.98099 36.36709
# Shear Modulus (GPa) = 23.79990 25.31706 24.55848
#
# Velocity S-wave (km/s) = 3.37957 3.48562 3.43300
# Velocity P-wave (km/s) = 5.69091 5.82636 5.75903
#
# Compressibility (1/GPa) = 0.02796954
#
# Stress axis : x y z
#
# Youngs Moduli (GPa) = 40.57009 64.34067 71.17161
#
# Poissons Ratio (x) = 0.43697 0.31128
# Poissons Ratio (y) = 0.27553 0.14027
# Poissons Ratio (z) = 0.17744 0.12681
#
# Static dielectric constant tensor:
#      x y z
#    x 1.755790 0.000000 0.000000 
#    y 0.000000 1.800770 0.000000 
#    z 0.000000 0.000000 1.862100 
# 
# From -- ./inp_files/8032.got.cif
#   From: 2010.05.17/outbox.cif.g08.bks.cpg/sg60_5_cif.got.tgz:8032.got - 2010.06.03 14:59:27.
