data_PCOD9454953
_publ_section_title
;
Structure prediction by ZEFSAII (Michael W. Deem and Ramdas Pophale) SiO2 
 PCOD9454953
Probable space group: P B C N
;
_chemical_formula_sum "Si O2"
_cell_formula_units_Z 32
_cell_length_a 19.456658
_cell_length_b 9.353018
_cell_length_c 8.055803
_cell_angle_alpha 90.000000
_cell_angle_beta 90.000000
_cell_angle_gamma 90.000000
_cell_volume 1465.982725
_symmetry_space_group_name_H-M "P B C N"
_symmetry_group_IT_number 60
_symmetry_cell_setting 'orthorhombic'
loop_
_space_group_symop_operation_xyz
x,y,z
1/2-x,1/2-y,1/2+z
1/2+x,1/2-y,-z
-x,y,1/2-z
-x,-y,-z
1/2+x,1/2+y,1/2-z
1/2-x,1/2+y,z
x,-y,1/2+z
loop_
_atom_site_type_symbol
_atom_site_label
_atom_site_fract_x
_atom_site_fract_y
_atom_site_fract_z
Si Si1 0.818587 0.143049 0.560847
Si Si2 0.366676 0.858231 0.689994
Si Si3 0.451367 0.097536 0.883582
Si Si4 0.284275 0.351733 0.786904
O O1 0.869644 0.221382 0.688167
O O2 0.832614 0.179494 0.369445
O O3 0.746481 0.219250 0.613272
O O4 0.812708 0.975862 0.596977
O O5 0.400864 0.824934 0.512959
O O6 0.286556 0.094607 0.195603
O O7 0.406237 0.987429 0.777032
O O8 0.500000 0.177142 0.750000
O O9 0.500000 0.000000 0.000000
#
# Coordination Sequence:
#
# PCOD9454953 Si02
#       4
#     8   8   8   8
#     4  10  21  32  52  74 120 142 182 207 264 326
#     4   9  20  31  52  77 112 135 177 223 270 312
#     4   9  17  33  52  77 102 131 181 235 271 297
#     4  10  20  34  50  80 114 146 174 212 258 336
#
# _framework density 21.828361999999998
#
# number of rings (size 3 to 8) (size 9 to 14) (size 15 to 20)
#    1.500    1.000    0.000    3.000    3.500    0.000 
#    0.000    0.000    0.000    0.000    0.000   22.750 
#    0.000    0.000    0.000    0.000    0.000    0.000 
#
# Total GULP energy -178259.344519 kJ/mol
# GULP energy per Si atom -5570.604516 kJ/mol
# Density = 2.177868 g / cm^3
# Si number density = 21.828362 Si / 1000 Ang^3
#
#
#
# Elastic Constant Matrix: (Units=GPa)
#
#
# Indices 1 2 3 4 5 6 
#
# 1 44.6337 -8.4860 -12.4966 0.0000 0.0000 0.0000
# 2 -8.4860 46.5433 13.5377 0.0000 0.0000 0.0000
# 3 -12.4966 13.5377 79.3963 0.0000 0.0000 0.0000
# 4 0.0000 0.0000 0.0000 31.4362 0.0000 0.0000
# 5 0.0000 0.0000 0.0000 0.0000 41.7371 0.0000
# 6 0.0000 0.0000 0.0000 0.0000 0.0000 13.1051
#
#
#
# Elastic Compliance Matrix: (Units=1/GPa)
#
#
# Indices 1 2 3 4 5 6 
#
# 1 0.023950 0.003441 0.003183 0.000000 0.000000 0.000000
# 2 0.003441 0.023101 -0.003397 0.000000 0.000000 0.000000
# 3 0.003183 -0.003397 0.013675 0.000000 0.000000 0.000000
# 4 0.000000 0.000000 0.000000 0.031810 0.000000 0.000000
# 5 0.000000 0.000000 0.000000 0.000000 0.023960 0.000000
# 6 0.000000 0.000000 0.000000 0.000000 0.000000 0.076306
#
#
# Mechanical properties :
#
#
# Convention : Reuss Voigt Hill
#
# Bulk Modulus (GPa) = 14.88558 17.29816 16.09187
# Shear Modulus (GPa) = 23.95298 29.12355 26.53827
#
# Velocity S-wave (km/s) = 3.31620 3.65664 3.49057
# Velocity P-wave (km/s) = 4.63649 5.07640 4.86143
#
# Compressibility (1/GPa) = 0.06717913
#
# Stress axis : x y z
#
# Youngs Moduli (GPa) = 41.75370 43.28844 73.12460
#
# Poissons Ratio (x) = -0.14895 -0.23275
# Poissons Ratio (y) = -0.14367 0.24843
# Poissons Ratio (z) = -0.13290 0.14706
#
# Static dielectric constant tensor:
#      x y z
#    x 1.869130 0.000000 0.000000 
#    y 0.000000 1.735650 0.000000 
#    z 0.000000 0.000000 1.875240 
# 
# From -- ./inp_files/7131.got.cif
#   From: 2010.05.17/outbox.cif.g08.bks.cpg/sg60_4_cif.got.tgz:7131.got - 2010.06.03 14:59:27.
