data_PCOD9454465
_publ_section_title
;
Structure prediction by ZEFSAII (Michael W. Deem and Ramdas Pophale) SiO2 
 PCOD9454465
Probable space group: P B C N
;
_chemical_formula_sum "Si O2"
_cell_formula_units_Z 64
_cell_length_a 8.505652
_cell_length_b 14.362768
_cell_length_c 26.180272
_cell_angle_alpha 90.000000
_cell_angle_beta 90.000000
_cell_angle_gamma 90.000000
_cell_volume 3198.305241
_symmetry_space_group_name_H-M "P B C N"
_symmetry_group_IT_number 60
_symmetry_cell_setting 'orthorhombic'
loop_
_space_group_symop_operation_xyz
x,y,z
1/2-x,1/2-y,1/2+z
1/2+x,1/2-y,-z
-x,y,1/2-z
-x,-y,-z
1/2+x,1/2+y,1/2-z
1/2-x,1/2+y,z
x,-y,1/2+z
loop_
_atom_site_type_symbol
_atom_site_label
_atom_site_fract_x
_atom_site_fract_y
_atom_site_fract_z
Si Si1 0.904216 0.395539 0.936647
Si Si2 0.801329 0.805873 0.394536
Si Si3 0.090553 0.000011 0.587616
Si Si4 0.191444 0.637826 0.365352
Si Si5 0.388207 0.351534 0.961139
Si Si6 0.935023 0.984074 0.693569
Si Si7 0.012732 0.200370 0.807289
Si Si8 0.422769 0.172012 0.527528
O O1 0.841842 0.293281 0.919415
O O2 0.763242 0.466076 0.927767
O O3 0.056355 0.411592 0.900327
O O4 0.953459 0.389733 0.996250
O O5 0.628071 0.834962 0.413416
O O6 0.842207 0.802455 0.334921
O O7 0.917125 0.888683 0.413097
O O8 0.966338 0.950551 0.550651
O O9 0.055884 0.968553 0.646125
O O10 0.318297 0.675728 0.405914
O O11 0.279632 0.570406 0.325342
O O12 0.113387 0.725977 0.338653
O O13 0.516606 0.277287 0.978719
O O14 0.240067 0.346722 0.998185
O O15 0.000000 0.957564 0.750000
O O16 0.915651 0.096329 0.694127
O O17 0.000000 0.234147 0.750000
#
# Coordination Sequence:
#
# PCOD9454465 Si02
#       8
#     8   8   8   8   8   8   8   8
#     4  10  20  37  54  80 115 141 185 230 271 329
#     4  10  20  34  57  79 105 150 179 217 284 323
#     4  10  20  36  54  80 110 145 182 229 270 335
#     4   9  20  35  56  84 106 148 182 225 276 326
#     4  10  19  34  55  77 110 143 184 221 269 324
#     4   9  19  37  59  81 110 146 182 227 282 329
#     4   9  19  38  60  82 110 144 185 224 276 342
#     4  11  19  35  55  78 108 149 180 225 274 322
#
# _framework density 20.010597000000001
#
# number of rings (size 3 to 8) (size 9 to 14) (size 15 to 20)
#    0.000    2.250    2.500    0.000    0.000    3.000 
#    2.250    0.000    0.000    0.750    0.000    0.000 
#    0.000    0.000    0.000    0.000    0.000    0.000 
#
# Total GULP energy -356603.618383 kJ/mol
# GULP energy per Si atom -5571.931537 kJ/mol
# Density = 1.996505 g / cm^3
# Si number density = 20.010597 Si / 1000 Ang^3
#
#
#
# Elastic Constant Matrix: (Units=GPa)
#
#
# Indices 1 2 3 4 5 6 
#
# 1 68.0858 9.6424 33.4908 0.0000 0.0000 0.0000
# 2 9.6424 49.9093 17.6230 0.0000 0.0000 0.0000
# 3 33.4908 17.6230 113.2749 0.0000 0.0000 0.0000
# 4 0.0000 0.0000 0.0000 21.6236 0.0000 0.0000
# 5 0.0000 0.0000 0.0000 0.0000 28.9961 0.0000
# 6 0.0000 0.0000 0.0000 0.0000 0.0000 20.2341
#
#
#
# Elastic Compliance Matrix: (Units=1/GPa)
#
#
# Indices 1 2 3 4 5 6 
#
# 1 0.017311 -0.001627 -0.004865 0.000000 0.000000 0.000000
# 2 -0.001627 0.021354 -0.002841 0.000000 0.000000 0.000000
# 3 -0.004865 -0.002841 0.010709 0.000000 0.000000 0.000000
# 4 0.000000 0.000000 0.000000 0.046246 0.000000 0.000000
# 5 0.000000 0.000000 0.000000 0.000000 0.034487 0.000000
# 6 0.000000 0.000000 0.000000 0.000000 0.000000 0.049421
#
#
# Mechanical properties :
#
#
# Convention : Reuss Voigt Hill
#
# Bulk Modulus (GPa) = 32.56543 39.19804 35.88173
# Shear Modulus (GPa) = 23.98896 25.53836 24.76366
#
# Velocity S-wave (km/s) = 3.46614 3.57633 3.52167
# Velocity P-wave (km/s) = 5.68580 6.05679 5.87422
#
# Compressibility (1/GPa) = 0.03070741
#
# Stress axis : x y z
#
# Youngs Moduli (GPa) = 57.76753 46.82995 93.38365
#
# Poissons Ratio (x) = 0.07617 0.45431
# Poissons Ratio (y) = 0.09396 0.26533
# Poissons Ratio (z) = 0.28104 0.13306
#
# Static dielectric constant tensor:
#      x y z
#    x 1.718770 0.000000 0.000000 
#    y 0.000000 1.711520 0.000000 
#    z 0.000000 0.000000 1.767180 
# 
# From -- ./inp_files/24112.got.cif
#   From: 2010.05.17/outbox.cif.g08.bks.cpg/sg60_13_cif.got.tgz:24112.got - 2010.06.03 14:59:27.
