data_PCOD9454960
_publ_section_title
;
Structure prediction by ZEFSAII (Michael W. Deem and Ramdas Pophale) SiO2 
 PCOD9454960
Probable space group: P B C N
;
_chemical_formula_sum "Si O2"
_cell_formula_units_Z 36
_cell_length_a 5.235843
_cell_length_b 38.376267
_cell_length_c 7.741626
_cell_angle_alpha 90.000000
_cell_angle_beta 90.000000
_cell_angle_gamma 90.000000
_cell_volume 1555.541239
_symmetry_space_group_name_H-M "P B C N"
_symmetry_group_IT_number 60
_symmetry_cell_setting 'orthorhombic'
loop_
_space_group_symop_operation_xyz
x,y,z
1/2-x,1/2-y,1/2+z
1/2+x,1/2-y,-z
-x,y,1/2-z
-x,-y,-z
1/2+x,1/2+y,1/2-z
1/2-x,1/2+y,z
x,-y,1/2+z
loop_
_atom_site_type_symbol
_atom_site_label
_atom_site_fract_x
_atom_site_fract_y
_atom_site_fract_z
Si Si1 0.506403 0.040642 0.542634
Si Si2 0.004824 0.081301 0.537182
Si Si3 0.398889 0.658278 0.949794
Si Si4 0.000000 0.312110 0.250000
Si Si5 0.854058 0.771567 0.466852
O O1 0.500000 0.043424 0.750000
O O2 0.766415 0.058131 0.480196
O O3 0.264068 0.062764 0.480076
O O4 0.500000 0.000000 0.500000
O O5 0.966644 0.120950 0.474959
O O6 0.000000 0.081785 0.750000
O O7 0.500000 0.655530 0.750000
O O8 0.097239 0.665104 0.911339
O O9 0.522522 0.692357 0.039356
O O10 0.768992 0.286451 0.291514
O O11 0.585306 0.756035 0.540492
#
# Coordination Sequence:
#
# PCOD9454960 Si02
#       5
#     8   8   8   4   8
#     4  10  20  34  53  83 109 143 177 221 272 328
#     4   9  19  31  53  79 108 130 171 219 272 324
#     4   9  19  31  52  78 108 132 174 228 286 315
#     4  10  20  34  52  80 106 136 176 234 284 322
#     4  11  21  33  50  77 106 139 176 216 279 330
#
# _framework density 23.143069000000001
#
# number of rings (size 3 to 8) (size 9 to 14) (size 15 to 20)
#    0.000    2.222    2.222    0.667   10.889    0.000 
#    0.000    0.000    0.000    0.000   11.556    0.000 
#    0.000    0.000    0.000    0.000    0.000    0.000 
#
# Total GULP energy -200476.723648 kJ/mol
# GULP energy per Si atom -5568.797879 kJ/mol
# Density = 2.309039 g / cm^3
# Si number density = 23.143069 Si / 1000 Ang^3
#
#
#
# Elastic Constant Matrix: (Units=GPa)
#
#
# Indices 1 2 3 4 5 6 
#
# 1 201.7534 109.1711 8.2356 0.0000 0.0000 0.0000
# 2 109.1711 211.6609 4.8877 0.0000 0.0000 0.0000
# 3 8.2356 4.8877 24.1113 0.0000 0.0000 0.0000
# 4 0.0000 0.0000 0.0000 10.2860 0.0000 0.0000
# 5 0.0000 0.0000 0.0000 0.0000 15.1108 0.0000
# 6 0.0000 0.0000 0.0000 0.0000 0.0000 43.6879
#
#
#
# Elastic Compliance Matrix: (Units=1/GPa)
#
#
# Indices 1 2 3 4 5 6 
#
# 1 0.006940 -0.003542 -0.001653 0.000000 0.000000 0.000000
# 2 -0.003542 0.006554 -0.000119 0.000000 0.000000 0.000000
# 3 -0.001653 -0.000119 0.042063 0.000000 0.000000 0.000000
# 4 0.000000 0.000000 0.000000 0.097220 0.000000 0.000000
# 5 0.000000 0.000000 0.000000 0.000000 0.066178 0.000000
# 6 0.000000 0.000000 0.000000 0.000000 0.000000 0.022890
#
#
# Mechanical properties :
#
#
# Convention : Reuss Voigt Hill
#
# Bulk Modulus (GPa) = 22.25636 75.79048 49.02342
# Shear Modulus (GPa) = 18.69524 34.83235 26.76380
#
# Velocity S-wave (km/s) = 2.84529 3.88376 3.40435
# Velocity P-wave (km/s) = 4.52017 7.27538 6.05653
#
# Compressibility (1/GPa) = 0.04493098
#
# Stress axis : x y z
#
# Youngs Moduli (GPa) = 144.08403 152.57933 23.77391
#
# Poissons Ratio (x) = 0.54037 0.03929
# Poissons Ratio (y) = 0.51028 0.00283
# Poissons Ratio (z) = 0.23813 0.01814
#
# Static dielectric constant tensor:
#      x y z
#    x 2.172570 0.000000 0.000000 
#    y 0.000000 1.902420 0.000000 
#    z 0.000000 0.000000 2.041570 
# 
# From -- ./inp_files/13844.got.cif
#   From: 2010.05.17/outbox.cif.g08.bks.cpg/sg60_7_cif.got.tgz:13844.got - 2010.06.03 14:59:27.
