data_PCOD9454323
_publ_section_title
;
Structure prediction by ZEFSAII (Michael W. Deem and Ramdas Pophale) SiO2 
 PCOD9454323
Probable space group: P B C N
;
_chemical_formula_sum "Si O2"
_cell_formula_units_Z 60
_cell_length_a 18.434482
_cell_length_b 16.952010
_cell_length_c 10.002109
_cell_angle_alpha 90.000000
_cell_angle_beta 90.000000
_cell_angle_gamma 90.000000
_cell_volume 3125.674298
_symmetry_space_group_name_H-M "P B C N"
_symmetry_group_IT_number 60
_symmetry_cell_setting 'orthorhombic'
loop_
_space_group_symop_operation_xyz
x,y,z
1/2-x,1/2-y,1/2+z
1/2+x,1/2-y,-z
-x,y,1/2-z
-x,-y,-z
1/2+x,1/2+y,1/2-z
1/2-x,1/2+y,z
x,-y,1/2+z
loop_
_atom_site_type_symbol
_atom_site_label
_atom_site_fract_x
_atom_site_fract_y
_atom_site_fract_z
Si Si1 0.611632 0.875767 0.918958
Si Si2 0.000000 0.462315 0.750000
Si Si3 0.880666 0.587714 0.704931
Si Si4 0.643859 0.789131 0.411342
Si Si5 0.659146 0.747457 0.704202
Si Si6 0.739605 0.016499 0.316138
Si Si7 0.194290 0.867362 0.088680
Si Si8 0.813454 0.171303 0.196277
O O1 0.536533 0.911333 0.866278
O O2 0.630355 0.805709 0.818703
O O3 0.674199 0.941722 0.896340
O O4 0.614559 0.857547 0.075100
O O5 0.062028 0.517924 0.809614
O O6 0.896355 0.638660 0.837781
O O7 0.802819 0.544724 0.719057
O O8 0.622848 0.764281 0.561172
O O9 0.726752 0.823471 0.417315
O O10 0.641454 0.714361 0.312043
O O11 0.657273 0.662634 0.774856
O O12 0.743120 0.771712 0.682978
O O13 0.782728 0.086787 0.245409
O O14 0.789568 0.960091 0.404975
O O15 0.155336 0.841848 0.951735
#
# Coordination Sequence:
#
# PCOD9454323 Si02
#       8
#     8   4   8   8   8   8   8   8
#     4  10  19  32  47  64  88 120 153 188 226 266
#     4  10  22  32  48  70  90 114 152 192 226 262
#     4  10  19  32  47  64  88 120 153 188 226 266
#     4   9  18  29  42  60  85 115 150 186 222 264
#     4   9  18  29  42  60  85 115 150 186 222 264
#     4   9  18  27  44  68  92 117 152 189 222 262
#     4   9  16  27  42  61  85 117 150 182 221 267
#     4   9  16  27  42  61  85 117 150 182 221 267
#
# _framework density 19.195858000000001
#
# number of rings (size 3 to 8) (size 9 to 14) (size 15 to 20)
#    0.000    2.667    0.000    2.000    0.000   14.933 
#    0.000    0.000    0.000    0.000    0.000    0.000 
#    0.000    1.067    0.000    7.467    0.000    5.067 
#
# Total GULP energy -334269.934835 kJ/mol
# GULP energy per Si atom -5571.165581 kJ/mol
# Density = 1.915217 g / cm^3
# Si number density = 19.195858 Si / 1000 Ang^3
#
#
#
# Elastic Constant Matrix: (Units=GPa)
#
#
# Indices 1 2 3 4 5 6 
#
# 1 5.1438 -4.7845 -12.1606 0.0000 0.0000 0.0000
# 2 -4.7845 50.5613 -4.2092 0.0000 0.0000 0.0000
# 3 -12.1606 -4.2092 64.1278 0.0000 0.0000 0.0000
# 4 0.0000 0.0000 0.0000 10.6779 0.0000 0.0000
# 5 0.0000 0.0000 0.0000 0.0000 6.9103 0.0000
# 6 0.0000 0.0000 0.0000 0.0000 0.0000 4.3218
#
#
#
# Elastic Compliance Matrix: (Units=1/GPa)
#
#
# Indices 1 2 3 4 5 6 
#
# 1 0.450866 0.050056 0.088784 0.000000 0.000000 0.000000
# 2 0.050056 0.025444 0.011162 0.000000 0.000000 0.000000
# 3 0.088784 0.011162 0.033163 0.000000 0.000000 0.000000
# 4 0.000000 0.000000 0.000000 0.093652 0.000000 0.000000
# 5 0.000000 0.000000 0.000000 0.000000 0.144711 0.000000
# 6 0.000000 0.000000 0.000000 0.000000 0.000000 0.231388
#
#
# Mechanical properties :
#
#
# Convention : Reuss Voigt Hill
#
# Bulk Modulus (GPa) = 1.23537 8.61380 4.92458
# Shear Modulus (GPa) = 5.26846 13.78115 9.52480
#
# Velocity S-wave (km/s) = 1.65848 2.68232 2.22995
# Velocity P-wave (km/s) = 2.07662 3.75368 3.03336
#
# Compressibility (1/GPa) = 0.80947598
#
# Stress axis : x y z
#
# Youngs Moduli (GPa) = 2.21795 39.30219 30.15432
#
# Poissons Ratio (x) = -1.96730 -2.67722
# Poissons Ratio (y) = -0.11102 -0.33659
# Poissons Ratio (z) = -0.19692 -0.43870
#
# Static dielectric constant tensor:
#      x y z
#    x 1.675450 0.000000 0.000000 
#    y 0.000000 1.684730 0.000000 
#    z 0.000000 0.000000 1.727130 
# 
# From -- ./inp_files/7953.got.cif
#   From: 2010.05.17/outbox.cif.g08.bks.cpg/sg60_4_cif.got.tgz:7953.got - 2010.06.03 14:59:27.
