data_PCOD9454654
_publ_section_title
;
Structure prediction by ZEFSAII (Michael W. Deem and Ramdas Pophale) SiO2 
 PCOD9454654
Probable space group: P B C N
;
_chemical_formula_sum "Si O2"
_cell_formula_units_Z 40
_cell_length_a 6.405485
_cell_length_b 26.094127
_cell_length_c 12.161211
_cell_angle_alpha 90.000000
_cell_angle_beta 90.000000
_cell_angle_gamma 90.000000
_cell_volume 2032.692169
_symmetry_space_group_name_H-M "P B C N"
_symmetry_group_IT_number 60
_symmetry_cell_setting 'orthorhombic'
loop_
_space_group_symop_operation_xyz
x,y,z
1/2-x,1/2-y,1/2+z
1/2+x,1/2-y,-z
-x,y,1/2-z
-x,-y,-z
1/2+x,1/2+y,1/2-z
1/2-x,1/2+y,z
x,-y,1/2+z
loop_
_atom_site_type_symbol
_atom_site_label
_atom_site_fract_x
_atom_site_fract_y
_atom_site_fract_z
Si Si1 0.682355 0.683038 0.073787
Si Si2 0.659800 0.571323 0.081675
Si Si3 0.871639 0.975096 0.348813
Si Si4 0.000000 0.281304 0.750000
Si Si5 0.879138 0.276768 0.359677
Si Si6 0.500000 0.037987 0.250000
O O1 0.569654 0.628600 0.090270
O O2 0.856960 0.687310 0.167427
O O3 0.526035 0.731157 0.090851
O O4 0.807427 0.686464 0.958500
O O5 0.514844 0.524418 0.120420
O O6 0.867368 0.568040 0.157136
O O7 0.680957 0.559736 0.952593
O O8 0.000000 0.948385 0.250000
O O9 0.660918 0.000715 0.309293
O O10 0.163160 0.247243 0.682495
O O11 0.000000 0.296855 0.250000
#
# Coordination Sequence:
#
# PCOD9454654 Si02
#       6
#     8   8   8   4   8   4
#     4  11  21  39  60  86 115 154 193 237 289 340
#     4  10  21  36  59  85 112 149 189 232 288 338
#     4   9  20  39  55  82 118 146 182 235 286 342
#     4  10  21  38  60  82 116 150 196 244 281 334
#     4  10  22  39  58  81 119 153 189 239 287 336
#     4  10  19  36  62  84 110 144 190 240 277 338
#
# _framework density 19.678336999999999
#
# number of rings (size 3 to 8) (size 9 to 14) (size 15 to 20)
#    0.000    2.000    2.000    1.200    0.000    8.800 
#    3.600    0.000    0.000    0.000    0.000    0.000 
#    0.000    0.000    0.000    0.000    0.000    0.000 
#
# Total GULP energy -222921.008164 kJ/mol
# GULP energy per Si atom -5573.025204 kJ/mol
# Density = 1.963355 g / cm^3
# Si number density = 19.678337 Si / 1000 Ang^3
#
#
#
# Elastic Constant Matrix: (Units=GPa)
#
#
# Indices 1 2 3 4 5 6 
#
# 1 74.1652 10.0113 19.1957 0.0000 0.0000 0.0000
# 2 10.0113 38.1034 20.9366 0.0000 0.0000 0.0000
# 3 19.1957 20.9366 119.6794 0.0000 0.0000 0.0000
# 4 0.0000 0.0000 0.0000 -47.0739 0.0000 0.0000
# 5 0.0000 0.0000 0.0000 0.0000 21.9642 0.0000
# 6 0.0000 0.0000 0.0000 0.0000 0.0000 -1.9673
#
#
#
# Elastic Compliance Matrix: (Units=1/GPa)
#
#
# Indices 1 2 3 4 5 6 
#
# 1 0.014326 -0.002768 -0.001814 0.000000 0.000000 0.000000
# 2 -0.002768 0.029570 -0.004729 0.000000 0.000000 0.000000
# 3 -0.001814 -0.004729 0.009474 0.000000 0.000000 0.000000
# 4 0.000000 0.000000 0.000000 -0.021243 0.000000 0.000000
# 5 0.000000 0.000000 0.000000 0.000000 0.045529 0.000000
# 6 0.000000 0.000000 0.000000 0.000000 0.000000 -0.508324
#
#
# Mechanical properties :
#
#
# Convention : Reuss Voigt Hill
#
# Bulk Modulus (GPa) = 28.77726 36.91503 32.84614
# Shear Modulus (GPa) = -12.48552 6.70490 -2.89031
#
# Velocity S-wave (km/s) = -2.52162 1.84788 -1.21325
# Velocity P-wave (km/s) = 2.48545 4.83247 3.84254
#
# Compressibility (1/GPa) = 0.03474966
#
# Stress axis : x y z
#
# Youngs Moduli (GPa) = 69.80106 33.81802 105.55360
#
# Poissons Ratio (x) = 0.09359 0.19144
# Poissons Ratio (y) = 0.19318 0.49917
# Poissons Ratio (z) = 0.12660 0.15993
#
# Static dielectric constant tensor:
#      x y z
#    x 1.674940 0.000000 0.000000 
#    y 0.000000 1.678090 0.000000 
#    z 0.000000 0.000000 1.745020 
# 
# From -- ./inp_files/9139.got.cif
#   From: 2010.05.17/outbox.cif.g08.bks.cpg/sg60_5_cif.got.tgz:9139.got - 2010.06.03 14:59:27.
