data_PCOD9454791
_publ_section_title
;
Structure prediction by ZEFSAII (Michael W. Deem and Ramdas Pophale) SiO2 
 PCOD9454791
Probable space group: P B C N
;
_chemical_formula_sum "Si O2"
_cell_formula_units_Z 64
_cell_length_a 16.032893
_cell_length_b 13.953521
_cell_length_c 14.161199
_cell_angle_alpha 90.000000
_cell_angle_beta 90.000000
_cell_angle_gamma 90.000000
_cell_volume 3168.077012
_symmetry_space_group_name_H-M "P B C N"
_symmetry_group_IT_number 60
_symmetry_cell_setting 'orthorhombic'
loop_
_space_group_symop_operation_xyz
x,y,z
1/2-x,1/2-y,1/2+z
1/2+x,1/2-y,-z
-x,y,1/2-z
-x,-y,-z
1/2+x,1/2+y,1/2-z
1/2-x,1/2+y,z
x,-y,1/2+z
loop_
_atom_site_type_symbol
_atom_site_label
_atom_site_fract_x
_atom_site_fract_y
_atom_site_fract_z
Si Si1 0.407330 0.139088 0.711001
Si Si2 0.530463 0.842550 0.855701
Si Si3 0.615532 0.871413 0.511408
Si Si4 0.280149 0.517520 0.516648
Si Si5 0.742852 0.739204 0.262332
Si Si6 0.788169 0.816356 0.071095
Si Si7 0.191670 0.540954 0.204820
Si Si8 0.154299 0.781759 0.047615
O O1 0.500000 0.137694 0.750000
O O2 0.410483 0.124296 0.597911
O O3 0.354245 0.234589 0.732350
O O4 0.349101 0.052619 0.751173
O O5 0.500000 0.818122 0.750000
O O6 0.457490 0.891387 0.914889
O O7 0.610944 0.909720 0.843764
O O8 0.565183 0.753766 0.916462
O O9 0.692866 0.942888 0.524564
O O10 0.649764 0.764360 0.530961
O O11 0.307901 0.422197 0.463909
O O12 0.256668 0.490905 0.624547
O O13 0.340990 0.608491 0.516088
O O14 0.786636 0.802392 0.182607
O O15 0.764945 0.628560 0.240456
O O16 0.783272 0.767232 0.362807
O O17 0.696462 0.785364 0.031779
#
# Coordination Sequence:
#
# PCOD9454791 Si02
#       8
#     8   8   8   8   8   8   8   8
#     4  11  23  36  60  97 128 153 203 262 316 361
#     4  11  22  37  61  86 125 156 200 251 311 356
#     4  10  22  40  58  92 125 158 195 259 314 357
#     4  10  19  39  63  84 121 157 204 247 297 360
#     4  11  21  38  63  88 122 167 205 243 311 372
#     4  11  21  37  64  86 119 165 204 245 298 371
#     4  10  20  39  62  88 120 160 198 256 294 371
#     4  10  21  41  56  89 119 161 204 245 296 369
#
# _framework density 20.201529000000001
#
# number of rings (size 3 to 8) (size 9 to 14) (size 15 to 20)
#    0.000    1.500    6.250    1.875    1.750    6.000 
#    0.000    0.625    0.000    3.000    0.000    0.000 
#    0.000    0.000    0.000    0.000    0.000    0.000 
#
# Total GULP energy -357440.047036 kJ/mol
# GULP energy per Si atom -5585.000735 kJ/mol
# Density = 2.015555 g / cm^3
# Si number density = 20.201529 Si / 1000 Ang^3
#
#
#
# Elastic Constant Matrix: (Units=GPa)
#
#
# Indices 1 2 3 4 5 6 
#
# 1 42.6872 21.1379 7.2050 0.0000 0.0000 0.0000
# 2 21.1379 99.0235 0.8251 0.0000 0.0000 0.0000
# 3 7.2050 0.8251 46.8856 0.0000 0.0000 0.0000
# 4 0.0000 0.0000 0.0000 18.6634 0.0000 0.0000
# 5 0.0000 0.0000 0.0000 0.0000 25.6193 0.0000
# 6 0.0000 0.0000 0.0000 0.0000 0.0000 13.4014
#
#
#
# Elastic Compliance Matrix: (Units=1/GPa)
#
#
# Indices 1 2 3 4 5 6 
#
# 1 0.026939 -0.005717 -0.004039 0.000000 0.000000 0.000000
# 2 -0.005717 0.011313 0.000679 0.000000 0.000000 0.000000
# 3 -0.004039 0.000679 0.021937 0.000000 0.000000 0.000000
# 4 0.000000 0.000000 0.000000 0.053581 0.000000 0.000000
# 5 0.000000 0.000000 0.000000 0.000000 0.039033 0.000000
# 6 0.000000 0.000000 0.000000 0.000000 0.000000 0.074619
#
#
# Mechanical properties :
#
#
# Convention : Reuss Voigt Hill
#
# Bulk Modulus (GPa) = 23.78895 27.43692 25.61293
# Shear Modulus (GPa) = 19.26136 22.16539 20.71337
#
# Velocity S-wave (km/s) = 3.09117 3.31601 3.20556
# Velocity P-wave (km/s) = 4.95397 5.31718 5.13878
#
# Compressibility (1/GPa) = 0.04203632
#
# Stress axis : x y z
#
# Youngs Moduli (GPa) = 37.12118 88.39174 45.58460
#
# Poissons Ratio (x) = 0.50532 0.18412
# Poissons Ratio (y) = 0.21221 -0.03097
# Poissons Ratio (z) = 0.14994 -0.06006
#
# Static dielectric constant tensor:
#      x y z
#    x 1.701460 0.000000 0.000000 
#    y 0.000000 1.764260 0.000000 
#    z 0.000000 0.000000 1.772110 
# 
# From -- ./inp_files/17539.got.cif
#   From: 2010.05.17/outbox.cif.g08.bks.cpg/sg60_9_cif.got.tgz:17539.got - 2010.06.03 14:59:27.
