data_PCOD9454587
_publ_section_title
;
Structure prediction by ZEFSAII (Michael W. Deem and Ramdas Pophale) SiO2 
 PCOD9454587
Probable space group: P B C N
;
_chemical_formula_sum "Si O2"
_cell_formula_units_Z 60
_cell_length_a 27.316167
_cell_length_b 5.735609
_cell_length_c 15.975152
_cell_angle_alpha 90.000000
_cell_angle_beta 90.000000
_cell_angle_gamma 90.000000
_cell_volume 2502.904596
_symmetry_space_group_name_H-M "P B C N"
_symmetry_group_IT_number 60
_symmetry_cell_setting 'orthorhombic'
loop_
_space_group_symop_operation_xyz
x,y,z
1/2-x,1/2-y,1/2+z
1/2+x,1/2-y,-z
-x,y,1/2-z
-x,-y,-z
1/2+x,1/2+y,1/2-z
1/2-x,1/2+y,z
x,-y,1/2+z
loop_
_atom_site_type_symbol
_atom_site_label
_atom_site_fract_x
_atom_site_fract_y
_atom_site_fract_z
Si Si1 0.452969 0.268847 0.374851
Si Si2 0.866529 0.396963 0.374969
Si Si3 0.500000 0.087610 0.750000
Si Si4 0.420755 0.414076 0.728340
Si Si5 0.630358 0.406642 0.027248
Si Si6 0.270382 0.876877 0.597564
Si Si7 0.264140 0.572350 0.904613
Si Si8 0.562631 0.262437 0.425793
O O1 0.466811 0.071942 0.307965
O O2 0.435170 0.489537 0.318650
O O3 0.404287 0.220541 0.426524
O O4 0.503634 0.287328 0.427406
O O5 0.875995 0.260479 0.288601
O O6 0.849089 0.204741 0.441948
O O7 0.826788 0.598050 0.376943
O O8 0.915950 0.505860 0.413851
O O9 0.466429 0.259837 0.698695
O O10 0.420509 0.620558 0.661956
O O11 0.677868 0.468225 0.080524
O O12 0.592017 0.606486 0.999052
O O13 0.252248 0.624293 0.627914
O O14 0.262218 0.892952 0.496313
O O15 0.243380 0.331605 0.865337
#
# Coordination Sequence:
#
# PCOD9454587 Si02
#       8
#     8   8   4   8   8   8   8   8
#     4  12  23  41  60  87 130 174 213 260 318 397
#     4  11  22  37  63  95 122 162 216 273 319 394
#     4  12  20  44  60  82 112 184 216 252 310 390
#     4  11  22  40  63  83 120 171 223 256 312 387
#     4  11  25  35  61 100 125 161 213 269 332 391
#     4  10  19  35  62  92 126 164 205 269 337 393
#     4  10  19  39  62  89 129 170 206 261 334 403
#     4  11  21  39  59  90 130 161 209 267 318 386
#
# _framework density 23.972149999999999
#
# number of rings (size 3 to 8) (size 9 to 14) (size 15 to 20)
#    0.000    1.067    6.667    2.000    1.867    1.600 
#    0.000    0.000    0.000    1.600    0.000    0.000 
#    0.000    0.000    0.000    0.000    0.000    0.000 
#
# Total GULP energy -334612.200147 kJ/mol
# GULP energy per Si atom -5576.870002 kJ/mol
# Density = 2.391759 g / cm^3
# Si number density = 23.972150 Si / 1000 Ang^3
#
#
#
# Elastic Constant Matrix: (Units=GPa)
#
#
# Indices 1 2 3 4 5 6 
#
# 1 106.9974 18.1835 15.5603 0.0000 0.0000 0.0000
# 2 18.1835 101.8841 24.9416 0.0000 0.0000 0.0000
# 3 15.5603 24.9416 32.9265 0.0000 0.0000 0.0000
# 4 0.0000 0.0000 0.0000 -803.3847 0.0000 0.0000
# 5 0.0000 0.0000 0.0000 0.0000 13.3485 0.0000
# 6 0.0000 0.0000 0.0000 0.0000 0.0000 42.9797
#
#
#
# Elastic Compliance Matrix: (Units=1/GPa)
#
#
# Indices 1 2 3 4 5 6 
#
# 1 0.010086 -0.000777 -0.004177 0.000000 0.000000 0.000000
# 2 -0.000777 0.012109 -0.008805 0.000000 0.000000 0.000000
# 3 -0.004177 -0.008805 0.039015 0.000000 0.000000 0.000000
# 4 0.000000 0.000000 0.000000 -0.001245 0.000000 0.000000
# 5 0.000000 0.000000 0.000000 0.000000 0.074915 0.000000
# 6 0.000000 0.000000 0.000000 0.000000 0.000000 0.023267
#
#
# Mechanical properties :
#
#
# Convention : Reuss Voigt Hill
#
# Bulk Modulus (GPa) = 29.68282 39.90874 34.79578
# Shear Modulus (GPa) = 25.39396 -137.20313 -55.90459
#
# Velocity S-wave (km/s) = 3.25824 -7.57355 -4.83438
# Velocity P-wave (km/s) = 5.15402 7.73266 4.07616
#
# Compressibility (1/GPa) = 0.03368953
#
# Stress axis : x y z
#
# Youngs Moduli (GPa) = 99.15095 82.58029 25.63127
#
# Poissons Ratio (x) = 0.06420 0.10707
# Poissons Ratio (y) = 0.07708 0.22569
# Poissons Ratio (z) = 0.41419 0.72716
#
# Static dielectric constant tensor:
#      x y z
#    x 1.981810 0.000000 0.000000 
#    y 0.000000 1.966560 0.000000 
#    z 0.000000 0.000000 1.962840 
# 
# From -- ./inp_files/21226.got.cif
#   From: 2010.05.17/outbox.cif.g08.bks.cpg/sg60_11_cif.got.tgz:21226.got - 2010.06.03 14:59:27.
