data_PCOD9454562
_publ_section_title
;
Structure prediction by ZEFSAII (Michael W. Deem and Ramdas Pophale) SiO2 
 PCOD9454562
Probable space group: P B C N
;
_chemical_formula_sum "Si O2"
_cell_formula_units_Z 48
_cell_length_a 15.670939
_cell_length_b 19.410151
_cell_length_c 8.410320
_cell_angle_alpha 90.000000
_cell_angle_beta 90.000000
_cell_angle_gamma 90.000000
_cell_volume 2558.211544
_symmetry_space_group_name_H-M "P B C N"
_symmetry_group_IT_number 60
_symmetry_cell_setting 'orthorhombic'
loop_
_space_group_symop_operation_xyz
x,y,z
1/2-x,1/2-y,1/2+z
1/2+x,1/2-y,-z
-x,y,1/2-z
-x,-y,-z
1/2+x,1/2+y,1/2-z
1/2-x,1/2+y,z
x,-y,1/2+z
loop_
_atom_site_type_symbol
_atom_site_label
_atom_site_fract_x
_atom_site_fract_y
_atom_site_fract_z
Si Si1 0.402961 0.089021 0.296314
Si Si2 0.262189 0.841606 0.162644
Si Si3 0.000000 0.970075 0.750000
Si Si4 0.406098 0.059842 0.673987
Si Si5 0.500000 0.298308 0.250000
Si Si6 0.836152 0.273333 0.644870
Si Si7 0.905545 0.086762 0.950881
O O1 0.500000 0.106094 0.250000
O O2 0.405909 0.073445 0.485187
O O3 0.340989 0.153271 0.263541
O O4 0.379777 0.018621 0.208110
O O5 0.336216 0.887377 0.240974
O O6 0.217616 0.788684 0.281769
O O7 0.193233 0.893323 0.079494
O O8 0.303108 0.793806 0.027164
O O9 0.941159 0.926911 0.627951
O O10 0.062952 0.020039 0.649031
O O11 0.500000 0.069268 0.750000
O O12 0.567254 0.253272 0.153358
O O13 0.546827 0.347884 0.374506
#
# Coordination Sequence:
#
# PCOD9454562 Si02
#       7
#     8   8   4   8   4   8   8
#     4  10  19  35  58  80 108 151 190 233 287 346
#     4  10  23  38  55  87 117 151 193 246 286 342
#     4   9  18  36  60  86 112 151 186 228 292 357
#     4  10  21  36  55  85 116 146 195 239 294 347
#     4   9  18  38  56  74 112 153 182 238 282 347
#     4  10  21  38  57  81 115 149 194 231 296 343
#     4   9  19  35  58  84 115 146 191 235 287 343
#
# _framework density 18.763109
#
# number of rings (size 3 to 8) (size 9 to 14) (size 15 to 20)
#    0.000    2.333    0.833    2.000    0.000    6.667 
#    3.000    3.333    0.000    0.000    0.000    0.000 
#    0.000    0.000    0.000    0.000    0.000    0.000 
#
# Total GULP energy -267507.983035 kJ/mol
# GULP energy per Si atom -5573.082980 kJ/mol
# Density = 1.872040 g / cm^3
# Si number density = 18.763109 Si / 1000 Ang^3
#
#
#
# Elastic Constant Matrix: (Units=GPa)
#
#
# Indices 1 2 3 4 5 6 
#
# 1 64.6061 29.4086 -6.7573 0.0000 0.0000 0.0000
# 2 29.4086 86.1727 0.5145 0.0000 0.0000 0.0000
# 3 -6.7573 0.5145 26.8041 0.0000 0.0000 0.0000
# 4 0.0000 0.0000 0.0000 7.2515 0.0000 0.0000
# 5 0.0000 0.0000 0.0000 0.0000 19.0722 0.0000
# 6 0.0000 0.0000 0.0000 0.0000 0.0000 31.3476
#
#
#
# Elastic Compliance Matrix: (Units=1/GPa)
#
#
# Indices 1 2 3 4 5 6 
#
# 1 0.018948 -0.006496 0.004901 0.000000 0.000000 0.000000
# 2 -0.006496 0.013833 -0.001903 0.000000 0.000000 0.000000
# 3 0.004901 -0.001903 0.038580 0.000000 0.000000 0.000000
# 4 0.000000 0.000000 0.000000 0.137902 0.000000 0.000000
# 5 0.000000 0.000000 0.000000 0.000000 0.052432 0.000000
# 6 0.000000 0.000000 0.000000 0.000000 0.000000 0.031900
#
#
# Mechanical properties :
#
#
# Convention : Reuss Voigt Hill
#
# Bulk Modulus (GPa) = 15.53617 24.87938 20.20777
# Shear Modulus (GPa) = 15.52575 21.82874 18.67725
#
# Velocity S-wave (km/s) = 2.87968 3.41455 3.15846
# Velocity P-wave (km/s) = 4.39942 5.36973 4.90861
#
# Compressibility (1/GPa) = 0.06436595
#
# Stress axis : x y z
#
# Youngs Moduli (GPa) = 52.77630 72.29195 25.92020
#
# Poissons Ratio (x) = 0.46959 -0.12705
# Poissons Ratio (y) = 0.34282 0.04933
# Poissons Ratio (z) = -0.25868 0.13758
#
# Static dielectric constant tensor:
#      x y z
#    x 1.674740 0.000000 0.000000 
#    y 0.000000 1.656290 0.000000 
#    z 0.000000 0.000000 1.636040 
# 
# From -- ./inp_files/5971.got.cif
#   From: 2010.05.17/outbox.cif.g08.bks.cpg/sg60_3_cif.got.tgz:5971.got - 2010.06.03 14:59:27.
