data_PCOD9454068
_publ_section_title
;
Structure prediction by ZEFSAII (Michael W. Deem and Ramdas Pophale) SiO2 
 PCOD9454068
Probable space group: P B C N
;
_chemical_formula_sum "Si O2"
_cell_formula_units_Z 64
_cell_length_a 11.620854
_cell_length_b 15.205967
_cell_length_c 19.015480
_cell_angle_alpha 90.000000
_cell_angle_beta 90.000000
_cell_angle_gamma 90.000000
_cell_volume 3360.155540
_symmetry_space_group_name_H-M "P B C N"
_symmetry_group_IT_number 60
_symmetry_cell_setting 'orthorhombic'
loop_
_space_group_symop_operation_xyz
x,y,z
1/2-x,1/2-y,1/2+z
1/2+x,1/2-y,-z
-x,y,1/2-z
-x,-y,-z
1/2+x,1/2+y,1/2-z
1/2-x,1/2+y,z
x,-y,1/2+z
loop_
_atom_site_type_symbol
_atom_site_label
_atom_site_fract_x
_atom_site_fract_y
_atom_site_fract_z
Si Si1 0.252446 0.809845 0.694439
Si Si2 0.113349 0.062308 0.005314
Si Si3 0.497888 0.102538 0.836495
Si Si4 0.244601 0.948622 0.358774
Si Si5 0.449516 0.282935 0.592256
Si Si6 0.764543 0.497641 0.361014
Si Si7 0.901300 0.108862 0.197304
Si Si8 0.131822 0.140848 0.735293
O O1 0.174396 0.777996 0.629853
O O2 0.284954 0.910107 0.679049
O O3 0.166130 0.815618 0.760692
O O4 0.349614 0.739037 0.707069
O O5 0.074125 0.163782 0.020493
O O6 0.195589 0.025364 0.068291
O O7 0.189448 0.060874 0.935190
O O8 0.000000 0.000000 0.000000
O O9 0.500000 0.118961 0.750000
O O10 0.381750 0.049738 0.853650
O O11 0.495875 0.189521 0.886401
O O12 0.612255 0.050608 0.860778
O O13 0.202763 0.871108 0.307202
O O14 0.186887 0.035454 0.326282
O O15 0.529504 0.352739 0.632546
O O16 0.682893 0.430612 0.318549
O O17 0.000000 0.074657 0.250000
O O18 0.000000 0.124371 0.750000
#
# Coordination Sequence:
#
# PCOD9454068 Si02
#       8
#     8   8   8   8   8   8   8   8
#     4  10  20  37  63  97 125 163 216 269 338 392
#     4  11  24  44  63  94 136 177 227 280 333 407
#     4  12  22  43  69  99 134 170 225 282 335 414
#     4  12  23  39  64  99 130 171 228 273 336 403
#     4  10  20  38  65  86 128 174 212 266 329 407
#     4  11  24  43  68  94 134 183 215 274 355 397
#     4  10  18  33  64  95 125 166 225 272 327 386
#     4  12  23  39  66  99 130 165 228 290 328 385
#
# _framework density 19.046737
#
# number of rings (size 3 to 8) (size 9 to 14) (size 15 to 20)
#    0.000    1.000    5.000    3.000    1.750    2.000 
#    2.250    1.250    0.000    0.000    0.000    0.000 
#    0.000    0.000    0.000    0.000    0.000    0.000 
#
# Total GULP energy -356868.053329 kJ/mol
# GULP energy per Si atom -5576.063333 kJ/mol
# Density = 1.900339 g / cm^3
# Si number density = 19.046737 Si / 1000 Ang^3
#
#
#
# Elastic Constant Matrix: (Units=GPa)
#
#
# Indices 1 2 3 4 5 6 
#
# 1 117.4417 45.5505 10.6738 0.0000 0.0000 0.0000
# 2 45.5505 102.3857 23.8376 0.0000 0.0000 0.0000
# 3 10.6738 23.8376 82.1131 0.0000 0.0000 0.0000
# 4 0.0000 0.0000 0.0000 -21.8522 0.0000 0.0000
# 5 0.0000 0.0000 0.0000 0.0000 23.4879 0.0000
# 6 0.0000 0.0000 0.0000 0.0000 0.0000 76.0843
#
#
#
# Elastic Compliance Matrix: (Units=1/GPa)
#
#
# Indices 1 2 3 4 5 6 
#
# 1 0.010291 -0.004576 -0.000009 0.000000 0.000000 0.000000
# 2 -0.004576 0.012510 -0.003037 0.000000 0.000000 0.000000
# 3 -0.000009 -0.003037 0.013061 0.000000 0.000000 0.000000
# 4 0.000000 0.000000 0.000000 -0.045762 0.000000 0.000000
# 5 0.000000 0.000000 0.000000 0.000000 0.042575 0.000000
# 6 0.000000 0.000000 0.000000 0.000000 0.000000 0.013143
#
#
# Mechanical properties :
#
#
# Convention : Reuss Voigt Hill
#
# Bulk Modulus (GPa) = 48.50272 51.34048 49.92160
# Shear Modulus (GPa) = 73.60026 30.33590 51.96808
#
# Velocity S-wave (km/s) = 6.22301 3.99520 5.22912
# Velocity P-wave (km/s) = 8.78378 6.94951 7.91993
#
# Compressibility (1/GPa) = 0.02061740
#
# Stress axis : x y z
#
# Youngs Moduli (GPa) = 97.17659 79.93694 76.56312
#
# Poissons Ratio (x) = 0.36579 0.00071
# Poissons Ratio (y) = 0.44468 0.23251
# Poissons Ratio (z) = 0.00090 0.24275
#
# Static dielectric constant tensor:
#      x y z
#    x 1.656780 0.000000 0.000000 
#    y 0.000000 1.697030 0.000000 
#    z 0.000000 0.000000 1.685390 
# 
# From -- ./inp_files/20208.got.cif
#   From: 2010.05.17/outbox.cif.g08.bks.cpg/sg60_11_cif.got.tgz:20208.got - 2010.06.03 14:59:27.
