data_PCOD9454146
_publ_section_title
;
Structure prediction by ZEFSAII (Michael W. Deem and Ramdas Pophale) SiO2 
 PCOD9454146
Probable space group: P B C N
;
_chemical_formula_sum "Si O2"
_cell_formula_units_Z 44
_cell_length_a 12.192476
_cell_length_b 25.777936
_cell_length_c 8.104233
_cell_angle_alpha 90.000000
_cell_angle_beta 90.000000
_cell_angle_gamma 90.000000
_cell_volume 2547.135033
_symmetry_space_group_name_H-M "P B C N"
_symmetry_group_IT_number 60
_symmetry_cell_setting 'orthorhombic'
loop_
_space_group_symop_operation_xyz
x,y,z
1/2-x,1/2-y,1/2+z
1/2+x,1/2-y,-z
-x,y,1/2-z
-x,-y,-z
1/2+x,1/2+y,1/2-z
1/2-x,1/2+y,z
x,-y,1/2+z
loop_
_atom_site_type_symbol
_atom_site_label
_atom_site_fract_x
_atom_site_fract_y
_atom_site_fract_z
Si Si1 0.623117 0.045812 0.671077
Si Si2 0.628528 0.934005 0.783165
Si Si3 0.589513 0.259472 0.603848
Si Si4 0.000000 0.740214 0.250000
Si Si5 0.299229 0.828250 0.869527
Si Si6 0.868687 0.343836 0.258029
O O1 0.500000 0.042360 0.750000
O O2 0.627243 0.056925 0.477914
O O3 0.678474 0.098111 0.739624
O O4 0.667209 0.988313 0.704027
O O5 0.500000 0.923476 0.750000
O O6 0.693549 0.885423 0.709336
O O7 0.500000 0.260452 0.750000
O O8 0.532263 0.267088 0.424927
O O9 0.681329 0.301884 0.640822
O O10 0.647991 0.202268 0.625108
O O11 0.106682 0.705439 0.283086
O O12 0.332594 0.826702 0.061866
O O13 0.000000 0.351479 0.250000
#
# Coordination Sequence:
#
# PCOD9454146 Si02
#       6
#     8   8   8   4   8   8
#     4  10  19  30  50  77 120 151 185 233 288 360
#     4  11  19  32  50  83 115 155 187 228 295 352
#     4  11  24  42  57  84 121 152 201 243 281 347
#     4  12  22  38  60  84 112 160 192 232 302 334
#     4  12  22  36  60  83 120 158 189 237 292 342
#     4  10  18  36  51  79 115 149 184 238 282 342
#
# _framework density 17.274311000000001
#
# number of rings (size 3 to 8) (size 9 to 14) (size 15 to 20)
#    0.000    1.091    4.545    7.636    0.000    0.000 
#    3.273    0.000    0.000    0.000    0.000    5.091 
#    0.000    0.000    0.000    0.000    0.000    0.000 
#
# Total GULP energy -245064.181906 kJ/mol
# GULP energy per Si atom -5569.640498 kJ/mol
# Density = 1.723499 g / cm^3
# Si number density = 17.274311 Si / 1000 Ang^3
#
#
#
# Elastic Constant Matrix: (Units=GPa)
#
#
# Indices 1 2 3 4 5 6 
#
# 1 55.2429 45.5690 34.2742 0.0000 0.0000 0.0000
# 2 45.5690 118.7054 32.0156 0.0000 0.0000 0.0000
# 3 34.2742 32.0156 108.8175 0.0000 0.0000 0.0000
# 4 0.0000 0.0000 0.0000 40.8388 0.0000 0.0000
# 5 0.0000 0.0000 0.0000 0.0000 13.6496 0.0000
# 6 0.0000 0.0000 0.0000 0.0000 0.0000 -176.6581
#
#
#
# Elastic Compliance Matrix: (Units=1/GPa)
#
#
# Indices 1 2 3 4 5 6 
#
# 1 0.030371 -0.009862 -0.006665 0.000000 0.000000 0.000000
# 2 -0.009862 0.012352 -0.000528 0.000000 0.000000 0.000000
# 3 -0.006665 -0.000528 0.011444 0.000000 0.000000 0.000000
# 4 0.000000 0.000000 0.000000 0.024487 0.000000 0.000000
# 5 0.000000 0.000000 0.000000 0.000000 0.073262 0.000000
# 6 0.000000 0.000000 0.000000 0.000000 0.000000 -0.005661
#
#
# Mechanical properties :
#
#
# Convention : Reuss Voigt Hill
#
# Bulk Modulus (GPa) = 49.85223 56.27594 53.06409
# Shear Modulus (GPa) = 26.73061 -13.04015 6.84523
#
# Velocity S-wave (km/s) = 3.93799 -2.75050 1.99280
# Velocity P-wave (km/s) = 7.04265 4.74990 6.00668
#
# Compressibility (1/GPa) = 0.02005928
#
# Stress axis : x y z
#
# Youngs Moduli (GPa) = 32.92561 80.95620 87.38010
#
# Poissons Ratio (x) = 0.79836 0.58236
# Poissons Ratio (y) = 0.32470 0.04615
# Poissons Ratio (z) = 0.21944 0.04276
#
# Static dielectric constant tensor:
#      x y z
#    x 1.549180 0.000000 0.000000 
#    y 0.000000 1.671660 0.000000 
#    z 0.000000 0.000000 1.695440 
# 
# From -- ./inp_files/4983.got.cif
#   From: 2010.05.17/outbox.cif.g08.bks.cpg/sg60_3_cif.got.tgz:4983.got - 2010.06.03 14:59:27.
