data_PCOD9454803
_publ_section_title
;
Structure prediction by ZEFSAII (Michael W. Deem and Ramdas Pophale) SiO2 
 PCOD9454803
Probable space group: P B C N
;
_chemical_formula_sum "Si O2"
_cell_formula_units_Z 36
_cell_length_a 18.353854
_cell_length_b 13.934418
_cell_length_c 5.496776
_cell_angle_alpha 90.000000
_cell_angle_beta 90.000000
_cell_angle_gamma 90.000000
_cell_volume 1405.801966
_symmetry_space_group_name_H-M "P B C N"
_symmetry_group_IT_number 60
_symmetry_cell_setting 'orthorhombic'
loop_
_space_group_symop_operation_xyz
x,y,z
1/2-x,1/2-y,1/2+z
1/2+x,1/2-y,-z
-x,y,1/2-z
-x,-y,-z
1/2+x,1/2+y,1/2-z
1/2-x,1/2+y,z
x,-y,1/2+z
loop_
_atom_site_type_symbol
_atom_site_label
_atom_site_fract_x
_atom_site_fract_y
_atom_site_fract_z
Si Si1 0.000000 0.066307 0.750000
Si Si2 0.919878 0.264752 0.713606
Si Si3 0.856831 0.442481 0.478644
Si Si4 0.301030 0.491637 0.499579
Si Si5 0.778606 0.709299 0.492783
O O1 0.064161 0.149699 0.802115
O O2 0.000000 0.000000 0.500000
O O3 0.887268 0.334518 0.504958
O O4 0.863885 0.281223 0.933947
O O5 0.000000 0.306095 0.750000
O O6 0.876999 0.502155 0.727513
O O7 0.768308 0.436718 0.490089
O O8 0.342919 0.509536 0.251841
O O9 0.255917 0.394852 0.487791
O O10 0.757979 0.753972 0.746778
#
# Coordination Sequence:
#
# PCOD9454803 Si02
#       5
#     4   8   8   8   8
#     4  10  26  52  76  98 144 188 274 328 346 424
#     4  10  25  49  78 109 142 204 245 308 373 445
#     4  10  20  37  69 108 155 175 224 285 372 449
#     4  10  19  39  66  96 156 178 225 291 355 436
#     4  12  26  44  70 109 151 194 247 298 367 451
#
# _framework density 25.608158
#
# number of rings (size 3 to 8) (size 9 to 14) (size 15 to 20)
#    0.667    0.889    4.444    1.333    3.111    4.444 
#    0.000    6.667    0.000    0.000    0.000    0.000 
#    0.000    0.000    0.000    0.000    0.000    0.000 
#
# Total GULP energy -200693.597229 kJ/mol
# GULP energy per Si atom -5574.822145 kJ/mol
# Density = 2.554987 g / cm^3
# Si number density = 25.608158 Si / 1000 Ang^3
#
#
#
# Elastic Constant Matrix: (Units=GPa)
#
#
# Indices 1 2 3 4 5 6 
#
# 1 90.6056 22.7385 55.9179 0.0000 0.0000 0.0000
# 2 22.7385 161.6336 100.3376 0.0000 0.0000 0.0000
# 3 55.9179 100.3376 280.5275 0.0000 0.0000 0.0000
# 4 0.0000 0.0000 0.0000 45.7828 0.0000 0.0000
# 5 0.0000 0.0000 0.0000 0.0000 26.1798 0.0000
# 6 0.0000 0.0000 0.0000 0.0000 0.0000 49.8068
#
#
#
# Elastic Compliance Matrix: (Units=1/GPa)
#
#
# Indices 1 2 3 4 5 6 
#
# 1 0.012594 -0.000274 -0.002412 0.000000 0.000000 0.000000
# 2 -0.000274 0.007959 -0.002792 0.000000 0.000000 0.000000
# 3 -0.002412 -0.002792 0.005044 0.000000 0.000000 0.000000
# 4 0.000000 0.000000 0.000000 0.021842 0.000000 0.000000
# 5 0.000000 0.000000 0.000000 0.000000 0.038197 0.000000
# 6 0.000000 0.000000 0.000000 0.000000 0.000000 0.020078
#
#
# Mechanical properties :
#
#
# Convention : Reuss Voigt Hill
#
# Bulk Modulus (GPa) = 68.30534 98.97274 83.63904
# Shear Modulus (GPa) = 41.13480 47.93872 44.53676
#
# Velocity S-wave (km/s) = 4.01224 4.33137 4.17485
# Velocity P-wave (km/s) = 6.94228 7.98418 7.48139
#
# Compressibility (1/GPa) = 0.01464014
#
# Stress axis : x y z
#
# Youngs Moduli (GPa) = 79.39977 125.65106 198.24854
#
# Poissons Ratio (x) = 0.03446 0.47825
# Poissons Ratio (y) = 0.02177 0.55349
# Poissons Ratio (z) = 0.19154 0.35081
#
# Static dielectric constant tensor:
#      x y z
#    x 2.037410 0.000000 0.000000 
#    y 0.000000 -4.028880 0.000000 
#    z 0.000000 0.000000 2.114990 
# 
# From -- ./inp_files/1962.got.cif
#   From: 2010.05.17/outbox.cif.g08.bks.cpg/sg60_1_cif.got.tgz:1962.got - 2010.06.03 14:59:27.
