data_PCOD9454708
_publ_section_title
;
Structure prediction by ZEFSAII (Michael W. Deem and Ramdas Pophale) SiO2 
 PCOD9454708
Probable space group: P B C N
;
_chemical_formula_sum "Si O2"
_cell_formula_units_Z 36
_cell_length_a 7.588332
_cell_length_b 14.965858
_cell_length_c 15.832055
_cell_angle_alpha 90.000000
_cell_angle_beta 90.000000
_cell_angle_gamma 90.000000
_cell_volume 1797.981562
_symmetry_space_group_name_H-M "P B C N"
_symmetry_group_IT_number 60
_symmetry_cell_setting 'orthorhombic'
loop_
_space_group_symop_operation_xyz
x,y,z
1/2-x,1/2-y,1/2+z
1/2+x,1/2-y,-z
-x,y,1/2-z
-x,-y,-z
1/2+x,1/2+y,1/2-z
1/2-x,1/2+y,z
x,-y,1/2+z
loop_
_atom_site_type_symbol
_atom_site_label
_atom_site_fract_x
_atom_site_fract_y
_atom_site_fract_z
Si Si1 0.500000 0.636709 0.250000
Si Si2 0.109202 0.515972 0.915197
Si Si3 0.862677 0.847967 0.574760
Si Si4 0.739403 0.674005 0.495612
Si Si5 0.869129 0.399780 0.819425
O O1 0.575420 0.686399 0.167400
O O2 0.672913 0.585390 0.284033
O O3 0.970701 0.490628 0.843285
O O4 0.183199 0.614284 0.928560
O O5 0.000000 0.500000 0.000000
O O6 0.156658 0.655708 0.093074
O O7 0.746916 0.776137 0.524648
O O8 0.761783 0.940992 0.587528
O O9 0.042173 0.858333 0.522705
O O10 0.000000 0.355593 0.750000
#
# Coordination Sequence:
#
# PCOD9454708 Si02
#       5
#     4   8   8   8   8
#     4  10  22  36  62  94 122 174 202 250 328 368
#     4  10  20  37  63  87 119 160 208 254 310 364
#     4  11  21  40  62  93 129 162 209 259 309 372
#     4  10  22  36  64  92 120 166 211 252 305 373
#     4  10  19  37  61  86 126 162 202 255 314 357
#
# _framework density 20.022451
#
# number of rings (size 3 to 8) (size 9 to 14) (size 15 to 20)
#    0.000    1.778    2.222    3.333    0.000    0.000 
#    2.000    0.000    0.000    2.667    0.000    0.000 
#    0.000    0.000    0.000    0.000    0.000    0.000 
#
# Total GULP energy -200451.200389 kJ/mol
# GULP energy per Si atom -5568.088900 kJ/mol
# Density = 1.997688 g / cm^3
# Si number density = 20.022451 Si / 1000 Ang^3
#
#
#
# Elastic Constant Matrix: (Units=GPa)
#
#
# Indices 1 2 3 4 5 6 
#
# 1 125.6401 11.9246 36.9720 0.0000 0.0000 0.0000
# 2 11.9246 42.8917 18.1679 0.0000 0.0000 0.0000
# 3 36.9720 18.1679 96.0670 0.0000 0.0000 0.0000
# 4 0.0000 0.0000 0.0000 13.2171 0.0000 0.0000
# 5 0.0000 0.0000 0.0000 0.0000 46.9808 0.0000
# 6 0.0000 0.0000 0.0000 0.0000 0.0000 13.7174
#
#
#
# Elastic Compliance Matrix: (Units=1/GPa)
#
#
# Indices 1 2 3 4 5 6 
#
# 1 0.009026 -0.001128 -0.003260 0.000000 0.000000 0.000000
# 2 -0.001128 0.025486 -0.004386 0.000000 0.000000 0.000000
# 3 -0.003260 -0.004386 0.012494 0.000000 0.000000 0.000000
# 4 0.000000 0.000000 0.000000 0.075660 0.000000 0.000000
# 5 0.000000 0.000000 0.000000 0.000000 0.021285 0.000000
# 6 0.000000 0.000000 0.000000 0.000000 0.000000 0.072900
#
#
# Mechanical properties :
#
#
# Convention : Reuss Voigt Hill
#
# Bulk Modulus (GPa) = 33.94798 44.30311 39.12554
# Shear Modulus (GPa) = 20.47354 27.95199 24.21277
#
# Velocity S-wave (km/s) = 3.20117 3.74041 3.48124
# Velocity P-wave (km/s) = 5.53670 6.38975 5.97846
#
# Compressibility (1/GPa) = 0.02945684
#
# Stress axis : x y z
#
# Youngs Moduli (GPa) = 110.79456 39.23741 80.04161
#
# Poissons Ratio (x) = 0.04427 0.26095
# Poissons Ratio (y) = 0.12501 0.35103
# Poissons Ratio (z) = 0.36121 0.17208
#
# Static dielectric constant tensor:
#      x y z
#    x 1.747520 0.000000 0.000000 
#    y 0.000000 1.676290 0.000000 
#    z 0.000000 0.000000 1.789320 
# 
# From -- ./inp_files/14776.got.cif
#   From: 2010.05.17/outbox.cif.g08.bks.cpg/sg60_8_cif.got.tgz:14776.got - 2010.06.03 14:59:27.
