data_PCOD9454749
_publ_section_title
;
Structure prediction by ZEFSAII (Michael W. Deem and Ramdas Pophale) SiO2 
 PCOD9454749
Probable space group: P B C N
;
_chemical_formula_sum "Si O2"
_cell_formula_units_Z 56
_cell_length_a 5.406771
_cell_length_b 18.121844
_cell_length_c 25.176918
_cell_angle_alpha 90.000000
_cell_angle_beta 90.000000
_cell_angle_gamma 90.000000
_cell_volume 2466.851058
_symmetry_space_group_name_H-M "P B C N"
_symmetry_group_IT_number 60
_symmetry_cell_setting 'orthorhombic'
loop_
_space_group_symop_operation_xyz
x,y,z
1/2-x,1/2-y,1/2+z
1/2+x,1/2-y,-z
-x,y,1/2-z
-x,-y,-z
1/2+x,1/2+y,1/2-z
1/2-x,1/2+y,z
x,-y,1/2+z
loop_
_atom_site_type_symbol
_atom_site_label
_atom_site_fract_x
_atom_site_fract_y
_atom_site_fract_z
Si Si1 0.887936 0.275859 0.067859
Si Si2 0.860051 0.355594 0.518239
Si Si3 0.983087 0.428921 0.812719
Si Si4 0.597291 0.904689 0.309811
Si Si5 0.130323 0.964473 0.906828
Si Si6 0.743478 0.333822 0.891236
Si Si7 0.582625 0.623809 0.628959
O O1 0.845372 0.208383 0.026598
O O2 0.635304 0.306274 0.092147
O O3 0.060245 0.234875 0.110353
O O4 0.026952 0.343742 0.039533
O O5 0.771699 0.434614 0.540457
O O6 0.067615 0.331317 0.560411
O O7 0.841389 0.507607 0.815183
O O8 0.874203 0.353955 0.836607
O O9 0.000000 0.417608 0.750000
O O10 0.211564 0.446439 0.853006
O O11 0.500000 0.891042 0.250000
O O12 0.351223 0.886445 0.343287
O O13 0.850440 0.868531 0.331478
O O14 0.903599 0.909312 0.902820
O O15 0.054162 0.049415 0.905885
#
# Coordination Sequence:
#
# PCOD9454749 Si02
#       7
#     8   8   8   8   8   8   8
#     4  11  23  37  65  87 124 177 227 264 340 405
#     4  10  21  39  61  87 122 176 222 268 331 407
#     4   9  18  34  64  93 122 162 211 264 328 387
#     4  10  21  40  66  95 128 169 214 264 333 404
#     4   9  20  37  59  92 128 159 215 280 326 385
#     4  10  19  38  59  86 128 163 213 277 316 396
#     4  11  23  39  66  98 128 169 220 279 330 396
#
# _framework density 22.701007000000001
#
# number of rings (size 3 to 8) (size 9 to 14) (size 15 to 20)
#    0.000    2.000    2.857    0.429    2.000    1.143 
#    0.000    0.714    9.429    0.000    0.000    0.000 
#    0.000    0.000    0.000    0.000    0.000    0.000 
#
# Total GULP energy -312289.545979 kJ/mol
# GULP energy per Si atom -5576.599035 kJ/mol
# Density = 2.264934 g / cm^3
# Si number density = 22.701007 Si / 1000 Ang^3
#
#
#
# Elastic Constant Matrix: (Units=GPa)
#
#
# Indices 1 2 3 4 5 6 
#
# 1 74.0133 22.9278 21.1403 0.0000 0.0000 0.0000
# 2 22.9278 68.0051 20.7338 0.0000 0.0000 0.0000
# 3 21.1403 20.7338 61.4837 0.0000 0.0000 0.0000
# 4 0.0000 0.0000 0.0000 18.0647 0.0000 0.0000
# 5 0.0000 0.0000 0.0000 0.0000 25.7331 0.0000
# 6 0.0000 0.0000 0.0000 0.0000 0.0000 39.4409
#
#
#
# Elastic Compliance Matrix: (Units=1/GPa)
#
#
# Indices 1 2 3 4 5 6 
#
# 1 0.015961 -0.004133 -0.004094 0.000000 0.000000 0.000000
# 2 -0.004133 0.017460 -0.004467 0.000000 0.000000 0.000000
# 3 -0.004094 -0.004467 0.019179 0.000000 0.000000 0.000000
# 4 0.000000 0.000000 0.000000 0.055357 0.000000 0.000000
# 5 0.000000 0.000000 0.000000 0.000000 0.038860 0.000000
# 6 0.000000 0.000000 0.000000 0.000000 0.000000 0.025354
#
#
# Mechanical properties :
#
#
# Convention : Reuss Voigt Hill
#
# Bulk Modulus (GPa) = 36.74926 37.01176 36.88051
# Shear Modulus (GPa) = 24.19794 25.89443 25.04618
#
# Velocity S-wave (km/s) = 3.26842 3.38105 3.32521
# Velocity P-wave (km/s) = 5.51969 5.61973 5.56993
#
# Compressibility (1/GPa) = 0.02721143
#
# Stress axis : x y z
#
# Youngs Moduli (GPa) = 62.65362 57.27355 52.14161
#
# Poissons Ratio (x) = 0.23670 0.21348
# Poissons Ratio (y) = 0.25894 0.23291
# Poissons Ratio (z) = 0.25651 0.25584
#
# Static dielectric constant tensor:
#      x y z
#    x 1.918670 0.000000 0.000000 
#    y 0.000000 1.859360 0.000000 
#    z 0.000000 0.000000 1.890260 
# 
# From -- ./inp_files/23691.got.cif
#   From: 2010.05.17/outbox.cif.g08.bks.cpg/sg60_12_cif.got.tgz:23691.got - 2010.06.03 14:59:27.
