data_PCOD9454443
_publ_section_title
;
Structure prediction by ZEFSAII (Michael W. Deem and Ramdas Pophale) SiO2 
 PCOD9454443
Probable space group: P B C N
;
_chemical_formula_sum "Si O2"
_cell_formula_units_Z 56
_cell_length_a 8.669117
_cell_length_b 22.527529
_cell_length_c 14.463042
_cell_angle_alpha 90.000000
_cell_angle_beta 90.000000
_cell_angle_gamma 90.000000
_cell_volume 2824.542209
_symmetry_space_group_name_H-M "P B C N"
_symmetry_group_IT_number 60
_symmetry_cell_setting 'orthorhombic'
loop_
_space_group_symop_operation_xyz
x,y,z
1/2-x,1/2-y,1/2+z
1/2+x,1/2-y,-z
-x,y,1/2-z
-x,-y,-z
1/2+x,1/2+y,1/2-z
1/2-x,1/2+y,z
x,-y,1/2+z
loop_
_atom_site_type_symbol
_atom_site_label
_atom_site_fract_x
_atom_site_fract_y
_atom_site_fract_z
Si Si1 0.635908 0.307057 0.958812
Si Si2 0.200016 0.941723 0.493320
Si Si3 0.830176 0.742662 0.289739
Si Si4 0.241477 0.121170 0.699581
Si Si5 0.166237 0.249591 0.401785
Si Si6 0.540207 0.509376 0.848904
Si Si7 0.567624 0.117637 0.610299
O O1 0.755690 0.294510 0.874158
O O2 0.460137 0.297574 0.930130
O O3 0.646545 0.373087 0.999159
O O4 0.682704 0.258155 0.035770
O O5 0.375389 0.931041 0.462440
O O6 0.105966 0.977580 0.414883
O O7 0.160466 0.972126 0.590049
O O8 0.826152 0.812919 0.314932
O O9 0.713790 0.739430 0.203258
O O10 0.000000 0.726771 0.250000
O O11 0.116668 0.072173 0.676343
O O12 0.391919 0.110224 0.637833
O O13 0.313066 0.114016 0.802681
O O14 0.084671 0.313484 0.416684
O O15 0.500000 0.480618 0.750000
#
# Coordination Sequence:
#
# PCOD9454443 Si02
#       7
#     8   8   8   8   8   8   8
#     4  11  22  38  59  89 126 159 197 255 306 375
#     4  10  24  39  60  89 123 158 209 256 313 366
#     4  11  22  36  59  89 122 163 205 249 309 374
#     4  10  19  33  63  86 117 153 200 250 303 354
#     4  10  21  35  56  88 123 156 195 241 308 368
#     4  11  22  40  62  87 116 164 212 259 302 372
#     4   9  18  36  56  90 116 148 196 255 297 360
#
# _framework density 19.826219999999999
#
# number of rings (size 3 to 8) (size 9 to 14) (size 15 to 20)
#    0.000    1.714    2.857    1.714    6.000    1.714 
#    0.000    0.000    3.143    0.000    0.000    0.000 
#    0.000    0.000    0.000    0.000    0.000    0.000 
#
# Total GULP energy -312389.947122 kJ/mol
# GULP energy per Si atom -5578.391913 kJ/mol
# Density = 1.978110 g / cm^3
# Si number density = 19.826220 Si / 1000 Ang^3
#
#
#
# Elastic Constant Matrix: (Units=GPa)
#
#
# Indices 1 2 3 4 5 6 
#
# 1 21.9158 9.0841 5.4445 0.0000 0.0000 0.0000
# 2 9.0841 23.0339 10.4215 0.0000 0.0000 0.0000
# 3 5.4445 10.4215 92.8657 0.0000 0.0000 0.0000
# 4 0.0000 0.0000 0.0000 19.0180 0.0000 0.0000
# 5 0.0000 0.0000 0.0000 0.0000 29.1902 0.0000
# 6 0.0000 0.0000 0.0000 0.0000 0.0000 21.5640
#
#
#
# Elastic Compliance Matrix: (Units=1/GPa)
#
#
# Indices 1 2 3 4 5 6 
#
# 1 0.054606 -0.021161 -0.000827 0.000000 0.000000 0.000000
# 2 -0.021161 0.053937 -0.004812 0.000000 0.000000 0.000000
# 3 -0.000827 -0.004812 0.011357 0.000000 0.000000 0.000000
# 4 0.000000 0.000000 0.000000 0.052582 0.000000 0.000000
# 5 0.000000 0.000000 0.000000 0.000000 0.034258 0.000000
# 6 0.000000 0.000000 0.000000 0.000000 0.000000 0.046374
#
#
# Mechanical properties :
#
#
# Convention : Reuss Voigt Hill
#
# Bulk Modulus (GPa) = 15.08312 20.85729 17.97021
# Shear Modulus (GPa) = 15.20619 21.47879 18.34249
#
# Velocity S-wave (km/s) = 2.77243 3.29500 3.04495
# Velocity P-wave (km/s) = 4.22761 5.00190 4.63096
#
# Compressibility (1/GPa) = 0.06629926
#
# Stress axis : x y z
#
# Youngs Moduli (GPa) = 18.31301 18.54013 88.05344
#
# Poissons Ratio (x) = 0.39233 0.07279
# Poissons Ratio (y) = 0.38753 0.42373
# Poissons Ratio (z) = 0.01514 0.08922
#
# Static dielectric constant tensor:
#      x y z
#    x 1.721720 0.000000 0.000000 
#    y 0.000000 1.662350 0.000000 
#    z 0.000000 0.000000 1.782630 
# 
# From -- ./inp_files/15258.got.cif
#   From: 2010.05.17/outbox.cif.g08.bks.cpg/sg60_8_cif.got.tgz:15258.got - 2010.06.03 14:59:27.
