data_PCOD9454724
_publ_section_title
;
Structure prediction by ZEFSAII (Michael W. Deem and Ramdas Pophale) SiO2 
 PCOD9454724
Probable space group: P B C N
;
_chemical_formula_sum "Si O2"
_cell_formula_units_Z 56
_cell_length_a 21.740931
_cell_length_b 8.237911
_cell_length_c 16.265983
_cell_angle_alpha 90.000000
_cell_angle_beta 90.000000
_cell_angle_gamma 90.000000
_cell_volume 2913.235191
_symmetry_space_group_name_H-M "P B C N"
_symmetry_group_IT_number 60
_symmetry_cell_setting 'orthorhombic'
loop_
_space_group_symop_operation_xyz
x,y,z
1/2-x,1/2-y,1/2+z
1/2+x,1/2-y,-z
-x,y,1/2-z
-x,-y,-z
1/2+x,1/2+y,1/2-z
1/2-x,1/2+y,z
x,-y,1/2+z
loop_
_atom_site_type_symbol
_atom_site_label
_atom_site_fract_x
_atom_site_fract_y
_atom_site_fract_z
Si Si1 0.382152 0.142011 0.592766
Si Si2 0.777678 0.119267 0.669878
Si Si3 0.816395 0.581478 0.071639
Si Si4 0.579904 0.163794 0.629397
Si Si5 0.502531 0.306301 0.003184
Si Si6 0.020890 0.596170 0.163516
Si Si7 0.166662 0.176199 0.248153
O O1 0.331215 0.095490 0.524600
O O2 0.437307 0.230163 0.541872
O O3 0.352475 0.264218 0.658399
O O4 0.412673 0.986645 0.641232
O O5 0.817845 0.248427 0.619838
O O6 0.723542 0.214480 0.718054
O O7 0.746959 0.002801 0.600588
O O8 0.813370 0.007829 0.734870
O O9 0.868634 0.466155 0.107442
O O10 0.556730 0.249240 0.547891
O O11 0.608207 0.285822 0.694462
O O12 0.523024 0.061237 0.661824
O O13 0.496503 0.220843 0.091428
O O14 0.500000 0.500000 0.000000
O O15 0.000000 0.673685 0.250000
#
# Coordination Sequence:
#
# PCOD9454724 Si02
#       7
#     8   8   8   8   8   8   8
#     4  11  21  38  65  87 122 162 202 244 317 372
#     4   9  22  39  59  88 121 154 215 256 304 360
#     4  10  19  39  63  85 115 168 200 256 307 363
#     4  10  19  37  65  82 123 160 199 238 310 368
#     4  11  24  40  56  95 129 156 208 256 299 390
#     4  11  20  40  63  92 118 162 201 246 304 392
#     4  10  21  38  61  89 118 162 201 259 306 362
#
# _framework density 19.222615999999999
#
# number of rings (size 3 to 8) (size 9 to 14) (size 15 to 20)
#    0.000    1.714    4.286    0.857    2.000    1.143 
#    5.143    0.000    0.000    0.000    0.000    0.000 
#    0.000    0.000    0.000    0.000    0.000    0.000 
#
# Total GULP energy -312202.911973 kJ/mol
# GULP energy per Si atom -5575.052000 kJ/mol
# Density = 1.917886 g / cm^3
# Si number density = 19.222616 Si / 1000 Ang^3
#
#
#
# Elastic Constant Matrix: (Units=GPa)
#
#
# Indices 1 2 3 4 5 6 
#
# 1 40.6112 24.8190 25.5539 0.0000 0.0000 0.0000
# 2 24.8190 96.7718 35.9696 0.0000 0.0000 0.0000
# 3 25.5539 35.9696 124.0261 0.0000 0.0000 0.0000
# 4 0.0000 0.0000 0.0000 15.9232 0.0000 0.0000
# 5 0.0000 0.0000 0.0000 0.0000 25.0537 0.0000
# 6 0.0000 0.0000 0.0000 0.0000 0.0000 18.7115
#
#
#
# Elastic Compliance Matrix: (Units=1/GPa)
#
#
# Indices 1 2 3 4 5 6 
#
# 1 0.031411 -0.006333 -0.004635 0.000000 0.000000 0.000000
# 2 -0.006333 0.012859 -0.002424 0.000000 0.000000 0.000000
# 3 -0.004635 -0.002424 0.009721 0.000000 0.000000 0.000000
# 4 0.000000 0.000000 0.000000 0.062801 0.000000 0.000000
# 5 0.000000 0.000000 0.000000 0.000000 0.039914 0.000000
# 6 0.000000 0.000000 0.000000 0.000000 0.000000 0.053443
#
#
# Mechanical properties :
#
#
# Convention : Reuss Voigt Hill
#
# Bulk Modulus (GPa) = 36.75735 48.23267 42.49501
# Shear Modulus (GPa) = 20.32495 23.60878 21.96687
#
# Velocity S-wave (km/s) = 3.25521 3.50834 3.38414
# Velocity P-wave (km/s) = 5.76992 6.44650 6.11757
#
# Compressibility (1/GPa) = 0.02720544
#
# Stress axis : x y z
#
# Youngs Moduli (GPa) = 31.83630 77.76659 102.87064
#
# Poissons Ratio (x) = 0.49250 0.47681
# Poissons Ratio (y) = 0.20162 0.24941
# Poissons Ratio (z) = 0.14756 0.18854
#
# Static dielectric constant tensor:
#      x y z
#    x 1.633800 0.000000 0.000000 
#    y 0.000000 1.668700 0.000000 
#    z 0.000000 0.000000 1.713240 
# 
# From -- ./inp_files/17741.got.cif
#   From: 2010.05.17/outbox.cif.g08.bks.cpg/sg60_9_cif.got.tgz:17741.got - 2010.06.03 14:59:27.
