data_PCOD9454399
_publ_section_title
;
Structure prediction by ZEFSAII (Michael W. Deem and Ramdas Pophale) SiO2 
 PCOD9454399
Probable space group: P B C N
;
_chemical_formula_sum "Si O2"
_cell_formula_units_Z 36
_cell_length_a 15.821134
_cell_length_b 13.698325
_cell_length_c 6.070067
_cell_angle_alpha 90.000000
_cell_angle_beta 90.000000
_cell_angle_gamma 90.000000
_cell_volume 1315.523345
_symmetry_space_group_name_H-M "P B C N"
_symmetry_group_IT_number 60
_symmetry_cell_setting 'orthorhombic'
loop_
_space_group_symop_operation_xyz
x,y,z
1/2-x,1/2-y,1/2+z
1/2+x,1/2-y,-z
-x,y,1/2-z
-x,-y,-z
1/2+x,1/2+y,1/2-z
1/2-x,1/2+y,z
x,-y,1/2+z
loop_
_atom_site_type_symbol
_atom_site_label
_atom_site_fract_x
_atom_site_fract_y
_atom_site_fract_z
Si Si1 0.848707 0.758603 0.009410
Si Si2 0.421241 0.611202 0.374744
Si Si3 0.271885 0.599624 0.652322
Si Si4 0.500000 0.746143 0.750000
Si Si5 0.913245 0.461255 0.203806
O O1 0.824316 0.848981 0.158121
O O2 0.921414 0.699506 0.140345
O O3 0.881965 0.807037 0.787275
O O4 0.770081 0.688298 0.984761
O O5 0.500000 0.558359 0.250000
O O6 0.342309 0.553555 0.486587
O O7 0.465280 0.675340 0.561784
O O8 0.187320 0.558716 0.766624
O O9 0.920470 0.522545 0.437733
O O10 0.000000 0.397865 0.250000
#
# Coordination Sequence:
#
# PCOD9454399 Si02
#       5
#     8   8   8   4   8
#     4  10  19  33  53  93 120 158 204 257 341 404
#     4   9  18  34  53  83 124 156 193 249 326 406
#     4  11  21  35  62  89 127 165 212 273 331 403
#     4   8  18  32  48  76 124 158 190 238 318 404
#     4  10  25  48  67  92 128 181 237 274 315 380
#
# _framework density 27.365534
#
# number of rings (size 3 to 8) (size 9 to 14) (size 15 to 20)
#    0.000    2.222    2.222    0.000    3.111    2.667 
#    6.000    0.000    0.000    1.333    0.000    0.000 
#    0.000    0.000    0.000    0.000    0.000    0.000 
#
# Total GULP energy -200454.766441 kJ/mol
# GULP energy per Si atom -5568.187957 kJ/mol
# Density = 2.730325 g / cm^3
# Si number density = 27.365534 Si / 1000 Ang^3
#
#
#
# Elastic Constant Matrix: (Units=GPa)
#
#
# Indices 1 2 3 4 5 6 
#
# 1 174.9786 25.0497 69.4683 0.0000 0.0000 0.0000
# 2 25.0497 43.4753 43.1708 0.0000 0.0000 0.0000
# 3 69.4683 43.1708 166.7152 0.0000 0.0000 0.0000
# 4 0.0000 0.0000 0.0000 -39.0459 0.0000 0.0000
# 5 0.0000 0.0000 0.0000 0.0000 68.5919 0.0000
# 6 0.0000 0.0000 0.0000 0.0000 0.0000 -36.4964
#
#
#
# Elastic Compliance Matrix: (Units=1/GPa)
#
#
# Indices 1 2 3 4 5 6 
#
# 1 0.006921 -0.001513 -0.002492 0.000000 0.000000 0.000000
# 2 -0.001513 0.031294 -0.007473 0.000000 0.000000 0.000000
# 3 -0.002492 -0.007473 0.008972 0.000000 0.000000 0.000000
# 4 0.000000 0.000000 0.000000 -0.025611 0.000000 0.000000
# 5 0.000000 0.000000 0.000000 0.000000 0.014579 0.000000
# 6 0.000000 0.000000 0.000000 0.000000 0.000000 -0.027400
#
#
# Mechanical properties :
#
#
# Convention : Reuss Voigt Hill
#
# Bulk Modulus (GPa) = 41.27054 73.39407 57.33230
# Shear Modulus (GPa) = 125.66467 15.10860 70.38664
#
# Velocity S-wave (km/s) = 6.78384 2.35224 5.07708
# Velocity P-wave (km/s) = 8.74497 5.85282 7.44077
#
# Compressibility (1/GPa) = 0.02423036
#
# Stress axis : x y z
#
# Youngs Moduli (GPa) = 144.48820 31.95487 111.46009
#
# Poissons Ratio (x) = 0.04835 0.27777
# Poissons Ratio (y) = 0.21863 0.83295
# Poissons Ratio (z) = 0.36007 0.23880
#
# Static dielectric constant tensor:
#      x y z
#    x 2.183120 0.000000 0.000000 
#    y 0.000000 2.160190 0.000000 
#    z 0.000000 0.000000 2.148020 
# 
# From -- ./inp_files/1133.got.cif
#   From: 2010.05.17/outbox.cif.g08.bks.cpg/sg60_1_cif.got.tgz:1133.got - 2010.06.03 14:59:27.
