data_PCOD9454685
_publ_section_title
;
Structure prediction by ZEFSAII (Michael W. Deem and Ramdas Pophale) SiO2 
 PCOD9454685
Probable space group: P B C N
;
_chemical_formula_sum "Si O2"
_cell_formula_units_Z 64
_cell_length_a 17.875690
_cell_length_b 7.702737
_cell_length_c 20.297373
_cell_angle_alpha 90.000000
_cell_angle_beta 90.000000
_cell_angle_gamma 90.000000
_cell_volume 2794.780581
_symmetry_space_group_name_H-M "P B C N"
_symmetry_group_IT_number 60
_symmetry_cell_setting 'orthorhombic'
loop_
_space_group_symop_operation_xyz
x,y,z
1/2-x,1/2-y,1/2+z
1/2+x,1/2-y,-z
-x,y,1/2-z
-x,-y,-z
1/2+x,1/2+y,1/2-z
1/2-x,1/2+y,z
x,-y,1/2+z
loop_
_atom_site_type_symbol
_atom_site_label
_atom_site_fract_x
_atom_site_fract_y
_atom_site_fract_z
Si Si1 0.361253 0.585011 0.906308
Si Si2 0.287990 0.726998 0.455639
Si Si3 0.304678 0.021433 0.547114
Si Si4 0.025364 0.532715 0.896840
Si Si5 0.911612 0.679529 0.729480
Si Si6 0.088830 0.917277 0.261824
Si Si7 0.128042 0.397310 0.671871
Si Si8 0.937261 0.741593 0.989012
O O1 0.290445 0.706489 0.925375
O O2 0.329871 0.390790 0.903793
O O3 0.394514 0.640473 0.836738
O O4 0.419353 0.591587 0.967481
O O5 0.328352 0.888479 0.489027
O O6 0.270730 0.600657 0.518074
O O7 0.309961 0.921733 0.615477
O O8 0.362287 0.180685 0.548678
O O9 0.084669 0.590842 0.842432
O O10 0.048731 0.397075 0.952490
O O11 0.952469 0.440814 0.862947
O O12 0.999406 0.709053 0.934369
O O13 0.864954 0.550691 0.775103
O O14 0.000000 0.674951 0.750000
O O15 0.888862 0.879408 0.740175
O O16 0.125506 0.786542 0.209120
O O17 0.000000 0.906774 0.250000
#
# Coordination Sequence:
#
# PCOD9454685 Si02
#       8
#     8   8   8   8   8   8   8   8
#     4  10  20  38  60  85 117 156 202 259 302 370
#     4   9  20  40  59  82 112 148 200 258 317 352
#     4   9  19  36  58  81 104 146 191 246 304 347
#     4   9  17  32  55  81 121 153 186 228 296 360
#     4   9  19  34  52  77 116 158 184 226 283 354
#     4  11  22  37  59  93 121 161 202 239 303 373
#     4  10  19  37  56  78 115 156 187 235 288 352
#     4   9  17  30  57  85 110 150 190 235 299 354
#
# _framework density 22.899832
#
# number of rings (size 3 to 8) (size 9 to 14) (size 15 to 20)
#    0.000    2.500    0.000    2.625    1.750    0.000 
#   15.750    1.875    0.000    0.000    0.000    0.000 
#    0.000    0.000    0.000    0.000    0.000    0.000 
#
# Total GULP energy -357009.929555 kJ/mol
# GULP energy per Si atom -5578.280149 kJ/mol
# Density = 2.284771 g / cm^3
# Si number density = 22.899832 Si / 1000 Ang^3
#
#
#
# Elastic Constant Matrix: (Units=GPa)
#
#
# Indices 1 2 3 4 5 6 
#
# 1 26.8075 10.0642 22.3884 0.0000 0.0000 0.0000
# 2 10.0642 86.5105 22.5836 0.0000 0.0000 0.0000
# 3 22.3884 22.5836 118.5393 0.0000 0.0000 0.0000
# 4 0.0000 0.0000 0.0000 24.8088 0.0000 0.0000
# 5 0.0000 0.0000 0.0000 0.0000 37.9228 0.0000
# 6 0.0000 0.0000 0.0000 0.0000 0.0000 17.2853
#
#
#
# Elastic Compliance Matrix: (Units=1/GPa)
#
#
# Indices 1 2 3 4 5 6 
#
# 1 0.045106 -0.003182 -0.007913 0.000000 0.000000 0.000000
# 2 -0.003182 0.012389 -0.001759 0.000000 0.000000 0.000000
# 3 -0.007913 -0.001759 0.010266 0.000000 0.000000 0.000000
# 4 0.000000 0.000000 0.000000 0.040308 0.000000 0.000000
# 5 0.000000 0.000000 0.000000 0.000000 0.026369 0.000000
# 6 0.000000 0.000000 0.000000 0.000000 0.000000 0.057853
#
#
# Mechanical properties :
#
#
# Convention : Reuss Voigt Hill
#
# Bulk Modulus (GPa) = 23.77980 37.99217 30.88598
# Shear Modulus (GPa) = 21.55019 27.79144 24.67082
#
# Velocity S-wave (km/s) = 3.07100 3.48747 3.28584
# Velocity P-wave (km/s) = 4.79391 5.73090 5.28322
#
# Compressibility (1/GPa) = 0.04205251
#
# Stress axis : x y z
#
# Youngs Moduli (GPa) = 22.16994 80.71871 97.41165
#
# Poissons Ratio (x) = 0.25682 0.77082
# Poissons Ratio (y) = 0.07054 0.17138
# Poissons Ratio (z) = 0.17543 0.14201
#
# Static dielectric constant tensor:
#      x y z
#    x 1.900770 0.000000 0.000000 
#    y 0.000000 1.907990 0.000000 
#    z 0.000000 0.000000 1.877670 
# 
# From -- ./inp_files/21055.got.cif
#   From: 2010.05.17/outbox.cif.g08.bks.cpg/sg60_11_cif.got.tgz:21055.got - 2010.06.03 14:59:27.
