data_PCOD9454801
_publ_section_title
;
Structure prediction by ZEFSAII (Michael W. Deem and Ramdas Pophale) SiO2 
 PCOD9454801
Probable space group: P B C N
;
_chemical_formula_sum "Si O2"
_cell_formula_units_Z 32
_cell_length_a 6.921788
_cell_length_b 15.367937
_cell_length_c 12.851794
_cell_angle_alpha 90.000000
_cell_angle_beta 90.000000
_cell_angle_gamma 90.000000
_cell_volume 1367.091619
_symmetry_space_group_name_H-M "P B C N"
_symmetry_group_IT_number 60
_symmetry_cell_setting 'orthorhombic'
loop_
_space_group_symop_operation_xyz
x,y,z
1/2-x,1/2-y,1/2+z
1/2+x,1/2-y,-z
-x,y,1/2-z
-x,-y,-z
1/2+x,1/2+y,1/2-z
1/2-x,1/2+y,z
x,-y,1/2+z
loop_
_atom_site_type_symbol
_atom_site_label
_atom_site_fract_x
_atom_site_fract_y
_atom_site_fract_z
Si Si1 0.604066 0.333234 0.654020
Si Si2 0.185367 0.447231 0.535983
Si Si3 0.199367 0.726777 0.163493
Si Si4 0.939496 0.098259 0.928247
O O1 0.500000 0.384852 0.750000
O O2 0.431111 0.263830 0.633839
O O3 0.634223 0.380289 0.546549
O O4 0.787588 0.294625 0.713418
O O5 0.140907 0.358631 0.598048
O O6 0.334014 0.421237 0.443314
O O7 0.315023 0.514799 0.603442
O O8 0.000000 0.500000 0.500000
O O9 0.102076 0.816425 0.136151
#
# Coordination Sequence:
#
# PCOD9454801 Si02
#       4
#     8   8   8   8
#     4   7  17  36  63  91 129 170 212 275 328 388
#     4  10  22  34  61  93 121 170 223 267 328 393
#     4   8  18  37  63  91 130 176 210 270 339 389
#     4  10  19  39  66  87 130 175 220 270 332 404
#
# _framework density 23.407357000000001
#
# number of rings (size 3 to 8) (size 9 to 14) (size 15 to 20)
#    1.500    1.500    0.000    0.000    7.000    0.000 
#    0.000    3.750    0.000    0.000    0.000    0.000 
#    0.000    0.000    0.000    0.000    0.000    0.000 
#
# Total GULP energy -178262.767651 kJ/mol
# GULP energy per Si atom -5570.711489 kJ/mol
# Density = 2.335408 g / cm^3
# Si number density = 23.407357 Si / 1000 Ang^3
#
#
#
# Elastic Constant Matrix: (Units=GPa)
#
#
# Indices 1 2 3 4 5 6 
#
# 1 138.6501 82.2265 27.6139 0.0000 0.0000 0.0000
# 2 82.2265 152.3337 33.7485 0.0000 0.0000 0.0000
# 3 27.6139 33.7485 68.9826 0.0000 0.0000 0.0000
# 4 0.0000 0.0000 0.0000 19.9545 0.0000 0.0000
# 5 0.0000 0.0000 0.0000 0.0000 32.1966 0.0000
# 6 0.0000 0.0000 0.0000 0.0000 0.0000 34.2868
#
#
#
# Elastic Compliance Matrix: (Units=1/GPa)
#
#
# Indices 1 2 3 4 5 6 
#
# 1 0.010772 -0.005450 -0.001646 0.000000 0.000000 0.000000
# 2 -0.005450 0.010120 -0.002769 0.000000 0.000000 0.000000
# 3 -0.001646 -0.002769 0.016510 0.000000 0.000000 0.000000
# 4 0.000000 0.000000 0.000000 0.050114 0.000000 0.000000
# 5 0.000000 0.000000 0.000000 0.000000 0.031059 0.000000
# 6 0.000000 0.000000 0.000000 0.000000 0.000000 0.029166
#
#
# Mechanical properties :
#
#
# Convention : Reuss Voigt Hill
#
# Bulk Modulus (GPa) = 56.58705 71.90493 64.24599
# Shear Modulus (GPa) = 28.84134 31.71275 30.27705
#
# Velocity S-wave (km/s) = 3.51401 3.68478 3.60041
# Velocity P-wave (km/s) = 6.37900 6.99208 6.69256
#
# Compressibility (1/GPa) = 0.01767189
#
# Stress axis : x y z
#
# Youngs Moduli (GPa) = 92.83023 98.81535 60.56901
#
# Poissons Ratio (x) = 0.53855 0.09969
# Poissons Ratio (y) = 0.50593 0.16773
# Poissons Ratio (z) = 0.15278 0.27365
#
# Static dielectric constant tensor:
#      x y z
#    x 2.069950 0.000000 0.000000 
#    y 0.000000 1.876940 0.000000 
#    z 0.000000 0.000000 1.914010 
# 
# From -- ./inp_files/18396.got.cif
#   From: 2010.05.17/outbox.cif.g08.bks.cpg/sg60_10_cif.got.tgz:18396.got - 2010.06.03 14:59:27.
