data_PCOD9454207
_publ_section_title
;
Structure prediction by ZEFSAII (Michael W. Deem and Ramdas Pophale) SiO2 
 PCOD9454207
Probable space group: P B C N
;
_chemical_formula_sum "Si O2"
_cell_formula_units_Z 64
_cell_length_a 9.393152
_cell_length_b 19.275931
_cell_length_c 17.275472
_cell_angle_alpha 90.000000
_cell_angle_beta 90.000000
_cell_angle_gamma 90.000000
_cell_volume 3127.927189
_symmetry_space_group_name_H-M "P B C N"
_symmetry_group_IT_number 60
_symmetry_cell_setting 'orthorhombic'
loop_
_space_group_symop_operation_xyz
x,y,z
1/2-x,1/2-y,1/2+z
1/2+x,1/2-y,-z
-x,y,1/2-z
-x,-y,-z
1/2+x,1/2+y,1/2-z
1/2-x,1/2+y,z
x,-y,1/2+z
loop_
_atom_site_type_symbol
_atom_site_label
_atom_site_fract_x
_atom_site_fract_y
_atom_site_fract_z
Si Si1 0.214309 0.916079 0.942652
Si Si2 0.089169 0.109554 0.128005
Si Si3 0.257672 0.443826 0.373685
Si Si4 0.787715 0.335365 0.005718
Si Si5 0.908784 0.956197 0.398323
Si Si6 0.403454 0.790036 0.005417
Si Si7 0.619652 0.752764 0.310230
Si Si8 0.834522 0.859738 0.271301
O O1 0.072561 0.882850 0.904223
O O2 0.278963 0.975358 0.886373
O O3 0.153633 0.958765 0.016272
O O4 0.320146 0.857856 0.974903
O O5 0.117398 0.169398 0.189360
O O6 0.102777 0.028684 0.147541
O O7 0.205678 0.124922 0.062120
O O8 0.174127 0.391697 0.429494
O O9 0.424306 0.438376 0.398977
O O10 0.256211 0.410561 0.289048
O O11 0.932188 0.297010 0.981610
O O12 0.676073 0.276299 0.031683
O O13 0.826923 0.896458 0.353918
O O14 0.400022 0.776353 0.099336
O O15 0.500000 0.777619 0.250000
O O16 0.763747 0.785444 0.278252
O O17 0.000000 0.856085 0.250000
#
# Coordination Sequence:
#
# PCOD9454207 Si02
#       8
#     8   8   8   8   8   8   8   8
#     4  11  19  39  63  94 119 158 204 261 307 358
#     4  10  21  37  64  87 121 157 199 256 303 362
#     4  10  20  35  62  89 121 156 204 255 303 361
#     4  11  21  37  54  90 117 156 200 257 303 356
#     4  10  18  38  62  90 120 158 199 249 303 367
#     4  11  24  36  62  87 123 158 206 254 313 365
#     4  11  23  40  56  85 122 161 199 250 311 366
#     4  10  22  37  61  87 118 165 205 243 304 375
#
# _framework density 20.460833999999998
#
# number of rings (size 3 to 8) (size 9 to 14) (size 15 to 20)
#    0.000    1.500    3.750    3.000    0.000    4.000 
#    0.000    0.000    0.000    0.750    0.000    0.000 
#    0.000    0.000    0.000    0.000    0.000    0.000 
#
# Total GULP energy -357067.012928 kJ/mol
# GULP energy per Si atom -5579.172077 kJ/mol
# Density = 2.041426 g / cm^3
# Si number density = 20.460834 Si / 1000 Ang^3
#
#
#
# Elastic Constant Matrix: (Units=GPa)
#
#
# Indices 1 2 3 4 5 6 
#
# 1 41.2700 20.5365 -14.6304 0.0000 0.0000 0.0000
# 2 20.5365 93.0904 -0.4836 0.0000 0.0000 0.0000
# 3 -14.6304 -0.4836 35.7156 0.0000 0.0000 0.0000
# 4 0.0000 0.0000 0.0000 28.9768 0.0000 0.0000
# 5 0.0000 0.0000 0.0000 0.0000 11.6967 0.0000
# 6 0.0000 0.0000 0.0000 0.0000 0.0000 31.2085
#
#
#
# Elastic Compliance Matrix: (Units=1/GPa)
#
#
# Indices 1 2 3 4 5 6 
#
# 1 0.032433 -0.007086 0.013190 0.000000 0.000000 0.000000
# 2 -0.007086 0.012291 -0.002736 0.000000 0.000000 0.000000
# 3 0.013190 -0.002736 0.033365 0.000000 0.000000 0.000000
# 4 0.000000 0.000000 0.000000 0.034510 0.000000 0.000000
# 5 0.000000 0.000000 0.000000 0.000000 0.085494 0.000000
# 6 0.000000 0.000000 0.000000 0.000000 0.000000 0.032043
#
#
# Mechanical properties :
#
#
# Convention : Reuss Voigt Hill
#
# Bulk Modulus (GPa) = 11.78931 20.10234 15.94583
# Shear Modulus (GPa) = 19.86679 25.35330 22.61004
#
# Velocity S-wave (km/s) = 3.11941 3.52392 3.32782
# Velocity P-wave (km/s) = 4.32998 5.13843 4.75143
#
# Compressibility (1/GPa) = 0.08482260
#
# Stress axis : x y z
#
# Youngs Moduli (GPa) = 30.83305 81.35807 29.97164
#
# Poissons Ratio (x) = 0.57654 -0.39532
# Poissons Ratio (y) = 0.21850 0.08201
# Poissons Ratio (z) = -0.40668 0.22263
#
# Static dielectric constant tensor:
#      x y z
#    x 1.703530 0.000000 0.000000 
#    y 0.000000 1.736250 0.000000 
#    z 0.000000 0.000000 1.760490 
# 
# From -- ./inp_files/19677.got.cif
#   From: 2010.05.17/outbox.cif.g08.bks.cpg/sg60_10_cif.got.tgz:19677.got - 2010.06.03 14:59:27.
