data_PCOD9454008
_publ_section_title
;
Structure prediction by ZEFSAII (Michael W. Deem and Ramdas Pophale) SiO2 
 PCOD9454008
Probable space group: P B C N
;
_chemical_formula_sum "Si O2"
_cell_formula_units_Z 48
_cell_length_a 8.223376
_cell_length_b 13.740306
_cell_length_c 15.786669
_cell_angle_alpha 90.000000
_cell_angle_beta 90.000000
_cell_angle_gamma 90.000000
_cell_volume 1783.762609
_symmetry_space_group_name_H-M "P B C N"
_symmetry_group_IT_number 60
_symmetry_cell_setting 'orthorhombic'
loop_
_space_group_symop_operation_xyz
x,y,z
1/2-x,1/2-y,1/2+z
1/2+x,1/2-y,-z
-x,y,1/2-z
-x,-y,-z
1/2+x,1/2+y,1/2-z
1/2-x,1/2+y,z
x,-y,1/2+z
loop_
_atom_site_type_symbol
_atom_site_label
_atom_site_fract_x
_atom_site_fract_y
_atom_site_fract_z
Si Si1 0.108012 0.993658 0.092830
Si Si2 0.072046 0.517533 0.166062
Si Si3 0.134289 0.774823 0.547795
Si Si4 0.737096 0.526817 0.089609
Si Si5 0.344463 0.752916 0.699929
Si Si6 0.201262 0.757190 0.872101
O O1 0.248134 0.975601 0.158649
O O2 0.117231 0.110638 0.072659
O O3 0.924090 0.965990 0.116746
O O4 0.183394 0.952005 0.006350
O O5 0.102563 0.633588 0.180434
O O6 0.000000 0.474906 0.250000
O O7 0.926041 0.498668 0.098514
O O8 0.275222 0.729273 0.607061
O O9 0.169255 0.766267 0.447716
O O10 0.966401 0.730364 0.581645
O O11 0.722291 0.626777 0.139259
O O12 0.500000 0.711730 0.750000
O O13 0.212934 0.729906 0.773617
#
# Coordination Sequence:
#
# PCOD9454008 Si02
#       6
#     8   8   8   8   8   8
#     4   9  21  35  55  83 112 145 189 239 291 352
#     4  10  18  32  56  84 109 143 184 239 282 336
#     4  10  22  34  57  83 113 153 186 243 296 344
#     4  10  19  36  57  82 110 147 190 240 289 339
#     4  10  18  34  54  82 113 140 196 236 279 349
#     4  11  20  35  58  82 114 149 196 239 289 351
#
# _framework density 26.909410999999999
#
# number of rings (size 3 to 8) (size 9 to 14) (size 15 to 20)
#    0.000    2.000    3.333    2.000    2.333    0.667 
#    0.000    0.000    3.667    0.000    0.000    0.000 
#    0.000    0.000    0.000    0.000    0.000    0.000 
#
# Total GULP energy -267528.832625 kJ/mol
# GULP energy per Si atom -5573.517346 kJ/mol
# Density = 2.684816 g / cm^3
# Si number density = 26.909411 Si / 1000 Ang^3
#
#
#
# Elastic Constant Matrix: (Units=GPa)
#
#
# Indices 1 2 3 4 5 6 
#
# 1 149.4333 12.4946 59.6336 0.0000 0.0000 0.0000
# 2 12.4946 83.2163 30.7436 0.0000 0.0000 0.0000
# 3 59.6336 30.7436 113.3481 0.0000 0.0000 0.0000
# 4 0.0000 0.0000 0.0000 20.4765 0.0000 0.0000
# 5 0.0000 0.0000 0.0000 0.0000 61.6385 0.0000
# 6 0.0000 0.0000 0.0000 0.0000 0.0000 -6.0550
#
#
#
# Elastic Compliance Matrix: (Units=1/GPa)
#
#
# Indices 1 2 3 4 5 6 
#
# 1 0.008483 0.000417 -0.004576 0.000000 0.000000 0.000000
# 2 0.000417 0.013376 -0.003847 0.000000 0.000000 0.000000
# 3 -0.004576 -0.003847 0.012273 0.000000 0.000000 0.000000
# 4 0.000000 0.000000 0.000000 0.048837 0.000000 0.000000
# 5 0.000000 0.000000 0.000000 0.000000 0.016224 0.000000
# 6 0.000000 0.000000 0.000000 0.000000 0.000000 -0.165152
#
#
# Mechanical properties :
#
#
# Convention : Reuss Voigt Hill
#
# Bulk Modulus (GPa) = 55.18980 61.30457 58.24719
# Shear Modulus (GPa) = -113.87859 31.42038 -41.22911
#
# Velocity S-wave (km/s) = -6.51238 3.42077 -3.91851
# Velocity P-wave (km/s) = 5.99951 6.19948 1.10440
#
# Compressibility (1/GPa) = 0.01811929
#
# Stress axis : x y z
#
# Youngs Moduli (GPa) = 117.87856 74.76301 81.47650
#
# Poissons Ratio (x) = -0.03117 0.37286
# Poissons Ratio (y) = -0.04915 0.31346
# Poissons Ratio (z) = 0.53944 0.28763
#
# Static dielectric constant tensor:
#      x y z
#    x 2.276660 0.000000 0.000000 
#    y 0.000000 2.185770 0.000000 
#    z 0.000000 0.000000 2.134430 
# 
# From -- ./inp_files/14968.got.cif
#   From: 2010.05.17/outbox.cif.g08.bks.cpg/sg60_8_cif.got.tgz:14968.got - 2010.06.03 14:59:27.
