data_PCOD9454108
_publ_section_title
;
Structure prediction by ZEFSAII (Michael W. Deem and Ramdas Pophale) SiO2 
 PCOD9454108
Probable space group: P B C N
;
_chemical_formula_sum "Si O2"
_cell_formula_units_Z 64
_cell_length_a 12.097172
_cell_length_b 8.022435
_cell_length_c 28.948879
_cell_angle_alpha 90.000000
_cell_angle_beta 90.000000
_cell_angle_gamma 90.000000
_cell_volume 2809.453275
_symmetry_space_group_name_H-M "P B C N"
_symmetry_group_IT_number 60
_symmetry_cell_setting 'orthorhombic'
loop_
_space_group_symop_operation_xyz
x,y,z
1/2-x,1/2-y,1/2+z
1/2+x,1/2-y,-z
-x,y,1/2-z
-x,-y,-z
1/2+x,1/2+y,1/2-z
1/2-x,1/2+y,z
x,-y,1/2+z
loop_
_atom_site_type_symbol
_atom_site_label
_atom_site_fract_x
_atom_site_fract_y
_atom_site_fract_z
Si Si1 0.024800 0.310650 0.363227
Si Si2 0.909087 0.527522 0.540181
Si Si3 0.300606 0.263422 0.494164
Si Si4 0.710985 0.507256 0.435301
Si Si5 0.114407 0.568253 0.770059
Si Si6 0.448174 0.559388 0.649648
Si Si7 0.696978 0.608815 0.279761
Si Si8 0.628089 0.103448 0.360483
O O1 0.050396 0.383791 0.413649
O O2 0.103376 0.380321 0.323153
O O3 0.910784 0.412426 0.352979
O O4 0.019847 0.109278 0.359546
O O5 0.862797 0.338502 0.545201
O O6 0.806578 0.641519 0.524057
O O7 0.000000 0.500000 0.500000
O O8 0.363814 0.391576 0.527692
O O9 0.263238 0.131701 0.532655
O O10 0.639947 0.453806 0.391959
O O11 0.813689 0.602325 0.410631
O O12 0.221826 0.460044 0.759378
O O13 0.000000 0.491256 0.750000
O O14 0.132368 0.735515 0.740286
O O15 0.390754 0.520222 0.698759
O O16 0.469584 0.759076 0.646415
O O17 0.778929 0.646755 0.322658
#
# Coordination Sequence:
#
# PCOD9454108 Si02
#       8
#     8   8   8   8   8   8   8   8
#     4  12  26  45  67 100 145 185 245 293 349 436
#     4  11  25  46  72 102 146 193 241 298 359 432
#     4  10  21  41  66  97 147 187 227 290 365 431
#     4  10  18  34  63 100 133 177 233 292 355 397
#     4  12  24  45  70  98 145 186 229 294 362 430
#     4  11  21  37  67 103 137 176 239 300 359 404
#     4  11  22  42  67 103 142 180 226 308 353 420
#     4  11  21  38  68 104 140 174 238 306 358 400
#
# _framework density 22.780232000000002
#
# number of rings (size 3 to 8) (size 9 to 14) (size 15 to 20)
#    0.000    1.000    5.000    3.000    3.500    1.000 
#    6.750    5.000    0.000    0.000    0.000    0.000 
#    0.000    0.000    0.000    0.000    0.000    0.000 
#
# Total GULP energy -356743.941650 kJ/mol
# GULP energy per Si atom -5574.124088 kJ/mol
# Density = 2.272838 g / cm^3
# Si number density = 22.780232 Si / 1000 Ang^3
#
#
#
# Elastic Constant Matrix: (Units=GPa)
#
#
# Indices 1 2 3 4 5 6 
#
# 1 33.2985 -8.7775 11.6066 0.0000 0.0000 0.0000
# 2 -8.7775 39.7089 -10.6741 0.0000 0.0000 0.0000
# 3 11.6066 -10.6741 87.3936 0.0000 0.0000 0.0000
# 4 0.0000 0.0000 0.0000 24.8649 0.0000 0.0000
# 5 0.0000 0.0000 0.0000 0.0000 34.0220 0.0000
# 6 0.0000 0.0000 0.0000 0.0000 0.0000 38.0293
#
#
#
# Elastic Compliance Matrix: (Units=1/GPa)
#
#
# Indices 1 2 3 4 5 6 
#
# 1 0.032953 0.006315 -0.003605 0.000000 0.000000 0.000000
# 2 0.006315 0.027248 0.002489 0.000000 0.000000 0.000000
# 3 -0.003605 0.002489 0.012225 0.000000 0.000000 0.000000
# 4 0.000000 0.000000 0.000000 0.040217 0.000000 0.000000
# 5 0.000000 0.000000 0.000000 0.000000 0.029393 0.000000
# 6 0.000000 0.000000 0.000000 0.000000 0.000000 0.026296
#
#
# Mechanical properties :
#
#
# Convention : Reuss Voigt Hill
#
# Bulk Modulus (GPa) = 12.07367 16.07901 14.07634
# Shear Modulus (GPa) = 26.94812 30.59962 28.77387
#
# Velocity S-wave (km/s) = 3.44315 3.66902 3.55788
# Velocity P-wave (km/s) = 4.59550 5.00226 4.80319
#
# Compressibility (1/GPa) = 0.08282485
#
# Stress axis : x y z
#
# Youngs Moduli (GPa) = 30.34660 36.69946 81.79753
#
# Poissons Ratio (x) = -0.23176 0.29489
# Poissons Ratio (y) = -0.19164 -0.20362
# Poissons Ratio (z) = 0.10940 -0.09136
#
# Static dielectric constant tensor:
#      x y z
#    x 1.916900 0.000000 0.000000 
#    y 0.000000 1.980000 0.000000 
#    z 0.000000 0.000000 1.873410 
# 
# From -- ./inp_files/26092.got.cif
#   From: 2010.05.17/outbox.cif.g08.bks.cpg/sg60_14_cif.got.tgz:26092.got - 2010.06.03 14:59:27.
