data_PCOD9454864
_publ_section_title
;
Structure prediction by ZEFSAII (Michael W. Deem and Ramdas Pophale) SiO2 
 PCOD9454864
Probable space group: P B C N
;
_chemical_formula_sum "Si O2"
_cell_formula_units_Z 52
_cell_length_a 24.310877
_cell_length_b 8.884324
_cell_length_c 8.458174
_cell_angle_alpha 90.000000
_cell_angle_beta 90.000000
_cell_angle_gamma 90.000000
_cell_volume 1826.844700
_symmetry_space_group_name_H-M "P B C N"
_symmetry_group_IT_number 60
_symmetry_cell_setting 'orthorhombic'
loop_
_space_group_symop_operation_xyz
x,y,z
1/2-x,1/2-y,1/2+z
1/2+x,1/2-y,-z
-x,y,1/2-z
-x,-y,-z
1/2+x,1/2+y,1/2-z
1/2-x,1/2+y,z
x,-y,1/2+z
loop_
_atom_site_type_symbol
_atom_site_label
_atom_site_fract_x
_atom_site_fract_y
_atom_site_fract_z
Si Si1 0.926573 0.667115 0.557047
Si Si2 0.412942 0.410098 0.525808
Si Si3 0.320911 0.645603 0.830732
Si Si4 0.325937 0.746139 0.255986
Si Si5 0.500000 0.596276 0.250000
Si Si6 0.255084 0.329605 0.019201
Si Si7 0.078842 0.655363 0.313217
O O1 0.862109 0.682857 0.605543
O O2 0.932392 0.669710 0.370424
O O3 0.940719 0.504039 0.625180
O O4 0.961101 0.795124 0.646240
O O5 0.369479 0.465194 0.393790
O O6 0.370010 0.331052 0.642791
O O7 0.457779 0.489720 0.634548
O O8 0.445342 0.283203 0.427408
O O9 0.270762 0.666104 0.956855
O O10 0.302593 0.641243 0.648918
O O11 0.355785 0.804970 0.834708
O O12 0.280671 0.637700 0.343860
O O13 0.295331 0.865150 0.140092
#
# Coordination Sequence:
#
# PCOD9454864 Si02
#       7
#     8   8   8   8   4   8   8
#     4  11  20  30  42  54  81 108 141 180 213 233
#     4   8  17  29  38  56  76  94 141 166 207 235
#     4   8  16  28  40  62  70  96 125 172 213 245
#     4   9  15  26  41  59  73  96 125 169 213 240
#     4  10  20  30  42  54  72 114 142 176 208 242
#     4   9  14  25  45  56  75  89 122 170 215 248
#     4  10  20  31  39  54  78 101 137 182 210 242
#
# _framework density 28.464378
#
# number of rings (size 3 to 8) (size 9 to 14) (size 15 to 20)
#    0.923    1.846    1.538    1.846    0.000    3.077 
#    0.000    0.000    0.000    0.000    0.000    0.000 
#    0.000    0.000    0.000    0.000    0.000    0.000 
#
# Total GULP energy -289726.054650 kJ/mol
# GULP energy per Si atom -5571.654897 kJ/mol
# Density = 2.839959 g / cm^3
# Si number density = 28.464378 Si / 1000 Ang^3
#
#
#
# Elastic Constant Matrix: (Units=GPa)
#
#
# Indices 1 2 3 4 5 6 
#
# 1 141.8494 27.7019 92.2376 0.0000 0.0000 0.0000
# 2 27.7019 76.8736 60.7608 0.0000 0.0000 0.0000
# 3 92.2376 60.7608 257.4446 0.0000 0.0000 0.0000
# 4 0.0000 0.0000 0.0000 39.7787 0.0000 0.0000
# 5 0.0000 0.0000 0.0000 0.0000 60.6481 0.0000
# 6 0.0000 0.0000 0.0000 0.0000 0.0000 28.1486
#
#
#
# Elastic Compliance Matrix: (Units=1/GPa)
#
#
# Indices 1 2 3 4 5 6 
#
# 1 0.009239 -0.000876 -0.003103 0.000000 0.000000 0.000000
# 2 -0.000876 0.016075 -0.003480 0.000000 0.000000 0.000000
# 3 -0.003103 -0.003480 0.005817 0.000000 0.000000 0.000000
# 4 0.000000 0.000000 0.000000 0.025139 0.000000 0.000000
# 5 0.000000 0.000000 0.000000 0.000000 0.016489 0.000000
# 6 0.000000 0.000000 0.000000 0.000000 0.000000 0.035526
#
#
# Mechanical properties :
#
#
# Convention : Reuss Voigt Hill
#
# Bulk Modulus (GPa) = 61.68339 93.06314 77.37326
# Shear Modulus (GPa) = 38.87804 45.41288 42.14546
#
# Velocity S-wave (km/s) = 3.69975 3.99861 3.85208
# Velocity P-wave (km/s) = 6.32205 7.35419 6.85757
#
# Compressibility (1/GPa) = 0.01621182
#
# Stress axis : x y z
#
# Youngs Moduli (GPa) = 108.23961 62.20968 171.89662
#
# Poissons Ratio (x) = 0.05453 0.53343
# Poissons Ratio (y) = 0.09487 0.59817
# Poissons Ratio (z) = 0.33589 0.21648
#
# Static dielectric constant tensor:
#      x y z
#    x 2.367470 0.000000 0.000000 
#    y 0.000000 2.359070 0.000000 
#    z 0.000000 0.000000 2.157050 
# 
# From -- ./inp_files/8210.got.cif
#   From: 2010.05.17/outbox.cif.g08.bks.cpg/sg60_5_cif.got.tgz:8210.got - 2010.06.03 14:59:27.
