data_PCOD9454060
_publ_section_title
;
Structure prediction by ZEFSAII (Michael W. Deem and Ramdas Pophale) SiO2 
 PCOD9454060
Probable space group: P B C N
;
_chemical_formula_sum "Si O2"
_cell_formula_units_Z 40
_cell_length_a 12.269244
_cell_length_b 15.779805
_cell_length_c 9.292917
_cell_angle_alpha 90.000000
_cell_angle_beta 90.000000
_cell_angle_gamma 90.000000
_cell_volume 1799.167070
_symmetry_space_group_name_H-M "P B C N"
_symmetry_group_IT_number 60
_symmetry_cell_setting 'orthorhombic'
loop_
_space_group_symop_operation_xyz
x,y,z
1/2-x,1/2-y,1/2+z
1/2+x,1/2-y,-z
-x,y,1/2-z
-x,-y,-z
1/2+x,1/2+y,1/2-z
1/2-x,1/2+y,z
x,-y,1/2+z
loop_
_atom_site_type_symbol
_atom_site_label
_atom_site_fract_x
_atom_site_fract_y
_atom_site_fract_z
Si Si1 0.475383 0.205255 0.594670
Si Si2 0.101754 0.624725 0.138777
Si Si3 0.138822 0.117277 0.113028
Si Si4 0.324498 0.941260 0.069717
Si Si5 0.676983 0.477599 0.171300
O O1 0.500000 0.166634 0.750000
O O2 0.575652 0.189842 0.490157
O O3 0.432294 0.298939 0.618944
O O4 0.383309 0.144636 0.531484
O O5 0.233606 0.636195 0.155259
O O6 0.100141 0.524149 0.097980
O O7 0.000000 0.637324 0.250000
O O8 0.112528 0.041775 0.224809
O O9 0.125081 0.083691 0.948239
O O10 0.253066 0.929229 0.213838
O O11 0.251315 0.966651 0.934880
#
# Coordination Sequence:
#
# PCOD9454060 Si02
#       5
#     8   8   8   8   8
#     4  12  23  35  58  91 120 149 194 246 295 348
#     4  10  21  37  58  86 121 159 190 233 302 357
#     4  10  22  40  59  86 117 153 202 248 289 349
#     4  10  18  33  58  88 120 149 187 240 301 360
#     4   8  18  37  59  79 114 164 194 229 295 348
#
# _framework density 22.232510000000001
#
# number of rings (size 3 to 8) (size 9 to 14) (size 15 to 20)
#    0.000    2.400    0.000    6.000    0.000    8.000 
#    0.000    3.000    0.000    0.000    0.000    0.000 
#    0.000    0.000    0.000    0.000    0.000    0.000 
#
# Total GULP energy -222804.704057 kJ/mol
# GULP energy per Si atom -5570.117601 kJ/mol
# Density = 2.218191 g / cm^3
# Si number density = 22.232510 Si / 1000 Ang^3
#
#
#
# Elastic Constant Matrix: (Units=GPa)
#
#
# Indices 1 2 3 4 5 6 
#
# 1 81.7706 24.2057 31.5639 0.0000 0.0000 0.0000
# 2 24.2057 63.0205 3.3130 0.0000 0.0000 0.0000
# 3 31.5639 3.3130 129.1509 0.0000 0.0000 0.0000
# 4 0.0000 0.0000 0.0000 -0.2687 0.0000 0.0000
# 5 0.0000 0.0000 0.0000 0.0000 -16.8890 0.0000
# 6 0.0000 0.0000 0.0000 0.0000 0.0000 28.4136
#
#
#
# Elastic Compliance Matrix: (Units=1/GPa)
#
#
# Indices 1 2 3 4 5 6 
#
# 1 0.015300 -0.005688 -0.003593 0.000000 0.000000 0.000000
# 2 -0.005688 0.018004 0.000928 0.000000 0.000000 0.000000
# 3 -0.003593 0.000928 0.008597 0.000000 0.000000 0.000000
# 4 0.000000 0.000000 0.000000 -3.722115 0.000000 0.000000
# 5 0.000000 0.000000 0.000000 0.000000 -0.059210 0.000000
# 6 0.000000 0.000000 0.000000 0.000000 0.000000 0.035194
#
#
# Mechanical properties :
#
#
# Convention : Reuss Voigt Hill
#
# Bulk Modulus (GPa) = 39.69001 43.56747 41.62874
# Shear Modulus (GPa) = -1.35902 16.57515 7.60807
#
# Velocity S-wave (km/s) = -0.78269 2.73341 1.85188
# Velocity P-wave (km/s) = 4.13209 5.44067 4.83089
#
# Compressibility (1/GPa) = 0.02519526
#
# Stress axis : x y z
#
# Youngs Moduli (GPa) = 65.35912 55.54421 116.31595
#
# Poissons Ratio (x) = 0.31592 0.41797
# Poissons Ratio (y) = 0.37175 -0.10797
# Poissons Ratio (z) = 0.23486 -0.05156
#
# Static dielectric constant tensor:
#      x y z
#    x 1.900480 0.000000 0.000000 
#    y 0.000000 1.786960 0.000000 
#    z 0.000000 0.000000 2.019590 
# 
# From -- ./inp_files/5660.got.cif
#   From: 2010.05.17/outbox.cif.g08.bks.cpg/sg60_3_cif.got.tgz:5660.got - 2010.06.03 14:59:27.
