data_PCOD9454234
_publ_section_title
;
Structure prediction by ZEFSAII (Michael W. Deem and Ramdas Pophale) SiO2 
 PCOD9454234
Probable space group: P B C N
;
_chemical_formula_sum "Si O2"
_cell_formula_units_Z 40
_cell_length_a 8.416611
_cell_length_b 25.238200
_cell_length_c 10.356015
_cell_angle_alpha 90.000000
_cell_angle_beta 90.000000
_cell_angle_gamma 90.000000
_cell_volume 2199.825863
_symmetry_space_group_name_H-M "P B C N"
_symmetry_group_IT_number 60
_symmetry_cell_setting 'orthorhombic'
loop_
_space_group_symop_operation_xyz
x,y,z
1/2-x,1/2-y,1/2+z
1/2+x,1/2-y,-z
-x,y,1/2-z
-x,-y,-z
1/2+x,1/2+y,1/2-z
1/2-x,1/2+y,z
x,-y,1/2+z
loop_
_atom_site_type_symbol
_atom_site_label
_atom_site_fract_x
_atom_site_fract_y
_atom_site_fract_z
Si Si1 0.410917 0.430504 0.114879
Si Si2 0.700833 0.674409 0.992404
Si Si3 0.911069 0.232170 0.388267
Si Si4 0.628130 0.451919 0.867460
Si Si5 0.314502 0.854439 0.725473
O O1 0.500000 0.427784 0.250000
O O2 0.313913 0.376874 0.096894
O O3 0.320956 0.487026 0.113720
O O4 0.535957 0.433983 0.996477
O O5 0.834615 0.714550 0.943356
O O6 0.536199 0.706576 0.011732
O O7 0.735845 0.651955 0.134389
O O8 0.769222 0.190441 0.361447
O O9 0.000000 0.240443 0.250000
O O10 0.500000 0.450088 0.750000
O O11 0.766638 0.411116 0.833179
O O12 0.500000 0.847541 0.750000
#
# Coordination Sequence:
#
# PCOD9454234 Si02
#       5
#     8   8   8   8   8
#     4  10  21  34  65  91 115 152 203 250 298 361
#     4  11  21  40  60  90 119 160 201 254 296 365
#     4  10  22  38  59  86 121 160 202 249 307 368
#     4  10  18  40  64  85 114 158 206 244 301 370
#     4  11  21  38  62  85 116 164 204 246 302 369
#
# _framework density 18.183257999999999
#
# number of rings (size 3 to 8) (size 9 to 14) (size 15 to 20)
#    0.000    1.600    4.000    1.800    0.000    4.000 
#    3.600    2.000    0.000    0.000    0.000    0.000 
#    0.000    0.000    0.000    0.000    0.000    0.000 
#
# Total GULP energy -223196.255771 kJ/mol
# GULP energy per Si atom -5579.906394 kJ/mol
# Density = 1.814187 g / cm^3
# Si number density = 18.183258 Si / 1000 Ang^3
#
#
#
# Elastic Constant Matrix: (Units=GPa)
#
#
# Indices 1 2 3 4 5 6 
#
# 1 75.3936 49.3505 12.3648 0.0000 0.0000 0.0000
# 2 49.3505 151.0560 34.1540 0.0000 0.0000 0.0000
# 3 12.3648 34.1540 73.7413 0.0000 0.0000 0.0000
# 4 0.0000 0.0000 0.0000 20.6825 0.0000 0.0000
# 5 0.0000 0.0000 0.0000 0.0000 18.4027 0.0000
# 6 0.0000 0.0000 0.0000 0.0000 0.0000 32.7285
#
#
#
# Elastic Compliance Matrix: (Units=1/GPa)
#
#
# Indices 1 2 3 4 5 6 
#
# 1 0.016878 -0.005444 -0.000308 0.000000 0.000000 0.000000
# 2 -0.005444 0.009151 -0.003325 0.000000 0.000000 0.000000
# 3 -0.000308 -0.003325 0.015153 0.000000 0.000000 0.000000
# 4 0.000000 0.000000 0.000000 0.048350 0.000000 0.000000
# 5 0.000000 0.000000 0.000000 0.000000 0.054340 0.000000
# 6 0.000000 0.000000 0.000000 0.000000 0.000000 0.030554
#
#
# Mechanical properties :
#
#
# Convention : Reuss Voigt Hill
#
# Bulk Modulus (GPa) = 43.43068 54.65881 49.04474
# Shear Modulus (GPa) = 24.96790 27.98418 26.47604
#
# Velocity S-wave (km/s) = 3.70959 3.92728 3.81998
# Velocity P-wave (km/s) = 6.50269 7.11968 6.81817
#
# Compressibility (1/GPa) = 0.02302520
#
# Stress axis : x y z
#
# Youngs Moduli (GPa) = 59.24855 109.28231 65.99446
#
# Poissons Ratio (x) = 0.59497 0.02036
# Poissons Ratio (y) = 0.32257 0.21945
# Poissons Ratio (z) = 0.01828 0.36340
#
# Static dielectric constant tensor:
#      x y z
#    x 1.622290 0.000000 0.000000 
#    y 0.000000 1.651070 0.000000 
#    z 0.000000 0.000000 1.620160 
# 
# From -- ./inp_files/3788.got.cif
#   From: 2010.05.17/outbox.cif.g08.bks.cpg/sg60_2_cif.got.tgz:3788.got - 2010.06.03 14:59:27.
