data_PCOD9454750
_publ_section_title
;
Structure prediction by ZEFSAII (Michael W. Deem and Ramdas Pophale) SiO2 
 PCOD9454750
Probable space group: P B C N
;
_chemical_formula_sum "Si O2"
_cell_formula_units_Z 52
_cell_length_a 7.683921
_cell_length_b 14.237226
_cell_length_c 24.062148
_cell_angle_alpha 90.000000
_cell_angle_beta 90.000000
_cell_angle_gamma 90.000000
_cell_volume 2632.344126
_symmetry_space_group_name_H-M "P B C N"
_symmetry_group_IT_number 60
_symmetry_cell_setting 'orthorhombic'
loop_
_space_group_symop_operation_xyz
x,y,z
1/2-x,1/2-y,1/2+z
1/2+x,1/2-y,-z
-x,y,1/2-z
-x,-y,-z
1/2+x,1/2+y,1/2-z
1/2-x,1/2+y,z
x,-y,1/2+z
loop_
_atom_site_type_symbol
_atom_site_label
_atom_site_fract_x
_atom_site_fract_y
_atom_site_fract_z
Si Si1 0.500000 0.140340 0.250000
Si Si2 0.640454 0.872360 0.996286
Si Si3 0.190155 0.809992 0.686366
Si Si4 0.500000 0.842562 0.250000
Si Si5 0.702940 0.062389 0.059286
Si Si6 0.975587 0.209324 0.435249
Si Si7 0.000000 0.976404 0.750000
Si Si8 0.304277 0.985735 0.317490
O O1 0.604448 0.183657 0.302069
O O2 0.361474 0.076875 0.282604
O O3 0.555665 0.808776 0.045076
O O4 0.702078 0.975919 0.015623
O O5 0.481562 0.885746 0.952421
O O6 0.809768 0.819726 0.972748
O O7 0.105327 0.789329 0.626755
O O8 0.097955 0.906282 0.707070
O O9 0.145048 0.726941 0.728573
O O10 0.441468 0.906916 0.300963
O O11 0.705095 0.012851 0.119133
O O12 0.867886 0.132928 0.057647
O O13 0.123193 0.039420 0.788278
#
# Coordination Sequence:
#
# PCOD9454750 Si02
#       8
#     4   8   8   4   8   8   4   8
#     4   9  20  36  62  87 120 156 210 247 316 400
#     4  11  25  41  66  98 130 171 232 279 328 398
#     4  10  20  37  60  87 120 162 202 259 321 385
#     4  10  22  36  58  90 128 152 212 258 310 398
#     4  11  23  43  67  92 133 176 221 280 337 391
#     4  12  22  43  66  96 131 179 221 277 338 398
#     4   9  18  34  58  81 112 156 204 237 312 388
#     4  10  19  38  59  87 118 165 197 261 317 382
#
# _framework density 19.754256999999999
#
# number of rings (size 3 to 8) (size 9 to 14) (size 15 to 20)
#    0.000    1.538    3.077    2.308    0.000    0.615 
#    0.000    1.538    0.000    0.000    0.000    0.000 
#    0.000    0.000    0.000    0.000    0.000    0.000 
#
# Total GULP energy -289611.302083 kJ/mol
# GULP energy per Si atom -5569.448117 kJ/mol
# Density = 1.970930 g / cm^3
# Si number density = 19.754257 Si / 1000 Ang^3
#
#
#
# Elastic Constant Matrix: (Units=GPa)
#
#
# Indices 1 2 3 4 5 6 
#
# 1 89.7067 11.4258 17.1508 0.0000 0.0000 0.0000
# 2 11.4258 39.8293 -13.6280 0.0000 0.0000 0.0000
# 3 17.1508 -13.6280 59.6466 0.0000 0.0000 0.0000
# 4 0.0000 0.0000 0.0000 -40.6776 0.0000 0.0000
# 5 0.0000 0.0000 0.0000 0.0000 33.0191 0.0000
# 6 0.0000 0.0000 0.0000 0.0000 0.0000 -18.9488
#
#
#
# Elastic Compliance Matrix: (Units=1/GPa)
#
#
# Indices 1 2 3 4 5 6 
#
# 1 0.012761 -0.005333 -0.004888 0.000000 0.000000 0.000000
# 2 -0.005333 0.029465 0.008266 0.000000 0.000000 0.000000
# 3 -0.004888 0.008266 0.020059 0.000000 0.000000 0.000000
# 4 0.000000 0.000000 0.000000 -0.024584 0.000000 0.000000
# 5 0.000000 0.000000 0.000000 0.000000 0.030285 0.000000
# 6 0.000000 0.000000 0.000000 0.000000 0.000000 -0.052774
#
#
# Mechanical properties :
#
#
# Convention : Reuss Voigt Hill
#
# Bulk Modulus (GPa) = 17.13056 24.34218 20.73637
# Shear Modulus (GPa) = 129.58904 6.29414 67.94159
#
# Velocity S-wave (km/s) = 8.10820 1.78694 5.87095
# Velocity P-wave (km/s) = 9.81570 4.07514 7.51514
#
# Compressibility (1/GPa) = 0.05837522
#
# Stress axis : x y z
#
# Youngs Moduli (GPa) = 78.36227 33.93817 49.85182
#
# Poissons Ratio (x) = 0.18100 0.24367
# Poissons Ratio (y) = 0.41793 -0.41206
# Poissons Ratio (z) = 0.38303 -0.28052
#
# Static dielectric constant tensor:
#      x y z
#    x 1.619260 0.000000 0.000000 
#    y 0.000000 1.677060 0.000000 
#    z 0.000000 0.000000 1.695760 
# 
# From -- ./inp_files/22179.got.cif
#   From: 2010.05.17/outbox.cif.g08.bks.cpg/sg60_12_cif.got.tgz:22179.got - 2010.06.03 14:59:27.
