data_PCOD9454172
_publ_section_title
;
Structure prediction by ZEFSAII (Michael W. Deem and Ramdas Pophale) SiO2 
 PCOD9454172
Probable space group: P B C N
;
_chemical_formula_sum "Si O2"
_cell_formula_units_Z 48
_cell_length_a 18.574173
_cell_length_b 8.913255
_cell_length_c 16.596337
_cell_angle_alpha 90.000000
_cell_angle_beta 90.000000
_cell_angle_gamma 90.000000
_cell_volume 2747.628817
_symmetry_space_group_name_H-M "P B C N"
_symmetry_group_IT_number 60
_symmetry_cell_setting 'orthorhombic'
loop_
_space_group_symop_operation_xyz
x,y,z
1/2-x,1/2-y,1/2+z
1/2+x,1/2-y,-z
-x,y,1/2-z
-x,-y,-z
1/2+x,1/2+y,1/2-z
1/2-x,1/2+y,z
x,-y,1/2+z
loop_
_atom_site_type_symbol
_atom_site_label
_atom_site_fract_x
_atom_site_fract_y
_atom_site_fract_z
Si Si1 0.827275 0.802637 0.110180
Si Si2 0.070211 0.622170 0.960425
Si Si3 0.085205 0.288492 0.224812
Si Si4 0.429960 0.914492 0.801104
Si Si5 0.590604 0.172711 0.961014
Si Si6 0.171700 0.156404 0.367124
O O1 0.883076 0.725711 0.172259
O O2 0.750227 0.729765 0.128601
O O3 0.824281 0.980778 0.115944
O O4 0.856436 0.754333 0.022328
O O5 0.055091 0.512960 0.882547
O O6 0.123370 0.750720 0.930975
O O7 0.993700 0.691040 0.984979
O O8 0.101231 0.507177 0.026476
O O9 0.108208 0.459079 0.246721
O O10 0.095687 0.270884 0.130067
O O11 0.132600 0.183297 0.281474
O O12 0.000000 0.274914 0.250000
O O13 0.500000 0.871063 0.750000
#
# Coordination Sequence:
#
# PCOD9454172 Si02
#       6
#     8   8   8   8   8   8
#     4  11  24  37  60  82 122 159 197 242 297 348
#     4   9  18  34  63  86 116 148 192 237 290 348
#     4  10  18  37  65  87 116 152 195 240 295 349
#     4   9  16  34  57  88 113 153 192 231 288 350
#     4  10  18  36  62  92 109 155 191 243 286 356
#     4  11  22  42  56  84 120 158 194 243 300 347
#
# _framework density 17.469609999999999
#
# number of rings (size 3 to 8) (size 9 to 14) (size 15 to 20)
#    0.000    2.000    5.000    3.000    0.000    1.333 
#    0.000    8.333    0.000    0.000    0.000    0.000 
#    0.000    0.000    0.000    0.000    0.000    0.000 
#
# Total GULP energy -267433.330726 kJ/mol
# GULP energy per Si atom -5571.527723 kJ/mol
# Density = 1.742985 g / cm^3
# Si number density = 17.469610 Si / 1000 Ang^3
#
#
#
# Elastic Constant Matrix: (Units=GPa)
#
#
# Indices 1 2 3 4 5 6 
#
# 1 95.7140 63.8744 48.3556 0.0000 0.0000 0.0000
# 2 63.8744 122.8974 41.7441 0.0000 0.0000 0.0000
# 3 48.3556 41.7441 93.6993 0.0000 0.0000 0.0000
# 4 0.0000 0.0000 0.0000 28.0721 0.0000 0.0000
# 5 0.0000 0.0000 0.0000 0.0000 22.4309 0.0000
# 6 0.0000 0.0000 0.0000 0.0000 0.0000 30.6913
#
#
#
# Elastic Compliance Matrix: (Units=1/GPa)
#
#
# Indices 1 2 3 4 5 6 
#
# 1 0.018664 -0.007575 -0.006257 0.000000 0.000000 0.000000
# 2 -0.007575 0.012662 -0.001732 0.000000 0.000000 0.000000
# 3 -0.006257 -0.001732 0.014673 0.000000 0.000000 0.000000
# 4 0.000000 0.000000 0.000000 0.035623 0.000000 0.000000
# 5 0.000000 0.000000 0.000000 0.000000 0.044581 0.000000
# 6 0.000000 0.000000 0.000000 0.000000 0.000000 0.032582
#
#
# Mechanical properties :
#
#
# Convention : Reuss Voigt Hill
#
# Bulk Modulus (GPa) = 67.24434 68.91764 68.08099
# Shear Modulus (GPa) = 25.65792 26.79465 26.22628
#
# Velocity S-wave (km/s) = 3.83654 3.92061 3.87880
# Velocity P-wave (km/s) = 7.62897 7.74794 7.68868
#
# Compressibility (1/GPa) = 0.01487114
#
# Stress axis : x y z
#
# Youngs Moduli (GPa) = 53.57831 78.97531 68.15144
#
# Poissons Ratio (x) = 0.59825 0.42644
# Poissons Ratio (y) = 0.40586 0.11803
# Poissons Ratio (z) = 0.33526 0.13677
#
# Static dielectric constant tensor:
#      x y z
#    x 1.607470 0.000000 0.000000 
#    y 0.000000 1.589150 0.000000 
#    z 0.000000 0.000000 1.642200 
# 
# From -- ./inp_files/20522.got.cif
#   From: 2010.05.17/outbox.cif.g08.bks.cpg/sg60_11_cif.got.tgz:20522.got - 2010.06.03 14:59:27.
