data_PCOD9454440
_publ_section_title
;
Structure prediction by ZEFSAII (Michael W. Deem and Ramdas Pophale) SiO2 
 PCOD9454440
Probable space group: P B C N
;
_chemical_formula_sum "Si O2"
_cell_formula_units_Z 40
_cell_length_a 15.928115
_cell_length_b 14.927192
_cell_length_c 7.903601
_cell_angle_alpha 90.000000
_cell_angle_beta 90.000000
_cell_angle_gamma 90.000000
_cell_volume 1879.176224
_symmetry_space_group_name_H-M "P B C N"
_symmetry_group_IT_number 60
_symmetry_cell_setting 'orthorhombic'
loop_
_space_group_symop_operation_xyz
x,y,z
1/2-x,1/2-y,1/2+z
1/2+x,1/2-y,-z
-x,y,1/2-z
-x,-y,-z
1/2+x,1/2+y,1/2-z
1/2-x,1/2+y,z
x,-y,1/2+z
loop_
_atom_site_type_symbol
_atom_site_label
_atom_site_fract_x
_atom_site_fract_y
_atom_site_fract_z
Si Si1 0.775550 0.869293 0.496532
Si Si2 0.381819 0.898696 0.796854
Si Si3 0.109338 0.599638 0.675348
Si Si4 0.091367 0.726337 0.982991
Si Si5 0.040907 0.910381 0.068014
O O1 0.718225 0.896170 0.657443
O O2 0.708319 0.877938 0.347182
O O3 0.815614 0.771939 0.526325
O O4 0.858411 0.924668 0.446330
O O5 0.407705 0.824553 0.662050
O O6 0.401621 0.996137 0.723286
O O7 0.422223 0.885050 0.983010
O O8 0.079118 0.659936 0.828518
O O9 0.031429 0.813808 0.976165
O O10 0.000000 0.896178 0.250000
O O11 0.000000 0.000000 0.000000
#
# Coordination Sequence:
#
# PCOD9454440 Si02
#       5
#     8   8   8   8   8
#     4   8  21  31  60  82 126 163 209 260 315 388
#     4  10  19  33  59  99 120 153 206 276 339 366
#     4  10  19  33  59  99 120 154 207 276 345 362
#     4  10  19  39  60  85 131 159 213 271 313 391
#     4  10  24  42  56  83 125 178 216 242 305 387
#
# _framework density 21.285924000000001
#
# number of rings (size 3 to 8) (size 9 to 14) (size 15 to 20)
#    2.400    0.000    2.000    1.200    2.800    0.000 
#    3.600    0.000    0.000    1.200    0.000    0.000 
#    0.000    0.000    0.000    0.000    0.000    0.000 
#
# Total GULP energy -222711.590726 kJ/mol
# GULP energy per Si atom -5567.789768 kJ/mol
# Density = 2.123748 g / cm^3
# Si number density = 21.285924 Si / 1000 Ang^3
#
#
#
# Elastic Constant Matrix: (Units=GPa)
#
#
# Indices 1 2 3 4 5 6 
#
# 1 123.4155 25.8811 43.3504 0.0000 0.0000 0.0000
# 2 25.8811 149.2848 69.6006 0.0000 0.0000 0.0000
# 3 43.3504 69.6006 134.9356 0.0000 0.0000 0.0000
# 4 0.0000 0.0000 0.0000 -68.4498 0.0000 0.0000
# 5 0.0000 0.0000 0.0000 0.0000 39.8590 0.0000
# 6 0.0000 0.0000 0.0000 0.0000 0.0000 18.6773
#
#
#
# Elastic Compliance Matrix: (Units=1/GPa)
#
#
# Indices 1 2 3 4 5 6 
#
# 1 0.009143 -0.000284 -0.002791 0.000000 0.000000 0.000000
# 2 -0.000284 0.008828 -0.004463 0.000000 0.000000 0.000000
# 3 -0.002791 -0.004463 0.010609 0.000000 0.000000 0.000000
# 4 0.000000 0.000000 0.000000 -0.014609 0.000000 0.000000
# 5 0.000000 0.000000 0.000000 0.000000 0.025088 0.000000
# 6 0.000000 0.000000 0.000000 0.000000 0.000000 0.053541
#
#
# Mechanical properties :
#
#
# Convention : Reuss Voigt Hill
#
# Bulk Modulus (GPa) = 74.04191 76.14446 75.09319
# Shear Modulus (GPa) = 44.57261 15.93755 30.25508
#
# Velocity S-wave (km/s) = 4.58098 2.73927 3.77419
# Velocity P-wave (km/s) = 7.92720 6.77161 7.37208
#
# Compressibility (1/GPa) = 0.01350586
#
# Stress axis : x y z
#
# Youngs Moduli (GPa) = 109.37911 113.27114 94.25673
#
# Poissons Ratio (x) = 0.03216 0.26305
# Poissons Ratio (y) = 0.03105 0.42062
# Poissons Ratio (z) = 0.30525 0.50548
#
# Static dielectric constant tensor:
#      x y z
#    x 1.831420 0.000000 0.000000 
#    y 0.000000 1.763400 0.000000 
#    z 0.000000 0.000000 1.657130 
# 
# From -- ./inp_files/7270.got.cif
#   From: 2010.05.17/outbox.cif.g08.bks.cpg/sg60_4_cif.got.tgz:7270.got - 2010.06.03 14:59:27.
