data_PCOD9454573
_publ_section_title
;
Structure prediction by ZEFSAII (Michael W. Deem and Ramdas Pophale) SiO2 
 PCOD9454573
Probable space group: P B C N
;
_chemical_formula_sum "Si O2"
_cell_formula_units_Z 64
_cell_length_a 29.498351
_cell_length_b 5.232429
_cell_length_c 15.759045
_cell_angle_alpha 90.000000
_cell_angle_beta 90.000000
_cell_angle_gamma 90.000000
_cell_volume 2432.377507
_symmetry_space_group_name_H-M "P B C N"
_symmetry_group_IT_number 60
_symmetry_cell_setting 'orthorhombic'
loop_
_space_group_symop_operation_xyz
x,y,z
1/2-x,1/2-y,1/2+z
1/2+x,1/2-y,-z
-x,y,1/2-z
-x,-y,-z
1/2+x,1/2+y,1/2-z
1/2-x,1/2+y,z
x,-y,1/2+z
loop_
_atom_site_type_symbol
_atom_site_label
_atom_site_fract_x
_atom_site_fract_y
_atom_site_fract_z
Si Si1 0.397611 0.934287 0.686319
Si Si2 0.138246 0.777984 0.830955
Si Si3 0.225783 0.100372 0.818125
Si Si4 0.010525 0.487953 0.135495
Si Si5 0.546825 0.538008 0.717841
Si Si6 0.274658 0.375100 0.524051
Si Si7 0.361451 0.306044 0.024049
Si Si8 0.541124 0.682690 0.015271
O O1 0.443112 0.108331 0.680535
O O2 0.425220 0.672469 0.704242
O O3 0.368466 0.890582 0.601547
O O4 0.369820 0.046014 0.765584
O O5 0.177866 0.967178 0.799741
O O6 0.149069 0.694040 0.928856
O O7 0.091940 0.939572 0.829879
O O8 0.262123 0.885388 0.788347
O O9 0.227320 0.124191 0.921021
O O10 0.978501 0.718141 0.170375
O O11 0.972673 0.288792 0.106831
O O12 0.035018 0.585806 0.049784
O O13 0.500000 0.407683 0.750000
O O14 0.261009 0.093229 0.553216
O O15 0.323541 0.487942 0.546783
O O16 0.410520 0.431319 0.007212
O O17 0.500000 0.500000 0.000000
#
# Coordination Sequence:
#
# PCOD9454573 Si02
#       8
#     8   8   8   8   8   8   8   8
#     4  10  23  41  60  96 137 170 228 284 343 412
#     4  11  23  40  69  95 129 183 230 281 357 428
#     4   9  20  39  68 100 135 176 231 296 357 425
#     4   9  20  37  56  88 133 175 214 279 330 404
#     4  10  22  40  62  92 134 180 229 282 342 417
#     4   9  19  42  66  98 134 178 230 286 355 424
#     4  10  22  42  63  99 129 175 227 285 346 414
#     4  10  19  35  59  94 130 170 225 268 333 408
#
# _framework density 26.311703999999999
#
# number of rings (size 3 to 8) (size 9 to 14) (size 15 to 20)
#    0.000    2.250    0.000    1.500    1.750    5.500 
#   18.000    1.250    0.000    0.000    0.000    0.000 
#    0.000    0.000    0.000    0.000    0.000    0.000 
#
# Total GULP energy -356964.022863 kJ/mol
# GULP energy per Si atom -5577.562857 kJ/mol
# Density = 2.625182 g / cm^3
# Si number density = 26.311704 Si / 1000 Ang^3
#
#
#
# Elastic Constant Matrix: (Units=GPa)
#
#
# Indices 1 2 3 4 5 6 
#
# 1 129.1030 0.3080 -2.0560 0.0000 0.0000 0.0000
# 2 0.3080 33.6690 -9.7649 0.0000 0.0000 0.0000
# 3 -2.0560 -9.7649 76.1700 0.0000 0.0000 0.0000
# 4 0.0000 0.0000 0.0000 12.9612 0.0000 0.0000
# 5 0.0000 0.0000 0.0000 0.0000 18.3386 0.0000
# 6 0.0000 0.0000 0.0000 0.0000 0.0000 39.0743
#
#
#
# Elastic Compliance Matrix: (Units=1/GPa)
#
#
# Indices 1 2 3 4 5 6 
#
# 1 0.007749 -0.000011 0.000208 0.000000 0.000000 0.000000
# 2 -0.000011 0.030848 0.003954 0.000000 0.000000 0.000000
# 3 0.000208 0.003954 0.013641 0.000000 0.000000 0.000000
# 4 0.000000 0.000000 0.000000 0.077153 0.000000 0.000000
# 5 0.000000 0.000000 0.000000 0.000000 0.054530 0.000000
# 6 0.000000 0.000000 0.000000 0.000000 0.000000 0.025592
#
#
# Mechanical properties :
#
#
# Convention : Reuss Voigt Hill
#
# Bulk Modulus (GPa) = 16.51768 23.99068 20.25418
# Shear Modulus (GPa) = 22.58450 30.77181 26.67816
#
# Velocity S-wave (km/s) = 2.93293 3.42352 3.18768
# Velocity P-wave (km/s) = 4.21435 4.97644 4.61117
#
# Compressibility (1/GPa) = 0.06054119
#
# Stress axis : x y z
#
# Youngs Moduli (GPa) = 129.04744 32.41714 73.30792
#
# Poissons Ratio (x) = 0.00034 -0.01523
# Poissons Ratio (y) = 0.00137 -0.28989
# Poissons Ratio (z) = -0.02682 -0.12819
#
# Static dielectric constant tensor:
#      x y z
#    x 2.191840 0.000000 0.000000 
#    y 0.000000 2.174040 0.000000 
#    z 0.000000 0.000000 2.280190 
# 
# From -- ./inp_files/21287.got.cif
#   From: 2010.05.17/outbox.cif.g08.bks.cpg/sg60_11_cif.got.tgz:21287.got - 2010.06.03 14:59:27.
