data_PCOD9454153
_publ_section_title
;
Structure prediction by ZEFSAII (Michael W. Deem and Ramdas Pophale) SiO2 
 PCOD9454153
Probable space group: P B C N
;
_chemical_formula_sum "Si O2"
_cell_formula_units_Z 44
_cell_length_a 9.814960
_cell_length_b 11.358576
_cell_length_c 17.685288
_cell_angle_alpha 90.000000
_cell_angle_beta 90.000000
_cell_angle_gamma 90.000000
_cell_volume 1971.626101
_symmetry_space_group_name_H-M "P B C N"
_symmetry_group_IT_number 60
_symmetry_cell_setting 'orthorhombic'
loop_
_space_group_symop_operation_xyz
x,y,z
1/2-x,1/2-y,1/2+z
1/2+x,1/2-y,-z
-x,y,1/2-z
-x,-y,-z
1/2+x,1/2+y,1/2-z
1/2-x,1/2+y,z
x,-y,1/2+z
loop_
_atom_site_type_symbol
_atom_site_label
_atom_site_fract_x
_atom_site_fract_y
_atom_site_fract_z
Si Si1 0.000000 0.976229 0.750000
Si Si2 0.074689 0.881659 0.102046
Si Si3 0.322318 0.326914 0.851787
Si Si4 0.471035 0.851230 0.907439
Si Si5 0.962543 0.616367 0.573609
Si Si6 0.179079 0.975274 0.480384
O O1 0.875014 0.894611 0.722097
O O2 0.960935 0.059478 0.819317
O O3 0.091304 0.742027 0.108065
O O4 0.949861 0.895687 0.041604
O O5 0.183004 0.965581 0.062044
O O6 0.159838 0.303721 0.859291
O O7 0.427273 0.220524 0.868561
O O8 0.335524 0.418744 0.920738
O O9 0.496518 0.989242 0.890003
O O10 0.447572 0.854698 0.999347
O O11 0.814049 0.595295 0.536439
#
# Coordination Sequence:
#
# PCOD9454153 Si02
#       6
#     4   8   8   8   8   8
#     4  10  24  36  58  84 122 176 210 240 322 382
#     4  10  18  36  57  89 117 162 210 255 305 384
#     4  10  19  37  59  90 121 163 206 260 315 383
#     4  10  20  34  64  92 124 153 208 267 319 380
#     4  10  19  34  61 101 119 155 204 272 334 357
#     4   9  18  32  62  86 118 154 208 260 309 366
#
# _framework density 22.316604000000002
#
# number of rings (size 3 to 8) (size 9 to 14) (size 15 to 20)
#    0.000    2.182    3.636    0.000    0.000    0.000 
#    0.000    2.727   12.000    0.000    0.000    0.000 
#    0.000    0.000    0.000    0.000    0.000    0.000 
#
# Total GULP energy -245146.211174 kJ/mol
# GULP energy per Si atom -5571.504799 kJ/mol
# Density = 2.226581 g / cm^3
# Si number density = 22.316604 Si / 1000 Ang^3
#
#
#
# Elastic Constant Matrix: (Units=GPa)
#
#
# Indices 1 2 3 4 5 6 
#
# 1 51.0223 0.1999 15.2105 0.0000 0.0000 0.0000
# 2 0.1999 117.5925 29.9710 0.0000 0.0000 0.0000
# 3 15.2105 29.9710 79.2267 0.0000 0.0000 0.0000
# 4 0.0000 0.0000 0.0000 29.9908 0.0000 0.0000
# 5 0.0000 0.0000 0.0000 0.0000 19.0820 0.0000
# 6 0.0000 0.0000 0.0000 0.0000 0.0000 30.0067
#
#
#
# Elastic Compliance Matrix: (Units=1/GPa)
#
#
# Indices 1 2 3 4 5 6 
#
# 1 0.020915 0.001093 -0.004429 0.000000 0.000000 0.000000
# 2 0.001093 0.009469 -0.003792 0.000000 0.000000 0.000000
# 3 -0.004429 -0.003792 0.014907 0.000000 0.000000 0.000000
# 4 0.000000 0.000000 0.000000 0.033344 0.000000 0.000000
# 5 0.000000 0.000000 0.000000 0.000000 0.052405 0.000000
# 6 0.000000 0.000000 0.000000 0.000000 0.000000 0.033326
#
#
# Mechanical properties :
#
#
# Convention : Reuss Voigt Hill
#
# Bulk Modulus (GPa) = 32.22116 37.62270 34.92193
# Shear Modulus (GPa) = 26.45982 29.31323 27.88653
#
# Velocity S-wave (km/s) = 3.44707 3.62818 3.53878
# Velocity P-wave (km/s) = 5.50569 5.86914 5.69032
#
# Compressibility (1/GPa) = 0.03103551
#
# Stress axis : x y z
#
# Youngs Moduli (GPa) = 47.81171 105.61327 67.08377
#
# Poissons Ratio (x) = -0.11547 0.29712
# Poissons Ratio (y) = -0.05227 0.25437
# Poissons Ratio (z) = 0.21176 0.40046
#
# Static dielectric constant tensor:
#      x y z
#    x 1.985560 0.000000 0.000000 
#    y 0.000000 1.888320 0.000000 
#    z 0.000000 0.000000 1.787050 
# 
# From -- ./inp_files/19946.got.cif
#   From: 2010.05.17/outbox.cif.g08.bks.cpg/sg60_10_cif.got.tgz:19946.got - 2010.06.03 14:59:27.
