data_PCOD9454761
_publ_section_title
;
Structure prediction by ZEFSAII (Michael W. Deem and Ramdas Pophale) SiO2 
 PCOD9454761
Probable space group: P B C N
;
_chemical_formula_sum "Si O2"
_cell_formula_units_Z 52
_cell_length_a 7.798818
_cell_length_b 13.896953
_cell_length_c 21.564832
_cell_angle_alpha 90.000000
_cell_angle_beta 90.000000
_cell_angle_gamma 90.000000
_cell_volume 2337.192334
_symmetry_space_group_name_H-M "P B C N"
_symmetry_group_IT_number 60
_symmetry_cell_setting 'orthorhombic'
loop_
_space_group_symop_operation_xyz
x,y,z
1/2-x,1/2-y,1/2+z
1/2+x,1/2-y,-z
-x,y,1/2-z
-x,-y,-z
1/2+x,1/2+y,1/2-z
1/2-x,1/2+y,z
x,-y,1/2+z
loop_
_atom_site_type_symbol
_atom_site_label
_atom_site_fract_x
_atom_site_fract_y
_atom_site_fract_z
Si Si1 0.529235 0.767041 0.582264
Si Si2 0.664069 0.621213 0.419424
Si Si3 0.259983 0.532140 0.962806
Si Si4 0.000000 0.999455 0.250000
Si Si5 0.843842 0.090623 0.863495
Si Si6 0.422506 0.138204 0.542530
Si Si7 0.835598 0.117472 0.141384
O O1 0.347538 0.825971 0.582992
O O2 0.489768 0.659618 0.606139
O O3 0.589114 0.779541 0.510274
O O4 0.667181 0.819377 0.627216
O O5 0.617426 0.583947 0.488282
O O6 0.680246 0.520310 0.383349
O O7 0.502613 0.671466 0.386688
O O8 0.319282 0.475669 0.903129
O O9 0.117164 0.610162 0.945464
O O10 0.165568 0.450140 0.004513
O O11 0.113089 0.927201 0.207928
O O12 0.117403 0.071071 0.292255
O O13 0.677575 0.141327 0.892966
#
# Coordination Sequence:
#
# PCOD9454761 Si02
#       7
#     8   8   8   4   8   8   8
#     4  10  21  41  67 100 131 169 214 279 340 390
#     4   9  19  38  66  97 129 166 205 265 337 395
#     4   8  14  31  63  93 120 159 203 261 330 385
#     4  10  24  42  60  88 130 178 230 264 320 404
#     4  10  20  42  61  93 138 171 214 273 327 395
#     4   8  16  34  60  95 130 153 211 267 329 399
#     4  10  19  38  62  88 123 170 219 263 315 385
#
# _framework density 22.248916000000001
#
# number of rings (size 3 to 8) (size 9 to 14) (size 15 to 20)
#    0.000    2.769    0.000    3.231    0.000    1.231 
#   24.923    6.923    0.000    0.000    0.000    0.000 
#    0.000    0.000    0.000    0.000    0.000    0.000 
#
# Total GULP energy -289801.492376 kJ/mol
# GULP energy per Si atom -5573.105623 kJ/mol
# Density = 2.219828 g / cm^3
# Si number density = 22.248916 Si / 1000 Ang^3
#
#
#
# Elastic Constant Matrix: (Units=GPa)
#
#
# Indices 1 2 3 4 5 6 
#
# 1 95.3083 19.2778 35.8860 0.0000 0.0000 0.0000
# 2 19.2778 97.8447 1.8944 0.0000 0.0000 0.0000
# 3 35.8860 1.8944 117.8642 0.0000 0.0000 0.0000
# 4 0.0000 0.0000 0.0000 11.8049 0.0000 0.0000
# 5 0.0000 0.0000 0.0000 0.0000 31.8809 0.0000
# 6 0.0000 0.0000 0.0000 0.0000 0.0000 36.6099
#
#
#
# Elastic Compliance Matrix: (Units=1/GPa)
#
#
# Indices 1 2 3 4 5 6 
#
# 1 0.012375 -0.002366 -0.003730 0.000000 0.000000 0.000000
# 2 -0.002366 0.010676 0.000549 0.000000 0.000000 0.000000
# 3 -0.003730 0.000549 0.009611 0.000000 0.000000 0.000000
# 4 0.000000 0.000000 0.000000 0.084710 0.000000 0.000000
# 5 0.000000 0.000000 0.000000 0.000000 0.031367 0.000000
# 6 0.000000 0.000000 0.000000 0.000000 0.000000 0.027315
#
#
# Mechanical properties :
#
#
# Convention : Reuss Voigt Hill
#
# Bulk Modulus (GPa) = 46.36489 47.23707 46.80098
# Shear Modulus (GPa) = 25.72841 32.98975 29.35908
#
# Velocity S-wave (km/s) = 3.40426 3.85484 3.63653
# Velocity P-wave (km/s) = 6.02797 6.41017 6.22201
#
# Compressibility (1/GPa) = 0.02156804
#
# Stress axis : x y z
#
# Youngs Moduli (GPa) = 80.80666 93.66970 104.04592
#
# Poissons Ratio (x) = 0.22162 0.38807
# Poissons Ratio (y) = 0.19119 -0.05710
# Poissons Ratio (z) = 0.30140 -0.05140
#
# Static dielectric constant tensor:
#      x y z
#    x 1.901950 0.000000 0.000000 
#    y 0.000000 1.904420 0.000000 
#    z 0.000000 0.000000 1.824590 
# 
# From -- ./inp_files/22124.got.cif
#   From: 2010.05.17/outbox.cif.g08.bks.cpg/sg60_12_cif.got.tgz:22124.got - 2010.06.03 14:59:27.
