data_PCOD9454058
_publ_section_title
;
Structure prediction by ZEFSAII (Michael W. Deem and Ramdas Pophale) SiO2 
 PCOD9454058
Probable space group: P B C N
;
_chemical_formula_sum "Si O2"
_cell_formula_units_Z 64
_cell_length_a 9.637676
_cell_length_b 19.033056
_cell_length_c 16.907433
_cell_angle_alpha 90.000000
_cell_angle_beta 90.000000
_cell_angle_gamma 90.000000
_cell_volume 3101.405285
_symmetry_space_group_name_H-M "P B C N"
_symmetry_group_IT_number 60
_symmetry_cell_setting 'orthorhombic'
loop_
_space_group_symop_operation_xyz
x,y,z
1/2-x,1/2-y,1/2+z
1/2+x,1/2-y,-z
-x,y,1/2-z
-x,-y,-z
1/2+x,1/2+y,1/2-z
1/2-x,1/2+y,z
x,-y,1/2+z
loop_
_atom_site_type_symbol
_atom_site_label
_atom_site_fract_x
_atom_site_fract_y
_atom_site_fract_z
Si Si1 0.718260 0.875255 0.094601
Si Si2 0.008307 0.632279 0.155090
Si Si3 0.674176 0.762854 0.556402
Si Si4 0.105313 0.148045 0.363384
Si Si5 0.107942 0.373831 0.070846
Si Si6 0.700483 0.333395 0.812751
Si Si7 0.337385 0.179314 0.733960
Si Si8 0.792792 0.463434 0.565022
O O1 0.820141 0.820427 0.051675
O O2 0.723904 0.854968 0.187583
O O3 0.743097 0.956682 0.079434
O O4 0.557834 0.866315 0.068781
O O5 0.942258 0.700372 0.111574
O O6 0.917158 0.567639 0.121229
O O7 0.000000 0.637245 0.250000
O O8 0.172802 0.630699 0.142050
O O9 0.817823 0.784458 0.599902
O O10 0.666226 0.805412 0.474973
O O11 0.166803 0.136603 0.274989
O O12 0.233078 0.248333 0.206287
O O13 0.159309 0.083713 0.414927
O O14 0.056768 0.159882 0.141324
O O15 0.158610 0.373311 0.160376
O O16 0.155191 0.441693 0.021867
O O17 0.500000 0.198432 0.750000
#
# Coordination Sequence:
#
# PCOD9454058 Si02
#       8
#     8   8   8   8   8   8   8   8
#     4  11  20  38  64  88 127 171 208 262 323 379
#     4  10  18  33  57  92 123 159 208 266 311 378
#     4  10  20  38  59  89 121 159 213 272 322 368
#     4   9  17  33  58  86 119 168 207 254 319 384
#     4   9  21  36  57  88 123 163 214 257 315 383
#     4  11  16  32  63  87 121 157 219 262 312 377
#     4  10  18  33  60  91 113 156 215 269 305 373
#     4  10  22  37  57  89 132 172 206 257 323 386
#
# _framework density 20.635807
#
# number of rings (size 3 to 8) (size 9 to 14) (size 15 to 20)
#    0.000    2.250    5.000    1.125    0.000    3.500 
#    0.000    0.000    8.250    1.500    0.000   14.875 
#    0.000    0.000    0.000    0.000    0.000    0.000 
#
# Total GULP energy -357335.443420 kJ/mol
# GULP energy per Si atom -5583.366303 kJ/mol
# Density = 2.058884 g / cm^3
# Si number density = 20.635807 Si / 1000 Ang^3
#
#
#
# Elastic Constant Matrix: (Units=GPa)
#
#
# Indices 1 2 3 4 5 6 
#
# 1 71.8273 15.5699 5.4177 0.0000 0.0000 0.0000
# 2 15.5699 130.7463 18.7810 0.0000 0.0000 0.0000
# 3 5.4177 18.7810 70.5523 0.0000 0.0000 0.0000
# 4 0.0000 0.0000 0.0000 8.2834 0.0000 0.0000
# 5 0.0000 0.0000 0.0000 0.0000 18.3767 0.0000
# 6 0.0000 0.0000 0.0000 0.0000 0.0000 9.6261
#
#
#
# Elastic Compliance Matrix: (Units=1/GPa)
#
#
# Indices 1 2 3 4 5 6 
#
# 1 0.014322 -0.001609 -0.000671 0.000000 0.000000 0.000000
# 2 -0.001609 0.008133 -0.002042 0.000000 0.000000 0.000000
# 3 -0.000671 -0.002042 0.014769 0.000000 0.000000 0.000000
# 4 0.000000 0.000000 0.000000 0.120724 0.000000 0.000000
# 5 0.000000 0.000000 0.000000 0.000000 0.054417 0.000000
# 6 0.000000 0.000000 0.000000 0.000000 0.000000 0.103885
#
#
# Mechanical properties :
#
#
# Convention : Reuss Voigt Hill
#
# Bulk Modulus (GPa) = 34.98962 39.18477 37.08720
# Shear Modulus (GPa) = 14.95128 22.81439 18.88283
#
# Velocity S-wave (km/s) = 2.69463 3.32862 3.02826
# Velocity P-wave (km/s) = 5.16469 5.81403 5.49895
#
# Compressibility (1/GPa) = 0.02857990
#
# Stress axis : x y z
#
# Youngs Moduli (GPa) = 69.82397 122.95190 67.70988
#
# Poissons Ratio (x) = 0.19784 0.04546
# Poissons Ratio (y) = 0.11235 0.13823
# Poissons Ratio (z) = 0.04688 0.25101
#
# Static dielectric constant tensor:
#      x y z
#    x 1.752530 0.000000 0.000000 
#    y 0.000000 1.758710 0.000000 
#    z 0.000000 0.000000 1.782090 
# 
# From -- ./inp_files/17062.got.cif
#   From: 2010.05.17/outbox.cif.g08.bks.cpg/sg60_9_cif.got.tgz:17062.got - 2010.06.03 14:59:27.
