data_PCOD9454413
_publ_section_title
;
Structure prediction by ZEFSAII (Michael W. Deem and Ramdas Pophale) SiO2 
 PCOD9454413
Probable space group: P B C N
;
_chemical_formula_sum "Si O2"
_cell_formula_units_Z 40
_cell_length_a 9.029415
_cell_length_b 16.522302
_cell_length_c 10.760451
_cell_angle_alpha 90.000000
_cell_angle_beta 90.000000
_cell_angle_gamma 90.000000
_cell_volume 1605.316407
_symmetry_space_group_name_H-M "P B C N"
_symmetry_group_IT_number 60
_symmetry_cell_setting 'orthorhombic'
loop_
_space_group_symop_operation_xyz
x,y,z
1/2-x,1/2-y,1/2+z
1/2+x,1/2-y,-z
-x,y,1/2-z
-x,-y,-z
1/2+x,1/2+y,1/2-z
1/2-x,1/2+y,z
x,-y,1/2+z
loop_
_atom_site_type_symbol
_atom_site_label
_atom_site_fract_x
_atom_site_fract_y
_atom_site_fract_z
Si Si1 0.334572 0.569536 0.426499
Si Si2 0.263566 0.506992 0.674322
Si Si3 0.504459 0.118618 0.385939
Si Si4 0.669804 0.745127 0.020824
Si Si5 0.325037 0.809152 0.227967
O O1 0.357543 0.515431 0.548468
O O2 0.347842 0.532631 0.290288
O O3 0.403644 0.658063 0.448773
O O4 0.155466 0.587509 0.426873
O O5 0.120782 0.453769 0.636948
O O6 0.213051 0.596194 0.716377
O O7 0.500000 0.158613 0.250000
O O8 0.564136 0.181122 0.485508
O O9 0.767617 0.732535 0.897463
O O10 0.749326 0.771757 0.148131
O O11 0.500000 0.797444 0.250000
#
# Coordination Sequence:
#
# PCOD9454413 Si02
#       5
#     8   8   8   8   8
#     4  10  20  33  54  84 110 142 177 225 284 337
#     4  10  19  33  55  82 112 137 174 232 291 335
#     4  10  19  34  55  82 111 142 182 231 281 337
#     4  11  22  35  53  85 118 149 185 222 287 347
#     4  11  22  37  58  87 118 150 186 234 286 338
#
# _framework density 24.917207999999999
#
# number of rings (size 3 to 8) (size 9 to 14) (size 15 to 20)
#    0.000    1.600    0.000    8.400    0.000    0.000 
#    0.000    0.000    0.000    0.000    0.000  187.600 
#    0.000    0.000    0.000    0.000    0.000    0.000 
#
# Total GULP energy -224006.727723 kJ/mol
# GULP energy per Si atom -5600.168193 kJ/mol
# Density = 2.486050 g / cm^3
# Si number density = 24.917208 Si / 1000 Ang^3
#
#
#
# Elastic Constant Matrix: (Units=GPa)
#
#
# Indices 1 2 3 4 5 6 
#
# 1 69.7517 33.7708 45.0439 0.0000 0.0000 0.0000
# 2 33.7708 95.2914 75.5969 0.0000 0.0000 0.0000
# 3 45.0439 75.5969 235.0438 0.0000 0.0000 0.0000
# 4 0.0000 0.0000 0.0000 71.0106 0.0000 0.0000
# 5 0.0000 0.0000 0.0000 0.0000 27.3964 0.0000
# 6 0.0000 0.0000 0.0000 0.0000 0.0000 -2.3726
#
#
#
# Elastic Compliance Matrix: (Units=1/GPa)
#
#
# Indices 1 2 3 4 5 6 
#
# 1 0.017895 -0.004862 -0.001866 0.000000 0.000000 0.000000
# 2 -0.004862 0.015410 -0.004025 0.000000 0.000000 0.000000
# 3 -0.001866 -0.004025 0.005906 0.000000 0.000000 0.000000
# 4 0.000000 0.000000 0.000000 0.014082 0.000000 0.000000
# 5 0.000000 0.000000 0.000000 0.000000 0.036501 0.000000
# 6 0.000000 0.000000 0.000000 0.000000 0.000000 -0.421474
#
#
# Mechanical properties :
#
#
# Convention : Reuss Voigt Hill
#
# Bulk Modulus (GPa) = 56.47358 78.76778 67.62068
# Shear Modulus (GPa) = -16.43267 35.58523 9.57628
#
# Velocity S-wave (km/s) = -2.57084 3.78317 1.96255
# Velocity P-wave (km/s) = 3.72846 7.12486 5.68617
#
# Compressibility (1/GPa) = 0.01770739
#
# Stress axis : x y z
#
# Youngs Moduli (GPa) = 55.88049 64.89323 169.30534
#
# Poissons Ratio (x) = 0.31550 0.31588
# Poissons Ratio (y) = 0.27168 0.68138
# Poissons Ratio (z) = 0.10426 0.26117
#
# Static dielectric constant tensor:
#      x y z
#    x 2.024130 0.000000 0.000000 
#    y 0.000000 1.951560 0.000000 
#    z 0.000000 0.000000 1.989200 
# 
# From -- ./inp_files/10825.got.cif
#   From: 2010.05.17/outbox.cif.g08.bks.cpg/sg60_6_cif.got.tgz:10825.got - 2010.06.03 14:59:27.
