data_PCOD9454867
_publ_section_title
;
Structure prediction by ZEFSAII (Michael W. Deem and Ramdas Pophale) SiO2 
 PCOD9454867
Probable space group: P B C N
;
_chemical_formula_sum "Si O2"
_cell_formula_units_Z 48
_cell_length_a 25.875201
_cell_length_b 10.835082
_cell_length_c 8.661118
_cell_angle_alpha 90.000000
_cell_angle_beta 90.000000
_cell_angle_gamma 90.000000
_cell_volume 2428.230389
_symmetry_space_group_name_H-M "P B C N"
_symmetry_group_IT_number 60
_symmetry_cell_setting 'orthorhombic'
loop_
_space_group_symop_operation_xyz
x,y,z
1/2-x,1/2-y,1/2+z
1/2+x,1/2-y,-z
-x,y,1/2-z
-x,-y,-z
1/2+x,1/2+y,1/2-z
1/2-x,1/2+y,z
x,-y,1/2+z
loop_
_atom_site_type_symbol
_atom_site_label
_atom_site_fract_x
_atom_site_fract_y
_atom_site_fract_z
Si Si1 0.811962 0.255557 0.685004
Si Si2 0.897394 0.874587 0.349701
Si Si3 0.804989 0.684830 0.719205
Si Si4 0.298287 0.009784 0.517606
Si Si5 0.814118 0.083952 0.390345
Si Si6 0.961945 0.057758 0.125756
O O1 0.863893 0.239893 0.784759
O O2 0.757372 0.201710 0.747790
O O3 0.798331 0.391608 0.622779
O O4 0.823167 0.170732 0.536835
O O5 0.926248 0.858969 0.513961
O O6 0.853764 0.975273 0.382912
O O7 0.932632 0.946580 0.219835
O O8 0.816030 0.619414 0.557232
O O9 0.822325 0.824781 0.745210
O O10 0.825296 0.589360 0.848615
O O11 0.242350 0.972155 0.583071
O O12 0.000000 0.121828 0.250000
O O13 0.000000 0.000000 0.000000
#
# Coordination Sequence:
#
# PCOD9454867 Si02
#       6
#     8   8   8   8   8   8
#     4  10  20  30  50  75 106 151 185 222 257 308
#     4  11  18  34  54  80 107 138 188 215 278 350
#     4  10  20  33  49  70 108 154 189 222 253 290
#     4  10  20  35  46  70 110 149 191 219 256 294
#     4  10  20  33  51  74 108 155 190 224 250 306
#     4   9  20  35  54  77 107 133 164 241 303 346
#
# _framework density 19.767482000000001
#
# number of rings (size 3 to 8) (size 9 to 14) (size 15 to 20)
#    0.000    2.000    3.333    1.000    2.333    0.000 
#    6.000    0.000    0.000    0.000    0.000    0.000 
#    0.000   26.667    0.000    0.000    0.000    0.000 
#
# Total GULP energy -267225.023491 kJ/mol
# GULP energy per Si atom -5567.187989 kJ/mol
# Density = 1.972249 g / cm^3
# Si number density = 19.767482 Si / 1000 Ang^3
#
#
#
# Elastic Constant Matrix: (Units=GPa)
#
#
# Indices 1 2 3 4 5 6 
#
# 1 24.4076 2.7336 27.3019 0.0000 0.0000 0.0000
# 2 2.7336 67.4823 23.1255 0.0000 0.0000 0.0000
# 3 27.3019 23.1255 69.7107 0.0000 0.0000 0.0000
# 4 0.0000 0.0000 0.0000 33.4785 0.0000 0.0000
# 5 0.0000 0.0000 0.0000 0.0000 41.1455 0.0000
# 6 0.0000 0.0000 0.0000 0.0000 0.0000 9.4172
#
#
#
# Elastic Compliance Matrix: (Units=1/GPa)
#
#
# Indices 1 2 3 4 5 6 
#
# 1 0.076650 0.008104 -0.032708 0.000000 0.000000 0.000000
# 2 0.008104 0.017576 -0.009004 0.000000 0.000000 0.000000
# 3 -0.032708 -0.009004 0.030142 0.000000 0.000000 0.000000
# 4 0.000000 0.000000 0.000000 0.029870 0.000000 0.000000
# 5 0.000000 0.000000 0.000000 0.000000 0.024304 0.000000
# 6 0.000000 0.000000 0.000000 0.000000 0.000000 0.106188
#
#
# Mechanical properties :
#
#
# Convention : Reuss Voigt Hill
#
# Bulk Modulus (GPa) = 17.49755 29.76917 23.63336
# Shear Modulus (GPa) = 13.47716 24.03755 18.75736
#
# Velocity S-wave (km/s) = 2.61393 3.49092 3.08376
# Velocity P-wave (km/s) = 4.24041 5.59831 4.96599
#
# Compressibility (1/GPa) = 0.05715086
#
# Stress axis : x y z
#
# Youngs Moduli (GPa) = 13.04634 56.89519 33.17626
#
# Poissons Ratio (x) = -0.46107 1.08513
# Poissons Ratio (y) = -0.10572 0.29873
# Poissons Ratio (z) = 0.42672 0.51231
#
# Static dielectric constant tensor:
#      x y z
#    x 1.723390 0.000000 0.000000 
#    y 0.000000 1.733930 0.000000 
#    z 0.000000 0.000000 1.831640 
# 
# From -- ./inp_files/7855.got.cif
#   From: 2010.05.17/outbox.cif.g08.bks.cpg/sg60_4_cif.got.tgz:7855.got - 2010.06.03 14:59:27.
