data_PCOD9454744
_publ_section_title
;
Structure prediction by ZEFSAII (Michael W. Deem and Ramdas Pophale) SiO2 
 PCOD9454744
Probable space group: P B C N
;
_chemical_formula_sum "Si O2"
_cell_formula_units_Z 60
_cell_length_a 8.660343
_cell_length_b 12.509240
_cell_length_c 26.977335
_cell_angle_alpha 90.000000
_cell_angle_beta 90.000000
_cell_angle_gamma 90.000000
_cell_volume 2922.570948
_symmetry_space_group_name_H-M "P B C N"
_symmetry_group_IT_number 60
_symmetry_cell_setting 'orthorhombic'
loop_
_space_group_symop_operation_xyz
x,y,z
1/2-x,1/2-y,1/2+z
1/2+x,1/2-y,-z
-x,y,1/2-z
-x,-y,-z
1/2+x,1/2+y,1/2-z
1/2-x,1/2+y,z
x,-y,1/2+z
loop_
_atom_site_type_symbol
_atom_site_label
_atom_site_fract_x
_atom_site_fract_y
_atom_site_fract_z
Si Si1 0.646218 0.297061 0.101808
Si Si2 0.421660 0.916382 0.434308
Si Si3 0.416509 0.663294 0.681060
Si Si4 0.169440 0.373851 0.727257
Si Si5 0.082112 0.948355 0.046154
Si Si6 0.793307 0.504806 0.873397
Si Si7 0.845231 0.631618 0.013360
Si Si8 0.500000 0.471921 0.750000
O O1 0.816895 0.344947 0.101213
O O2 0.553847 0.274602 0.152186
O O3 0.544437 0.392148 0.079296
O O4 0.648773 0.204511 0.061266
O O5 0.546999 0.974087 0.400358
O O6 0.509141 0.850945 0.477363
O O7 0.340700 0.010278 0.465850
O O8 0.344551 0.745969 0.720169
O O9 0.279573 0.616618 0.646660
O O10 0.486281 0.555012 0.704308
O O11 0.186532 0.425719 0.672413
O O12 0.334891 0.408366 0.752275
O O13 0.000000 0.407935 0.750000
O O14 0.177051 0.027693 0.082156
O O15 0.199950 0.861560 0.023270
O O16 0.000000 0.000000 0.000000
#
# Coordination Sequence:
#
# PCOD9454744 Si02
#       8
#     8   8   8   8   8   8   8   4
#     4  11  21  35  59  87 120 164 213 265 321 389
#     4  10  20  36  55  86 122 163 210 258 315 385
#     4  10  22  45  64  94 131 159 217 281 330 415
#     4  11  23  46  74  98 131 178 219 288 358 409
#     4  10  19  38  57  82 128 174 206 271 326 382
#     4   9  22  40  60  92 128 167 217 271 337 402
#     4  10  20  35  54  83 122 163 216 253 309 393
#     4  10  24  48  70 100 132 168 224 278 346 432
#
# _framework density 20.529869999999999
#
# number of rings (size 3 to 8) (size 9 to 14) (size 15 to 20)
#    0.000    1.867    2.000    1.600    1.867    0.000 
#   16.800    0.000    0.000    0.000    0.000    0.000 
#    0.000    0.000    0.000    0.000    0.000    0.000 
#
# Total GULP energy -334217.394104 kJ/mol
# GULP energy per Si atom -5570.289902 kJ/mol
# Density = 2.048314 g / cm^3
# Si number density = 20.529870 Si / 1000 Ang^3
#
#
#
# Elastic Constant Matrix: (Units=GPa)
#
#
# Indices 1 2 3 4 5 6 
#
# 1 113.6768 28.8790 30.4993 0.0000 0.0000 0.0000
# 2 28.8790 34.8472 7.1860 0.0000 0.0000 0.0000
# 3 30.4993 7.1860 63.6733 0.0000 0.0000 0.0000
# 4 0.0000 0.0000 0.0000 32.3416 0.0000 0.0000
# 5 0.0000 0.0000 0.0000 0.0000 -14.3368 0.0000
# 6 0.0000 0.0000 0.0000 0.0000 0.0000 26.1084
#
#
#
# Elastic Compliance Matrix: (Units=1/GPa)
#
#
# Indices 1 2 3 4 5 6 
#
# 1 0.012491 -0.009335 -0.004930 0.000000 0.000000 0.000000
# 2 -0.009335 0.036357 0.000368 0.000000 0.000000 0.000000
# 3 -0.004930 0.000368 0.018025 0.000000 0.000000 0.000000
# 4 0.000000 0.000000 0.000000 0.030920 0.000000 0.000000
# 5 0.000000 0.000000 0.000000 0.000000 -0.069751 0.000000
# 6 0.000000 0.000000 0.000000 0.000000 0.000000 0.038302
#
#
# Mechanical properties :
#
#
# Convention : Reuss Voigt Hill
#
# Bulk Modulus (GPa) = 25.58845 38.36955 31.97900
# Shear Modulus (GPa) = 46.65746 18.53150 32.59448
#
# Velocity S-wave (km/s) = 4.77242 3.00769 3.98887
# Velocity P-wave (km/s) = 6.54668 5.54904 6.06839
#
# Compressibility (1/GPa) = 0.03908014
#
# Stress axis : x y z
#
# Youngs Moduli (GPa) = 80.05741 27.50488 55.47889
#
# Poissons Ratio (x) = 0.25676 0.27349
# Poissons Ratio (y) = 0.74735 -0.02043
# Poissons Ratio (z) = 0.39465 -0.01013
#
# Static dielectric constant tensor:
#      x y z
#    x 1.802020 0.000000 0.000000 
#    y 0.000000 1.732090 0.000000 
#    z 0.000000 0.000000 1.780450 
# 
# From -- ./inp_files/25989.got.cif
#   From: 2010.05.17/outbox.cif.g08.bks.cpg/sg60_13_cif.got.tgz:25989.got - 2010.06.03 14:59:27.
