data_PCOD9454363
_publ_section_title
;
Structure prediction by ZEFSAII (Michael W. Deem and Ramdas Pophale) SiO2 
 PCOD9454363
Probable space group: P B C N
;
_chemical_formula_sum "Si O2"
_cell_formula_units_Z 40
_cell_length_a 15.879737
_cell_length_b 18.483393
_cell_length_c 5.013153
_cell_angle_alpha 90.000000
_cell_angle_beta 90.000000
_cell_angle_gamma 90.000000
_cell_volume 1471.417654
_symmetry_space_group_name_H-M "P B C N"
_symmetry_group_IT_number 60
_symmetry_cell_setting 'orthorhombic'
loop_
_space_group_symop_operation_xyz
x,y,z
1/2-x,1/2-y,1/2+z
1/2+x,1/2-y,-z
-x,y,1/2-z
-x,-y,-z
1/2+x,1/2+y,1/2-z
1/2-x,1/2+y,z
x,-y,1/2+z
loop_
_atom_site_type_symbol
_atom_site_label
_atom_site_fract_x
_atom_site_fract_y
_atom_site_fract_z
Si Si1 0.557090 0.588859 0.491665
Si Si2 0.831030 0.668515 0.361895
Si Si3 0.619991 0.041204 0.022069
Si Si4 0.717341 0.568430 0.748166
Si Si5 0.653894 0.693599 0.130930
O O1 0.500000 0.558150 0.250000
O O2 0.640473 0.542390 0.559977
O O3 0.403513 0.662324 0.133858
O O4 0.500000 0.600538 0.750000
O O5 0.785061 0.614517 0.570296
O O6 0.879546 0.732183 0.508993
O O7 0.884213 0.619787 0.155317
O O8 0.750656 0.705872 0.221766
O O9 0.721926 0.032337 0.973631
O O10 0.588104 0.016720 0.736350
O O11 0.666389 0.629269 0.919772
#
# Coordination Sequence:
#
# PCOD9454363 Si02
#       5
#     8   8   8   8   8
#     4  11  22  36  53  79 112 150 188 226 280 338
#     4  10  19  32  56  85 112 141 180 228 290 346
#     4  11  22  36  53  79 113 152 190 229 283 332
#     4  10  20  36  56  79 108 152 178 237 275 345
#     4  10  19  32  56  85 112 141 179 227 290 347
#
# _framework density 27.184667000000001
#
# number of rings (size 3 to 8) (size 9 to 14) (size 15 to 20)
#    0.000    1.600    6.000    0.000    0.000    0.000 
#    0.000    0.000    0.000    3.600    0.000    0.000 
#    0.000    4.800    0.000    0.000    0.000    0.000 
#
# Total GULP energy -223762.135538 kJ/mol
# GULP energy per Si atom -5594.053388 kJ/mol
# Density = 2.712279 g / cm^3
# Si number density = 27.184667 Si / 1000 Ang^3
#
#
#
# Elastic Constant Matrix: (Units=GPa)
#
#
# Indices 1 2 3 4 5 6 
#
# 1 121.1325 21.6332 21.1708 0.0000 0.0000 0.0000
# 2 21.6332 101.0657 14.8033 0.0000 0.0000 0.0000
# 3 21.1708 14.8033 146.3052 0.0000 0.0000 0.0000
# 4 0.0000 0.0000 0.0000 115.5150 0.0000 0.0000
# 5 0.0000 0.0000 0.0000 0.0000 19.3093 0.0000
# 6 0.0000 0.0000 0.0000 0.0000 0.0000 8.8872
#
#
#
# Elastic Compliance Matrix: (Units=1/GPa)
#
#
# Indices 1 2 3 4 5 6 
#
# 1 0.008752 -0.001713 -0.001093 0.000000 0.000000 0.000000
# 2 -0.001713 0.010379 -0.000802 0.000000 0.000000 0.000000
# 3 -0.001093 -0.000802 0.007074 0.000000 0.000000 0.000000
# 4 0.000000 0.000000 0.000000 0.008657 0.000000 0.000000
# 5 0.000000 0.000000 0.000000 0.000000 0.051789 0.000000
# 6 0.000000 0.000000 0.000000 0.000000 0.000000 0.112521
#
#
# Mechanical properties :
#
#
# Convention : Reuss Voigt Hill
#
# Bulk Modulus (GPa) = 52.66424 53.74644 53.20534
# Shear Modulus (GPa) = 23.50515 49.46870 36.48693
#
# Velocity S-wave (km/s) = 2.94368 4.27046 3.66756
# Velocity P-wave (km/s) = 5.56493 6.64300 6.12772
#
# Compressibility (1/GPa) = 0.01898822
#
# Stress axis : x y z
#
# Youngs Moduli (GPa) = 114.25350 96.35021 141.35523
#
# Poissons Ratio (x) = 0.16508 0.15452
# Poissons Ratio (y) = 0.19576 0.11340
# Poissons Ratio (z) = 0.12490 0.07729
#
# Static dielectric constant tensor:
#      x y z
#    x 2.145590 0.000000 0.000000 
#    y 0.000000 2.191260 0.000000 
#    z 0.000000 0.000000 2.306410 
# 
# From -- ./inp_files/2005.got.cif
#   From: 2010.05.17/outbox.cif.g08.bks.cpg/sg60_2_cif.got.tgz:2005.got - 2010.06.03 14:59:27.
