data_PCOD9454156
_publ_section_title
;
Structure prediction by ZEFSAII (Michael W. Deem and Ramdas Pophale) SiO2 
 PCOD9454156
Probable space group: P B C N
;
_chemical_formula_sum "Si O2"
_cell_formula_units_Z 48
_cell_length_a 18.177639
_cell_length_b 18.507803
_cell_length_c 5.180290
_cell_angle_alpha 90.000000
_cell_angle_beta 90.000000
_cell_angle_gamma 90.000000
_cell_volume 1742.795441
_symmetry_space_group_name_H-M "P B C N"
_symmetry_group_IT_number 60
_symmetry_cell_setting 'orthorhombic'
loop_
_space_group_symop_operation_xyz
x,y,z
1/2-x,1/2-y,1/2+z
1/2+x,1/2-y,-z
-x,y,1/2-z
-x,-y,-z
1/2+x,1/2+y,1/2-z
1/2-x,1/2+y,z
x,-y,1/2+z
loop_
_atom_site_type_symbol
_atom_site_label
_atom_site_fract_x
_atom_site_fract_y
_atom_site_fract_z
Si Si1 0.000000 0.552050 0.750000
Si Si2 0.923873 0.704508 0.353658
Si Si3 0.000000 0.187409 0.250000
Si Si4 0.148651 0.449488 0.114915
Si Si5 0.381532 0.347146 0.411882
Si Si6 0.311518 0.549854 0.580538
Si Si7 0.737872 0.799495 0.875957
O O1 0.924426 0.595183 0.802806
O O2 0.000000 0.500000 0.500000
O O3 0.948983 0.757171 0.585267
O O4 0.898721 0.763339 0.141495
O O5 0.844380 0.666253 0.384042
O O6 0.000000 0.667695 0.250000
O O7 0.952066 0.134358 0.426322
O O8 0.145178 0.510654 0.338544
O O9 0.229316 0.415940 0.108493
O O10 0.369941 0.389082 0.147340
O O11 0.305224 0.352732 0.566153
O O12 0.318295 0.506396 0.317954
O O13 0.757746 0.757606 0.612857
#
# Coordination Sequence:
#
# PCOD9454156 Si02
#       7
#     4   8   4   8   8   8   8
#     4   8  12  20  40  63  84 110 154 210 263 316
#     4   9  19  34  58  89 119 152 183 236 297 361
#     4  10  18  36  58  83 118 150 194 232 295 352
#     4   8  14  26  42  67  90 122 169 222 271 316
#     4  10  21  35  59  84 118 153 200 241 286 352
#     4  10  22  36  54  78 111 153 201 248 289 326
#     4  10  19  34  57  90 115 145 188 232 293 357
#
# _framework density 27.541955999999999
#
# number of rings (size 3 to 8) (size 9 to 14) (size 15 to 20)
#    0.000    2.667    1.667    0.000    2.333    0.000 
#    0.000    0.833    0.000    1.000   28.167    0.000 
#    0.000    0.000    0.000    0.000    0.000    0.000 
#
# Total GULP energy -268475.281555 kJ/mol
# GULP energy per Si atom -5593.235032 kJ/mol
# Density = 2.747927 g / cm^3
# Si number density = 27.541956 Si / 1000 Ang^3
#
#
#
# Elastic Constant Matrix: (Units=GPa)
#
#
# Indices 1 2 3 4 5 6 
#
# 1 158.5402 39.8929 28.3352 0.0000 0.0000 0.0000
# 2 39.8929 70.2456 36.9166 0.0000 0.0000 0.0000
# 3 28.3352 36.9166 147.9731 0.0000 0.0000 0.0000
# 4 0.0000 0.0000 0.0000 10.6845 0.0000 0.0000
# 5 0.0000 0.0000 0.0000 0.0000 44.5626 0.0000
# 6 0.0000 0.0000 0.0000 0.0000 0.0000 5.9610
#
#
#
# Elastic Compliance Matrix: (Units=1/GPa)
#
#
# Indices 1 2 3 4 5 6 
#
# 1 0.007382 -0.003970 -0.000423 0.000000 0.000000 0.000000
# 2 -0.003970 0.018519 -0.003860 0.000000 0.000000 0.000000
# 3 -0.000423 -0.003860 0.007802 0.000000 0.000000 0.000000
# 4 0.000000 0.000000 0.000000 0.093594 0.000000 0.000000
# 5 0.000000 0.000000 0.000000 0.000000 0.022440 0.000000
# 6 0.000000 0.000000 0.000000 0.000000 0.000000 0.167758
#
#
# Mechanical properties :
#
#
# Convention : Reuss Voigt Hill
#
# Bulk Modulus (GPa) = 58.15003 65.22760 61.68882
# Shear Modulus (GPa) = 14.71742 30.34921 22.53331
#
# Velocity S-wave (km/s) = 2.31414 3.32313 2.86343
# Velocity P-wave (km/s) = 5.31972 6.20150 5.77746
#
# Compressibility (1/GPa) = 0.01719690
#
# Stress axis : x y z
#
# Youngs Moduli (GPa) = 135.46222 53.99895 128.17230
#
# Poissons Ratio (x) = 0.21437 0.05424
# Poissons Ratio (y) = 0.53778 0.49473
# Poissons Ratio (z) = 0.05732 0.20843
#
# Static dielectric constant tensor:
#      x y z
#    x 2.304190 0.000000 0.000000 
#    y 0.000000 2.083040 0.000000 
#    z 0.000000 0.000000 2.267670 
# 
# From -- ./inp_files/1761.got.cif
#   From: 2010.05.17/outbox.cif.g08.bks.cpg/sg60_1_cif.got.tgz:1761.got - 2010.06.03 14:59:27.
