data_PCOD9454774
_publ_section_title
;
Structure prediction by ZEFSAII (Michael W. Deem and Ramdas Pophale) SiO2 
 PCOD9454774
Probable space group: P B C N
;
_chemical_formula_sum "Si O2"
_cell_formula_units_Z 48
_cell_length_a 6.176815
_cell_length_b 18.775909
_cell_length_c 19.990506
_cell_angle_alpha 90.000000
_cell_angle_beta 90.000000
_cell_angle_gamma 90.000000
_cell_volume 2318.405257
_symmetry_space_group_name_H-M "P B C N"
_symmetry_group_IT_number 60
_symmetry_cell_setting 'orthorhombic'
loop_
_space_group_symop_operation_xyz
x,y,z
1/2-x,1/2-y,1/2+z
1/2+x,1/2-y,-z
-x,y,1/2-z
-x,-y,-z
1/2+x,1/2+y,1/2-z
1/2-x,1/2+y,z
x,-y,1/2+z
loop_
_atom_site_type_symbol
_atom_site_label
_atom_site_fract_x
_atom_site_fract_y
_atom_site_fract_z
Si Si1 0.500000 0.565802 0.750000
Si Si2 0.000000 0.500069 0.750000
Si Si3 0.536733 0.806869 0.068153
Si Si4 0.732137 0.435296 0.478923
Si Si5 0.486755 0.057318 0.100843
Si Si6 0.439890 0.641071 0.886823
Si Si7 0.822379 0.714927 0.422839
O O1 0.253212 0.531529 0.752774
O O2 0.523721 0.609315 0.818624
O O3 0.998798 0.461798 0.678023
O O4 0.367025 0.864807 0.041782
O O5 0.417414 0.738831 0.097758
O O6 0.684341 0.849919 0.118231
O O7 0.673441 0.783372 0.003695
O O8 0.827402 0.502211 0.438003
O O9 0.500768 0.410845 0.449469
O O10 0.790204 0.445604 0.556889
O O11 0.395658 0.137203 0.096788
O O12 0.527704 0.721157 0.896996
#
# Coordination Sequence:
#
# PCOD9454774 Si02
#       7
#     4   4   8   8   8   8   8
#     4  12  28  47  76  97 140 196 248 292 354 445
#     4  12  26  53  68 107 144 196 232 308 364 431
#     4  10  19  38  64  95 136 176 226 281 354 407
#     4   9  20  41  66 103 130 180 235 288 340 438
#     4  10  21  43  71 101 143 175 237 290 374 416
#     4  11  22  41  69  97 133 187 235 290 352 431
#     4  10  21  37  64 103 133 175 222 295 351 426
#
# _framework density 20.703887000000002
#
# number of rings (size 3 to 8) (size 9 to 14) (size 15 to 20)
#    0.000    1.667    3.333    1.000    2.333    0.667 
#    9.000    5.000    0.000    0.000    0.000    0.000 
#    0.000    0.000    0.000    0.000    0.000    0.000 
#
# Total GULP energy -267241.455256 kJ/mol
# GULP energy per Si atom -5567.530318 kJ/mol
# Density = 2.065676 g / cm^3
# Si number density = 20.703887 Si / 1000 Ang^3
#
#
#
# Elastic Constant Matrix: (Units=GPa)
#
#
# Indices 1 2 3 4 5 6 
#
# 1 93.3358 52.9215 31.0319 0.0000 0.0000 0.0000
# 2 52.9215 123.1028 62.5751 0.0000 0.0000 0.0000
# 3 31.0319 62.5751 135.2064 0.0000 0.0000 0.0000
# 4 0.0000 0.0000 0.0000 25.2613 0.0000 0.0000
# 5 0.0000 0.0000 0.0000 0.0000 17.2362 0.0000
# 6 0.0000 0.0000 0.0000 0.0000 0.0000 15.4532
#
#
#
# Elastic Compliance Matrix: (Units=1/GPa)
#
#
# Indices 1 2 3 4 5 6 
#
# 1 0.014201 -0.005816 -0.000567 0.000000 0.000000 0.000000
# 2 -0.005816 0.013005 -0.004684 0.000000 0.000000 0.000000
# 3 -0.000567 -0.004684 0.009694 0.000000 0.000000 0.000000
# 4 0.000000 0.000000 0.000000 0.039586 0.000000 0.000000
# 5 0.000000 0.000000 0.000000 0.000000 0.058018 0.000000
# 6 0.000000 0.000000 0.000000 0.000000 0.000000 0.064711
#
#
# Mechanical properties :
#
#
# Convention : Reuss Voigt Hill
#
# Bulk Modulus (GPa) = 67.73142 71.63355 69.68248
# Shear Modulus (GPa) = 22.09744 25.26457 23.68101
#
# Velocity S-wave (km/s) = 3.27051 3.49704 3.38567
# Velocity P-wave (km/s) = 6.85909 7.14002 7.00096
#
# Compressibility (1/GPa) = 0.01476420
#
# Stress axis : x y z
#
# Youngs Moduli (GPa) = 70.42002 76.89632 103.15663
#
# Poissons Ratio (x) = 0.44726 0.05853
# Poissons Ratio (y) = 0.40959 0.48316
# Poissons Ratio (z) = 0.03995 0.36016
#
# Static dielectric constant tensor:
#      x y z
#    x 1.905130 0.000000 0.000000 
#    y 0.000000 1.749670 0.000000 
#    z 0.000000 0.000000 1.786980 
# 
# From -- ./inp_files/21642.got.cif
#   From: 2010.05.17/outbox.cif.g08.bks.cpg/sg60_11_cif.got.tgz:21642.got - 2010.06.03 14:59:27.
