data_PCOD9454130
_publ_section_title
;
Structure prediction by ZEFSAII (Michael W. Deem and Ramdas Pophale) SiO2 
 PCOD9454130
Probable space group: P B C N
;
_chemical_formula_sum "Si O2"
_cell_formula_units_Z 64
_cell_length_a 9.818993
_cell_length_b 32.638964
_cell_length_c 10.130601
_cell_angle_alpha 90.000000
_cell_angle_beta 90.000000
_cell_angle_gamma 90.000000
_cell_volume 3246.672829
_symmetry_space_group_name_H-M "P B C N"
_symmetry_group_IT_number 60
_symmetry_cell_setting 'orthorhombic'
loop_
_space_group_symop_operation_xyz
x,y,z
1/2-x,1/2-y,1/2+z
1/2+x,1/2-y,-z
-x,y,1/2-z
-x,-y,-z
1/2+x,1/2+y,1/2-z
1/2-x,1/2+y,z
x,-y,1/2+z
loop_
_atom_site_type_symbol
_atom_site_label
_atom_site_fract_x
_atom_site_fract_y
_atom_site_fract_z
Si Si1 0.662073 0.009016 0.731124
Si Si2 0.487090 0.221661 0.399152
Si Si3 0.207950 0.572210 0.985576
Si Si4 0.271249 0.158093 0.080880
Si Si5 0.760795 0.346410 0.610959
Si Si6 0.998878 0.202689 0.090653
Si Si7 0.923499 0.575639 0.117880
Si Si8 0.908279 0.018015 0.382078
O O1 0.500000 0.015956 0.750000
O O2 0.721474 0.045193 0.643361
O O3 0.766626 0.006609 0.853289
O O4 0.663819 0.964021 0.660817
O O5 0.500000 0.238937 0.250000
O O6 0.598850 0.186603 0.414063
O O7 0.348331 0.195299 0.407750
O O8 0.516009 0.255714 0.508511
O O9 0.206764 0.620810 0.982357
O O10 0.338428 0.560666 0.075306
O O11 0.055727 0.560820 0.037086
O O12 0.249071 0.143856 0.232496
O O13 0.142425 0.184906 0.046403
O O14 0.613453 0.332277 0.562567
O O15 0.836467 0.387151 0.557282
O O16 0.000000 0.210007 0.250000
O O17 0.000000 0.592196 0.250000
O O18 0.000000 0.019766 0.250000
O O19 0.000000 0.000000 0.500000
#
# Coordination Sequence:
#
# PCOD9454130 Si02
#       8
#     8   8   8   8   8   8   8   8
#     4  11  24  41  66  93 129 177 229 275 335 396
#     4  10  19  37  65  85 118 162 205 249 316 397
#     4  12  22  40  66  93 131 169 220 283 322 386
#     4  10  20  36  59  91 121 160 206 263 322 370
#     4  10  18  35  60  91 121 153 211 267 307 385
#     4  10  22  36  58  94 124 155 203 262 319 385
#     4  11  18  35  63  94 118 159 225 273 314 375
#     4  12  25  42  64  98 133 176 220 270 339 392
#
# _framework density 19.712485999999998
#
# number of rings (size 3 to 8) (size 9 to 14) (size 15 to 20)
#    0.000    1.250    6.250    1.500    0.000    2.500 
#    0.000    0.625    5.500    0.000    0.000    0.000 
#    0.000    0.000    0.000    0.000    0.000    0.000 
#
# Total GULP energy -356733.874631 kJ/mol
# GULP energy per Si atom -5573.966791 kJ/mol
# Density = 1.966762 g / cm^3
# Si number density = 19.712486 Si / 1000 Ang^3
#
#
#
# Elastic Constant Matrix: (Units=GPa)
#
#
# Indices 1 2 3 4 5 6 
#
# 1 279.7672 72.7216 29.6907 0.0000 0.0000 0.0000
# 2 72.7216 98.3401 40.7124 0.0000 0.0000 0.0000
# 3 29.6907 40.7124 56.7158 0.0000 0.0000 0.0000
# 4 0.0000 0.0000 0.0000 -102.6430 0.0000 0.0000
# 5 0.0000 0.0000 0.0000 0.0000 26.5476 0.0000
# 6 0.0000 0.0000 0.0000 0.0000 0.0000 16.9868
#
#
#
# Elastic Compliance Matrix: (Units=1/GPa)
#
#
# Indices 1 2 3 4 5 6 
#
# 1 0.004425 -0.003291 0.000046 0.000000 0.000000 0.000000
# 2 -0.003291 0.016917 -0.010420 0.000000 0.000000 0.000000
# 3 0.000046 -0.010420 0.025088 0.000000 0.000000 0.000000
# 4 0.000000 0.000000 0.000000 -0.009743 0.000000 0.000000
# 5 0.000000 0.000000 0.000000 0.000000 0.037668 0.000000
# 6 0.000000 0.000000 0.000000 0.000000 0.000000 0.058869
#
#
# Mechanical properties :
#
#
# Convention : Reuss Voigt Hill
#
# Bulk Modulus (GPa) = 52.36065 80.11916 66.23990
# Shear Modulus (GPa) = 29.95417 7.62485 18.78951
#
# Velocity S-wave (km/s) = 3.90237 1.96886 3.09071
# Velocity P-wave (km/s) = 6.85015 6.77500 6.81268
#
# Compressibility (1/GPa) = 0.01909831
#
# Stress axis : x y z
#
# Youngs Moduli (GPa) = 225.98600 59.11315 39.86024
#
# Poissons Ratio (x) = 0.19456 -0.00184
# Poissons Ratio (y) = 0.74381 0.41536
# Poissons Ratio (z) = -0.01043 0.61598
#
# Static dielectric constant tensor:
#      x y z
#    x 1.719370 0.000000 0.000000 
#    y 0.000000 1.684310 0.000000 
#    z 0.000000 0.000000 1.776100 
# 
# From -- ./inp_files/10380.got.cif
#   From: 2010.05.17/outbox.cif.g08.bks.cpg/sg60_6_cif.got.tgz:10380.got - 2010.06.03 14:59:27.
