data_PCOD9454595
_publ_section_title
;
Structure prediction by ZEFSAII (Michael W. Deem and Ramdas Pophale) SiO2 
 PCOD9454595
Probable space group: P B C N
;
_chemical_formula_sum "Si O2"
_cell_formula_units_Z 64
_cell_length_a 14.494839
_cell_length_b 12.421714
_cell_length_c 17.479902
_cell_angle_alpha 90.000000
_cell_angle_beta 90.000000
_cell_angle_gamma 90.000000
_cell_volume 3147.269369
_symmetry_space_group_name_H-M "P B C N"
_symmetry_group_IT_number 60
_symmetry_cell_setting 'orthorhombic'
loop_
_space_group_symop_operation_xyz
x,y,z
1/2-x,1/2-y,1/2+z
1/2+x,1/2-y,-z
-x,y,1/2-z
-x,-y,-z
1/2+x,1/2+y,1/2-z
1/2-x,1/2+y,z
x,-y,1/2+z
loop_
_atom_site_type_symbol
_atom_site_label
_atom_site_fract_x
_atom_site_fract_y
_atom_site_fract_z
Si Si1 0.265390 0.316253 0.162946
Si Si2 0.695013 0.322013 0.089782
Si Si3 0.162171 0.670052 0.031779
Si Si4 0.457608 0.799997 0.977449
Si Si5 0.108832 0.954203 0.267925
Si Si6 0.943465 0.422902 0.681183
Si Si7 0.901755 0.453971 0.387558
Si Si8 0.753869 0.859060 0.704785
O O1 0.288175 0.261614 0.081828
O O2 0.343728 0.395729 0.195276
O O3 0.172359 0.384535 0.157225
O O4 0.255863 0.220810 0.223957
O O5 0.615891 0.294951 0.027343
O O6 0.643885 0.386105 0.157740
O O7 0.741860 0.216635 0.129874
O O8 0.777816 0.371561 0.039790
O O9 0.139442 0.569139 0.087032
O O10 0.064364 0.719891 0.005980
O O11 0.450388 0.847191 0.892022
O O12 0.425606 0.891180 0.035396
O O13 0.000000 0.957826 0.250000
O O14 0.155345 0.070102 0.284104
O O15 0.837080 0.435723 0.702676
O O16 0.000000 0.368572 0.750000
O O17 0.004360 0.525941 0.659286
#
# Coordination Sequence:
#
# PCOD9454595 Si02
#       8
#     8   8   8   8   8   8   8   8
#     4  11  22  42  64  93 128 166 208 264 321 379
#     4  10  23  39  65  94 126 168 213 260 315 382
#     4  11  21  37  65  91 127 165 211 262 318 379
#     4  10  21  39  59  95 127 162 210 265 315 377
#     4  11  24  43  65  88 126 172 213 254 315 382
#     4  10  19  35  63  94 118 157 210 262 311 367
#     4  11  23  39  63  97 129 165 209 270 326 379
#     4  10  23  42  63  91 127 165 213 265 318 372
#
# _framework density 20.335087999999999
#
# number of rings (size 3 to 8) (size 9 to 14) (size 15 to 20)
#    0.000    1.500    1.250    5.250    5.250    4.500 
#    2.250    0.000    0.000    3.750    0.000    0.000 
#    0.000    0.000    0.000    0.000    0.000    0.000 
#
# Total GULP energy -357149.583733 kJ/mol
# GULP energy per Si atom -5580.462246 kJ/mol
# Density = 2.028880 g / cm^3
# Si number density = 20.335088 Si / 1000 Ang^3
#
#
#
# Elastic Constant Matrix: (Units=GPa)
#
#
# Indices 1 2 3 4 5 6 
#
# 1 103.0573 24.3415 41.4518 0.0000 0.0000 0.0000
# 2 24.3415 50.6338 10.0830 0.0000 0.0000 0.0000
# 3 41.4518 10.0830 71.2340 0.0000 0.0000 0.0000
# 4 0.0000 0.0000 0.0000 12.9274 0.0000 0.0000
# 5 0.0000 0.0000 0.0000 0.0000 35.9041 0.0000
# 6 0.0000 0.0000 0.0000 0.0000 0.0000 26.7404
#
#
#
# Elastic Compliance Matrix: (Units=1/GPa)
#
#
# Indices 1 2 3 4 5 6 
#
# 1 0.013889 -0.005214 -0.007344 0.000000 0.000000 0.000000
# 2 -0.005214 0.022280 -0.000119 0.000000 0.000000 0.000000
# 3 -0.007344 -0.000119 0.018329 0.000000 0.000000 0.000000
# 4 0.000000 0.000000 0.000000 0.077355 0.000000 0.000000
# 5 0.000000 0.000000 0.000000 0.000000 0.027852 0.000000
# 6 0.000000 0.000000 0.000000 0.000000 0.000000 0.037397
#
#
# Mechanical properties :
#
#
# Convention : Reuss Voigt Hill
#
# Bulk Modulus (GPa) = 34.31455 41.85307 38.08381
# Shear Modulus (GPa) = 21.53583 25.05095 23.29339
#
# Velocity S-wave (km/s) = 3.25783 3.51366 3.38816
# Velocity P-wave (km/s) = 5.57337 6.08995 5.83738
#
# Compressibility (1/GPa) = 0.02914216
#
# Stress axis : x y z
#
# Youngs Moduli (GPa) = 72.00010 44.88291 54.55928
#
# Poissons Ratio (x) = 0.23404 0.40068
# Poissons Ratio (y) = 0.37544 0.00651
# Poissons Ratio (z) = 0.52877 0.00536
#
# Static dielectric constant tensor:
#      x y z
#    x 1.747690 0.000000 0.000000 
#    y 0.000000 1.733880 0.000000 
#    z 0.000000 0.000000 1.737430 
# 
# From -- ./inp_files/20655.got.cif
#   From: 2010.05.17/outbox.cif.g08.bks.cpg/sg60_11_cif.got.tgz:20655.got - 2010.06.03 14:59:27.
