data_PCOD9454348
_publ_section_title
;
Structure prediction by ZEFSAII (Michael W. Deem and Ramdas Pophale) SiO2 
 PCOD9454348
Probable space group: P B C N
;
_chemical_formula_sum "Si O2"
_cell_formula_units_Z 40
_cell_length_a 13.803294
_cell_length_b 5.182547
_cell_length_c 24.552143
_cell_angle_alpha 90.000000
_cell_angle_beta 90.000000
_cell_angle_gamma 90.000000
_cell_volume 1756.367501
_symmetry_space_group_name_H-M "P B C N"
_symmetry_group_IT_number 60
_symmetry_cell_setting 'orthorhombic'
loop_
_space_group_symop_operation_xyz
x,y,z
1/2-x,1/2-y,1/2+z
1/2+x,1/2-y,-z
-x,y,1/2-z
-x,-y,-z
1/2+x,1/2+y,1/2-z
1/2-x,1/2+y,z
x,-y,1/2+z
loop_
_atom_site_type_symbol
_atom_site_label
_atom_site_fract_x
_atom_site_fract_y
_atom_site_fract_z
Si Si1 0.815537 0.750565 0.869100
Si Si2 0.606134 0.061571 0.524292
Si Si3 0.184598 0.173920 0.248834
Si Si4 0.890828 0.061131 0.480452
Si Si5 0.318879 0.775595 0.364836
O O1 0.770460 0.464932 0.871114
O O2 0.864105 0.784469 0.809732
O O3 0.880608 0.821142 0.920747
O O4 0.653752 0.275993 0.485190
O O5 0.610900 0.181135 0.584190
O O6 0.500000 0.000000 0.500000
O O7 0.650792 0.775865 0.521512
O O8 0.274023 0.381816 0.249430
O O9 0.132220 0.246313 0.305226
O O10 0.000000 0.000000 0.500000
O O11 0.252779 0.520844 0.367765
#
# Coordination Sequence:
#
# PCOD9454348 Si02
#       5
#     8   8   8   8   8
#     4  10  19  32  53  79 105 135 176 221 265 317
#     4  10  21  35  50  72 107 144 175 214 264 317
#     4   8  16  30  48  75 104 129 164 214 266 308
#     4  10  21  35  50  72 107 144 175 214 264 317
#     4  10  19  32  53  79 105 135 176 221 265 317
#
# _framework density 22.774277999999999
#
# number of rings (size 3 to 8) (size 9 to 14) (size 15 to 20)
#    0.000    2.400    0.000    2.400    0.000    4.800 
#    0.000    0.000    0.000    4.800    0.000   11.200 
#    0.000    0.000    0.000    0.000    0.000    0.000 
#
# Total GULP energy -222901.837816 kJ/mol
# GULP energy per Si atom -5572.545945 kJ/mol
# Density = 2.272244 g / cm^3
# Si number density = 22.774278 Si / 1000 Ang^3
#
#
#
# Elastic Constant Matrix: (Units=GPa)
#
#
# Indices 1 2 3 4 5 6 
#
# 1 60.8912 -4.8999 24.3824 0.0000 0.0000 0.0000
# 2 -4.8999 168.6845 11.9763 0.0000 0.0000 0.0000
# 3 24.3824 11.9763 222.6228 0.0000 0.0000 0.0000
# 4 0.0000 0.0000 0.0000 35.3272 0.0000 0.0000
# 5 0.0000 0.0000 0.0000 0.0000 15.6866 0.0000
# 6 0.0000 0.0000 0.0000 0.0000 0.0000 13.6566
#
#
#
# Elastic Compliance Matrix: (Units=1/GPa)
#
#
# Indices 1 2 3 4 5 6 
#
# 1 0.017244 0.000637 -0.001923 0.000000 0.000000 0.000000
# 2 0.000637 0.005975 -0.000391 0.000000 0.000000 0.000000
# 3 -0.001923 -0.000391 0.004724 0.000000 0.000000 0.000000
# 4 0.000000 0.000000 0.000000 0.028307 0.000000 0.000000
# 5 0.000000 0.000000 0.000000 0.000000 0.063749 0.000000
# 6 0.000000 0.000000 0.000000 0.000000 0.000000 0.073225
#
#
# Mechanical properties :
#
#
# Convention : Reuss Voigt Hill
#
# Bulk Modulus (GPa) = 40.66915 57.23512 48.95214
# Shear Modulus (GPa) = 24.41740 40.98339 32.70040
#
# Velocity S-wave (km/s) = 3.27792 4.24671 3.79337
# Velocity P-wave (km/s) = 5.67650 7.01656 6.38180
#
# Compressibility (1/GPa) = 0.02458866
#
# Stress axis : x y z
#
# Youngs Moduli (GPa) = 57.99115 167.37746 211.70510
#
# Poissons Ratio (x) = -0.10669 0.40709
# Poissons Ratio (y) = -0.03696 0.08282
# Poissons Ratio (z) = 0.11151 0.06548
#
# Static dielectric constant tensor:
#      x y z
#    x 2.109330 0.000000 0.000000 
#    y 0.000000 1.991170 0.000000 
#    z 0.000000 0.000000 1.934390 
# 
# From -- ./inp_files/17838.got.cif
#   From: 2010.05.17/outbox.cif.g08.bks.cpg/sg60_9_cif.got.tgz:17838.got - 2010.06.03 14:59:27.
