data_PCOD9454364
_publ_section_title
;
Structure prediction by ZEFSAII (Michael W. Deem and Ramdas Pophale) SiO2 
 PCOD9454364
Probable space group: P B C N
;
_chemical_formula_sum "Si O2"
_cell_formula_units_Z 56
_cell_length_a 11.388912
_cell_length_b 27.333347
_cell_length_c 10.261296
_cell_angle_alpha 90.000000
_cell_angle_beta 90.000000
_cell_angle_gamma 90.000000
_cell_volume 3194.311519
_symmetry_space_group_name_H-M "P B C N"
_symmetry_group_IT_number 60
_symmetry_cell_setting 'orthorhombic'
loop_
_space_group_symop_operation_xyz
x,y,z
1/2-x,1/2-y,1/2+z
1/2+x,1/2-y,-z
-x,y,1/2-z
-x,-y,-z
1/2+x,1/2+y,1/2-z
1/2-x,1/2+y,z
x,-y,1/2+z
loop_
_atom_site_type_symbol
_atom_site_label
_atom_site_fract_x
_atom_site_fract_y
_atom_site_fract_z
Si Si1 0.103089 0.285899 0.979884
Si Si2 0.645047 0.686671 0.117286
Si Si3 0.544375 0.321487 0.104773
Si Si4 0.252516 0.602887 0.221520
Si Si5 0.902576 0.969089 0.635207
Si Si6 0.000000 0.347863 0.750000
Si Si7 0.000000 0.270437 0.250000
Si Si8 0.393491 0.574344 0.967931
O O1 0.231866 0.305815 0.953256
O O2 0.107337 0.227621 0.948666
O O3 0.020271 0.312855 0.874826
O O4 0.058749 0.296262 0.126040
O O5 0.665572 0.648205 0.232869
O O6 0.597735 0.735685 0.184232
O O7 0.554702 0.671344 0.005862
O O8 0.500000 0.310130 0.250000
O O9 0.605570 0.374577 0.109520
O O10 0.288859 0.561348 0.324040
O O11 0.301621 0.584018 0.084372
O O12 0.118133 0.620348 0.227852
O O13 0.000000 0.970462 0.750000
O O14 0.976544 0.940799 0.523332
O O15 0.864335 0.024255 0.605465
#
# Coordination Sequence:
#
# PCOD9454364 Si02
#       8
#     8   8   8   8   8   4   4   8
#     4  10  22  37  56  79 118 156 201 239 287 338
#     4  10  21  35  54  80 112 156 190 237 287 350
#     4  11  21  33  51  83 114 142 188 237 287 339
#     4  10  19  37  60  78 113 151 190 228 289 349
#     4   9  18  33  56  84 114 136 178 236 291 341
#     4  10  22  40  58  84 112 162 198 238 276 350
#     4  10  22  34  58  80 112 158 208 242 290 344
#     4  10  19  32  56  86 107 141 180 234 291 348
#
# _framework density 17.531164
#
# number of rings (size 3 to 8) (size 9 to 14) (size 15 to 20)
#    0.000    2.000    2.143    2.143    3.000    3.429 
#    0.000    0.714    0.000    0.000    0.000    0.000 
#    0.000    0.000    0.000    0.000    0.000    0.000 
#
# Total GULP energy -311959.433390 kJ/mol
# GULP energy per Si atom -5570.704168 kJ/mol
# Density = 1.749126 g / cm^3
# Si number density = 17.531164 Si / 1000 Ang^3
#
#
#
# Elastic Constant Matrix: (Units=GPa)
#
#
# Indices 1 2 3 4 5 6 
#
# 1 53.3841 19.0253 11.4954 0.0000 0.0000 0.0000
# 2 19.0253 81.5782 -1.6518 0.0000 0.0000 0.0000
# 3 11.4954 -1.6518 53.4027 0.0000 0.0000 0.0000
# 4 0.0000 0.0000 0.0000 31.1737 0.0000 0.0000
# 5 0.0000 0.0000 0.0000 0.0000 16.1028 0.0000
# 6 0.0000 0.0000 0.0000 0.0000 0.0000 11.7286
#
#
#
# Elastic Compliance Matrix: (Units=1/GPa)
#
#
# Indices 1 2 3 4 5 6 
#
# 1 0.021597 -0.005134 -0.004808 0.000000 0.000000 0.000000
# 2 -0.005134 0.013486 0.001522 0.000000 0.000000 0.000000
# 3 -0.004808 0.001522 0.019808 0.000000 0.000000 0.000000
# 4 0.000000 0.000000 0.000000 0.032078 0.000000 0.000000
# 5 0.000000 0.000000 0.000000 0.000000 0.062101 0.000000
# 6 0.000000 0.000000 0.000000 0.000000 0.000000 0.085262
#
#
# Mechanical properties :
#
#
# Convention : Reuss Voigt Hill
#
# Bulk Modulus (GPa) = 26.27985 27.34475 26.81230
# Shear Modulus (GPa) = 18.94977 22.43409 20.69193
#
# Velocity S-wave (km/s) = 3.29130 3.58113 3.43927
# Velocity P-wave (km/s) = 5.42830 5.72110 5.57662
#
# Compressibility (1/GPa) = 0.03805197
#
# Stress axis : x y z
#
# Youngs Moduli (GPa) = 46.30234 74.14893 50.48547
#
# Poissons Ratio (x) = 0.38069 0.24272
# Poissons Ratio (y) = 0.23772 -0.07686
# Poissons Ratio (z) = 0.22261 -0.11288
#
# Static dielectric constant tensor:
#      x y z
#    x 1.580560 0.000000 0.000000 
#    y 0.000000 1.612220 0.000000 
#    z 0.000000 0.000000 1.613230 
# 
# From -- ./inp_files/11351.got.cif
#   From: 2010.05.17/outbox.cif.g08.bks.cpg/sg60_6_cif.got.tgz:11351.got - 2010.06.03 14:59:27.
