data_PCOD9454581
_publ_section_title
;
Structure prediction by ZEFSAII (Michael W. Deem and Ramdas Pophale) SiO2 
 PCOD9454581
Probable space group: P B C N
;
_chemical_formula_sum "Si O2"
_cell_formula_units_Z 32
_cell_length_a 5.004133
_cell_length_b 18.031913
_cell_length_c 18.498034
_cell_angle_alpha 90.000000
_cell_angle_beta 90.000000
_cell_angle_gamma 90.000000
_cell_volume 1669.153281
_symmetry_space_group_name_H-M "P B C N"
_symmetry_group_IT_number 60
_symmetry_cell_setting 'orthorhombic'
loop_
_space_group_symop_operation_xyz
x,y,z
1/2-x,1/2-y,1/2+z
1/2+x,1/2-y,-z
-x,y,1/2-z
-x,-y,-z
1/2+x,1/2+y,1/2-z
1/2-x,1/2+y,z
x,-y,1/2+z
loop_
_atom_site_type_symbol
_atom_site_label
_atom_site_fract_x
_atom_site_fract_y
_atom_site_fract_z
Si Si1 0.496252 0.624885 0.665096
Si Si2 0.253409 0.043416 0.034161
Si Si3 0.859976 0.794268 0.025124
Si Si4 0.996146 0.474688 0.334428
O O1 0.500000 0.644622 0.750000
O O2 0.573273 0.688025 0.608631
O O3 0.197859 0.595682 0.651395
O O4 0.705399 0.556605 0.651366
O O5 0.344905 0.036367 0.117971
O O6 0.226346 0.127861 0.010289
O O7 0.500000 0.000000 0.000000
O O8 0.000000 0.000000 0.000000
O O9 0.623130 0.736350 0.013869
O O10 0.000000 0.494358 0.250000
#
# Coordination Sequence:
#
# PCOD9454581 Si02
#       4
#     8   8   8   8
#     4  10  20  37  61  87 119 159 209 252 308 377
#     4  12  21  38  63  90 123 160 213 260 315 368
#     4  12  24  38  59  92 130 165 207 257 319 381
#     4  10  19  35  61  91 116 153 208 266 306 362
#
# _framework density 19.171396999999999
#
# number of rings (size 3 to 8) (size 9 to 14) (size 15 to 20)
#    0.000    1.000    5.000    3.000    0.000    0.000 
#    0.000    1.250    0.000    3.000    0.000    0.000 
#    0.000    0.000    0.000    0.000    0.000    0.000 
#
# Total GULP energy -178400.820382 kJ/mol
# GULP energy per Si atom -5575.025637 kJ/mol
# Density = 1.912776 g / cm^3
# Si number density = 19.171397 Si / 1000 Ang^3
#
#
#
# Elastic Constant Matrix: (Units=GPa)
#
#
# Indices 1 2 3 4 5 6 
#
# 1 122.4690 10.9706 43.8697 0.0000 0.0000 0.0000
# 2 10.9706 53.3280 57.5424 0.0000 0.0000 0.0000
# 3 43.8697 57.5424 142.4827 0.0000 0.0000 0.0000
# 4 0.0000 0.0000 0.0000 25.6993 0.0000 0.0000
# 5 0.0000 0.0000 0.0000 0.0000 34.5114 0.0000
# 6 0.0000 0.0000 0.0000 0.0000 0.0000 30.4907
#
#
#
# Elastic Compliance Matrix: (Units=1/GPa)
#
#
# Indices 1 2 3 4 5 6 
#
# 1 0.009307 0.002087 -0.003708 0.000000 0.000000 0.000000
# 2 0.002087 0.033702 -0.014253 0.000000 0.000000 0.000000
# 3 -0.003708 -0.014253 0.013916 0.000000 0.000000 0.000000
# 4 0.000000 0.000000 0.000000 0.038912 0.000000 0.000000
# 5 0.000000 0.000000 0.000000 0.000000 0.028976 0.000000
# 6 0.000000 0.000000 0.000000 0.000000 0.000000 0.032797
#
#
# Mechanical properties :
#
#
# Convention : Reuss Voigt Hill
#
# Bulk Modulus (GPa) = 39.72072 60.33834 50.02953
# Shear Modulus (GPa) = 25.28421 31.86674 28.57548
#
# Velocity S-wave (km/s) = 3.63554 4.08143 3.86492
# Velocity P-wave (km/s) = 6.19569 7.33159 6.78744
#
# Compressibility (1/GPa) = 0.02517578
#
# Stress axis : x y z
#
# Youngs Moduli (GPa) = 107.44913 29.67143 71.85733
#
# Poissons Ratio (x) = -0.06192 0.26646
# Poissons Ratio (y) = -0.22421 1.02421
# Poissons Ratio (z) = 0.39845 0.42292
#
# Static dielectric constant tensor:
#      x y z
#    x 1.674530 0.000000 0.000000 
#    y 0.000000 1.633520 0.000000 
#    z 0.000000 0.000000 1.846260 
# 
# From -- ./inp_files/18394.got.cif
#   From: 2010.05.17/outbox.cif.g08.bks.cpg/sg60_10_cif.got.tgz:18394.got - 2010.06.03 14:59:27.
