data_PCOD9454354
_publ_section_title
;
Structure prediction by ZEFSAII (Michael W. Deem and Ramdas Pophale) SiO2 
 PCOD9454354
Probable space group: P B C N
;
_chemical_formula_sum "Si O2"
_cell_formula_units_Z 64
_cell_length_a 5.507454
_cell_length_b 19.287607
_cell_length_c 31.746358
_cell_angle_alpha 90.000000
_cell_angle_beta 90.000000
_cell_angle_gamma 90.000000
_cell_volume 3372.276191
_symmetry_space_group_name_H-M "P B C N"
_symmetry_group_IT_number 60
_symmetry_cell_setting 'orthorhombic'
loop_
_space_group_symop_operation_xyz
x,y,z
1/2-x,1/2-y,1/2+z
1/2+x,1/2-y,-z
-x,y,1/2-z
-x,-y,-z
1/2+x,1/2+y,1/2-z
1/2-x,1/2+y,z
x,-y,1/2+z
loop_
_atom_site_type_symbol
_atom_site_label
_atom_site_fract_x
_atom_site_fract_y
_atom_site_fract_z
Si Si1 0.480158 0.190211 0.057774
Si Si2 0.913618 0.549154 0.559534
Si Si3 0.015970 0.344784 0.654862
Si Si4 0.757711 0.932917 0.511545
Si Si5 0.013477 0.844678 0.798659
Si Si6 0.665486 0.327407 0.017302
Si Si7 0.011003 0.486746 0.154951
Si Si8 0.487994 0.513346 0.798669
O O1 0.466644 0.183051 0.107454
O O2 0.593831 0.119779 0.039003
O O3 0.619506 0.258971 0.043888
O O4 0.238682 0.196243 0.029699
O O5 0.702374 0.495458 0.544693
O O6 0.852940 0.626300 0.544076
O O7 0.138171 0.530530 0.529175
O O8 0.979221 0.541235 0.607774
O O9 0.262830 0.323507 0.678773
O O10 0.013028 0.429043 0.653091
O O11 0.764407 0.323590 0.678105
O O12 0.953511 0.881502 0.492263
O O13 0.013925 0.929025 0.798906
O O14 0.000000 0.822433 0.750000
O O15 0.266921 0.465510 0.176362
O O16 0.768643 0.465495 0.180656
O O17 0.500000 0.535616 0.750000
#
# Coordination Sequence:
#
# PCOD9454354 Si02
#       8
#     8   8   8   8   8   8   8   8
#     4  11  22  36  56  82 114 158 202 239 289 344
#     4  10  22  36  55  85 109 156 195 240 289 347
#     4  10  20  32  55  84 113 152 192 237 286 354
#     4  10  21  39  55  78 116 151 199 237 291 335
#     4   9  18  33  52  81 117 148 182 238 302 348
#     4  11  23  37  57  77 118 159 194 247 290 340
#     4  10  19  32  54  80 116 147 189 238 285 349
#     4   9  18  31  51  80 115 149 180 231 299 353
#
# _framework density 18.978280999999999
#
# number of rings (size 3 to 8) (size 9 to 14) (size 15 to 20)
#    0.000    2.000    2.500    1.125    3.500    4.000 
#    0.000    0.000    0.000    0.000    0.000    3.500 
#    0.000    0.000    0.000    0.000    0.000    0.000 
#
# Total GULP energy -356411.474892 kJ/mol
# GULP energy per Si atom -5568.929295 kJ/mol
# Density = 1.893509 g / cm^3
# Si number density = 18.978281 Si / 1000 Ang^3
#
#
#
# Elastic Constant Matrix: (Units=GPa)
#
#
# Indices 1 2 3 4 5 6 
#
# 1 125.0326 18.9225 92.6369 0.0000 0.0000 0.0000
# 2 18.9225 54.5165 29.0687 0.0000 0.0000 0.0000
# 3 92.6369 29.0687 207.9107 0.0000 0.0000 0.0000
# 4 0.0000 0.0000 0.0000 20.9243 0.0000 0.0000
# 5 0.0000 0.0000 0.0000 0.0000 33.9995 0.0000
# 6 0.0000 0.0000 0.0000 0.0000 0.0000 19.2239
#
#
#
# Elastic Compliance Matrix: (Units=1/GPa)
#
#
# Indices 1 2 3 4 5 6 
#
# 1 0.012041 -0.001425 -0.005166 0.000000 0.000000 0.000000
# 2 -0.001425 0.019989 -0.002160 0.000000 0.000000 0.000000
# 3 -0.005166 -0.002160 0.007413 0.000000 0.000000 0.000000
# 4 0.000000 0.000000 0.000000 0.047791 0.000000 0.000000
# 5 0.000000 0.000000 0.000000 0.000000 0.029412 0.000000
# 6 0.000000 0.000000 0.000000 0.000000 0.000000 0.052019
#
#
# Mechanical properties :
#
#
# Convention : Reuss Voigt Hill
#
# Bulk Modulus (GPa) = 45.57363 74.30177 59.93770
# Shear Modulus (GPa) = 25.84234 31.28498 28.56366
#
# Velocity S-wave (km/s) = 3.69410 4.06453 3.88373
# Velocity P-wave (km/s) = 6.50083 7.82708 7.19458
#
# Compressibility (1/GPa) = 0.02194251
#
# Stress axis : x y z
#
# Youngs Moduli (GPa) = 83.05067 50.02668 134.89140
#
# Poissons Ratio (x) = 0.07128 0.69681
# Poissons Ratio (y) = 0.11834 0.29135
# Poissons Ratio (z) = 0.42902 0.10805
#
# Static dielectric constant tensor:
#      x y z
#    x 1.778800 0.000000 0.000000 
#    y 0.000000 1.661230 0.000000 
#    z 0.000000 0.000000 1.646010 
# 
# From -- ./inp_files/25050.got.cif
#   From: 2010.05.17/outbox.cif.g08.bks.cpg/sg60_13_cif.got.tgz:25050.got - 2010.06.03 14:59:27.
