data_PCOD9454469
_publ_section_title
;
Structure prediction by ZEFSAII (Michael W. Deem and Ramdas Pophale) SiO2 
 PCOD9454469
Probable space group: P B C N
;
_chemical_formula_sum "Si O2"
_cell_formula_units_Z 56
_cell_length_a 13.424007
_cell_length_b 14.288095
_cell_length_c 13.195841
_cell_angle_alpha 90.000000
_cell_angle_beta 90.000000
_cell_angle_gamma 90.000000
_cell_volume 2531.008322
_symmetry_space_group_name_H-M "P B C N"
_symmetry_group_IT_number 60
_symmetry_cell_setting 'orthorhombic'
loop_
_space_group_symop_operation_xyz
x,y,z
1/2-x,1/2-y,1/2+z
1/2+x,1/2-y,-z
-x,y,1/2-z
-x,-y,-z
1/2+x,1/2+y,1/2-z
1/2-x,1/2+y,z
x,-y,1/2+z
loop_
_atom_site_type_symbol
_atom_site_label
_atom_site_fract_x
_atom_site_fract_y
_atom_site_fract_z
Si Si1 0.000000 0.002471 0.250000
Si Si2 0.277881 0.518374 0.521415
Si Si3 0.680791 0.271695 0.732031
Si Si4 0.154019 0.808337 0.532100
Si Si5 0.160245 0.362133 0.885662
Si Si6 0.329288 0.627077 0.723125
Si Si7 0.042256 0.867655 0.919699
Si Si8 0.500000 0.222459 0.250000
O O1 0.902888 0.944239 0.221733
O O2 0.022289 0.065437 0.153629
O O3 0.290081 0.407018 0.523812
O O4 0.182899 0.548241 0.453830
O O5 0.281788 0.570116 0.630190
O O6 0.373561 0.569372 0.469903
O O7 0.657053 0.275537 0.850867
O O8 0.758883 0.354527 0.704645
O O9 0.740355 0.175305 0.716747
O O10 0.591503 0.291514 0.654917
O O11 0.188515 0.724460 0.460574
O O12 0.037909 0.826025 0.504411
O O13 0.054455 0.340629 0.834840
O O14 0.410302 0.711800 0.704400
#
# Coordination Sequence:
#
# PCOD9454469 Si02
#       8
#     4   8   8   8   8   8   8   4
#     4  11  20  32  56  92 127 162 199 270 322 382
#     4  11  22  34  58  94 126 161 205 268 322 385
#     4  10  21  38  56  89 132 172 199 254 323 391
#     4  12  21  38  63  93 130 161 208 269 328 387
#     4  10  23  39  59  93 125 168 213 256 326 388
#     4  10  19  34  55  84 124 168 205 245 326 384
#     4  11  21  34  57  95 128 157 205 265 331 375
#     4   9  20  36  60  80 121 174 205 256 302 396
#
# _framework density 22.12557
#
# number of rings (size 3 to 8) (size 9 to 14) (size 15 to 20)
#    0.000    1.429    4.286    1.286    6.000    0.000 
#    0.000    0.000    0.000    3.429    7.429    0.000 
#    0.000    0.000    0.000    0.000    0.000    0.000 
#
# Total GULP energy -312500.165756 kJ/mol
# GULP energy per Si atom -5580.360103 kJ/mol
# Density = 2.207521 g / cm^3
# Si number density = 22.125570 Si / 1000 Ang^3
#
#
#
# Elastic Constant Matrix: (Units=GPa)
#
#
# Indices 1 2 3 4 5 6 
#
# 1 56.8955 35.4804 3.3537 0.0000 0.0000 0.0000
# 2 35.4804 81.4017 17.3204 0.0000 0.0000 0.0000
# 3 3.3537 17.3204 58.6601 0.0000 0.0000 0.0000
# 4 0.0000 0.0000 0.0000 15.0261 0.0000 0.0000
# 5 0.0000 0.0000 0.0000 0.0000 37.4331 0.0000
# 6 0.0000 0.0000 0.0000 0.0000 0.0000 29.5912
#
#
#
# Elastic Compliance Matrix: (Units=1/GPa)
#
#
# Indices 1 2 3 4 5 6 
#
# 1 0.024325 -0.010997 0.001856 0.000000 0.000000 0.000000
# 2 -0.010997 0.018080 -0.004710 0.000000 0.000000 0.000000
# 3 0.001856 -0.004710 0.018332 0.000000 0.000000 0.000000
# 4 0.000000 0.000000 0.000000 0.066551 0.000000 0.000000
# 5 0.000000 0.000000 0.000000 0.000000 0.026714 0.000000
# 6 0.000000 0.000000 0.000000 0.000000 0.000000 0.033794
#
#
# Mechanical properties :
#
#
# Convention : Reuss Voigt Hill
#
# Bulk Modulus (GPa) = 30.27047 34.36293 32.31670
# Shear Modulus (GPa) = 22.07417 25.79693 23.93555
#
# Velocity S-wave (km/s) = 3.16203 3.41828 3.29265
# Velocity P-wave (km/s) = 5.20021 5.58069 5.39380
#
# Compressibility (1/GPa) = 0.03303550
#
# Stress axis : x y z
#
# Youngs Moduli (GPa) = 41.11050 55.30890 54.54987
#
# Poissons Ratio (x) = 0.60825 -0.10127
# Poissons Ratio (y) = 0.45211 0.25692
# Poissons Ratio (z) = -0.07632 0.26049
#
# Static dielectric constant tensor:
#      x y z
#    x 1.849140 0.000000 0.000000 
#    y 0.000000 1.817410 0.000000 
#    z 0.000000 0.000000 1.854610 
# 
# From -- ./inp_files/16989.got.cif
#   From: 2010.05.17/outbox.cif.g08.bks.cpg/sg60_9_cif.got.tgz:16989.got - 2010.06.03 14:59:27.
