data_PCOD9454317
_publ_section_title
;
Structure prediction by ZEFSAII (Michael W. Deem and Ramdas Pophale) SiO2 
 PCOD9454317
Probable space group: P B C N
;
_chemical_formula_sum "Si O2"
_cell_formula_units_Z 64
_cell_length_a 21.469109
_cell_length_b 17.950806
_cell_length_c 8.144923
_cell_angle_alpha 90.000000
_cell_angle_beta 90.000000
_cell_angle_gamma 90.000000
_cell_volume 3138.954043
_symmetry_space_group_name_H-M "P B C N"
_symmetry_group_IT_number 60
_symmetry_cell_setting 'orthorhombic'
loop_
_space_group_symop_operation_xyz
x,y,z
1/2-x,1/2-y,1/2+z
1/2+x,1/2-y,-z
-x,y,1/2-z
-x,-y,-z
1/2+x,1/2+y,1/2-z
1/2-x,1/2+y,z
x,-y,1/2+z
loop_
_atom_site_type_symbol
_atom_site_label
_atom_site_fract_x
_atom_site_fract_y
_atom_site_fract_z
Si Si1 0.256244 0.027182 0.575308
Si Si2 0.937038 0.955837 0.148666
Si Si3 0.307118 0.587327 0.881006
Si Si4 0.203749 0.331538 0.883520
Si Si5 0.933231 0.114988 0.286837
Si Si6 0.873545 0.425467 0.837323
Si Si7 0.187540 0.788677 0.642478
Si Si8 0.045967 0.543558 0.877872
O O1 0.242776 0.068806 0.743960
O O2 0.270616 0.088214 0.439196
O O3 0.197681 0.979038 0.514584
O O4 0.313152 0.970995 0.601684
O O5 0.874277 0.913790 0.205377
O O6 0.000000 0.940036 0.250000
O O7 0.924547 0.044518 0.164862
O O8 0.941459 0.926000 0.963220
O O9 0.293949 0.659148 0.987813
O O10 0.147334 0.352908 0.762565
O O11 0.258698 0.292158 0.779685
O O12 0.182401 0.289790 0.048914
O O13 0.875931 0.172423 0.292650
O O14 0.000000 0.151483 0.250000
O O15 0.912366 0.482526 0.720421
O O16 0.911889 0.407986 0.001951
O O17 0.000000 0.583320 0.750000
O O18 0.000000 0.500000 0.000000
#
# Coordination Sequence:
#
# PCOD9454317 Si02
#       8
#     8   8   8   8   8   8   8   8
#     4  12  20  35  63  94 122 160 208 273 319 379
#     4  10  19  31  55  93 122 163 205 261 305 355
#     4  11  20  35  57  92 127 161 213 261 320 376
#     4  12  24  41  61  90 133 169 217 261 328 403
#     4  10  20  37  62  90 128 163 214 258 313 373
#     4  11  19  36  63  95 121 160 207 265 331 379
#     4  11  25  42  59  91 130 177 210 260 331 399
#     4   9  19  35  61  96 127 153 194 270 338 370
#
# _framework density 20.388957999999999
#
# number of rings (size 3 to 8) (size 9 to 14) (size 15 to 20)
#    0.000    1.250    3.750    4.500    0.000    1.000 
#    0.000    0.000    2.750   10.500    0.000    0.000 
#    0.000    0.000    0.000    0.000    0.000    0.000 
#
# Total GULP energy -357027.246101 kJ/mol
# GULP energy per Si atom -5578.550720 kJ/mol
# Density = 2.034255 g / cm^3
# Si number density = 20.388958 Si / 1000 Ang^3
#
#
#
# Elastic Constant Matrix: (Units=GPa)
#
#
# Indices 1 2 3 4 5 6 
#
# 1 105.0716 19.1809 42.8300 0.0000 0.0000 0.0000
# 2 19.1809 46.7869 10.7080 0.0000 0.0000 0.0000
# 3 42.8300 10.7080 66.1285 0.0000 0.0000 0.0000
# 4 0.0000 0.0000 0.0000 41.0171 0.0000 0.0000
# 5 0.0000 0.0000 0.0000 0.0000 49.9534 0.0000
# 6 0.0000 0.0000 0.0000 0.0000 0.0000 14.8820
#
#
#
# Elastic Compliance Matrix: (Units=1/GPa)
#
#
# Indices 1 2 3 4 5 6 
#
# 1 0.013513 -0.003673 -0.008157 0.000000 0.000000 0.000000
# 2 -0.003673 0.023194 -0.001377 0.000000 0.000000 0.000000
# 3 -0.008157 -0.001377 0.020628 0.000000 0.000000 0.000000
# 4 0.000000 0.000000 0.000000 0.024380 0.000000 0.000000
# 5 0.000000 0.000000 0.000000 0.000000 0.020019 0.000000
# 6 0.000000 0.000000 0.000000 0.000000 0.000000 0.067195
#
#
# Mechanical properties :
#
#
# Convention : Reuss Voigt Hill
#
# Bulk Modulus (GPa) = 32.34005 40.38053 36.36029
# Shear Modulus (GPa) = 24.31303 30.85504 27.58404
#
# Velocity S-wave (km/s) = 3.45695 3.89436 3.68216
# Velocity P-wave (km/s) = 5.64181 6.33005 5.99581
#
# Compressibility (1/GPa) = 0.03092141
#
# Stress axis : x y z
#
# Youngs Moduli (GPa) = 74.00312 43.11391 48.47696
#
# Poissons Ratio (x) = 0.15835 0.39544
# Poissons Ratio (y) = 0.27180 0.06675
# Poissons Ratio (z) = 0.60367 0.05937
#
# Static dielectric constant tensor:
#      x y z
#    x 1.781500 0.000000 0.000000 
#    y 0.000000 1.790120 0.000000 
#    z 0.000000 0.000000 1.782150 
# 
# From -- ./inp_files/7580.got.cif
#   From: 2010.05.17/outbox.cif.g08.bks.cpg/sg60_4_cif.got.tgz:7580.got - 2010.06.03 14:59:27.
