data_PCOD9454448
_publ_section_title
;
Structure prediction by ZEFSAII (Michael W. Deem and Ramdas Pophale) SiO2 
 PCOD9454448
Probable space group: P B C N
;
_chemical_formula_sum "Si O2"
_cell_formula_units_Z 48
_cell_length_a 20.605219
_cell_length_b 5.103693
_cell_length_c 24.642763
_cell_angle_alpha 90.000000
_cell_angle_beta 90.000000
_cell_angle_gamma 90.000000
_cell_volume 2591.499788
_symmetry_space_group_name_H-M "P B C N"
_symmetry_group_IT_number 60
_symmetry_cell_setting 'orthorhombic'
loop_
_space_group_symop_operation_xyz
x,y,z
1/2-x,1/2-y,1/2+z
1/2+x,1/2-y,-z
-x,y,1/2-z
-x,-y,-z
1/2+x,1/2+y,1/2-z
1/2-x,1/2+y,z
x,-y,1/2+z
loop_
_atom_site_type_symbol
_atom_site_label
_atom_site_fract_x
_atom_site_fract_y
_atom_site_fract_z
Si Si1 0.408379 0.088912 0.541563
Si Si2 0.474713 0.315556 0.451392
Si Si3 0.211350 0.303693 0.586793
Si Si4 0.939842 0.400458 0.790195
Si Si5 0.793213 0.372105 0.783274
Si Si6 0.041884 0.093567 0.135445
O O1 0.411839 0.191649 0.479880
O O2 0.410744 0.318268 0.586565
O O3 0.473755 0.921017 0.554101
O O4 0.349563 0.900230 0.553270
O O5 0.500000 0.500000 0.500000
O O6 0.478035 0.487616 0.396857
O O7 0.268809 0.508907 0.574569
O O8 0.200138 0.354859 0.650961
O O9 0.867478 0.422794 0.764339
O O10 0.958874 0.659270 0.824486
O O11 0.000000 0.351470 0.750000
O O12 0.934725 0.152355 0.830089
O O13 0.743596 0.604503 0.768168
#
# Coordination Sequence:
#
# PCOD9454448 Si02
#       6
#     8   8   8   8   8   8
#     4  10  19  34  52  81 113 143 183 215 267 330
#     4   9  19  31  57  79 105 147 180 220 266 316
#     4  10  21  30  49  77 111 150 172 209 275 339
#     4  12  24  37  56  83 115 147 187 241 292 329
#     4  10  20  34  54  76 107 147 183 218 283 352
#     4  11  20  36  54  78 117 141 177 234 273 331
#
# _framework density 18.522093000000002
#
# number of rings (size 3 to 8) (size 9 to 14) (size 15 to 20)
#    0.000    1.667    3.333    1.500    9.333    0.000 
#    0.000    0.000    0.000    0.000    0.000    7.000 
#    0.000    0.000    0.000    0.000    0.000    0.000 
#
# Total GULP energy -267458.161365 kJ/mol
# GULP energy per Si atom -5572.045028 kJ/mol
# Density = 1.847994 g / cm^3
# Si number density = 18.522093 Si / 1000 Ang^3
#
#
#
# Elastic Constant Matrix: (Units=GPa)
#
#
# Indices 1 2 3 4 5 6 
#
# 1 84.8866 16.5924 33.2448 0.0000 0.0000 0.0000
# 2 16.5924 109.4271 23.6121 0.0000 0.0000 0.0000
# 3 33.2448 23.6121 29.0906 0.0000 0.0000 0.0000
# 4 0.0000 0.0000 0.0000 22.0780 0.0000 0.0000
# 5 0.0000 0.0000 0.0000 0.0000 23.0662 0.0000
# 6 0.0000 0.0000 0.0000 0.0000 0.0000 12.4227
#
#
#
# Elastic Compliance Matrix: (Units=1/GPa)
#
#
# Indices 1 2 3 4 5 6 
#
# 1 0.021883 0.002519 -0.027053 0.000000 0.000000 0.000000
# 2 0.002519 0.011369 -0.012107 0.000000 0.000000 0.000000
# 3 -0.027053 -0.012107 0.075118 0.000000 0.000000 0.000000
# 4 0.000000 0.000000 0.000000 0.045294 0.000000 0.000000
# 5 0.000000 0.000000 0.000000 0.000000 0.043354 0.000000
# 6 0.000000 0.000000 0.000000 0.000000 0.000000 0.080498
#
#
# Mechanical properties :
#
#
# Convention : Reuss Voigt Hill
#
# Bulk Modulus (GPa) = 28.49870 41.14476 34.82173
# Shear Modulus (GPa) = 13.79342 21.51038 17.65190
#
# Velocity S-wave (km/s) = 2.73188 3.41154 3.09045
# Velocity P-wave (km/s) = 5.03693 6.14656 5.61920
#
# Compressibility (1/GPa) = 0.03508932
#
# Stress axis : x y z
#
# Youngs Moduli (GPa) = 45.69807 87.95896 13.31240
#
# Poissons Ratio (x) = -0.22160 0.36013
# Poissons Ratio (y) = -0.11513 0.16117
# Poissons Ratio (z) = 1.23625 1.06492
#
# Static dielectric constant tensor:
#      x y z
#    x 1.697130 0.000000 0.000000 
#    y 0.000000 1.709860 0.000000 
#    z 0.000000 0.000000 1.647720 
# 
# From -- ./inp_files/24504.got.cif
#   From: 2010.05.17/outbox.cif.g08.bks.cpg/sg60_13_cif.got.tgz:24504.got - 2010.06.03 14:59:27.
