data_PCOD9454584
_publ_section_title
;
Structure prediction by ZEFSAII (Michael W. Deem and Ramdas Pophale) SiO2 
 PCOD9454584
Probable space group: P B C N
;
_chemical_formula_sum "Si O2"
_cell_formula_units_Z 64
_cell_length_a 13.713018
_cell_length_b 9.063566
_cell_length_c 22.795390
_cell_angle_alpha 90.000000
_cell_angle_beta 90.000000
_cell_angle_gamma 90.000000
_cell_volume 2833.212665
_symmetry_space_group_name_H-M "P B C N"
_symmetry_group_IT_number 60
_symmetry_cell_setting 'orthorhombic'
loop_
_space_group_symop_operation_xyz
x,y,z
1/2-x,1/2-y,1/2+z
1/2+x,1/2-y,-z
-x,y,1/2-z
-x,-y,-z
1/2+x,1/2+y,1/2-z
1/2-x,1/2+y,z
x,-y,1/2+z
loop_
_atom_site_type_symbol
_atom_site_label
_atom_site_fract_x
_atom_site_fract_y
_atom_site_fract_z
Si Si1 0.200186 0.157548 0.265877
Si Si2 0.942550 0.322930 0.166220
Si Si3 0.369092 0.897360 0.983992
Si Si4 0.712931 0.819972 0.064255
Si Si5 0.351515 0.637862 0.832663
Si Si6 0.278325 0.062042 0.139569
Si Si7 0.498502 0.854054 0.629161
Si Si8 0.631976 0.235797 0.893479
O O1 0.113499 0.276528 0.275077
O O2 0.290005 0.231439 0.301077
O O3 0.237791 0.111508 0.202501
O O4 0.159607 0.009522 0.295839
O O5 0.868521 0.282996 0.112978
O O6 0.965388 0.497379 0.162983
O O7 0.041557 0.240592 0.149378
O O8 0.269868 0.810349 0.967441
O O9 0.449289 0.867139 0.934102
O O10 0.338457 0.067303 0.979836
O O11 0.403886 0.839326 0.046514
O O12 0.797792 0.891875 0.105202
O O13 0.457851 0.706379 0.842253
O O14 0.382673 0.137193 0.127975
O O15 0.195299 0.119727 0.095739
O O16 0.297687 0.888756 0.134417
#
# Coordination Sequence:
#
# PCOD9454584 Si02
#       8
#     8   8   8   8   8   8   8   8
#     4  11  21  38  63  85 118 159 199 254 308 351
#     4   9  20  38  61  87 116 158 208 247 295 369
#     4  10  19  35  62  90 121 160 195 247 305 349
#     4   9  17  33  58  89 118 150 200 248 295 360
#     4  10  19  36  62  93 120 154 203 250 301 365
#     4  11  25  42  58  86 125 161 203 253 304 362
#     4   9  21  40  63  92 122 155 204 251 299 365
#     4  11  24  40  59  88 124 161 206 250 303 367
#
# _framework density 22.589196999999999
#
# number of rings (size 3 to 8) (size 9 to 14) (size 15 to 20)
#    0.000    2.000    0.000    5.250    0.000    7.500 
#    0.000    5.000    0.000    5.250    0.000    0.000 
#    0.000    0.000    0.000    0.000    0.000    0.000 
#
# Total GULP energy -357781.875388 kJ/mol
# GULP energy per Si atom -5590.341803 kJ/mol
# Density = 2.253778 g / cm^3
# Si number density = 22.589197 Si / 1000 Ang^3
#
#
#
# Elastic Constant Matrix: (Units=GPa)
#
#
# Indices 1 2 3 4 5 6 
#
# 1 89.2951 18.0316 2.0377 0.0000 0.0000 0.0000
# 2 18.0316 37.8326 8.9934 0.0000 0.0000 0.0000
# 3 2.0377 8.9934 67.9862 0.0000 0.0000 0.0000
# 4 0.0000 0.0000 0.0000 24.8671 0.0000 0.0000
# 5 0.0000 0.0000 0.0000 0.0000 21.4538 0.0000
# 6 0.0000 0.0000 0.0000 0.0000 0.0000 36.7536
#
#
#
# Elastic Compliance Matrix: (Units=1/GPa)
#
#
# Indices 1 2 3 4 5 6 
#
# 1 0.012403 -0.006012 0.000424 0.000000 0.000000 0.000000
# 2 -0.006012 0.030205 -0.003815 0.000000 0.000000 0.000000
# 3 0.000424 -0.003815 0.015201 0.000000 0.000000 0.000000
# 4 0.000000 0.000000 0.000000 0.040214 0.000000 0.000000
# 5 0.000000 0.000000 0.000000 0.000000 0.046612 0.000000
# 6 0.000000 0.000000 0.000000 0.000000 0.000000 0.027208
#
#
# Mechanical properties :
#
#
# Convention : Reuss Voigt Hill
#
# Bulk Modulus (GPa) = 25.64053 28.13769 26.88911
# Shear Modulus (GPa) = 24.55181 27.68497 26.11839
#
# Velocity S-wave (km/s) = 3.30037 3.50463 3.40403
# Velocity P-wave (km/s) = 5.08907 5.37214 5.23252
#
# Compressibility (1/GPa) = 0.03900076
#
# Stress axis : x y z
#
# Youngs Moduli (GPa) = 80.62424 33.10741 65.78564
#
# Poissons Ratio (x) = 0.19905 -0.02786
# Poissons Ratio (y) = 0.48473 0.25100
# Poissons Ratio (z) = -0.03415 0.12632
#
# Static dielectric constant tensor:
#      x y z
#    x 1.820180 0.000000 0.000000 
#    y 0.000000 1.821830 0.000000 
#    z 0.000000 0.000000 1.887020 
# 
# From -- ./inp_files/24469.got.cif
#   From: 2010.05.17/outbox.cif.g08.bks.cpg/sg60_13_cif.got.tgz:24469.got - 2010.06.03 14:59:27.
