data_PCOD9454980
_publ_section_title
;
Structure prediction by ZEFSAII (Michael W. Deem and Ramdas Pophale) SiO2 
 PCOD9454980
Probable space group: P B C N
;
_chemical_formula_sum "Si O2"
_cell_formula_units_Z 56
_cell_length_a 23.769920
_cell_length_b 5.177736
_cell_length_c 22.721251
_cell_angle_alpha 90.000000
_cell_angle_beta 90.000000
_cell_angle_gamma 90.000000
_cell_volume 2796.403664
_symmetry_space_group_name_H-M "P B C N"
_symmetry_group_IT_number 60
_symmetry_cell_setting 'orthorhombic'
loop_
_space_group_symop_operation_xyz
x,y,z
1/2-x,1/2-y,1/2+z
1/2+x,1/2-y,-z
-x,y,1/2-z
-x,-y,-z
1/2+x,1/2+y,1/2-z
1/2-x,1/2+y,z
x,-y,1/2+z
loop_
_atom_site_type_symbol
_atom_site_label
_atom_site_fract_x
_atom_site_fract_y
_atom_site_fract_z
Si Si1 0.944945 0.909915 0.218812
Si Si2 0.512012 0.408469 0.595680
Si Si3 0.613475 0.914544 0.258962
Si Si4 0.783598 0.073870 0.388907
Si Si5 0.052287 0.687274 0.013950
Si Si6 0.777603 0.898159 0.746452
Si Si7 0.896161 0.363414 0.392398
O O1 0.931474 0.182532 0.250601
O O2 0.000000 0.798265 0.250000
O O3 0.959239 0.967173 0.151675
O O4 0.900350 0.682365 0.227799
O O5 0.474161 0.604285 0.557806
O O6 0.559914 0.307006 0.550739
O O7 0.462191 0.212825 0.615260
O O8 0.666809 0.763370 0.233045
O O9 0.621024 0.977737 0.328664
O O10 0.742444 0.304525 0.409694
O O11 0.778864 0.075179 0.317637
O O12 0.848754 0.143070 0.402609
O O13 0.100903 0.543992 0.049973
O O14 0.000000 0.500000 0.000000
O O15 0.730217 0.691993 0.726567
#
# Coordination Sequence:
#
# PCOD9454980 Si02
#       7
#     8   8   8   8   8   8   8
#     4  12  23  35  52  80 122 152 183 222 277 338
#     4  10  21  36  54  79 113 150 189 231 266 331
#     4  11  23  34  54  85 114 152 183 222 288 341
#     4   9  19  31  49  79 109 140 177 229 283 337
#     4   9  20  36  56  78 103 149 193 227 269 318
#     4   9  17  33  52  73 106 141 184 230 272 328
#     4  10  20  34  56  78 115 149 186 227 283 337
#
# _framework density 20.02572
#
# number of rings (size 3 to 8) (size 9 to 14) (size 15 to 20)
#    0.000    2.000    1.429    2.143    6.000    2.286 
#    0.000    0.000    0.000    0.000    0.000    6.000 
#    0.000    0.000    0.000    0.000    0.000    0.000 
#
# Total GULP energy -311897.763193 kJ/mol
# GULP energy per Si atom -5569.602914 kJ/mol
# Density = 1.998014 g / cm^3
# Si number density = 20.025720 Si / 1000 Ang^3
#
#
#
# Elastic Constant Matrix: (Units=GPa)
#
#
# Indices 1 2 3 4 5 6 
#
# 1 53.5092 -4.7240 -3.7168 0.0000 0.0000 0.0000
# 2 -4.7240 53.9636 -6.3030 0.0000 0.0000 0.0000
# 3 -3.7168 -6.3030 48.1335 0.0000 0.0000 0.0000
# 4 0.0000 0.0000 0.0000 16.9611 0.0000 0.0000
# 5 0.0000 0.0000 0.0000 0.0000 12.0752 0.0000
# 6 0.0000 0.0000 0.0000 0.0000 0.0000 13.1620
#
#
#
# Elastic Compliance Matrix: (Units=1/GPa)
#
#
# Indices 1 2 3 4 5 6 
#
# 1 0.018971 0.001860 0.001709 0.000000 0.000000 0.000000
# 2 0.001860 0.019001 0.002632 0.000000 0.000000 0.000000
# 3 0.001709 0.002632 0.021252 0.000000 0.000000 0.000000
# 4 0.000000 0.000000 0.000000 0.058959 0.000000 0.000000
# 5 0.000000 0.000000 0.000000 0.000000 0.082814 0.000000
# 6 0.000000 0.000000 0.000000 0.000000 0.000000 0.075976
#
#
# Mechanical properties :
#
#
# Convention : Reuss Voigt Hill
#
# Bulk Modulus (GPa) = 13.96141 14.01319 13.98730
# Shear Modulus (GPa) = 17.33415 19.79632 18.56524
#
# Velocity S-wave (km/s) = 2.94529 3.14752 3.04809
# Velocity P-wave (km/s) = 4.30734 4.49689 4.40313
#
# Compressibility (1/GPa) = 0.07162602
#
# Stress axis : x y z
#
# Youngs Moduli (GPa) = 52.71125 52.62806 47.05410
#
# Poissons Ratio (x) = -0.09790 -0.08039
# Poissons Ratio (y) = -0.09806 -0.12384
# Poissons Ratio (z) = -0.09006 -0.13851
#
# Static dielectric constant tensor:
#      x y z
#    x 1.501930 0.000000 0.000000 
#    y 0.000000 1.684550 0.000000 
#    z 0.000000 0.000000 1.664460 
# 
# From -- ./inp_files/23283.got.cif
#   From: 2010.05.17/outbox.cif.g08.bks.cpg/sg60_12_cif.got.tgz:23283.got - 2010.06.03 14:59:27.
