data_PCOD9454735
_publ_section_title
;
Structure prediction by ZEFSAII (Michael W. Deem and Ramdas Pophale) SiO2 
 PCOD9454735
Probable space group: P B C N
;
_chemical_formula_sum "Si O2"
_cell_formula_units_Z 32
_cell_length_a 12.747757
_cell_length_b 10.451454
_cell_length_c 9.324269
_cell_angle_alpha 90.000000
_cell_angle_beta 90.000000
_cell_angle_gamma 90.000000
_cell_volume 1242.296564
_symmetry_space_group_name_H-M "P B C N"
_symmetry_group_IT_number 60
_symmetry_cell_setting 'orthorhombic'
loop_
_space_group_symop_operation_xyz
x,y,z
1/2-x,1/2-y,1/2+z
1/2+x,1/2-y,-z
-x,y,1/2-z
-x,-y,-z
1/2+x,1/2+y,1/2-z
1/2-x,1/2+y,z
x,-y,1/2+z
loop_
_atom_site_type_symbol
_atom_site_label
_atom_site_fract_x
_atom_site_fract_y
_atom_site_fract_z
Si Si1 0.616459 0.496716 0.271563
Si Si2 0.744041 0.940372 0.047534
Si Si3 0.554696 0.112724 0.095833
Si Si4 0.438158 0.241448 0.887180
O O1 0.500000 0.443019 0.250000
O O2 0.674654 0.531509 0.419740
O O3 0.694724 0.403799 0.190829
O O4 0.602921 0.626873 0.177815
O O5 0.658016 0.828962 0.033903
O O6 0.674403 0.066074 0.089228
O O7 0.500000 0.115982 0.250000
O O8 0.528258 0.240545 0.007248
O O9 0.500000 0.000000 0.000000
O O10 0.500000 0.179128 0.750000
#
# Coordination Sequence:
#
# PCOD9454735 Si02
#       4
#     8   8   8   8
#     4  11  25  41  58  89 127 167 208 252 304 374
#     4  11  21  41  67  88 120 167 206 252 317 371
#     4  10  19  37  67  99 122 152 205 271 323 369
#     4  10  22  41  64  96 126 154 210 273 316 374
#
# _framework density 25.758745000000001
#
# number of rings (size 3 to 8) (size 9 to 14) (size 15 to 20)
#    0.000    1.500    0.000    8.250    0.000    6.000 
#    0.000    6.250    0.000    1.500    0.000    0.000 
#    0.000    0.000    0.000    0.000    0.000    0.000 
#
# Total GULP energy -178507.586378 kJ/mol
# GULP energy per Si atom -5578.362074 kJ/mol
# Density = 2.570012 g / cm^3
# Si number density = 25.758745 Si / 1000 Ang^3
#
#
#
# Elastic Constant Matrix: (Units=GPa)
#
#
# Indices 1 2 3 4 5 6 
#
# 1 152.3455 22.2165 38.5471 0.0000 0.0000 0.0000
# 2 22.2165 40.0123 41.9425 0.0000 0.0000 0.0000
# 3 38.5471 41.9425 169.7461 0.0000 0.0000 0.0000
# 4 0.0000 0.0000 0.0000 23.0979 0.0000 0.0000
# 5 0.0000 0.0000 0.0000 0.0000 50.5981 0.0000
# 6 0.0000 0.0000 0.0000 0.0000 0.0000 1394.7730
#
#
#
# Elastic Compliance Matrix: (Units=1/GPa)
#
#
# Indices 1 2 3 4 5 6 
#
# 1 0.007238 -0.003098 -0.000878 0.000000 0.000000 0.000000
# 2 -0.003098 0.035055 -0.007958 0.000000 0.000000 0.000000
# 3 -0.000878 -0.007958 0.008057 0.000000 0.000000 0.000000
# 4 0.000000 0.000000 0.000000 0.043294 0.000000 0.000000
# 5 0.000000 0.000000 0.000000 0.000000 0.019764 0.000000
# 6 0.000000 0.000000 0.000000 0.000000 0.000000 0.000717
#
#
# Mechanical properties :
#
#
# Convention : Reuss Voigt Hill
#
# Bulk Modulus (GPa) = 37.76362 63.05733 50.41048
# Shear Modulus (GPa) = 34.05531 310.98698 172.52114
#
# Velocity S-wave (km/s) = 3.64000 10.99967 8.19275
# Velocity P-wave (km/s) = 5.68845 13.63293 10.44546
#
# Compressibility (1/GPa) = 0.02648051
#
# Stress axis : x y z
#
# Youngs Moduli (GPa) = 138.15882 28.52690 124.11730
#
# Poissons Ratio (x) = 0.08839 0.10898
# Poissons Ratio (y) = 0.42808 0.98773
# Poissons Ratio (z) = 0.12131 0.22702
#
# Static dielectric constant tensor:
#      x y z
#    x 2.096410 0.000000 0.000000 
#    y 0.000000 2.201040 0.000000 
#    z 0.000000 0.000000 2.031750 
# 
# From -- ./inp_files/4593.got.cif
#   From: 2010.05.17/outbox.cif.g08.bks.cpg/sg60_3_cif.got.tgz:4593.got - 2010.06.03 14:59:27.
