data_PCOD9454107
_publ_section_title
;
Structure prediction by ZEFSAII (Michael W. Deem and Ramdas Pophale) SiO2 
 PCOD9454107
Probable space group: P B C N
;
_chemical_formula_sum "Si O2"
_cell_formula_units_Z 52
_cell_length_a 7.876196
_cell_length_b 20.372699
_cell_length_c 14.650415
_cell_angle_alpha 90.000000
_cell_angle_beta 90.000000
_cell_angle_gamma 90.000000
_cell_volume 2350.796367
_symmetry_space_group_name_H-M "P B C N"
_symmetry_group_IT_number 60
_symmetry_cell_setting 'orthorhombic'
loop_
_space_group_symop_operation_xyz
x,y,z
1/2-x,1/2-y,1/2+z
1/2+x,1/2-y,-z
-x,y,1/2-z
-x,-y,-z
1/2+x,1/2+y,1/2-z
1/2-x,1/2+y,z
x,-y,1/2+z
loop_
_atom_site_type_symbol
_atom_site_label
_atom_site_fract_x
_atom_site_fract_y
_atom_site_fract_z
Si Si1 0.694419 0.040503 0.717215
Si Si2 0.626206 0.345453 0.516973
Si Si3 0.739661 0.967248 0.424865
Si Si4 0.000000 0.328667 0.750000
Si Si5 0.480207 0.783598 0.953323
Si Si6 0.175608 0.905568 0.796105
Si Si7 0.641205 0.091988 0.535119
O O1 0.500000 0.042911 0.750000
O O2 0.781060 0.037514 0.816723
O O3 0.722307 0.092913 0.636962
O O4 0.736583 0.971802 0.667604
O O5 0.631138 0.416959 0.472316
O O6 0.500437 0.291349 0.480799
O O7 0.619433 0.356882 0.624409
O O8 0.808296 0.311206 0.503026
O O9 0.549290 0.938447 0.446349
O O10 0.733288 0.040694 0.466367
O O11 0.979065 0.289791 0.656128
O O12 0.170625 0.372534 0.740399
O O13 0.616806 0.836542 0.991369
O O14 0.000000 0.923318 0.750000
#
# Coordination Sequence:
#
# PCOD9454107 Si02
#       7
#     8   8   8   4   8   8   8
#     4  10  18  34  62  90 123 163 209 263 320 374
#     4  10  22  41  60  91 126 164 209 269 321 380
#     4   9  17  33  61  87 119 159 208 262 310 373
#     4  10  22  42  64  88 118 176 216 250 322 380
#     4  10  22  40  63  89 125 168 213 261 321 384
#     4  11  22  38  64  94 125 165 217 263 312 386
#     4   9  17  33  59  91 117 157 215 256 309 380
#
# _framework density 22.120163999999999
#
# number of rings (size 3 to 8) (size 9 to 14) (size 15 to 20)
#    0.000    2.154    2.308    0.923    6.462    0.000 
#    5.538    3.077    0.000    0.000    0.000    0.000 
#    0.000    0.000    0.000    0.000    0.000    0.000 
#
# Total GULP energy -290021.153096 kJ/mol
# GULP energy per Si atom -5577.329867 kJ/mol
# Density = 2.206982 g / cm^3
# Si number density = 22.120164 Si / 1000 Ang^3
#
#
#
# Elastic Constant Matrix: (Units=GPa)
#
#
# Indices 1 2 3 4 5 6 
#
# 1 56.5122 10.8879 16.3264 0.0000 0.0000 0.0000
# 2 10.8879 46.4733 8.1642 0.0000 0.0000 0.0000
# 3 16.3264 8.1642 83.0963 0.0000 0.0000 0.0000
# 4 0.0000 0.0000 0.0000 -0.5924 0.0000 0.0000
# 5 0.0000 0.0000 0.0000 0.0000 5.4659 0.0000
# 6 0.0000 0.0000 0.0000 0.0000 0.0000 24.2145
#
#
#
# Elastic Compliance Matrix: (Units=1/GPa)
#
#
# Indices 1 2 3 4 5 6 
#
# 1 0.019449 -0.003953 -0.003433 0.000000 0.000000 0.000000
# 2 -0.003953 0.022699 -0.001453 0.000000 0.000000 0.000000
# 3 -0.003433 -0.001453 0.012851 0.000000 0.000000 0.000000
# 4 0.000000 0.000000 0.000000 -1.688066 0.000000 0.000000
# 5 0.000000 0.000000 0.000000 0.000000 0.182951 0.000000
# 6 0.000000 0.000000 0.000000 0.000000 0.000000 0.041298
#
#
# Mechanical properties :
#
#
# Convention : Reuss Voigt Hill
#
# Bulk Modulus (GPa) = 26.79516 28.53764 27.66640
# Shear Modulus (GPa) = -3.62661 15.86449 6.11894
#
# Velocity S-wave (km/s) = -1.28182 2.68096 1.66500
# Velocity P-wave (km/s) = 3.15420 4.74474 4.02875
#
# Compressibility (1/GPa) = 0.03732017
#
# Stress axis : x y z
#
# Youngs Moduli (GPa) = 51.41727 44.05423 77.81204
#
# Poissons Ratio (x) = 0.17417 0.26711
# Poissons Ratio (y) = 0.20328 0.11310
# Poissons Ratio (z) = 0.17650 0.06403
#
# Static dielectric constant tensor:
#      x y z
#    x 1.917390 0.000000 0.000000 
#    y 0.000000 1.787020 0.000000 
#    z 0.000000 0.000000 1.857240 
# 
# From -- ./inp_files/15201.got.cif
#   From: 2010.05.17/outbox.cif.g08.bks.cpg/sg60_8_cif.got.tgz:15201.got - 2010.06.03 14:59:27.
