data_PCOD9454766
_publ_section_title
;
Structure prediction by ZEFSAII (Michael W. Deem and Ramdas Pophale) SiO2 
 PCOD9454766
Probable space group: P B C N
;
_chemical_formula_sum "Si O2"
_cell_formula_units_Z 48
_cell_length_a 8.585950
_cell_length_b 16.566350
_cell_length_c 14.055758
_cell_angle_alpha 90.000000
_cell_angle_beta 90.000000
_cell_angle_gamma 90.000000
_cell_volume 1999.260837
_symmetry_space_group_name_H-M "P B C N"
_symmetry_group_IT_number 60
_symmetry_cell_setting 'orthorhombic'
loop_
_space_group_symop_operation_xyz
x,y,z
1/2-x,1/2-y,1/2+z
1/2+x,1/2-y,-z
-x,y,1/2-z
-x,-y,-z
1/2+x,1/2+y,1/2-z
1/2-x,1/2+y,z
x,-y,1/2+z
loop_
_atom_site_type_symbol
_atom_site_label
_atom_site_fract_x
_atom_site_fract_y
_atom_site_fract_z
Si Si1 0.320438 0.696889 0.375991
Si Si2 0.021464 0.721371 0.030658
Si Si3 0.589437 0.360895 0.332214
Si Si4 0.591498 0.512505 0.097223
Si Si5 0.331013 0.862477 0.698507
Si Si6 0.319320 0.965363 0.262567
O O1 0.431482 0.765895 0.420774
O O2 0.399508 0.608324 0.385991
O O3 0.272889 0.696461 0.264328
O O4 0.156324 0.702133 0.437164
O O5 0.068787 0.808374 0.075092
O O6 0.135355 0.662502 0.090502
O O7 0.500000 0.312551 0.250000
O O8 0.499456 0.445043 0.343099
O O9 0.752104 0.387547 0.290227
O O10 0.765255 0.481699 0.128258
O O11 0.500000 0.500000 0.000000
O O12 0.500000 0.865960 0.750000
O O13 0.264367 0.952588 0.708310
O O14 0.500000 0.961733 0.250000
#
# Coordination Sequence:
#
# PCOD9454766 Si02
#       6
#     8   8   8   8   8   8
#     4  10  21  37  61  91 125 168 218 262 327 399
#     4  11  21  39  63  90 126 169 219 271 331 391
#     4  10  20  36  64  90 124 173 214 270 336 394
#     4  10  19  38  63  89 127 172 215 268 335 404
#     4   8  17  36  60  82 122 170 209 255 324 393
#     4   9  19  37  63  94 127 167 220 273 333 407
#
# _framework density 24.008873000000001
#
# number of rings (size 3 to 8) (size 9 to 14) (size 15 to 20)
#    0.000    2.333    1.667    2.500    0.000    1.333 
#    0.000    8.333    0.000    0.000    0.000    0.000 
#    0.000    0.000    0.000    0.000    0.000    0.000 
#
# Total GULP energy -267323.308873 kJ/mol
# GULP energy per Si atom -5569.235602 kJ/mol
# Density = 2.395423 g / cm^3
# Si number density = 24.008873 Si / 1000 Ang^3
#
#
#
# Elastic Constant Matrix: (Units=GPa)
#
#
# Indices 1 2 3 4 5 6 
#
# 1 71.7373 26.4850 18.8558 0.0000 0.0000 0.0000
# 2 26.4850 106.6636 10.0058 0.0000 0.0000 0.0000
# 3 18.8558 10.0058 49.3922 0.0000 0.0000 0.0000
# 4 0.0000 0.0000 0.0000 22.1772 0.0000 0.0000
# 5 0.0000 0.0000 0.0000 0.0000 34.0869 0.0000
# 6 0.0000 0.0000 0.0000 0.0000 0.0000 34.9100
#
#
#
# Elastic Compliance Matrix: (Units=1/GPa)
#
#
# Indices 1 2 3 4 5 6 
#
# 1 0.016770 -0.003633 -0.005666 0.000000 0.000000 0.000000
# 2 -0.003633 0.010344 -0.000709 0.000000 0.000000 0.000000
# 3 -0.005666 -0.000709 0.022553 0.000000 0.000000 0.000000
# 4 0.000000 0.000000 0.000000 0.045091 0.000000 0.000000
# 5 0.000000 0.000000 0.000000 0.000000 0.029337 0.000000
# 6 0.000000 0.000000 0.000000 0.000000 0.000000 0.028645
#
#
# Mechanical properties :
#
#
# Convention : Reuss Voigt Hill
#
# Bulk Modulus (GPa) = 33.72481 37.60959 35.66720
# Shear Modulus (GPa) = 27.37642 29.73125 28.55384
#
# Velocity S-wave (km/s) = 3.38044 3.52283 3.45237
# Velocity P-wave (km/s) = 5.41422 5.67855 5.54796
#
# Compressibility (1/GPa) = 0.02965176
#
# Stress axis : x y z
#
# Youngs Moduli (GPa) = 59.62951 96.67684 44.34041
#
# Poissons Ratio (x) = 0.35119 0.25124
# Poissons Ratio (y) = 0.21661 0.03142
# Poissons Ratio (z) = 0.33788 0.06851
#
# Static dielectric constant tensor:
#      x y z
#    x 1.835870 0.000000 0.000000 
#    y 0.000000 1.938410 0.000000 
#    z 0.000000 0.000000 2.226010 
# 
# From -- ./inp_files/14974.got.cif
#   From: 2010.05.17/outbox.cif.g08.bks.cpg/sg60_8_cif.got.tgz:14974.got - 2010.06.03 14:59:27.
