data_PCOD9454610
_publ_section_title
;
Structure prediction by ZEFSAII (Michael W. Deem and Ramdas Pophale) SiO2 
 PCOD9454610
Probable space group: P B C N
;
_chemical_formula_sum "Si O2"
_cell_formula_units_Z 48
_cell_length_a 12.364425
_cell_length_b 8.462001
_cell_length_c 22.087698
_cell_angle_alpha 90.000000
_cell_angle_beta 90.000000
_cell_angle_gamma 90.000000
_cell_volume 2310.986734
_symmetry_space_group_name_H-M "P B C N"
_symmetry_group_IT_number 60
_symmetry_cell_setting 'orthorhombic'
loop_
_space_group_symop_operation_xyz
x,y,z
1/2-x,1/2-y,1/2+z
1/2+x,1/2-y,-z
-x,y,1/2-z
-x,-y,-z
1/2+x,1/2+y,1/2-z
1/2-x,1/2+y,z
x,-y,1/2+z
loop_
_atom_site_type_symbol
_atom_site_label
_atom_site_fract_x
_atom_site_fract_y
_atom_site_fract_z
Si Si1 0.861195 0.806986 0.886364
Si Si2 0.100688 0.598944 0.023139
Si Si3 0.623947 0.582474 0.251660
Si Si4 0.694338 0.406259 0.460933
Si Si5 0.033743 0.503106 0.649667
Si Si6 0.342847 0.941136 0.275120
O O1 0.842656 0.882841 0.820949
O O2 0.762897 0.698413 0.911679
O O3 0.956113 0.680543 0.877530
O O4 0.874529 0.954144 0.930902
O O5 0.207838 0.498930 0.006794
O O6 0.123217 0.778427 0.003968
O O7 0.078829 0.603816 0.095973
O O8 0.000000 0.500000 0.000000
O O9 0.500000 0.524881 0.250000
O O10 0.630062 0.755478 0.221358
O O11 0.715745 0.472116 0.223735
O O12 0.108337 0.503698 0.709931
O O13 0.913074 0.473480 0.673199
#
# Coordination Sequence:
#
# PCOD9454610 Si02
#       6
#     8   8   8   8   8   8
#     4   9  15  31  54  78 105 139 185 228 265 317
#     4  10  20  37  60  84 109 143 190 231 286 329
#     4  11  19  33  53  80 115 151 186 227 274 331
#     4   9  18  33  59  82 103 139 191 231 264 332
#     4   9  18  36  56  78 112 147 179 237 280 322
#     4  10  19  36  54  79 117 145 187 227 278 333
#
# _framework density 20.770347999999998
#
# number of rings (size 3 to 8) (size 9 to 14) (size 15 to 20)
#    0.000    2.333    3.333    4.000    0.000    0.000 
#    6.000    9.167    0.000    0.000    0.000    0.000 
#    0.000    0.000    0.000    0.000    0.000    0.000 
#
# Total GULP energy -267394.054609 kJ/mol
# GULP energy per Si atom -5570.709471 kJ/mol
# Density = 2.072307 g / cm^3
# Si number density = 20.770348 Si / 1000 Ang^3
#
#
#
# Elastic Constant Matrix: (Units=GPa)
#
#
# Indices 1 2 3 4 5 6 
#
# 1 110.3114 17.4984 -1.7980 0.0000 0.0000 0.0000
# 2 17.4984 48.6630 -1.4576 0.0000 0.0000 0.0000
# 3 -1.7980 -1.4576 9.4030 0.0000 0.0000 0.0000
# 4 0.0000 0.0000 0.0000 13.4296 0.0000 0.0000
# 5 0.0000 0.0000 0.0000 0.0000 21.5104 0.0000
# 6 0.0000 0.0000 0.0000 0.0000 0.0000 18.6021
#
#
#
# Elastic Compliance Matrix: (Units=1/GPa)
#
#
# Indices 1 2 3 4 5 6 
#
# 1 0.009630 -0.003423 0.001311 0.000000 0.000000 0.000000
# 2 -0.003423 0.021862 0.002734 0.000000 0.000000 0.000000
# 3 0.001311 0.002734 0.107023 0.000000 0.000000 0.000000
# 4 0.000000 0.000000 0.000000 0.074463 0.000000 0.000000
# 5 0.000000 0.000000 0.000000 0.000000 0.046489 0.000000
# 6 0.000000 0.000000 0.000000 0.000000 0.000000 0.053757
#
#
# Mechanical properties :
#
#
# Convention : Reuss Voigt Hill
#
# Bulk Modulus (GPa) = 7.15519 21.87366 14.51443
# Shear Modulus (GPa) = 13.94438 20.98406 17.46422
#
# Velocity S-wave (km/s) = 2.59387 3.18195 2.90284
# Velocity P-wave (km/s) = 3.52467 4.90447 4.27066
#
# Compressibility (1/GPa) = 0.13975861
#
# Stress axis : x y z
#
# Youngs Moduli (GPa) = 103.84588 45.74069 9.34375
#
# Poissons Ratio (x) = 0.15659 -0.01225
# Poissons Ratio (y) = 0.35551 -0.02555
# Poissons Ratio (z) = -0.13611 -0.12507
#
# Static dielectric constant tensor:
#      x y z
#    x 1.792780 0.000000 0.000000 
#    y 0.000000 1.770250 0.000000 
#    z 0.000000 0.000000 1.803220 
# 
# From -- ./inp_files/24221.got.cif
#   From: 2010.05.17/outbox.cif.g08.bks.cpg/sg60_13_cif.got.tgz:24221.got - 2010.06.03 14:59:27.
