data_PCOD9454050
_publ_section_title
;
Structure prediction by ZEFSAII (Michael W. Deem and Ramdas Pophale) SiO2 
 PCOD9454050
Probable space group: P B C N
;
_chemical_formula_sum "Si O2"
_cell_formula_units_Z 56
_cell_length_a 14.880093
_cell_length_b 14.033042
_cell_length_c 13.387226
_cell_angle_alpha 90.000000
_cell_angle_beta 90.000000
_cell_angle_gamma 90.000000
_cell_volume 2795.426422
_symmetry_space_group_name_H-M "P B C N"
_symmetry_group_IT_number 60
_symmetry_cell_setting 'orthorhombic'
loop_
_space_group_symop_operation_xyz
x,y,z
1/2-x,1/2-y,1/2+z
1/2+x,1/2-y,-z
-x,y,1/2-z
-x,-y,-z
1/2+x,1/2+y,1/2-z
1/2-x,1/2+y,z
x,-y,1/2+z
loop_
_atom_site_type_symbol
_atom_site_label
_atom_site_fract_x
_atom_site_fract_y
_atom_site_fract_z
Si Si1 0.340524 0.750286 0.617055
Si Si2 0.296147 0.782350 0.300132
Si Si3 0.804459 0.101642 0.058833
Si Si4 0.042448 0.046967 0.880490
Si Si5 0.500000 0.242021 0.750000
Si Si6 0.572899 0.609054 0.407786
Si Si7 0.764585 0.409703 0.010505
Si Si8 0.500000 0.294170 0.250000
O O1 0.261629 0.729401 0.698723
O O2 0.332791 0.664156 0.537062
O O3 0.333496 0.847883 0.553854
O O4 0.434734 0.757102 0.674578
O O5 0.285651 0.680154 0.356593
O O6 0.403322 0.803188 0.281262
O O7 0.262245 0.860323 0.380434
O O8 0.880076 0.030586 0.103796
O O9 0.729692 0.023641 0.025346
O O10 0.064010 0.133502 0.809763
O O11 0.023718 0.096933 0.986516
O O12 0.953288 0.988293 0.850865
O O13 0.466370 0.306793 0.657291
O O14 0.674645 0.610253 0.444324
#
# Coordination Sequence:
#
# PCOD9454050 Si02
#       8
#     8   8   8   8   4   8   8   4
#     4  11  23  39  60  93 127 165 207 256 323 377
#     4  11  24  40  61  96 124 164 212 257 319 376
#     4  10  22  40  63  91 128 158 200 265 321 385
#     4  10  20  33  59  97 122 152 195 256 357 380
#     4  12  21  36  62  89 126 164 208 265 314 379
#     4  10  18  33  55  87 124 154 187 256 318 388
#     4  10  22  40  58  89 129 165 203 248 319 383
#     4  12  23  34  60  95 130 160 202 265 318 389
#
# _framework density 20.032722
#
# number of rings (size 3 to 8) (size 9 to 14) (size 15 to 20)
#    0.000    1.429    2.857    4.714    2.000    2.286 
#    0.000    0.000    0.000    5.143    0.000    0.000 
#    0.000    0.000    0.000    0.000    0.000    0.000 
#
# Total GULP energy -311798.087965 kJ/mol
# GULP energy per Si atom -5567.822999 kJ/mol
# Density = 1.998713 g / cm^3
# Si number density = 20.032722 Si / 1000 Ang^3
#
#
#
# Elastic Constant Matrix: (Units=GPa)
#
#
# Indices 1 2 3 4 5 6 
#
# 1 72.4532 29.8170 25.2082 0.0000 0.0000 0.0000
# 2 29.8170 82.4435 28.8928 0.0000 0.0000 0.0000
# 3 25.2082 28.8928 79.1362 0.0000 0.0000 0.0000
# 4 0.0000 0.0000 0.0000 24.7405 0.0000 0.0000
# 5 0.0000 0.0000 0.0000 0.0000 34.7104 0.0000
# 6 0.0000 0.0000 0.0000 0.0000 0.0000 23.4439
#
#
#
# Elastic Compliance Matrix: (Units=1/GPa)
#
#
# Indices 1 2 3 4 5 6 
#
# 1 0.017090 -0.004900 -0.003655 0.000000 0.000000 0.000000
# 2 -0.004900 0.015314 -0.004030 0.000000 0.000000 0.000000
# 3 -0.003655 -0.004030 0.015272 0.000000 0.000000 0.000000
# 4 0.000000 0.000000 0.000000 0.040419 0.000000 0.000000
# 5 0.000000 0.000000 0.000000 0.000000 0.028810 0.000000
# 6 0.000000 0.000000 0.000000 0.000000 0.000000 0.042655
#
#
# Mechanical properties :
#
#
# Convention : Reuss Voigt Hill
#
# Bulk Modulus (GPa) = 44.43289 44.65212 44.54251
# Shear Modulus (GPa) = 26.01004 26.58663 26.29834
#
# Velocity S-wave (km/s) = 3.60721 3.64697 3.62715
# Velocity P-wave (km/s) = 6.29107 6.33023 6.31068
#
# Compressibility (1/GPa) = 0.02250585
#
# Stress axis : x y z
#
# Youngs Moduli (GPa) = 58.51309 65.29898 65.47853
#
# Poissons Ratio (x) = 0.31997 0.23932
# Poissons Ratio (y) = 0.28672 0.26390
# Poissons Ratio (z) = 0.21386 0.26318
#
# Static dielectric constant tensor:
#      x y z
#    x 1.820450 0.000000 0.000000 
#    y 0.000000 1.734890 0.000000 
#    z 0.000000 0.000000 1.840750 
# 
# From -- ./inp_files/16995.got.cif
#   From: 2010.05.17/outbox.cif.g08.bks.cpg/sg60_9_cif.got.tgz:16995.got - 2010.06.03 14:59:27.
