data_PCOD9454333
_publ_section_title
;
Structure prediction by ZEFSAII (Michael W. Deem and Ramdas Pophale) SiO2 
 PCOD9454333
Probable space group: P B C N
;
_chemical_formula_sum "Si O2"
_cell_formula_units_Z 64
_cell_length_a 28.282301
_cell_length_b 17.173036
_cell_length_c 5.592979
_cell_angle_alpha 90.000000
_cell_angle_beta 90.000000
_cell_angle_gamma 90.000000
_cell_volume 2716.470600
_symmetry_space_group_name_H-M "P B C N"
_symmetry_group_IT_number 60
_symmetry_cell_setting 'orthorhombic'
loop_
_space_group_symop_operation_xyz
x,y,z
1/2-x,1/2-y,1/2+z
1/2+x,1/2-y,-z
-x,y,1/2-z
-x,-y,-z
1/2+x,1/2+y,1/2-z
1/2-x,1/2+y,z
x,-y,1/2+z
loop_
_atom_site_type_symbol
_atom_site_label
_atom_site_fract_x
_atom_site_fract_y
_atom_site_fract_z
Si Si1 0.551103 0.773005 0.799964
Si Si2 0.246033 0.970584 0.114054
Si Si3 0.878941 0.314451 0.421070
Si Si4 0.362367 0.524566 0.506661
Si Si5 0.633110 0.033451 0.130557
Si Si6 0.949222 0.421632 0.120012
Si Si7 0.766963 0.787945 0.290814
Si Si8 0.138873 0.203916 0.461268
O O1 0.500000 0.739493 0.750000
O O2 0.580286 0.769177 0.556669
O O3 0.544396 0.861965 0.896799
O O4 0.585454 0.728683 0.980524
O O5 0.191703 0.999386 0.068577
O O6 0.246340 0.879349 0.182428
O O7 0.265167 0.983661 0.845755
O O8 0.857616 0.374748 0.610735
O O9 0.907496 0.374280 0.252952
O O10 0.847322 0.259029 0.260764
O O11 0.383675 0.521271 0.777691
O O12 0.360126 0.612941 0.413646
O O13 0.650679 0.005129 0.386392
O O14 0.577018 0.005346 0.104776
O O15 0.000000 0.427719 0.250000
O O16 0.752130 0.754921 0.032201
O O17 0.824031 0.782905 0.325227
#
# Coordination Sequence:
#
# PCOD9454333 Si02
#       8
#     8   8   8   8   8   8   8   8
#     4  11  21  37  60  88 125 173 221 270 327 391
#     4   9  17  34  62  94 131 160 206 267 321 379
#     4  10  21  35  55  81 122 161 206 259 327 369
#     4   9  19  36  62  96 123 154 200 259 322 383
#     4  10  20  33  50  77 112 159 214 274 315 355
#     4  10  19  32  50  81 116 162 226 282 316 349
#     4  11  24  42  68 103 134 170 220 269 332 403
#     4  10  25  39  65  97 130 170 206 271 332 394
#
# _framework density 23.559981000000001
#
# number of rings (size 3 to 8) (size 9 to 14) (size 15 to 20)
#    0.000    2.000    2.500    0.750    3.500    4.500 
#    0.000    0.000    0.000   14.250    0.000    0.000 
#    0.000    0.000    0.000    0.000    0.000    0.000 
#
# Total GULP energy -357002.022834 kJ/mol
# GULP energy per Si atom -5578.156607 kJ/mol
# Density = 2.350636 g / cm^3
# Si number density = 23.559981 Si / 1000 Ang^3
#
#
#
# Elastic Constant Matrix: (Units=GPa)
#
#
# Indices 1 2 3 4 5 6 
#
# 1 81.4352 15.9230 26.7610 0.0000 0.0000 0.0000
# 2 15.9230 96.8704 33.5852 0.0000 0.0000 0.0000
# 3 26.7610 33.5852 134.1593 0.0000 0.0000 0.0000
# 4 0.0000 0.0000 0.0000 47.8355 0.0000 0.0000
# 5 0.0000 0.0000 0.0000 0.0000 45.0218 0.0000
# 6 0.0000 0.0000 0.0000 0.0000 0.0000 20.9343
#
#
#
# Elastic Compliance Matrix: (Units=1/GPa)
#
#
# Indices 1 2 3 4 5 6 
#
# 1 0.013309 -0.001388 -0.002307 0.000000 0.000000 0.000000
# 2 -0.001388 0.011449 -0.002589 0.000000 0.000000 0.000000
# 3 -0.002307 -0.002589 0.008562 0.000000 0.000000 0.000000
# 4 0.000000 0.000000 0.000000 0.020905 0.000000 0.000000
# 5 0.000000 0.000000 0.000000 0.000000 0.022211 0.000000
# 6 0.000000 0.000000 0.000000 0.000000 0.000000 0.047768
#
#
# Mechanical properties :
#
#
# Convention : Reuss Voigt Hill
#
# Bulk Modulus (GPa) = 48.18899 51.66701 49.92800
# Shear Modulus (GPa) = 34.79680 38.50473 36.65076
#
# Velocity S-wave (km/s) = 3.84727 4.04707 3.94843
# Velocity P-wave (km/s) = 6.34299 6.61936 6.48265
#
# Compressibility (1/GPa) = 0.02075163
#
# Stress axis : x y z
#
# Youngs Moduli (GPa) = 75.13537 87.34472 116.79124
#
# Poissons Ratio (x) = 0.12121 0.26949
# Poissons Ratio (y) = 0.10427 0.30241
# Poissons Ratio (z) = 0.17337 0.22616
#
# Static dielectric constant tensor:
#      x y z
#    x 2.073440 0.000000 0.000000 
#    y 0.000000 1.890340 0.000000 
#    z 0.000000 0.000000 2.058910 
# 
# From -- ./inp_files/2742.got.cif
#   From: 2010.05.17/outbox.cif.g08.bks.cpg/sg60_2_cif.got.tgz:2742.got - 2010.06.03 14:59:27.
