data_PCOD9454672
_publ_section_title
;
Structure prediction by ZEFSAII (Michael W. Deem and Ramdas Pophale) SiO2 
 PCOD9454672
Probable space group: P B C N
;
_chemical_formula_sum "Si O2"
_cell_formula_units_Z 64
_cell_length_a 20.389729
_cell_length_b 8.747118
_cell_length_c 18.634333
_cell_angle_alpha 90.000000
_cell_angle_beta 90.000000
_cell_angle_gamma 90.000000
_cell_volume 3323.458737
_symmetry_space_group_name_H-M "P B C N"
_symmetry_group_IT_number 60
_symmetry_cell_setting 'orthorhombic'
loop_
_space_group_symop_operation_xyz
x,y,z
1/2-x,1/2-y,1/2+z
1/2+x,1/2-y,-z
-x,y,1/2-z
-x,-y,-z
1/2+x,1/2+y,1/2-z
1/2-x,1/2+y,z
x,-y,1/2+z
loop_
_atom_site_type_symbol
_atom_site_label
_atom_site_fract_x
_atom_site_fract_y
_atom_site_fract_z
Si Si1 0.173858 0.487356 0.996205
Si Si2 0.587142 0.154909 0.400015
Si Si3 0.159774 0.684897 0.252144
Si Si4 0.887714 0.696312 0.629313
Si Si5 0.697023 0.634140 0.536054
Si Si6 0.071830 0.927877 0.987465
Si Si7 0.539332 0.083897 0.177133
Si Si8 0.237949 0.609776 0.808399
O O1 0.123190 0.514911 0.060329
O O2 0.140186 0.577918 0.930502
O O3 0.242778 0.571215 0.011993
O O4 0.188900 0.314709 0.974452
O O5 0.624288 0.173540 0.324275
O O6 0.589370 0.304871 0.450212
O O7 0.510520 0.121138 0.386136
O O8 0.103221 0.689670 0.313519
O O9 0.209136 0.824629 0.254203
O O10 0.202278 0.537893 0.276363
O O11 0.921431 0.833799 0.587350
O O12 0.937405 0.591410 0.673344
O O13 0.821970 0.728601 0.674731
O O14 0.629303 0.552681 0.516785
O O15 0.722729 0.592793 0.616351
O O16 0.000000 0.000000 0.000000
O O17 0.500000 0.106332 0.250000
#
# Coordination Sequence:
#
# PCOD9454672 Si02
#       8
#     8   8   8   8   8   8   8   8
#     4  10  21  35  63  86 120 157 190 258 301 356
#     4  10  23  40  56  88 121 159 201 241 313 370
#     4  10  21  37  61  86 115 156 198 253 295 360
#     4   9  19  37  59  87 115 148 204 248 289 361
#     4  11  21  38  58  92 119 149 201 251 306 354
#     4  11  25  36  58  88 123 159 198 253 303 367
#     4   9  19  36  61  82 117 158 201 245 293 362
#     4  10  19  36  64  88 108 155 200 247 297 357
#
# _framework density 19.257047
#
# number of rings (size 3 to 8) (size 9 to 14) (size 15 to 20)
#    0.000    2.000    0.000    5.250    5.250    3.000 
#    0.000    0.000    5.500    0.000    0.000    0.000 
#    0.000    0.000    0.000    0.000    0.000    0.000 
#
# Total GULP energy -356872.307949 kJ/mol
# GULP energy per Si atom -5576.129812 kJ/mol
# Density = 1.921322 g / cm^3
# Si number density = 19.257047 Si / 1000 Ang^3
#
#
#
# Elastic Constant Matrix: (Units=GPa)
#
#
# Indices 1 2 3 4 5 6 
#
# 1 110.1329 39.9793 14.7823 0.0000 0.0000 0.0000
# 2 39.9793 73.2196 -0.4719 0.0000 0.0000 0.0000
# 3 14.7823 -0.4719 35.8769 0.0000 0.0000 0.0000
# 4 0.0000 0.0000 0.0000 16.0029 0.0000 0.0000
# 5 0.0000 0.0000 0.0000 0.0000 29.8688 0.0000
# 6 0.0000 0.0000 0.0000 0.0000 0.0000 34.8329
#
#
#
# Elastic Compliance Matrix: (Units=1/GPa)
#
#
# Indices 1 2 3 4 5 6 
#
# 1 0.012195 -0.006692 -0.005113 0.000000 0.000000 0.000000
# 2 -0.006692 0.017331 0.002985 0.000000 0.000000 0.000000
# 3 -0.005113 0.002985 0.030019 0.000000 0.000000 0.000000
# 4 0.000000 0.000000 0.000000 0.062489 0.000000 0.000000
# 5 0.000000 0.000000 0.000000 0.000000 0.033480 0.000000
# 6 0.000000 0.000000 0.000000 0.000000 0.000000 0.028708
#
#
# Mechanical properties :
#
#
# Convention : Reuss Voigt Hill
#
# Bulk Modulus (GPa) = 23.86295 36.42319 30.14307
# Shear Modulus (GPa) = 23.16642 27.13690 25.15166
#
# Velocity S-wave (km/s) = 3.47221 3.75799 3.61792
# Velocity P-wave (km/s) = 5.33794 6.14698 5.75669
#
# Compressibility (1/GPa) = 0.04190597
#
# Stress axis : x y z
#
# Youngs Moduli (GPa) = 81.99799 57.70119 33.31224
#
# Poissons Ratio (x) = 0.38613 0.17032
# Poissons Ratio (y) = 0.54872 -0.09944
# Poissons Ratio (z) = 0.41925 -0.17225
#
# Static dielectric constant tensor:
#      x y z
#    x 1.704260 0.000000 0.000000 
#    y 0.000000 1.665550 0.000000 
#    z 0.000000 0.000000 1.702470 
# 
# From -- ./inp_files/23094.got.cif
#   From: 2010.05.17/outbox.cif.g08.bks.cpg/sg60_12_cif.got.tgz:23094.got - 2010.06.03 14:59:27.
