data_PCOD9454326
_publ_section_title
;
Structure prediction by ZEFSAII (Michael W. Deem and Ramdas Pophale) SiO2 
 PCOD9454326
Probable space group: P B C N
;
_chemical_formula_sum "Si O2"
_cell_formula_units_Z 56
_cell_length_a 25.350690
_cell_length_b 5.516049
_cell_length_c 21.717205
_cell_angle_alpha 90.000000
_cell_angle_beta 90.000000
_cell_angle_gamma 90.000000
_cell_volume 3036.839439
_symmetry_space_group_name_H-M "P B C N"
_symmetry_group_IT_number 60
_symmetry_cell_setting 'orthorhombic'
loop_
_space_group_symop_operation_xyz
x,y,z
1/2-x,1/2-y,1/2+z
1/2+x,1/2-y,-z
-x,y,1/2-z
-x,-y,-z
1/2+x,1/2+y,1/2-z
1/2-x,1/2+y,z
x,-y,1/2+z
loop_
_atom_site_type_symbol
_atom_site_label
_atom_site_fract_x
_atom_site_fract_y
_atom_site_fract_z
Si Si1 0.003606 0.297788 0.822821
Si Si2 0.723143 0.862794 0.894950
Si Si3 0.235495 0.890846 0.464703
Si Si4 0.385250 0.472088 0.973550
Si Si5 0.601127 0.174853 0.400707
Si Si6 0.041946 0.812938 0.879474
Si Si7 0.459639 0.804538 0.026506
O O1 0.944908 0.262618 0.852518
O O2 0.000000 0.330307 0.750000
O O3 0.027622 0.550072 0.850646
O O4 0.035907 0.049275 0.836535
O O5 0.746536 0.120457 0.873386
O O6 0.661534 0.836840 0.879553
O O7 0.732772 0.870441 0.969826
O O8 0.256623 0.133041 0.432831
O O9 0.173991 0.936824 0.475430
O O10 0.402286 0.310109 0.915597
O O11 0.398256 0.343445 0.038380
O O12 0.425531 0.695494 0.972113
O O13 0.583141 0.916197 0.427327
O O14 0.997915 0.858567 0.932777
O O15 0.500000 0.000000 0.000000
#
# Coordination Sequence:
#
# PCOD9454326 Si02
#       7
#     8   8   8   8   8   8   8
#     4  11  25  43  57  79 112 155 206 245 281 333
#     4  10  19  32  47  78 116 142 180 218 277 354
#     4  10  20  31  48  75 120 147 175 215 272 361
#     4  12  20  32  55  86 119 145 182 228 301 353
#     4  11  21  32  57  80 117 155 179 235 292 345
#     4  11  23  36  58  83 111 150 186 235 280 356
#     4  11  20  31  48  83 121 147 181 222 283 360
#
# _framework density 18.440225000000002
#
# number of rings (size 3 to 8) (size 9 to 14) (size 15 to 20)
#    0.000    1.143    5.714    4.286    0.000    0.000 
#    0.000    0.000    0.000    0.000    0.000    6.000 
#    0.000    0.000    0.000    0.000    0.000    0.000 
#
# Total GULP energy -312054.168364 kJ/mol
# GULP energy per Si atom -5572.395864 kJ/mol
# Density = 1.839825 g / cm^3
# Si number density = 18.440225 Si / 1000 Ang^3
#
#
#
# Elastic Constant Matrix: (Units=GPa)
#
#
# Indices 1 2 3 4 5 6 
#
# 1 87.4741 43.2549 23.4361 0.0000 0.0000 0.0000
# 2 43.2549 115.0507 21.4748 0.0000 0.0000 0.0000
# 3 23.4361 21.4748 63.1811 0.0000 0.0000 0.0000
# 4 0.0000 0.0000 0.0000 19.9311 0.0000 0.0000
# 5 0.0000 0.0000 0.0000 0.0000 9.7792 0.0000
# 6 0.0000 0.0000 0.0000 0.0000 0.0000 27.1967
#
#
#
# Elastic Compliance Matrix: (Units=1/GPa)
#
#
# Indices 1 2 3 4 5 6 
#
# 1 0.014876 -0.004872 -0.003862 0.000000 0.000000 0.000000
# 2 -0.004872 0.010876 -0.001890 0.000000 0.000000 0.000000
# 3 -0.003862 -0.001890 0.017902 0.000000 0.000000 0.000000
# 4 0.000000 0.000000 0.000000 0.050173 0.000000 0.000000
# 5 0.000000 0.000000 0.000000 0.000000 0.102258 0.000000
# 6 0.000000 0.000000 0.000000 0.000000 0.000000 0.036769
#
#
# Mechanical properties :
#
#
# Convention : Reuss Voigt Hill
#
# Bulk Modulus (GPa) = 44.62832 49.11527 46.87180
# Shear Modulus (GPa) = 19.11528 23.21739 21.16634
#
# Velocity S-wave (km/s) = 3.22313 3.55218 3.39165
# Velocity P-wave (km/s) = 6.17297 6.59671 6.38836
#
# Compressibility (1/GPa) = 0.02240730
#
# Stress axis : x y z
#
# Youngs Moduli (GPa) = 67.22349 91.94414 55.85860
#
# Poissons Ratio (x) = 0.44794 0.21573
# Poissons Ratio (y) = 0.32750 0.10555
# Poissons Ratio (z) = 0.25962 0.17374
#
# Static dielectric constant tensor:
#      x y z
#    x 1.652190 0.000000 0.000000 
#    y 0.000000 1.784310 0.000000 
#    z 0.000000 0.000000 1.630970 
# 
# From -- ./inp_files/23272.got.cif
#   From: 2010.05.17/outbox.cif.g08.bks.cpg/sg60_12_cif.got.tgz:23272.got - 2010.06.03 14:59:27.
