data_PCOD9454426
_publ_section_title
;
Structure prediction by ZEFSAII (Michael W. Deem and Ramdas Pophale) SiO2 
 PCOD9454426
Probable space group: P B C N
;
_chemical_formula_sum "Si O2"
_cell_formula_units_Z 64
_cell_length_a 8.559683
_cell_length_b 24.347126
_cell_length_c 15.873543
_cell_angle_alpha 90.000000
_cell_angle_beta 90.000000
_cell_angle_gamma 90.000000
_cell_volume 3308.104784
_symmetry_space_group_name_H-M "P B C N"
_symmetry_group_IT_number 60
_symmetry_cell_setting 'orthorhombic'
loop_
_space_group_symop_operation_xyz
x,y,z
1/2-x,1/2-y,1/2+z
1/2+x,1/2-y,-z
-x,y,1/2-z
-x,-y,-z
1/2+x,1/2+y,1/2-z
1/2-x,1/2+y,z
x,-y,1/2+z
loop_
_atom_site_type_symbol
_atom_site_label
_atom_site_fract_x
_atom_site_fract_y
_atom_site_fract_z
Si Si1 0.188209 0.360080 0.414529
Si Si2 0.810962 0.426432 0.250000
Si Si3 0.811876 0.250911 0.847224
Si Si4 0.189058 0.374668 0.898342
Si Si5 0.688209 0.139920 0.914529
Si Si6 0.185275 0.049528 0.250000
Si Si7 0.188124 0.250911 0.847224
Si Si8 0.810942 0.374668 0.898342
O O1 0.243935 0.394760 0.334013
O O2 0.242310 0.297448 0.403286
O O3 0.237517 0.383699 0.504903
O O4 0.000000 0.360407 0.413777
O O5 0.756065 0.394760 0.334013
O O6 0.757205 0.488943 0.250000
O O7 0.000000 0.425026 0.250000
O O8 0.742310 0.202552 0.903286
O O9 0.763897 0.241807 0.750000
O O10 0.766028 0.312256 0.874057
O O11 0.000000 0.248104 0.851386
O O12 0.258791 0.416776 0.831829
O O13 0.233972 0.312256 0.874057
O O14 0.000000 0.378062 0.892736
O O15 0.237517 0.383699 0.995097
O O16 0.241209 0.083224 0.168171
O O17 0.000000 0.045687 0.250000
#
# Coordination Sequence:
#
# PCOD9454426 Si02
#       8
#     8   8   8   8   8   8   8   8
#     4  10  21  37  62  90 117 154 196 238 283 339
#     4  10  22  41  60  83 115 152 196 242 289 342
#     4  10  19  33  57  87 122 160 188 227 291 344
#     4  10  21  40  62  86 119 157 193 233 289 350
#     4  10  21  37  62  90 117 154 196 238 283 339
#     4  12  26  41  60  85 111 150 198 248 297 340
#     4  10  19  33  57  87 122 160 188 227 291 344
#     4  10  21  40  62  86 119 157 193 233 289 350
#
# _framework density 19.346425
#
# number of rings (size 3 to 8) (size 9 to 14) (size 15 to 20)
#    0.000    1.750    2.500    1.875    0.000    4.000 
#    0.000    5.000    0.000    0.000    0.000    0.000 
#    0.000    0.000    0.000    0.000    0.000    0.000 
#
# Total GULP energy -357597.157288 kJ/mol
# GULP energy per Si atom -5587.455583 kJ/mol
# Density = 1.930239 g / cm^3
# Si number density = 19.346425 Si / 1000 Ang^3
#
#
#
# Elastic Constant Matrix: (Units=GPa)
#
#
# Indices 1 2 3 4 5 6 
#
# 1 2.3240 7.7272 17.3131 0.0000 0.0000 0.0000
# 2 7.7272 109.5942 35.2439 0.0000 0.0000 0.0000
# 3 17.3131 35.2439 117.2663 0.0000 0.0000 0.0000
# 4 0.0000 0.0000 0.0000 4.3598 0.0000 0.0000
# 5 0.0000 0.0000 0.0000 0.0000 16.1177 0.0000
# 6 0.0000 0.0000 0.0000 0.0000 0.0000 30.4556
#
#
#
# Elastic Compliance Matrix: (Units=1/GPa)
#
#
# Indices 1 2 3 4 5 6 
#
# 1 -3.373514 0.086001 0.472215 0.000000 0.000000 0.000000
# 2 0.086001 0.007908 -0.015074 0.000000 0.000000 0.000000
# 3 0.472215 -0.015074 -0.056659 0.000000 0.000000 0.000000
# 4 0.000000 0.000000 0.000000 0.229370 0.000000 0.000000
# 5 0.000000 0.000000 0.000000 0.000000 0.062044 0.000000
# 6 0.000000 0.000000 0.000000 0.000000 0.000000 0.032835
#
#
# Mechanical properties :
#
#
# Convention : Reuss Voigt Hill
#
# Bulk Modulus (GPa) = -0.42809 38.86144 19.21668
# Shear Modulus (GPa) = -1.00746 21.44664 10.21959
#
# Velocity S-wave (km/s) = -0.72241 3.33311 2.30084
# Velocity P-wave (km/s) = 0.95791 5.91131 4.12468
#
# Compressibility (1/GPa) = -2.33597911
#
# Stress axis : x y z
#
# Youngs Moduli (GPa) = -0.29643 126.44799 -17.64930
#
# Poissons Ratio (x) = -10.87469 8.33427
# Poissons Ratio (y) = 0.02549 -0.26605
# Poissons Ratio (z) = 0.13998 1.90608
#
# Static dielectric constant tensor:
#      x y z
#    x 1.653830 0.000000 0.000000 
#    y 0.000000 1.626610 0.000000 
#    z 0.000000 0.000000 1.694270 
# 
# From -- ./inp_files/15413.got.cif
#   From: 2010.05.17/outbox.cif.g08.bks.cpg/sg60_8_cif.got.tgz:15413.got - 2010.06.03 14:59:27.
