data_PCOD9454514
_publ_section_title
;
Structure prediction by ZEFSAII (Michael W. Deem and Ramdas Pophale) SiO2 
 PCOD9454514
Probable space group: P B C N
;
_chemical_formula_sum "Si O2"
_cell_formula_units_Z 64
_cell_length_a 8.641744
_cell_length_b 15.620245
_cell_length_c 21.233956
_cell_angle_alpha 90.000000
_cell_angle_beta 90.000000
_cell_angle_gamma 90.000000
_cell_volume 2866.290150
_symmetry_space_group_name_H-M "P B C N"
_symmetry_group_IT_number 60
_symmetry_cell_setting 'orthorhombic'
loop_
_space_group_symop_operation_xyz
x,y,z
1/2-x,1/2-y,1/2+z
1/2+x,1/2-y,-z
-x,y,1/2-z
-x,-y,-z
1/2+x,1/2+y,1/2-z
1/2-x,1/2+y,z
x,-y,1/2+z
loop_
_atom_site_type_symbol
_atom_site_label
_atom_site_fract_x
_atom_site_fract_y
_atom_site_fract_z
Si Si1 0.077176 0.826223 0.314555
Si Si2 0.643520 0.920027 0.564289
Si Si3 0.041395 0.345672 0.451744
Si Si4 0.952655 0.150234 0.055067
Si Si5 0.637462 0.413607 0.057385
Si Si6 0.947056 0.634169 0.319115
Si Si7 0.080242 0.140343 0.186275
Si Si8 0.555043 0.168038 0.687668
O O1 0.066253 0.886290 0.375621
O O2 0.262033 0.814065 0.306241
O O3 0.000000 0.859919 0.250000
O O4 0.998272 0.734017 0.326428
O O5 0.545617 0.904579 0.501328
O O6 0.532149 0.914830 0.624366
O O7 0.769202 0.843957 0.565572
O O8 0.758922 0.000834 0.562537
O O9 0.225053 0.348830 0.463116
O O10 0.021138 0.374466 0.379246
O O11 0.989117 0.247164 0.455082
O O12 0.015121 0.109293 0.119605
O O13 0.007346 0.095613 0.995534
O O14 0.762700 0.628811 0.317249
O O15 0.000000 0.605936 0.250000
O O16 0.000000 0.105040 0.250000
O O17 0.035268 0.241436 0.186493
O O18 0.500000 0.119806 0.750000
#
# Coordination Sequence:
#
# PCOD9454514 Si02
#       8
#     8   8   8   8   8   8   8   8
#     4  10  20  37  63  91 122 164 218 272 325 398
#     4  12  24  40  60  91 133 172 214 274 342 402
#     4  10  21  38  63  87 118 165 218 270 323 396
#     4  11  22  39  62  89 119 166 221 269 324 399
#     4  11  24  41  59  91 132 170 213 272 341 400
#     4  11  21  37  64  92 122 166 219 274 328 395
#     4  10  19  34  59  92 123 153 203 271 329 378
#     4   9  17  32  55  89 121 150 200 268 327 378
#
# _framework density 22.328513999999998
#
# number of rings (size 3 to 8) (size 9 to 14) (size 15 to 20)
#    0.000    1.500    0.000    9.000    0.000    4.000 
#    0.000    4.375    0.000    1.500    0.000    0.000 
#    0.000    0.000    0.000    0.000    0.000    0.000 
#
# Total GULP energy -357466.875795 kJ/mol
# GULP energy per Si atom -5585.419934 kJ/mol
# Density = 2.227769 g / cm^3
# Si number density = 22.328514 Si / 1000 Ang^3
#
#
#
# Elastic Constant Matrix: (Units=GPa)
#
#
# Indices 1 2 3 4 5 6 
#
# 1 151.4782 24.1971 105.6573 0.0000 0.0000 0.0000
# 2 24.1971 75.3221 35.5725 0.0000 0.0000 0.0000
# 3 105.6573 35.5725 189.4027 0.0000 0.0000 0.0000
# 4 0.0000 0.0000 0.0000 7.3299 0.0000 0.0000
# 5 0.0000 0.0000 0.0000 0.0000 52.5914 0.0000
# 6 0.0000 0.0000 0.0000 0.0000 0.0000 31.5701
#
#
#
# Elastic Compliance Matrix: (Units=1/GPa)
#
#
# Indices 1 2 3 4 5 6 
#
# 1 0.010839 -0.000687 -0.005917 0.000000 0.000000 0.000000
# 2 -0.000687 0.014612 -0.002361 0.000000 0.000000 0.000000
# 3 -0.005917 -0.002361 0.009024 0.000000 0.000000 0.000000
# 4 0.000000 0.000000 0.000000 0.136427 0.000000 0.000000
# 5 0.000000 0.000000 0.000000 0.000000 0.019015 0.000000
# 6 0.000000 0.000000 0.000000 0.000000 0.000000 0.031676
#
#
# Mechanical properties :
#
#
# Convention : Reuss Voigt Hill
#
# Bulk Modulus (GPa) = 60.44530 83.00631 71.72581
# Shear Modulus (GPa) = 20.40504 35.01668 27.71086
#
# Velocity S-wave (km/s) = 3.02628 3.96441 3.52668
# Velocity P-wave (km/s) = 6.27223 7.62962 6.98398
#
# Compressibility (1/GPa) = 0.01654388
#
# Stress axis : x y z
#
# Youngs Moduli (GPa) = 92.26173 68.43625 110.81480
#
# Poissons Ratio (x) = 0.04704 0.65572
# Poissons Ratio (y) = 0.06342 0.26162
# Poissons Ratio (z) = 0.54593 0.16157
#
# Static dielectric constant tensor:
#      x y z
#    x 1.878790 0.000000 0.000000 
#    y 0.000000 1.893300 0.000000 
#    z 0.000000 0.000000 1.863400 
# 
# From -- ./inp_files/22361.got.cif
#   From: 2010.05.17/outbox.cif.g08.bks.cpg/sg60_12_cif.got.tgz:22361.got - 2010.06.03 14:59:27.
