data_PCOD9454802
_publ_section_title
;
Structure prediction by ZEFSAII (Michael W. Deem and Ramdas Pophale) SiO2 
 PCOD9454802
Probable space group: P B C N
;
_chemical_formula_sum "Si O2"
_cell_formula_units_Z 48
_cell_length_a 8.377770
_cell_length_b 29.435724
_cell_length_c 9.289688
_cell_angle_alpha 90.000000
_cell_angle_beta 90.000000
_cell_angle_gamma 90.000000
_cell_volume 2290.890248
_symmetry_space_group_name_H-M "P B C N"
_symmetry_group_IT_number 60
_symmetry_cell_setting 'orthorhombic'
loop_
_space_group_symop_operation_xyz
x,y,z
1/2-x,1/2-y,1/2+z
1/2+x,1/2-y,-z
-x,y,1/2-z
-x,-y,-z
1/2+x,1/2+y,1/2-z
1/2-x,1/2+y,z
x,-y,1/2+z
loop_
_atom_site_type_symbol
_atom_site_label
_atom_site_fract_x
_atom_site_fract_y
_atom_site_fract_z
Si Si1 0.082092 0.063173 0.608832
Si Si2 0.176760 0.720481 0.684365
Si Si3 0.320801 0.693018 0.984146
Si Si4 0.646352 0.464553 0.860768
Si Si5 0.674425 0.125981 0.315776
Si Si6 0.674911 0.346367 0.530054
O O1 0.173206 0.102011 0.525360
O O2 0.000000 0.083238 0.750000
O O3 0.932917 0.046392 0.513699
O O4 0.184647 0.018086 0.642948
O O5 0.212562 0.766202 0.595807
O O6 0.199631 0.681543 0.564604
O O7 0.000000 0.722937 0.750000
O O8 0.287842 0.709936 0.822252
O O9 0.207632 0.651471 0.034204
O O10 0.502354 0.675948 0.001742
O O11 0.500000 0.458074 0.750000
O O12 0.777695 0.426874 0.828650
O O13 0.500000 0.130900 0.250000
O O14 0.788988 0.150339 0.198651
#
# Coordination Sequence:
#
# PCOD9454802 Si02
#       6
#     8   8   8   8   8   8
#     4  10  20  36  68  97 124 163 222 263 305 387
#     4  12  26  42  64  98 130 163 212 275 328 378
#     4  12  24  44  68  91 126 173 218 259 321 398
#     4  10  19  39  66  94 125 169 218 262 316 387
#     4  12  24  41  64  93 130 168 215 275 333 377
#     4  12  24  44  67  95 127 177 223 262 321 396
#
# _framework density 20.952553000000002
#
# number of rings (size 3 to 8) (size 9 to 14) (size 15 to 20)
#    0.000    0.667    3.333    6.000    0.000    1.333 
#    0.000    1.667    0.000    0.000    0.000    0.000 
#    0.000    0.000    0.000    0.000    0.000    0.000 
#
# Total GULP energy -268355.152177 kJ/mol
# GULP energy per Si atom -5590.732337 kJ/mol
# Density = 2.090486 g / cm^3
# Si number density = 20.952553 Si / 1000 Ang^3
#
#
#
# Elastic Constant Matrix: (Units=GPa)
#
#
# Indices 1 2 3 4 5 6 
#
# 1 39.0099 5.7168 -9.8612 0.0000 0.0000 0.0000
# 2 5.7168 113.0406 11.2717 0.0000 0.0000 0.0000
# 3 -9.8612 11.2717 84.4450 0.0000 0.0000 0.0000
# 4 0.0000 0.0000 0.0000 32.9328 0.0000 0.0000
# 5 0.0000 0.0000 0.0000 0.0000 24.2051 0.0000
# 6 0.0000 0.0000 0.0000 0.0000 0.0000 8.8062
#
#
#
# Elastic Compliance Matrix: (Units=1/GPa)
#
#
# Indices 1 2 3 4 5 6 
#
# 1 0.026727 -0.001685 0.003346 0.000000 0.000000 0.000000
# 2 -0.001685 0.009072 -0.001408 0.000000 0.000000 0.000000
# 3 0.003346 -0.001408 0.012421 0.000000 0.000000 0.000000
# 4 0.000000 0.000000 0.000000 0.030365 0.000000 0.000000
# 5 0.000000 0.000000 0.000000 0.000000 0.041314 0.000000
# 6 0.000000 0.000000 0.000000 0.000000 0.000000 0.113557
#
#
# Mechanical properties :
#
#
# Convention : Reuss Voigt Hill
#
# Bulk Modulus (GPa) = 20.52291 27.86114 24.19202
# Shear Modulus (GPa) = 20.06490 28.48002 24.27246
#
# Velocity S-wave (km/s) = 3.09793 3.69082 3.40729
# Velocity P-wave (km/s) = 4.75525 5.61150 5.20103
#
# Compressibility (1/GPa) = 0.04872603
#
# Stress axis : x y z
#
# Youngs Moduli (GPa) = 37.41486 110.22953 80.51087
#
# Poissons Ratio (x) = 0.18577 -0.26940
# Poissons Ratio (y) = 0.06306 0.11334
# Poissons Ratio (z) = -0.12519 0.15517
#
# Static dielectric constant tensor:
#      x y z
#    x 1.731550 0.000000 0.000000 
#    y 0.000000 1.777230 0.000000 
#    z 0.000000 0.000000 1.843560 
# 
# From -- ./inp_files/4236.got.cif
#   From: 2010.05.17/outbox.cif.g08.bks.cpg/sg60_3_cif.got.tgz:4236.got - 2010.06.03 14:59:27.
