data_PCOD9454070
_publ_section_title
;
Structure prediction by ZEFSAII (Michael W. Deem and Ramdas Pophale) SiO2 
 PCOD9454070
Probable space group: P B C N
;
_chemical_formula_sum "Si O2"
_cell_formula_units_Z 60
_cell_length_a 5.264920
_cell_length_b 31.786415
_cell_length_c 18.153003
_cell_angle_alpha 90.000000
_cell_angle_beta 90.000000
_cell_angle_gamma 90.000000
_cell_volume 3037.958278
_symmetry_space_group_name_H-M "P B C N"
_symmetry_group_IT_number 60
_symmetry_cell_setting 'orthorhombic'
loop_
_space_group_symop_operation_xyz
x,y,z
1/2-x,1/2-y,1/2+z
1/2+x,1/2-y,-z
-x,y,1/2-z
-x,-y,-z
1/2+x,1/2+y,1/2-z
1/2-x,1/2+y,z
x,-y,1/2+z
loop_
_atom_site_type_symbol
_atom_site_label
_atom_site_fract_x
_atom_site_fract_y
_atom_site_fract_z
Si Si1 0.588384 0.497583 0.617251
Si Si2 0.000000 0.195107 0.750000
Si Si3 0.585819 0.429380 0.991184
Si Si4 0.587585 0.104941 0.949689
Si Si5 0.571405 0.723769 0.484274
Si Si6 0.603844 0.257707 0.825717
Si Si7 0.792344 0.678962 0.617114
Si Si8 0.412085 0.967897 0.172188
O O1 0.498791 0.454013 0.581584
O O2 0.593295 0.533400 0.552982
O O3 0.366591 0.512357 0.671751
O O4 0.871106 0.498431 0.649416
O O5 0.834127 0.227472 0.799917
O O6 0.857487 0.165756 0.690576
O O7 0.361473 0.397622 0.013291
O O8 0.859748 0.407515 0.994421
O O9 0.510021 0.147520 0.908727
O O10 0.586607 0.068567 0.888183
O O11 0.284867 0.740365 0.497146
O O12 0.631765 0.713686 0.398320
O O13 0.626491 0.688582 0.545102
O O14 0.500000 0.277878 0.750000
O O15 0.404194 0.223189 0.854955
O O16 0.500000 0.950376 0.250000
#
# Coordination Sequence:
#
# PCOD9454070 Si02
#       8
#     8   4   8   8   8   8   8   8
#     4   9  17  32  51  69  95 131 169 219 251 287
#     4  10  18  34  50  72 108 144 180 210 268 330
#     4   9  18  33  51  70  94 130 176 213 251 291
#     4  10  21  32  48  74 106 141 169 205 252 325
#     4  10  19  34  54  75 103 137 184 232 263 301
#     4   9  19  33  52  77 103 141 180 228 269 321
#     4  10  21  33  51  76 111 146 181 215 267 325
#     4  10  19  31  47  74 106 131 170 207 257 315
#
# _framework density 19.750105999999999
#
# number of rings (size 3 to 8) (size 9 to 14) (size 15 to 20)
#    0.000    2.400    1.333    1.200    1.867    4.800 
#    4.800    0.000    0.000    0.000    0.000    3.733 
#    2.000    0.000    0.000    0.000    0.000    0.000 
#
# Total GULP energy -334271.133473 kJ/mol
# GULP energy per Si atom -5571.185558 kJ/mol
# Density = 1.970515 g / cm^3
# Si number density = 19.750106 Si / 1000 Ang^3
#
#
#
# Elastic Constant Matrix: (Units=GPa)
#
#
# Indices 1 2 3 4 5 6 
#
# 1 58.9326 8.6758 11.9744 0.0000 0.0000 0.0000
# 2 8.6758 27.6656 15.2388 0.0000 0.0000 0.0000
# 3 11.9744 15.2388 74.9879 0.0000 0.0000 0.0000
# 4 0.0000 0.0000 0.0000 1.3988 0.0000 0.0000
# 5 0.0000 0.0000 0.0000 0.0000 24.7967 0.0000
# 6 0.0000 0.0000 0.0000 0.0000 0.0000 18.3469
#
#
#
# Elastic Compliance Matrix: (Units=1/GPa)
#
#
# Indices 1 2 3 4 5 6 
#
# 1 0.018039 -0.004583 -0.001949 0.000000 0.000000 0.000000
# 2 -0.004583 0.041867 -0.007776 0.000000 0.000000 0.000000
# 3 -0.001949 -0.007776 0.015227 0.000000 0.000000 0.000000
# 4 0.000000 0.000000 0.000000 0.714882 0.000000 0.000000
# 5 0.000000 0.000000 0.000000 0.000000 0.040328 0.000000
# 6 0.000000 0.000000 0.000000 0.000000 0.000000 0.054505
#
#
# Mechanical properties :
#
#
# Convention : Reuss Voigt Hill
#
# Bulk Modulus (GPa) = 21.49820 25.92935 23.71378
# Shear Modulus (GPa) = 5.38230 17.28831 11.33531
#
# Velocity S-wave (km/s) = 1.65261 2.96185 2.39830
# Velocity P-wave (km/s) = 3.81448 4.98537 4.43870
#
# Compressibility (1/GPa) = 0.04651552
#
# Stress axis : x y z
#
# Youngs Moduli (GPa) = 55.43449 23.88544 65.67298
#
# Poissons Ratio (x) = 0.10948 0.12801
# Poissons Ratio (y) = 0.25408 0.51068
# Poissons Ratio (z) = 0.10805 0.18574
#
# Static dielectric constant tensor:
#      x y z
#    x 1.772710 0.000000 0.000000 
#    y 0.000000 1.675630 0.000000 
#    z 0.000000 0.000000 1.765400 
# 
# From -- ./inp_files/18841.got.cif
#   From: 2010.05.17/outbox.cif.g08.bks.cpg/sg60_10_cif.got.tgz:18841.got - 2010.06.03 14:59:27.
