data_PCOD9454671
_publ_section_title
;
Structure prediction by ZEFSAII (Michael W. Deem and Ramdas Pophale) SiO2 
 PCOD9454671
Probable space group: P B C N
;
_chemical_formula_sum "Si O2"
_cell_formula_units_Z 60
_cell_length_a 25.445017
_cell_length_b 21.168861
_cell_length_c 5.402139
_cell_angle_alpha 90.000000
_cell_angle_beta 90.000000
_cell_angle_gamma 90.000000
_cell_volume 2909.819107
_symmetry_space_group_name_H-M "P B C N"
_symmetry_group_IT_number 60
_symmetry_cell_setting 'orthorhombic'
loop_
_space_group_symop_operation_xyz
x,y,z
1/2-x,1/2-y,1/2+z
1/2+x,1/2-y,-z
-x,y,1/2-z
-x,-y,-z
1/2+x,1/2+y,1/2-z
1/2-x,1/2+y,z
x,-y,1/2+z
loop_
_atom_site_type_symbol
_atom_site_label
_atom_site_fract_x
_atom_site_fract_y
_atom_site_fract_z
Si Si1 0.330886 0.849917 0.234778
Si Si2 0.873569 0.237990 0.942425
Si Si3 0.500000 0.887510 0.250000
Si Si4 0.765786 0.215532 0.713133
Si Si5 0.561534 0.329323 0.804716
Si Si6 0.100200 0.460522 0.436147
Si Si7 0.922163 0.304646 0.566244
Si Si8 0.562908 0.471181 0.803207
O O1 0.343421 0.783451 0.368552
O O2 0.268003 0.847332 0.222124
O O3 0.355413 0.907903 0.383220
O O4 0.367279 0.841094 0.992097
O O5 0.828353 0.214674 0.756643
O O6 0.918921 0.286995 0.851635
O O7 0.903417 0.180085 0.061503
O O8 0.543072 0.928935 0.105497
O O9 0.532562 0.845284 0.444480
O O10 0.755241 0.236881 0.430395
O O11 0.500000 0.325572 0.750000
O O12 0.571293 0.399692 0.898545
O O13 0.574897 0.266693 0.959477
O O14 0.104741 0.489539 0.709391
O O15 0.500000 0.479533 0.750000
O O16 0.583514 0.484924 0.525922
#
# Coordination Sequence:
#
# PCOD9454671 Si02
#       8
#     8   8   4   8   8   8   8   8
#     4   9  21  38  59  89 116 152 203 262 323 374
#     4  10  21  35  61  88 125 155 197 258 324 390
#     4  10  22  40  56  84 126 166 214 258 316 362
#     4  10  19  36  63  91 118 149 189 249 320 385
#     4  10  21  36  51  86 119 159 198 240 304 369
#     4  11  25  42  61  85 120 170 222 262 299 368
#     4  10  19  37  54  87 120 157 195 255 321 381
#     4   9  19  35  54  74 103 148 196 234 270 331
#
# _framework density 20.61984
#
# number of rings (size 3 to 8) (size 9 to 14) (size 15 to 20)
#    0.000    2.133    2.000    0.400    5.600    0.533 
#    4.800    0.000    0.000    1.600    0.000    0.000 
#    0.000    0.000    0.000    0.000    0.000    0.000 
#
# Total GULP energy -334116.681209 kJ/mol
# GULP energy per Si atom -5568.611353 kJ/mol
# Density = 2.057291 g / cm^3
# Si number density = 20.619840 Si / 1000 Ang^3
#
#
#
# Elastic Constant Matrix: (Units=GPa)
#
#
# Indices 1 2 3 4 5 6 
#
# 1 86.2406 25.0011 5.9987 0.0000 0.0000 0.0000
# 2 25.0011 66.2220 8.5822 0.0000 0.0000 0.0000
# 3 5.9987 8.5822 50.9611 0.0000 0.0000 0.0000
# 4 0.0000 0.0000 0.0000 21.4923 0.0000 0.0000
# 5 0.0000 0.0000 0.0000 0.0000 22.5815 0.0000
# 6 0.0000 0.0000 0.0000 0.0000 0.0000 22.3826
#
#
#
# Elastic Compliance Matrix: (Units=1/GPa)
#
#
# Indices 1 2 3 4 5 6 
#
# 1 0.013046 -0.004832 -0.000722 0.000000 0.000000 0.000000
# 2 -0.004832 0.017227 -0.002332 0.000000 0.000000 0.000000
# 3 -0.000722 -0.002332 0.020101 0.000000 0.000000 0.000000
# 4 0.000000 0.000000 0.000000 0.046528 0.000000 0.000000
# 5 0.000000 0.000000 0.000000 0.000000 0.044284 0.000000
# 6 0.000000 0.000000 0.000000 0.000000 0.000000 0.044678
#
#
# Mechanical properties :
#
#
# Convention : Reuss Voigt Hill
#
# Bulk Modulus (GPa) = 28.90038 31.39863 30.14950
# Shear Modulus (GPa) = 23.45540 24.21407 23.83474
#
# Velocity S-wave (km/s) = 3.37637 3.43054 3.40356
# Velocity P-wave (km/s) = 5.40796 5.56344 5.48625
#
# Compressibility (1/GPa) = 0.03460162
#
# Stress axis : x y z
#
# Youngs Moduli (GPa) = 76.64916 58.04764 49.74979
#
# Poissons Ratio (x) = 0.28048 0.03592
# Poissons Ratio (y) = 0.37036 0.11604
# Poissons Ratio (z) = 0.05534 0.13539
#
# Static dielectric constant tensor:
#      x y z
#    x 1.795290 0.000000 0.000000 
#    y 0.000000 1.740780 0.000000 
#    z 0.000000 0.000000 1.846430 
# 
# From -- ./inp_files/2620.got.cif
#   From: 2010.05.17/outbox.cif.g08.bks.cpg/sg60_2_cif.got.tgz:2620.got - 2010.06.03 14:59:27.
