data_PCOD9454024
_publ_section_title
;
Structure prediction by ZEFSAII (Michael W. Deem and Ramdas Pophale) SiO2 
 PCOD9454024
Probable space group: P B C N
;
_chemical_formula_sum "Si O2"
_cell_formula_units_Z 44
_cell_length_a 10.662186
_cell_length_b 14.089318
_cell_length_c 13.589692
_cell_angle_alpha 90.000000
_cell_angle_beta 90.000000
_cell_angle_gamma 90.000000
_cell_volume 2041.483338
_symmetry_space_group_name_H-M "P B C N"
_symmetry_group_IT_number 60
_symmetry_cell_setting 'orthorhombic'
loop_
_space_group_symop_operation_xyz
x,y,z
1/2-x,1/2-y,1/2+z
1/2+x,1/2-y,-z
-x,y,1/2-z
-x,-y,-z
1/2+x,1/2+y,1/2-z
1/2-x,1/2+y,z
x,-y,1/2+z
loop_
_atom_site_type_symbol
_atom_site_label
_atom_site_fract_x
_atom_site_fract_y
_atom_site_fract_z
Si Si1 0.708440 0.630321 0.334296
Si Si2 0.663512 0.200170 0.952859
Si Si3 0.968111 0.378054 0.916826
Si Si4 0.500000 0.027562 0.750000
Si Si5 0.152483 0.751307 0.333363
Si Si6 0.779633 0.082152 0.793994
O O1 0.623521 0.710773 0.384662
O O2 0.773998 0.680658 0.240394
O O3 0.668468 0.524228 0.306326
O O4 0.820122 0.614685 0.414235
O O5 0.768526 0.140120 0.896041
O O6 0.545649 0.133455 0.983183
O O7 0.711355 0.238716 0.057989
O O8 0.015985 0.461556 0.846385
O O9 0.012120 0.284223 0.857302
O O10 0.631850 0.079073 0.763352
O O11 0.154741 0.854927 0.288193
#
# Coordination Sequence:
#
# PCOD9454024 Si02
#       6
#     8   8   8   4   8   8
#     4  10  18  33  56  77 104 140 186 220 261 337
#     4   9  20  30  49  83 105 143 171 228 276 314
#     4   9  16  34  51  76 106 138 178 212 276 321
#     4  10  18  32  58  86 100 140 182 234 270 318
#     4   9  18  34  48  77 107 145 169 219 282 318
#     4  10  19  31  52  81 108 135 182 225 270 319
#
# _framework density 21.552955999999998
#
# number of rings (size 3 to 8) (size 9 to 14) (size 15 to 20)
#    1.091    1.455    3.636    0.000    0.000    7.273 
#    0.000    0.000    0.000    4.364   56.727    0.000 
#    0.000    0.000    0.000    0.000    0.000    0.000 
#
# Total GULP energy -244990.373482 kJ/mol
# GULP energy per Si atom -5567.963034 kJ/mol
# Density = 2.150390 g / cm^3
# Si number density = 21.552956 Si / 1000 Ang^3
#
#
#
# Elastic Constant Matrix: (Units=GPa)
#
#
# Indices 1 2 3 4 5 6 
#
# 1 18.9246 2.0476 9.5941 0.0000 0.0000 0.0000
# 2 2.0476 143.3550 51.4038 0.0000 0.0000 0.0000
# 3 9.5941 51.4038 66.6979 0.0000 0.0000 0.0000
# 4 0.0000 0.0000 0.0000 59.2057 0.0000 0.0000
# 5 0.0000 0.0000 0.0000 0.0000 27.5297 0.0000
# 6 0.0000 0.0000 0.0000 0.0000 0.0000 40.4339
#
#
#
# Elastic Compliance Matrix: (Units=1/GPa)
#
#
# Indices 1 2 3 4 5 6 
#
# 1 0.057907 0.002985 -0.010630 0.000000 0.000000 0.000000
# 2 0.002985 0.009793 -0.007977 0.000000 0.000000 0.000000
# 3 -0.010630 -0.007977 0.022670 0.000000 0.000000 0.000000
# 4 0.000000 0.000000 0.000000 0.016890 0.000000 0.000000
# 5 0.000000 0.000000 0.000000 0.000000 0.036324 0.000000
# 6 0.000000 0.000000 0.000000 0.000000 0.000000 0.024732
#
#
# Mechanical properties :
#
#
# Convention : Reuss Voigt Hill
#
# Bulk Modulus (GPa) = 16.91305 39.45205 28.18255
# Shear Modulus (GPa) = 22.80288 36.49600 29.64944
#
# Velocity S-wave (km/s) = 3.25621 4.11946 3.71301
# Velocity P-wave (km/s) = 4.69057 6.40086 5.61126
#
# Compressibility (1/GPa) = 0.05912593
#
# Stress axis : x y z
#
# Youngs Moduli (GPa) = 17.26897 102.10889 44.11125
#
# Poissons Ratio (x) = -0.30475 0.46889
# Poissons Ratio (y) = -0.05154 0.35188
# Poissons Ratio (z) = 0.18357 0.81453
#
# Static dielectric constant tensor:
#      x y z
#    x 1.837860 0.000000 0.000000 
#    y 0.000000 1.837450 0.000000 
#    z 0.000000 0.000000 1.842510 
# 
# From -- ./inp_files/16713.got.cif
#   From: 2010.05.17/outbox.cif.g08.bks.cpg/sg60_9_cif.got.tgz:16713.got - 2010.06.03 14:59:27.
