data_PCOD9454988
_publ_section_title
;
Structure prediction by ZEFSAII (Michael W. Deem and Ramdas Pophale) SiO2 
 PCOD9454988
Probable space group: P B C N
;
_chemical_formula_sum "Si O2"
_cell_formula_units_Z 44
_cell_length_a 6.038081
_cell_length_b 19.436245
_cell_length_c 18.638141
_cell_angle_alpha 90.000000
_cell_angle_beta 90.000000
_cell_angle_gamma 90.000000
_cell_volume 2187.327900
_symmetry_space_group_name_H-M "P B C N"
_symmetry_group_IT_number 60
_symmetry_cell_setting 'orthorhombic'
loop_
_space_group_symop_operation_xyz
x,y,z
1/2-x,1/2-y,1/2+z
1/2+x,1/2-y,-z
-x,y,1/2-z
-x,-y,-z
1/2+x,1/2+y,1/2-z
1/2-x,1/2+y,z
x,-y,1/2+z
loop_
_atom_site_type_symbol
_atom_site_label
_atom_site_fract_x
_atom_site_fract_y
_atom_site_fract_z
Si Si1 0.000000 0.488291 0.750000
Si Si2 0.752527 0.835397 0.445258
Si Si3 0.788100 0.028763 0.881123
Si Si4 0.433722 0.691411 0.083508
Si Si5 0.832727 0.080015 0.155578
Si Si6 0.058678 0.583961 0.040289
O O1 0.898323 0.529240 0.818017
O O2 0.800962 0.439032 0.725829
O O3 0.871378 0.894840 0.399426
O O4 0.663827 0.767112 0.407603
O O5 0.536535 0.878733 0.470481
O O6 0.905503 0.812358 0.512855
O O7 0.688468 0.988269 0.951228
O O8 0.987756 0.979494 0.857199
O O9 0.564619 0.655726 0.148595
O O10 0.231353 0.639652 0.070358
O O11 0.651310 0.076842 0.092370
#
# Coordination Sequence:
#
# PCOD9454988 Si02
#       6
#     4   8   8   8   8   8
#     4  10  20  40  62  82 108 148 196 260 278 322
#     4  11  20  34  56  87 124 155 185 226 288 354
#     4  10  21  35  60  85 112 147 200 241 284 330
#     4  10  20  34  56  85 125 157 180 224 285 357
#     4   9  20  37  59  85 111 148 200 237 291 332
#     4   9  19  35  54  87 116 151 184 234 284 340
#
# _framework density 20.115867999999999
#
# number of rings (size 3 to 8) (size 9 to 14) (size 15 to 20)
#    0.000    2.182    1.818    1.091    0.000    9.455 
#    0.000    0.000   12.000    0.000    0.000    0.000 
#    0.000    0.000    0.000    0.000    0.000    0.000 
#
# Total GULP energy -245123.998548 kJ/mol
# GULP energy per Si atom -5570.999967 kJ/mol
# Density = 2.007008 g / cm^3
# Si number density = 20.115868 Si / 1000 Ang^3
#
#
#
# Elastic Constant Matrix: (Units=GPa)
#
#
# Indices 1 2 3 4 5 6 
#
# 1 69.2929 23.3405 1.5900 0.0000 0.0000 0.0000
# 2 23.3405 163.6328 14.5323 0.0000 0.0000 0.0000
# 3 1.5900 14.5323 36.7166 0.0000 0.0000 0.0000
# 4 0.0000 0.0000 0.0000 13.7030 0.0000 0.0000
# 5 0.0000 0.0000 0.0000 0.0000 31.8780 0.0000
# 6 0.0000 0.0000 0.0000 0.0000 0.0000 15.8537
#
#
#
# Elastic Compliance Matrix: (Units=1/GPa)
#
#
# Indices 1 2 3 4 5 6 
#
# 1 0.015161 -0.002181 0.000207 0.000000 0.000000 0.000000
# 2 -0.002181 0.006648 -0.002537 0.000000 0.000000 0.000000
# 3 0.000207 -0.002537 0.028231 0.000000 0.000000 0.000000
# 4 0.000000 0.000000 0.000000 0.072977 0.000000 0.000000
# 5 0.000000 0.000000 0.000000 0.000000 0.031370 0.000000
# 6 0.000000 0.000000 0.000000 0.000000 0.000000 0.063077
#
#
# Mechanical properties :
#
#
# Convention : Reuss Voigt Hill
#
# Bulk Modulus (GPa) = 24.37970 38.72977 31.55473
# Shear Modulus (GPa) = 20.81970 27.63224 24.22597
#
# Velocity S-wave (km/s) = 3.22061 3.71030 3.47410
# Velocity P-wave (km/s) = 5.09664 6.13598 5.64030
#
# Compressibility (1/GPa) = 0.04101774
#
# Stress axis : x y z
#
# Youngs Moduli (GPa) = 65.95709 150.42981 35.42243
#
# Poissons Ratio (x) = 0.32808 -0.00732
# Poissons Ratio (y) = 0.14385 0.08985
# Poissons Ratio (z) = -0.01363 0.38159
#
# Static dielectric constant tensor:
#      x y z
#    x 1.757220 0.000000 0.000000 
#    y 0.000000 1.730560 0.000000 
#    z 0.000000 0.000000 1.793060 
# 
# From -- ./inp_files/23584.got.cif
#   From: 2010.05.17/outbox.cif.g08.bks.cpg/sg60_12_cif.got.tgz:23584.got - 2010.06.03 14:59:27.
