data_PCOD9454095
_publ_section_title
;
Structure prediction by ZEFSAII (Michael W. Deem and Ramdas Pophale) SiO2 
 PCOD9454095
Probable space group: P B C N
;
_chemical_formula_sum "Si O2"
_cell_formula_units_Z 64
_cell_length_a 14.469420
_cell_length_b 8.588214
_cell_length_c 22.320500
_cell_angle_alpha 90.000000
_cell_angle_beta 90.000000
_cell_angle_gamma 90.000000
_cell_volume 2773.689865
_symmetry_space_group_name_H-M "P B C N"
_symmetry_group_IT_number 60
_symmetry_cell_setting 'orthorhombic'
loop_
_space_group_symop_operation_xyz
x,y,z
1/2-x,1/2-y,1/2+z
1/2+x,1/2-y,-z
-x,y,1/2-z
-x,-y,-z
1/2+x,1/2+y,1/2-z
1/2-x,1/2+y,z
x,-y,1/2+z
loop_
_atom_site_type_symbol
_atom_site_label
_atom_site_fract_x
_atom_site_fract_y
_atom_site_fract_z
Si Si1 0.656460 0.269222 0.478757
Si Si2 0.006261 0.941805 0.096254
Si Si3 0.162343 0.566951 0.561672
Si Si4 0.872292 0.910791 0.292667
Si Si5 0.680549 0.769070 0.310449
Si Si6 0.838080 0.976019 0.160723
Si Si7 0.977247 0.695275 0.578138
Si Si8 0.637569 0.156603 0.681432
O O1 0.569401 0.369716 0.455141
O O2 0.751376 0.365300 0.475937
O O3 0.618578 0.205972 0.541573
O O4 0.671531 0.118061 0.437648
O O5 0.052567 0.878771 0.157128
O O6 0.896487 0.913382 0.104091
O O7 0.011626 0.129090 0.091506
O O8 0.164809 0.643618 0.627421
O O9 0.059104 0.613212 0.541457
O O10 0.788596 0.791727 0.298309
O O11 0.888420 0.918696 0.221822
O O12 0.840590 0.086454 0.310130
O O13 0.628100 0.844998 0.253343
O O14 0.731332 0.931773 0.164208
O O15 0.846250 0.161928 0.164964
O O16 0.949648 0.611709 0.640557
#
# Coordination Sequence:
#
# PCOD9454095 Si02
#       8
#     8   8   8   8   8   8   8   8
#     4  12  27  42  66  95 128 170 221 268 321 390
#     4  11  21  39  62  91 126 167 215 262 318 381
#     4  12  24  44  66  92 127 167 211 274 325 383
#     4  10  18  34  59  92 123 163 207 257 319 383
#     4  10  19  36  64  92 126 160 209 259 323 378
#     4   9  20  35  60  89 126 166 205 262 321 380
#     4  11  25  44  65  94 126 172 221 263 324 386
#     4   9  21  38  62  93 126 166 209 263 323 384
#
# _framework density 23.073955999999999
#
# number of rings (size 3 to 8) (size 9 to 14) (size 15 to 20)
#    0.000    1.500    2.500    2.625    0.000    4.500 
#    0.000    0.000    2.750    0.000    0.000    0.000 
#    0.000    0.000    0.000    0.000    0.000    0.000 
#
# Total GULP energy -357394.822792 kJ/mol
# GULP energy per Si atom -5584.294106 kJ/mol
# Density = 2.302144 g / cm^3
# Si number density = 23.073956 Si / 1000 Ang^3
#
#
#
# Elastic Constant Matrix: (Units=GPa)
#
#
# Indices 1 2 3 4 5 6 
#
# 1 59.4262 3.1396 23.8865 0.0000 0.0000 0.0000
# 2 3.1396 23.7601 -0.8630 0.0000 0.0000 0.0000
# 3 23.8865 -0.8630 51.7413 0.0000 0.0000 0.0000
# 4 0.0000 0.0000 0.0000 9.7587 0.0000 0.0000
# 5 0.0000 0.0000 0.0000 0.0000 41.4652 0.0000
# 6 0.0000 0.0000 0.0000 0.0000 0.0000 19.0030
#
#
#
# Elastic Compliance Matrix: (Units=1/GPa)
#
#
# Indices 1 2 3 4 5 6 
#
# 1 0.020889 -0.003112 -0.009695 0.000000 0.000000 0.000000
# 2 -0.003112 0.042577 0.002147 0.000000 0.000000 0.000000
# 3 -0.009695 0.002147 0.023839 0.000000 0.000000 0.000000
# 4 0.000000 0.000000 0.000000 0.102473 0.000000 0.000000
# 5 0.000000 0.000000 0.000000 0.000000 0.024117 0.000000
# 6 0.000000 0.000000 0.000000 0.000000 0.000000 0.052623
#
#
# Mechanical properties :
#
#
# Convention : Reuss Voigt Hill
#
# Bulk Modulus (GPa) = 15.15550 20.80600 17.98075
# Shear Modulus (GPa) = 16.13771 21.29633 18.71702
#
# Velocity S-wave (km/s) = 2.64747 3.04132 2.85120
# Velocity P-wave (km/s) = 3.99098 4.62272 4.31842
#
# Compressibility (1/GPa) = 0.06598266
#
# Stress axis : x y z
#
# Youngs Moduli (GPa) = 47.87176 23.48708 41.94861
#
# Poissons Ratio (x) = 0.07310 0.40671
# Poissons Ratio (y) = 0.14900 -0.09006
# Poissons Ratio (z) = 0.46414 -0.05043
#
# Static dielectric constant tensor:
#      x y z
#    x 1.903530 0.000000 0.000000 
#    y 0.000000 1.816190 0.000000 
#    z 0.000000 0.000000 1.971400 
# 
# From -- ./inp_files/24461.got.cif
#   From: 2010.05.17/outbox.cif.g08.bks.cpg/sg60_13_cif.got.tgz:24461.got - 2010.06.03 14:59:27.
