data_PCOD9454520
_publ_section_title
;
Structure prediction by ZEFSAII (Michael W. Deem and Ramdas Pophale) SiO2 
 PCOD9454520
Probable space group: P B C N
;
_chemical_formula_sum "Si O2"
_cell_formula_units_Z 60
_cell_length_a 27.072456
_cell_length_b 5.222928
_cell_length_c 17.870419
_cell_angle_alpha 90.000000
_cell_angle_beta 90.000000
_cell_angle_gamma 90.000000
_cell_volume 2526.832365
_symmetry_space_group_name_H-M "P B C N"
_symmetry_group_IT_number 60
_symmetry_cell_setting 'orthorhombic'
loop_
_space_group_symop_operation_xyz
x,y,z
1/2-x,1/2-y,1/2+z
1/2+x,1/2-y,-z
-x,y,1/2-z
-x,-y,-z
1/2+x,1/2+y,1/2-z
1/2-x,1/2+y,z
x,-y,1/2+z
loop_
_atom_site_type_symbol
_atom_site_label
_atom_site_fract_x
_atom_site_fract_y
_atom_site_fract_z
Si Si1 0.595573 0.622352 0.726600
Si Si2 0.556460 0.734921 0.025451
Si Si3 0.876408 0.627501 0.799488
Si Si4 0.619638 0.239372 0.066761
Si Si5 0.233108 0.840142 0.451479
Si Si6 0.773463 0.410480 0.221430
Si Si7 0.500000 0.108934 0.250000
Si Si8 0.957603 0.388776 0.397815
O O1 0.595972 0.326444 0.744509
O O2 0.626147 0.690543 0.653872
O O3 0.540310 0.711598 0.712097
O O4 0.614098 0.823773 0.789049
O O5 0.585329 0.468459 0.034233
O O6 0.501741 0.731990 0.062719
O O7 0.590851 0.968482 0.058901
O O8 0.547085 0.845267 0.942765
O O9 0.822310 0.674884 0.765208
O O10 0.901010 0.700011 0.879881
O O11 0.676451 0.248867 0.042228
O O12 0.264788 0.617752 0.488157
O O13 0.262567 0.898260 0.370133
O O14 0.765916 0.700205 0.245510
O O15 0.478069 0.943174 0.184110
#
# Coordination Sequence:
#
# PCOD9454520 Si02
#       8
#     8   8   8   8   8   8   4   8
#     4  11  22  35  59  95 130 164 211 268 320 377
#     4  11  26  44  65  93 140 184 218 261 330 403
#     4  11  23  38  65  93 133 169 216 275 336 389
#     4  12  23  40  65  96 132 173 223 267 327 403
#     4  10  19  34  60  91 125 159 210 275 332 376
#     4  10  19  35  57  90 123 162 203 269 337 387
#     4  10  22  40  64  96 128 172 220 270 312 372
#     4  10  25  46  66  97 137 182 221 269 327 396
#
# _framework density 23.745145999999998
#
# number of rings (size 3 to 8) (size 9 to 14) (size 15 to 20)
#    0.000    1.333    1.333    5.600    3.733    4.800 
#    0.000    0.000    0.000    4.800    0.000    0.000 
#    0.000    0.000    0.000    0.000    0.000    0.000 
#
# Total GULP energy -334051.216590 kJ/mol
# GULP energy per Si atom -5567.520276 kJ/mol
# Density = 2.369110 g / cm^3
# Si number density = 23.745146 Si / 1000 Ang^3
#
#
#
# Elastic Constant Matrix: (Units=GPa)
#
#
# Indices 1 2 3 4 5 6 
#
# 1 114.0597 22.8217 14.1030 0.0000 0.0000 0.0000
# 2 22.8217 76.2539 9.8935 0.0000 0.0000 0.0000
# 3 14.1030 9.8935 66.5208 0.0000 0.0000 0.0000
# 4 0.0000 0.0000 0.0000 20.9945 0.0000 0.0000
# 5 0.0000 0.0000 0.0000 0.0000 27.6275 0.0000
# 6 0.0000 0.0000 0.0000 0.0000 0.0000 -4.3794
#
#
#
# Elastic Compliance Matrix: (Units=1/GPa)
#
#
# Indices 1 2 3 4 5 6 
#
# 1 0.009494 -0.002631 -0.001622 0.000000 0.000000 0.000000
# 2 -0.002631 0.014101 -0.001539 0.000000 0.000000 0.000000
# 3 -0.001622 -0.001539 0.015606 0.000000 0.000000 0.000000
# 4 0.000000 0.000000 0.000000 0.047632 0.000000 0.000000
# 5 0.000000 0.000000 0.000000 0.000000 0.036196 0.000000
# 6 0.000000 0.000000 0.000000 0.000000 0.000000 -0.228340
#
#
# Mechanical properties :
#
#
# Convention : Reuss Voigt Hill
#
# Bulk Modulus (GPa) = 36.20961 38.94122 37.57542
# Shear Modulus (GPa) = -59.15676 22.84959 -18.15359
#
# Velocity S-wave (km/s) = -4.99673 3.10544 -2.76799
# Velocity P-wave (km/s) = 4.24351 5.41235 2.37552
#
# Compressibility (1/GPa) = 0.02761698
#
# Stress axis : x y z
#
# Youngs Moduli (GPa) = 105.32653 70.91558 64.07943
#
# Poissons Ratio (x) = 0.18659 0.10391
# Poissons Ratio (y) = 0.27713 0.09865
# Poissons Ratio (z) = 0.17079 0.10917
#
# Static dielectric constant tensor:
#      x y z
#    x 2.081290 0.000000 0.000000 
#    y 0.000000 1.929280 0.000000 
#    z 0.000000 0.000000 1.987870 
# 
# From -- ./inp_files/21232.got.cif
#   From: 2010.05.17/outbox.cif.g08.bks.cpg/sg60_11_cif.got.tgz:21232.got - 2010.06.03 14:59:27.
