data_PCOD9454852
_publ_section_title
;
Structure prediction by ZEFSAII (Michael W. Deem and Ramdas Pophale) SiO2 
 PCOD9454852
Probable space group: P B C N
;
_chemical_formula_sum "Si O2"
_cell_formula_units_Z 48
_cell_length_a 11.075847
_cell_length_b 15.125892
_cell_length_c 13.476747
_cell_angle_alpha 90.000000
_cell_angle_beta 90.000000
_cell_angle_gamma 90.000000
_cell_volume 2257.787262
_symmetry_space_group_name_H-M "P B C N"
_symmetry_group_IT_number 60
_symmetry_cell_setting 'orthorhombic'
loop_
_space_group_symop_operation_xyz
x,y,z
1/2-x,1/2-y,1/2+z
1/2+x,1/2-y,-z
-x,y,1/2-z
-x,-y,-z
1/2+x,1/2+y,1/2-z
1/2-x,1/2+y,z
x,-y,1/2+z
loop_
_atom_site_type_symbol
_atom_site_label
_atom_site_fract_x
_atom_site_fract_y
_atom_site_fract_z
Si Si1 0.634749 0.536342 0.995829
Si Si2 0.198909 0.798356 0.131597
Si Si3 0.450244 0.195521 0.538742
Si Si4 0.810330 0.381820 0.996062
Si Si5 0.589872 0.345388 0.661303
Si Si6 0.320311 0.729995 0.845961
O O1 0.650155 0.571482 0.107574
O O2 0.500000 0.500000 0.000000
O O3 0.636332 0.623834 0.929570
O O4 0.738577 0.468402 0.961748
O O5 0.192016 0.701246 0.080451
O O6 0.136299 0.797881 0.238329
O O7 0.340339 0.823143 0.113907
O O8 0.549810 0.118383 0.528937
O O9 0.514720 0.282445 0.585256
O O10 0.398270 0.217522 0.428428
O O11 0.732228 0.350769 0.090722
O O12 0.500000 0.368131 0.750000
O O13 0.704127 0.286682 0.689190
#
# Coordination Sequence:
#
# PCOD9454852 Si02
#       6
#     8   8   8   8   8   8
#     4  12  25  43  67 104 140 179 230 288 348 409
#     4  11  22  42  69  95 135 181 225 281 347 417
#     4  10  19  42  68  98 137 175 230 284 348 416
#     4  10  24  41  65  99 140 177 224 290 344 410
#     4  11  21  40  72  98 132 183 228 283 344 417
#     4  10  21  40  70  96 130 183 228 275 355 405
#
# _framework density 21.259754000000001
#
# number of rings (size 3 to 8) (size 9 to 14) (size 15 to 20)
#    0.000    1.333    6.667    2.000    0.000    2.667 
#    0.000    0.000    0.000    4.000    0.000    0.000 
#    0.000    0.000    0.000    0.000    0.000    0.000 
#
# Total GULP energy -267494.453559 kJ/mol
# GULP energy per Si atom -5572.801116 kJ/mol
# Density = 2.121137 g / cm^3
# Si number density = 21.259754 Si / 1000 Ang^3
#
#
#
# Elastic Constant Matrix: (Units=GPa)
#
#
# Indices 1 2 3 4 5 6 
#
# 1 111.1018 17.0677 23.7955 0.0000 0.0000 0.0000
# 2 17.0677 61.4563 36.8707 0.0000 0.0000 0.0000
# 3 23.7955 36.8707 123.0986 0.0000 0.0000 0.0000
# 4 0.0000 0.0000 0.0000 0.3805 0.0000 0.0000
# 5 0.0000 0.0000 0.0000 0.0000 24.9892 0.0000
# 6 0.0000 0.0000 0.0000 0.0000 0.0000 24.1818
#
#
#
# Elastic Compliance Matrix: (Units=1/GPa)
#
#
# Indices 1 2 3 4 5 6 
#
# 1 0.009566 -0.001886 -0.001284 0.000000 0.000000 0.000000
# 2 -0.001886 0.020208 -0.005688 0.000000 0.000000 0.000000
# 3 -0.001284 -0.005688 0.010076 0.000000 0.000000 0.000000
# 4 0.000000 0.000000 0.000000 2.628287 0.000000 0.000000
# 5 0.000000 0.000000 0.000000 0.000000 0.040017 0.000000
# 6 0.000000 0.000000 0.000000 0.000000 0.000000 0.041353
#
#
# Mechanical properties :
#
#
# Convention : Reuss Voigt Hill
#
# Bulk Modulus (GPa) = 45.18273 50.12494 47.65383
# Shear Modulus (GPa) = 1.80206 24.43847 13.12027
#
# Velocity S-wave (km/s) = 0.92167 3.39413 2.48693
# Velocity P-wave (km/s) = 4.73619 6.24410 5.54167
#
# Compressibility (1/GPa) = 0.02213235
#
# Stress axis : x y z
#
# Youngs Moduli (GPa) = 104.54200 49.48489 99.25027
#
# Poissons Ratio (x) = 0.09334 0.12745
# Poissons Ratio (y) = 0.19718 0.56456
# Poissons Ratio (z) = 0.13424 0.28148
#
# Static dielectric constant tensor:
#      x y z
#    x -6.284430 0.000000 0.000000 
#    y 0.000000 2.046810 0.000000 
#    z 0.000000 0.000000 1.754580 
# 
# From -- ./inp_files/16047.got.cif
#   From: 2010.05.17/outbox.cif.g08.bks.cpg/sg60_9_cif.got.tgz:16047.got - 2010.06.03 14:59:27.
