data_PCOD9454877
_publ_section_title
;
Structure prediction by ZEFSAII (Michael W. Deem and Ramdas Pophale) SiO2 
 PCOD9454877
Probable space group: P B C N
;
_chemical_formula_sum "Si O2"
_cell_formula_units_Z 44
_cell_length_a 18.520122
_cell_length_b 20.944862
_cell_length_c 5.317201
_cell_angle_alpha 90.000000
_cell_angle_beta 90.000000
_cell_angle_gamma 90.000000
_cell_volume 2062.549709
_symmetry_space_group_name_H-M "P B C N"
_symmetry_group_IT_number 60
_symmetry_cell_setting 'orthorhombic'
loop_
_space_group_symop_operation_xyz
x,y,z
1/2-x,1/2-y,1/2+z
1/2+x,1/2-y,-z
-x,y,1/2-z
-x,-y,-z
1/2+x,1/2+y,1/2-z
1/2-x,1/2+y,z
x,-y,1/2+z
loop_
_atom_site_type_symbol
_atom_site_label
_atom_site_fract_x
_atom_site_fract_y
_atom_site_fract_z
Si Si1 0.544035 0.716758 0.010100
Si Si2 0.645789 0.021991 0.790177
Si Si3 0.194676 0.179296 0.691358
Si Si4 0.772262 0.331519 0.802220
Si Si5 0.588826 0.142911 0.587076
Si Si6 0.000000 0.562829 0.250000
O O1 0.500000 0.688486 0.250000
O O2 0.612145 0.677511 0.902784
O O3 0.574866 0.782987 0.132173
O O4 0.500000 0.731596 0.750000
O O5 0.623968 0.095882 0.789087
O O6 0.685032 0.004244 0.532397
O O7 0.570299 0.982138 0.743417
O O8 0.218118 0.154252 0.965015
O O9 0.215553 0.254699 0.703470
O O10 0.240715 0.149483 0.465110
O O11 0.850797 0.358416 0.867216
O O12 0.517192 0.109977 0.479473
#
# Coordination Sequence:
#
# PCOD9454877 Si02
#       6
#     8   8   8   8   8   4
#     4  11  22  31  49  71  92 117 154 206 240 288
#     4  10  21  32  45  60  92 128 150 198 238 264
#     4   9  18  34  45  64  89 113 148 193 254 270
#     4   9  18  31  49  61  85 120 153 199 226 286
#     4  10  20  31  49  68  90 122 176 195 235 269
#     4  10  20  34  46  66 102 124 162 202 244 256
#
# _framework density 21.332820999999999
#
# number of rings (size 3 to 8) (size 9 to 14) (size 15 to 20)
#    0.000    2.182    0.909    3.273    3.818    7.273 
#    0.000    0.000    0.000    0.000    0.000    0.000 
#    0.000    0.000    0.000    0.000    0.000  254.545 
#
# Total GULP energy -245417.664526 kJ/mol
# GULP energy per Si atom -5577.674194 kJ/mol
# Density = 2.128427 g / cm^3
# Si number density = 21.332821 Si / 1000 Ang^3
#
#
#
# Elastic Constant Matrix: (Units=GPa)
#
#
# Indices 1 2 3 4 5 6 
#
# 1 66.4144 16.4591 21.9691 0.0000 0.0000 0.0000
# 2 16.4591 23.2978 10.3367 0.0000 0.0000 0.0000
# 3 21.9691 10.3367 126.5711 0.0000 0.0000 0.0000
# 4 0.0000 0.0000 0.0000 15.4412 0.0000 0.0000
# 5 0.0000 0.0000 0.0000 0.0000 30.1088 0.0000
# 6 0.0000 0.0000 0.0000 0.0000 0.0000 17.4129
#
#
#
# Elastic Compliance Matrix: (Units=1/GPa)
#
#
# Indices 1 2 3 4 5 6 
#
# 1 0.018860 -0.012318 -0.002268 0.000000 0.000000 0.000000
# 2 -0.012318 0.052581 -0.002156 0.000000 0.000000 0.000000
# 3 -0.002268 -0.002156 0.008470 0.000000 0.000000 0.000000
# 4 0.000000 0.000000 0.000000 0.064762 0.000000 0.000000
# 5 0.000000 0.000000 0.000000 0.000000 0.033213 0.000000
# 6 0.000000 0.000000 0.000000 0.000000 0.000000 0.057429
#
#
# Mechanical properties :
#
#
# Convention : Reuss Voigt Hill
#
# Bulk Modulus (GPa) = 21.53851 34.86812 28.20332
# Shear Modulus (GPa) = 17.58869 23.76046 20.67457
#
# Velocity S-wave (km/s) = 2.87451 3.34098 3.11649
# Velocity P-wave (km/s) = 4.59733 5.59135 5.11852
#
# Compressibility (1/GPa) = 0.04642846
#
# Stress axis : x y z
#
# Youngs Moduli (GPa) = 53.02318 19.01823 118.05860
#
# Poissons Ratio (x) = 0.23426 0.26770
# Poissons Ratio (y) = 0.65312 0.25455
# Poissons Ratio (z) = 0.12023 0.04101
#
# Static dielectric constant tensor:
#      x y z
#    x 1.826700 0.000000 0.000000 
#    y 0.000000 1.791290 0.000000 
#    z 0.000000 0.000000 1.994540 
# 
# From -- ./inp_files/1291.got.cif
#   From: 2010.05.17/outbox.cif.g08.bks.cpg/sg60_1_cif.got.tgz:1291.got - 2010.06.03 14:59:27.
