data_PCOD9454314
_publ_section_title
;
Structure prediction by ZEFSAII (Michael W. Deem and Ramdas Pophale) SiO2 
 PCOD9454314
Probable space group: P B C N
;
_chemical_formula_sum "Si O2"
_cell_formula_units_Z 64
_cell_length_a 5.519850
_cell_length_b 27.666260
_cell_length_c 19.381632
_cell_angle_alpha 90.000000
_cell_angle_beta 90.000000
_cell_angle_gamma 90.000000
_cell_volume 2959.838899
_symmetry_space_group_name_H-M "P B C N"
_symmetry_group_IT_number 60
_symmetry_cell_setting 'orthorhombic'
loop_
_space_group_symop_operation_xyz
x,y,z
1/2-x,1/2-y,1/2+z
1/2+x,1/2-y,-z
-x,y,1/2-z
-x,-y,-z
1/2+x,1/2+y,1/2-z
1/2-x,1/2+y,z
x,-y,1/2+z
loop_
_atom_site_type_symbol
_atom_site_label
_atom_site_fract_x
_atom_site_fract_y
_atom_site_fract_z
Si Si1 0.475421 0.506769 0.322572
Si Si2 0.860049 0.457972 0.408969
Si Si3 0.040769 0.823950 0.555844
Si Si4 0.535545 0.854982 0.561891
Si Si5 0.544702 0.210932 0.924279
Si Si6 0.221396 0.541426 0.449212
Si Si7 0.328899 0.092100 0.815759
Si Si8 0.547040 0.330161 0.106227
O O1 0.500000 0.532689 0.250000
O O2 0.724587 0.482347 0.345933
O O3 0.401580 0.541032 0.385455
O O4 0.289703 0.461531 0.310428
O O5 0.675788 0.455564 0.473194
O O6 0.071250 0.492744 0.435997
O O7 0.985649 0.409978 0.381024
O O8 0.279803 0.841978 0.594364
O O9 0.057070 0.766148 0.550894
O O10 0.039705 0.844386 0.476213
O O11 0.793740 0.839721 0.592544
O O12 0.536526 0.823337 0.491560
O O13 0.548292 0.912229 0.551928
O O14 0.287121 0.203107 0.887248
O O15 0.789145 0.196113 0.883501
O O16 0.500000 0.103557 0.750000
O O17 0.110585 0.126857 0.840389
#
# Coordination Sequence:
#
# PCOD9454314 Si02
#       8
#     8   8   8   8   8   8   8   8
#     4  11  23  39  62  78 117 169 205 252 307 379
#     4  10  21  40  56  81 123 157 206 248 316 366
#     4  10  19  33  56  85 122 154 190 239 315 370
#     4  10  19  31  53  83 119 150 192 248 296 354
#     4  10  19  35  54  87 119 157 188 238 312 371
#     4  10  23  35  57  89 118 157 204 262 306 362
#     4  11  23  37  56  86 116 164 204 251 311 379
#     4  10  20  31  55  81 116 152 196 243 286 364
#
# _framework density 21.622796999999998
#
# number of rings (size 3 to 8) (size 9 to 14) (size 15 to 20)
#    0.000    1.750    1.250    5.625    7.000    0.000 
#    0.000    0.000    0.000    0.000    0.000    9.625 
#    0.000    0.000    0.000    0.000    0.000    0.000 
#
# Total GULP energy -356816.706590 kJ/mol
# GULP energy per Si atom -5575.261040 kJ/mol
# Density = 2.157358 g / cm^3
# Si number density = 21.622797 Si / 1000 Ang^3
#
#
#
# Elastic Constant Matrix: (Units=GPa)
#
#
# Indices 1 2 3 4 5 6 
#
# 1 129.2001 1.9905 11.1000 0.0000 0.0000 0.0000
# 2 1.9905 75.3021 8.7255 0.0000 0.0000 0.0000
# 3 11.1000 8.7255 79.5240 0.0000 0.0000 0.0000
# 4 0.0000 0.0000 0.0000 7.6893 0.0000 0.0000
# 5 0.0000 0.0000 0.0000 0.0000 11.7015 0.0000
# 6 0.0000 0.0000 0.0000 0.0000 0.0000 27.2171
#
#
#
# Elastic Compliance Matrix: (Units=1/GPa)
#
#
# Indices 1 2 3 4 5 6 
#
# 1 0.007834 -0.000081 -0.001085 0.000000 0.000000 0.000000
# 2 -0.000081 0.013452 -0.001465 0.000000 0.000000 0.000000
# 3 -0.001085 -0.001465 0.012887 0.000000 0.000000 0.000000
# 4 0.000000 0.000000 0.000000 0.130052 0.000000 0.000000
# 5 0.000000 0.000000 0.000000 0.000000 0.085459 0.000000
# 6 0.000000 0.000000 0.000000 0.000000 0.000000 0.036742
#
#
# Mechanical properties :
#
#
# Convention : Reuss Voigt Hill
#
# Bulk Modulus (GPa) = 34.58795 36.40645 35.49720
# Shear Modulus (GPa) = 16.59345 26.80225 21.69785
#
# Velocity S-wave (km/s) = 2.77321 3.52453 3.17120
# Velocity P-wave (km/s) = 5.12690 5.78244 5.46451
#
# Compressibility (1/GPa) = 0.02891180
#
# Stress axis : x y z
#
# Youngs Moduli (GPa) = 127.64271 74.34009 77.59819
#
# Poissons Ratio (x) = 0.00605 0.08416
# Poissons Ratio (y) = 0.01039 0.11365
# Poissons Ratio (z) = 0.13844 0.10888
#
# Static dielectric constant tensor:
#      x y z
#    x 1.921630 0.000000 0.000000 
#    y 0.000000 1.796270 0.000000 
#    z 0.000000 0.000000 1.829870 
# 
# From -- ./inp_files/21822.got.cif
#   From: 2010.05.17/outbox.cif.g08.bks.cpg/sg60_11_cif.got.tgz:21822.got - 2010.06.03 14:59:27.
