data_PCOD9454940
_publ_section_title
;
Structure prediction by ZEFSAII (Michael W. Deem and Ramdas Pophale) SiO2 
 PCOD9454940
Probable space group: P B C N
;
_chemical_formula_sum "Si O2"
_cell_formula_units_Z 56
_cell_length_a 9.114216
_cell_length_b 14.252073
_cell_length_c 22.760176
_cell_angle_alpha 90.000000
_cell_angle_beta 90.000000
_cell_angle_gamma 90.000000
_cell_volume 2956.466559
_symmetry_space_group_name_H-M "P B C N"
_symmetry_group_IT_number 60
_symmetry_cell_setting 'orthorhombic'
loop_
_space_group_symop_operation_xyz
x,y,z
1/2-x,1/2-y,1/2+z
1/2+x,1/2-y,-z
-x,y,1/2-z
-x,-y,-z
1/2+x,1/2+y,1/2-z
1/2-x,1/2+y,z
x,-y,1/2+z
loop_
_atom_site_type_symbol
_atom_site_label
_atom_site_fract_x
_atom_site_fract_y
_atom_site_fract_z
Si Si1 0.727008 0.506875 0.870679
Si Si2 0.752883 0.691449 0.595498
Si Si3 0.668416 0.535349 0.505658
Si Si4 0.504682 0.644590 0.680495
Si Si5 0.378689 0.874745 0.951984
Si Si6 0.904687 0.320427 0.411745
Si Si7 0.841803 0.323866 0.874455
O O1 0.579762 0.555590 0.847603
O O2 0.840125 0.592536 0.874979
O O3 0.783790 0.413837 0.838306
O O4 0.710988 0.470194 0.937488
O O5 0.687775 0.633417 0.539477
O O6 0.664373 0.653128 0.651405
O O7 0.716912 0.798956 0.582253
O O8 0.925699 0.687416 0.603042
O O9 0.500000 0.500000 0.500000
O O10 0.782924 0.469307 0.541878
O O11 0.500000 0.636404 0.750000
O O12 0.423275 0.740895 0.660894
O O13 0.535852 0.866214 0.919635
O O14 0.398890 0.844444 0.019343
O O15 0.798462 0.231474 0.401324
#
# Coordination Sequence:
#
# PCOD9454940 Si02
#       7
#     8   8   8   8   8   8   8
#     4  10  20  38  59  83 120 157 190 242 299 353
#     4  11  22  35  59  87 117 157 199 240 303 360
#     4  11  21  34  58  93 128 154 196 242 297 375
#     4  10  23  44  60  80 115 155 200 258 304 345
#     4  10  21  33  55  87 125 163 184 234 297 356
#     4  10  20  33  56  88 121 155 191 238 292 359
#     4  10  21  38  58  82 117 156 200 241 294 355
#
# _framework density 18.941528999999999
#
# number of rings (size 3 to 8) (size 9 to 14) (size 15 to 20)
#    0.000    1.714    1.429    3.429    6.000    2.286 
#    0.000    8.571    0.000    0.000    0.000    0.000 
#    0.000    0.000    0.000    0.000    0.000    0.000 
#
# Total GULP energy -312154.583362 kJ/mol
# GULP energy per Si atom -5574.188989 kJ/mol
# Density = 1.889842 g / cm^3
# Si number density = 18.941529 Si / 1000 Ang^3
#
#
#
# Elastic Constant Matrix: (Units=GPa)
#
#
# Indices 1 2 3 4 5 6 
#
# 1 108.2745 3.5928 1.8853 0.0000 0.0000 0.0000
# 2 3.5928 74.5018 -6.5718 0.0000 0.0000 0.0000
# 3 1.8853 -6.5718 51.6405 0.0000 0.0000 0.0000
# 4 0.0000 0.0000 0.0000 6.5057 0.0000 0.0000
# 5 0.0000 0.0000 0.0000 0.0000 4.5129 0.0000
# 6 0.0000 0.0000 0.0000 0.0000 0.0000 15.3337
#
#
#
# Elastic Compliance Matrix: (Units=1/GPa)
#
#
# Indices 1 2 3 4 5 6 
#
# 1 0.009259 -0.000482 -0.000399 0.000000 0.000000 0.000000
# 2 -0.000482 0.013600 0.001748 0.000000 0.000000 0.000000
# 3 -0.000399 0.001748 0.019602 0.000000 0.000000 0.000000
# 4 0.000000 0.000000 0.000000 0.153710 0.000000 0.000000
# 5 0.000000 0.000000 0.000000 0.000000 0.221586 0.000000
# 6 0.000000 0.000000 0.000000 0.000000 0.000000 0.065216
#
#
# Mechanical properties :
#
#
# Convention : Reuss Voigt Hill
#
# Bulk Modulus (GPa) = 22.62703 25.80328 24.21515
# Shear Modulus (GPa) = 10.08127 20.97118 15.52623
#
# Velocity S-wave (km/s) = 2.30952 3.33100 2.86613
# Velocity P-wave (km/s) = 4.36846 5.33350 4.87492
#
# Compressibility (1/GPa) = 0.04419493
#
# Stress axis : x y z
#
# Youngs Moduli (GPa) = 108.00630 73.52973 51.01591
#
# Poissons Ratio (x) = 0.03542 0.02037
# Poissons Ratio (y) = 0.05203 -0.08919
# Poissons Ratio (z) = 0.04313 -0.12855
#
# Static dielectric constant tensor:
#      x y z
#    x 1.729800 0.000000 0.000000 
#    y 0.000000 1.705720 0.000000 
#    z 0.000000 0.000000 1.641520 
# 
# From -- ./inp_files/22225.got.cif
#   From: 2010.05.17/outbox.cif.g08.bks.cpg/sg60_12_cif.got.tgz:22225.got - 2010.06.03 14:59:27.
