data_PCOD9454972
_publ_section_title
;
Structure prediction by ZEFSAII (Michael W. Deem and Ramdas Pophale) SiO2 
 PCOD9454972
Probable space group: P B C N
;
_chemical_formula_sum "Si O2"
_cell_formula_units_Z 52
_cell_length_a 15.272240
_cell_length_b 19.836312
_cell_length_c 9.608202
_cell_angle_alpha 90.000000
_cell_angle_beta 90.000000
_cell_angle_gamma 90.000000
_cell_volume 2910.755963
_symmetry_space_group_name_H-M "P B C N"
_symmetry_group_IT_number 60
_symmetry_cell_setting 'orthorhombic'
loop_
_space_group_symop_operation_xyz
x,y,z
1/2-x,1/2-y,1/2+z
1/2+x,1/2-y,-z
-x,y,1/2-z
-x,-y,-z
1/2+x,1/2+y,1/2-z
1/2-x,1/2+y,z
x,-y,1/2+z
loop_
_atom_site_type_symbol
_atom_site_label
_atom_site_fract_x
_atom_site_fract_y
_atom_site_fract_z
Si Si1 0.326008 0.202867 0.893915
Si Si2 0.683499 0.301357 0.351521
Si Si3 0.549328 0.366961 0.955053
Si Si4 0.500000 0.474562 0.750000
Si Si5 0.814256 0.957694 0.310094
Si Si6 0.000000 0.185476 0.750000
Si Si7 0.000000 0.748739 0.750000
Si Si8 0.760126 0.074322 0.501714
O O1 0.257134 0.208594 0.766337
O O2 0.421687 0.208782 0.824572
O O3 0.306761 0.262503 0.003796
O O4 0.311063 0.133352 0.979592
O O5 0.680628 0.382403 0.372290
O O6 0.589879 0.277531 0.288850
O O7 0.490470 0.424070 0.881389
O O8 0.538132 0.298642 0.868400
O O9 0.650068 0.388903 0.954352
O O10 0.522941 0.356733 0.113335
O O11 0.587417 0.515119 0.783776
O O12 0.757692 0.009919 0.401125
O O13 0.773599 0.952115 0.157506
#
# Coordination Sequence:
#
# PCOD9454972 Si02
#       8
#     8   8   8   4   8   4   4   8
#     4  11  23  40  57  85 113 157 191 246 278 346
#     4  11  24  37  61  84 124 150 193 232 291 341
#     4  10  20  34  54  85 117 156 185 224 276 359
#     4   9  21  30  52  84 124 155 183 210 279 357
#     4  10  21  33  53  83 115 155 182 228 278 349
#     4  12  19  36  55  90 119 158 183 234 273 360
#     4  11  22  36  61  76 115 153 202 236 296 315
#     4  10  22  36  55  82 117 147 190 231 285 345
#
# _framework density 17.864775000000002
#
# number of rings (size 3 to 8) (size 9 to 14) (size 15 to 20)
#    0.000    1.538    4.615    1.385    2.154    3.692 
#    0.000    0.000    0.000    3.692    0.000    2.154 
#    0.000    0.000    0.000    0.000    0.000    0.000 
#
# Total GULP energy -290093.041051 kJ/mol
# GULP energy per Si atom -5578.712328 kJ/mol
# Density = 1.782411 g / cm^3
# Si number density = 17.864775 Si / 1000 Ang^3
#
#
#
# Elastic Constant Matrix: (Units=GPa)
#
#
# Indices 1 2 3 4 5 6 
#
# 1 77.4720 54.1202 35.2753 0.0000 0.0000 0.0000
# 2 54.1202 111.2567 58.7934 0.0000 0.0000 0.0000
# 3 35.2753 58.7934 81.8833 0.0000 0.0000 0.0000
# 4 0.0000 0.0000 0.0000 20.5771 0.0000 0.0000
# 5 0.0000 0.0000 0.0000 0.0000 26.4672 0.0000
# 6 0.0000 0.0000 0.0000 0.0000 0.0000 -10.9740
#
#
#
# Elastic Compliance Matrix: (Units=1/GPa)
#
#
# Indices 1 2 3 4 5 6 
#
# 1 0.019893 -0.008296 -0.002613 0.000000 0.000000 0.000000
# 2 -0.008296 0.017943 -0.009310 0.000000 0.000000 0.000000
# 3 -0.002613 -0.009310 0.020023 0.000000 0.000000 0.000000
# 4 0.000000 0.000000 0.000000 0.048598 0.000000 0.000000
# 5 0.000000 0.000000 0.000000 0.000000 0.037783 0.000000
# 6 0.000000 0.000000 0.000000 0.000000 0.000000 -0.091124
#
#
# Mechanical properties :
#
#
# Convention : Reuss Voigt Hill
#
# Bulk Modulus (GPa) = 57.40071 62.99886 60.19979
# Shear Modulus (GPa) = 50.32157 15.37559 32.84858
#
# Velocity S-wave (km/s) = 5.31311 2.93689 4.29270
# Velocity P-wave (km/s) = 8.35699 6.84407 7.63808
#
# Compressibility (1/GPa) = 0.01742139
#
# Stress axis : x y z
#
# Youngs Moduli (GPa) = 50.26856 55.73060 49.94268
#
# Poissons Ratio (x) = 0.46233 0.13052
# Poissons Ratio (y) = 0.41702 0.46496
# Poissons Ratio (z) = 0.13137 0.51884
#
# Static dielectric constant tensor:
#      x y z
#    x 1.621320 0.000000 0.000000 
#    y 0.000000 1.651860 0.000000 
#    z 0.000000 0.000000 1.620950 
# 
# From -- ./inp_files/6110.got.cif
#   From: 2010.05.17/outbox.cif.g08.bks.cpg/sg60_4_cif.got.tgz:6110.got - 2010.06.03 14:59:27.
