data_PCOD9454788
_publ_section_title
;
Structure prediction by ZEFSAII (Michael W. Deem and Ramdas Pophale) SiO2 
 PCOD9454788
Probable space group: P B C N
;
_chemical_formula_sum "Si O2"
_cell_formula_units_Z 48
_cell_length_a 10.576113
_cell_length_b 13.806705
_cell_length_c 15.650767
_cell_angle_alpha 90.000000
_cell_angle_beta 90.000000
_cell_angle_gamma 90.000000
_cell_volume 2285.344909
_symmetry_space_group_name_H-M "P B C N"
_symmetry_group_IT_number 60
_symmetry_cell_setting 'orthorhombic'
loop_
_space_group_symop_operation_xyz
x,y,z
1/2-x,1/2-y,1/2+z
1/2+x,1/2-y,-z
-x,y,1/2-z
-x,-y,-z
1/2+x,1/2+y,1/2-z
1/2-x,1/2+y,z
x,-y,1/2+z
loop_
_atom_site_type_symbol
_atom_site_label
_atom_site_fract_x
_atom_site_fract_y
_atom_site_fract_z
Si Si1 0.720708 0.717304 0.767248
Si Si2 0.093462 0.544938 0.429989
Si Si3 0.500000 0.873827 0.750000
Si Si4 0.256011 0.849183 0.410830
Si Si5 0.000000 0.942311 0.250000
Si Si6 0.743073 0.804318 0.454749
Si Si7 0.511425 0.569589 0.923101
O O1 0.624733 0.807943 0.765510
O O2 0.793164 0.705367 0.677084
O O3 0.623165 0.625722 0.761879
O O4 0.798603 0.717094 0.856302
O O5 0.028959 0.570276 0.338852
O O6 0.193734 0.458795 0.411978
O O7 0.153628 0.637922 0.478748
O O8 0.000000 0.500000 0.500000
O O9 0.292269 0.790379 0.495524
O O10 0.103446 0.855275 0.415910
O O11 0.998156 0.996062 0.161655
O O12 0.860727 0.873615 0.436982
O O13 0.500000 0.500000 0.000000
#
# Coordination Sequence:
#
# PCOD9454788 Si02
#       7
#     8   8   4   8   4   8   8
#     4   9  19  39  67  88 121 177 216 271 328 403
#     4  12  27  41  65 103 138 181 225 285 348 419
#     4  11  22  46  68  97 136 182 229 276 360 413
#     4  11  23  42  66  98 130 172 227 276 339 407
#     4   7  16  30  58  83 116 150 201 248 312 377
#     4  11  23  42  65  94 133 173 224 277 342 404
#     4  10  19  39  62  91 119 162 213 268 320 381
#
# _framework density 21.003392999999999
#
# number of rings (size 3 to 8) (size 9 to 14) (size 15 to 20)
#    0.000    1.667    3.333    2.000    4.667    0.000 
#    0.000    1.667    0.000    0.000    0.000    0.000 
#    0.000    0.000    0.000    0.000    0.000    0.000 
#
# Total GULP energy -267336.469504 kJ/mol
# GULP energy per Si atom -5569.509781 kJ/mol
# Density = 2.095559 g / cm^3
# Si number density = 21.003393 Si / 1000 Ang^3
#
#
#
# Elastic Constant Matrix: (Units=GPa)
#
#
# Indices 1 2 3 4 5 6 
#
# 1 29.4112 -0.6140 15.9803 0.0000 0.0000 0.0000
# 2 -0.6140 55.0912 46.9498 0.0000 0.0000 0.0000
# 3 15.9803 46.9498 232.9324 0.0000 0.0000 0.0000
# 4 0.0000 0.0000 0.0000 35.9852 0.0000 0.0000
# 5 0.0000 0.0000 0.0000 0.0000 27.3498 0.0000
# 6 0.0000 0.0000 0.0000 0.0000 0.0000 -564.3232
#
#
#
# Elastic Compliance Matrix: (Units=1/GPa)
#
#
# Indices 1 2 3 4 5 6 
#
# 1 0.035724 0.003003 -0.003056 0.000000 0.000000 0.000000
# 2 0.003003 0.022169 -0.004674 0.000000 0.000000 0.000000
# 3 -0.003056 -0.004674 0.005445 0.000000 0.000000 0.000000
# 4 0.000000 0.000000 0.000000 0.027789 0.000000 0.000000
# 5 0.000000 0.000000 0.000000 0.000000 0.036563 0.000000
# 6 0.000000 0.000000 0.000000 0.000000 0.000000 -0.001772
#
#
# Mechanical properties :
#
#
# Convention : Reuss Voigt Hill
#
# Bulk Modulus (GPa) = 18.55913 49.11855 33.83884
# Shear Modulus (GPa) = 32.60852 -83.18973 -25.29061
#
# Velocity S-wave (km/s) = 3.94450 -6.30030 -3.47381
# Velocity P-wave (km/s) = 5.44067 5.43031 0.23732
#
# Compressibility (1/GPa) = 0.05388183
#
# Stress axis : x y z
#
# Youngs Moduli (GPa) = 27.99256 45.10856 183.65801
#
# Poissons Ratio (x) = -0.13544 0.56126
# Poissons Ratio (y) = -0.08405 0.85848
# Poissons Ratio (z) = 0.08555 0.21085
#
# Static dielectric constant tensor:
#      x y z
#    x 1.781310 0.000000 0.000000 
#    y 0.000000 1.797700 0.000000 
#    z 0.000000 0.000000 1.889950 
# 
# From -- ./inp_files/16117.got.cif
#   From: 2010.05.17/outbox.cif.g08.bks.cpg/sg60_9_cif.got.tgz:16117.got - 2010.06.03 14:59:27.
