data_PCOD9454794
_publ_section_title
;
Structure prediction by ZEFSAII (Michael W. Deem and Ramdas Pophale) SiO2 
 PCOD9454794
Probable space group: P B C N
;
_chemical_formula_sum "Si O2"
_cell_formula_units_Z 52
_cell_length_a 13.622487
_cell_length_b 9.709075
_cell_length_c 20.251347
_cell_angle_alpha 90.000000
_cell_angle_beta 90.000000
_cell_angle_gamma 90.000000
_cell_volume 2678.478553
_symmetry_space_group_name_H-M "P B C N"
_symmetry_group_IT_number 60
_symmetry_cell_setting 'orthorhombic'
loop_
_space_group_symop_operation_xyz
x,y,z
1/2-x,1/2-y,1/2+z
1/2+x,1/2-y,-z
-x,y,1/2-z
-x,-y,-z
1/2+x,1/2+y,1/2-z
1/2-x,1/2+y,z
x,-y,1/2+z
loop_
_atom_site_type_symbol
_atom_site_label
_atom_site_fract_x
_atom_site_fract_y
_atom_site_fract_z
Si Si1 0.500000 0.271691 0.750000
Si Si2 0.638061 0.507992 0.269247
Si Si3 0.860656 0.536393 0.736973
Si Si4 0.857507 0.407623 0.462451
Si Si5 0.276269 0.359550 0.599658
Si Si6 0.586009 0.774624 0.824889
Si Si7 0.551604 0.039614 0.101238
O O1 0.422447 0.386783 0.777487
O O2 0.418329 0.159653 0.726077
O O3 0.743799 0.460940 0.242210
O O4 0.660489 0.587923 0.338126
O O5 0.582554 0.370805 0.290315
O O6 0.894798 0.396153 0.772143
O O7 0.894816 0.537164 0.661265
O O8 0.833120 0.250373 0.444787
O O9 0.771067 0.509382 0.437584
O O10 0.878973 0.430915 0.539489
O O11 0.957011 0.454998 0.424747
O O12 0.182437 0.279090 0.629407
O O13 0.493321 0.820252 0.868101
#
# Coordination Sequence:
#
# PCOD9454794 Si02
#       7
#     4   8   8   8   8   8   8
#     4  12  24  38  62 100 130 162 212 268 322 392
#     4  11  24  38  65  97 125 164 215 268 321 391
#     4  11  21  41  65  92 128 168 208 264 329 386
#     4  10  21  39  63  90 117 169 215 253 312 387
#     4  10  19  39  64  87 119 160 218 256 303 384
#     4  10  20  38  63  87 122 166 204 253 323 383
#     4  10  21  38  65  85 124 167 208 254 326 377
#
# _framework density 19.414006000000001
#
# number of rings (size 3 to 8) (size 9 to 14) (size 15 to 20)
#    0.000    1.538    3.077    2.769    4.308    0.000 
#    5.538    0.769    0.000    0.000    0.000    0.000 
#    0.000    0.000    0.000    0.000    0.000    0.000 
#
# Total GULP energy -289784.582827 kJ/mol
# GULP energy per Si atom -5572.780439 kJ/mol
# Density = 1.936982 g / cm^3
# Si number density = 19.414006 Si / 1000 Ang^3
#
#
#
# Elastic Constant Matrix: (Units=GPa)
#
#
# Indices 1 2 3 4 5 6 
#
# 1 88.3615 38.9338 31.6872 0.0000 0.0000 0.0000
# 2 38.9338 121.4756 28.2566 0.0000 0.0000 0.0000
# 3 31.6872 28.2566 101.0868 0.0000 0.0000 0.0000
# 4 0.0000 0.0000 0.0000 17.2339 0.0000 0.0000
# 5 0.0000 0.0000 0.0000 0.0000 24.8186 0.0000
# 6 0.0000 0.0000 0.0000 0.0000 0.0000 23.3012
#
#
#
# Elastic Compliance Matrix: (Units=1/GPa)
#
#
# Indices 1 2 3 4 5 6 
#
# 1 0.014192 -0.003758 -0.003398 0.000000 0.000000 0.000000
# 2 -0.003758 0.009800 -0.001561 0.000000 0.000000 0.000000
# 3 -0.003398 -0.001561 0.011394 0.000000 0.000000 0.000000
# 4 0.000000 0.000000 0.000000 0.058025 0.000000 0.000000
# 5 0.000000 0.000000 0.000000 0.000000 0.040292 0.000000
# 6 0.000000 0.000000 0.000000 0.000000 0.000000 0.042916
#
#
# Mechanical properties :
#
#
# Convention : Reuss Voigt Hill
#
# Bulk Modulus (GPa) = 55.70851 56.51989 56.11420
# Shear Modulus (GPa) = 24.99527 27.20715 26.10121
#
# Velocity S-wave (km/s) = 3.59205 3.74761 3.67066
# Velocity P-wave (km/s) = 6.77946 6.92115 6.85067
#
# Compressibility (1/GPa) = 0.01795058
#
# Stress axis : x y z
#
# Youngs Moduli (GPa) = 70.46413 102.04324 87.76479
#
# Poissons Ratio (x) = 0.38349 0.29823
# Poissons Ratio (y) = 0.26481 0.13703
# Poissons Ratio (z) = 0.23944 0.15932
#
# Static dielectric constant tensor:
#      x y z
#    x 1.732630 0.000000 0.000000 
#    y 0.000000 1.684530 0.000000 
#    z 0.000000 0.000000 1.695160 
# 
# From -- ./inp_files/22841.got.cif
#   From: 2010.05.17/outbox.cif.g08.bks.cpg/sg60_12_cif.got.tgz:22841.got - 2010.06.03 14:59:27.
