data_PCOD9454507
_publ_section_title
;
Structure prediction by ZEFSAII (Michael W. Deem and Ramdas Pophale) SiO2 
 PCOD9454507
Probable space group: P B C N
;
_chemical_formula_sum "Si O2"
_cell_formula_units_Z 48
_cell_length_a 28.418034
_cell_length_b 16.775762
_cell_length_c 4.945576
_cell_angle_alpha 90.000000
_cell_angle_beta 90.000000
_cell_angle_gamma 90.000000
_cell_volume 2357.725094
_symmetry_space_group_name_H-M "P B C N"
_symmetry_group_IT_number 60
_symmetry_cell_setting 'orthorhombic'
loop_
_space_group_symop_operation_xyz
x,y,z
1/2-x,1/2-y,1/2+z
1/2+x,1/2-y,-z
-x,y,1/2-z
-x,-y,-z
1/2+x,1/2+y,1/2-z
1/2-x,1/2+y,z
x,-y,1/2+z
loop_
_atom_site_type_symbol
_atom_site_label
_atom_site_fract_x
_atom_site_fract_y
_atom_site_fract_z
Si Si1 0.456194 0.188794 0.048176
Si Si2 0.341974 0.338098 0.728247
Si Si3 0.500000 0.665274 0.250000
Si Si4 0.256703 0.803831 0.605860
Si Si5 0.355618 0.228979 0.232832
Si Si6 0.500000 0.940935 0.250000
Si Si7 0.923581 0.052061 0.495611
O O1 0.500000 0.172793 0.250000
O O2 0.406155 0.190656 0.189436
O O3 0.467072 0.275074 0.920478
O O4 0.458321 0.121720 0.815811
O O5 0.286899 0.359327 0.688119
O O6 0.350692 0.261821 0.534521
O O7 0.376747 0.404264 0.611652
O O8 0.351561 0.305602 0.029187
O O9 0.466822 0.610008 0.070306
O O10 0.250730 0.773805 0.299978
O O11 0.310679 0.825823 0.660500
O O12 0.500000 0.000000 0.500000
O O13 0.926147 0.026303 0.806240
#
# Coordination Sequence:
#
# PCOD9454507 Si02
#       7
#     8   8   4   8   8   4   8
#     4  11  23  37  66  90 117 154 190 246 298 337
#     4  10  19  36  55  79 115 146 195 249 291 346
#     4  11  24  38  54  85 118 156 212 255 278 330
#     4   8  16  30  54  81 107 138 174 240 302 341
#     4  10  19  34  58  88 113 139 188 248 301 334
#     4  11  24  44  60  85 118 150 182 217 284 380
#     4  12  25  38  53  77 116 171 206 243 293 340
#
# _framework density 20.358608
#
# number of rings (size 3 to 8) (size 9 to 14) (size 15 to 20)
#    0.000    1.667    2.500    2.500    4.667    0.000 
#    0.000    0.000    0.000    2.000    0.000    0.000 
#    0.000    0.000    0.000    0.000    0.000    0.000 
#
# Total GULP energy -267945.144465 kJ/mol
# GULP energy per Si atom -5582.190510 kJ/mol
# Density = 2.031227 g / cm^3
# Si number density = 20.358608 Si / 1000 Ang^3
#
#
#
# Elastic Constant Matrix: (Units=GPa)
#
#
# Indices 1 2 3 4 5 6 
#
# 1 159.3098 26.5429 3.0292 0.0000 0.0000 0.0000
# 2 26.5429 51.9832 1.9761 0.0000 0.0000 0.0000
# 3 3.0292 1.9761 77.0237 0.0000 0.0000 0.0000
# 4 0.0000 0.0000 0.0000 3.4706 0.0000 0.0000
# 5 0.0000 0.0000 0.0000 0.0000 26.9244 0.0000
# 6 0.0000 0.0000 0.0000 0.0000 0.0000 13.6066
#
#
#
# Elastic Compliance Matrix: (Units=1/GPa)
#
#
# Indices 1 2 3 4 5 6 
#
# 1 0.006863 -0.003498 -0.000180 0.000000 0.000000 0.000000
# 2 -0.003498 0.021038 -0.000402 0.000000 0.000000 0.000000
# 3 -0.000180 -0.000402 0.013000 0.000000 0.000000 0.000000
# 4 0.000000 0.000000 0.000000 0.288135 0.000000 0.000000
# 5 0.000000 0.000000 0.000000 0.000000 0.037141 0.000000
# 6 0.000000 0.000000 0.000000 0.000000 0.000000 0.073494
#
#
# Mechanical properties :
#
#
# Convention : Reuss Voigt Hill
#
# Bulk Modulus (GPa) = 30.54190 39.04591 34.79391
# Shear Modulus (GPa) = 10.89929 25.91821 18.40875
#
# Velocity S-wave (km/s) = 2.31631 3.57190 3.01030
# Velocity P-wave (km/s) = 4.71044 6.01930 5.40464
#
# Compressibility (1/GPa) = 0.03274190
#
# Stress axis : x y z
#
# Youngs Moduli (GPa) = 145.70382 47.53273 76.92058
#
# Poissons Ratio (x) = 0.16625 0.01386
# Poissons Ratio (y) = 0.50961 0.03094
# Poissons Ratio (z) = 0.02625 0.01912
#
# Static dielectric constant tensor:
#      x y z
#    x 1.793370 0.000000 0.000000 
#    y 0.000000 1.702040 0.000000 
#    z 0.000000 0.000000 1.754260 
# 
# From -- ./inp_files/2564.got.cif
#   From: 2010.05.17/outbox.cif.g08.bks.cpg/sg60_2_cif.got.tgz:2564.got - 2010.06.03 14:59:27.
