data_PCOD9454152
_publ_section_title
;
Structure prediction by ZEFSAII (Michael W. Deem and Ramdas Pophale) SiO2 
 PCOD9454152
Probable space group: P B C N
;
_chemical_formula_sum "Si O2"
_cell_formula_units_Z 64
_cell_length_a 9.620249
_cell_length_b 22.715656
_cell_length_c 14.675816
_cell_angle_alpha 90.000000
_cell_angle_beta 90.000000
_cell_angle_gamma 90.000000
_cell_volume 3207.109988
_symmetry_space_group_name_H-M "P B C N"
_symmetry_group_IT_number 60
_symmetry_cell_setting 'orthorhombic'
loop_
_space_group_symop_operation_xyz
x,y,z
1/2-x,1/2-y,1/2+z
1/2+x,1/2-y,-z
-x,y,1/2-z
-x,-y,-z
1/2+x,1/2+y,1/2-z
1/2-x,1/2+y,z
x,-y,1/2+z
loop_
_atom_site_type_symbol
_atom_site_label
_atom_site_fract_x
_atom_site_fract_y
_atom_site_fract_z
Si Si1 0.653088 0.838083 0.289352
Si Si2 0.866825 0.934643 0.310854
Si Si3 0.117928 0.107557 0.479899
Si Si4 0.932277 0.201965 0.551985
Si Si5 0.584799 0.431465 0.836302
Si Si6 0.898239 0.338648 0.505514
Si Si7 0.703030 0.150027 0.444129
Si Si8 0.119486 0.750421 0.193309
O O1 0.500000 0.834988 0.250000
O O2 0.735341 0.898711 0.272818
O O3 0.635557 0.834565 0.398606
O O4 0.754678 0.784590 0.258909
O O5 0.884983 0.917206 0.417277
O O6 0.000000 0.919621 0.250000
O O7 0.856669 0.005221 0.308020
O O8 0.274237 0.123184 0.451950
O O9 0.036164 0.170402 0.480430
O O10 0.033801 0.064752 0.414058
O O11 0.902602 0.270812 0.537689
O O12 0.791547 0.166352 0.534355
O O13 0.022135 0.200912 0.643893
O O14 0.500000 0.404988 0.750000
O O15 0.708865 0.394212 0.881686
O O16 0.047815 0.366620 0.526795
O O17 0.685362 0.208716 0.382888
O O18 0.000000 0.716532 0.250000
#
# Coordination Sequence:
#
# PCOD9454152 Si02
#       8
#     8   8   8   8   8   8   8   8
#     4  11  23  37  57  93 123 149 193 254 305 359
#     4  10  21  42  65  86 116 157 208 250 298 360
#     4  10  20  37  61  86 117 159 203 250 292 363
#     4  10  18  36  57  81 119 161 198 230 292 362
#     4  10  23  41  62  85 115 157 211 251 295 358
#     4  10  19  37  55  86 125 155 191 239 305 359
#     4  10  22  37  57  87 117 161 198 242 299 351
#     4  11  22  37  56  87 120 162 198 240 298 368
#
# _framework density 19.955662
#
# number of rings (size 3 to 8) (size 9 to 14) (size 15 to 20)
#    0.000    1.750    3.750    1.500    1.750    3.500 
#    0.000    5.625    0.000    0.000    0.000    0.000 
#    0.000    0.000    0.000    0.000    0.000    0.000 
#
# Total GULP energy -356750.724243 kJ/mol
# GULP energy per Si atom -5574.230066 kJ/mol
# Density = 1.991024 g / cm^3
# Si number density = 19.955662 Si / 1000 Ang^3
#
#
#
# Elastic Constant Matrix: (Units=GPa)
#
#
# Indices 1 2 3 4 5 6 
#
# 1 167.0094 34.6613 15.1483 0.0000 0.0000 0.0000
# 2 34.6613 55.2956 0.5137 0.0000 0.0000 0.0000
# 3 15.1483 0.5137 30.9483 0.0000 0.0000 0.0000
# 4 0.0000 0.0000 0.0000 19.0062 0.0000 0.0000
# 5 0.0000 0.0000 0.0000 0.0000 38.0271 0.0000
# 6 0.0000 0.0000 0.0000 0.0000 0.0000 22.0680
#
#
#
# Elastic Compliance Matrix: (Units=1/GPa)
#
#
# Indices 1 2 3 4 5 6 
#
# 1 0.007237 -0.004504 -0.003468 0.000000 0.000000 0.000000
# 2 -0.004504 0.020891 0.001858 0.000000 0.000000 0.000000
# 3 -0.003468 0.001858 0.033978 0.000000 0.000000 0.000000
# 4 0.000000 0.000000 0.000000 0.052614 0.000000 0.000000
# 5 0.000000 0.000000 0.000000 0.000000 0.026297 0.000000
# 6 0.000000 0.000000 0.000000 0.000000 0.000000 0.045314
#
#
# Mechanical properties :
#
#
# Convention : Reuss Voigt Hill
#
# Bulk Modulus (GPa) = 20.04870 39.32221 29.68545
# Shear Modulus (GPa) = 23.23573 29.34893 26.29233
#
# Velocity S-wave (km/s) = 3.41599 3.83914 3.63373
# Velocity P-wave (km/s) = 5.06232 6.27691 5.70204
#
# Compressibility (1/GPa) = 0.04987854
#
# Stress axis : x y z
#
# Youngs Moduli (GPa) = 138.17856 47.86809 29.43046
#
# Poissons Ratio (x) = 0.21561 0.10205
# Poissons Ratio (y) = 0.62238 -0.05468
# Poissons Ratio (z) = 0.47914 -0.08894
#
# Static dielectric constant tensor:
#      x y z
#    x 1.729100 0.000000 0.000000 
#    y 0.000000 1.705330 0.000000 
#    z 0.000000 0.000000 1.776080 
# 
# From -- ./inp_files/15434.got.cif
#   From: 2010.05.17/outbox.cif.g08.bks.cpg/sg60_8_cif.got.tgz:15434.got - 2010.06.03 14:59:27.
