data_PCOD9454502
_publ_section_title
;
Structure prediction by ZEFSAII (Michael W. Deem and Ramdas Pophale) SiO2 
 PCOD9454502
Probable space group: P B C N
;
_chemical_formula_sum "Si O2"
_cell_formula_units_Z 56
_cell_length_a 18.299906
_cell_length_b 26.982701
_cell_length_c 5.572795
_cell_angle_alpha 90.000000
_cell_angle_beta 90.000000
_cell_angle_gamma 90.000000
_cell_volume 2751.739686
_symmetry_space_group_name_H-M "P B C N"
_symmetry_group_IT_number 60
_symmetry_cell_setting 'orthorhombic'
loop_
_space_group_symop_operation_xyz
x,y,z
1/2-x,1/2-y,1/2+z
1/2+x,1/2-y,-z
-x,y,1/2-z
-x,-y,-z
1/2+x,1/2+y,1/2-z
1/2-x,1/2+y,z
x,-y,1/2+z
loop_
_atom_site_type_symbol
_atom_site_label
_atom_site_fract_x
_atom_site_fract_y
_atom_site_fract_z
Si Si1 0.765638 0.700515 0.183111
Si Si2 0.000000 0.320225 0.250000
Si Si3 0.349026 0.297847 0.175696
Si Si4 0.796260 0.015432 0.478205
Si Si5 0.640618 0.874906 0.387726
Si Si6 0.731717 0.378758 0.059321
Si Si7 0.000000 0.742891 0.250000
Si Si8 0.371108 0.978251 0.942498
O O1 0.795004 0.755280 0.220241
O O2 0.768938 0.664760 0.408818
O O3 0.681723 0.699695 0.095156
O O4 0.818436 0.672676 0.997250
O O5 0.928667 0.354736 0.246975
O O6 0.995664 0.289119 0.501264
O O7 0.331240 0.350534 0.294323
O O8 0.428836 0.277051 0.217316
O O9 0.793583 0.073740 0.413706
O O10 0.830507 0.010931 0.745511
O O11 0.715088 0.993126 0.532053
O O12 0.620385 0.918749 0.570232
O O13 0.703662 0.898913 0.226114
O O14 0.401611 0.997294 0.199037
#
# Coordination Sequence:
#
# PCOD9454502 Si02
#       8
#     8   4   8   8   8   8   4   8
#     4  11  21  38  60  91 121 159 211 264 312 370
#     4  12  28  42  62  85 120 181 216 256 308 386
#     4  11  24  38  62  92 125 166 206 266 313 382
#     4  10  19  35  56  89 121 158 195 257 323 366
#     4  11  23  38  60  87 123 166 222 255 317 374
#     4  11  22  36  64  90 123 161 210 266 314 376
#     4  12  28  48  62  87 136 173 208 256 324 380
#     4  10  19  34  58  83 118 160 200 266 315 360
#
# _framework density 20.350763000000001
#
# number of rings (size 3 to 8) (size 9 to 14) (size 15 to 20)
#    0.000    1.143    5.714    2.571    6.000    0.000 
#    0.000    0.714    0.000    0.000    0.000    1.000 
#    0.000    0.000    0.000    0.000    0.000    0.000 
#
# Total GULP energy -312246.218749 kJ/mol
# GULP energy per Si atom -5575.825335 kJ/mol
# Density = 2.030444 g / cm^3
# Si number density = 20.350763 Si / 1000 Ang^3
#
#
#
# Elastic Constant Matrix: (Units=GPa)
#
#
# Indices 1 2 3 4 5 6 
#
# 1 47.8623 26.8190 4.2646 0.0000 0.0000 0.0000
# 2 26.8190 97.4310 13.7013 0.0000 0.0000 0.0000
# 3 4.2646 13.7013 87.7329 0.0000 0.0000 0.0000
# 4 0.0000 0.0000 0.0000 -19.8826 0.0000 0.0000
# 5 0.0000 0.0000 0.0000 0.0000 0.3247 0.0000
# 6 0.0000 0.0000 0.0000 0.0000 0.0000 0.4614
#
#
#
# Elastic Compliance Matrix: (Units=1/GPa)
#
#
# Indices 1 2 3 4 5 6 
#
# 1 0.024705 -0.006780 -0.000142 0.000000 0.000000 0.000000
# 2 -0.006780 0.012355 -0.001600 0.000000 0.000000 0.000000
# 3 -0.000142 -0.001600 0.011655 0.000000 0.000000 0.000000
# 4 0.000000 0.000000 0.000000 -0.050295 0.000000 0.000000
# 5 0.000000 0.000000 0.000000 0.000000 3.080137 0.000000
# 6 0.000000 0.000000 0.000000 0.000000 0.000000 2.167496
#
#
# Mechanical properties :
#
#
# Convention : Reuss Voigt Hill
#
# Bulk Modulus (GPa) = 31.57500 35.84400 33.70950
# Shear Modulus (GPa) = 0.94811 8.73011 4.83911
#
# Velocity S-wave (km/s) = 0.68330 2.07344 1.54370
# Velocity P-wave (km/s) = 4.02139 4.83565 4.44720
#
# Compressibility (1/GPa) = 0.03167063
#
# Stress axis : x y z
#
# Youngs Moduli (GPa) = 40.47724 80.93860 85.80009
#
# Poissons Ratio (x) = 0.54880 0.01218
# Poissons Ratio (y) = 0.27445 0.13727
# Poissons Ratio (z) = 0.00575 0.12949
#
# Static dielectric constant tensor:
#      x y z
#    x 2.015580 0.000000 0.000000 
#    y 0.000000 1.714090 0.000000 
#    z 0.000000 0.000000 1.896990 
# 
# From -- ./inp_files/1841.got.cif
#   From: 2010.05.17/outbox.cif.g08.bks.cpg/sg60_1_cif.got.tgz:1841.got - 2010.06.03 14:59:27.
