data_PCOD9454000
_publ_section_title
;
Structure prediction by ZEFSAII (Michael W. Deem and Ramdas Pophale) SiO2 
 PCOD9454000
Probable space group: P B C N
;
_chemical_formula_sum "Si O2"
_cell_formula_units_Z 60
_cell_length_a 16.247135
_cell_length_b 7.381168
_cell_length_c 19.176926
_cell_angle_alpha 90.000000
_cell_angle_beta 90.000000
_cell_angle_gamma 90.000000
_cell_volume 2299.751293
_symmetry_space_group_name_H-M "P B C N"
_symmetry_group_IT_number 60
_symmetry_cell_setting 'orthorhombic'
loop_
_space_group_symop_operation_xyz
x,y,z
1/2-x,1/2-y,1/2+z
1/2+x,1/2-y,-z
-x,y,1/2-z
-x,-y,-z
1/2+x,1/2+y,1/2-z
1/2-x,1/2+y,z
x,-y,1/2+z
loop_
_atom_site_type_symbol
_atom_site_label
_atom_site_fract_x
_atom_site_fract_y
_atom_site_fract_z
Si Si1 0.398658 0.273077 0.653693
Si Si2 0.778914 0.764085 0.744738
Si Si3 0.634913 0.146999 0.342659
Si Si4 0.839503 0.215937 0.493646
Si Si5 0.881508 0.780749 0.144822
Si Si6 0.000000 0.824635 0.250000
Si Si7 0.854319 0.646757 0.495072
Si Si8 0.579998 0.132824 0.643426
O O1 0.350688 0.383342 0.713741
O O2 0.380857 0.353338 0.577370
O O3 0.493424 0.220725 0.664205
O O4 0.356262 0.071447 0.657426
O O5 0.717530 0.767503 0.811497
O O6 0.705481 0.759090 0.684898
O O7 0.846461 0.657538 0.698602
O O8 0.566233 0.201699 0.288632
O O9 0.611230 0.206578 0.420442
O O10 0.865664 0.139444 0.568438
O O11 0.860254 0.428902 0.495529
O O12 0.741571 0.195710 0.491161
O O13 0.924705 0.584850 0.136208
O O14 0.944683 0.905607 0.188065
O O15 0.894479 0.707259 0.567158
#
# Coordination Sequence:
#
# PCOD9454000 Si02
#       8
#     8   8   8   8   8   4   8   8
#     4  11  22  36  61  91 118 153 204 263 300 352
#     4  11  20  33  54  86 120 157 185 242 319 361
#     4  10  21  35  56  88 121 150 197 251 311 348
#     4  10  21  39  60  90 119 160 204 250 301 368
#     4  10  21  35  56  88 121 150 197 251 311 348
#     4  10  18  32  54  84 124 142 192 258 306 336
#     4  10  21  39  60  90 119 160 204 250 301 368
#     4  11  22  36  61  91 118 153 204 263 300 352
#
# _framework density 26.089777000000002
#
# number of rings (size 3 to 8) (size 9 to 14) (size 15 to 20)
#    0.000    1.600    4.000    2.000    1.867    1.600 
#    0.000    0.000    0.000    0.800   83.200    0.000 
#    0.000    0.000    0.000    0.000    0.000    0.000 
#
# Total GULP energy -334403.450964 kJ/mol
# GULP energy per Si atom -5573.390849 kJ/mol
# Density = 2.603040 g / cm^3
# Si number density = 26.089777 Si / 1000 Ang^3
#
#
#
# Elastic Constant Matrix: (Units=GPa)
#
#
# Indices 1 2 3 4 5 6 
#
# 1 144.8307 33.6640 13.7862 0.0000 0.0000 0.0000
# 2 33.6640 81.7921 30.4972 0.0000 0.0000 0.0000
# 3 13.7862 30.4972 139.7779 0.0000 0.0000 0.0000
# 4 0.0000 0.0000 0.0000 22.9745 0.0000 0.0000
# 5 0.0000 0.0000 0.0000 0.0000 43.6760 0.0000
# 6 0.0000 0.0000 0.0000 0.0000 0.0000 -1.8528
#
#
#
# Elastic Compliance Matrix: (Units=1/GPa)
#
#
# Indices 1 2 3 4 5 6 
#
# 1 0.007636 -0.003115 -0.000073 0.000000 0.000000 0.000000
# 2 -0.003115 0.014580 -0.002874 0.000000 0.000000 0.000000
# 3 -0.000073 -0.002874 0.007788 0.000000 0.000000 0.000000
# 4 0.000000 0.000000 0.000000 0.043527 0.000000 0.000000
# 5 0.000000 0.000000 0.000000 0.000000 0.022896 0.000000
# 6 0.000000 0.000000 0.000000 0.000000 0.000000 -0.539720
#
#
# Mechanical properties :
#
#
# Convention : Reuss Voigt Hill
#
# Bulk Modulus (GPa) = 55.93173 58.03286 56.98230
# Shear Modulus (GPa) = -11.75893 32.18975 10.21541
#
# Velocity S-wave (km/s) = -2.12530 3.51637 1.98091
# Velocity P-wave (km/s) = 3.93220 6.22722 5.20771
#
# Compressibility (1/GPa) = 0.01787894
#
# Stress axis : x y z
#
# Youngs Moduli (GPa) = 130.96343 68.58772 128.39501
#
# Poissons Ratio (x) = 0.21367 0.00942
# Poissons Ratio (y) = 0.40800 0.36898
# Poissons Ratio (z) = 0.00961 0.19711
#
# Static dielectric constant tensor:
#      x y z
#    x 2.014400 0.000000 0.000000 
#    y 0.000000 2.129590 0.000000 
#    z 0.000000 0.000000 2.157320 
# 
# From -- ./inp_files/22994.got.cif
#   From: 2010.05.17/outbox.cif.g08.bks.cpg/sg60_12_cif.got.tgz:22994.got - 2010.06.03 14:59:27.
