data_PCOD9454298
_publ_section_title
;
Structure prediction by ZEFSAII (Michael W. Deem and Ramdas Pophale) SiO2 
 PCOD9454298
Probable space group: P B C N
;
_chemical_formula_sum "Si O2"
_cell_formula_units_Z 48
_cell_length_a 14.465870
_cell_length_b 23.856981
_cell_length_c 8.081561
_cell_angle_alpha 90.000000
_cell_angle_beta 90.000000
_cell_angle_gamma 90.000000
_cell_volume 2789.043565
_symmetry_space_group_name_H-M "P B C N"
_symmetry_group_IT_number 60
_symmetry_cell_setting 'orthorhombic'
loop_
_space_group_symop_operation_xyz
x,y,z
1/2-x,1/2-y,1/2+z
1/2+x,1/2-y,-z
-x,y,1/2-z
-x,-y,-z
1/2+x,1/2+y,1/2-z
1/2-x,1/2+y,z
x,-y,1/2+z
loop_
_atom_site_type_symbol
_atom_site_label
_atom_site_fract_x
_atom_site_fract_y
_atom_site_fract_z
Si Si1 0.106888 0.046322 0.686702
Si Si2 0.900072 0.698984 0.689854
Si Si3 0.884758 0.814113 0.886531
Si Si4 0.939718 0.780295 0.415748
Si Si5 0.792965 0.153697 0.716537
Si Si6 0.892959 0.073751 0.200844
O O1 0.165358 0.091540 0.788355
O O2 0.113211 0.063908 0.495116
O O3 0.000000 0.049655 0.750000
O O4 0.142741 0.983263 0.713125
O O5 0.876475 0.756152 0.789785
O O6 0.912175 0.722489 0.503826
O O7 0.816727 0.657342 0.725753
O O8 0.000000 0.678646 0.750000
O O9 0.858370 0.867565 0.774987
O O10 0.821613 0.815266 0.048102
O O11 0.990811 0.813717 0.959012
O O12 0.849403 0.814900 0.362547
O O13 0.000000 0.772007 0.250000
O O14 0.000000 0.074331 0.250000
#
# Coordination Sequence:
#
# PCOD9454298 Si02
#       6
#     8   8   8   8   8   8
#     4  11  21  31  48  73 102 131 159 191 236 290
#     4  10  20  33  49  70  97 131 166 201 235 277
#     4  10  19  31  49  72 100 129 159 195 241 288
#     4   9  18  31  47  69  98 128 157 194 240 289
#     4  11  19  31  48  71 100 132 162 195 237 284
#     4  11  19  31  48  71 103 131 156 190 238 296
#
# _framework density 17.2102
#
# number of rings (size 3 to 8) (size 9 to 14) (size 15 to 20)
#    0.000    1.667    0.000   10.000    0.000    0.000 
#    0.000    1.667    0.000    0.000    0.000    4.667 
#    0.000    0.000    0.000    0.000    0.000    0.000 
#
# Total GULP energy -267781.499599 kJ/mol
# GULP energy per Si atom -5578.781242 kJ/mol
# Density = 1.717103 g / cm^3
# Si number density = 17.210200 Si / 1000 Ang^3
#
#
#
# Elastic Constant Matrix: (Units=GPa)
#
#
# Indices 1 2 3 4 5 6 
#
# 1 80.0432 31.3312 -0.5926 0.0000 0.0000 0.0000
# 2 31.3312 50.7407 8.9795 0.0000 0.0000 0.0000
# 3 -0.5926 8.9795 75.5290 0.0000 0.0000 0.0000
# 4 0.0000 0.0000 0.0000 16.9030 0.0000 0.0000
# 5 0.0000 0.0000 0.0000 0.0000 9.0138 0.0000
# 6 0.0000 0.0000 0.0000 0.0000 0.0000 41.1867
#
#
#
# Elastic Compliance Matrix: (Units=1/GPa)
#
#
# Indices 1 2 3 4 5 6 
#
# 1 0.016615 -0.010503 0.001379 0.000000 0.000000 0.000000
# 2 -0.010503 0.026771 -0.003265 0.000000 0.000000 0.000000
# 3 0.001379 -0.003265 0.013639 0.000000 0.000000 0.000000
# 4 0.000000 0.000000 0.000000 0.059161 0.000000 0.000000
# 5 0.000000 0.000000 0.000000 0.000000 0.110941 0.000000
# 6 0.000000 0.000000 0.000000 0.000000 0.000000 0.024280
#
#
# Mechanical properties :
#
#
# Convention : Reuss Voigt Hill
#
# Bulk Modulus (GPa) = 31.01132 31.74991 31.38061
# Shear Modulus (GPa) = 17.42561 24.52704 20.97633
#
# Velocity S-wave (km/s) = 3.18546 3.77921 3.49496
# Velocity P-wave (km/s) = 5.62030 6.12630 5.87875
#
# Compressibility (1/GPa) = 0.03224629
#
# Stress axis : x y z
#
# Youngs Moduli (GPa) = 60.18762 37.35334 73.31940
#
# Poissons Ratio (x) = 0.39233 -0.10111
# Poissons Ratio (y) = 0.63216 0.23940
# Poissons Ratio (z) = -0.08300 0.12197
#
# Static dielectric constant tensor:
#      x y z
#    x 1.580650 0.000000 0.000000 
#    y 0.000000 1.609760 0.000000 
#    z 0.000000 0.000000 1.647940 
# 
# From -- ./inp_files/6039.got.cif
#   From: 2010.05.17/outbox.cif.g08.bks.cpg/sg60_4_cif.got.tgz:6039.got - 2010.06.03 14:59:27.
