data_PCOD9454042
_publ_section_title
;
Structure prediction by ZEFSAII (Michael W. Deem and Ramdas Pophale) SiO2 
 PCOD9454042
Probable space group: P B C N
;
_chemical_formula_sum "Si O2"
_cell_formula_units_Z 48
_cell_length_a 7.876651
_cell_length_b 20.021491
_cell_length_c 15.399683
_cell_angle_alpha 90.000000
_cell_angle_beta 90.000000
_cell_angle_gamma 90.000000
_cell_volume 2428.565384
_symmetry_space_group_name_H-M "P B C N"
_symmetry_group_IT_number 60
_symmetry_cell_setting 'orthorhombic'
loop_
_space_group_symop_operation_xyz
x,y,z
1/2-x,1/2-y,1/2+z
1/2+x,1/2-y,-z
-x,y,1/2-z
-x,-y,-z
1/2+x,1/2+y,1/2-z
1/2-x,1/2+y,z
x,-y,1/2+z
loop_
_atom_site_type_symbol
_atom_site_label
_atom_site_fract_x
_atom_site_fract_y
_atom_site_fract_z
Si Si1 0.349035 0.665328 0.309156
Si Si2 0.302373 0.699473 0.507120
Si Si3 0.575900 0.155780 0.490513
Si Si4 0.528488 0.531502 0.372202
Si Si5 0.403683 0.403033 0.441708
Si Si6 0.633636 0.084609 0.311923
O O1 0.500000 0.695051 0.250000
O O2 0.317069 0.700743 0.400928
O O3 0.410894 0.591342 0.338624
O O4 0.196433 0.649513 0.243465
O O5 0.335648 0.774635 0.537847
O O6 0.451266 0.653588 0.547818
O O7 0.112973 0.671898 0.524464
O O8 0.565187 0.108793 0.405189
O O9 0.712493 0.124799 0.557363
O O10 0.446904 0.458875 0.370933
O O11 0.578790 0.555970 0.468459
O O12 0.706752 0.536867 0.324443
O O13 0.500000 0.050259 0.250000
#
# Coordination Sequence:
#
# PCOD9454042 Si02
#       6
#     8   8   8   8   8   8
#     4   9  18  33  56  78 104 146 191 238 286 334
#     4  11  20  34  55  84 114 151 188 236 279 336
#     4  11  21  33  55  84 117 150 193 235 278 337
#     4   8  17  33  53  76 104 140 173 234 288 333
#     4   9  18  35  51  78 112 136 182 228 284 333
#     4  10  18  33  53  82 108 140 194 241 285 339
#
# _framework density 19.764754
#
# number of rings (size 3 to 8) (size 9 to 14) (size 15 to 20)
#    0.000    2.333    3.333    1.000    0.000    0.000 
#    3.000    3.333    0.000    9.000    0.000    0.000 
#    0.000    0.000    0.000    0.000    0.000    0.000 
#
# Total GULP energy -267307.261526 kJ/mol
# GULP energy per Si atom -5568.901282 kJ/mol
# Density = 1.971977 g / cm^3
# Si number density = 19.764754 Si / 1000 Ang^3
#
#
#
# Elastic Constant Matrix: (Units=GPa)
#
#
# Indices 1 2 3 4 5 6 
#
# 1 117.9690 28.7039 14.1346 0.0000 0.0000 0.0000
# 2 28.7039 59.3851 14.6408 0.0000 0.0000 0.0000
# 3 14.1346 14.6408 29.3843 0.0000 0.0000 0.0000
# 4 0.0000 0.0000 0.0000 10.5655 0.0000 0.0000
# 5 0.0000 0.0000 0.0000 0.0000 13.9123 0.0000
# 6 0.0000 0.0000 0.0000 0.0000 0.0000 10.0402
#
#
#
# Elastic Compliance Matrix: (Units=1/GPa)
#
#
# Indices 1 2 3 4 5 6 
#
# 1 0.009788 -0.004070 -0.002680 0.000000 0.000000 0.000000
# 2 -0.004070 0.020890 -0.008451 0.000000 0.000000 0.000000
# 3 -0.002680 -0.008451 0.039532 0.000000 0.000000 0.000000
# 4 0.000000 0.000000 0.000000 0.094647 0.000000 0.000000
# 5 0.000000 0.000000 0.000000 0.000000 0.071879 0.000000
# 6 0.000000 0.000000 0.000000 0.000000 0.000000 0.099600
#
#
# Mechanical properties :
#
#
# Convention : Reuss Voigt Hill
#
# Bulk Modulus (GPa) = 25.12097 35.74412 30.43255
# Shear Modulus (GPa) = 13.15761 16.85420 15.00590
#
# Velocity S-wave (km/s) = 2.58294 2.92334 2.75839
# Velocity P-wave (km/s) = 4.65113 5.43310 5.05725
#
# Compressibility (1/GPa) = 0.03980737
#
# Stress axis : x y z
#
# Youngs Moduli (GPa) = 102.16218 47.86958 25.29620
#
# Poissons Ratio (x) = 0.19485 0.06780
# Poissons Ratio (y) = 0.41584 0.21377
# Poissons Ratio (z) = 0.27383 0.40453
#
# Static dielectric constant tensor:
#      x y z
#    x 1.766470 0.000000 0.000000 
#    y 0.000000 1.689700 0.000000 
#    z 0.000000 0.000000 1.775740 
# 
# From -- ./inp_files/19607.got.cif
#   From: 2010.05.17/outbox.cif.g08.bks.cpg/sg60_10_cif.got.tgz:19607.got - 2010.06.03 14:59:27.
