data_PCOD9454201
_publ_section_title
;
Structure prediction by ZEFSAII (Michael W. Deem and Ramdas Pophale) SiO2 
 PCOD9454201
Probable space group: P B C N
;
_chemical_formula_sum "Si O2"
_cell_formula_units_Z 44
_cell_length_a 10.566744
_cell_length_b 13.110068
_cell_length_c 13.571084
_cell_angle_alpha 90.000000
_cell_angle_beta 90.000000
_cell_angle_gamma 90.000000
_cell_volume 1880.012206
_symmetry_space_group_name_H-M "P B C N"
_symmetry_group_IT_number 60
_symmetry_cell_setting 'orthorhombic'
loop_
_space_group_symop_operation_xyz
x,y,z
1/2-x,1/2-y,1/2+z
1/2+x,1/2-y,-z
-x,y,1/2-z
-x,-y,-z
1/2+x,1/2+y,1/2-z
1/2-x,1/2+y,z
x,-y,1/2+z
loop_
_atom_site_type_symbol
_atom_site_label
_atom_site_fract_x
_atom_site_fract_y
_atom_site_fract_z
Si Si1 0.556494 0.644960 0.148755
Si Si2 0.811418 0.931280 0.953225
Si Si3 0.791451 0.243235 0.591155
Si Si4 0.902669 0.586688 0.958624
Si Si5 0.000000 0.555049 0.750000
Si Si6 0.206044 0.387695 0.748443
O O1 0.500000 0.692866 0.250000
O O2 0.453256 0.583195 0.087490
O O3 0.664237 0.576083 0.199698
O O4 0.643607 0.721889 0.085948
O O5 0.801545 0.870637 0.054558
O O6 0.738839 0.037759 0.958295
O O7 0.727704 0.876403 0.867238
O O8 0.882352 0.312323 0.522518
O O9 0.825053 0.279679 0.701229
O O10 0.949252 0.609272 0.847891
O O11 0.000000 0.500000 0.000000
O O12 0.890457 0.474867 0.723117
#
# Coordination Sequence:
#
# PCOD9454201 Si02
#       6
#     8   8   8   8   4   8
#     4   8  17  37  58  79 116 162 192 239 310 369
#     4  10  21  36  61  86 122 161 194 255 312 359
#     4  10  21  37  59  91 118 157 211 247 302 386
#     4  11  22  38  60  93 120 158 207 253 308 367
#     4  10  18  38  60  86 126 154 196 266 310 356
#     4   8  18  35  57  83 120 160 191 247 311 356
#
# _framework density 23.404104
#
# number of rings (size 3 to 8) (size 9 to 14) (size 15 to 20)
#    1.091    1.455    1.818    0.000    2.545    0.727 
#    8.182    0.000    0.000    0.000   21.273    0.000 
#    0.000    0.000    0.000    0.000    0.000    0.000 
#
# Total GULP energy -245177.518772 kJ/mol
# GULP energy per Si atom -5572.216336 kJ/mol
# Density = 2.335084 g / cm^3
# Si number density = 23.404104 Si / 1000 Ang^3
#
#
#
# Elastic Constant Matrix: (Units=GPa)
#
#
# Indices 1 2 3 4 5 6 
#
# 1 102.4007 12.0583 -8.0702 0.0000 0.0000 0.0000
# 2 12.0583 40.6881 22.6872 0.0000 0.0000 0.0000
# 3 -8.0702 22.6872 73.6594 0.0000 0.0000 0.0000
# 4 0.0000 0.0000 0.0000 28.9532 0.0000 0.0000
# 5 0.0000 0.0000 0.0000 0.0000 31.9386 0.0000
# 6 0.0000 0.0000 0.0000 0.0000 0.0000 16.8799
#
#
#
# Elastic Compliance Matrix: (Units=1/GPa)
#
#
# Indices 1 2 3 4 5 6 
#
# 1 0.010500 -0.004531 0.002546 0.000000 0.000000 0.000000
# 2 -0.004531 0.031629 -0.010238 0.000000 0.000000 0.000000
# 3 0.002546 -0.010238 0.017008 0.000000 0.000000 0.000000
# 4 0.000000 0.000000 0.000000 0.034539 0.000000 0.000000
# 5 0.000000 0.000000 0.000000 0.000000 0.031310 0.000000
# 6 0.000000 0.000000 0.000000 0.000000 0.000000 0.059242
#
#
# Mechanical properties :
#
#
# Convention : Reuss Voigt Hill
#
# Bulk Modulus (GPa) = 28.82684 30.01100 29.41892
# Shear Modulus (GPa) = 22.70272 28.22586 25.46429
#
# Velocity S-wave (km/s) = 3.11791 3.47655 3.30210
# Velocity P-wave (km/s) = 5.03046 5.38201 5.20920
#
# Compressibility (1/GPa) = 0.03468990
#
# Stress axis : x y z
#
# Youngs Moduli (GPa) = 95.23984 31.61678 58.79477
#
# Poissons Ratio (x) = 0.14327 -0.14969
# Poissons Ratio (y) = 0.43157 0.60195
# Poissons Ratio (z) = -0.24248 0.32370
#
# Static dielectric constant tensor:
#      x y z
#    x 1.945790 0.000000 0.000000 
#    y 0.000000 1.865190 0.000000 
#    z 0.000000 0.000000 1.952640 
# 
# From -- ./inp_files/15983.got.cif
#   From: 2010.05.17/outbox.cif.g08.bks.cpg/sg60_8_cif.got.tgz:15983.got - 2010.06.03 14:59:27.
