data_PCOD9454396
_publ_section_title
;
Structure prediction by ZEFSAII (Michael W. Deem and Ramdas Pophale) SiO2 
 PCOD9454396
Probable space group: P B C N
;
_chemical_formula_sum "Si O2"
_cell_formula_units_Z 64
_cell_length_a 13.335714
_cell_length_b 26.937946
_cell_length_c 7.249953
_cell_angle_alpha 90.000000
_cell_angle_beta 90.000000
_cell_angle_gamma 90.000000
_cell_volume 2604.449507
_symmetry_space_group_name_H-M "P B C N"
_symmetry_group_IT_number 60
_symmetry_cell_setting 'orthorhombic'
loop_
_space_group_symop_operation_xyz
x,y,z
1/2-x,1/2-y,1/2+z
1/2+x,1/2-y,-z
-x,y,1/2-z
-x,-y,-z
1/2+x,1/2+y,1/2-z
1/2-x,1/2+y,z
x,-y,1/2+z
loop_
_atom_site_type_symbol
_atom_site_label
_atom_site_fract_x
_atom_site_fract_y
_atom_site_fract_z
Si Si1 0.316042 0.760444 0.363539
Si Si2 0.621294 0.135449 0.550640
Si Si3 0.789665 0.937625 0.023510
Si Si4 0.392722 0.236953 0.447367
Si Si5 0.547367 0.683227 0.044939
Si Si6 0.770781 0.047870 0.959930
Si Si7 0.399272 0.875547 0.002218
Si Si8 0.514968 0.572668 0.956016
O O1 0.363239 0.805756 0.477544
O O2 0.197849 0.765004 0.349249
O O3 0.364857 0.762602 0.164093
O O4 0.341865 0.705558 0.436278
O O5 0.717499 0.107445 0.471671
O O6 0.615453 0.130900 0.774997
O O7 0.517338 0.112138 0.479444
O O8 0.787149 0.937057 0.246952
O O9 0.904592 0.932777 0.957806
O O10 0.743086 0.990108 0.964848
O O11 0.488370 0.272265 0.445590
O O12 0.394242 0.178499 0.404960
O O13 0.500000 0.676181 0.250000
O O14 0.539185 0.631109 0.946839
O O15 0.686094 0.083953 0.044940
O O16 0.883762 0.050474 0.043067
O O17 0.500000 0.551599 0.750000
#
# Coordination Sequence:
#
# PCOD9454396 Si02
#       8
#     8   8   8   8   8   8   8   8
#     4  10  19  33  53  78 108 142 179 217 259 315
#     4   9  17  33  55  76 103 142 182 215 257 322
#     4  10  21  36  56  79 104 138 180 226 273 321
#     4  10  19  33  53  78 108 142 179 217 259 315
#     4  10  20  33  53  82 110 139 177 218 263 312
#     4  10  21  36  56  79 104 138 180 226 273 321
#     4   9  17  33  55  76 103 142 182 215 257 322
#     4  10  21  37  55  80 110 141 179 220 272 332
#
# _framework density 24.573331
#
# number of rings (size 3 to 8) (size 9 to 14) (size 15 to 20)
#    0.000    2.250    1.250    1.875    0.000    4.500 
#    0.000    1.250    0.000    1.500    0.000    0.000 
#    0.000    0.000    0.000    0.000    0.000    0.000 
#
# Total GULP energy -357574.767594 kJ/mol
# GULP energy per Si atom -5587.105744 kJ/mol
# Density = 2.451740 g / cm^3
# Si number density = 24.573331 Si / 1000 Ang^3
#
#
#
# Elastic Constant Matrix: (Units=GPa)
#
#
# Indices 1 2 3 4 5 6 
#
# 1 88.0884 15.2096 -9.2858 0.0000 0.0000 0.0000
# 2 15.2096 111.2631 -8.8197 0.0000 0.0000 0.0000
# 3 -9.2858 -8.8197 78.2383 0.0000 0.0000 0.0000
# 4 0.0000 0.0000 0.0000 3.4934 0.0000 0.0000
# 5 0.0000 0.0000 0.0000 0.0000 -0.3478 0.0000
# 6 0.0000 0.0000 0.0000 0.0000 0.0000 24.4099
#
#
#
# Elastic Compliance Matrix: (Units=1/GPa)
#
#
# Indices 1 2 3 4 5 6 
#
# 1 0.011742 -0.001508 0.001224 0.000000 0.000000 0.000000
# 2 -0.001508 0.009262 0.000865 0.000000 0.000000 0.000000
# 3 0.001224 0.000865 0.013024 0.000000 0.000000 0.000000
# 4 0.000000 0.000000 0.000000 0.286256 0.000000 0.000000
# 5 0.000000 0.000000 0.000000 0.000000 -2.875117 0.000000
# 6 0.000000 0.000000 0.000000 0.000000 0.000000 0.040967
#
#
# Mechanical properties :
#
#
# Convention : Reuss Voigt Hill
#
# Bulk Modulus (GPa) = 28.41755 30.19978 29.30867
# Shear Modulus (GPa) = -1.99737 24.21014 11.10639
#
# Velocity S-wave (km/s) = -0.90254 3.14223 2.12826
# Velocity P-wave (km/s) = 3.24089 5.04788 4.24173
#
# Compressibility (1/GPa) = 0.03518952
#
# Stress axis : x y z
#
# Youngs Moduli (GPa) = 85.16727 107.96295 76.78007
#
# Poissons Ratio (x) = 0.16282 -0.09394
# Poissons Ratio (y) = 0.12844 -0.06643
# Poissons Ratio (z) = -0.10421 -0.09340
#
# Static dielectric constant tensor:
#      x y z
#    x 1.872160 0.000000 0.000000 
#    y 0.000000 1.882460 0.000000 
#    z 0.000000 0.000000 1.990610 
# 
# From -- ./inp_files/6326.got.cif
#   From: 2010.05.17/outbox.cif.g08.bks.cpg/sg60_4_cif.got.tgz:6326.got - 2010.06.03 14:59:27.
