data_PCOD9454860
_publ_section_title
;
Structure prediction by ZEFSAII (Michael W. Deem and Ramdas Pophale) SiO2 
 PCOD9454860
Probable space group: P B C N
;
_chemical_formula_sum "Si O2"
_cell_formula_units_Z 56
_cell_length_a 13.962105
_cell_length_b 7.665746
_cell_length_c 20.310103
_cell_angle_alpha 90.000000
_cell_angle_beta 90.000000
_cell_angle_gamma 90.000000
_cell_volume 2173.789320
_symmetry_space_group_name_H-M "P B C N"
_symmetry_group_IT_number 60
_symmetry_cell_setting 'orthorhombic'
loop_
_space_group_symop_operation_xyz
x,y,z
1/2-x,1/2-y,1/2+z
1/2+x,1/2-y,-z
-x,y,1/2-z
-x,-y,-z
1/2+x,1/2+y,1/2-z
1/2-x,1/2+y,z
x,-y,1/2+z
loop_
_atom_site_type_symbol
_atom_site_label
_atom_site_fract_x
_atom_site_fract_y
_atom_site_fract_z
Si Si1 0.281076 0.281567 0.768887
Si Si2 0.565247 0.818577 0.573758
Si Si3 0.850845 0.725203 0.939734
Si Si4 0.559561 0.690002 0.315735
Si Si5 0.620443 0.447194 0.610614
Si Si6 0.599645 0.067919 0.213809
Si Si7 0.367505 0.640953 0.537258
O O1 0.340295 0.382678 0.712064
O O2 0.303680 0.372153 0.838550
O O3 0.168032 0.273980 0.764041
O O4 0.333097 0.095226 0.767701
O O5 0.604506 0.874907 0.502456
O O6 0.629754 0.648678 0.592180
O O7 0.579866 0.942113 0.635838
O O8 0.457173 0.746014 0.566650
O O9 0.903691 0.676722 0.871859
O O10 0.736862 0.701298 0.938991
O O11 0.872973 0.932342 0.948918
O O12 0.500000 0.742757 0.250000
O O13 0.480813 0.573680 0.352146
O O14 0.623868 0.344365 0.541987
O O15 0.500000 0.089507 0.250000
#
# Coordination Sequence:
#
# PCOD9454860 Si02
#       7
#     8   8   8   8   8   8   8
#     4  11  26  46  74 102 147 189 243 299 362 435
#     4  11  23  45  72 101 141 185 237 301 356 441
#     4  11  23  44  69 105 139 181 238 290 366 428
#     4  10  21  41  72 100 135 191 237 290 352 430
#     4  10  19  44  74 102 136 191 238 292 365 434
#     4  12  28  49  71 110 146 190 250 304 363 438
#     4  11  23  42  68 105 142 177 232 299 357 436
#
# _framework density 25.761465000000001
#
# number of rings (size 3 to 8) (size 9 to 14) (size 15 to 20)
#    0.000    1.143    2.857    3.857    2.000    7.429 
#    5.143    2.143    0.000    0.000    0.000    0.000 
#    0.000    0.000    0.000    0.000    0.000    0.000 
#
# Total GULP energy -313336.748218 kJ/mol
# GULP energy per Si atom -5595.299075 kJ/mol
# Density = 2.570283 g / cm^3
# Si number density = 25.761465 Si / 1000 Ang^3
#
#
#
# Elastic Constant Matrix: (Units=GPa)
#
#
# Indices 1 2 3 4 5 6 
#
# 1 179.5611 33.7723 67.3688 0.0000 0.0000 0.0000
# 2 33.7723 51.6433 19.4879 0.0000 0.0000 0.0000
# 3 67.3688 19.4879 159.4654 0.0000 0.0000 0.0000
# 4 0.0000 0.0000 0.0000 9.7837 0.0000 0.0000
# 5 0.0000 0.0000 0.0000 0.0000 45.9378 0.0000
# 6 0.0000 0.0000 0.0000 0.0000 0.0000 41.6117
#
#
#
# Elastic Compliance Matrix: (Units=1/GPa)
#
#
# Indices 1 2 3 4 5 6 
#
# 1 0.007254 -0.003761 -0.002605 0.000000 0.000000 0.000000
# 2 -0.003761 0.022249 -0.001130 0.000000 0.000000 0.000000
# 3 -0.002605 -0.001130 0.007510 0.000000 0.000000 0.000000
# 4 0.000000 0.000000 0.000000 0.102211 0.000000 0.000000
# 5 0.000000 0.000000 0.000000 0.000000 0.021769 0.000000
# 6 0.000000 0.000000 0.000000 0.000000 0.000000 0.024032
#
#
# Mechanical properties :
#
#
# Convention : Reuss Voigt Hill
#
# Bulk Modulus (GPa) = 45.41109 70.21421 57.81265
# Shear Modulus (GPa) = 24.11310 37.46936 30.79123
#
# Velocity S-wave (km/s) = 3.06275 3.81789 3.46098
# Velocity P-wave (km/s) = 5.49300 6.83738 6.20173
#
# Compressibility (1/GPa) = 0.02202105
#
# Stress axis : x y z
#
# Youngs Moduli (GPa) = 137.85943 44.94498 133.16357
#
# Poissons Ratio (x) = 0.16902 0.34688
# Poissons Ratio (y) = 0.51844 0.15051
# Poissons Ratio (z) = 0.35911 0.05080
#
# Static dielectric constant tensor:
#      x y z
#    x 2.035770 0.000000 0.000000 
#    y 0.000000 2.115430 0.000000 
#    z 0.000000 0.000000 2.095140 
# 
# From -- ./inp_files/22929.got.cif
#   From: 2010.05.17/outbox.cif.g08.bks.cpg/sg60_12_cif.got.tgz:22929.got - 2010.06.03 14:59:27.
