data_PCOD9454522
_publ_section_title
;
Structure prediction by ZEFSAII (Michael W. Deem and Ramdas Pophale) SiO2 
 PCOD9454522
Probable space group: P B C N
;
_chemical_formula_sum "Si O2"
_cell_formula_units_Z 56
_cell_length_a 5.624093
_cell_length_b 21.097411
_cell_length_c 18.594489
_cell_angle_alpha 90.000000
_cell_angle_beta 90.000000
_cell_angle_gamma 90.000000
_cell_volume 2206.306807
_symmetry_space_group_name_H-M "P B C N"
_symmetry_group_IT_number 60
_symmetry_cell_setting 'orthorhombic'
loop_
_space_group_symop_operation_xyz
x,y,z
1/2-x,1/2-y,1/2+z
1/2+x,1/2-y,-z
-x,y,1/2-z
-x,-y,-z
1/2+x,1/2+y,1/2-z
1/2-x,1/2+y,z
x,-y,1/2+z
loop_
_atom_site_type_symbol
_atom_site_label
_atom_site_fract_x
_atom_site_fract_y
_atom_site_fract_z
Si Si1 0.126362 0.586828 0.480774
Si Si2 0.645368 0.610138 0.643254
Si Si3 0.128094 0.909946 0.523879
Si Si4 0.246018 0.520868 0.289569
Si Si5 0.360923 0.161175 0.344586
Si Si6 0.857619 0.651984 0.866495
Si Si7 0.638602 0.295989 0.861782
O O1 0.378935 0.555059 0.465220
O O2 0.124855 0.651150 0.431851
O O3 0.125436 0.606760 0.563694
O O4 0.875893 0.554158 0.462508
O O5 0.630214 0.617945 0.556647
O O6 0.691244 0.536761 0.658523
O O7 0.386900 0.631259 0.672238
O O8 0.883493 0.645275 0.669805
O O9 0.126077 0.851362 0.578830
O O10 0.500000 0.531384 0.250000
O O11 0.175393 0.588976 0.320346
O O12 0.000000 0.500585 0.250000
O O13 0.616488 0.187364 0.320642
O O14 0.122084 0.198984 0.325995
O O15 0.830668 0.724879 0.889273
#
# Coordination Sequence:
#
# PCOD9454522 Si02
#       7
#     8   8   8   8   8   8   8
#     4   8  16  29  49  84 122 152 180 214 271 349
#     4  10  21  37  58  88 116 154 202 242 291 342
#     4   8  16  29  49  84 122 152 180 214 271 349
#     4  12  26  46  68  80 104 154 214 270 302 334
#     4  10  21  37  58  88 116 154 202 242 291 342
#     4  10  19  34  60  95 131 158 180 217 285 373
#     4  10  19  34  60  95 131 158 180 217 285 373
#
# _framework density 25.381782000000001
#
# number of rings (size 3 to 8) (size 9 to 14) (size 15 to 20)
#    0.000    2.286    0.000    2.571    0.000   10.286 
#    0.000   12.857    0.000   17.143    0.000    0.000 
#    0.000    0.000    0.000    0.000    0.000    0.000 
#
# Total GULP energy -312685.769022 kJ/mol
# GULP energy per Si atom -5583.674447 kJ/mol
# Density = 2.532401 g / cm^3
# Si number density = 25.381782 Si / 1000 Ang^3
#
#
#
# Elastic Constant Matrix: (Units=GPa)
#
#
# Indices 1 2 3 4 5 6 
#
# 1 336.2698 45.6069 36.8504 0.0000 0.0000 0.0000
# 2 45.6069 107.2503 12.1398 0.0000 0.0000 0.0000
# 3 36.8504 12.1398 50.6302 0.0000 0.0000 0.0000
# 4 0.0000 0.0000 0.0000 -12.3329 0.0000 0.0000
# 5 0.0000 0.0000 0.0000 0.0000 30.5323 0.0000
# 6 0.0000 0.0000 0.0000 0.0000 0.0000 22.7738
#
#
#
# Elastic Compliance Matrix: (Units=1/GPa)
#
#
# Indices 1 2 3 4 5 6 
#
# 1 0.003373 -0.001189 -0.002170 0.000000 0.000000 0.000000
# 2 -0.001189 0.010003 -0.001533 0.000000 0.000000 0.000000
# 3 -0.002170 -0.001533 0.021698 0.000000 0.000000 0.000000
# 4 0.000000 0.000000 0.000000 -0.081084 0.000000 0.000000
# 5 0.000000 0.000000 0.000000 0.000000 0.032752 0.000000
# 6 0.000000 0.000000 0.000000 0.000000 0.000000 0.043910
#
#
# Mechanical properties :
#
#
# Convention : Reuss Voigt Hill
#
# Bulk Modulus (GPa) = 39.54102 75.92715 57.73408
# Shear Modulus (GPa) = 102.32119 34.83153 68.57636
#
# Velocity S-wave (km/s) = 6.35613 3.70848 5.20352
# Velocity P-wave (km/s) = 8.33543 6.95098 7.67449
#
# Compressibility (1/GPa) = 0.02529019
#
# Stress axis : x y z
#
# Youngs Moduli (GPa) = 296.49005 99.97003 46.08725
#
# Poissons Ratio (x) = 0.11883 0.10000
# Poissons Ratio (y) = 0.35242 0.07067
# Poissons Ratio (z) = 0.64333 0.15329
#
# Static dielectric constant tensor:
#      x y z
#    x 2.181870 0.000000 0.000000 
#    y 0.000000 1.867940 0.000000 
#    z 0.000000 0.000000 2.045090 
# 
# From -- ./inp_files/23687.got.cif
#   From: 2010.05.17/outbox.cif.g08.bks.cpg/sg60_12_cif.got.tgz:23687.got - 2010.06.03 14:59:27.
