data_PCOD9454963
_publ_section_title
;
Structure prediction by ZEFSAII (Michael W. Deem and Ramdas Pophale) SiO2 
 PCOD9454963
Probable space group: P B C N
;
_chemical_formula_sum "Si O2"
_cell_formula_units_Z 64
_cell_length_a 10.983007
_cell_length_b 12.985939
_cell_length_c 22.042605
_cell_angle_alpha 90.000000
_cell_angle_beta 90.000000
_cell_angle_gamma 90.000000
_cell_volume 3143.819020
_symmetry_space_group_name_H-M "P B C N"
_symmetry_group_IT_number 60
_symmetry_cell_setting 'orthorhombic'
loop_
_space_group_symop_operation_xyz
x,y,z
1/2-x,1/2-y,1/2+z
1/2+x,1/2-y,-z
-x,y,1/2-z
-x,-y,-z
1/2+x,1/2+y,1/2-z
1/2-x,1/2+y,z
x,-y,1/2+z
loop_
_atom_site_type_symbol
_atom_site_label
_atom_site_fract_x
_atom_site_fract_y
_atom_site_fract_z
Si Si1 0.055980 0.935173 0.816131
Si Si2 0.635164 0.429847 0.468892
Si Si3 0.049145 0.151463 0.867419
Si Si4 0.667293 0.779753 0.808574
Si Si5 0.807244 0.675327 0.168246
Si Si6 0.976931 0.517803 0.321042
Si Si7 0.962528 0.865591 0.936131
Si Si8 0.144087 0.336424 0.105152
O O1 0.171377 0.865150 0.829937
O O2 0.000000 0.922579 0.750000
O O3 0.959201 0.904007 0.866857
O O4 0.090956 0.052950 0.829397
O O5 0.525151 0.387754 0.425753
O O6 0.626907 0.553640 0.469242
O O7 0.594629 0.386941 0.534075
O O8 0.758478 0.391788 0.438643
O O9 0.156863 0.232949 0.877225
O O10 0.948981 0.213618 0.828887
O O11 0.676795 0.779314 0.736302
O O12 0.778867 0.727889 0.844250
O O13 0.633426 0.898333 0.824664
O O14 0.902421 0.581212 0.159340
O O15 0.940258 0.419495 0.360704
O O16 0.000000 0.491271 0.250000
O O17 0.927766 0.747233 0.934613
#
# Coordination Sequence:
#
# PCOD9454963 Si02
#       8
#     8   8   8   8   8   8   8   8
#     4  11  22  35  55  84 114 146 186 231 291 356
#     4   9  21  41  60  79 111 153 193 237 285 345
#     4   9  19  36  57  76 103 151 194 222 280 351
#     4   9  18  34  54  78 113 153 184 223 286 355
#     4  10  20  34  53  80 119 149 182 240 290 337
#     4   9  20  35  52  85 121 149 188 237 290 342
#     4  10  22  39  57  83 113 145 193 237 280 347
#     4  11  20  34  62  86 110 152 197 239 287 341
#
# _framework density 20.357403999999999
#
# number of rings (size 3 to 8) (size 9 to 14) (size 15 to 20)
#    0.000    2.250    0.000    3.375    0.000   10.500 
#    0.000    2.500    0.000    8.250    0.000    0.000 
#    0.000    0.000    0.000    0.000    0.000    0.000 
#
# Total GULP energy -357010.600974 kJ/mol
# GULP energy per Si atom -5578.290640 kJ/mol
# Density = 2.031107 g / cm^3
# Si number density = 20.357404 Si / 1000 Ang^3
#
#
#
# Elastic Constant Matrix: (Units=GPa)
#
#
# Indices 1 2 3 4 5 6 
#
# 1 37.0233 19.3754 1.0442 0.0000 0.0000 0.0000
# 2 19.3754 102.5492 10.4834 0.0000 0.0000 0.0000
# 3 1.0442 10.4834 58.4956 0.0000 0.0000 0.0000
# 4 0.0000 0.0000 0.0000 26.6855 0.0000 0.0000
# 5 0.0000 0.0000 0.0000 0.0000 15.6196 0.0000
# 6 0.0000 0.0000 0.0000 0.0000 0.0000 21.0096
#
#
#
# Elastic Compliance Matrix: (Units=1/GPa)
#
#
# Indices 1 2 3 4 5 6 
#
# 1 0.029987 -0.005716 0.000489 0.000000 0.000000 0.000000
# 2 -0.005716 0.011023 -0.001873 0.000000 0.000000 0.000000
# 3 0.000489 -0.001873 0.017422 0.000000 0.000000 0.000000
# 4 0.000000 0.000000 0.000000 0.037473 0.000000 0.000000
# 5 0.000000 0.000000 0.000000 0.000000 0.064022 0.000000
# 6 0.000000 0.000000 0.000000 0.000000 0.000000 0.047597
#
#
# Mechanical properties :
#
#
# Convention : Reuss Voigt Hill
#
# Bulk Modulus (GPa) = 22.60789 28.87488 25.74139
# Shear Modulus (GPa) = 21.14435 23.80730 22.47582
#
# Velocity S-wave (km/s) = 3.22632 3.42346 3.32635
# Velocity P-wave (km/s) = 5.00084 5.46274 5.23688
#
# Compressibility (1/GPa) = 0.04423235
#
# Stress axis : x y z
#
# Youngs Moduli (GPa) = 33.34730 90.72061 57.39758
#
# Poissons Ratio (x) = 0.51854 -0.02807
# Poissons Ratio (y) = 0.19060 0.10753
# Poissons Ratio (z) = -0.01631 0.16996
#
# Static dielectric constant tensor:
#      x y z
#    x 1.742920 0.000000 0.000000 
#    y 0.000000 1.746440 0.000000 
#    z 0.000000 0.000000 1.735970 
# 
# From -- ./inp_files/24313.got.cif
#   From: 2010.05.17/outbox.cif.g08.bks.cpg/sg60_13_cif.got.tgz:24313.got - 2010.06.03 14:59:27.
