data_PCOD9454119
_publ_section_title
;
Structure prediction by ZEFSAII (Michael W. Deem and Ramdas Pophale) SiO2 
 PCOD9454119
Probable space group: P B C N
;
_chemical_formula_sum "Si O2"
_cell_formula_units_Z 44
_cell_length_a 9.776698
_cell_length_b 24.163352
_cell_length_c 10.173237
_cell_angle_alpha 90.000000
_cell_angle_beta 90.000000
_cell_angle_gamma 90.000000
_cell_volume 2403.303079
_symmetry_space_group_name_H-M "P B C N"
_symmetry_group_IT_number 60
_symmetry_cell_setting 'orthorhombic'
loop_
_space_group_symop_operation_xyz
x,y,z
1/2-x,1/2-y,1/2+z
1/2+x,1/2-y,-z
-x,y,1/2-z
-x,-y,-z
1/2+x,1/2+y,1/2-z
1/2-x,1/2+y,z
x,-y,1/2+z
loop_
_atom_site_type_symbol
_atom_site_label
_atom_site_fract_x
_atom_site_fract_y
_atom_site_fract_z
Si Si1 0.706990 0.180503 0.520124
Si Si2 0.385955 0.952984 0.134374
Si Si3 0.927617 0.423163 0.886546
Si Si4 0.265228 0.652288 0.677269
Si Si5 0.000000 0.774351 0.250000
Si Si6 0.918237 0.268076 0.494655
O O1 0.662083 0.127574 0.436870
O O2 0.734154 0.161976 0.669039
O O3 0.836140 0.212449 0.458252
O O4 0.578319 0.222456 0.530074
O O5 0.500000 0.944070 0.250000
O O6 0.257758 0.912517 0.153840
O O7 0.351890 0.017964 0.132786
O O8 0.460048 0.936331 0.998779
O O9 0.000000 0.409001 0.750000
O O10 0.408720 0.684097 0.662288
O O11 0.158305 0.683164 0.581882
O O12 0.088344 0.735553 0.345952
#
# Coordination Sequence:
#
# PCOD9454119 Si02
#       6
#     8   8   8   8   4   8
#     4  11  22  35  57  85 120 152 193 239 292 353
#     4  10  18  35  57  84 110 147 196 241 303 341
#     4  10  21  32  55  88 114 143 193 253 287 342
#     4  11  20  38  59  79 119 154 197 236 298 354
#     4  10  24  36  56  92 110 160 200 240 290 368
#     4  11  21  36  55  84 119 153 192 239 289 351
#
# _framework density 18.308136999999999
#
# number of rings (size 3 to 8) (size 9 to 14) (size 15 to 20)
#    0.000    1.455    5.455    0.545    1.273    0.000 
#    0.000    0.000    0.000    4.364   14.182    0.000 
#    0.000    0.000    0.000    0.000    0.000    0.000 
#
# Total GULP energy -245121.116928 kJ/mol
# GULP energy per Si atom -5570.934476 kJ/mol
# Density = 1.826647 g / cm^3
# Si number density = 18.308137 Si / 1000 Ang^3
#
#
#
# Elastic Constant Matrix: (Units=GPa)
#
#
# Indices 1 2 3 4 5 6 
#
# 1 32.5341 26.1367 16.4370 0.0000 0.0000 0.0000
# 2 26.1367 126.6802 43.9256 0.0000 0.0000 0.0000
# 3 16.4370 43.9256 75.3119 0.0000 0.0000 0.0000
# 4 0.0000 0.0000 0.0000 24.4203 0.0000 0.0000
# 5 0.0000 0.0000 0.0000 0.0000 24.2260 0.0000
# 6 0.0000 0.0000 0.0000 0.0000 0.0000 4.3887
#
#
#
# Elastic Compliance Matrix: (Units=1/GPa)
#
#
# Indices 1 2 3 4 5 6 
#
# 1 0.038115 -0.006242 -0.004678 0.000000 0.000000 0.000000
# 2 -0.006242 0.010917 -0.005005 0.000000 0.000000 0.000000
# 3 -0.004678 -0.005005 0.017218 0.000000 0.000000 0.000000
# 4 0.000000 0.000000 0.000000 0.040950 0.000000 0.000000
# 5 0.000000 0.000000 0.000000 0.000000 0.041278 0.000000
# 6 0.000000 0.000000 0.000000 0.000000 0.000000 0.227858
#
#
# Mechanical properties :
#
#
# Convention : Reuss Voigt Hill
#
# Bulk Modulus (GPa) = 29.06950 45.28056 37.17503
# Shear Modulus (GPa) = 11.91460 20.47546 16.19503
#
# Velocity S-wave (km/s) = 2.55381 3.34785 2.97742
# Velocity P-wave (km/s) = 4.96068 6.30320 5.67180
#
# Compressibility (1/GPa) = 0.03440032
#
# Stress axis : x y z
#
# Youngs Moduli (GPa) = 26.23641 91.59850 58.07741
#
# Poissons Ratio (x) = 0.57174 0.27170
# Poissons Ratio (y) = 0.16376 0.29069
# Poissons Ratio (z) = 0.12274 0.45847
#
# Static dielectric constant tensor:
#      x y z
#    x 1.665740 0.000000 0.000000 
#    y 0.000000 1.668000 0.000000 
#    z 0.000000 0.000000 1.662870 
# 
# From -- ./inp_files/5013.got.cif
#   From: 2010.05.17/outbox.cif.g08.bks.cpg/sg60_3_cif.got.tgz:5013.got - 2010.06.03 14:59:27.
