data_PCOD9454823
_publ_section_title
;
Structure prediction by ZEFSAII (Michael W. Deem and Ramdas Pophale) SiO2 
 PCOD9454823
Probable space group: P B C N
;
_chemical_formula_sum "Si O2"
_cell_formula_units_Z 64
_cell_length_a 8.081549
_cell_length_b 17.855088
_cell_length_c 21.006360
_cell_angle_alpha 90.000000
_cell_angle_beta 90.000000
_cell_angle_gamma 90.000000
_cell_volume 3031.149867
_symmetry_space_group_name_H-M "P B C N"
_symmetry_group_IT_number 60
_symmetry_cell_setting 'orthorhombic'
loop_
_space_group_symop_operation_xyz
x,y,z
1/2-x,1/2-y,1/2+z
1/2+x,1/2-y,-z
-x,y,1/2-z
-x,-y,-z
1/2+x,1/2+y,1/2-z
1/2-x,1/2+y,z
x,-y,1/2+z
loop_
_atom_site_type_symbol
_atom_site_label
_atom_site_fract_x
_atom_site_fract_y
_atom_site_fract_z
Si Si1 0.739092 0.500563 0.868405
Si Si2 0.462364 0.367852 0.678849
Si Si3 0.174504 0.318292 0.426747
Si Si4 0.964296 0.122966 0.941666
Si Si5 0.296397 0.245508 0.126466
Si Si6 0.590489 0.857567 0.315989
Si Si7 0.821582 0.860865 0.569348
Si Si8 0.542892 0.117654 0.439703
O O1 0.648514 0.441894 0.822386
O O2 0.607785 0.550205 0.907607
O O3 0.853622 0.452990 0.916090
O O4 0.847964 0.559184 0.829450
O O5 0.500000 0.341347 0.750000
O O6 0.364067 0.308036 0.634351
O O7 0.627398 0.384171 0.639884
O O8 0.355660 0.354258 0.416295
O O9 0.038052 0.336909 0.372942
O O10 0.196093 0.228957 0.430970
O O11 0.112677 0.348744 0.494853
O O12 0.836671 0.192231 0.927234
O O13 0.958942 0.115477 0.017715
O O14 0.436043 0.183048 0.114417
O O15 0.252415 0.303003 0.183142
O O16 0.500000 0.849741 0.250000
O O17 0.649106 0.898097 0.550804
#
# Coordination Sequence:
#
# PCOD9454823 Si02
#       8
#     8   8   8   8   8   8   8   8
#     4  10  26  44  64  94 134 176 214 282 328 404
#     4  11  25  44  68  94 134 178 223 264 330 393
#     4  12  23  39  69  99 131 168 217 283 328 395
#     4  11  23  40  66 100 131 166 220 272 346 385
#     4  10  19  40  65  92 127 164 214 266 310 386
#     4  11  25  44  68  94 134 178 223 264 330 393
#     4  12  23  39  69  99 131 168 217 283 328 395
#     4  11  23  40  66 100 131 166 220 272 346 385
#
# _framework density 21.114099
#
# number of rings (size 3 to 8) (size 9 to 14) (size 15 to 20)
#    0.000    1.000    3.750    3.375    0.000    7.000 
#    0.000    5.000    0.000    0.000    0.000    0.000 
#    0.000    0.000    0.000    0.000    0.000    0.000 
#
# Total GULP energy -357061.474106 kJ/mol
# GULP energy per Si atom -5579.085533 kJ/mol
# Density = 2.106604 g / cm^3
# Si number density = 21.114099 Si / 1000 Ang^3
#
#
#
# Elastic Constant Matrix: (Units=GPa)
#
#
# Indices 1 2 3 4 5 6 
#
# 1 69.8597 17.7274 14.3846 0.0000 0.0000 0.0000
# 2 17.7274 78.5820 0.0748 0.0000 0.0000 0.0000
# 3 14.3846 0.0748 63.4950 0.0000 0.0000 0.0000
# 4 0.0000 0.0000 0.0000 11.1773 0.0000 0.0000
# 5 0.0000 0.0000 0.0000 0.0000 30.0254 0.0000
# 6 0.0000 0.0000 0.0000 0.0000 0.0000 37.0637
#
#
#
# Elastic Compliance Matrix: (Units=1/GPa)
#
#
# Indices 1 2 3 4 5 6 
#
# 1 0.015972 -0.003600 -0.003614 0.000000 0.000000 0.000000
# 2 -0.003600 0.013537 0.000800 0.000000 0.000000 0.000000
# 3 -0.003614 0.000800 0.016567 0.000000 0.000000 0.000000
# 4 0.000000 0.000000 0.000000 0.089467 0.000000 0.000000
# 5 0.000000 0.000000 0.000000 0.000000 0.033305 0.000000
# 6 0.000000 0.000000 0.000000 0.000000 0.000000 0.026981
#
#
# Mechanical properties :
#
#
# Convention : Reuss Voigt Hill
#
# Bulk Modulus (GPa) = 30.07757 30.70114 30.38936
# Shear Modulus (GPa) = 22.75414 27.63661 25.19537
#
# Velocity S-wave (km/s) = 3.28636 3.62182 3.45816
# Velocity P-wave (km/s) = 5.35503 5.66236 5.51084
#
# Compressibility (1/GPa) = 0.03324736
#
# Stress axis : x y z
#
# Youngs Moduli (GPa) = 62.60945 73.87238 60.36050
#
# Poissons Ratio (x) = 0.26592 0.21815
# Poissons Ratio (y) = 0.22538 -0.04826
# Poissons Ratio (z) = 0.22628 -0.05907
#
# Static dielectric constant tensor:
#      x y z
#    x 1.764000 0.000000 0.000000 
#    y 0.000000 1.777150 0.000000 
#    z 0.000000 0.000000 1.739780 
# 
# From -- ./inp_files/22368.got.cif
#   From: 2010.05.17/outbox.cif.g08.bks.cpg/sg60_12_cif.got.tgz:22368.got - 2010.06.03 14:59:27.
