data_PCOD9454947
_publ_section_title
;
Structure prediction by ZEFSAII (Michael W. Deem and Ramdas Pophale) SiO2 
 PCOD9454947
Probable space group: P B C N
;
_chemical_formula_sum "Si O2"
_cell_formula_units_Z 48
_cell_length_a 12.166753
_cell_length_b 16.775682
_cell_length_c 11.438153
_cell_angle_alpha 90.000000
_cell_angle_beta 90.000000
_cell_angle_gamma 90.000000
_cell_volume 2334.590844
_symmetry_space_group_name_H-M "P B C N"
_symmetry_group_IT_number 60
_symmetry_cell_setting 'orthorhombic'
loop_
_space_group_symop_operation_xyz
x,y,z
1/2-x,1/2-y,1/2+z
1/2+x,1/2-y,-z
-x,y,1/2-z
-x,-y,-z
1/2+x,1/2+y,1/2-z
1/2-x,1/2+y,z
x,-y,1/2+z
loop_
_atom_site_type_symbol
_atom_site_label
_atom_site_fract_x
_atom_site_fract_y
_atom_site_fract_z
Si Si1 0.575919 0.279500 0.142584
Si Si2 0.780133 0.838838 0.681010
Si Si3 0.691122 0.624741 0.444590
Si Si4 0.310212 0.972293 0.984531
Si Si5 0.999081 0.422662 0.373789
Si Si6 0.902814 0.279353 0.030993
O O1 0.500000 0.308068 0.250000
O O2 0.681696 0.227992 0.185082
O O3 0.610882 0.346817 0.048754
O O4 0.496840 0.223320 0.066066
O O5 0.831019 0.855738 0.808608
O O6 0.731493 0.918818 0.622147
O O7 0.866607 0.803159 0.588179
O O8 0.720437 0.531650 0.461573
O O9 0.798342 0.678461 0.473157
O O10 0.410037 0.030266 0.947632
O O11 0.375409 0.918432 0.078128
O O12 0.051050 0.335420 0.367279
O O13 0.000000 0.464804 0.250000
#
# Coordination Sequence:
#
# PCOD9454947 Si02
#       6
#     8   8   8   8   8   8
#     4  11  22  42  66  89 132 171 208 268 330 381
#     4  11  22  39  66  92 133 165 216 277 318 392
#     4  10  23  40  62  95 125 171 222 257 326 390
#     4  10  21  39  57  92 127 169 209 267 329 379
#     4  10  20  33  60  90 124 158 212 267 324 384
#     4  10  22  37  60  96 120 164 215 264 324 380
#
# _framework density 20.560348999999999
#
# number of rings (size 3 to 8) (size 9 to 14) (size 15 to 20)
#    0.000    1.667    3.333    1.000    2.333    0.667 
#    6.000    0.833    0.000    0.000    0.000    0.000 
#    0.000    0.000    0.000    0.000    0.000    0.000 
#
# Total GULP energy -267404.834613 kJ/mol
# GULP energy per Si atom -5570.934054 kJ/mol
# Density = 2.051355 g / cm^3
# Si number density = 20.560349 Si / 1000 Ang^3
#
#
#
# Elastic Constant Matrix: (Units=GPa)
#
#
# Indices 1 2 3 4 5 6 
#
# 1 33.1442 8.0809 8.5459 0.0000 0.0000 0.0000
# 2 8.0809 50.6959 8.0701 0.0000 0.0000 0.0000
# 3 8.5459 8.0701 88.0791 0.0000 0.0000 0.0000
# 4 0.0000 0.0000 0.0000 8.1999 0.0000 0.0000
# 5 0.0000 0.0000 0.0000 0.0000 34.4116 0.0000
# 6 0.0000 0.0000 0.0000 0.0000 0.0000 -12.1203
#
#
#
# Elastic Compliance Matrix: (Units=1/GPa)
#
#
# Indices 1 2 3 4 5 6 
#
# 1 0.032001 -0.004675 -0.002677 0.000000 0.000000 0.000000
# 2 -0.004675 0.020700 -0.001443 0.000000 0.000000 0.000000
# 3 -0.002677 -0.001443 0.011745 0.000000 0.000000 0.000000
# 4 0.000000 0.000000 0.000000 0.121953 0.000000 0.000000
# 5 0.000000 0.000000 0.000000 0.000000 0.029060 0.000000
# 6 0.000000 0.000000 0.000000 0.000000 0.000000 -0.082506
#
#
# Mechanical properties :
#
#
# Convention : Reuss Voigt Hill
#
# Bulk Modulus (GPa) = 21.34118 24.59033 22.96576
# Shear Modulus (GPa) = 30.09107 15.91305 23.00206
#
# Velocity S-wave (km/s) = 3.82979 2.78505 3.34841
# Velocity P-wave (km/s) = 5.47345 4.72525 5.11306
#
# Compressibility (1/GPa) = 0.04685776
#
# Stress axis : x y z
#
# Youngs Moduli (GPa) = 31.24889 48.30833 85.14011
#
# Poissons Ratio (x) = 0.22584 0.22788
# Poissons Ratio (y) = 0.14609 0.12286
# Poissons Ratio (z) = 0.08364 0.06971
#
# Static dielectric constant tensor:
#      x y z
#    x 1.765560 0.000000 0.000000 
#    y 0.000000 1.760330 0.000000 
#    z 0.000000 0.000000 1.788490 
# 
# From -- ./inp_files/11004.got.cif
#   From: 2010.05.17/outbox.cif.g08.bks.cpg/sg60_6_cif.got.tgz:11004.got - 2010.06.03 14:59:27.
