data_PCOD9454693
_publ_section_title
;
Structure prediction by ZEFSAII (Michael W. Deem and Ramdas Pophale) SiO2 
 PCOD9454693
Probable space group: P B C N
;
_chemical_formula_sum "Si O2"
_cell_formula_units_Z 60
_cell_length_a 15.636232
_cell_length_b 8.199348
_cell_length_c 24.187283
_cell_angle_alpha 90.000000
_cell_angle_beta 90.000000
_cell_angle_gamma 90.000000
_cell_volume 3100.976756
_symmetry_space_group_name_H-M "P B C N"
_symmetry_group_IT_number 60
_symmetry_cell_setting 'orthorhombic'
loop_
_space_group_symop_operation_xyz
x,y,z
1/2-x,1/2-y,1/2+z
1/2+x,1/2-y,-z
-x,y,1/2-z
-x,-y,-z
1/2+x,1/2+y,1/2-z
1/2-x,1/2+y,z
x,-y,1/2+z
loop_
_atom_site_type_symbol
_atom_site_label
_atom_site_fract_x
_atom_site_fract_y
_atom_site_fract_z
Si Si1 0.639585 0.513036 0.464411
Si Si2 0.792970 0.316249 0.414654
Si Si3 0.000000 0.868374 0.250000
Si Si4 0.144602 0.983791 0.908768
Si Si5 0.475152 0.382309 0.135193
Si Si6 0.202255 0.340613 0.352196
Si Si7 0.656465 0.104581 0.345569
Si Si8 0.340828 0.856926 0.781720
O O1 0.728908 0.425365 0.450420
O O2 0.653100 0.704227 0.455289
O O3 0.619930 0.470128 0.527146
O O4 0.575661 0.458483 0.416146
O O5 0.732924 0.205345 0.375179
O O6 0.848090 0.432685 0.375943
O O7 0.965599 0.963831 0.303721
O O8 0.924909 0.753932 0.226079
O O9 0.149412 0.805696 0.880312
O O10 0.235835 0.070545 0.897030
O O11 0.073292 0.098217 0.881146
O O12 0.429941 0.207911 0.144901
O O13 0.151413 0.484194 0.320750
O O14 0.265220 0.252727 0.307781
O O15 0.678147 0.088519 0.281125
#
# Coordination Sequence:
#
# PCOD9454693 Si02
#       8
#     8   8   4   8   8   8   8   8
#     4  10  20  36  61  81 120 153 193 242 287 343
#     4   9  18  35  54  90 108 146 199 231 291 340
#     4  10  20  40  60  80 122 152 192 234 302 348
#     4  11  21  40  56  85 114 153 198 239 287 347
#     4  10  21  38  57  81 115 156 186 240 294 341
#     4  10  22  36  61  84 112 149 202 236 291 347
#     4   9  18  33  59  80 117 146 185 240 285 344
#     4  10  19  37  58  83 114 152 186 242 288 350
#
# _framework density 19.348742000000001
#
# number of rings (size 3 to 8) (size 9 to 14) (size 15 to 20)
#    0.000    2.133    1.333    2.000    0.000    1.067 
#    7.200    0.667    0.000    0.000    0.000    0.000 
#    0.000    0.000    0.000    0.000    0.000    0.000 
#
# Total GULP energy -334414.811018 kJ/mol
# GULP energy per Si atom -5573.580184 kJ/mol
# Density = 1.930470 g / cm^3
# Si number density = 19.348742 Si / 1000 Ang^3
#
#
#
# Elastic Constant Matrix: (Units=GPa)
#
#
# Indices 1 2 3 4 5 6 
#
# 1 42.8608 2.3579 31.2727 0.0000 0.0000 0.0000
# 2 2.3579 50.7946 33.5451 0.0000 0.0000 0.0000
# 3 31.2727 33.5451 151.0525 0.0000 0.0000 0.0000
# 4 0.0000 0.0000 0.0000 30.5098 0.0000 0.0000
# 5 0.0000 0.0000 0.0000 0.0000 25.8139 0.0000
# 6 0.0000 0.0000 0.0000 0.0000 0.0000 1.7809
#
#
#
# Elastic Compliance Matrix: (Units=1/GPa)
#
#
# Indices 1 2 3 4 5 6 
#
# 1 0.027854 0.002948 -0.006421 0.000000 0.000000 0.000000
# 2 0.002948 0.023383 -0.005803 0.000000 0.000000 0.000000
# 3 -0.006421 -0.005803 0.009238 0.000000 0.000000 0.000000
# 4 0.000000 0.000000 0.000000 0.032776 0.000000 0.000000
# 5 0.000000 0.000000 0.000000 0.000000 0.038739 0.000000
# 6 0.000000 0.000000 0.000000 0.000000 0.000000 0.561519
#
#
# Mechanical properties :
#
#
# Convention : Reuss Voigt Hill
#
# Bulk Modulus (GPa) = 23.85380 42.11771 32.98576
# Shear Modulus (GPa) = 6.88670 23.45640 15.17155
#
# Velocity S-wave (km/s) = 1.88864 3.48558 2.80323
# Velocity P-wave (km/s) = 4.13655 6.16555 5.25000
#
# Compressibility (1/GPa) = 0.04192205
#
# Stress axis : x y z
#
# Youngs Moduli (GPa) = 35.90098 42.76678 108.24446
#
# Poissons Ratio (x) = -0.12606 0.69508
# Poissons Ratio (y) = -0.10582 0.62814
# Poissons Ratio (z) = 0.23053 0.24817
#
# Static dielectric constant tensor:
#      x y z
#    x 1.688040 0.000000 0.000000 
#    y 0.000000 1.672080 0.000000 
#    z 0.000000 0.000000 1.705080 
# 
# From -- ./inp_files/24405.got.cif
#   From: 2010.05.17/outbox.cif.g08.bks.cpg/sg60_13_cif.got.tgz:24405.got - 2010.06.03 14:59:27.
