data_PCOD9454976
_publ_section_title
;
Structure prediction by ZEFSAII (Michael W. Deem and Ramdas Pophale) SiO2 
 PCOD9454976
Probable space group: P B C N
;
_chemical_formula_sum "Si O2"
_cell_formula_units_Z 48
_cell_length_a 8.691047
_cell_length_b 15.273575
_cell_length_c 19.688785
_cell_angle_alpha 90.000000
_cell_angle_beta 90.000000
_cell_angle_gamma 90.000000
_cell_volume 2613.555439
_symmetry_space_group_name_H-M "P B C N"
_symmetry_group_IT_number 60
_symmetry_cell_setting 'orthorhombic'
loop_
_space_group_symop_operation_xyz
x,y,z
1/2-x,1/2-y,1/2+z
1/2+x,1/2-y,-z
-x,y,1/2-z
-x,-y,-z
1/2+x,1/2+y,1/2-z
1/2-x,1/2+y,z
x,-y,1/2+z
loop_
_atom_site_type_symbol
_atom_site_label
_atom_site_fract_x
_atom_site_fract_y
_atom_site_fract_z
Si Si1 0.314339 0.142534 0.933124
Si Si2 0.316121 0.344840 0.580206
Si Si3 0.314132 0.993458 0.672280
Si Si4 0.314337 0.142533 0.566875
Si Si5 0.683876 0.344841 0.580206
Si Si6 0.814131 0.493458 0.672280
O O1 0.500001 0.138716 0.939084
O O2 0.271939 0.242386 0.914291
O O3 0.264779 0.073490 0.876255
O O4 0.244069 0.123248 0.006853
O O5 0.245946 0.404558 0.638678
O O6 0.271937 0.242385 0.585709
O O7 0.499999 0.350458 0.581884
O O8 0.262744 0.003721 0.750000
O O9 0.500000 0.992330 0.671877
O O10 0.264779 0.073489 0.623745
O O11 0.244066 0.123247 0.493147
O O12 0.754052 0.404559 0.638678
#
# Coordination Sequence:
#
# PCOD9454976 Si02
#       6
#     8   8   8   8   8   8
#     4   9  19  36  56  76 102 138 175 209 251 308
#     4  10  20  34  55  81 105 131 169 218 263 300
#     4  10  21  36  53  74 103 140 176 208 250 308
#     4   9  19  36  56  76 102 138 175 209 251 308
#     4  10  20  34  55  81 105 131 169 218 263 300
#     4  10  21  36  53  74 103 140 176 208 250 308
#
# _framework density 18.365784999999999
#
# number of rings (size 3 to 8) (size 9 to 14) (size 15 to 20)
#    0.000    2.333    0.000    2.000    0.000    8.667 
#    0.000    3.333    0.000    0.000    0.000    0.000 
#    0.000    0.000    0.000    0.000    0.000    0.000 
#
# Total GULP energy -267993.222355 kJ/mol
# GULP energy per Si atom -5583.192132 kJ/mol
# Density = 1.832398 g / cm^3
# Si number density = 18.365785 Si / 1000 Ang^3
#
#
#
# Elastic Constant Matrix: (Units=GPa)
#
#
# Indices 1 2 3 4 5 6 
#
# 1 3.8188 10.9285 14.7803 0.0000 0.0000 0.0000
# 2 10.9285 49.5390 35.2931 0.0000 0.0000 0.0000
# 3 14.7803 35.2931 95.3891 0.0000 0.0000 0.0000
# 4 0.0000 0.0000 0.0000 5.9112 0.0000 0.0000
# 5 0.0000 0.0000 0.0000 0.0000 25.5048 0.0000
# 6 0.0000 0.0000 0.0000 0.0000 0.0000 28.5022
#
#
#
# Elastic Compliance Matrix: (Units=1/GPa)
#
#
# Indices 1 2 3 4 5 6 
#
# 1 1.405497 -0.210352 -0.139950 0.000000 0.000000 0.000000
# 2 -0.210352 0.058894 0.010803 0.000000 0.000000 0.000000
# 3 -0.139950 0.010803 0.028171 0.000000 0.000000 0.000000
# 4 0.000000 0.000000 0.000000 0.169170 0.000000 0.000000
# 5 0.000000 0.000000 0.000000 0.000000 0.039208 0.000000
# 6 0.000000 0.000000 0.000000 0.000000 0.000000 0.035085
#
#
# Mechanical properties :
#
#
# Convention : Reuss Voigt Hill
#
# Bulk Modulus (GPa) = 1.22916 30.08339 15.65627
# Shear Modulus (GPa) = 1.86136 17.83331 9.84733
#
# Velocity S-wave (km/s) = 1.00782 3.11948 2.31806
# Velocity P-wave (km/s) = 1.42302 5.42131 3.96330
#
# Compressibility (1/GPa) = 0.81356395
#
# Stress axis : x y z
#
# Youngs Moduli (GPa) = 0.71149 16.97970 35.49731
#
# Poissons Ratio (x) = 3.57172 4.96785
# Poissons Ratio (y) = 0.14966 -0.38349
# Poissons Ratio (z) = 0.09957 -0.18344
#
# Static dielectric constant tensor:
#      x y z
#    x 1.620290 0.000000 0.000000 
#    y 0.000000 1.633980 0.000000 
#    z 0.000000 0.000000 1.602680 
# 
# From -- ./inp_files/19278.got.cif
#   From: 2010.05.17/outbox.cif.g08.bks.cpg/sg60_10_cif.got.tgz:19278.got - 2010.06.03 14:59:27.
