data_PCOD9454226
_publ_section_title
;
Structure prediction by ZEFSAII (Michael W. Deem and Ramdas Pophale) SiO2 
 PCOD9454226
Probable space group: P B C N
;
_chemical_formula_sum "Si O2"
_cell_formula_units_Z 56
_cell_length_a 8.670022
_cell_length_b 19.203662
_cell_length_c 14.770678
_cell_angle_alpha 90.000000
_cell_angle_beta 90.000000
_cell_angle_gamma 90.000000
_cell_volume 2459.261345
_symmetry_space_group_name_H-M "P B C N"
_symmetry_group_IT_number 60
_symmetry_cell_setting 'orthorhombic'
loop_
_space_group_symop_operation_xyz
x,y,z
1/2-x,1/2-y,1/2+z
1/2+x,1/2-y,-z
-x,y,1/2-z
-x,-y,-z
1/2+x,1/2+y,1/2-z
1/2-x,1/2+y,z
x,-y,1/2+z
loop_
_atom_site_type_symbol
_atom_site_label
_atom_site_fract_x
_atom_site_fract_y
_atom_site_fract_z
Si Si1 0.166432 0.512019 0.201196
Si Si2 0.764532 0.095946 0.652626
Si Si3 0.668108 0.646476 0.266374
Si Si4 0.446771 0.090524 0.563256
Si Si5 0.212568 0.679290 0.430670
Si Si6 0.212945 0.702840 0.691111
Si Si7 0.995253 0.187631 0.931988
O O1 0.268859 0.465275 0.271707
O O2 0.230399 0.588402 0.186931
O O3 0.144644 0.473836 0.105803
O O4 0.000000 0.512758 0.250000
O O5 0.626123 0.081086 0.583093
O O6 0.719061 0.164675 0.712125
O O7 0.915447 0.117528 0.597031
O O8 0.500000 0.615622 0.250000
O O9 0.750395 0.667298 0.173205
O O10 0.647099 0.720074 0.314618
O O11 0.392325 0.115175 0.465828
O O12 0.388311 0.153724 0.627298
O O13 0.373475 0.679981 0.486267
O O14 0.118044 0.750604 0.447208
O O15 0.385667 0.706366 0.652664
#
# Coordination Sequence:
#
# PCOD9454226 Si02
#       7
#     8   8   8   8   8   8   8
#     4   9  22  42  67  90 124 172 220 258 320 397
#     4  10  18  39  67  94 118 169 216 260 315 390
#     4  12  26  41  62  94 136 167 214 268 325 380
#     4   9  20  43  67  89 124 165 217 265 318 390
#     4  11  25  39  62  97 132 167 212 272 330 383
#     4  10  21  36  64  93 121 167 210 266 313 382
#     4  11  23  37  61  94 129 162 214 269 328 377
#
# _framework density 22.771063000000002
#
# number of rings (size 3 to 8) (size 9 to 14) (size 15 to 20)
#    0.000    1.714    1.429    3.429    6.000    3.429 
#    0.000    5.714    0.000    0.000    0.000    0.000 
#    0.000    0.000    0.000    0.000    0.000    0.000 
#
# Total GULP energy -313241.006320 kJ/mol
# GULP energy per Si atom -5593.589399 kJ/mol
# Density = 2.271924 g / cm^3
# Si number density = 22.771063 Si / 1000 Ang^3
#
#
#
# Elastic Constant Matrix: (Units=GPa)
#
#
# Indices 1 2 3 4 5 6 
#
# 1 73.9159 5.9727 7.7315 0.0000 0.0000 0.0000
# 2 5.9727 96.3663 3.1242 0.0000 0.0000 0.0000
# 3 7.7315 3.1242 22.8756 0.0000 0.0000 0.0000
# 4 0.0000 0.0000 0.0000 -39.0367 0.0000 0.0000
# 5 0.0000 0.0000 0.0000 0.0000 20.7703 0.0000
# 6 0.0000 0.0000 0.0000 0.0000 0.0000 -22.8875
#
#
#
# Elastic Compliance Matrix: (Units=1/GPa)
#
#
# Indices 1 2 3 4 5 6 
#
# 1 0.014074 -0.000721 -0.004658 0.000000 0.000000 0.000000
# 2 -0.000721 0.010460 -0.001185 0.000000 0.000000 0.000000
# 3 -0.004658 -0.001185 0.045451 0.000000 0.000000 0.000000
# 4 0.000000 0.000000 0.000000 -0.025617 0.000000 0.000000
# 5 0.000000 0.000000 0.000000 0.000000 0.048146 0.000000
# 6 0.000000 0.000000 0.000000 0.000000 0.000000 -0.043692
#
#
# Mechanical properties :
#
#
# Convention : Reuss Voigt Hill
#
# Bulk Modulus (GPa) = 17.58812 25.20164 21.39488
# Shear Modulus (GPa) = 61.80206 3.52451 32.66328
#
# Velocity S-wave (km/s) = 5.21532 1.24546 3.79148
# Velocity P-wave (km/s) = 6.63375 3.62762 5.34632
#
# Compressibility (1/GPa) = 0.05685655
#
# Stress axis : x y z
#
# Youngs Moduli (GPa) = 71.05087 95.60057 22.00177
#
# Poissons Ratio (x) = 0.06896 0.10249
# Poissons Ratio (y) = 0.05125 0.02607
# Poissons Ratio (z) = 0.33098 0.11327
#
# Static dielectric constant tensor:
#      x y z
#    x 1.840850 0.000000 0.000000 
#    y 0.000000 1.856230 0.000000 
#    z 0.000000 0.000000 1.876770 
# 
# From -- ./inp_files/15286.got.cif
#   From: 2010.05.17/outbox.cif.g08.bks.cpg/sg60_8_cif.got.tgz:15286.got - 2010.06.03 14:59:27.
