data_PCOD9454368
_publ_section_title
;
Structure prediction by ZEFSAII (Michael W. Deem and Ramdas Pophale) SiO2 
 PCOD9454368
Probable space group: P B C N
;
_chemical_formula_sum "Si O2"
_cell_formula_units_Z 64
_cell_length_a 11.580984
_cell_length_b 17.602281
_cell_length_c 17.788190
_cell_angle_alpha 90.000000
_cell_angle_beta 90.000000
_cell_angle_gamma 90.000000
_cell_volume 3626.153387
_symmetry_space_group_name_H-M "P B C N"
_symmetry_group_IT_number 60
_symmetry_cell_setting 'orthorhombic'
loop_
_space_group_symop_operation_xyz
x,y,z
1/2-x,1/2-y,1/2+z
1/2+x,1/2-y,-z
-x,y,1/2-z
-x,-y,-z
1/2+x,1/2+y,1/2-z
1/2-x,1/2+y,z
x,-y,1/2+z
loop_
_atom_site_type_symbol
_atom_site_label
_atom_site_fract_x
_atom_site_fract_y
_atom_site_fract_z
Si Si1 0.080364 0.778817 0.322025
Si Si2 0.320535 0.283070 0.785671
Si Si3 0.436991 0.382025 0.539526
Si Si4 0.155327 0.272017 0.115484
Si Si5 0.296251 0.575470 0.897238
Si Si6 0.598186 0.722268 0.950836
Si Si7 0.430919 0.445620 0.821582
Si Si8 0.081075 0.330950 0.410585
O O1 0.183629 0.721158 0.302140
O O2 0.143655 0.854707 0.352053
O O3 0.000000 0.792931 0.250000
O O4 0.997277 0.753710 0.389726
O O5 0.342657 0.250438 0.702817
O O6 0.375096 0.365835 0.796025
O O7 0.381411 0.228175 0.845712
O O8 0.378806 0.304570 0.570209
O O9 0.353519 0.422813 0.480202
O O10 0.548261 0.351100 0.493990
O O11 0.479943 0.430088 0.610272
O O12 0.281870 0.295366 0.089170
O O13 0.056921 0.333888 0.097040
O O14 0.332641 0.500537 0.853360
O O15 0.160973 0.595478 0.902041
O O16 0.612269 0.788998 0.011580
O O17 0.500000 0.477831 0.750000
#
# Coordination Sequence:
#
# PCOD9454368 Si02
#       8
#     8   8   8   8   8   8   8   8
#     4  10  20  35  54  84 111 142 182 233 282 332
#     4  11  20  34  58  84 109 141 188 236 278 327
#     4  10  20  34  55  82 112 144 189 231 288 334
#     4  11  18  33  58  84 112 142 191 235 280 330
#     4  10  22  35  52  80 115 148 179 232 288 335
#     4  10  19  32  57  85 110 145 185 234 286 334
#     4  12  21  35  56  83 114 150 189 234 285 342
#     4  10  20  33  53  81 112 141 186 231 282 332
#
# _framework density 17.649557999999999
#
# number of rings (size 3 to 8) (size 9 to 14) (size 15 to 20)
#    0.000    1.500    6.250    1.125    1.750    0.000 
#    0.000    0.000    0.000    6.000    0.000    0.000 
#    0.000    0.000    0.000    0.000    0.000    0.000 
#
# Total GULP energy -357143.690895 kJ/mol
# GULP energy per Si atom -5580.370170 kJ/mol
# Density = 1.760939 g / cm^3
# Si number density = 17.649558 Si / 1000 Ang^3
#
#
#
# Elastic Constant Matrix: (Units=GPa)
#
#
# Indices 1 2 3 4 5 6 
#
# 1 111.3683 16.1584 31.3623 0.0000 0.0000 0.0000
# 2 16.1584 29.1652 14.2240 0.0000 0.0000 0.0000
# 3 31.3623 14.2240 113.5694 0.0000 0.0000 0.0000
# 4 0.0000 0.0000 0.0000 11.4886 0.0000 0.0000
# 5 0.0000 0.0000 0.0000 0.0000 20.8090 0.0000
# 6 0.0000 0.0000 0.0000 0.0000 0.0000 13.2733
#
#
#
# Elastic Compliance Matrix: (Units=1/GPa)
#
#
# Indices 1 2 3 4 5 6 
#
# 1 0.010283 -0.004593 -0.002265 0.000000 0.000000 0.000000
# 2 -0.004593 0.038569 -0.003562 0.000000 0.000000 0.000000
# 3 -0.002265 -0.003562 0.009877 0.000000 0.000000 0.000000
# 4 0.000000 0.000000 0.000000 0.087043 0.000000 0.000000
# 5 0.000000 0.000000 0.000000 0.000000 0.048056 0.000000
# 6 0.000000 0.000000 0.000000 0.000000 0.000000 0.075339
#
#
# Mechanical properties :
#
#
# Convention : Reuss Voigt Hill
#
# Bulk Modulus (GPa) = 26.39213 41.95469 34.17341
# Shear Modulus (GPa) = 16.52141 21.93804 19.22973
#
# Velocity S-wave (km/s) = 3.06286 3.52942 3.30438
# Velocity P-wave (km/s) = 5.24348 6.35858 5.82776
#
# Compressibility (1/GPa) = 0.03789008
#
# Stress axis : x y z
#
# Youngs Moduli (GPa) = 97.24510 25.92727 101.24845
#
# Poissons Ratio (x) = 0.11908 0.22928
# Poissons Ratio (y) = 0.44663 0.36068
# Poissons Ratio (z) = 0.22021 0.09236
#
# Static dielectric constant tensor:
#      x y z
#    x 1.626380 0.000000 0.000000 
#    y 0.000000 1.574900 0.000000 
#    z 0.000000 0.000000 1.614070 
# 
# From -- ./inp_files/20304.got.cif
#   From: 2010.05.17/outbox.cif.g08.bks.cpg/sg60_11_cif.got.tgz:20304.got - 2010.06.03 14:59:27.
