data_PCOD9454886
_publ_section_title
;
Structure prediction by ZEFSAII (Michael W. Deem and Ramdas Pophale) SiO2 
 PCOD9454886
Probable space group: P B C N
;
_chemical_formula_sum "Si O2"
_cell_formula_units_Z 28
_cell_length_a 9.076934
_cell_length_b 20.915658
_cell_length_c 5.359261
_cell_angle_alpha 90.000000
_cell_angle_beta 90.000000
_cell_angle_gamma 90.000000
_cell_volume 1017.455954
_symmetry_space_group_name_H-M "P B C N"
_symmetry_group_IT_number 60
_symmetry_cell_setting 'orthorhombic'
loop_
_space_group_symop_operation_xyz
x,y,z
1/2-x,1/2-y,1/2+z
1/2+x,1/2-y,-z
-x,y,1/2-z
-x,-y,-z
1/2+x,1/2+y,1/2-z
1/2-x,1/2+y,z
x,-y,1/2+z
loop_
_atom_site_type_symbol
_atom_site_label
_atom_site_fract_x
_atom_site_fract_y
_atom_site_fract_z
Si Si1 0.336534 0.822681 0.485572
Si Si2 0.500000 0.576340 0.750000
Si Si3 0.144237 0.186506 0.484134
Si Si4 0.325222 0.035916 0.886286
O O1 0.430010 0.756970 0.492708
O O2 0.245711 0.815265 0.229911
O O3 0.390736 0.894986 0.462919
O O4 0.238152 0.821089 0.734573
O O5 0.545253 0.625000 0.971618
O O6 0.645176 0.541550 0.645223
O O7 0.362352 0.011928 0.610026
#
# Coordination Sequence:
#
# PCOD9454886 Si02
#       4
#     8   4   8   8
#     4   9  18  33  46  64  90 127 162 187 223 273
#     4  10  20  32  48  74  98 122 154 196 242 276
#     4   9  18  31  49  65  90 121 158 200 228 265
#     4  11  21  31  46  69 101 131 151 181 229 291
#
# _framework density 27.519618999999999
#
# number of rings (size 3 to 8) (size 9 to 14) (size 15 to 20)
#    0.000    2.286    0.000    4.286    0.000    9.143 
#    0.000    0.000    0.000    0.000    0.000    2.000 
#    0.000    0.000    0.000    4.286    0.000    0.000 
#
# Total GULP energy -156741.970132 kJ/mol
# GULP energy per Si atom -5597.927505 kJ/mol
# Density = 2.745698 g / cm^3
# Si number density = 27.519619 Si / 1000 Ang^3
#
#
#
# Elastic Constant Matrix: (Units=GPa)
#
#
# Indices 1 2 3 4 5 6 
#
# 1 71.7904 19.6269 67.1986 0.0000 0.0000 0.0000
# 2 19.6269 182.7708 65.1192 0.0000 0.0000 0.0000
# 3 67.1986 65.1192 257.3488 0.0000 0.0000 0.0000
# 4 0.0000 0.0000 0.0000 61.9392 0.0000 0.0000
# 5 0.0000 0.0000 0.0000 0.0000 87.6939 0.0000
# 6 0.0000 0.0000 0.0000 0.0000 0.0000 -27.0998
#
#
#
# Elastic Compliance Matrix: (Units=1/GPa)
#
#
# Indices 1 2 3 4 5 6 
#
# 1 0.018449 -0.000291 -0.004744 0.000000 0.000000 0.000000
# 2 -0.000291 0.006018 -0.001447 0.000000 0.000000 0.000000
# 3 -0.004744 -0.001447 0.005491 0.000000 0.000000 0.000000
# 4 0.000000 0.000000 0.000000 0.016145 0.000000 0.000000
# 5 0.000000 0.000000 0.000000 0.000000 0.011403 0.000000
# 6 0.000000 0.000000 0.000000 0.000000 0.000000 -0.036901
#
#
# Mechanical properties :
#
#
# Convention : Reuss Voigt Hill
#
# Bulk Modulus (GPa) = 58.84183 90.64437 74.74310
# Shear Modulus (GPa) = 127.44085 48.50435 87.97260
#
# Velocity S-wave (km/s) = 6.81246 4.20281 5.66009
# Velocity P-wave (km/s) = 9.12730 7.52071 8.36268
#
# Compressibility (1/GPa) = 0.01699471
#
# Stress axis : x y z
#
# Youngs Moduli (GPa) = 54.20225 166.16628 182.12998
#
# Poissons Ratio (x) = 0.04836 0.86400
# Poissons Ratio (y) = 0.01577 0.26351
# Poissons Ratio (z) = 0.25713 0.24041
#
# Static dielectric constant tensor:
#      x y z
#    x 2.362880 0.000000 0.000000 
#    y 0.000000 2.139860 0.000000 
#    z 0.000000 0.000000 1.988190 
# 
# From -- ./inp_files/593.got.cif
#   From: 2010.05.17/outbox.cif.g08.bks.cpg/sg60_1_cif.got.tgz:593.got - 2010.06.03 14:59:27.
