data_PCOD9454989
_publ_section_title
;
Structure prediction by ZEFSAII (Michael W. Deem and Ramdas Pophale) SiO2 
 PCOD9454989
Probable space group: P B C N
;
_chemical_formula_sum "Si O2"
_cell_formula_units_Z 48
_cell_length_a 15.541955
_cell_length_b 19.220993
_cell_length_c 8.227936
_cell_angle_alpha 90.000000
_cell_angle_beta 90.000000
_cell_angle_gamma 90.000000
_cell_volume 2457.946200
_symmetry_space_group_name_H-M "P B C N"
_symmetry_group_IT_number 60
_symmetry_cell_setting 'orthorhombic'
loop_
_space_group_symop_operation_xyz
x,y,z
1/2-x,1/2-y,1/2+z
1/2+x,1/2-y,-z
-x,y,1/2-z
-x,-y,-z
1/2+x,1/2+y,1/2-z
1/2-x,1/2+y,z
x,-y,1/2+z
loop_
_atom_site_type_symbol
_atom_site_label
_atom_site_fract_x
_atom_site_fract_y
_atom_site_fract_z
Si Si1 0.508131 0.669149 0.558878
Si Si2 0.909779 0.054267 0.347494
Si Si3 0.478100 0.175676 0.555805
Si Si4 0.668032 0.927321 0.364657
Si Si5 0.847923 0.084814 0.018072
Si Si6 0.584481 0.051934 0.512062
O O1 0.500000 0.657168 0.750000
O O2 0.575676 0.617160 0.473273
O O3 0.529259 0.748345 0.517390
O O4 0.414409 0.648467 0.489441
O O5 0.837777 0.068838 0.209965
O O6 0.000000 0.047942 0.250000
O O7 0.892399 0.983363 0.441246
O O8 0.500000 0.181924 0.750000
O O9 0.392735 0.128793 0.545971
O O10 0.549369 0.127734 0.464818
O O11 0.763838 0.904725 0.409156
O O12 0.655664 0.006731 0.423045
O O13 0.627144 0.932961 0.186226
O O14 0.500000 0.000000 0.500000
#
# Coordination Sequence:
#
# PCOD9454989 Si02
#       6
#     8   8   8   8   8   8
#     4  11  22  37  56  77 106 149 195 233 284 356
#     4  10  20  35  57  78 108 147 186 228 285 356
#     4   9  19  37  56  77 110 151 186 223 280 349
#     4  10  20  34  56  86 114 142 188 240 285 337
#     4  11  20  35  56  83 112 142 183 240 289 335
#     4   9  18  34  57  81 111 149 185 226 280 345
#
# _framework density 19.528499
#
# number of rings (size 3 to 8) (size 9 to 14) (size 15 to 20)
#    0.000    2.000    0.000    7.500    0.000    2.667 
#    0.000    6.667    0.000    0.000    0.000    0.000 
#    0.000    0.000    0.000    0.000    0.000    0.000 
#
# Total GULP energy -267415.436817 kJ/mol
# GULP energy per Si atom -5571.154934 kJ/mol
# Density = 1.948405 g / cm^3
# Si number density = 19.528499 Si / 1000 Ang^3
#
#
#
# Elastic Constant Matrix: (Units=GPa)
#
#
# Indices 1 2 3 4 5 6 
#
# 1 62.6090 24.3052 14.7211 0.0000 0.0000 0.0000
# 2 24.3052 123.5110 25.4058 0.0000 0.0000 0.0000
# 3 14.7211 25.4058 72.6908 0.0000 0.0000 0.0000
# 4 0.0000 0.0000 0.0000 32.7668 0.0000 0.0000
# 5 0.0000 0.0000 0.0000 0.0000 26.2933 0.0000
# 6 0.0000 0.0000 0.0000 0.0000 0.0000 16.0444
#
#
#
# Elastic Compliance Matrix: (Units=1/GPa)
#
#
# Indices 1 2 3 4 5 6 
#
# 1 0.017723 -0.002962 -0.002554 0.000000 0.000000 0.000000
# 2 -0.002962 0.009219 -0.002622 0.000000 0.000000 0.000000
# 3 -0.002554 -0.002622 0.015191 0.000000 0.000000 0.000000
# 4 0.000000 0.000000 0.000000 0.030519 0.000000 0.000000
# 5 0.000000 0.000000 0.000000 0.000000 0.038033 0.000000
# 6 0.000000 0.000000 0.000000 0.000000 0.000000 0.062327
#
#
# Mechanical properties :
#
#
# Convention : Reuss Voigt Hill
#
# Bulk Modulus (GPa) = 38.67639 43.07500 40.87570
# Shear Modulus (GPa) = 25.26465 27.97947 26.62206
#
# Velocity S-wave (km/s) = 3.60075 3.78928 3.69622
# Velocity P-wave (km/s) = 6.09387 6.42263 6.26041
#
# Compressibility (1/GPa) = 0.02585556
#
# Stress axis : x y z
#
# Youngs Moduli (GPa) = 56.42522 108.47487 65.83056
#
# Poissons Ratio (x) = 0.32133 0.16812
# Poissons Ratio (y) = 0.16715 0.17261
# Poissons Ratio (z) = 0.14410 0.28443
#
# Static dielectric constant tensor:
#      x y z
#    x 1.713550 0.000000 0.000000 
#    y 0.000000 1.649860 0.000000 
#    z 0.000000 0.000000 1.776280 
# 
# From -- ./inp_files/5905.got.cif
#   From: 2010.05.17/outbox.cif.g08.bks.cpg/sg60_3_cif.got.tgz:5905.got - 2010.06.03 14:59:27.
