data_PCOD9454835
_publ_section_title
;
Structure prediction by ZEFSAII (Michael W. Deem and Ramdas Pophale) SiO2 
 PCOD9454835
Probable space group: P B C N
;
_chemical_formula_sum "Si O2"
_cell_formula_units_Z 48
_cell_length_a 10.245385
_cell_length_b 26.298156
_cell_length_c 8.126770
_cell_angle_alpha 90.000000
_cell_angle_beta 90.000000
_cell_angle_gamma 90.000000
_cell_volume 2189.634105
_symmetry_space_group_name_H-M "P B C N"
_symmetry_group_IT_number 60
_symmetry_cell_setting 'orthorhombic'
loop_
_space_group_symop_operation_xyz
x,y,z
1/2-x,1/2-y,1/2+z
1/2+x,1/2-y,-z
-x,y,1/2-z
-x,-y,-z
1/2+x,1/2+y,1/2-z
1/2-x,1/2+y,z
x,-y,1/2+z
loop_
_atom_site_type_symbol
_atom_site_label
_atom_site_fract_x
_atom_site_fract_y
_atom_site_fract_z
Si Si1 0.624277 0.174334 0.934559
Si Si2 0.000000 0.347523 0.750000
Si Si3 0.500000 0.259258 0.750000
Si Si4 0.913185 0.850711 0.539530
Si Si5 0.500000 0.916629 0.250000
Si Si6 0.000000 0.086672 0.750000
Si Si7 0.245283 0.527815 0.633930
Si Si8 0.742983 0.922311 0.728292
O O1 0.610868 0.220135 0.807798
O O2 0.538445 0.124468 0.889064
O O3 0.556062 0.188139 0.106057
O O4 0.773573 0.158012 0.949382
O O5 0.122943 0.385717 0.724090
O O6 0.460919 0.297010 0.895072
O O7 0.866938 0.886511 0.691365
O O8 0.009302 0.878034 0.412143
O O9 0.375420 0.953128 0.245519
O O10 0.875627 0.052058 0.790055
O O11 0.224465 0.548732 0.448447
O O12 0.257835 0.467188 0.641405
#
# Coordination Sequence:
#
# PCOD9454835 Si02
#       8
#     8   4   4   8   4   4   8   8
#     4  10  23  43  66  98 126 162 221 276 325 387
#     4  10  19  41  61  90 134 157 205 275 328 372
#     4  11  26  41  69  92 124 169 215 269 342 388
#     4  10  23  46  59  96 128 166 223 269 325 388
#     4  11  19  42  66  97 131 164 216 278 302 392
#     4  10  22  44  64  89 133 186 204 280 320 394
#     4  11  23  38  64  96 135 174 226 251 334 385
#     4  10  23  38  60  98 131 172 216 271 313 395
#
# _framework density 21.921472999999999
#
# number of rings (size 3 to 8) (size 9 to 14) (size 15 to 20)
#    0.000    1.667    5.000    0.500    2.333   10.667 
#    3.000    0.000    0.000    0.000    0.000    0.000 
#    0.000    0.000    0.000    0.000    0.000    0.000 
#
# Total GULP energy -267755.621601 kJ/mol
# GULP energy per Si atom -5578.242117 kJ/mol
# Density = 2.187158 g / cm^3
# Si number density = 21.921473 Si / 1000 Ang^3
#
#
#
# Elastic Constant Matrix: (Units=GPa)
#
#
# Indices 1 2 3 4 5 6 
#
# 1 68.7172 3.9183 5.3629 0.0000 0.0000 0.0000
# 2 3.9183 99.1328 -1.7284 0.0000 0.0000 0.0000
# 3 5.3629 -1.7284 23.3551 0.0000 0.0000 0.0000
# 4 0.0000 0.0000 0.0000 13.8495 0.0000 0.0000
# 5 0.0000 0.0000 0.0000 0.0000 25.9358 0.0000
# 6 0.0000 0.0000 0.0000 0.0000 0.0000 4.0045
#
#
#
# Elastic Compliance Matrix: (Units=1/GPa)
#
#
# Indices 1 2 3 4 5 6 
#
# 1 0.014859 -0.000648 -0.003460 0.000000 0.000000 0.000000
# 2 -0.000648 0.010129 0.000898 0.000000 0.000000 0.000000
# 3 -0.003460 0.000898 0.043678 0.000000 0.000000 0.000000
# 4 0.000000 0.000000 0.000000 0.072205 0.000000 0.000000
# 5 0.000000 0.000000 0.000000 0.000000 0.038557 0.000000
# 6 0.000000 0.000000 0.000000 0.000000 0.000000 0.249718
#
#
# Mechanical properties :
#
#
# Convention : Reuss Voigt Hill
#
# Bulk Modulus (GPa) = 16.06487 22.92340 19.49413
# Shear Modulus (GPa) = 10.95738 21.00144 15.97941
#
# Velocity S-wave (km/s) = 2.23815 3.09856 2.70282
# Velocity P-wave (km/s) = 3.74478 4.82506 4.31883
#
# Compressibility (1/GPa) = 0.06224764
#
# Stress axis : x y z
#
# Youngs Moduli (GPa) = 67.29766 98.72894 22.89468
#
# Poissons Ratio (x) = 0.06394 0.07922
# Poissons Ratio (y) = 0.04359 -0.02057
# Poissons Ratio (z) = 0.23285 -0.08869
#
# Static dielectric constant tensor:
#      x y z
#    x 1.773140 0.000000 0.000000 
#    y 0.000000 1.782280 0.000000 
#    z 0.000000 0.000000 1.915860 
# 
# From -- ./inp_files/4309.got.cif
#   From: 2010.05.17/outbox.cif.g08.bks.cpg/sg60_3_cif.got.tgz:4309.got - 2010.06.03 14:59:27.
