data_PCOD9454954
_publ_section_title
;
Structure prediction by ZEFSAII (Michael W. Deem and Ramdas Pophale) SiO2 
 PCOD9454954
Probable space group: P B C N
;
_chemical_formula_sum "Si O2"
_cell_formula_units_Z 32
_cell_length_a 12.810682
_cell_length_b 26.537606
_cell_length_c 5.159284
_cell_angle_alpha 90.000000
_cell_angle_beta 90.000000
_cell_angle_gamma 90.000000
_cell_volume 1753.975116
_symmetry_space_group_name_H-M "P B C N"
_symmetry_group_IT_number 60
_symmetry_cell_setting 'orthorhombic'
loop_
_space_group_symop_operation_xyz
x,y,z
1/2-x,1/2-y,1/2+z
1/2+x,1/2-y,-z
-x,y,1/2-z
-x,-y,-z
1/2+x,1/2+y,1/2-z
1/2-x,1/2+y,z
x,-y,1/2+z
loop_
_atom_site_type_symbol
_atom_site_label
_atom_site_fract_x
_atom_site_fract_y
_atom_site_fract_z
Si Si1 0.624506 0.532226 0.755533
Si Si2 0.598297 0.725524 0.435868
Si Si3 0.800438 0.310289 0.698852
Si Si4 0.778431 0.859791 0.181638
O O1 0.500000 0.542834 0.750000
O O2 0.647370 0.490035 0.538821
O O3 0.685942 0.582833 0.687641
O O4 0.500000 0.721923 0.250000
O O5 0.605422 0.774641 0.614721
O O6 0.702123 0.727152 0.254874
O O7 0.622082 0.675796 0.606560
O O8 0.766512 0.344322 0.458084
O O9 0.803688 0.344157 0.956535
#
# Coordination Sequence:
#
# PCOD9454954 Si02
#       4
#     8   8   8   8
#     4  10  21  33  49  74 104 136 182 222 255 315
#     4  10  21  34  55  75 108 147 172 217 264 312
#     4  10  20  36  47  79 105 136 182 220 242 329
#     4  10  20  34  51  69 108 139 177 209 263 307
#
# _framework density 18.244271000000001
#
# number of rings (size 3 to 8) (size 9 to 14) (size 15 to 20)
#    1.500    0.500    2.500    1.500    3.500    1.000 
#    0.000    0.000    0.000    0.000    0.000    0.000 
#    0.000   20.000    0.000    0.000    0.000    0.000 
#
# Total GULP energy -178346.506665 kJ/mol
# GULP energy per Si atom -5573.328333 kJ/mol
# Density = 1.820275 g / cm^3
# Si number density = 18.244271 Si / 1000 Ang^3
#
#
#
# Elastic Constant Matrix: (Units=GPa)
#
#
# Indices 1 2 3 4 5 6 
#
# 1 24.1048 7.3738 6.4728 0.0000 0.0000 0.0000
# 2 7.3738 92.2017 16.4607 0.0000 0.0000 0.0000
# 3 6.4728 16.4607 104.9781 0.0000 0.0000 0.0000
# 4 0.0000 0.0000 0.0000 22.6377 0.0000 0.0000
# 5 0.0000 0.0000 0.0000 0.0000 20.8384 0.0000
# 6 0.0000 0.0000 0.0000 0.0000 0.0000 8.2209
#
#
#
# Elastic Compliance Matrix: (Units=1/GPa)
#
#
# Indices 1 2 3 4 5 6 
#
# 1 0.043002 -0.003051 -0.002173 0.000000 0.000000 0.000000
# 2 -0.003051 0.011375 -0.001595 0.000000 0.000000 0.000000
# 3 -0.002173 -0.001595 0.009910 0.000000 0.000000 0.000000
# 4 0.000000 0.000000 0.000000 0.044174 0.000000 0.000000
# 5 0.000000 0.000000 0.000000 0.000000 0.047988 0.000000
# 6 0.000000 0.000000 0.000000 0.000000 0.000000 0.121641
#
#
# Mechanical properties :
#
#
# Convention : Reuss Voigt Hill
#
# Bulk Modulus (GPa) = 19.74422 31.32211 25.53317
# Shear Modulus (GPa) = 16.20154 23.07122 19.63638
#
# Velocity S-wave (km/s) = 2.98322 3.55994 3.28427
# Velocity P-wave (km/s) = 4.76569 5.83978 5.32986
#
# Compressibility (1/GPa) = 0.05064774
#
# Stress axis : x y z
#
# Youngs Moduli (GPa) = 23.25455 87.91501 100.90870
#
# Poissons Ratio (x) = 0.26824 0.21928
# Poissons Ratio (y) = 0.07095 0.16099
# Poissons Ratio (z) = 0.05053 0.14026
#
# Static dielectric constant tensor:
#      x y z
#    x 1.648250 0.000000 0.000000 
#    y 0.000000 1.612340 0.000000 
#    z 0.000000 0.000000 1.671210 
# 
# From -- ./inp_files/790.got.cif
#   From: 2010.05.17/outbox.cif.g08.bks.cpg/sg60_1_cif.got.tgz:790.got - 2010.06.03 14:59:27.
