data_PCOD9454838
_publ_section_title
;
Structure prediction by ZEFSAII (Michael W. Deem and Ramdas Pophale) SiO2 
 PCOD9454838
Probable space group: P B C N
;
_chemical_formula_sum "Si O2"
_cell_formula_units_Z 48
_cell_length_a 14.845264
_cell_length_b 9.783091
_cell_length_c 16.091942
_cell_angle_alpha 90.000000
_cell_angle_beta 90.000000
_cell_angle_gamma 90.000000
_cell_volume 2337.074071
_symmetry_space_group_name_H-M "P B C N"
_symmetry_group_IT_number 60
_symmetry_cell_setting 'orthorhombic'
loop_
_space_group_symop_operation_xyz
x,y,z
1/2-x,1/2-y,1/2+z
1/2+x,1/2-y,-z
-x,y,1/2-z
-x,-y,-z
1/2+x,1/2+y,1/2-z
1/2-x,1/2+y,z
x,-y,1/2+z
loop_
_atom_site_type_symbol
_atom_site_label
_atom_site_fract_x
_atom_site_fract_y
_atom_site_fract_z
Si Si1 0.000000 0.725125 0.750000
Si Si2 0.835510 0.571834 0.729988
Si Si3 0.500000 0.332379 0.250000
Si Si4 0.583211 0.453980 0.864872
Si Si5 0.278837 0.958695 0.098876
Si Si6 0.687081 0.676483 0.495466
Si Si7 0.183253 0.722910 0.317434
O O1 0.069867 0.631864 0.800173
O O2 0.058588 0.823688 0.691110
O O3 0.848613 0.526720 0.826315
O O4 0.764183 0.695146 0.725816
O O5 0.800911 0.439260 0.681945
O O6 0.482683 0.429917 0.169664
O O7 0.589389 0.248381 0.229872
O O8 0.683448 0.516014 0.853340
O O9 0.597175 0.397744 0.958563
O O10 0.292220 0.812214 0.057668
O O11 0.268625 0.072255 0.027053
O O12 0.678658 0.716545 0.590189
#
# Coordination Sequence:
#
# PCOD9454838 Si02
#       7
#     4   8   4   8   8   8   8
#     4  11  21  42  66  98 128 172 224 268 322 390
#     4  12  23  41  68  93 129 173 222 265 323 394
#     4  11  23  42  66 100 128 170 224 256 326 394
#     4   9  21  39  66  93 127 170 214 270 320 390
#     4  10  19  41  66  89 123 175 212 265 320 389
#     4  10  21  40  64  96 131 164 218 264 334 374
#     4  12  25  41  66 102 129 170 217 275 321 393
#
# _framework density 20.538501
#
# number of rings (size 3 to 8) (size 9 to 14) (size 15 to 20)
#    1.000    0.333    3.333    3.500    2.333    0.667 
#    0.000    0.833    0.000    0.000    0.000    0.000 
#    0.000    0.000    0.000    0.000    0.000    0.000 
#
# Total GULP energy -267313.331862 kJ/mol
# GULP energy per Si atom -5569.027747 kJ/mol
# Density = 2.049175 g / cm^3
# Si number density = 20.538501 Si / 1000 Ang^3
#
#
#
# Elastic Constant Matrix: (Units=GPa)
#
#
# Indices 1 2 3 4 5 6 
#
# 1 84.2881 32.4932 16.2968 0.0000 0.0000 0.0000
# 2 32.4932 89.3935 8.6030 0.0000 0.0000 0.0000
# 3 16.2968 8.6030 63.3892 0.0000 0.0000 0.0000
# 4 0.0000 0.0000 0.0000 20.9975 0.0000 0.0000
# 5 0.0000 0.0000 0.0000 0.0000 15.0537 0.0000
# 6 0.0000 0.0000 0.0000 0.0000 0.0000 68.4040
#
#
#
# Elastic Compliance Matrix: (Units=1/GPa)
#
#
# Indices 1 2 3 4 5 6 
#
# 1 0.014346 -0.004924 -0.003020 0.000000 0.000000 0.000000
# 2 -0.004924 0.013025 -0.000502 0.000000 0.000000 0.000000
# 3 -0.003020 -0.000502 0.016620 0.000000 0.000000 0.000000
# 4 0.000000 0.000000 0.000000 0.047625 0.000000 0.000000
# 5 0.000000 0.000000 0.000000 0.000000 0.066429 0.000000
# 6 0.000000 0.000000 0.000000 0.000000 0.000000 0.014619
#
#
# Mechanical properties :
#
#
# Convention : Reuss Voigt Hill
#
# Bulk Modulus (GPa) = 36.90124 39.09519 37.99822
# Shear Modulus (GPa) = 25.17777 32.86956 29.02366
#
# Velocity S-wave (km/s) = 3.50506 4.00482 3.76325
# Velocity P-wave (km/s) = 5.86399 6.36091 6.11750
#
# Compressibility (1/GPa) = 0.02709936
#
# Stress axis : x y z
#
# Youngs Moduli (GPa) = 69.70495 76.77797 60.16821
#
# Poissons Ratio (x) = 0.37805 0.18171
# Poissons Ratio (y) = 0.34323 0.03019
# Poissons Ratio (z) = 0.21051 0.03852
#
# Static dielectric constant tensor:
#      x y z
#    x 1.750170 0.000000 0.000000 
#    y 0.000000 1.739140 0.000000 
#    z 0.000000 0.000000 1.754930 
# 
# From -- ./inp_files/17381.got.cif
#   From: 2010.05.17/outbox.cif.g08.bks.cpg/sg60_9_cif.got.tgz:17381.got - 2010.06.03 14:59:27.
