data_PCOD9454412
_publ_section_title
;
Structure prediction by ZEFSAII (Michael W. Deem and Ramdas Pophale) SiO2 
 PCOD9454412
Probable space group: P B C N
;
_chemical_formula_sum "Si O2"
_cell_formula_units_Z 64
_cell_length_a 5.628857
_cell_length_b 19.299815
_cell_length_c 27.062270
_cell_angle_alpha 90.000000
_cell_angle_beta 90.000000
_cell_angle_gamma 90.000000
_cell_volume 2939.934024
_symmetry_space_group_name_H-M "P B C N"
_symmetry_group_IT_number 60
_symmetry_cell_setting 'orthorhombic'
loop_
_space_group_symop_operation_xyz
x,y,z
1/2-x,1/2-y,1/2+z
1/2+x,1/2-y,-z
-x,y,1/2-z
-x,-y,-z
1/2+x,1/2+y,1/2-z
1/2-x,1/2+y,z
x,-y,1/2+z
loop_
_atom_site_type_symbol
_atom_site_label
_atom_site_fract_x
_atom_site_fract_y
_atom_site_fract_z
Si Si1 0.429089 0.722672 0.565994
Si Si2 0.134920 0.361977 0.312393
Si Si3 0.331996 0.893680 0.428712
Si Si4 0.646374 0.157084 0.016996
Si Si5 0.139716 0.007279 0.150909
Si Si6 0.576537 0.469923 0.552207
Si Si7 0.856329 0.839628 0.330552
Si Si8 0.366533 0.979128 0.798858
O O1 0.620848 0.660650 0.559705
O O2 0.256961 0.714388 0.519435
O O3 0.522287 0.799917 0.560078
O O4 0.328937 0.705454 0.619757
O O5 0.879700 0.330888 0.298190
O O6 0.164801 0.438266 0.289852
O O7 0.101010 0.373660 0.372503
O O8 0.385404 0.323245 0.307849
O O9 0.502285 0.886189 0.475835
O O10 0.260729 0.973620 0.426964
O O11 0.827626 0.105691 0.042506
O O12 0.406705 0.028101 0.165360
O O13 0.119699 0.028034 0.094018
O O14 0.126088 0.922860 0.156861
O O15 0.902966 0.037739 0.180529
O O16 0.500000 0.500000 0.500000
O O17 0.500000 0.948926 0.750000
#
# Coordination Sequence:
#
# PCOD9454412 Si02
#       8
#     8   8   8   8   8   8   8   8
#     4  11  20  34  48  72 102 147 197 240 274 330
#     4   9  17  29  52  73 100 138 175 225 275 349
#     4  11  20  36  52  70 107 151 191 238 290 330
#     4  12  23  33  52  73 108 150 207 241 279 331
#     4  10  20  35  53  79 114 146 190 235 280 353
#     4  12  23  36  55  83 109 162 203 233 286 352
#     4   9  16  31  51  68  98 144 177 216 282 325
#     4  10  19  33  55  81 111 144 179 235 304 350
#
# _framework density 21.769195
#
# number of rings (size 3 to 8) (size 9 to 14) (size 15 to 20)
#    0.000    1.500    7.500    0.750    1.750    1.000 
#    0.000    0.000    0.000    0.000    0.000    0.000 
#    0.000   30.000    0.000    1.625    0.000    0.000 
#
# Total GULP energy -356505.646555 kJ/mol
# GULP energy per Si atom -5570.400727 kJ/mol
# Density = 2.171965 g / cm^3
# Si number density = 21.769195 Si / 1000 Ang^3
#
#
#
# Elastic Constant Matrix: (Units=GPa)
#
#
# Indices 1 2 3 4 5 6 
#
# 1 98.9486 8.7287 15.7880 0.0000 0.0000 0.0000
# 2 8.7287 23.5921 0.9355 0.0000 0.0000 0.0000
# 3 15.7880 0.9355 64.1575 0.0000 0.0000 0.0000
# 4 0.0000 0.0000 0.0000 10.3335 0.0000 0.0000
# 5 0.0000 0.0000 0.0000 0.0000 35.1297 0.0000
# 6 0.0000 0.0000 0.0000 0.0000 0.0000 11.8905
#
#
#
# Elastic Compliance Matrix: (Units=1/GPa)
#
#
# Indices 1 2 3 4 5 6 
#
# 1 0.010870 -0.003918 -0.002618 0.000000 0.000000 0.000000
# 2 -0.003918 0.043824 0.000325 0.000000 0.000000 0.000000
# 3 -0.002618 0.000325 0.016226 0.000000 0.000000 0.000000
# 4 0.000000 0.000000 0.000000 0.096773 0.000000 0.000000
# 5 0.000000 0.000000 0.000000 0.000000 0.028466 0.000000
# 6 0.000000 0.000000 0.000000 0.000000 0.000000 0.084101
#
#
# Mechanical properties :
#
#
# Convention : Reuss Voigt Hill
#
# Bulk Modulus (GPa) = 17.09440 26.40029 21.74735
# Shear Modulus (GPa) = 16.01643 22.22046 19.11845
#
# Velocity S-wave (km/s) = 2.71539 3.19835 2.96672
# Velocity P-wave (km/s) = 4.20723 5.07868 4.66335
#
# Compressibility (1/GPa) = 0.05849868
#
# Stress axis : x y z
#
# Youngs Moduli (GPa) = 92.00031 22.81867 61.62924
#
# Poissons Ratio (x) = 0.08940 0.16133
# Poissons Ratio (y) = 0.36044 -0.02004
# Poissons Ratio (z) = 0.24083 -0.00742
#
# Static dielectric constant tensor:
#      x y z
#    x 1.964380 0.000000 0.000000 
#    y 0.000000 1.735890 0.000000 
#    z 0.000000 0.000000 1.927360 
# 
# From -- ./inp_files/25045.got.cif
#   From: 2010.05.17/outbox.cif.g08.bks.cpg/sg60_13_cif.got.tgz:25045.got - 2010.06.03 14:59:27.
