data_PCOD9454748
_publ_section_title
;
Structure prediction by ZEFSAII (Michael W. Deem and Ramdas Pophale) SiO2 
 PCOD9454748
Probable space group: P B C N
;
_chemical_formula_sum "Si O2"
_cell_formula_units_Z 64
_cell_length_a 10.281059
_cell_length_b 18.108296
_cell_length_c 18.071991
_cell_angle_alpha 90.000000
_cell_angle_beta 90.000000
_cell_angle_gamma 90.000000
_cell_volume 3364.507014
_symmetry_space_group_name_H-M "P B C N"
_symmetry_group_IT_number 60
_symmetry_cell_setting 'orthorhombic'
loop_
_space_group_symop_operation_xyz
x,y,z
1/2-x,1/2-y,1/2+z
1/2+x,1/2-y,-z
-x,y,1/2-z
-x,-y,-z
1/2+x,1/2+y,1/2-z
1/2-x,1/2+y,z
x,-y,1/2+z
loop_
_atom_site_type_symbol
_atom_site_label
_atom_site_fract_x
_atom_site_fract_y
_atom_site_fract_z
Si Si1 0.695623 0.195039 0.856850
Si Si2 0.631896 0.062943 0.428148
Si Si3 0.111359 0.275532 0.557518
Si Si4 0.488868 0.079612 0.906640
Si Si5 0.926754 0.935528 0.957145
Si Si6 0.496281 0.325352 0.834781
Si Si7 0.693180 0.813866 0.183715
Si Si8 0.849843 0.204033 0.551037
O O1 0.835212 0.209647 0.892005
O O2 0.611670 0.135165 0.901480
O O3 0.620265 0.274351 0.857649
O O4 0.702152 0.174598 0.770822
O O5 0.620808 0.146627 0.400120
O O6 0.578223 0.071843 0.512814
O O7 0.783641 0.040580 0.427987
O O8 0.544043 0.001541 0.389101
O O9 0.213223 0.277144 0.489238
O O10 0.964137 0.261279 0.534577
O O11 0.386702 0.118145 0.851817
O O12 0.006395 0.892769 0.892436
O O13 0.894727 0.872437 0.016525
O O14 0.000000 0.000000 0.000000
O O15 0.500000 0.352757 0.750000
O O16 0.384400 0.262701 0.832071
O O17 0.824349 0.804682 0.137725
#
# Coordination Sequence:
#
# PCOD9454748 Si02
#       8
#     8   8   8   8   8   8   8   8
#     4  10  20  36  69  88 121 161 211 252 319 378
#     4  10  21  36  61  84 129 154 210 259 312 376
#     4  11  21  38  62  95 120 166 200 269 313 376
#     4  10  19  38  58  92 117 166 201 256 310 380
#     4  11  22  37  56  89 122 160 206 260 311 373
#     4   9  18  38  64  86 117 161 208 252 309 382
#     4  10  20  39  63  93 118 161 207 262 311 387
#     4  11  22  38  63  92 128 153 213 261 315 371
#
# _framework density 19.022103999999999
#
# number of rings (size 3 to 8) (size 9 to 14) (size 15 to 20)
#    0.000    1.750    5.000    2.625    1.750    0.500 
#    4.500    1.250    5.500    0.000    0.000    0.000 
#    0.000    0.000    0.000    0.000    0.000    0.000 
#
# Total GULP energy -356802.509556 kJ/mol
# GULP energy per Si atom -5575.039212 kJ/mol
# Density = 1.897881 g / cm^3
# Si number density = 19.022104 Si / 1000 Ang^3
#
#
#
# Elastic Constant Matrix: (Units=GPa)
#
#
# Indices 1 2 3 4 5 6 
#
# 1 64.0940 25.6384 5.8348 0.0000 0.0000 0.0000
# 2 25.6384 64.2202 23.7108 0.0000 0.0000 0.0000
# 3 5.8348 23.7108 73.1256 0.0000 0.0000 0.0000
# 4 0.0000 0.0000 0.0000 24.1249 0.0000 0.0000
# 5 0.0000 0.0000 0.0000 0.0000 19.1899 0.0000
# 6 0.0000 0.0000 0.0000 0.0000 0.0000 20.1311
#
#
#
# Elastic Compliance Matrix: (Units=1/GPa)
#
#
# Indices 1 2 3 4 5 6 
#
# 1 0.018638 -0.007829 0.001051 0.000000 0.000000 0.000000
# 2 -0.007829 0.020978 -0.006177 0.000000 0.000000 0.000000
# 3 0.001051 -0.006177 0.015594 0.000000 0.000000 0.000000
# 4 0.000000 0.000000 0.000000 0.041451 0.000000 0.000000
# 5 0.000000 0.000000 0.000000 0.000000 0.052111 0.000000
# 6 0.000000 0.000000 0.000000 0.000000 0.000000 0.049674
#
#
# Mechanical properties :
#
#
# Convention : Reuss Voigt Hill
#
# Bulk Modulus (GPa) = 34.12954 34.64533 34.38744
# Shear Modulus (GPa) = 21.35636 22.43958 21.89797
#
# Velocity S-wave (km/s) = 3.35433 3.43834 3.39659
# Velocity P-wave (km/s) = 5.74308 5.83229 5.78786
#
# Compressibility (1/GPa) = 0.02930013
#
# Stress axis : x y z
#
# Youngs Moduli (GPa) = 53.65362 47.66975 64.12652
#
# Poissons Ratio (x) = 0.37321 -0.06742
# Poissons Ratio (y) = 0.42005 0.39613
# Poissons Ratio (z) = -0.05641 0.29447
#
# Static dielectric constant tensor:
#      x y z
#    x 1.719170 0.000000 0.000000 
#    y 0.000000 1.670010 0.000000 
#    z 0.000000 0.000000 1.686930 
# 
# From -- ./inp_files/20227.got.cif
#   From: 2010.05.17/outbox.cif.g08.bks.cpg/sg60_11_cif.got.tgz:20227.got - 2010.06.03 14:59:27.
