data_PCOD9454752
_publ_section_title
;
Structure prediction by ZEFSAII (Michael W. Deem and Ramdas Pophale) SiO2 
 PCOD9454752
Probable space group: P B C N
;
_chemical_formula_sum "Si O2"
_cell_formula_units_Z 48
_cell_length_a 14.507661
_cell_length_b 15.448694
_cell_length_c 9.790943
_cell_angle_alpha 90.000000
_cell_angle_beta 90.000000
_cell_angle_gamma 90.000000
_cell_volume 2194.389377
_symmetry_space_group_name_H-M "P B C N"
_symmetry_group_IT_number 60
_symmetry_cell_setting 'orthorhombic'
loop_
_space_group_symop_operation_xyz
x,y,z
1/2-x,1/2-y,1/2+z
1/2+x,1/2-y,-z
-x,y,1/2-z
-x,-y,-z
1/2+x,1/2+y,1/2-z
1/2-x,1/2+y,z
x,-y,1/2+z
loop_
_atom_site_type_symbol
_atom_site_label
_atom_site_fract_x
_atom_site_fract_y
_atom_site_fract_z
Si Si1 0.713797 0.811516 0.632480
Si Si2 0.184681 0.581326 0.618223
Si Si3 0.691419 0.859452 0.096034
Si Si4 0.091093 0.606268 0.159024
Si Si5 0.842805 0.992083 0.003272
Si Si6 0.402456 0.604956 0.261481
O O1 0.660697 0.872214 0.523395
O O2 0.739752 0.720048 0.567975
O O3 0.651695 0.820261 0.765911
O O4 0.812707 0.847031 0.682748
O O5 0.166903 0.642559 0.745560
O O6 0.138148 0.489425 0.655710
O O7 0.293828 0.565345 0.590912
O O8 0.755008 0.944593 0.073286
O O9 0.602004 0.866387 0.999618
O O10 0.000000 0.599433 0.250000
O O11 0.907176 0.028163 0.123353
O O12 0.884227 0.929448 0.890434
O O13 0.500000 0.652367 0.250000
#
# Coordination Sequence:
#
# PCOD9454752 Si02
#       6
#     8   8   8   8   8   8
#     4  11  23  40  62  91 130 167 203 262 326 375
#     4  10  20  37  66  88 119 165 212 252 313 374
#     4  11  21  40  64  88 128 163 202 258 325 375
#     4  11  23  43  66  93 123 166 218 262 306 377
#     4  10  19  38  60  88 118 161 205 262 307 369
#     4  11  21  38  62  90 121 159 214 256 311 378
#
# _framework density 21.873965999999999
#
# number of rings (size 3 to 8) (size 9 to 14) (size 15 to 20)
#    0.000    1.333    5.000    3.500    0.000    2.667 
#    3.000    1.667    0.000    0.000    0.000    0.000 
#    0.000    0.000    0.000    0.000    0.000    0.000 
#
# Total GULP energy -267323.133319 kJ/mol
# GULP energy per Si atom -5569.231944 kJ/mol
# Density = 2.182418 g / cm^3
# Si number density = 21.873966 Si / 1000 Ang^3
#
#
#
# Elastic Constant Matrix: (Units=GPa)
#
#
# Indices 1 2 3 4 5 6 
#
# 1 72.6469 -2.8610 20.8077 0.0000 0.0000 0.0000
# 2 -2.8610 46.8633 -0.3389 0.0000 0.0000 0.0000
# 3 20.8077 -0.3389 89.8554 0.0000 0.0000 0.0000
# 4 0.0000 0.0000 0.0000 18.9262 0.0000 0.0000
# 5 0.0000 0.0000 0.0000 0.0000 22.5999 0.0000
# 6 0.0000 0.0000 0.0000 0.0000 0.0000 3.7675
#
#
#
# Elastic Compliance Matrix: (Units=1/GPa)
#
#
# Indices 1 2 3 4 5 6 
#
# 1 0.014779 0.000878 -0.003419 0.000000 0.000000 0.000000
# 2 0.000878 0.021391 -0.000123 0.000000 0.000000 0.000000
# 3 -0.003419 -0.000123 0.011920 0.000000 0.000000 0.000000
# 4 0.000000 0.000000 0.000000 0.052837 0.000000 0.000000
# 5 0.000000 0.000000 0.000000 0.000000 0.044248 0.000000
# 6 0.000000 0.000000 0.000000 0.000000 0.000000 0.265426
#
#
# Mechanical properties :
#
#
# Convention : Reuss Voigt Hill
#
# Bulk Modulus (GPa) = 23.38494 27.17570 25.28032
# Shear Modulus (GPa) = 11.62293 21.84257 16.73275
#
# Velocity S-wave (km/s) = 2.30762 3.16344 2.76879
# Velocity P-wave (km/s) = 4.22068 5.07876 4.66947
#
# Compressibility (1/GPa) = 0.04276257
#
# Stress axis : x y z
#
# Youngs Moduli (GPa) = 67.66330 46.74787 83.89067
#
# Poissons Ratio (x) = -0.04102 0.28683
# Poissons Ratio (y) = -0.05938 0.01028
# Poissons Ratio (z) = 0.23135 0.00573
#
# Static dielectric constant tensor:
#      x y z
#    x 1.804670 0.000000 0.000000 
#    y 0.000000 1.860100 0.000000 
#    z 0.000000 0.000000 1.830400 
# 
# From -- ./inp_files/5885.got.cif
#   From: 2010.05.17/outbox.cif.g08.bks.cpg/sg60_3_cif.got.tgz:5885.got - 2010.06.03 14:59:27.
