data_PCOD9454591
_publ_section_title
;
Structure prediction by ZEFSAII (Michael W. Deem and Ramdas Pophale) SiO2 
 PCOD9454591
Probable space group: P B C N
;
_chemical_formula_sum "Si O2"
_cell_formula_units_Z 32
_cell_length_a 7.926527
_cell_length_b 34.150431
_cell_length_c 5.085711
_cell_angle_alpha 90.000000
_cell_angle_beta 90.000000
_cell_angle_gamma 90.000000
_cell_volume 1376.673047
_symmetry_space_group_name_H-M "P B C N"
_symmetry_group_IT_number 60
_symmetry_cell_setting 'orthorhombic'
loop_
_space_group_symop_operation_xyz
x,y,z
1/2-x,1/2-y,1/2+z
1/2+x,1/2-y,-z
-x,y,1/2-z
-x,-y,-z
1/2+x,1/2+y,1/2-z
1/2-x,1/2+y,z
x,-y,1/2+z
loop_
_atom_site_type_symbol
_atom_site_label
_atom_site_fract_x
_atom_site_fract_y
_atom_site_fract_z
Si Si1 0.692318 0.482608 0.515781
Si Si2 0.816715 0.350191 0.127272
Si Si3 0.813158 0.229562 0.367835
Si Si4 0.314763 0.608825 0.357070
O O1 0.500000 0.500000 0.500000
O O2 0.775343 0.508437 0.740066
O O3 0.690130 0.437273 0.583236
O O4 0.715007 0.367828 0.373642
O O5 0.000000 0.343101 0.250000
O O6 0.742190 0.310604 0.005115
O O7 0.810691 0.379824 0.880084
O O8 0.798574 0.260237 0.609978
O O9 0.000000 0.227940 0.250000
O O10 0.500000 0.618610 0.250000
#
# Coordination Sequence:
#
# PCOD9454591 Si02
#       4
#     8   8   8   8
#     4  10  19  35  63 105 136 178 243 309 376 422
#     4  12  28  49  70 104 155 201 239 296 389 444
#     4  12  27  51  79 111 147 191 247 300 365 444
#     4  12  24  42  74 108 141 188 256 318 357 438
#
# _framework density 23.244444999999999
#
# number of rings (size 3 to 8) (size 9 to 14) (size 15 to 20)
#    0.000    0.500    2.500    6.750    3.500    4.000 
#    0.000    1.250    0.000   15.000    0.000    0.000 
#    0.000    0.000    0.000    0.000    0.000    0.000 
#
# Total GULP energy -179136.378398 kJ/mol
# GULP energy per Si atom -5598.011825 kJ/mol
# Density = 2.319154 g / cm^3
# Si number density = 23.244445 Si / 1000 Ang^3
#
#
#
# Elastic Constant Matrix: (Units=GPa)
#
#
# Indices 1 2 3 4 5 6 
#
# 1 112.4495 70.3647 73.4795 0.0000 0.0000 0.0000
# 2 70.3647 165.2469 101.9357 0.0000 0.0000 0.0000
# 3 73.4795 101.9357 250.4040 0.0000 0.0000 0.0000
# 4 0.0000 0.0000 0.0000 65.0417 0.0000 0.0000
# 5 0.0000 0.0000 0.0000 0.0000 46.3817 0.0000
# 6 0.0000 0.0000 0.0000 0.0000 0.0000 -54.0368
#
#
#
# Elastic Compliance Matrix: (Units=1/GPa)
#
#
# Indices 1 2 3 4 5 6 
#
# 1 0.012876 -0.004209 -0.002065 0.000000 0.000000 0.000000
# 2 -0.004209 0.009457 -0.002615 0.000000 0.000000 0.000000
# 3 -0.002065 -0.002615 0.005664 0.000000 0.000000 0.000000
# 4 0.000000 0.000000 0.000000 0.015375 0.000000 0.000000
# 5 0.000000 0.000000 0.000000 0.000000 0.021560 0.000000
# 6 0.000000 0.000000 0.000000 0.000000 0.000000 -0.018506
#
#
# Mechanical properties :
#
#
# Convention : Reuss Voigt Hill
#
# Bulk Modulus (GPa) = 97.85257 113.29557 105.57407
# Shear Modulus (GPa) = 73.95469 30.29870 52.12669
#
# Velocity S-wave (km/s) = 5.64669 3.61429 4.74069
# Velocity P-wave (km/s) = 9.20337 8.14028 8.68810
#
# Compressibility (1/GPa) = 0.01021946
#
# Stress axis : x y z
#
# Youngs Moduli (GPa) = 77.66412 105.74586 176.55857
#
# Poissons Ratio (x) = 0.44508 0.36459
# Poissons Ratio (y) = 0.32689 0.46162
# Poissons Ratio (z) = 0.16037 0.27648
#
# Static dielectric constant tensor:
#      x y z
#    x 1.856430 0.000000 0.000000 
#    y 0.000000 1.884000 0.000000 
#    z 0.000000 0.000000 1.931500 
# 
# From -- ./inp_files/365.got.cif
#   From: 2010.05.17/outbox.cif.g08.bks.cpg/sg60_1_cif.got.tgz:365.got - 2010.06.03 14:59:27.
