data_PCOD9454410
_publ_section_title
;
Structure prediction by ZEFSAII (Michael W. Deem and Ramdas Pophale) SiO2 
 PCOD9454410
Probable space group: P B C N
;
_chemical_formula_sum "Si O2"
_cell_formula_units_Z 56
_cell_length_a 10.098424
_cell_length_b 21.359839
_cell_length_c 13.578145
_cell_angle_alpha 90.000000
_cell_angle_beta 90.000000
_cell_angle_gamma 90.000000
_cell_volume 2928.815528
_symmetry_space_group_name_H-M "P B C N"
_symmetry_group_IT_number 60
_symmetry_cell_setting 'orthorhombic'
loop_
_space_group_symop_operation_xyz
x,y,z
1/2-x,1/2-y,1/2+z
1/2+x,1/2-y,-z
-x,y,1/2-z
-x,-y,-z
1/2+x,1/2+y,1/2-z
1/2-x,1/2+y,z
x,-y,1/2+z
loop_
_atom_site_type_symbol
_atom_site_label
_atom_site_fract_x
_atom_site_fract_y
_atom_site_fract_z
Si Si1 0.735414 0.444330 0.525220
Si Si2 0.520685 0.915164 0.069311
Si Si3 0.252378 0.944101 0.588579
Si Si4 0.796480 0.191651 0.063654
Si Si5 0.354979 0.670426 0.215832
Si Si6 0.446973 0.775114 0.071728
Si Si7 0.867495 0.482836 0.717396
O O1 0.672003 0.507291 0.480797
O O2 0.670798 0.376499 0.516522
O O3 0.768549 0.452674 0.639919
O O4 0.882250 0.439204 0.476126
O O5 0.495078 0.844244 0.101286
O O6 0.574963 0.957440 0.158632
O O7 0.627204 0.921273 0.981188
O O8 0.197081 0.881957 0.640566
O O9 0.291512 0.988111 0.680948
O O10 0.779324 0.183307 0.181742
O O11 0.920916 0.236641 0.044720
O O12 0.661359 0.215845 0.014257
O O13 0.500000 0.648430 0.250000
O O14 0.377149 0.735395 0.157862
O O15 0.000000 0.445017 0.750000
#
# Coordination Sequence:
#
# PCOD9454410 Si02
#       7
#     8   8   8   8   8   8   8
#     4  10  19  33  54  90 117 148 191 248 299 352
#     4  10  20  32  55  88 119 147 190 253 302 339
#     4  11  19  34  59  86 118 151 197 248 302 354
#     4  10  21  40  62  86 120 160 202 247 299 361
#     4  10  22  40  62  82 115 165 208 235 298 377
#     4  10  22  41  60  87 121 158 204 245 296 357
#     4  11  17  29  54  88 119 143 189 243 306 350
#
# _framework density 19.120359000000001
#
# number of rings (size 3 to 8) (size 9 to 14) (size 15 to 20)
#    0.000    1.714    4.286    1.714    0.000    1.714 
#    0.000    5.000    3.143    0.000    0.000    0.000 
#    0.000    0.000    0.000    0.000    0.000    0.000 
#
# Total GULP energy -311874.977765 kJ/mol
# GULP energy per Si atom -5569.196032 kJ/mol
# Density = 1.907684 g / cm^3
# Si number density = 19.120359 Si / 1000 Ang^3
#
#
#
# Elastic Constant Matrix: (Units=GPa)
#
#
# Indices 1 2 3 4 5 6 
#
# 1 32.3897 31.9635 27.5675 0.0000 0.0000 0.0000
# 2 31.9635 118.1611 51.7353 0.0000 0.0000 0.0000
# 3 27.5675 51.7353 106.8384 0.0000 0.0000 0.0000
# 4 0.0000 0.0000 0.0000 23.0888 0.0000 0.0000
# 5 0.0000 0.0000 0.0000 0.0000 26.0189 0.0000
# 6 0.0000 0.0000 0.0000 0.0000 0.0000 15.1578
#
#
#
# Elastic Compliance Matrix: (Units=1/GPa)
#
#
# Indices 1 2 3 4 5 6 
#
# 1 0.046393 -0.009275 -0.007479 0.000000 0.000000 0.000000
# 2 -0.009275 0.012594 -0.003705 0.000000 0.000000 0.000000
# 3 -0.007479 -0.003705 0.013084 0.000000 0.000000 0.000000
# 4 0.000000 0.000000 0.000000 0.043311 0.000000 0.000000
# 5 0.000000 0.000000 0.000000 0.000000 0.038434 0.000000
# 6 0.000000 0.000000 0.000000 0.000000 0.000000 0.065973
#
#
# Mechanical properties :
#
#
# Convention : Reuss Voigt Hill
#
# Bulk Modulus (GPa) = 32.10103 53.32464 42.71283
# Shear Modulus (GPa) = 18.44394 22.59464 20.51929
#
# Velocity S-wave (km/s) = 3.10921 3.44132 3.27947
# Velocity P-wave (km/s) = 5.45114 6.61360 6.06031
#
# Compressibility (1/GPa) = 0.03115165
#
# Stress axis : x y z
#
# Youngs Moduli (GPa) = 21.55518 79.40093 76.42810
#
# Poissons Ratio (x) = 0.73642 0.57164
# Poissons Ratio (y) = 0.19992 0.28320
# Poissons Ratio (z) = 0.16122 0.29422
#
# Static dielectric constant tensor:
#      x y z
#    x 1.696080 0.000000 0.000000 
#    y 0.000000 1.714590 0.000000 
#    z 0.000000 0.000000 1.705440 
# 
# From -- ./inp_files/11211.got.cif
#   From: 2010.05.17/outbox.cif.g08.bks.cpg/sg60_6_cif.got.tgz:11211.got - 2010.06.03 14:59:27.
