data_PCOD9454220
_publ_section_title
;
Structure prediction by ZEFSAII (Michael W. Deem and Ramdas Pophale) SiO2 
 PCOD9454220
Probable space group: P B C N
;
_chemical_formula_sum "Si O2"
_cell_formula_units_Z 44
_cell_length_a 7.432628
_cell_length_b 13.807836
_cell_length_c 17.993078
_cell_angle_alpha 90.000000
_cell_angle_beta 90.000000
_cell_angle_gamma 90.000000
_cell_volume 1846.602758
_symmetry_space_group_name_H-M "P B C N"
_symmetry_group_IT_number 60
_symmetry_cell_setting 'orthorhombic'
loop_
_space_group_symop_operation_xyz
x,y,z
1/2-x,1/2-y,1/2+z
1/2+x,1/2-y,-z
-x,y,1/2-z
-x,-y,-z
1/2+x,1/2+y,1/2-z
1/2-x,1/2+y,z
x,-y,1/2+z
loop_
_atom_site_type_symbol
_atom_site_label
_atom_site_fract_x
_atom_site_fract_y
_atom_site_fract_z
Si Si1 0.000000 0.630764 0.250000
Si Si2 0.403805 0.525935 0.673092
Si Si3 0.134543 0.199723 0.184477
Si Si4 0.510928 0.995185 0.371616
Si Si5 0.526324 0.132293 0.503669
Si Si6 0.676036 0.676767 0.939083
O O1 0.164269 0.689966 0.217687
O O2 0.911822 0.564040 0.185720
O O3 0.500000 0.552082 0.750000
O O4 0.429417 0.409806 0.662613
O O5 0.185875 0.539300 0.674121
O O6 0.445716 0.601878 0.607184
O O7 0.178536 0.267134 0.114255
O O8 0.000000 0.234359 0.250000
O O9 0.410596 0.912598 0.417759
O O10 0.588775 0.065913 0.435708
O O11 0.309748 0.121193 0.505964
O O12 0.572577 0.240975 0.483048
#
# Coordination Sequence:
#
# PCOD9454220 Si02
#       6
#     4   8   8   8   8   8
#     4  10  18  38  72  90 120 174 218 274 342 382
#     4   9  19  38  65  93 130 163 219 283 322 389
#     4  10  22  42  63  96 133 166 224 286 334 392
#     4   9  19  39  65  87 127 174 219 268 338 404
#     4  10  21  40  60  88 132 174 217 269 330 408
#     4  11  22  40  61  96 132 175 224 271 333 410
#
# _framework density 23.827539999999999
#
# number of rings (size 3 to 8) (size 9 to 14) (size 15 to 20)
#    0.000    2.182    3.636    0.000    1.273    1.455 
#   24.545    0.909    0.000    0.000    0.000    0.000 
#    0.000    0.000    0.000    0.000    0.000    0.000 
#
# Total GULP energy -245277.530008 kJ/mol
# GULP energy per Si atom -5574.489318 kJ/mol
# Density = 2.377331 g / cm^3
# Si number density = 23.827540 Si / 1000 Ang^3
#
#
#
# Elastic Constant Matrix: (Units=GPa)
#
#
# Indices 1 2 3 4 5 6 
#
# 1 61.1257 16.2369 43.6074 0.0000 0.0000 0.0000
# 2 16.2369 57.4920 3.9865 0.0000 0.0000 0.0000
# 3 43.6074 3.9865 76.9342 0.0000 0.0000 0.0000
# 4 0.0000 0.0000 0.0000 26.4020 0.0000 0.0000
# 5 0.0000 0.0000 0.0000 0.0000 50.1504 0.0000
# 6 0.0000 0.0000 0.0000 0.0000 0.0000 27.2614
#
#
#
# Elastic Compliance Matrix: (Units=1/GPa)
#
#
# Indices 1 2 3 4 5 6 
#
# 1 0.030305 -0.007394 -0.016794 0.000000 0.000000 0.000000
# 2 -0.007394 0.019261 0.003193 0.000000 0.000000 0.000000
# 3 -0.016794 0.003193 0.022352 0.000000 0.000000 0.000000
# 4 0.000000 0.000000 0.000000 0.037876 0.000000 0.000000
# 5 0.000000 0.000000 0.000000 0.000000 0.019940 0.000000
# 6 0.000000 0.000000 0.000000 0.000000 0.000000 0.036682
#
#
# Mechanical properties :
#
#
# Convention : Reuss Voigt Hill
#
# Bulk Modulus (GPa) = 33.41476 35.91260 34.66368
# Shear Modulus (GPa) = 22.89577 29.54417 26.21997
#
# Velocity S-wave (km/s) = 3.10319 3.52507 3.32084
# Velocity P-wave (km/s) = 5.18592 5.62785 5.41140
#
# Compressibility (1/GPa) = 0.02992690
#
# Stress axis : x y z
#
# Youngs Moduli (GPa) = 32.99805 51.91952 44.73916
#
# Poissons Ratio (x) = 0.38390 0.75135
# Poissons Ratio (y) = 0.24399 -0.14286
# Poissons Ratio (z) = 0.55417 -0.16579
#
# Static dielectric constant tensor:
#      x y z
#    x 1.710580 0.000000 0.000000 
#    y 0.000000 2.011480 0.000000 
#    z 0.000000 0.000000 1.992120 
# 
# From -- ./inp_files/19232.got.cif
#   From: 2010.05.17/outbox.cif.g08.bks.cpg/sg60_10_cif.got.tgz:19232.got - 2010.06.03 14:59:27.
