data_PCOD9454449
_publ_section_title
;
Structure prediction by ZEFSAII (Michael W. Deem and Ramdas Pophale) SiO2 
 PCOD9454449
Probable space group: P B C N
;
_chemical_formula_sum "Si O2"
_cell_formula_units_Z 64
_cell_length_a 12.461297
_cell_length_b 27.146033
_cell_length_c 10.786733
_cell_angle_alpha 90.000000
_cell_angle_beta 90.000000
_cell_angle_gamma 90.000000
_cell_volume 3648.879728
_symmetry_space_group_name_H-M "P B C N"
_symmetry_group_IT_number 60
_symmetry_cell_setting 'orthorhombic'
loop_
_space_group_symop_operation_xyz
x,y,z
1/2-x,1/2-y,1/2+z
1/2+x,1/2-y,-z
-x,y,1/2-z
-x,-y,-z
1/2+x,1/2+y,1/2-z
1/2-x,1/2+y,z
x,-y,1/2+z
loop_
_atom_site_type_symbol
_atom_site_label
_atom_site_fract_x
_atom_site_fract_y
_atom_site_fract_z
Si Si1 0.500000 0.961825 0.613131
Si Si2 0.767814 0.811963 0.250000
Si Si3 0.781992 0.557204 0.495425
Si Si4 0.626095 0.284986 0.750000
Si Si5 0.218008 0.557204 0.495425
Si Si6 0.626267 0.351040 0.996570
Si Si7 0.873733 0.851040 0.503429
Si Si8 0.625897 0.094083 0.750000
O O1 0.500000 0.983896 0.750000
O O2 0.385314 0.935226 0.594634
O O3 0.614685 0.935226 0.594634
O O4 0.500000 0.000000 0.500000
O O5 0.712892 0.758688 0.250000
O O6 0.832905 0.824379 0.376722
O O7 0.671311 0.851006 0.250001
O O8 0.832904 0.824379 0.123277
O O9 0.746199 0.500000 0.500000
O O10 0.691140 0.598069 0.475795
O O11 0.829249 0.567345 0.630514
O O12 0.500000 0.268263 0.750000
O O13 0.641211 0.317089 0.875003
O O14 0.641211 0.317089 0.624997
O O15 0.308860 0.598070 0.475796
O O16 0.170751 0.567345 0.630514
O O17 0.500000 0.361167 0.009991
O O18 0.500000 0.095566 0.750000
#
# Coordination Sequence:
#
# PCOD9454449 Si02
#       8
#     8   8   8   8   8   8   8   8
#     4  10  22  34  56  82 116 154 194 240 288 330
#     4  10  20  38  62  82 108 144 197 237 283 344
#     4  10  22  33  57  82 116 153 194 233 282 336
#     4  10  21  38  62  85 113 147 182 238 298 347
#     4  10  22  33  57  82 116 153 194 233 282 336
#     4  10  22  39  59  84 117 152 189 232 284 344
#     4  10  22  39  59  84 117 152 189 232 284 344
#     4  10  19  34  52  83 111 146 186 239 289 341
#
# _framework density 17.539631
#
# number of rings (size 3 to 8) (size 9 to 14) (size 15 to 20)
#    0.000    2.000    1.250    1.500    8.750    0.500 
#    0.000    0.000    5.500    3.000    0.000    0.000 
#    0.000    0.000    0.000    0.000    0.000    0.000 
#
# Total GULP energy -356740.663789 kJ/mol
# GULP energy per Si atom -5574.072872 kJ/mol
# Density = 1.749971 g / cm^3
# Si number density = 17.539631 Si / 1000 Ang^3
#
#
#
# Elastic Constant Matrix: (Units=GPa)
#
#
# Indices 1 2 3 4 5 6 
#
# 1 155.6876 101.3824 62.5465 0.0000 0.0000 0.0000
# 2 101.3824 115.2544 59.6180 0.0000 0.0000 0.0000
# 3 62.5465 59.6180 130.3989 0.0000 0.0000 0.0000
# 4 0.0000 0.0000 0.0000 37.8188 0.0000 0.0000
# 5 0.0000 0.0000 0.0000 0.0000 7.9512 0.0000
# 6 0.0000 0.0000 0.0000 0.0000 0.0000 13.1566
#
#
#
# Elastic Compliance Matrix: (Units=1/GPa)
#
#
# Indices 1 2 3 4 5 6 
#
# 1 0.015271 -0.012632 -0.001550 0.000000 0.000000 0.000000
# 2 -0.012632 0.021812 -0.003914 0.000000 0.000000 0.000000
# 3 -0.001550 -0.003914 0.010201 0.000000 0.000000 0.000000
# 4 0.000000 0.000000 0.000000 0.026442 0.000000 0.000000
# 5 0.000000 0.000000 0.000000 0.000000 0.125768 0.000000
# 6 0.000000 0.000000 0.000000 0.000000 0.000000 0.076008
#
#
# Mechanical properties :
#
#
# Convention : Reuss Voigt Hill
#
# Bulk Modulus (GPa) = 90.13239 94.27053 92.20146
# Shear Modulus (GPa) = 15.85338 23.63826 19.74582
#
# Velocity S-wave (km/s) = 3.00969 3.67509 3.35891
# Velocity P-wave (km/s) = 7.97352 8.47775 8.22950
#
# Compressibility (1/GPa) = 0.01109479
#
# Stress axis : x y z
#
# Youngs Moduli (GPa) = 65.48223 45.84612 98.02510
#
# Poissons Ratio (x) = 0.57911 0.15192
# Poissons Ratio (y) = 0.82714 0.38363
# Poissons Ratio (z) = 0.10149 0.17942
#
# Static dielectric constant tensor:
#      x y z
#    x 1.609790 0.000000 0.000000 
#    y 0.000000 1.623880 0.000000 
#    z 0.000000 0.000000 1.595640 
# 
# From -- ./inp_files/11371.got.cif
#   From: 2010.05.17/outbox.cif.g08.bks.cpg/sg60_6_cif.got.tgz:11371.got - 2010.06.03 14:59:27.
