data_PCOD9454808
_publ_section_title
;
Structure prediction by ZEFSAII (Michael W. Deem and Ramdas Pophale) SiO2 
 PCOD9454808
Probable space group: P B C N
;
_chemical_formula_sum "Si O2"
_cell_formula_units_Z 48
_cell_length_a 10.771601
_cell_length_b 8.447382
_cell_length_c 20.728948
_cell_angle_alpha 90.000000
_cell_angle_beta 90.000000
_cell_angle_gamma 90.000000
_cell_volume 1886.164879
_symmetry_space_group_name_H-M "P B C N"
_symmetry_group_IT_number 60
_symmetry_cell_setting 'orthorhombic'
loop_
_space_group_symop_operation_xyz
x,y,z
1/2-x,1/2-y,1/2+z
1/2+x,1/2-y,-z
-x,y,1/2-z
-x,-y,-z
1/2+x,1/2+y,1/2-z
1/2-x,1/2+y,z
x,-y,1/2+z
loop_
_atom_site_type_symbol
_atom_site_label
_atom_site_fract_x
_atom_site_fract_y
_atom_site_fract_z
Si Si1 0.922443 0.107547 0.184740
Si Si2 0.644575 0.056714 0.923094
Si Si3 0.569594 0.959015 0.182640
Si Si4 0.651015 0.287783 0.135654
Si Si5 0.918586 0.044515 0.915520
Si Si6 0.296243 0.243587 0.994720
O O1 0.000000 0.091248 0.250000
O O2 0.868984 0.284311 0.187693
O O3 0.845788 0.946135 0.178274
O O4 0.008980 0.096109 0.120402
O O5 0.531107 0.054800 0.875153
O O6 0.778455 0.042859 0.886426
O O7 0.670998 0.214918 0.964682
O O8 0.642679 0.911623 0.974407
O O9 0.500000 0.981890 0.250000
O O10 0.642890 0.119103 0.168777
O O11 0.510908 0.314087 0.105533
O O12 0.747899 0.283970 0.076439
O O13 0.880205 0.099713 0.988987
#
# Coordination Sequence:
#
# PCOD9454808 Si02
#       6
#     8   8   8   8   8   8
#     4   9  19  38  65  93 127 171 227 276 335 393
#     4  10  19  40  59  90 127 174 216 263 335 397
#     4  11  21  38  67  96 126 168 231 276 329 398
#     4  10  21  39  63  96 129 169 221 275 330 392
#     4   8  20  37  61  91 125 178 216 261 332 402
#     4  10  21  38  63  90 128 175 217 266 329 407
#
# _framework density 25.448464999999999
#
# number of rings (size 3 to 8) (size 9 to 14) (size 15 to 20)
#    2.000    0.333    1.667    1.500    0.000    1.333 
#    3.000    0.000    3.667    0.000    0.000    0.000 
#    0.000    0.000    0.000    0.000    0.000    0.000 
#
# Total GULP energy -267515.354578 kJ/mol
# GULP energy per Si atom -5573.236554 kJ/mol
# Density = 2.539054 g / cm^3
# Si number density = 25.448465 Si / 1000 Ang^3
#
#
#
# Elastic Constant Matrix: (Units=GPa)
#
#
# Indices 1 2 3 4 5 6 
#
# 1 86.5134 87.0199 35.6601 0.0000 0.0000 0.0000
# 2 87.0199 213.9327 101.8713 0.0000 0.0000 0.0000
# 3 35.6601 101.8713 144.3839 0.0000 0.0000 0.0000
# 4 0.0000 0.0000 0.0000 24.9085 0.0000 0.0000
# 5 0.0000 0.0000 0.0000 0.0000 -67.6426 0.0000
# 6 0.0000 0.0000 0.0000 0.0000 0.0000 62.4300
#
#
#
# Elastic Compliance Matrix: (Units=1/GPa)
#
#
# Indices 1 2 3 4 5 6 
#
# 1 0.019697 -0.008577 0.001187 0.000000 0.000000 0.000000
# 2 -0.008577 0.010774 -0.005484 0.000000 0.000000 0.000000
# 3 0.001187 -0.005484 0.010502 0.000000 0.000000 0.000000
# 4 0.000000 0.000000 0.000000 0.040147 0.000000 0.000000
# 5 0.000000 0.000000 0.000000 0.000000 -0.014784 0.000000
# 6 0.000000 0.000000 0.000000 0.000000 0.000000 0.016018
#
#
# Mechanical properties :
#
#
# Convention : Reuss Voigt Hill
#
# Bulk Modulus (GPa) = 65.67891 99.32585 82.50238
# Shear Modulus (GPa) = 44.17824 18.62443 31.40134
#
# Velocity S-wave (km/s) = 4.17104 2.70821 3.51653
# Velocity P-wave (km/s) = 7.00438 6.99243 6.99841
#
# Compressibility (1/GPa) = 0.01522559
#
# Stress axis : x y z
#
# Youngs Moduli (GPa) = 50.76880 92.81183 95.22150
#
# Poissons Ratio (x) = 0.79607 -0.11302
# Poissons Ratio (y) = 0.43546 0.52216
# Poissons Ratio (z) = -0.06026 0.50894
#
# Static dielectric constant tensor:
#      x y z
#    x 2.234500 0.000000 0.000000 
#    y 0.000000 2.008650 0.000000 
#    z 0.000000 0.000000 1.924680 
# 
# From -- ./inp_files/24224.got.cif
#   From: 2010.05.17/outbox.cif.g08.bks.cpg/sg60_13_cif.got.tgz:24224.got - 2010.06.03 14:59:27.
