data_PCOD9454464
_publ_section_title
;
Structure prediction by ZEFSAII (Michael W. Deem and Ramdas Pophale) SiO2 
 PCOD9454464
Probable space group: P B C N
;
_chemical_formula_sum "Si O2"
_cell_formula_units_Z 48
_cell_length_a 18.518199
_cell_length_b 9.114568
_cell_length_c 16.426541
_cell_angle_alpha 90.000000
_cell_angle_beta 90.000000
_cell_angle_gamma 90.000000
_cell_volume 2772.560031
_symmetry_space_group_name_H-M "P B C N"
_symmetry_group_IT_number 60
_symmetry_cell_setting 'orthorhombic'
loop_
_space_group_symop_operation_xyz
x,y,z
1/2-x,1/2-y,1/2+z
1/2+x,1/2-y,-z
-x,y,1/2-z
-x,-y,-z
1/2+x,1/2+y,1/2-z
1/2-x,1/2+y,z
x,-y,1/2+z
loop_
_atom_site_type_symbol
_atom_site_label
_atom_site_fract_x
_atom_site_fract_y
_atom_site_fract_z
Si Si1 0.676422 0.898520 0.267964
Si Si2 0.045607 0.072579 0.669301
Si Si3 0.670660 0.754695 0.746450
Si Si4 0.424149 0.768058 0.909758
Si Si5 0.958467 0.577022 0.665370
Si Si6 0.915186 0.235439 0.402032
O O1 0.754439 0.830029 0.254182
O O2 0.619228 0.865459 0.195261
O O3 0.641578 0.827616 0.348532
O O4 0.679675 0.074987 0.270267
O O5 0.108244 0.182442 0.698517
O O6 0.000000 0.027521 0.750000
O O7 0.989011 0.156784 0.611844
O O8 0.080908 0.931659 0.627740
O O9 0.640197 0.743264 0.654609
O O10 0.450700 0.932427 0.888830
O O11 0.401648 0.749935 0.002564
O O12 0.000000 0.536617 0.750000
O O13 0.006730 0.695295 0.619640
#
# Coordination Sequence:
#
# PCOD9454464 Si02
#       6
#     8   8   8   8   8   8
#     4  10  20  36  55  76 103 142 180 211 259 322
#     4  10  19  34  55  77 106 142 176 212 260 318
#     4  10  21  38  57  74 104 145 179 211 260 323
#     4  10  20  35  54  81 109 136 175 224 263 302
#     4   9  18  34  55  76 104 143 178 209 259 320
#     4  11  20  33  55  84 109 134 175 225 263 303
#
# _framework density 17.312519999999999
#
# number of rings (size 3 to 8) (size 9 to 14) (size 15 to 20)
#    0.000    2.000    0.000    7.000    0.000    1.333 
#    0.000    8.333    0.000    0.000    0.000    0.000 
#    0.000    0.000    0.000    0.000    0.000    0.000 
#
# Total GULP energy -267939.343348 kJ/mol
# GULP energy per Si atom -5582.069653 kJ/mol
# Density = 1.727312 g / cm^3
# Si number density = 17.312520 Si / 1000 Ang^3
#
#
#
# Elastic Constant Matrix: (Units=GPa)
#
#
# Indices 1 2 3 4 5 6 
#
# 1 112.8934 62.7009 51.2044 0.0000 0.0000 0.0000
# 2 62.7009 109.2221 81.1315 0.0000 0.0000 0.0000
# 3 51.2044 81.1315 114.3678 0.0000 0.0000 0.0000
# 4 0.0000 0.0000 0.0000 4.9757 0.0000 0.0000
# 5 0.0000 0.0000 0.0000 0.0000 7.4203 0.0000
# 6 0.0000 0.0000 0.0000 0.0000 0.0000 16.6613
#
#
#
# Elastic Compliance Matrix: (Units=1/GPa)
#
#
# Indices 1 2 3 4 5 6 
#
# 1 0.013071 -0.006673 -0.001118 0.000000 0.000000 0.000000
# 2 -0.006673 0.022761 -0.013159 0.000000 0.000000 0.000000
# 3 -0.001118 -0.013159 0.018579 0.000000 0.000000 0.000000
# 4 0.000000 0.000000 0.000000 0.200976 0.000000 0.000000
# 5 0.000000 0.000000 0.000000 0.000000 0.134765 0.000000
# 6 0.000000 0.000000 0.000000 0.000000 0.000000 0.060019
#
#
# Mechanical properties :
#
#
# Convention : Reuss Voigt Hill
#
# Bulk Modulus (GPa) = 79.93008 80.72854 80.32931
# Shear Modulus (GPa) = 10.07572 15.24123 12.65847
#
# Velocity S-wave (km/s) = 2.41506 2.97030 2.70696
# Velocity P-wave (km/s) = 7.35159 7.64820 7.50136
#
# Compressibility (1/GPa) = 0.01251093
#
# Stress axis : x y z
#
# Youngs Moduli (GPa) = 76.50261 43.93490 53.82363
#
# Poissons Ratio (x) = 0.29318 0.06020
# Poissons Ratio (y) = 0.51051 0.70825
# Poissons Ratio (z) = 0.08557 0.57813
#
# Static dielectric constant tensor:
#      x y z
#    x 1.574820 0.000000 0.000000 
#    y 0.000000 1.582520 0.000000 
#    z 0.000000 0.000000 1.566340 
# 
# From -- ./inp_files/17311.got.cif
#   From: 2010.05.17/outbox.cif.g08.bks.cpg/sg60_9_cif.got.tgz:17311.got - 2010.06.03 14:59:27.
