data_PCOD9454897
_publ_section_title
;
Structure prediction by ZEFSAII (Michael W. Deem and Ramdas Pophale) SiO2 
 PCOD9454897
Probable space group: P B C N
;
_chemical_formula_sum "Si O2"
_cell_formula_units_Z 40
_cell_length_a 17.046130
_cell_length_b 19.502358
_cell_length_c 5.572468
_cell_angle_alpha 90.000000
_cell_angle_beta 90.000000
_cell_angle_gamma 90.000000
_cell_volume 1852.509756
_symmetry_space_group_name_H-M "P B C N"
_symmetry_group_IT_number 60
_symmetry_cell_setting 'orthorhombic'
loop_
_space_group_symop_operation_xyz
x,y,z
1/2-x,1/2-y,1/2+z
1/2+x,1/2-y,-z
-x,y,1/2-z
-x,-y,-z
1/2+x,1/2+y,1/2-z
1/2-x,1/2+y,z
x,-y,1/2+z
loop_
_atom_site_type_symbol
_atom_site_label
_atom_site_fract_x
_atom_site_fract_y
_atom_site_fract_z
Si Si1 0.169518 0.034218 0.073740
Si Si2 0.500000 0.209406 0.250000
Si Si3 0.135499 0.714385 0.563189
Si Si4 0.000000 0.061180 0.250000
Si Si5 0.094476 0.819913 0.950936
Si Si6 0.775476 0.830711 0.176792
O O1 0.199200 0.111175 0.013323
O O2 0.195758 0.992761 0.835232
O O3 0.073966 0.030127 0.103108
O O4 0.564220 0.176297 0.071670
O O5 0.555543 0.260691 0.394001
O O6 0.101063 0.781207 0.698068
O O7 0.184306 0.669783 0.752773
O O8 0.200714 0.753038 0.399919
O O9 0.041986 0.113427 0.433595
O O10 0.173014 0.842907 0.085030
#
# Coordination Sequence:
#
# PCOD9454897 Si02
#       6
#     8   4   8   4   8   8
#     4  12  27  43  61  89 131 182 235 268 307 381
#     4  10  20  32  53  92 124 153 198 260 340 410
#     4  11  20  36  60  89 121 160 206 272 341 401
#     4  12  20  40  63  86 130 181 220 266 312 382
#     4  11  19  35  56  86 127 158 199 264 325 388
#     4  11  23  37  60  86 121 170 217 264 333 392
#
# _framework density 21.592331000000001
#
# number of rings (size 3 to 8) (size 9 to 14) (size 15 to 20)
#    0.000    0.800    6.000    3.000    0.000    1.600 
#    0.000    0.000    0.000    0.000    0.000    1.400 
#    0.000    0.000    0.000    0.000    0.000    0.000 
#
# Total GULP energy -223043.334823 kJ/mol
# GULP energy per Si atom -5576.083371 kJ/mol
# Density = 2.154319 g / cm^3
# Si number density = 21.592331 Si / 1000 Ang^3
#
#
#
# Elastic Constant Matrix: (Units=GPa)
#
#
# Indices 1 2 3 4 5 6 
#
# 1 73.8225 16.2292 23.3869 0.0000 0.0000 0.0000
# 2 16.2292 45.5076 13.9876 0.0000 0.0000 0.0000
# 3 23.3869 13.9876 87.8602 0.0000 0.0000 0.0000
# 4 0.0000 0.0000 0.0000 27.5186 0.0000 0.0000
# 5 0.0000 0.0000 0.0000 0.0000 44.1928 0.0000
# 6 0.0000 0.0000 0.0000 0.0000 0.0000 28.5587
#
#
#
# Elastic Compliance Matrix: (Units=1/GPa)
#
#
# Indices 1 2 3 4 5 6 
#
# 1 0.015629 -0.004516 -0.003441 0.000000 0.000000 0.000000
# 2 -0.004516 0.024410 -0.002684 0.000000 0.000000 0.000000
# 3 -0.003441 -0.002684 0.012725 0.000000 0.000000 0.000000
# 4 0.000000 0.000000 0.000000 0.036339 0.000000 0.000000
# 5 0.000000 0.000000 0.000000 0.000000 0.022628 0.000000
# 6 0.000000 0.000000 0.000000 0.000000 0.000000 0.035016
#
#
# Mechanical properties :
#
#
# Convention : Reuss Voigt Hill
#
# Bulk Modulus (GPa) = 31.76480 34.93307 33.34893
# Shear Modulus (GPa) = 28.00760 30.29311 29.15036
#
# Velocity S-wave (km/s) = 3.60545 3.74967 3.67827
# Velocity P-wave (km/s) = 5.66352 5.91272 5.78946
#
# Compressibility (1/GPa) = 0.03148139
#
# Stress axis : x y z
#
# Youngs Moduli (GPa) = 63.98377 40.96706 78.58540
#
# Poissons Ratio (x) = 0.18501 0.27043
# Poissons Ratio (y) = 0.28895 0.21093
# Poissons Ratio (z) = 0.22018 0.10996
#
# Static dielectric constant tensor:
#      x y z
#    x 1.855750 0.000000 0.000000 
#    y 0.000000 1.777040 0.000000 
#    z 0.000000 0.000000 2.102600 
# 
# From -- ./inp_files/1698.got.cif
#   From: 2010.05.17/outbox.cif.g08.bks.cpg/sg60_1_cif.got.tgz:1698.got - 2010.06.03 14:59:27.
