data_PCOD9454984
_publ_section_title
;
Structure prediction by ZEFSAII (Michael W. Deem and Ramdas Pophale) SiO2 
 PCOD9454984
Probable space group: P B C N
;
_chemical_formula_sum "Si O2"
_cell_formula_units_Z 36
_cell_length_a 5.337363
_cell_length_b 22.521739
_cell_length_c 12.843232
_cell_angle_alpha 90.000000
_cell_angle_beta 90.000000
_cell_angle_gamma 90.000000
_cell_volume 1543.842490
_symmetry_space_group_name_H-M "P B C N"
_symmetry_group_IT_number 60
_symmetry_cell_setting 'orthorhombic'
loop_
_space_group_symop_operation_xyz
x,y,z
1/2-x,1/2-y,1/2+z
1/2+x,1/2-y,-z
-x,y,1/2-z
-x,-y,-z
1/2+x,1/2+y,1/2-z
1/2-x,1/2+y,z
x,-y,1/2+z
loop_
_atom_site_type_symbol
_atom_site_label
_atom_site_fract_x
_atom_site_fract_y
_atom_site_fract_z
Si Si1 0.405184 0.314647 0.421318
Si Si2 0.667094 0.569524 0.927026
Si Si3 0.110231 0.042090 0.352409
Si Si4 0.911478 0.752910 0.860567
Si Si5 0.500000 0.048334 0.750000
O O1 0.445096 0.384408 0.406395
O O2 0.418369 0.299252 0.544268
O O3 0.638941 0.279091 0.367776
O O4 0.137111 0.292777 0.383777
O O5 0.604079 0.500611 0.902424
O O6 0.869760 0.585059 0.840697
O O7 0.728083 0.575607 0.049207
O O8 0.000000 0.074115 0.250000
O O9 0.306108 0.995246 0.307171
O O10 0.000000 0.778715 0.750000
#
# Coordination Sequence:
#
# PCOD9454984 Si02
#       5
#     8   8   8   8   4
#     4  10  23  39  61  92 116 155 203 243 303 358
#     4  10  21  36  57  84 120 152 198 249 296 363
#     4   9  20  37  55  83 118 155 196 244 298 356
#     4  10  22  41  62  85 122 155 195 252 300 358
#     4  10  20  34  56  84 112 156 198 240 300 354
#
# _framework density 23.318438
#
# number of rings (size 3 to 8) (size 9 to 14) (size 15 to 20)
#    0.000    2.222    0.000    1.333    4.667    4.444 
#    0.000    0.000    4.889    0.000    0.000    0.000 
#    0.000    0.000    0.000    0.000    0.000    0.000 
#
# Total GULP energy -200902.415376 kJ/mol
# GULP energy per Si atom -5580.622649 kJ/mol
# Density = 2.326536 g / cm^3
# Si number density = 23.318438 Si / 1000 Ang^3
#
#
#
# Elastic Constant Matrix: (Units=GPa)
#
#
# Indices 1 2 3 4 5 6 
#
# 1 79.2978 6.6861 50.7037 0.0000 0.0000 0.0000
# 2 6.6861 44.7012 17.4703 0.0000 0.0000 0.0000
# 3 50.7037 17.4703 161.9470 0.0000 0.0000 0.0000
# 4 0.0000 0.0000 0.0000 -17.3240 0.0000 0.0000
# 5 0.0000 0.0000 0.0000 0.0000 30.1262 0.0000
# 6 0.0000 0.0000 0.0000 0.0000 0.0000 30.0210
#
#
#
# Elastic Compliance Matrix: (Units=1/GPa)
#
#
# Indices 1 2 3 4 5 6 
#
# 1 0.015776 -0.000448 -0.004891 0.000000 0.000000 0.000000
# 2 -0.000448 0.023368 -0.002381 0.000000 0.000000 0.000000
# 3 -0.004891 -0.002381 0.007963 0.000000 0.000000 0.000000
# 4 0.000000 0.000000 0.000000 -0.057723 0.000000 0.000000
# 5 0.000000 0.000000 0.000000 0.000000 0.033194 0.000000
# 6 0.000000 0.000000 0.000000 0.000000 0.000000 0.033310
#
#
# Mechanical properties :
#
#
# Convention : Reuss Voigt Hill
#
# Bulk Modulus (GPa) = 31.57796 48.40735 39.99265
# Shear Modulus (GPa) = 61.06331 22.63703 41.85017
#
# Velocity S-wave (km/s) = 5.12285 3.11911 4.24101
# Velocity P-wave (km/s) = 6.96871 5.81172 6.41635
#
# Compressibility (1/GPa) = 0.03166766
#
# Stress axis : x y z
#
# Youngs Moduli (GPa) = 63.38855 42.79327 125.58194
#
# Poissons Ratio (x) = 0.01918 0.61420
# Poissons Ratio (y) = 0.02841 0.29895
# Poissons Ratio (z) = 0.31002 0.10187
#
# Static dielectric constant tensor:
#      x y z
#    x 1.889760 0.000000 0.000000 
#    y 0.000000 1.821990 0.000000 
#    z 0.000000 0.000000 1.972000 
# 
# From -- ./inp_files/8970.got.cif
#   From: 2010.05.17/outbox.cif.g08.bks.cpg/sg60_5_cif.got.tgz:8970.got - 2010.06.03 14:59:27.
