data_PCOD9454136
_publ_section_title
;
Structure prediction by ZEFSAII (Michael W. Deem and Ramdas Pophale) SiO2 
 PCOD9454136
Probable space group: P B C N
;
_chemical_formula_sum "Si O2"
_cell_formula_units_Z 64
_cell_length_a 18.792977
_cell_length_b 10.086829
_cell_length_c 19.505524
_cell_angle_alpha 90.000000
_cell_angle_beta 90.000000
_cell_angle_gamma 90.000000
_cell_volume 3697.497273
_symmetry_space_group_name_H-M "P B C N"
_symmetry_group_IT_number 60
_symmetry_cell_setting 'orthorhombic'
loop_
_space_group_symop_operation_xyz
x,y,z
1/2-x,1/2-y,1/2+z
1/2+x,1/2-y,-z
-x,y,1/2-z
-x,-y,-z
1/2+x,1/2+y,1/2-z
1/2-x,1/2+y,z
x,-y,1/2+z
loop_
_atom_site_type_symbol
_atom_site_label
_atom_site_fract_x
_atom_site_fract_y
_atom_site_fract_z
Si Si1 0.687344 0.523312 0.255251
Si Si2 0.323799 0.211108 0.408121
Si Si3 0.466252 0.381904 0.956399
Si Si4 0.962402 0.969341 0.821316
Si Si5 0.684901 0.527470 0.093149
Si Si6 0.037779 0.717387 0.178752
Si Si7 0.685803 0.780120 0.754111
Si Si8 0.978003 0.367531 0.539044
O O1 0.620879 0.545423 0.305219
O O2 0.667664 0.540518 0.174726
O O3 0.751211 0.620922 0.269672
O O4 0.710620 0.371103 0.260898
O O5 0.308400 0.368573 0.421305
O O6 0.256061 0.114210 0.420719
O O7 0.337996 0.202136 0.325612
O O8 0.393846 0.164099 0.449542
O O9 0.505505 0.386352 0.883038
O O10 0.382922 0.412377 0.945967
O O11 0.500000 0.500000 0.000000
O O12 0.484723 0.249672 0.996668
O O13 0.000000 0.936040 0.750000
O O14 0.977186 0.126010 0.835277
O O15 0.120545 0.701367 0.194773
O O16 0.000000 0.683623 0.250000
O O17 0.010291 0.634590 0.115354
O O18 0.000000 0.500000 0.500000
#
# Coordination Sequence:
#
# PCOD9454136 Si02
#       8
#     8   8   8   8   8   8   8   8
#     4   9  18  34  57  89 118 149 197 254 300 357
#     4  10  20  38  61  90 119 159 204 250 304 373
#     4  12  22  40  64  90 121 161 206 253 304 365
#     4  10  18  35  64  89 112 149 209 251 290 357
#     4  10  20  36  62  89 120 160 204 248 306 372
#     4  10  18  37  65  85 111 158 205 241 298 366
#     4   9  18  34  61  87 115 150 200 251 300 360
#     4  12  26  42  60  92 130 163 209 259 309 364
#
# _framework density 17.309004999999999
#
# number of rings (size 3 to 8) (size 9 to 14) (size 15 to 20)
#    0.000    1.750    5.000    0.000    1.750    0.000 
#    2.250    3.125    0.000    0.000    0.000    0.000 
#    0.000    0.000    0.000    0.000    0.000    0.000 
#
# Total GULP energy -356968.840977 kJ/mol
# GULP energy per Si atom -5577.638140 kJ/mol
# Density = 1.726961 g / cm^3
# Si number density = 17.309005 Si / 1000 Ang^3
#
#
#
# Elastic Constant Matrix: (Units=GPa)
#
#
# Indices 1 2 3 4 5 6 
#
# 1 110.9115 76.9893 50.3162 0.0000 0.0000 0.0000
# 2 76.9893 113.0975 49.6492 0.0000 0.0000 0.0000
# 3 50.3162 49.6492 79.8562 0.0000 0.0000 0.0000
# 4 0.0000 0.0000 0.0000 24.4334 0.0000 0.0000
# 5 0.0000 0.0000 0.0000 0.0000 14.8168 0.0000
# 6 0.0000 0.0000 0.0000 0.0000 0.0000 26.9208
#
#
#
# Elastic Compliance Matrix: (Units=1/GPa)
#
#
# Indices 1 2 3 4 5 6 
#
# 1 0.018586 -0.010331 -0.005288 0.000000 0.000000 0.000000
# 2 -0.010331 0.017904 -0.004622 0.000000 0.000000 0.000000
# 3 -0.005288 -0.004622 0.018728 0.000000 0.000000 0.000000
# 4 0.000000 0.000000 0.000000 0.040928 0.000000 0.000000
# 5 0.000000 0.000000 0.000000 0.000000 0.067491 0.000000
# 6 0.000000 0.000000 0.000000 0.000000 0.000000 0.037146
#
#
# Mechanical properties :
#
#
# Convention : Reuss Voigt Hill
#
# Bulk Modulus (GPa) = 67.85919 73.08604 70.47262
# Shear Modulus (GPa) = 20.31070 21.69491 21.00280
#
# Velocity S-wave (km/s) = 3.42924 3.54416 3.48717
# Velocity P-wave (km/s) = 7.41412 7.68532 7.55094
#
# Compressibility (1/GPa) = 0.01473640
#
# Stress axis : x y z
#
# Youngs Moduli (GPa) = 53.80287 55.85483 53.39645
#
# Poissons Ratio (x) = 0.57704 0.28235
# Poissons Ratio (y) = 0.55584 0.24679
# Poissons Ratio (z) = 0.28450 0.25815
#
# Static dielectric constant tensor:
#      x y z
#    x 1.594900 0.000000 0.000000 
#    y 0.000000 1.464690 0.000000 
#    z 0.000000 0.000000 1.587870 
# 
# From -- ./inp_files/23091.got.cif
#   From: 2010.05.17/outbox.cif.g08.bks.cpg/sg60_12_cif.got.tgz:23091.got - 2010.06.03 14:59:27.
