data_PCOD9454975
_publ_section_title
;
Structure prediction by ZEFSAII (Michael W. Deem and Ramdas Pophale) SiO2 
 PCOD9454975
Probable space group: P B C N
;
_chemical_formula_sum "Si O2"
_cell_formula_units_Z 48
_cell_length_a 6.873438
_cell_length_b 15.529456
_cell_length_c 15.228020
_cell_angle_alpha 90.000000
_cell_angle_beta 90.000000
_cell_angle_gamma 90.000000
_cell_volume 1625.450321
_symmetry_space_group_name_H-M "P B C N"
_symmetry_group_IT_number 60
_symmetry_cell_setting 'orthorhombic'
loop_
_space_group_symop_operation_xyz
x,y,z
1/2-x,1/2-y,1/2+z
1/2+x,1/2-y,-z
-x,y,1/2-z
-x,-y,-z
1/2+x,1/2+y,1/2-z
1/2-x,1/2+y,z
x,-y,1/2+z
loop_
_atom_site_type_symbol
_atom_site_label
_atom_site_fract_x
_atom_site_fract_y
_atom_site_fract_z
Si Si1 0.596914 0.248250 0.080583
Si Si2 0.765930 0.803402 0.244796
Si Si3 0.200950 0.353879 0.083640
Si Si4 0.274371 0.074602 0.329278
Si Si5 0.680153 0.375102 0.847700
Si Si6 0.727326 0.524700 0.510475
O O1 0.764510 0.293446 0.140902
O O2 0.425274 0.318761 0.079018
O O3 0.597136 0.156010 0.135327
O O4 0.610647 0.217011 0.981130
O O5 0.665550 0.866300 0.313126
O O6 0.714952 0.716181 0.300172
O O7 0.000000 0.814883 0.250000
O O8 0.170499 0.444141 0.036766
O O9 0.280854 0.062879 0.224814
O O10 0.284306 0.989043 0.388328
O O11 0.050567 0.106439 0.346375
O O12 0.749717 0.393355 0.947057
O O13 0.500000 0.500000 0.500000
#
# Coordination Sequence:
#
# PCOD9454975 Si02
#       6
#     8   8   8   8   8   8
#     4   9  19  34  52  78 111 135 180 220 269 322
#     4   9  19  35  53  79 107 143 181 225 269 325
#     4  10  20  34  55  80 110 140 175 232 268 316
#     4   8  16  31  50  78 101 134 176 220 259 321
#     4   9  16  31  55  76  99 146 178 218 268 321
#     4   9  18  31  49  79 104 130 175 224 260 315
#
# _framework density 29.530275
#
# number of rings (size 3 to 8) (size 9 to 14) (size 15 to 20)
#    0.000    3.000    0.000    0.000    7.000    0.000 
#   18.000    0.000    0.000   29.000    0.000    0.000 
#    0.000    0.000    0.000    0.000    0.000    0.000 
#
# Total GULP energy -268021.445050 kJ/mol
# GULP energy per Si atom -5583.780105 kJ/mol
# Density = 2.946306 g / cm^3
# Si number density = 29.530275 Si / 1000 Ang^3
#
#
#
# Elastic Constant Matrix: (Units=GPa)
#
#
# Indices 1 2 3 4 5 6 
#
# 1 102.4130 5.7661 24.7316 0.0000 0.0000 0.0000
# 2 5.7661 121.5355 18.7464 0.0000 0.0000 0.0000
# 3 24.7316 18.7464 186.7193 0.0000 0.0000 0.0000
# 4 0.0000 0.0000 0.0000 23.3606 0.0000 0.0000
# 5 0.0000 0.0000 0.0000 0.0000 51.6648 0.0000
# 6 0.0000 0.0000 0.0000 0.0000 0.0000 28.3178
#
#
#
# Elastic Compliance Matrix: (Units=1/GPa)
#
#
# Indices 1 2 3 4 5 6 
#
# 1 0.010096 -0.000277 -0.001309 0.000000 0.000000 0.000000
# 2 -0.000277 0.008365 -0.000803 0.000000 0.000000 0.000000
# 3 -0.001309 -0.000803 0.005610 0.000000 0.000000 0.000000
# 4 0.000000 0.000000 0.000000 0.042807 0.000000 0.000000
# 5 0.000000 0.000000 0.000000 0.000000 0.019356 0.000000
# 6 0.000000 0.000000 0.000000 0.000000 0.000000 0.035314
#
#
# Mechanical properties :
#
#
# Convention : Reuss Voigt Hill
#
# Bulk Modulus (GPa) = 51.83570 56.57287 54.20428
# Shear Modulus (GPa) = 37.66281 44.76356 41.21318
#
# Velocity S-wave (km/s) = 3.57514 3.89762 3.73986
# Velocity P-wave (km/s) = 5.88504 6.28128 6.08638
#
# Compressibility (1/GPa) = 0.01929173
#
# Stress axis : x y z
#
# Youngs Moduli (GPa) = 99.04710 119.54466 178.26230
#
# Poissons Ratio (x) = 0.03312 0.23343
# Poissons Ratio (y) = 0.02744 0.14317
# Poissons Ratio (z) = 0.12970 0.09601
#
# Static dielectric constant tensor:
#      x y z
#    x 2.485190 0.000000 0.000000 
#    y 0.000000 2.390690 0.000000 
#    z 0.000000 0.000000 2.394580 
# 
# From -- ./inp_files/20082.got.cif
#   From: 2010.05.17/outbox.cif.g08.bks.cpg/sg60_11_cif.got.tgz:20082.got - 2010.06.03 14:59:27.
