data_PCOD9454751
_publ_section_title
;
Structure prediction by ZEFSAII (Michael W. Deem and Ramdas Pophale) SiO2 
 PCOD9454751
Probable space group: P B C N
;
_chemical_formula_sum "Si O2"
_cell_formula_units_Z 64
_cell_length_a 12.266660
_cell_length_b 8.785279
_cell_length_c 22.712072
_cell_angle_alpha 90.000000
_cell_angle_beta 90.000000
_cell_angle_gamma 90.000000
_cell_volume 2447.589844
_symmetry_space_group_name_H-M "P B C N"
_symmetry_group_IT_number 60
_symmetry_cell_setting 'orthorhombic'
loop_
_space_group_symop_operation_xyz
x,y,z
1/2-x,1/2-y,1/2+z
1/2+x,1/2-y,-z
-x,y,1/2-z
-x,-y,-z
1/2+x,1/2+y,1/2-z
1/2-x,1/2+y,z
x,-y,1/2+z
loop_
_atom_site_type_symbol
_atom_site_label
_atom_site_fract_x
_atom_site_fract_y
_atom_site_fract_z
Si Si1 0.880635 0.272493 0.241255
Si Si2 0.411893 0.632535 0.804036
Si Si3 0.180522 0.335094 0.447862
Si Si4 0.109748 0.330568 0.951460
Si Si5 0.634572 0.185420 0.418611
Si Si6 0.040622 0.848754 0.873708
Si Si7 0.343693 0.852075 0.093221
Si Si8 0.200837 0.573623 0.270576
O O1 0.877017 0.447945 0.256857
O O2 0.777377 0.185533 0.267331
O O3 0.000000 0.203040 0.250000
O O4 0.879399 0.247174 0.170416
O O5 0.500000 0.634409 0.750000
O O6 0.465040 0.522183 0.853237
O O7 0.372123 0.808209 0.808397
O O8 0.298112 0.537910 0.794373
O O9 0.300346 0.287154 0.428712
O O10 0.135279 0.498349 0.428017
O O11 0.187058 0.350470 0.517847
O O12 0.101360 0.192467 0.434250
O O13 0.990322 0.281229 0.932435
O O14 0.121682 0.341546 0.023201
O O15 0.717546 0.311248 0.395763
O O16 0.636605 0.023988 0.386339
O O17 0.924288 0.766581 0.875500
#
# Coordination Sequence:
#
# PCOD9454751 Si02
#       8
#     8   8   8   8   8   8   8   8
#     4  10  21  38  62  89 117 158 189 241 296 350
#     4  10  21  38  62  91 122 158 193 246 296 353
#     4  10  20  34  59  86 112 158 196 255 291 355
#     4  10  19  38  60  85 114 156 205 244 310 343
#     4  10  19  40  58  79 121 157 201 246 305 350
#     4  11  20  37  57  85 126 152 204 244 305 346
#     4  10  20  38  60  82 117 161 196 252 297 362
#     4   9  19  38  62  88 118 152 201 235 290 358
#
# _framework density 26.148171999999999
#
# number of rings (size 3 to 8) (size 9 to 14) (size 15 to 20)
#    0.000    2.000    2.500    2.625    0.000    4.000 
#    2.250    8.750    0.000    0.000    0.000    0.000 
#    0.000    0.000    0.000    0.000    0.000    0.000 
#
# Total GULP energy -357220.575149 kJ/mol
# GULP energy per Si atom -5581.571487 kJ/mol
# Density = 2.608866 g / cm^3
# Si number density = 26.148172 Si / 1000 Ang^3
#
#
#
# Elastic Constant Matrix: (Units=GPa)
#
#
# Indices 1 2 3 4 5 6 
#
# 1 164.4608 34.8635 -6.6504 0.0000 0.0000 0.0000
# 2 34.8635 122.6201 27.6350 0.0000 0.0000 0.0000
# 3 -6.6504 27.6350 53.8025 0.0000 0.0000 0.0000
# 4 0.0000 0.0000 0.0000 13.1992 0.0000 0.0000
# 5 0.0000 0.0000 0.0000 0.0000 24.7988 0.0000
# 6 0.0000 0.0000 0.0000 0.0000 0.0000 46.4245
#
#
#
# Elastic Compliance Matrix: (Units=1/GPa)
#
#
# Indices 1 2 3 4 5 6 
#
# 1 0.006661 -0.002352 0.002031 0.000000 0.000000 0.000000
# 2 -0.002352 0.010053 -0.005454 0.000000 0.000000 0.000000
# 3 0.002031 -0.005454 0.021639 0.000000 0.000000 0.000000
# 4 0.000000 0.000000 0.000000 0.075762 0.000000 0.000000
# 5 0.000000 0.000000 0.000000 0.000000 0.040325 0.000000
# 6 0.000000 0.000000 0.000000 0.000000 0.000000 0.021540
#
#
# Mechanical properties :
#
#
# Convention : Reuss Voigt Hill
#
# Bulk Modulus (GPa) = 37.30802 50.28662 43.79732
# Shear Modulus (GPa) = 25.44988 35.88686 30.66837
#
# Velocity S-wave (km/s) = 3.12315 3.70867 3.42843
# Velocity P-wave (km/s) = 5.22536 6.13287 5.69721
#
# Compressibility (1/GPa) = 0.02680389
#
# Stress axis : x y z
#
# Youngs Moduli (GPa) = 150.12436 99.47121 46.21258
#
# Poissons Ratio (x) = 0.23393 -0.09387
# Poissons Ratio (y) = 0.35305 0.25206
# Poissons Ratio (z) = -0.30494 0.54255
#
# Static dielectric constant tensor:
#      x y z
#    x 2.059480 0.000000 0.000000 
#    y 0.000000 2.052430 0.000000 
#    z 0.000000 0.000000 2.323000 
# 
# From -- ./inp_files/26124.got.cif
#   From: 2010.05.17/outbox.cif.g08.bks.cpg/sg60_14_cif.got.tgz:26124.got - 2010.06.03 14:59:27.
