data_PCOD9454278
_publ_section_title
;
Structure prediction by ZEFSAII (Michael W. Deem and Ramdas Pophale) SiO2 
 PCOD9454278
Probable space group: P B C N
;
_chemical_formula_sum "Si O2"
_cell_formula_units_Z 40
_cell_length_a 7.404920
_cell_length_b 26.197841
_cell_length_c 7.904175
_cell_angle_alpha 90.000000
_cell_angle_beta 90.000000
_cell_angle_gamma 90.000000
_cell_volume 1533.353963
_symmetry_space_group_name_H-M "P B C N"
_symmetry_group_IT_number 60
_symmetry_cell_setting 'orthorhombic'
loop_
_space_group_symop_operation_xyz
x,y,z
1/2-x,1/2-y,1/2+z
1/2+x,1/2-y,-z
-x,y,1/2-z
-x,-y,-z
1/2+x,1/2+y,1/2-z
1/2-x,1/2+y,z
x,-y,1/2+z
loop_
_atom_site_type_symbol
_atom_site_label
_atom_site_fract_x
_atom_site_fract_y
_atom_site_fract_z
Si Si1 0.225556 0.054899 0.074343
Si Si2 0.253252 0.835114 0.553467
Si Si3 0.308045 0.553641 0.477364
Si Si4 0.307778 0.737145 0.342022
Si Si5 0.383122 0.345092 0.081708
O O1 0.209772 0.058284 0.276585
O O2 0.025926 0.051929 0.986026
O O3 0.327479 0.107597 0.026883
O O4 0.290618 0.997514 0.036360
O O5 0.268137 0.795038 0.399419
O O6 0.300890 0.802372 0.720400
O O7 0.039349 0.848238 0.562706
O O8 0.254478 0.606573 0.565767
O O9 0.500000 0.741195 0.250000
O O10 0.298227 0.708190 0.524909
O O11 0.500000 0.347577 0.250000
#
# Coordination Sequence:
#
# PCOD9454278 Si02
#       5
#     8   8   8   8   8
#     4   9  17  28  43  67  99 133 164 208 258 325
#     4  10  19  33  48  70 103 137 175 215 265 318
#     4   9  17  27  43  68 101 132 164 206 262 316
#     4  10  20  35  52  74 107 142 180 226 264 314
#     4  10  19  30  48  74 105 137 169 214 264 318
#
# _framework density 26.086604999999999
#
# number of rings (size 3 to 8) (size 9 to 14) (size 15 to 20)
#    0.000    2.400    2.000    1.200    8.400    0.000 
#    0.000    0.000    0.000    0.000    0.000    1.400 
#    0.000    0.000    0.000    0.000    0.000    0.000 
#
# Total GULP energy -222838.694101 kJ/mol
# GULP energy per Si atom -5570.967353 kJ/mol
# Density = 2.602723 g / cm^3
# Si number density = 26.086605 Si / 1000 Ang^3
#
#
#
# Elastic Constant Matrix: (Units=GPa)
#
#
# Indices 1 2 3 4 5 6 
#
# 1 62.8256 32.9001 15.2298 0.0000 0.0000 0.0000
# 2 32.9001 330.2484 70.0502 0.0000 0.0000 0.0000
# 3 15.2298 70.0502 122.8847 0.0000 0.0000 0.0000
# 4 0.0000 0.0000 0.0000 40.6743 0.0000 0.0000
# 5 0.0000 0.0000 0.0000 0.0000 6.3353 0.0000
# 6 0.0000 0.0000 0.0000 0.0000 0.0000 14.1803
#
#
#
# Elastic Compliance Matrix: (Units=1/GPa)
#
#
# Indices 1 2 3 4 5 6 
#
# 1 0.016973 -0.001416 -0.001296 0.000000 0.000000 0.000000
# 2 -0.001416 0.003563 -0.001855 0.000000 0.000000 0.000000
# 3 -0.001296 -0.001855 0.009356 0.000000 0.000000 0.000000
# 4 0.000000 0.000000 0.000000 0.024586 0.000000 0.000000
# 5 0.000000 0.000000 0.000000 0.000000 0.157847 0.000000
# 6 0.000000 0.000000 0.000000 0.000000 0.000000 0.070520
#
#
# Mechanical properties :
#
#
# Convention : Reuss Voigt Hill
#
# Bulk Modulus (GPa) = 48.17861 83.59101 65.88481
# Shear Modulus (GPa) = 16.72811 38.75655 27.74233
#
# Velocity S-wave (km/s) = 2.53504 3.85864 3.26463
# Velocity P-wave (km/s) = 5.20360 7.20870 6.28660
#
# Compressibility (1/GPa) = 0.02075610
#
# Stress axis : x y z
#
# Youngs Moduli (GPa) = 58.91779 280.69132 106.88279
#
# Poissons Ratio (x) = 0.39743 0.13856
# Poissons Ratio (y) = 0.08342 0.19831
# Poissons Ratio (z) = 0.07638 0.52079
#
# Static dielectric constant tensor:
#      x y z
#    x 2.221060 0.000000 0.000000 
#    y 0.000000 2.313630 0.000000 
#    z 0.000000 0.000000 2.073240 
# 
# From -- ./inp_files/4926.got.cif
#   From: 2010.05.17/outbox.cif.g08.bks.cpg/sg60_3_cif.got.tgz:4926.got - 2010.06.03 14:59:27.
