data_PCOD9454868
_publ_section_title
;
Structure prediction by ZEFSAII (Michael W. Deem and Ramdas Pophale) SiO2 
 PCOD9454868
Probable space group: P B C N
;
_chemical_formula_sum "Si O2"
_cell_formula_units_Z 64
_cell_length_a 29.726050
_cell_length_b 4.911482
_cell_length_c 21.829827
_cell_angle_alpha 90.000000
_cell_angle_beta 90.000000
_cell_angle_gamma 90.000000
_cell_volume 3187.132028
_symmetry_space_group_name_H-M "P B C N"
_symmetry_group_IT_number 60
_symmetry_cell_setting 'orthorhombic'
loop_
_space_group_symop_operation_xyz
x,y,z
1/2-x,1/2-y,1/2+z
1/2+x,1/2-y,-z
-x,y,1/2-z
-x,-y,-z
1/2+x,1/2+y,1/2-z
1/2-x,1/2+y,z
x,-y,1/2+z
loop_
_atom_site_type_symbol
_atom_site_label
_atom_site_fract_x
_atom_site_fract_y
_atom_site_fract_z
Si Si1 0.634119 0.733391 0.662968
Si Si2 0.871349 0.334828 0.803252
Si Si3 0.722455 0.903385 0.304109
Si Si4 0.276114 0.050394 0.844219
Si Si5 0.944742 0.898510 0.377999
Si Si6 0.953619 0.725469 0.766049
Si Si7 0.009629 0.370386 0.065417
Si Si8 0.921444 0.241890 0.137608
O O1 0.639261 0.690572 0.737285
O O2 0.678538 0.890999 0.640744
O O3 0.620527 0.459181 0.627753
O O4 0.594919 0.951833 0.649854
O O5 0.826453 0.491636 0.822869
O O6 0.893223 0.157075 0.857503
O O7 0.911998 0.541988 0.787242
O O8 0.762618 0.105076 0.323527
O O9 0.722124 0.918897 0.229886
O O10 0.235200 0.854334 0.864285
O O11 0.970106 0.618069 0.393859
O O12 0.962942 0.051381 0.317579
O O13 0.955180 0.119590 0.430851
O O14 0.939239 0.863770 0.702947
O O15 0.000000 0.572500 0.750000
O O16 0.962501 0.253474 0.091015
O O17 0.000000 0.500000 0.000000
#
# Coordination Sequence:
#
# PCOD9454868 Si02
#       8
#     8   8   8   8   8   8   8   8
#     4  10  20  30  51  80 109 145 180 227 276 325
#     4  10  21  34  55  83 119 149 196 233 291 349
#     4   9  19  30  49  72 111 156 188 220 273 347
#     4   9  16  28  43  67 107 149 178 204 258 338
#     4  12  22  39  59  81 110 148 194 243 284 342
#     4  11  21  34  56  86 118 148 190 235 296 328
#     4  12  27  43  58  77 111 157 197 234 282 337
#     4  11  21  35  53  78 111 143 184 234 270 333
#
# _framework density 20.080749000000001
#
# number of rings (size 3 to 8) (size 9 to 14) (size 15 to 20)
#    0.000    1.500    3.750    1.875    1.750    4.500 
#    0.000    0.000    0.000    0.000    0.000    0.000 
#    0.000   20.000    0.000    0.000    0.000    0.000 
#
# Total GULP energy -356869.124182 kJ/mol
# GULP energy per Si atom -5576.080065 kJ/mol
# Density = 2.003504 g / cm^3
# Si number density = 20.080749 Si / 1000 Ang^3
#
#
#
# Elastic Constant Matrix: (Units=GPa)
#
#
# Indices 1 2 3 4 5 6 
#
# 1 69.0311 -2.5423 4.3261 0.0000 0.0000 0.0000
# 2 -2.5423 76.4317 -4.4957 0.0000 0.0000 0.0000
# 3 4.3261 -4.4957 29.5882 0.0000 0.0000 0.0000
# 4 0.0000 0.0000 0.0000 14.5696 0.0000 0.0000
# 5 0.0000 0.0000 0.0000 0.0000 7.6624 0.0000
# 6 0.0000 0.0000 0.0000 0.0000 0.0000 27.4190
#
#
#
# Elastic Compliance Matrix: (Units=1/GPa)
#
#
# Indices 1 2 3 4 5 6 
#
# 1 0.014630 0.000364 -0.002084 0.000000 0.000000 0.000000
# 2 0.000364 0.013211 0.001954 0.000000 0.000000 0.000000
# 3 -0.002084 0.001954 0.034399 0.000000 0.000000 0.000000
# 4 0.000000 0.000000 0.000000 0.068636 0.000000 0.000000
# 5 0.000000 0.000000 0.000000 0.000000 0.130508 0.000000
# 6 0.000000 0.000000 0.000000 0.000000 0.000000 0.036471
#
#
# Mechanical properties :
#
#
# Convention : Reuss Voigt Hill
#
# Bulk Modulus (GPa) = 15.94687 18.84746 17.39716
# Shear Modulus (GPa) = 15.70901 21.78104 18.74503
#
# Velocity S-wave (km/s) = 2.79998 3.29701 3.05861
# Velocity P-wave (km/s) = 4.29090 4.88875 4.59955
#
# Compressibility (1/GPa) = 0.06270825
#
# Stress axis : x y z
#
# Youngs Moduli (GPa) = 68.35163 75.69664 29.07081
#
# Poissons Ratio (x) = -0.02756 0.06058
# Poissons Ratio (y) = -0.02489 -0.05680
# Poissons Ratio (z) = 0.14243 -0.14791
#
# Static dielectric constant tensor:
#      x y z
#    x 1.785730 0.000000 0.000000 
#    y 0.000000 1.796390 0.000000 
#    z 0.000000 0.000000 1.704840 
# 
# From -- ./inp_files/24652.got.cif
#   From: 2010.05.17/outbox.cif.g08.bks.cpg/sg60_13_cif.got.tgz:24652.got - 2010.06.03 14:59:27.
