data_PCOD9454200
_publ_section_title
;
Structure prediction by ZEFSAII (Michael W. Deem and Ramdas Pophale) SiO2 
 PCOD9454200
Probable space group: P B C N
;
_chemical_formula_sum "Si O2"
_cell_formula_units_Z 52
_cell_length_a 14.910609
_cell_length_b 8.028261
_cell_length_c 19.833838
_cell_angle_alpha 90.000000
_cell_angle_beta 90.000000
_cell_angle_gamma 90.000000
_cell_volume 2374.234583
_symmetry_space_group_name_H-M "P B C N"
_symmetry_group_IT_number 60
_symmetry_cell_setting 'orthorhombic'
loop_
_space_group_symop_operation_xyz
x,y,z
1/2-x,1/2-y,1/2+z
1/2+x,1/2-y,-z
-x,y,1/2-z
-x,-y,-z
1/2+x,1/2+y,1/2-z
1/2-x,1/2+y,z
x,-y,1/2+z
loop_
_atom_site_type_symbol
_atom_site_label
_atom_site_fract_x
_atom_site_fract_y
_atom_site_fract_z
Si Si1 0.500000 0.908606 0.103938
Si Si2 0.862331 0.113688 0.633171
Si Si3 0.670851 0.768165 0.170352
Si Si4 0.500000 0.267682 0.467024
Si Si5 0.862331 0.113688 0.866829
Si Si6 0.829149 0.731834 0.829648
Si Si7 0.500000 0.285077 0.250000
O O1 0.588581 0.884329 0.148242
O O2 0.411419 0.884329 0.148242
O O3 0.500000 0.084789 0.067153
O O4 0.500000 0.766365 0.046168
O O5 0.762284 0.185206 0.632966
O O6 0.913244 0.140398 0.562811
O O7 0.922056 0.201818 0.690679
O O8 0.856947 0.920496 0.653911
O O9 0.686285 0.785499 0.250000
O O10 0.586756 0.359602 0.437189
O O11 0.762284 0.185206 0.867034
O O12 0.922056 0.201818 0.809321
O O13 0.856947 0.920496 0.846089
#
# Coordination Sequence:
#
# PCOD9454200 Si02
#       7
#     8   8   8   8   8   8   4
#     4  11  25  44  67  90 134 166 228 257 324 377
#     4  11  23  40  68  92 135 163 216 258 325 374
#     4  12  23  41  65 102 128 172 206 271 316 392
#     4  10  25  46  63  95 124 181 211 273 313 381
#     4  11  23  40  68  92 135 163 216 258 325 374
#     4  12  23  41  65 102 128 172 206 271 316 392
#     4  10  18  38  58  92 124 164 192 264 298 382
#
# _framework density 21.901793999999999
#
# number of rings (size 3 to 8) (size 9 to 14) (size 15 to 20)
#    0.000    0.923    3.077    4.154    0.000    3.692 
#   11.077    0.000    0.000    0.000    0.000    0.000 
#    0.000    0.000    0.000    0.000    0.000    0.000 
#
# Total GULP energy -290176.451191 kJ/mol
# GULP energy per Si atom -5580.316369 kJ/mol
# Density = 2.185194 g / cm^3
# Si number density = 21.901794 Si / 1000 Ang^3
#
#
#
# Elastic Constant Matrix: (Units=GPa)
#
#
# Indices 1 2 3 4 5 6 
#
# 1 170.9995 19.9771 13.4191 0.0000 0.0000 0.0000
# 2 19.9771 48.2406 23.5315 0.0000 0.0000 0.0000
# 3 13.4191 23.5315 42.0908 0.0000 0.0000 0.0000
# 4 0.0000 0.0000 0.0000 16.1188 0.0000 0.0000
# 5 0.0000 0.0000 0.0000 0.0000 -158.3057 0.0000
# 6 0.0000 0.0000 0.0000 0.0000 0.0000 -7.7193
#
#
#
# Elastic Compliance Matrix: (Units=1/GPa)
#
#
# Indices 1 2 3 4 5 6 
#
# 1 0.006162 -0.002191 -0.000740 0.000000 0.000000 0.000000
# 2 -0.002191 0.029281 -0.015672 0.000000 0.000000 0.000000
# 3 -0.000740 -0.015672 0.032755 0.000000 0.000000 0.000000
# 4 0.000000 0.000000 0.000000 0.062039 0.000000 0.000000
# 5 0.000000 0.000000 0.000000 0.000000 -0.006317 0.000000
# 6 0.000000 0.000000 0.000000 0.000000 0.000000 -0.129545
#
#
# Mechanical properties :
#
#
# Convention : Reuss Voigt Hill
#
# Bulk Modulus (GPa) = 32.26406 41.68736 36.97571
# Shear Modulus (GPa) = 119.29862 -16.35435 51.47214
#
# Velocity S-wave (km/s) = 7.38837 -2.73557 4.85308
# Velocity P-wave (km/s) = 9.35667 3.01617 6.95142
#
# Compressibility (1/GPa) = 0.03099424
#
# Stress axis : x y z
#
# Youngs Moduli (GPa) = 162.28565 34.15153 30.52932
#
# Poissons Ratio (x) = 0.07483 0.02258
# Poissons Ratio (y) = 0.35557 0.47844
# Poissons Ratio (z) = 0.12003 0.53521
#
# Static dielectric constant tensor:
#      x y z
#    x 1.752720 0.000000 0.000000 
#    y 0.000000 1.845130 0.000000 
#    z 0.000000 0.000000 1.762120 
# 
# From -- ./inp_files/22860.got.cif
#   From: 2010.05.17/outbox.cif.g08.bks.cpg/sg60_12_cif.got.tgz:22860.got - 2010.06.03 14:59:27.
