data_PCOD9454849
_publ_section_title
;
Structure prediction by ZEFSAII (Michael W. Deem and Ramdas Pophale) SiO2 
 PCOD9454849
Probable space group: P B C N
;
_chemical_formula_sum "Si O2"
_cell_formula_units_Z 32
_cell_length_a 12.213571
_cell_length_b 13.906052
_cell_length_c 8.144887
_cell_angle_alpha 90.000000
_cell_angle_beta 90.000000
_cell_angle_gamma 90.000000
_cell_volume 1383.348405
_symmetry_space_group_name_H-M "P B C N"
_symmetry_group_IT_number 60
_symmetry_cell_setting 'orthorhombic'
loop_
_space_group_symop_operation_xyz
x,y,z
1/2-x,1/2-y,1/2+z
1/2+x,1/2-y,-z
-x,y,1/2-z
-x,-y,-z
1/2+x,1/2+y,1/2-z
1/2-x,1/2+y,z
x,-y,1/2+z
loop_
_atom_site_type_symbol
_atom_site_label
_atom_site_fract_x
_atom_site_fract_y
_atom_site_fract_z
Si Si1 0.699086 0.652349 0.213078
Si Si2 0.000000 0.142372 0.750000
Si Si3 0.873992 0.009262 0.937848
Si Si4 0.000000 0.697869 0.750000
Si Si5 0.940040 0.674889 0.098722
O O1 0.682402 0.588286 0.377940
O O2 0.606097 0.733894 0.217888
O O3 0.818483 0.690852 0.168975
O O4 0.684792 0.575168 0.067860
O O5 0.894527 0.077028 0.778340
O O6 0.989615 0.216619 0.600682
O O7 0.000000 0.000000 0.000000
O O8 0.034595 0.640069 0.584583
O O9 0.000000 0.621380 0.250000
#
# Coordination Sequence:
#
# PCOD9454849 Si02
#       5
#     8   4   8   4   8
#     4  12  24  42  69 105 136 182 226 301 353 414
#     4  10  19  42  62  93 136 166 228 280 315 414
#     4  12  20  40  65 101 137 171 230 286 346 409
#     4  12  23  42  72 101 138 180 240 286 357 408
#     4  10  26  45  66 102 142 182 233 284 357 424
#
# _framework density 23.132277999999999
#
# number of rings (size 3 to 8) (size 9 to 14) (size 15 to 20)
#    0.750    0.000    7.500    0.000    7.000    0.000 
#    4.500    1.250    0.000    0.000    0.000    0.000 
#    0.000    0.000    0.000    0.000    0.000    0.000 
#
# Total GULP energy -178232.501421 kJ/mol
# GULP energy per Si atom -5569.765669 kJ/mol
# Density = 2.307963 g / cm^3
# Si number density = 23.132278 Si / 1000 Ang^3
#
#
#
# Elastic Constant Matrix: (Units=GPa)
#
#
# Indices 1 2 3 4 5 6 
#
# 1 111.0924 -0.3601 34.5001 0.0000 0.0000 0.0000
# 2 -0.3601 24.1010 5.6955 0.0000 0.0000 0.0000
# 3 34.5001 5.6955 145.6116 0.0000 0.0000 0.0000
# 4 0.0000 0.0000 0.0000 34.5619 0.0000 0.0000
# 5 0.0000 0.0000 0.0000 0.0000 30.6732 0.0000
# 6 0.0000 0.0000 0.0000 0.0000 0.0000 8.4691
#
#
#
# Elastic Compliance Matrix: (Units=1/GPa)
#
#
# Indices 1 2 3 4 5 6 
#
# 1 0.009728 0.000696 -0.002332 0.000000 0.000000 0.000000
# 2 0.000696 0.041929 -0.001805 0.000000 0.000000 0.000000
# 3 -0.002332 -0.001805 0.007491 0.000000 0.000000 0.000000
# 4 0.000000 0.000000 0.000000 0.028934 0.000000 0.000000
# 5 0.000000 0.000000 0.000000 0.000000 0.032602 0.000000
# 6 0.000000 0.000000 0.000000 0.000000 0.000000 0.118076
#
#
# Mechanical properties :
#
#
# Convention : Reuss Voigt Hill
#
# Bulk Modulus (GPa) = 19.13276 40.05288 29.59282
# Shear Modulus (GPa) = 19.00688 30.80547 24.90618
#
# Velocity S-wave (km/s) = 2.86957 3.65322 3.28485
# Velocity P-wave (km/s) = 4.38956 5.92849 5.21609
#
# Compressibility (1/GPa) = 0.05226638
#
# Stress axis : x y z
#
# Youngs Moduli (GPa) = 102.79581 23.84986 133.49807
#
# Poissons Ratio (x) = -0.01661 0.31133
# Poissons Ratio (y) = -0.07160 0.24097
# Poissons Ratio (z) = 0.23973 0.04305
#
# Static dielectric constant tensor:
#      x y z
#    x 1.953960 0.000000 0.000000 
#    y 0.000000 1.895330 0.000000 
#    z 0.000000 0.000000 2.156010 
# 
# From -- ./inp_files/4634.got.cif
#   From: 2010.05.17/outbox.cif.g08.bks.cpg/sg60_3_cif.got.tgz:4634.got - 2010.06.03 14:59:27.
