data_PCOD9454926
_publ_section_title
;
Structure prediction by ZEFSAII (Michael W. Deem and Ramdas Pophale) SiO2 
 PCOD9454926
Probable space group: P B C N
;
_chemical_formula_sum "Si O2"
_cell_formula_units_Z 48
_cell_length_a 18.747743
_cell_length_b 21.848907
_cell_length_c 5.548377
_cell_angle_alpha 90.000000
_cell_angle_beta 90.000000
_cell_angle_gamma 90.000000
_cell_volume 2272.713388
_symmetry_space_group_name_H-M "P B C N"
_symmetry_group_IT_number 60
_symmetry_cell_setting 'orthorhombic'
loop_
_space_group_symop_operation_xyz
x,y,z
1/2-x,1/2-y,1/2+z
1/2+x,1/2-y,-z
-x,y,1/2-z
-x,-y,-z
1/2+x,1/2+y,1/2-z
1/2-x,1/2+y,z
x,-y,1/2+z
loop_
_atom_site_type_symbol
_atom_site_label
_atom_site_fract_x
_atom_site_fract_y
_atom_site_fract_z
Si Si1 0.182501 0.832100 0.669845
Si Si2 0.500000 0.555790 0.250000
Si Si3 0.678501 0.789307 0.625496
Si Si4 0.526757 0.164526 0.994998
Si Si5 0.583079 0.726998 0.971365
Si Si6 0.500000 0.629872 0.750000
Si Si7 0.340776 0.527293 0.172238
O O1 0.196911 0.776739 0.486280
O O2 0.250447 0.828485 0.850132
O O3 0.173020 0.902274 0.599464
O O4 0.110901 0.810424 0.803635
O O5 0.497304 0.594253 0.498780
O O6 0.426179 0.519470 0.215305
O O7 0.611312 0.821950 0.494617
O O8 0.644179 0.773032 0.884341
O O9 0.500000 0.136554 0.250000
O O10 0.485090 0.230053 0.993697
O O11 0.500000 0.133031 0.750000
O O12 0.566842 0.676151 0.768868
O O13 0.313628 0.511897 0.443262
#
# Coordination Sequence:
#
# PCOD9454926 Si02
#       7
#     8   4   8   8   8   4   8
#     4  12  24  37  63  84 127 159 203 252 310 374
#     4  12  24  41  62  82 108 160 228 275 274 330
#     4  11  22  36  58  93 118 158 201 247 319 378
#     4  10  20  33  52  80 119 153 186 230 296 374
#     4  11  21  34  54  87 119 161 188 246 309 374
#     4  12  22  33  62  86 118 158 200 251 322 332
#     4  12  28  45  60  84 119 167 220 261 297 348
#
# _framework density 21.120128999999999
#
# number of rings (size 3 to 8) (size 9 to 14) (size 15 to 20)
#    0.000    0.667    7.500    2.500    3.500    0.000 
#    0.000    0.000    0.000    0.000    0.000    0.000 
#    0.000   17.333    0.000    0.000    0.000    0.000 
#
# Total GULP energy -267752.147380 kJ/mol
# GULP energy per Si atom -5578.169737 kJ/mol
# Density = 2.107206 g / cm^3
# Si number density = 21.120129 Si / 1000 Ang^3
#
#
#
# Elastic Constant Matrix: (Units=GPa)
#
#
# Indices 1 2 3 4 5 6 
#
# 1 74.8393 0.3017 -0.7922 0.0000 0.0000 0.0000
# 2 0.3017 31.8988 4.1118 0.0000 0.0000 0.0000
# 3 -0.7922 4.1118 112.5548 0.0000 0.0000 0.0000
# 4 0.0000 0.0000 0.0000 19.5329 0.0000 0.0000
# 5 0.0000 0.0000 0.0000 0.0000 18.9581 0.0000
# 6 0.0000 0.0000 0.0000 0.0000 0.0000 20.5495
#
#
#
# Elastic Compliance Matrix: (Units=1/GPa)
#
#
# Indices 1 2 3 4 5 6 
#
# 1 0.013364 -0.000139 0.000099 0.000000 0.000000 0.000000
# 2 -0.000139 0.031499 -0.001152 0.000000 0.000000 0.000000
# 3 0.000099 -0.001152 0.008927 0.000000 0.000000 0.000000
# 4 0.000000 0.000000 0.000000 0.051196 0.000000 0.000000
# 5 0.000000 0.000000 0.000000 0.000000 0.052748 0.000000
# 6 0.000000 0.000000 0.000000 0.000000 0.000000 0.048663
#
#
# Mechanical properties :
#
#
# Convention : Reuss Voigt Hill
#
# Bulk Modulus (GPa) = 19.45286 25.17063 22.31174
# Shear Modulus (GPa) = 22.13219 26.18620 24.15919
#
# Velocity S-wave (km/s) = 3.24067 3.52500 3.38582
# Velocity P-wave (km/s) = 4.82008 5.33959 5.08647
#
# Compressibility (1/GPa) = 0.05140633
#
# Stress axis : x y z
#
# Youngs Moduli (GPa) = 74.83031 31.74714 112.01553
#
# Poissons Ratio (x) = 0.00442 -0.01111
# Poissons Ratio (y) = 0.01042 0.12901
# Poissons Ratio (z) = -0.00742 0.03656
#
# Static dielectric constant tensor:
#      x y z
#    x 1.799970 0.000000 0.000000 
#    y 0.000000 1.719350 0.000000 
#    z 0.000000 0.000000 1.915710 
# 
# From -- ./inp_files/1798.got.cif
#   From: 2010.05.17/outbox.cif.g08.bks.cpg/sg60_1_cif.got.tgz:1798.got - 2010.06.03 14:59:27.
