data_PCOD9454210
_publ_section_title
;
Structure prediction by ZEFSAII (Michael W. Deem and Ramdas Pophale) SiO2 
 PCOD9454210
Probable space group: P B C N
;
_chemical_formula_sum "Si O2"
_cell_formula_units_Z 48
_cell_length_a 9.431527
_cell_length_b 17.399274
_cell_length_c 15.348872
_cell_angle_alpha 90.000000
_cell_angle_beta 90.000000
_cell_angle_gamma 90.000000
_cell_volume 2518.776334
_symmetry_space_group_name_H-M "P B C N"
_symmetry_group_IT_number 60
_symmetry_cell_setting 'orthorhombic'
loop_
_space_group_symop_operation_xyz
x,y,z
1/2-x,1/2-y,1/2+z
1/2+x,1/2-y,-z
-x,y,1/2-z
-x,-y,-z
1/2+x,1/2+y,1/2-z
1/2-x,1/2+y,z
x,-y,1/2+z
loop_
_atom_site_type_symbol
_atom_site_label
_atom_site_fract_x
_atom_site_fract_y
_atom_site_fract_z
Si Si1 0.976406 0.321765 0.980406
Si Si2 0.581927 0.482132 0.412369
Si Si3 0.943862 0.462571 0.089899
Si Si4 0.821663 0.052060 0.161197
Si Si5 0.185590 0.836426 0.994776
Si Si6 0.836142 0.568042 0.342033
O O1 0.932896 0.374126 0.063859
O O2 0.903823 0.239570 0.987815
O O3 0.922437 0.364141 0.890925
O O4 0.146832 0.319607 0.986179
O O5 0.500000 0.500000 0.500000
O O6 0.464708 0.500770 0.338850
O O7 0.650214 0.398324 0.428624
O O8 0.708104 0.542498 0.403600
O O9 0.795404 0.499374 0.114180
O O10 0.058694 0.494249 0.158774
O O11 0.000000 0.500000 0.000000
O O12 0.853358 0.123512 0.097412
O O13 0.742733 0.079239 0.249628
#
# Coordination Sequence:
#
# PCOD9454210 Si02
#       6
#     8   8   8   8   8   8
#     4  11  23  38  63  89 126 169 212 249 316 389
#     4  10  21  39  63  90 119 157 213 256 302 381
#     4  10  18  38  63  87 113 159 213 250 301 377
#     4  11  22  38  67  95 121 158 214 271 314 358
#     4  11  23  39  61  92 125 170 209 252 313 390
#     4  11  21  40  66  91 122 162 211 271 314 358
#
# _framework density 19.056873
#
# number of rings (size 3 to 8) (size 9 to 14) (size 15 to 20)
#    0.000    1.333    5.000    4.000    7.000    0.000 
#    0.000    1.667    3.667    0.000    0.000    0.000 
#    0.000    0.000    0.000    0.000    0.000    0.000 
#
# Total GULP energy -267355.182364 kJ/mol
# GULP energy per Si atom -5569.899633 kJ/mol
# Density = 1.901350 g / cm^3
# Si number density = 19.056873 Si / 1000 Ang^3
#
#
#
# Elastic Constant Matrix: (Units=GPa)
#
#
# Indices 1 2 3 4 5 6 
#
# 1 149.7194 53.5034 39.8817 0.0000 0.0000 0.0000
# 2 53.5034 116.0560 38.6499 0.0000 0.0000 0.0000
# 3 39.8817 38.6499 103.6391 0.0000 0.0000 0.0000
# 4 0.0000 0.0000 0.0000 10.4690 0.0000 0.0000
# 5 0.0000 0.0000 0.0000 0.0000 25.4930 0.0000
# 6 0.0000 0.0000 0.0000 0.0000 0.0000 35.9944
#
#
#
# Elastic Compliance Matrix: (Units=1/GPa)
#
#
# Indices 1 2 3 4 5 6 
#
# 1 0.008355 -0.003175 -0.002031 0.000000 0.000000 0.000000
# 2 -0.003175 0.011045 -0.002897 0.000000 0.000000 0.000000
# 3 -0.002031 -0.002897 0.011511 0.000000 0.000000 0.000000
# 4 0.000000 0.000000 0.000000 0.095520 0.000000 0.000000
# 5 0.000000 0.000000 0.000000 0.000000 0.039226 0.000000
# 6 0.000000 0.000000 0.000000 0.000000 0.000000 0.027782
#
#
# Mechanical properties :
#
#
# Convention : Reuss Voigt Hill
#
# Bulk Modulus (GPa) = 68.00815 70.38716 69.19766
# Shear Modulus (GPa) = 23.30485 30.21658 26.76072
#
# Velocity S-wave (km/s) = 3.50081 3.98628 3.75141
# Velocity P-wave (km/s) = 7.21840 7.62907 7.42657
#
# Compressibility (1/GPa) = 0.01470412
#
# Stress axis : x y z
#
# Youngs Moduli (GPa) = 119.69042 90.53659 86.87482
#
# Poissons Ratio (x) = 0.28749 0.17643
# Poissons Ratio (y) = 0.38006 0.25169
# Poissons Ratio (z) = 0.24308 0.26230
#
# Static dielectric constant tensor:
#      x y z
#    x 1.712280 0.000000 0.000000 
#    y 0.000000 1.678690 0.000000 
#    z 0.000000 0.000000 1.738220 
# 
# From -- ./inp_files/14977.got.cif
#   From: 2010.05.17/outbox.cif.g08.bks.cpg/sg60_8_cif.got.tgz:14977.got - 2010.06.03 14:59:27.
