data_PCOD9454539
_publ_section_title
;
Structure prediction by ZEFSAII (Michael W. Deem and Ramdas Pophale) SiO2 
 PCOD9454539
Probable space group: P B C N
;
_chemical_formula_sum "Si O2"
_cell_formula_units_Z 40
_cell_length_a 5.185620
_cell_length_b 20.780581
_cell_length_c 17.168330
_cell_angle_alpha 90.000000
_cell_angle_beta 90.000000
_cell_angle_gamma 90.000000
_cell_volume 1850.062613
_symmetry_space_group_name_H-M "P B C N"
_symmetry_group_IT_number 60
_symmetry_cell_setting 'orthorhombic'
loop_
_space_group_symop_operation_xyz
x,y,z
1/2-x,1/2-y,1/2+z
1/2+x,1/2-y,-z
-x,y,1/2-z
-x,-y,-z
1/2+x,1/2+y,1/2-z
1/2-x,1/2+y,z
x,-y,1/2+z
loop_
_atom_site_type_symbol
_atom_site_label
_atom_site_fract_x
_atom_site_fract_y
_atom_site_fract_z
Si Si1 0.217124 0.253845 0.103221
Si Si2 0.250961 0.973697 0.454974
Si Si3 0.943041 0.631280 0.337605
Si Si4 0.438077 0.571580 0.342127
Si Si5 0.716550 0.678060 0.561858
O O1 0.314588 0.201294 0.164837
O O2 0.435328 0.307928 0.095882
O O3 0.939767 0.286153 0.110891
O O4 0.225588 0.212449 0.022816
O O5 0.264846 0.897357 0.445700
O O6 0.500000 0.000000 0.500000
O O7 0.202226 0.007374 0.370778
O O8 0.000000 0.000000 0.500000
O O9 0.722852 0.586669 0.375401
O O10 0.000000 0.609281 0.250000
O O11 0.231342 0.625760 0.372069
O O12 0.500000 0.572905 0.250000
#
# Coordination Sequence:
#
# PCOD9454539 Si02
#       5
#     8   8   8   8   8
#     4  10  19  35  53  77 112 141 183 235 285 342
#     4  12  23  37  59  87 116 150 197 241 288 354
#     4  10  20  36  60  84 108 147 193 235 283 340
#     4  10  21  37  58  84 115 150 190 240 293 344
#     4  10  21  33  53  80 109 148 181 229 294 340
#
# _framework density 21.620889999999999
#
# number of rings (size 3 to 8) (size 9 to 14) (size 15 to 20)
#    0.000    1.600    0.000    6.000    0.000    3.200 
#    0.000    1.000    0.000    2.400    0.000    0.000 
#    0.000    0.000    0.000    0.000    0.000    0.000 
#
# Total GULP energy -223131.253379 kJ/mol
# GULP energy per Si atom -5578.281334 kJ/mol
# Density = 2.157168 g / cm^3
# Si number density = 21.620890 Si / 1000 Ang^3
#
#
#
# Elastic Constant Matrix: (Units=GPa)
#
#
# Indices 1 2 3 4 5 6 
#
# 1 135.3916 23.3706 29.8819 0.0000 0.0000 0.0000
# 2 23.3706 122.4059 7.2824 0.0000 0.0000 0.0000
# 3 29.8819 7.2824 21.2325 0.0000 0.0000 0.0000
# 4 0.0000 0.0000 0.0000 24.6778 0.0000 0.0000
# 5 0.0000 0.0000 0.0000 0.0000 25.0069 0.0000
# 6 0.0000 0.0000 0.0000 0.0000 0.0000 36.5488
#
#
#
# Elastic Compliance Matrix: (Units=1/GPa)
#
#
# Indices 1 2 3 4 5 6 
#
# 1 0.010881 -0.001191 -0.014906 0.000000 0.000000 0.000000
# 2 -0.001191 0.008470 -0.001229 0.000000 0.000000 0.000000
# 3 -0.014906 -0.001229 0.068497 0.000000 0.000000 0.000000
# 4 0.000000 0.000000 0.000000 0.040522 0.000000 0.000000
# 5 0.000000 0.000000 0.000000 0.000000 0.039989 0.000000
# 6 0.000000 0.000000 0.000000 0.000000 0.000000 0.027361
#
#
# Mechanical properties :
#
#
# Convention : Reuss Voigt Hill
#
# Bulk Modulus (GPa) = 18.79808 44.45555 31.62682
# Shear Modulus (GPa) = 20.15291 31.81305 25.98298
#
# Velocity S-wave (km/s) = 3.05635 3.84005 3.47039
# Velocity P-wave (km/s) = 4.60090 6.34565 5.54237
#
# Compressibility (1/GPa) = 0.05319691
#
# Stress axis : x y z
#
# Youngs Moduli (GPa) = 91.90093 118.06349 14.59925
#
# Poissons Ratio (x) = 0.14058 0.21761
# Poissons Ratio (y) = 0.10943 0.01795
# Poissons Ratio (z) = 1.36983 0.14513
#
# Static dielectric constant tensor:
#      x y z
#    x 1.871790 0.000000 0.000000 
#    y 0.000000 1.796210 0.000000 
#    z 0.000000 0.000000 1.921690 
# 
# From -- ./inp_files/21530.got.cif
#   From: 2010.05.17/outbox.cif.g08.bks.cpg/sg60_11_cif.got.tgz:21530.got - 2010.06.03 14:59:27.
