data_PCOD9454339
_publ_section_title
;
Structure prediction by ZEFSAII (Michael W. Deem and Ramdas Pophale) SiO2 
 PCOD9454339
Probable space group: P B C N
;
_chemical_formula_sum "Si O2"
_cell_formula_units_Z 44
_cell_length_a 28.802571
_cell_length_b 14.550543
_cell_length_c 5.010461
_cell_angle_alpha 90.000000
_cell_angle_beta 90.000000
_cell_angle_gamma 90.000000
_cell_volume 2099.849372
_symmetry_space_group_name_H-M "P B C N"
_symmetry_group_IT_number 60
_symmetry_cell_setting 'orthorhombic'
loop_
_space_group_symop_operation_xyz
x,y,z
1/2-x,1/2-y,1/2+z
1/2+x,1/2-y,-z
-x,y,1/2-z
-x,-y,-z
1/2+x,1/2+y,1/2-z
1/2-x,1/2+y,z
x,-y,1/2+z
loop_
_atom_site_type_symbol
_atom_site_label
_atom_site_fract_x
_atom_site_fract_y
_atom_site_fract_z
Si Si1 0.328274 0.934802 0.929399
Si Si2 0.131099 0.061315 0.552765
Si Si3 0.500000 0.822687 0.750000
Si Si4 0.728040 0.565678 0.073890
Si Si5 0.469284 0.355161 0.010936
Si Si6 0.926339 0.437887 0.444183
O O1 0.278211 0.886984 0.965286
O O2 0.377328 0.887565 0.992378
O O3 0.329123 0.979002 0.635756
O O4 0.179038 0.114459 0.484075
O O5 0.082509 0.108862 0.493927
O O6 0.132123 0.027288 0.856993
O O7 0.467427 0.752529 0.587412
O O8 0.469761 0.880456 0.955464
O O9 0.727535 0.519883 0.365378
O O10 0.500000 0.366475 0.750000
O O11 0.500000 0.398969 0.250000
O O12 0.927295 0.472879 0.141485
#
# Coordination Sequence:
#
# PCOD9454339 Si02
#       6
#     8   8   4   8   8   8
#     4   8  14  26  43  72  98 117 148 195 247 285
#     4  10  19  32  52  76  97 127 169 208 241 288
#     4  10  24  36  50  70 104 136 166 202 254 300
#     4   8  14  25  44  70  98 119 147 196 246 283
#     4  10  23  36  49  70  98 140 162 203 252 295
#     4  10  20  32  54  77  97 126 167 210 243 293
#
# _framework density 20.953883999999999
#
# number of rings (size 3 to 8) (size 9 to 14) (size 15 to 20)
#    0.545    2.182    0.000    1.636    2.545    2.182 
#    0.000    0.000    0.000    0.000    4.727    0.000 
#    0.000    0.000    0.000    0.000    0.000    0.000 
#
# Total GULP energy -245059.301734 kJ/mol
# GULP energy per Si atom -5569.529585 kJ/mol
# Density = 2.090619 g / cm^3
# Si number density = 20.953884 Si / 1000 Ang^3
#
#
#
# Elastic Constant Matrix: (Units=GPa)
#
#
# Indices 1 2 3 4 5 6 
#
# 1 167.9349 22.0496 -6.3288 0.0000 0.0000 0.0000
# 2 22.0496 13.3916 -1.2636 0.0000 0.0000 0.0000
# 3 -6.3288 -1.2636 89.3855 0.0000 0.0000 0.0000
# 4 0.0000 0.0000 0.0000 -0.2191 0.0000 0.0000
# 5 0.0000 0.0000 0.0000 0.0000 29.9712 0.0000
# 6 0.0000 0.0000 0.0000 0.0000 0.0000 -13.7693
#
#
#
# Elastic Compliance Matrix: (Units=1/GPa)
#
#
# Indices 1 2 3 4 5 6 
#
# 1 0.007609 -0.012494 0.000362 0.000000 0.000000 0.000000
# 2 -0.012494 0.095288 0.000462 0.000000 0.000000 0.000000
# 3 0.000362 0.000462 0.011220 0.000000 0.000000 0.000000
# 4 0.000000 0.000000 0.000000 -4.564286 0.000000 0.000000
# 5 0.000000 0.000000 0.000000 0.000000 0.033365 0.000000
# 6 0.000000 0.000000 0.000000 0.000000 0.000000 -0.072625
#
#
# Mechanical properties :
#
#
# Convention : Reuss Voigt Hill
#
# Bulk Modulus (GPa) = 11.01583 33.29180 22.15381
# Shear Modulus (GPa) = -1.12718 20.28022 9.57652
#
# Velocity S-wave (km/s) = -0.73424 3.11440 2.14014
# Velocity P-wave (km/s) = 2.13302 5.37171 4.08687
#
# Compressibility (1/GPa) = 0.09077845
#
# Stress axis : x y z
#
# Youngs Moduli (GPa) = 131.42771 10.49446 89.12911
#
# Poissons Ratio (x) = 0.13112 -0.03227
# Poissons Ratio (y) = 1.64203 -0.04122
# Poissons Ratio (z) = -0.04759 -0.00485
#
# Static dielectric constant tensor:
#      x y z
#    x 1.855600 0.000000 0.000000 
#    y 0.000000 1.726640 0.000000 
#    z 0.000000 0.000000 1.680080 
# 
# From -- ./inp_files/2530.got.cif
#   From: 2010.05.17/outbox.cif.g08.bks.cpg/sg60_2_cif.got.tgz:2530.got - 2010.06.03 14:59:27.
