data_PCOD9454518
_publ_section_title
;
Structure prediction by ZEFSAII (Michael W. Deem and Ramdas Pophale) SiO2 
 PCOD9454518
Probable space group: P B C N
;
_chemical_formula_sum "Si O2"
_cell_formula_units_Z 48
_cell_length_a 6.868041
_cell_length_b 25.418898
_cell_length_c 13.777474
_cell_angle_alpha 90.000000
_cell_angle_beta 90.000000
_cell_angle_gamma 90.000000
_cell_volume 2405.244319
_symmetry_space_group_name_H-M "P B C N"
_symmetry_group_IT_number 60
_symmetry_cell_setting 'orthorhombic'
loop_
_space_group_symop_operation_xyz
x,y,z
1/2-x,1/2-y,1/2+z
1/2+x,1/2-y,-z
-x,y,1/2-z
-x,-y,-z
1/2+x,1/2+y,1/2-z
1/2-x,1/2+y,z
x,-y,1/2+z
loop_
_atom_site_type_symbol
_atom_site_label
_atom_site_fract_x
_atom_site_fract_y
_atom_site_fract_z
Si Si1 0.761612 0.306581 0.533088
Si Si2 0.869906 0.668346 0.346419
Si Si3 0.059613 0.742889 0.646362
Si Si4 0.929640 0.553732 0.361080
Si Si5 0.664515 0.572668 0.045584
Si Si6 0.569914 0.516454 0.854758
O O1 0.627677 0.263374 0.586040
O O2 0.670874 0.364284 0.552686
O O3 0.977951 0.308048 0.577430
O O4 0.802761 0.293314 0.420709
O O5 0.686556 0.705090 0.331513
O O6 0.817618 0.609033 0.376905
O O7 0.000000 0.665726 0.250000
O O8 0.000000 0.719107 0.750000
O O9 0.790261 0.504051 0.363064
O O10 0.000000 0.555597 0.250000
O O11 0.110163 0.555269 0.435402
O O12 0.555929 0.536119 0.124006
O O13 0.561292 0.556788 0.944280
O O14 0.500000 0.536568 0.750000
#
# Coordination Sequence:
#
# PCOD9454518 Si02
#       6
#     8   8   8   8   8   8
#     4  11  23  40  59  90 122 160 201 247 301 362
#     4  10  20  35  59  92 118 151 200 250 300 352
#     4  12  23  38  64  88 121 160 201 251 299 355
#     4  10  19  34  60  88 116 149 193 247 297 347
#     4  10  23  39  59  85 122 155 195 245 300 357
#     4  11  21  38  61  88 116 155 199 244 295 356
#
# _framework density 19.956394
#
# number of rings (size 3 to 8) (size 9 to 14) (size 15 to 20)
#    0.000    1.333    5.000    1.500    0.000    1.333 
#    0.000    3.333    3.667    0.000    0.000    0.000 
#    0.000    0.000    0.000    0.000    0.000    0.000 
#
# Total GULP energy -267568.946044 kJ/mol
# GULP energy per Si atom -5574.353043 kJ/mol
# Density = 1.991097 g / cm^3
# Si number density = 19.956394 Si / 1000 Ang^3
#
#
#
# Elastic Constant Matrix: (Units=GPa)
#
#
# Indices 1 2 3 4 5 6 
#
# 1 34.0552 2.9326 6.4901 0.0000 0.0000 0.0000
# 2 2.9326 24.2950 7.6289 0.0000 0.0000 0.0000
# 3 6.4901 7.6289 104.4175 0.0000 0.0000 0.0000
# 4 0.0000 0.0000 0.0000 5.1712 0.0000 0.0000
# 5 0.0000 0.0000 0.0000 0.0000 31.9872 0.0000
# 6 0.0000 0.0000 0.0000 0.0000 0.0000 7.9442
#
#
#
# Elastic Compliance Matrix: (Units=1/GPa)
#
#
# Indices 1 2 3 4 5 6 
#
# 1 0.029943 -0.003101 -0.001635 0.000000 0.000000 0.000000
# 2 -0.003101 0.042448 -0.002909 0.000000 0.000000 0.000000
# 3 -0.001635 -0.002909 0.009891 0.000000 0.000000 0.000000
# 4 0.000000 0.000000 0.000000 0.193379 0.000000 0.000000
# 5 0.000000 0.000000 0.000000 0.000000 0.031263 0.000000
# 6 0.000000 0.000000 0.000000 0.000000 0.000000 0.125878
#
#
# Mechanical properties :
#
#
# Convention : Reuss Voigt Hill
#
# Bulk Modulus (GPa) = 14.92675 21.87452 18.40063
# Shear Modulus (GPa) = 10.62878 18.73493 14.68186
#
# Velocity S-wave (km/s) = 2.31032 3.06730 2.71532
# Velocity P-wave (km/s) = 3.82265 4.85071 4.36704
#
# Compressibility (1/GPa) = 0.06699383
#
# Stress axis : x y z
#
# Youngs Moduli (GPa) = 33.39717 23.55803 101.10159
#
# Poissons Ratio (x) = 0.07305 0.16525
# Poissons Ratio (y) = 0.10356 0.29406
# Poissons Ratio (z) = 0.05459 0.06852
#
# Static dielectric constant tensor:
#      x y z
#    x 1.724540 0.000000 0.000000 
#    y 0.000000 1.700860 0.000000 
#    z 0.000000 0.000000 1.793530 
# 
# From -- ./inp_files/13920.got.cif
#   From: 2010.05.17/outbox.cif.g08.bks.cpg/sg60_7_cif.got.tgz:13920.got - 2010.06.03 14:59:27.
