data_PCOD9454669
_publ_section_title
;
Structure prediction by ZEFSAII (Michael W. Deem and Ramdas Pophale) SiO2 
 PCOD9454669
Probable space group: P B C N
;
_chemical_formula_sum "Si O2"
_cell_formula_units_Z 56
_cell_length_a 9.723834
_cell_length_b 17.895674
_cell_length_c 13.452429
_cell_angle_alpha 90.000000
_cell_angle_beta 90.000000
_cell_angle_gamma 90.000000
_cell_volume 2340.918558
_symmetry_space_group_name_H-M "P B C N"
_symmetry_group_IT_number 60
_symmetry_cell_setting 'orthorhombic'
loop_
_space_group_symop_operation_xyz
x,y,z
1/2-x,1/2-y,1/2+z
1/2+x,1/2-y,-z
-x,y,1/2-z
-x,-y,-z
1/2+x,1/2+y,1/2-z
1/2-x,1/2+y,z
x,-y,1/2+z
loop_
_atom_site_type_symbol
_atom_site_label
_atom_site_fract_x
_atom_site_fract_y
_atom_site_fract_z
Si Si1 0.896747 0.320551 0.020564
Si Si2 0.210195 0.288839 0.081726
Si Si3 0.308756 0.524340 0.327322
Si Si4 0.110127 0.161514 0.183936
Si Si5 0.480221 0.937601 0.867108
Si Si6 0.350611 0.575411 0.990414
Si Si7 0.710634 0.045111 0.868629
O O1 0.808948 0.245043 0.002391
O O2 0.773710 0.375697 0.058362
O O3 0.948099 0.371497 0.927145
O O4 0.044721 0.297583 0.065572
O O5 0.225678 0.223345 0.163836
O O6 0.252172 0.371645 0.107912
O O7 0.358245 0.593099 0.259161
O O8 0.180555 0.556424 0.390112
O O9 0.406806 0.475721 0.399450
O O10 0.243917 0.469694 0.245867
O O11 0.076510 0.129774 0.072275
O O12 0.000000 0.204389 0.250000
O O13 0.500000 0.922659 0.750000
O O14 0.553061 0.017990 0.886145
O O15 0.290334 0.514570 0.065714
#
# Coordination Sequence:
#
# PCOD9454669 Si02
#       7
#     8   8   8   8   8   8   8
#     4  10  22  38  58  88 124 160 203 254 308 374
#     4  11  22  39  59  90 129 161 203 254 314 377
#     4  10  19  36  63  86 111 157 206 256 304 350
#     4  10  24  40  55  86 126 158 197 249 309 380
#     4   9  17  34  61  89 114 150 205 258 299 347
#     4   9  19  39  62  85 112 152 209 253 292 353
#     4   9  19  34  59  91 116 144 200 261 295 344
#
# _framework density 23.922232999999999
#
# number of rings (size 3 to 8) (size 9 to 14) (size 15 to 20)
#    0.000    2.286    0.000    4.286    0.000    8.000 
#    0.000   10.000    0.000    6.857    0.000    0.000 
#    0.000    0.000    0.000    0.000    0.000    0.000 
#
# Total GULP energy -311800.037777 kJ/mol
# GULP energy per Si atom -5567.857817 kJ/mol
# Density = 2.386779 g / cm^3
# Si number density = 23.922233 Si / 1000 Ang^3
#
#
#
# Elastic Constant Matrix: (Units=GPa)
#
#
# Indices 1 2 3 4 5 6 
#
# 1 66.2512 12.1745 -0.9258 0.0000 0.0000 0.0000
# 2 12.1745 137.6962 23.4194 0.0000 0.0000 0.0000
# 3 -0.9258 23.4194 70.5015 0.0000 0.0000 0.0000
# 4 0.0000 0.0000 0.0000 26.7533 0.0000 0.0000
# 5 0.0000 0.0000 0.0000 0.0000 13.1821 0.0000
# 6 0.0000 0.0000 0.0000 0.0000 0.0000 34.5239
#
#
#
# Elastic Compliance Matrix: (Units=1/GPa)
#
#
# Indices 1 2 3 4 5 6 
#
# 1 0.015375 -0.001477 0.000693 0.000000 0.000000 0.000000
# 2 -0.001477 0.007839 -0.002623 0.000000 0.000000 0.000000
# 3 0.000693 -0.002623 0.015065 0.000000 0.000000 0.000000
# 4 0.000000 0.000000 0.000000 0.037379 0.000000 0.000000
# 5 0.000000 0.000000 0.000000 0.000000 0.075860 0.000000
# 6 0.000000 0.000000 0.000000 0.000000 0.000000 0.028965
#
#
# Mechanical properties :
#
#
# Convention : Reuss Voigt Hill
#
# Bulk Modulus (GPa) = 31.78342 38.19835 34.99089
# Shear Modulus (GPa) = 25.27971 30.87725 28.07848
#
# Velocity S-wave (km/s) = 3.25429 3.59658 3.42971
# Velocity P-wave (km/s) = 5.23789 5.76624 5.50841
#
# Compressibility (1/GPa) = 0.03146295
#
# Stress axis : x y z
#
# Youngs Moduli (GPa) = 65.03983 127.56453 66.38052
#
# Poissons Ratio (x) = 0.18844 -0.04598
# Poissons Ratio (y) = 0.09608 0.17415
# Poissons Ratio (z) = -0.04505 0.33466
#
# Static dielectric constant tensor:
#      x y z
#    x 2.103810 0.000000 0.000000 
#    y 0.000000 1.935830 0.000000 
#    z 0.000000 0.000000 1.963680 
# 
# From -- ./inp_files/16144.got.cif
#   From: 2010.05.17/outbox.cif.g08.bks.cpg/sg60_9_cif.got.tgz:16144.got - 2010.06.03 14:59:27.
