data_PCOD9454272
_publ_section_title
;
Structure prediction by ZEFSAII (Michael W. Deem and Ramdas Pophale) SiO2 
 PCOD9454272
Probable space group: P B C N
;
_chemical_formula_sum "Si O2"
_cell_formula_units_Z 56
_cell_length_a 26.269786
_cell_length_b 19.846423
_cell_length_c 5.359801
_cell_angle_alpha 90.000000
_cell_angle_beta 90.000000
_cell_angle_gamma 90.000000
_cell_volume 2794.392737
_symmetry_space_group_name_H-M "P B C N"
_symmetry_group_IT_number 60
_symmetry_cell_setting 'orthorhombic'
loop_
_space_group_symop_operation_xyz
x,y,z
1/2-x,1/2-y,1/2+z
1/2+x,1/2-y,-z
-x,y,1/2-z
-x,-y,-z
1/2+x,1/2+y,1/2-z
1/2-x,1/2+y,z
x,-y,1/2+z
loop_
_atom_site_type_symbol
_atom_site_label
_atom_site_fract_x
_atom_site_fract_y
_atom_site_fract_z
Si Si1 0.645058 0.764179 0.432591
Si Si2 0.223185 0.016301 0.996228
Si Si3 0.030681 0.309442 0.002074
Si Si4 0.758612 0.351833 0.841997
Si Si5 0.934883 0.538480 0.920136
Si Si6 0.806885 0.214744 0.948388
Si Si7 0.678891 0.915121 0.492460
O O1 0.586620 0.777347 0.495874
O O2 0.668648 0.723287 0.671590
O O3 0.671382 0.838481 0.384591
O O4 0.652420 0.727041 0.169255
O O5 0.233110 0.095622 0.975512
O O6 0.194959 0.008448 0.255544
O O7 0.274556 0.969465 0.040588
O O8 0.040755 0.389635 0.020493
O O9 0.000000 0.289303 0.250000
O O10 0.000000 0.294751 0.750000
O O11 0.768878 0.279013 0.946115
O O12 0.727265 0.343515 0.581074
O O13 0.811329 0.389987 0.776340
O O14 0.947608 0.512400 0.644357
O O15 0.873569 0.548657 0.934472
#
# Coordination Sequence:
#
# PCOD9454272 Si02
#       7
#     8   8   8   8   8   8   8
#     4  10  22  37  54  73 100 131 172 223 272 315
#     4  10  19  30  46  67  94 128 171 210 241 283
#     4  11  23  39  57  74  93 124 169 221 279 336
#     4  10  20  33  51  73 102 137 178 218 252 299
#     4  11  22  34  49  70  98 130 165 214 266 309
#     4  11  21  34  50  74 102 135 172 214 262 303
#     4   9  19  33  49  71  99 135 177 213 248 295
#
# _framework density 20.040133000000001
#
# number of rings (size 3 to 8) (size 9 to 14) (size 15 to 20)
#    0.000    1.714    0.000    6.000    0.000   12.000 
#    0.000    0.000    0.000    0.000    0.000    0.000 
#    0.000    0.000    0.000    0.000    0.000  200.000 
#
# Total GULP energy -311950.107829 kJ/mol
# GULP energy per Si atom -5570.537640 kJ/mol
# Density = 1.999452 g / cm^3
# Si number density = 20.040133 Si / 1000 Ang^3
#
#
#
# Elastic Constant Matrix: (Units=GPa)
#
#
# Indices 1 2 3 4 5 6 
#
# 1 84.3649 12.8545 33.5280 0.0000 0.0000 0.0000
# 2 12.8545 53.2294 13.5620 0.0000 0.0000 0.0000
# 3 33.5280 13.5620 142.1612 0.0000 0.0000 0.0000
# 4 0.0000 0.0000 0.0000 33.1520 0.0000 0.0000
# 5 0.0000 0.0000 0.0000 0.0000 27.3330 0.0000
# 6 0.0000 0.0000 0.0000 0.0000 0.0000 28.0735
#
#
#
# Elastic Compliance Matrix: (Units=1/GPa)
#
#
# Indices 1 2 3 4 5 6 
#
# 1 0.013394 -0.002490 -0.002921 0.000000 0.000000 0.000000
# 2 -0.002490 0.019718 -0.001294 0.000000 0.000000 0.000000
# 3 -0.002921 -0.001294 0.007847 0.000000 0.000000 0.000000
# 4 0.000000 0.000000 0.000000 0.030164 0.000000 0.000000
# 5 0.000000 0.000000 0.000000 0.000000 0.036586 0.000000
# 6 0.000000 0.000000 0.000000 0.000000 0.000000 0.035621
#
#
# Mechanical properties :
#
#
# Convention : Reuss Voigt Hill
#
# Bulk Modulus (GPa) = 36.30088 44.40495 40.35291
# Shear Modulus (GPa) = 30.13473 32.36575 31.25024
#
# Velocity S-wave (km/s) = 3.88199 4.02312 3.95319
# Velocity P-wave (km/s) = 6.18438 6.61716 6.40443
#
# Compressibility (1/GPa) = 0.02754754
#
# Stress axis : x y z
#
# Youngs Moduli (GPa) = 74.66224 50.71613 127.44286
#
# Poissons Ratio (x) = 0.12629 0.37229
# Poissons Ratio (y) = 0.18592 0.16488
# Poissons Ratio (z) = 0.21811 0.06561
#
# Static dielectric constant tensor:
#      x y z
#    x 1.751600 0.000000 0.000000 
#    y 0.000000 1.747190 0.000000 
#    z 0.000000 0.000000 1.817090 
# 
# From -- ./inp_files/2385.got.cif
#   From: 2010.05.17/outbox.cif.g08.bks.cpg/sg60_2_cif.got.tgz:2385.got - 2010.06.03 14:59:27.
