data_PCOD9454085
_publ_section_title
;
Structure prediction by ZEFSAII (Michael W. Deem and Ramdas Pophale) SiO2 
 PCOD9454085
Probable space group: P B C N
;
_chemical_formula_sum "Si O2"
_cell_formula_units_Z 60
_cell_length_a 11.783930
_cell_length_b 22.755768
_cell_length_c 11.345171
_cell_angle_alpha 90.000000
_cell_angle_beta 90.000000
_cell_angle_gamma 90.000000
_cell_volume 3042.234573
_symmetry_space_group_name_H-M "P B C N"
_symmetry_group_IT_number 60
_symmetry_cell_setting 'orthorhombic'
loop_
_space_group_symop_operation_xyz
x,y,z
1/2-x,1/2-y,1/2+z
1/2+x,1/2-y,-z
-x,y,1/2-z
-x,-y,-z
1/2+x,1/2+y,1/2-z
1/2-x,1/2+y,z
x,-y,1/2+z
loop_
_atom_site_type_symbol
_atom_site_label
_atom_site_fract_x
_atom_site_fract_y
_atom_site_fract_z
Si Si1 0.496889 0.896375 0.119973
Si Si2 0.000000 0.542549 0.250000
Si Si3 0.327162 0.964854 0.543098
Si Si4 0.078012 0.719363 0.969770
Si Si5 0.819973 0.586636 0.064442
Si Si6 0.089879 0.772947 0.352622
Si Si7 0.300825 0.343857 0.554909
Si Si8 0.193223 0.808996 0.812143
O O1 0.500000 0.920328 0.250000
O O2 0.550877 0.832177 0.120824
O O3 0.577391 0.938053 0.043284
O O4 0.377082 0.889951 0.055692
O O5 0.898372 0.519228 0.338472
O O6 0.922630 0.579061 0.158062
O O7 0.238494 0.911873 0.561920
O O8 0.278926 0.022008 0.476420
O O9 0.105476 0.777534 0.898284
O O10 0.186854 0.695292 0.039669
O O11 0.976873 0.728970 0.060464
O O12 0.734682 0.631551 0.124003
O O13 0.128388 0.826515 0.438083
O O14 0.200247 0.737319 0.307033
O O15 0.000000 0.788781 0.250000
O O16 0.349011 0.323979 0.681146
#
# Coordination Sequence:
#
# PCOD9454085 Si02
#       8
#     8   4   8   8   8   8   8   8
#     4  10  21  32  50  83 121 154 188 245 303 363
#     4  10  18  34  56  80 116 160 194 234 310 370
#     4  10  22  35  55  86 119 158 199 246 300 374
#     4  10  22  36  56  89 117 156 202 244 298 361
#     4  11  22  33  58  83 119 164 198 247 306 367
#     4  11  22  40  62  85 123 164 198 250 308 364
#     4  10  22  39  60  86 118 160 207 247 305 360
#     4  11  22  37  62  88 120 163 207 246 298 374
#
# _framework density 19.722345000000001
#
# number of rings (size 3 to 8) (size 9 to 14) (size 15 to 20)
#    0.000    1.600    4.000    1.600    6.533    0.000 
#    2.400    0.000    0.000    0.800    0.000    0.000 
#    0.000    0.000    0.000    0.000    0.000    0.000 
#
# Total GULP energy -334564.678341 kJ/mol
# GULP energy per Si atom -5576.077972 kJ/mol
# Density = 1.967746 g / cm^3
# Si number density = 19.722345 Si / 1000 Ang^3
#
#
#
# Elastic Constant Matrix: (Units=GPa)
#
#
# Indices 1 2 3 4 5 6 
#
# 1 30.3759 12.7439 15.2103 0.0000 0.0000 0.0000
# 2 12.7439 106.5097 33.9060 0.0000 0.0000 0.0000
# 3 15.2103 33.9060 119.6939 0.0000 0.0000 0.0000
# 4 0.0000 0.0000 0.0000 5.7987 0.0000 0.0000
# 5 0.0000 0.0000 0.0000 0.0000 19.8082 0.0000
# 6 0.0000 0.0000 0.0000 0.0000 0.0000 -6.3208
#
#
#
# Elastic Compliance Matrix: (Units=1/GPa)
#
#
# Indices 1 2 3 4 5 6 
#
# 1 0.036090 -0.003141 -0.003696 0.000000 0.000000 0.000000
# 2 -0.003141 0.010593 -0.002601 0.000000 0.000000 0.000000
# 3 -0.003696 -0.002601 0.009561 0.000000 0.000000 0.000000
# 4 0.000000 0.000000 0.000000 0.172453 0.000000 0.000000
# 5 0.000000 0.000000 0.000000 0.000000 0.050484 0.000000
# 6 0.000000 0.000000 0.000000 0.000000 0.000000 -0.158207
#
#
# Mechanical properties :
#
#
# Convention : Reuss Voigt Hill
#
# Bulk Modulus (GPa) = 26.76272 42.25553 34.50912
# Shear Modulus (GPa) = 32.82847 16.83849 24.83348
#
# Velocity S-wave (km/s) = 4.08429 2.92512 3.55231
# Velocity P-wave (km/s) = 5.98675 5.73412 5.86179
#
# Compressibility (1/GPa) = 0.03736542
#
# Stress axis : x y z
#
# Youngs Moduli (GPa) = 27.70875 94.40347 104.58854
#
# Poissons Ratio (x) = 0.29657 0.38659
# Poissons Ratio (y) = 0.08705 0.27208
# Poissons Ratio (z) = 0.10242 0.24559
#
# Static dielectric constant tensor:
#      x y z
#    x 1.697110 0.000000 0.000000 
#    y 0.000000 1.745760 0.000000 
#    z 0.000000 0.000000 1.725290 
# 
# From -- ./inp_files/11238.got.cif
#   From: 2010.05.17/outbox.cif.g08.bks.cpg/sg60_6_cif.got.tgz:11238.got - 2010.06.03 14:59:27.
