data_PCOD9454657
_publ_section_title
;
Structure prediction by ZEFSAII (Michael W. Deem and Ramdas Pophale) SiO2 
 PCOD9454657
Probable space group: P B C N
;
_chemical_formula_sum "Si O2"
_cell_formula_units_Z 52
_cell_length_a 7.997566
_cell_length_b 20.413834
_cell_length_c 14.179084
_cell_angle_alpha 90.000000
_cell_angle_beta 90.000000
_cell_angle_gamma 90.000000
_cell_volume 2314.891216
_symmetry_space_group_name_H-M "P B C N"
_symmetry_group_IT_number 60
_symmetry_cell_setting 'orthorhombic'
loop_
_space_group_symop_operation_xyz
x,y,z
1/2-x,1/2-y,1/2+z
1/2+x,1/2-y,-z
-x,y,1/2-z
-x,-y,-z
1/2+x,1/2+y,1/2-z
1/2-x,1/2+y,z
x,-y,1/2+z
loop_
_atom_site_type_symbol
_atom_site_label
_atom_site_fract_x
_atom_site_fract_y
_atom_site_fract_z
Si Si1 0.011833 0.158993 0.564301
Si Si2 0.263859 0.663495 0.286783
Si Si3 0.688433 0.753799 0.060662
Si Si4 0.500000 0.412298 0.250000
Si Si5 0.376813 0.523587 0.356346
Si Si6 0.918238 0.650490 0.401457
Si Si7 0.199567 0.957398 0.535307
O O1 0.162613 0.190357 0.506153
O O2 0.062848 0.133089 0.665687
O O3 0.869563 0.214283 0.574138
O O4 0.915063 0.101061 0.509680
O O5 0.360825 0.723147 0.337908
O O6 0.344941 0.592670 0.307633
O O7 0.220710 0.673396 0.176742
O O8 0.090272 0.657516 0.345672
O O9 0.593809 0.809718 0.999582
O O10 0.355989 0.459510 0.292063
O O11 0.572157 0.517472 0.386122
O O12 0.277702 0.510920 0.453571
O O13 0.864124 0.576197 0.424797
#
# Coordination Sequence:
#
# PCOD9454657 Si02
#       7
#     8   8   8   4   8   8   8
#     4  10  21  37  61  83 120 152 198 243 302 354
#     4  11  22  38  60  85 118 159 197 246 305 356
#     4  11  21  38  58  86 117 155 193 249 298 360
#     4  10  22  36  64  90 112 162 200 246 292 356
#     4  10  19  36  62  87 117 151 202 244 290 359
#     4  10  23  38  58  86 118 154 199 242 304 358
#     4   9  19  37  57  89 114 152 194 242 293 348
#
# _framework density 22.463259999999998
#
# number of rings (size 3 to 8) (size 9 to 14) (size 15 to 20)
#    0.000    1.846    3.077    0.923    2.154    0.615 
#    0.000    0.000    0.000    1.846    0.000    0.000 
#    0.000    0.000    0.000    0.000    0.000    0.000 
#
# Total GULP energy -289879.616237 kJ/mol
# GULP energy per Si atom -5574.608005 kJ/mol
# Density = 2.241213 g / cm^3
# Si number density = 22.463260 Si / 1000 Ang^3
#
#
#
# Elastic Constant Matrix: (Units=GPa)
#
#
# Indices 1 2 3 4 5 6 
#
# 1 44.2450 18.4492 15.3200 0.0000 0.0000 0.0000
# 2 18.4492 75.2456 20.7480 0.0000 0.0000 0.0000
# 3 15.3200 20.7480 92.0223 0.0000 0.0000 0.0000
# 4 0.0000 0.0000 0.0000 34.3738 0.0000 0.0000
# 5 0.0000 0.0000 0.0000 0.0000 19.2328 0.0000
# 6 0.0000 0.0000 0.0000 0.0000 0.0000 28.5273
#
#
#
# Elastic Compliance Matrix: (Units=1/GPa)
#
#
# Indices 1 2 3 4 5 6 
#
# 1 0.025968 -0.005518 -0.003079 0.000000 0.000000 0.000000
# 2 -0.005518 0.015343 -0.002541 0.000000 0.000000 0.000000
# 3 -0.003079 -0.002541 0.011952 0.000000 0.000000 0.000000
# 4 0.000000 0.000000 0.000000 0.029092 0.000000 0.000000
# 5 0.000000 0.000000 0.000000 0.000000 0.051994 0.000000
# 6 0.000000 0.000000 0.000000 0.000000 0.000000 0.035054
#
#
# Mechanical properties :
#
#
# Convention : Reuss Voigt Hill
#
# Bulk Modulus (GPa) = 32.27024 35.61636 33.94330
# Shear Modulus (GPa) = 24.75123 26.89316 25.82220
#
# Velocity S-wave (km/s) = 3.32302 3.46382 3.39415
# Velocity P-wave (km/s) = 5.39632 5.64688 5.52302
#
# Compressibility (1/GPa) = 0.03098831
#
# Stress axis : x y z
#
# Youngs Moduli (GPa) = 38.50823 65.17479 83.66518
#
# Poissons Ratio (x) = 0.35964 0.25762
# Poissons Ratio (y) = 0.21249 0.21257
# Poissons Ratio (z) = 0.11857 0.16559
#
# Static dielectric constant tensor:
#      x y z
#    x 1.869800 0.000000 0.000000 
#    y 0.000000 1.893450 0.000000 
#    z 0.000000 0.000000 1.937190 
# 
# From -- ./inp_files/15188.got.cif
#   From: 2010.05.17/outbox.cif.g08.bks.cpg/sg60_8_cif.got.tgz:15188.got - 2010.06.03 14:59:27.
