data_PCOD9454575
_publ_section_title
;
Structure prediction by ZEFSAII (Michael W. Deem and Ramdas Pophale) SiO2 
 PCOD9454575
Probable space group: P B C N
;
_chemical_formula_sum "Si O2"
_cell_formula_units_Z 40
_cell_length_a 9.169873
_cell_length_b 27.417975
_cell_length_c 8.510916
_cell_angle_alpha 90.000000
_cell_angle_beta 90.000000
_cell_angle_gamma 90.000000
_cell_volume 2139.808957
_symmetry_space_group_name_H-M "P B C N"
_symmetry_group_IT_number 60
_symmetry_cell_setting 'orthorhombic'
loop_
_space_group_symop_operation_xyz
x,y,z
1/2-x,1/2-y,1/2+z
1/2+x,1/2-y,-z
-x,y,1/2-z
-x,-y,-z
1/2+x,1/2+y,1/2-z
1/2-x,1/2+y,z
x,-y,1/2+z
loop_
_atom_site_type_symbol
_atom_site_label
_atom_site_fract_x
_atom_site_fract_y
_atom_site_fract_z
Si Si1 0.294882 0.700837 0.594089
Si Si2 0.918125 0.792686 0.911983
Si Si3 0.784500 0.642150 0.590895
Si Si4 0.066279 0.353061 0.921375
Si Si5 0.470164 0.946589 0.434208
O O1 0.459808 0.714309 0.548741
O O2 0.197793 0.749206 0.607702
O O3 0.269738 0.665025 0.744205
O O4 0.218291 0.672597 0.449561
O O5 0.000000 0.797905 0.750000
O O6 0.828366 0.839934 0.962456
O O7 0.817866 0.584554 0.566358
O O8 0.944364 0.664807 0.548662
O O9 0.000000 0.346296 0.750000
O O10 0.073589 0.410051 0.966751
O O11 0.500000 0.947149 0.250000
O O12 0.500000 0.000000 0.500000
#
# Coordination Sequence:
#
# PCOD9454575 Si02
#       5
#     8   8   8   8   8
#     4  12  22  39  60  87 128 173 211 253 316 373
#     4  12  25  37  61  90 128 171 218 255 308 381
#     4  10  22  41  58  90 126 162 206 261 316 372
#     4  10  19  35  60  89 123 155 208 259 308 372
#     4  10  20  38  67  96 121 156 210 265 323 368
#
# _framework density 18.693258
#
# number of rings (size 3 to 8) (size 9 to 14) (size 15 to 20)
#    1.200    0.000    2.000    6.600    0.000    1.600 
#    0.000    0.000    0.000    1.200    0.000    0.000 
#    0.000    0.000    0.000    0.000    0.000    0.000 
#
# Total GULP energy -222742.709483 kJ/mol
# GULP energy per Si atom -5568.567737 kJ/mol
# Density = 1.865071 g / cm^3
# Si number density = 18.693258 Si / 1000 Ang^3
#
#
#
# Elastic Constant Matrix: (Units=GPa)
#
#
# Indices 1 2 3 4 5 6 
#
# 1 73.8042 40.1171 3.8999 0.0000 0.0000 0.0000
# 2 40.1171 123.8721 35.8122 0.0000 0.0000 0.0000
# 3 3.8999 35.8122 70.2702 0.0000 0.0000 0.0000
# 4 0.0000 0.0000 0.0000 23.6209 0.0000 0.0000
# 5 0.0000 0.0000 0.0000 0.0000 23.1503 0.0000
# 6 0.0000 0.0000 0.0000 0.0000 0.0000 16.7557
#
#
#
# Elastic Compliance Matrix: (Units=1/GPa)
#
#
# Indices 1 2 3 4 5 6 
#
# 1 0.016716 -0.006035 0.002148 0.000000 0.000000 0.000000
# 2 -0.006035 0.011646 -0.005600 0.000000 0.000000 0.000000
# 3 0.002148 -0.005600 0.016966 0.000000 0.000000 0.000000
# 4 0.000000 0.000000 0.000000 0.042335 0.000000 0.000000
# 5 0.000000 0.000000 0.000000 0.000000 0.043196 0.000000
# 6 0.000000 0.000000 0.000000 0.000000 0.000000 0.059681
#
#
# Mechanical properties :
#
#
# Convention : Reuss Voigt Hill
#
# Bulk Modulus (GPa) = 37.94563 47.51166 42.72864
# Shear Modulus (GPa) = 22.90429 25.24654 24.07542
#
# Velocity S-wave (km/s) = 3.50418 3.67900 3.59265
# Velocity P-wave (km/s) = 6.05934 6.59684 6.33379
#
# Compressibility (1/GPa) = 0.02635350
#
# Stress axis : x y z
#
# Youngs Moduli (GPa) = 59.82288 85.86402 58.94213
#
# Poissons Ratio (x) = 0.51815 -0.12659
# Poissons Ratio (y) = 0.36100 0.33010
# Poissons Ratio (z) = -0.12848 0.48088
#
# Static dielectric constant tensor:
#      x y z
#    x 1.669950 0.000000 0.000000 
#    y 0.000000 1.739690 0.000000 
#    z 0.000000 0.000000 1.695390 
# 
# From -- ./inp_files/3998.got.cif
#   From: 2010.05.17/outbox.cif.g08.bks.cpg/sg60_2_cif.got.tgz:3998.got - 2010.06.03 14:59:27.
