data_PCOD9454845
_publ_section_title
;
Structure prediction by ZEFSAII (Michael W. Deem and Ramdas Pophale) SiO2 
 PCOD9454845
Probable space group: P B C N
;
_chemical_formula_sum "Si O2"
_cell_formula_units_Z 60
_cell_length_a 11.895925
_cell_length_b 14.218467
_cell_length_c 15.628192
_cell_angle_alpha 90.000000
_cell_angle_beta 90.000000
_cell_angle_gamma 90.000000
_cell_volume 2643.380792
_symmetry_space_group_name_H-M "P B C N"
_symmetry_group_IT_number 60
_symmetry_cell_setting 'orthorhombic'
loop_
_space_group_symop_operation_xyz
x,y,z
1/2-x,1/2-y,1/2+z
1/2+x,1/2-y,-z
-x,y,1/2-z
-x,-y,-z
1/2+x,1/2+y,1/2-z
1/2-x,1/2+y,z
x,-y,1/2+z
loop_
_atom_site_type_symbol
_atom_site_label
_atom_site_fract_x
_atom_site_fract_y
_atom_site_fract_z
Si Si1 0.389248 0.734967 0.092134
Si Si2 0.827593 0.588240 0.616532
Si Si3 0.311804 0.902917 0.963438
Si Si4 0.000000 0.333762 0.250000
Si Si5 0.451354 0.815558 0.839443
Si Si6 0.567907 0.614996 0.984365
Si Si7 0.844747 0.691516 0.448604
Si Si8 0.071961 0.088984 0.832754
O O1 0.429185 0.770733 0.183612
O O2 0.483667 0.671278 0.046580
O O3 0.274916 0.674206 0.094516
O O4 0.361579 0.827707 0.032245
O O5 0.863322 0.505527 0.551159
O O6 0.826946 0.675560 0.549706
O O7 0.704834 0.570006 0.658017
O O8 0.916434 0.606002 0.690921
O O9 0.333837 0.855218 0.871598
O O10 0.181128 0.925676 0.977414
O O11 0.500000 0.847629 0.750000
O O12 0.544495 0.852059 0.907509
O O13 0.434715 0.703232 0.835240
O O14 0.627116 0.699608 0.930503
O O15 0.495409 0.555310 0.917460
O O16 0.000000 0.057550 0.750000
#
# Coordination Sequence:
#
# PCOD9454845 Si02
#       8
#     8   8   8   4   8   8   8   8
#     4  11  22  43  69  95 124 169 226 274 311 384
#     4  12  25  42  63  97 139 176 204 270 342 404
#     4  11  24  40  66  93 135 173 210 264 339 400
#     4  12  28  38  70 102 136 164 224 280 332 378
#     4  10  21  37  64  93 122 169 226 274 311 383
#     4  10  19  41  69  92 122 172 230 265 312 391
#     4  10  20  41  64  92 125 169 220 263 322 387
#     4  10  21  40  69  94 125 171 227 271 313 380
#
# _framework density 22.698205000000002
#
# number of rings (size 3 to 8) (size 9 to 14) (size 15 to 20)
#    0.000    1.333    5.333    0.800    8.400    2.667 
#    0.000    0.000    1.467    0.000    0.000    0.000 
#    0.000    0.000    0.000    0.000    0.000    0.000 
#
# Total GULP energy -334490.681479 kJ/mol
# GULP energy per Si atom -5574.844691 kJ/mol
# Density = 2.264654 g / cm^3
# Si number density = 22.698205 Si / 1000 Ang^3
#
#
#
# Elastic Constant Matrix: (Units=GPa)
#
#
# Indices 1 2 3 4 5 6 
#
# 1 114.2666 11.5763 80.2713 0.0000 0.0000 0.0000
# 2 11.5763 33.2239 23.1697 0.0000 0.0000 0.0000
# 3 80.2713 23.1697 108.7439 0.0000 0.0000 0.0000
# 4 0.0000 0.0000 0.0000 15.9718 0.0000 0.0000
# 5 0.0000 0.0000 0.0000 0.0000 28.0019 0.0000
# 6 0.0000 0.0000 0.0000 0.0000 0.0000 25.4298
#
#
#
# Elastic Compliance Matrix: (Units=1/GPa)
#
#
# Indices 1 2 3 4 5 6 
#
# 1 0.018541 0.003623 -0.014459 0.000000 0.000000 0.000000
# 2 0.003623 0.036059 -0.010357 0.000000 0.000000 0.000000
# 3 -0.014459 -0.010357 0.022076 0.000000 0.000000 0.000000
# 4 0.000000 0.000000 0.000000 0.062611 0.000000 0.000000
# 5 0.000000 0.000000 0.000000 0.000000 0.035712 0.000000
# 6 0.000000 0.000000 0.000000 0.000000 0.000000 0.039324
#
#
# Mechanical properties :
#
#
# Convention : Reuss Voigt Hill
#
# Bulk Modulus (GPa) = 29.16283 54.02989 41.59636
# Shear Modulus (GPa) = 18.64704 23.29517 20.97110
#
# Velocity S-wave (km/s) = 2.86933 3.20707 3.04289
# Velocity P-wave (km/s) = 4.88399 6.12935 5.54177
#
# Compressibility (1/GPa) = 0.03429022
#
# Stress axis : x y z
#
# Youngs Moduli (GPa) = 53.93310 27.73200 45.29895
#
# Poissons Ratio (x) = -0.10046 0.65496
# Poissons Ratio (y) = -0.19538 0.46917
# Poissons Ratio (z) = 0.77980 0.28723
#
# Static dielectric constant tensor:
#      x y z
#    x 1.916050 0.000000 0.000000 
#    y 0.000000 1.966350 0.000000 
#    z 0.000000 0.000000 1.872740 
# 
# From -- ./inp_files/16327.got.cif
#   From: 2010.05.17/outbox.cif.g08.bks.cpg/sg60_9_cif.got.tgz:16327.got - 2010.06.03 14:59:27.
