data_PCOD9454137
_publ_section_title
;
Structure prediction by ZEFSAII (Michael W. Deem and Ramdas Pophale) SiO2 
 PCOD9454137
Probable space group: P B C N
;
_chemical_formula_sum "Si O2"
_cell_formula_units_Z 52
_cell_length_a 9.208364
_cell_length_b 21.883565
_cell_length_c 12.058676
_cell_angle_alpha 90.000000
_cell_angle_beta 90.000000
_cell_angle_gamma 90.000000
_cell_volume 2429.965894
_symmetry_space_group_name_H-M "P B C N"
_symmetry_group_IT_number 60
_symmetry_cell_setting 'orthorhombic'
loop_
_space_group_symop_operation_xyz
x,y,z
1/2-x,1/2-y,1/2+z
1/2+x,1/2-y,-z
-x,y,1/2-z
-x,-y,-z
1/2+x,1/2+y,1/2-z
1/2-x,1/2+y,z
x,-y,1/2+z
loop_
_atom_site_type_symbol
_atom_site_label
_atom_site_fract_x
_atom_site_fract_y
_atom_site_fract_z
Si Si1 0.379400 0.052723 0.996794
Si Si2 0.500000 0.448592 0.750000
Si Si3 0.347298 0.730192 0.686707
Si Si4 0.233148 0.137925 0.158915
Si Si5 0.143200 0.966856 0.089043
Si Si6 0.250200 0.112224 0.791525
Si Si7 0.997286 0.148655 0.533659
O O1 0.367573 0.089069 0.880776
O O2 0.364789 0.101695 0.097437
O O3 0.500000 0.000000 0.000000
O O4 0.233905 0.014223 0.018130
O O5 0.356438 0.406236 0.741223
O O6 0.484144 0.493858 0.645651
O O7 0.500000 0.729464 0.750000
O O8 0.286014 0.797350 0.701603
O O9 0.237261 0.678202 0.732076
O O10 0.403357 0.706343 0.566290
O O11 0.113534 0.155573 0.065624
O O12 0.227866 0.938033 0.195651
O O13 0.101596 0.908537 0.017773
O O14 0.103147 0.124767 0.863420
#
# Coordination Sequence:
#
# PCOD9454137 Si02
#       7
#     8   4   8   8   8   8   8
#     4  10  23  39  57  95 130 163 199 253 329 386
#     4  10  20  34  58  90 118 148 202 254 300 362
#     4   9  19  42  61  84 117 168 210 252 313 366
#     4  10  22  40  57  92 123 162 212 261 309 372
#     4  10  18  35  64  92 117 154 205 251 309 369
#     4   9  18  37  67  83 116 164 209 250 303 379
#     4   9  18  37  65  86 114 156 209 257 301 364
#
# _framework density 21.399476
#
# number of rings (size 3 to 8) (size 9 to 14) (size 15 to 20)
#    0.000    2.462    1.538    0.923    2.154    2.462 
#   19.385    0.000    0.000    0.000    0.000    0.000 
#    0.000    0.000    0.000    0.000    0.000    0.000 
#
# Total GULP energy -289754.458426 kJ/mol
# GULP energy per Si atom -5572.201124 kJ/mol
# Density = 2.135077 g / cm^3
# Si number density = 21.399476 Si / 1000 Ang^3
#
#
#
# Elastic Constant Matrix: (Units=GPa)
#
#
# Indices 1 2 3 4 5 6 
#
# 1 41.9365 33.5664 27.3269 0.0000 0.0000 0.0000
# 2 33.5664 142.0514 19.6963 0.0000 0.0000 0.0000
# 3 27.3269 19.6963 47.5743 0.0000 0.0000 0.0000
# 4 0.0000 0.0000 0.0000 20.9004 0.0000 0.0000
# 5 0.0000 0.0000 0.0000 0.0000 10.8464 0.0000
# 6 0.0000 0.0000 0.0000 0.0000 0.0000 40.4158
#
#
#
# Elastic Compliance Matrix: (Units=1/GPa)
#
#
# Indices 1 2 3 4 5 6 
#
# 1 0.044363 -0.007373 -0.022430 0.000000 0.000000 0.000000
# 2 -0.007373 0.008694 0.000636 0.000000 0.000000 0.000000
# 3 -0.022430 0.000636 0.033640 0.000000 0.000000 0.000000
# 4 0.000000 0.000000 0.000000 0.047846 0.000000 0.000000
# 5 0.000000 0.000000 0.000000 0.000000 0.092197 0.000000
# 6 0.000000 0.000000 0.000000 0.000000 0.000000 0.024743
#
#
# Mechanical properties :
#
#
# Convention : Reuss Voigt Hill
#
# Bulk Modulus (GPa) = 35.25715 43.63792 39.44754
# Shear Modulus (GPa) = 15.66070 24.49735 20.07903
#
# Velocity S-wave (km/s) = 2.70816 3.38711 3.06648
# Velocity P-wave (km/s) = 5.12741 5.97771 5.56881
#
# Compressibility (1/GPa) = 0.02836304
#
# Stress axis : x y z
#
# Youngs Moduli (GPa) = 22.54148 115.02542 29.72617
#
# Poissons Ratio (x) = 0.84805 0.66675
# Poissons Ratio (y) = 0.16619 -0.01890
# Poissons Ratio (z) = 0.50560 -0.07312
#
# Static dielectric constant tensor:
#      x y z
#    x 1.815180 0.000000 0.000000 
#    y 0.000000 1.773750 0.000000 
#    z 0.000000 0.000000 1.905440 
# 
# From -- ./inp_files/15214.got.cif
#   From: 2010.05.17/outbox.cif.g08.bks.cpg/sg60_8_cif.got.tgz:15214.got - 2010.06.03 14:59:27.
