data_PCOD9454777
_publ_section_title
;
Structure prediction by ZEFSAII (Michael W. Deem and Ramdas Pophale) SiO2 
 PCOD9454777
Probable space group: P B C N
;
_chemical_formula_sum "Si O2"
_cell_formula_units_Z 28
_cell_length_a 15.583386
_cell_length_b 8.292574
_cell_length_c 8.417334
_cell_angle_alpha 90.000000
_cell_angle_beta 90.000000
_cell_angle_gamma 90.000000
_cell_volume 1087.741615
_symmetry_space_group_name_H-M "P B C N"
_symmetry_group_IT_number 60
_symmetry_cell_setting 'orthorhombic'
loop_
_space_group_symop_operation_xyz
x,y,z
1/2-x,1/2-y,1/2+z
1/2+x,1/2-y,-z
-x,y,1/2-z
-x,-y,-z
1/2+x,1/2+y,1/2-z
1/2-x,1/2+y,z
x,-y,1/2+z
loop_
_atom_site_type_symbol
_atom_site_label
_atom_site_fract_x
_atom_site_fract_y
_atom_site_fract_z
Si Si1 0.331438 0.558671 0.084507
Si Si2 0.000000 0.128564 0.250000
Si Si3 0.279273 0.848646 0.884185
Si Si4 0.057954 0.563639 0.920133
O O1 0.427021 0.538458 0.151915
O O2 0.287453 0.398184 0.021940
O O3 0.273760 0.636980 0.223123
O O4 0.325624 0.683748 0.936274
O O5 0.047841 0.254697 0.367215
O O6 0.035677 0.525098 0.107054
O O7 0.352558 0.985093 0.884636
#
# Coordination Sequence:
#
# PCOD9454777 Si02
#       4
#     8   4   8   8
#     4  12  25  43  70  96 142 174 232 275 344 404
#     4  10  22  40  64 100 132 174 222 278 330 406
#     4  12  24  45  69 102 132 184 221 287 336 405
#     4  10  19  38  65  95 124 167 225 273 314 396
#
# _framework density 25.741409000000001
#
# number of rings (size 3 to 8) (size 9 to 14) (size 15 to 20)
#    0.857    0.000    2.857    6.857    0.000    1.143 
#    0.000    0.000    3.143    0.000    0.000    0.000 
#    0.000    0.000    0.000    0.000    0.000    0.000 
#
# Total GULP energy -156303.028832 kJ/mol
# GULP energy per Si atom -5582.251030 kJ/mol
# Density = 2.568282 g / cm^3
# Si number density = 25.741409 Si / 1000 Ang^3
#
#
#
# Elastic Constant Matrix: (Units=GPa)
#
#
# Indices 1 2 3 4 5 6 
#
# 1 157.1741 24.2160 35.5196 0.0000 0.0000 0.0000
# 2 24.2160 51.6802 13.1287 0.0000 0.0000 0.0000
# 3 35.5196 13.1287 67.8052 0.0000 0.0000 0.0000
# 4 0.0000 0.0000 0.0000 14.0527 0.0000 0.0000
# 5 0.0000 0.0000 0.0000 0.0000 44.1040 0.0000
# 6 0.0000 0.0000 0.0000 0.0000 0.0000 -682.5051
#
#
#
# Elastic Compliance Matrix: (Units=1/GPa)
#
#
# Indices 1 2 3 4 5 6 
#
# 1 0.007550 -0.002664 -0.003439 0.000000 0.000000 0.000000
# 2 -0.002664 0.021291 -0.002727 0.000000 0.000000 0.000000
# 3 -0.003439 -0.002727 0.017078 0.000000 0.000000 0.000000
# 4 0.000000 0.000000 0.000000 0.071161 0.000000 0.000000
# 5 0.000000 0.000000 0.000000 0.000000 0.022674 0.000000
# 6 0.000000 0.000000 0.000000 0.000000 0.000000 -0.001465
#
#
# Mechanical properties :
#
#
# Convention : Reuss Voigt Hill
#
# Bulk Modulus (GPa) = 35.38783 46.93202 41.15992
# Shear Modulus (GPa) = 30.23563 -111.28336 -40.52386
#
# Velocity S-wave (km/s) = 3.43095 -6.58218 -3.97201
# Velocity P-wave (km/s) = 5.42886 6.28451 2.23860
#
# Compressibility (1/GPa) = 0.02825831
#
# Stress axis : x y z
#
# Youngs Moduli (GPa) = 132.44926 46.96862 58.55566
#
# Poissons Ratio (x) = 0.12513 0.20139
# Poissons Ratio (y) = 0.35285 0.15967
# Poissons Ratio (z) = 0.45553 0.12808
#
# Static dielectric constant tensor:
#      x y z
#    x 1.939200 0.000000 0.000000 
#    y 0.000000 1.998930 0.000000 
#    z 0.000000 0.000000 2.127800 
# 
# From -- ./inp_files/5423.got.cif
#   From: 2010.05.17/outbox.cif.g08.bks.cpg/sg60_3_cif.got.tgz:5423.got - 2010.06.03 14:59:27.
