data_PCOD9454486
_publ_section_title
;
Structure prediction by ZEFSAII (Michael W. Deem and Ramdas Pophale) SiO2 
 PCOD9454486
Probable space group: P B C N
;
_chemical_formula_sum "Si O2"
_cell_formula_units_Z 64
_cell_length_a 27.092707
_cell_length_b 5.480510
_cell_length_c 20.910888
_cell_angle_alpha 90.000000
_cell_angle_beta 90.000000
_cell_angle_gamma 90.000000
_cell_volume 3104.887370
_symmetry_space_group_name_H-M "P B C N"
_symmetry_group_IT_number 60
_symmetry_cell_setting 'orthorhombic'
loop_
_space_group_symop_operation_xyz
x,y,z
1/2-x,1/2-y,1/2+z
1/2+x,1/2-y,-z
-x,y,1/2-z
-x,-y,-z
1/2+x,1/2+y,1/2-z
1/2-x,1/2+y,z
x,-y,1/2+z
loop_
_atom_site_type_symbol
_atom_site_label
_atom_site_fract_x
_atom_site_fract_y
_atom_site_fract_z
Si Si1 0.433848 0.468333 0.931744
Si Si2 0.441365 0.975864 0.004383
Si Si3 0.735562 0.616810 0.849096
Si Si4 0.378427 0.386244 0.186024
Si Si5 0.881942 0.217884 0.186723
Si Si6 0.450397 0.990430 0.741219
Si Si7 0.274878 0.092343 0.796213
Si Si8 0.458557 0.314714 0.622140
O O1 0.428256 0.731317 0.964618
O O2 0.396848 0.449874 0.872111
O O3 0.491206 0.427725 0.907917
O O4 0.422142 0.233598 0.977289
O O5 0.435334 0.897380 0.077819
O O6 0.500000 0.000000 0.000000
O O7 0.745870 0.360572 0.882684
O O8 0.677701 0.639230 0.834899
O O9 0.766047 0.596984 0.781326
O O10 0.378779 0.564252 0.247776
O O11 0.404212 0.142308 0.210031
O O12 0.415252 0.491563 0.132924
O O13 0.927590 0.403741 0.194266
O O14 0.830683 0.359685 0.183363
O O15 0.500000 0.831290 0.750000
O O16 0.467946 0.197744 0.691679
O O17 0.244071 0.329214 0.818497
#
# Coordination Sequence:
#
# PCOD9454486 Si02
#       8
#     8   8   8   8   8   8   8   8
#     4  11  24  39  62  85 118 162 205 255 290 355
#     4  10  23  42  62  81 112 162 217 255 286 336
#     4  10  19  37  54  80 116 149 196 236 287 355
#     4  11  24  32  59  86 122 162 192 246 298 379
#     4  11  23  36  54  91 124 157 198 241 311 360
#     4  11  23  35  53  84 133 164 188 232 304 378
#     4  10  19  34  57  79 118 150 193 241 288 363
#     4  10  23  38  55  85 118 162 202 243 294 350
#
# _framework density 20.612663999999999
#
# number of rings (size 3 to 8) (size 9 to 14) (size 15 to 20)
#    0.000    1.500    3.750    3.000   10.500    0.000 
#    0.000    0.000    0.000    0.000    0.000    5.250 
#    0.000    0.000    0.000    0.000    0.000    0.000 
#
# Total GULP energy -357072.612988 kJ/mol
# GULP energy per Si atom -5579.259578 kJ/mol
# Density = 2.056575 g / cm^3
# Si number density = 20.612664 Si / 1000 Ang^3
#
#
#
# Elastic Constant Matrix: (Units=GPa)
#
#
# Indices 1 2 3 4 5 6 
#
# 1 80.8947 7.3312 8.3861 0.0000 0.0000 0.0000
# 2 7.3312 99.8247 9.2177 0.0000 0.0000 0.0000
# 3 8.3861 9.2177 44.6347 0.0000 0.0000 0.0000
# 4 0.0000 0.0000 0.0000 4.8400 0.0000 0.0000
# 5 0.0000 0.0000 0.0000 0.0000 7.2533 0.0000
# 6 0.0000 0.0000 0.0000 0.0000 0.0000 30.1820
#
#
#
# Elastic Compliance Matrix: (Units=1/GPa)
#
#
# Indices 1 2 3 4 5 6 
#
# 1 0.012658 -0.000724 -0.002229 0.000000 0.000000 0.000000
# 2 -0.000724 0.010254 -0.001982 0.000000 0.000000 0.000000
# 3 -0.002229 -0.001982 0.023232 0.000000 0.000000 0.000000
# 4 0.000000 0.000000 0.000000 0.206612 0.000000 0.000000
# 5 0.000000 0.000000 0.000000 0.000000 0.137868 0.000000
# 6 0.000000 0.000000 0.000000 0.000000 0.000000 0.033132
#
#
# Mechanical properties :
#
#
# Convention : Reuss Voigt Hill
#
# Bulk Modulus (GPa) = 27.56660 30.58045 29.07353
# Shear Modulus (GPa) = 11.21789 21.81633 16.51711
#
# Velocity S-wave (km/s) = 2.33539 3.25683 2.83381
# Velocity P-wave (km/s) = 4.54695 5.38614 4.98424
#
# Compressibility (1/GPa) = 0.03627578
#
# Stress axis : x y z
#
# Youngs Moduli (GPa) = 78.99891 97.52579 43.04391
#
# Poissons Ratio (x) = 0.07059 0.09594
# Poissons Ratio (y) = 0.05718 0.08529
# Poissons Ratio (z) = 0.17608 0.19325
#
# Static dielectric constant tensor:
#      x y z
#    x 1.729940 0.000000 0.000000 
#    y 0.000000 1.888670 0.000000 
#    z 0.000000 0.000000 1.693290 
# 
# From -- ./inp_files/23352.got.cif
#   From: 2010.05.17/outbox.cif.g08.bks.cpg/sg60_12_cif.got.tgz:23352.got - 2010.06.03 14:59:27.
