data_PCOD9454757
_publ_section_title
;
Structure prediction by ZEFSAII (Michael W. Deem and Ramdas Pophale) SiO2 
 PCOD9454757
Probable space group: P B C N
;
_chemical_formula_sum "Si O2"
_cell_formula_units_Z 56
_cell_length_a 13.881576
_cell_length_b 7.480443
_cell_length_c 20.315468
_cell_angle_alpha 90.000000
_cell_angle_beta 90.000000
_cell_angle_gamma 90.000000
_cell_volume 2109.565064
_symmetry_space_group_name_H-M "P B C N"
_symmetry_group_IT_number 60
_symmetry_cell_setting 'orthorhombic'
loop_
_space_group_symop_operation_xyz
x,y,z
1/2-x,1/2-y,1/2+z
1/2+x,1/2-y,-z
-x,y,1/2-z
-x,-y,-z
1/2+x,1/2+y,1/2-z
1/2-x,1/2+y,z
x,-y,1/2+z
loop_
_atom_site_type_symbol
_atom_site_label
_atom_site_fract_x
_atom_site_fract_y
_atom_site_fract_z
Si Si1 0.165012 0.615551 0.255439
Si Si2 0.946641 0.279631 0.308074
Si Si3 0.668747 0.188700 0.926671
Si Si4 0.133042 0.714981 0.113665
Si Si5 0.187859 0.930070 0.344079
Si Si6 0.383800 0.782871 0.403255
Si Si7 0.488351 0.296559 0.480509
O O1 0.105845 0.440386 0.231559
O O2 0.161689 0.732819 0.189366
O O3 0.138686 0.753696 0.313824
O O4 0.266773 0.540453 0.282132
O O5 0.875013 0.198167 0.363883
O O6 0.000000 0.167452 0.250000
O O7 0.034618 0.349227 0.353016
O O8 0.782936 0.193740 0.928785
O O9 0.616025 0.237707 0.994225
O O10 0.641822 0.991791 0.904576
O O11 0.027706 0.773710 0.092281
O O12 0.281745 0.871576 0.387003
O O13 0.129037 0.072510 0.386256
O O14 0.433627 0.807716 0.473489
O O15 0.500000 0.500000 0.500000
#
# Coordination Sequence:
#
# PCOD9454757 Si02
#       7
#     8   8   8   8   8   8   8
#     4  10  20  38  65  96 130 163 214 274 329 400
#     4  10  19  38  61  91 133 168 200 267 333 388
#     4  10  23  40  67  95 128 173 216 272 334 386
#     4  11  22  41  68  97 126 173 221 274 332 398
#     4  10  21  40  65  95 126 166 220 264 334 406
#     4  10  23  42  63  89 129 175 212 274 326 396
#     4  11  25  46  63  94 135 173 229 276 325 396
#
# _framework density 26.545756999999998
#
# number of rings (size 3 to 8) (size 9 to 14) (size 15 to 20)
#    0.000    1.714    1.429    3.000    2.000    2.286 
#    7.714    1.429    0.000    0.000    0.000    0.000 
#    0.000    0.000    0.000    0.000    0.000    0.000 
#
# Total GULP energy -313109.235696 kJ/mol
# GULP energy per Si atom -5591.236352 kJ/mol
# Density = 2.648534 g / cm^3
# Si number density = 26.545757 Si / 1000 Ang^3
#
#
#
# Elastic Constant Matrix: (Units=GPa)
#
#
# Indices 1 2 3 4 5 6 
#
# 1 107.5733 7.8720 70.5220 0.0000 0.0000 0.0000
# 2 7.8720 54.7419 -0.7007 0.0000 0.0000 0.0000
# 3 70.5220 -0.7007 84.7329 0.0000 0.0000 0.0000
# 4 0.0000 0.0000 0.0000 31.1517 0.0000 0.0000
# 5 0.0000 0.0000 0.0000 0.0000 59.9181 0.0000
# 6 0.0000 0.0000 0.0000 0.0000 0.0000 29.3308
#
#
#
# Elastic Compliance Matrix: (Units=1/GPa)
#
#
# Indices 1 2 3 4 5 6 
#
# 1 0.021020 -0.003247 -0.017522 0.000000 0.000000 0.000000
# 2 -0.003247 0.018771 0.002858 0.000000 0.000000 0.000000
# 3 -0.017522 0.002858 0.026409 0.000000 0.000000 0.000000
# 4 0.000000 0.000000 0.000000 0.032101 0.000000 0.000000
# 5 0.000000 0.000000 0.000000 0.000000 0.016689 0.000000
# 6 0.000000 0.000000 0.000000 0.000000 0.000000 0.034094
#
#
# Mechanical properties :
#
#
# Convention : Reuss Voigt Hill
#
# Bulk Modulus (GPa) = 32.91887 44.71495 38.81691
# Shear Modulus (GPa) = 25.63673 35.37044 30.50359
#
# Velocity S-wave (km/s) = 3.11103 3.65421 3.39351
# Velocity P-wave (km/s) = 5.03313 5.88943 5.47804
#
# Compressibility (1/GPa) = 0.03037771
#
# Stress axis : x y z
#
# Youngs Moduli (GPa) = 47.57281 53.27346 37.86646
#
# Poissons Ratio (x) = 0.17298 0.66349
# Poissons Ratio (y) = 0.15447 -0.10821
# Poissons Ratio (z) = 0.83356 -0.15224
#
# Static dielectric constant tensor:
#      x y z
#    x 2.101450 0.000000 0.000000 
#    y 0.000000 2.074390 0.000000 
#    z 0.000000 0.000000 2.175320 
# 
# From -- ./inp_files/22913.got.cif
#   From: 2010.05.17/outbox.cif.g08.bks.cpg/sg60_12_cif.got.tgz:22913.got - 2010.06.03 14:59:27.
