data_PCOD9454199
_publ_section_title
;
Structure prediction by ZEFSAII (Michael W. Deem and Ramdas Pophale) SiO2 
 PCOD9454199
Probable space group: P B C N
;
_chemical_formula_sum "Si O2"
_cell_formula_units_Z 32
_cell_length_a 7.176341
_cell_length_b 32.267060
_cell_length_c 5.693102
_cell_angle_alpha 90.000000
_cell_angle_beta 90.000000
_cell_angle_gamma 90.000000
_cell_volume 1318.291429
_symmetry_space_group_name_H-M "P B C N"
_symmetry_group_IT_number 60
_symmetry_cell_setting 'orthorhombic'
loop_
_space_group_symop_operation_xyz
x,y,z
1/2-x,1/2-y,1/2+z
1/2+x,1/2-y,-z
-x,y,1/2-z
-x,-y,-z
1/2+x,1/2+y,1/2-z
1/2-x,1/2+y,z
x,-y,1/2+z
loop_
_atom_site_type_symbol
_atom_site_label
_atom_site_fract_x
_atom_site_fract_y
_atom_site_fract_z
Si Si1 0.500000 0.261875 0.750000
Si Si2 0.705438 0.111731 0.634557
Si Si3 0.000000 0.651262 0.250000
Si Si4 0.276324 0.306181 0.109499
Si Si5 0.727153 0.020000 0.740778
O O1 0.320082 0.232355 0.738732
O O2 0.542214 0.290800 0.527750
O O3 0.500000 0.110732 0.750000
O O4 0.656061 0.121810 0.366030
O O5 0.798891 0.152194 0.741812
O O6 0.787511 0.067218 0.689467
O O7 0.113392 0.680439 0.425351
O O8 0.500000 0.018529 0.750000
O O9 0.783547 0.994729 0.503768
#
# Coordination Sequence:
#
# PCOD9454199 Si02
#       5
#     4   8   4   8   8
#     4  12  24  42  64  87 126 164 221 264 328 382
#     4   9  19  33  54  81 121 163 205 255 329 375
#     4  10  18  38  58  83 120 168 203 260 324 378
#     4  11  23  40  58  90 119 167 205 268 318 389
#     4   9  18  28  48  83 120 161 204 258 315 388
#
# _framework density 24.273841999999998
#
# number of rings (size 3 to 8) (size 9 to 14) (size 15 to 20)
#    0.000    2.000    3.750    1.500   12.250    0.000 
#    0.000    0.000    0.000    0.000    0.000    1.750 
#    0.000    0.000    0.000    0.000    0.000    0.000 
#
# Total GULP energy -178824.182752 kJ/mol
# GULP energy per Si atom -5588.255711 kJ/mol
# Density = 2.421859 g / cm^3
# Si number density = 24.273842 Si / 1000 Ang^3
#
#
#
# Elastic Constant Matrix: (Units=GPa)
#
#
# Indices 1 2 3 4 5 6 
#
# 1 90.5291 30.2075 14.1204 0.0000 0.0000 0.0000
# 2 30.2075 213.4253 90.7443 0.0000 0.0000 0.0000
# 3 14.1204 90.7443 122.8293 0.0000 0.0000 0.0000
# 4 0.0000 0.0000 0.0000 34.3320 0.0000 0.0000
# 5 0.0000 0.0000 0.0000 0.0000 25.4063 0.0000
# 6 0.0000 0.0000 0.0000 0.0000 0.0000 -8.6336
#
#
#
# Elastic Compliance Matrix: (Units=1/GPa)
#
#
# Indices 1 2 3 4 5 6 
#
# 1 0.011596 -0.001567 -0.000176 0.000000 0.000000 0.000000
# 2 -0.001567 0.007043 -0.005023 0.000000 0.000000 0.000000
# 3 -0.000176 -0.005023 0.011873 0.000000 0.000000 0.000000
# 4 0.000000 0.000000 0.000000 0.029127 0.000000 0.000000
# 5 0.000000 0.000000 0.000000 0.000000 0.039360 0.000000
# 6 0.000000 0.000000 0.000000 0.000000 0.000000 -0.115827
#
#
# Mechanical properties :
#
#
# Convention : Reuss Voigt Hill
#
# Bulk Modulus (GPa) = 58.88950 77.43644 68.16297
# Shear Modulus (GPa) = 2115.11705 29.66839 1072.39272
#
# Velocity S-wave (km/s) = 29.55077 3.49984 21.04159
# Velocity P-wave (km/s) = 34.47672 6.94999 24.86912
#
# Compressibility (1/GPa) = 0.01698096
#
# Stress axis : x y z
#
# Youngs Moduli (GPa) = 86.23428 141.98617 84.22773
#
# Poissons Ratio (x) = 0.22243 0.01480
# Poissons Ratio (y) = 0.13509 0.42309
# Poissons Ratio (z) = 0.01516 0.71321
#
# Static dielectric constant tensor:
#      x y z
#    x 1.974790 0.000000 0.000000 
#    y 0.000000 1.879050 0.000000 
#    z 0.000000 0.000000 2.106920 
# 
# From -- ./inp_files/387.got.cif
#   From: 2010.05.17/outbox.cif.g08.bks.cpg/sg60_1_cif.got.tgz:387.got - 2010.06.03 14:59:27.
