data_PCOD9454428
_publ_section_title
;
Structure prediction by ZEFSAII (Michael W. Deem and Ramdas Pophale) SiO2 
 PCOD9454428
Probable space group: P B C N
;
_chemical_formula_sum "Si O2"
_cell_formula_units_Z 48
_cell_length_a 12.411284
_cell_length_b 20.960753
_cell_length_c 9.324340
_cell_angle_alpha 90.000000
_cell_angle_beta 90.000000
_cell_angle_gamma 90.000000
_cell_volume 2425.725730
_symmetry_space_group_name_H-M "P B C N"
_symmetry_group_IT_number 60
_symmetry_cell_setting 'orthorhombic'
loop_
_space_group_symop_operation_xyz
x,y,z
1/2-x,1/2-y,1/2+z
1/2+x,1/2-y,-z
-x,y,1/2-z
-x,-y,-z
1/2+x,1/2+y,1/2-z
1/2-x,1/2+y,z
x,-y,1/2+z
loop_
_atom_site_type_symbol
_atom_site_label
_atom_site_fract_x
_atom_site_fract_y
_atom_site_fract_z
Si Si1 0.681038 0.174937 0.525874
Si Si2 0.959613 0.281417 0.410746
Si Si3 0.537568 0.348424 0.466427
Si Si4 0.768081 0.782294 0.316870
Si Si5 0.118015 0.058455 0.305163
Si Si6 0.333706 0.563512 0.981569
O O1 0.552195 0.172360 0.531363
O O2 0.710491 0.211836 0.380113
O O3 0.730366 0.219154 0.652866
O O4 0.736069 0.108508 0.562593
O O5 0.971141 0.215240 0.495734
O O6 0.000000 0.266422 0.250000
O O7 0.838846 0.306463 0.400510
O O8 0.627931 0.326168 0.352293
O O9 0.599715 0.376550 0.605848
O O10 0.447296 0.402307 0.437894
O O11 0.000000 0.037019 0.250000
O O12 0.165157 0.005601 0.411159
O O13 0.176804 0.063642 0.153981
#
# Coordination Sequence:
#
# PCOD9454428 Si02
#       6
#     8   8   8   8   8   8
#     4  10  22  34  58  80 114 148 185 230 275 337
#     4   9  17  35  53  80 109 148 183 215 282 335
#     4  10  19  33  58  81 117 143 183 231 277 336
#     4  10  21  35  56  82 112 150 181 226 285 332
#     4  10  22  35  56  81 117 152 183 227 285 331
#     4  11  22  37  56  87 116 146 189 231 279 337
#
# _framework density 19.787891999999999
#
# number of rings (size 3 to 8) (size 9 to 14) (size 15 to 20)
#    0.000    2.000    1.667    3.500    9.333    0.000 
#    0.000    0.000    0.000    1.000    0.000    0.000 
#    0.000    0.000    0.000    0.000    0.000    0.000 
#
# Total GULP energy -267586.275711 kJ/mol
# GULP energy per Si atom -5574.714077 kJ/mol
# Density = 1.974285 g / cm^3
# Si number density = 19.787892 Si / 1000 Ang^3
#
#
#
# Elastic Constant Matrix: (Units=GPa)
#
#
# Indices 1 2 3 4 5 6 
#
# 1 64.8664 9.7694 -10.1397 0.0000 0.0000 0.0000
# 2 9.7694 49.6429 7.0403 0.0000 0.0000 0.0000
# 3 -10.1397 7.0403 33.0417 0.0000 0.0000 0.0000
# 4 0.0000 0.0000 0.0000 19.7395 0.0000 0.0000
# 5 0.0000 0.0000 0.0000 0.0000 18.6895 0.0000
# 6 0.0000 0.0000 0.0000 0.0000 0.0000 14.6158
#
#
#
# Elastic Compliance Matrix: (Units=1/GPa)
#
#
# Indices 1 2 3 4 5 6 
#
# 1 0.017007 -0.004214 0.006117 0.000000 0.000000 0.000000
# 2 -0.004214 0.021816 -0.005942 0.000000 0.000000 0.000000
# 3 0.006117 -0.005942 0.033408 0.000000 0.000000 0.000000
# 4 0.000000 0.000000 0.000000 0.050660 0.000000 0.000000
# 5 0.000000 0.000000 0.000000 0.000000 0.053506 0.000000
# 6 0.000000 0.000000 0.000000 0.000000 0.000000 0.068419
#
#
# Mechanical properties :
#
#
# Convention : Reuss Voigt Hill
#
# Bulk Modulus (GPa) = 15.58773 17.87678 16.73226
# Shear Modulus (GPa) = 18.22964 20.00102 19.11533
#
# Velocity S-wave (km/s) = 3.03851 3.18271 3.11144
# Velocity P-wave (km/s) = 4.49495 4.74974 4.62410
#
# Compressibility (1/GPa) = 0.06415303
#
# Stress axis : x y z
#
# Youngs Moduli (GPa) = 58.79857 45.83820 29.93295
#
# Poissons Ratio (x) = 0.19318 -0.18310
# Poissons Ratio (y) = 0.24780 0.17785
# Poissons Ratio (z) = -0.35968 0.27236
#
# Static dielectric constant tensor:
#      x y z
#    x 1.716590 0.000000 0.000000 
#    y 0.000000 1.666510 0.000000 
#    z 0.000000 0.000000 1.769550 
# 
# From -- ./inp_files/11123.got.cif
#   From: 2010.05.17/outbox.cif.g08.bks.cpg/sg60_6_cif.got.tgz:11123.got - 2010.06.03 14:59:27.
