data_PCOD9454101
_publ_section_title
;
Structure prediction by ZEFSAII (Michael W. Deem and Ramdas Pophale) SiO2 
 PCOD9454101
Probable space group: P B C N
;
_chemical_formula_sum "Si O2"
_cell_formula_units_Z 40
_cell_length_a 6.151100
_cell_length_b 22.817307
_cell_length_c 13.181059
_cell_angle_alpha 90.000000
_cell_angle_beta 90.000000
_cell_angle_gamma 90.000000
_cell_volume 1849.981891
_symmetry_space_group_name_H-M "P B C N"
_symmetry_group_IT_number 60
_symmetry_cell_setting 'orthorhombic'
loop_
_space_group_symop_operation_xyz
x,y,z
1/2-x,1/2-y,1/2+z
1/2+x,1/2-y,-z
-x,y,1/2-z
-x,-y,-z
1/2+x,1/2+y,1/2-z
1/2-x,1/2+y,z
x,-y,1/2+z
loop_
_atom_site_type_symbol
_atom_site_label
_atom_site_fract_x
_atom_site_fract_y
_atom_site_fract_z
Si Si1 0.500000 0.975244 0.750000
Si Si2 0.142966 0.224664 0.347929
Si Si3 0.069286 0.375211 0.904531
Si Si4 0.182804 0.822059 0.479765
Si Si5 0.000000 0.971217 0.750000
Si Si6 0.036588 0.067013 0.474319
O O1 0.481856 0.931037 0.655146
O O2 0.752609 0.001393 0.745133
O O3 0.293922 0.167957 0.331924
O O4 0.277344 0.281078 0.384172
O O5 0.000000 0.236373 0.250000
O O6 0.992207 0.206631 0.444055
O O7 0.224831 0.405933 0.987317
O O8 0.901917 0.332320 0.957559
O O9 0.111212 0.889077 0.462159
O O10 0.001550 0.932384 0.647589
O O11 0.000000 0.000000 0.500000
#
# Coordination Sequence:
#
# PCOD9454101 Si02
#       6
#     4   8   8   8   4   8
#     4  10  18  34  60  91 114 155 218 274 318 372
#     4  11  23  37  62  95 129 164 213 270 340 413
#     4  10  20  36  60  87 119 161 207 273 322 391
#     4  11  21  40  61  92 127 165 216 269 339 401
#     4  10  20  38  62  91 116 163 230 276 324 390
#     4  10  23  40  61  89 125 169 222 279 333 397
#
# _framework density 21.621835000000001
#
# number of rings (size 3 to 8) (size 9 to 14) (size 15 to 20)
#    0.000    1.600    4.000    1.200    9.800    0.800 
#    0.000    2.000    2.200    0.000    0.000    0.000 
#    0.000    0.000    0.000    0.000    0.000    0.000 
#
# Total GULP energy -222687.068203 kJ/mol
# GULP energy per Si atom -5567.176705 kJ/mol
# Density = 2.157262 g / cm^3
# Si number density = 21.621835 Si / 1000 Ang^3
#
#
#
# Elastic Constant Matrix: (Units=GPa)
#
#
# Indices 1 2 3 4 5 6 
#
# 1 108.4492 23.0407 3.6381 0.0000 0.0000 0.0000
# 2 23.0407 125.3027 25.3646 0.0000 0.0000 0.0000
# 3 3.6381 25.3646 30.5050 0.0000 0.0000 0.0000
# 4 0.0000 0.0000 0.0000 -128.2569 0.0000 0.0000
# 5 0.0000 0.0000 0.0000 0.0000 21.4466 0.0000
# 6 0.0000 0.0000 0.0000 0.0000 0.0000 -9.2851
#
#
#
# Elastic Compliance Matrix: (Units=1/GPa)
#
#
# Indices 1 2 3 4 5 6 
#
# 1 0.009600 -0.001844 0.000388 0.000000 0.000000 0.000000
# 2 -0.001844 0.009950 -0.008053 0.000000 0.000000 0.000000
# 3 0.000388 -0.008053 0.039431 0.000000 0.000000 0.000000
# 4 0.000000 0.000000 0.000000 -0.007797 0.000000 0.000000
# 5 0.000000 0.000000 0.000000 0.000000 0.046628 0.000000
# 6 0.000000 0.000000 0.000000 0.000000 0.000000 -0.107700
#
#
# Mechanical properties :
#
#
# Convention : Reuss Voigt Hill
#
# Bulk Modulus (GPa) = 25.02306 40.92709 32.97507
# Shear Modulus (GPa) = 222.71111 -9.07150 106.81980
#
# Velocity S-wave (km/s) = 10.16004 -2.05052 7.03640
# Velocity P-wave (km/s) = 12.21612 3.65561 9.01657
#
# Compressibility (1/GPa) = 0.03996315
#
# Stress axis : x y z
#
# Youngs Moduli (GPa) = 104.17099 100.50330 25.36046
#
# Poissons Ratio (x) = 0.18530 -0.00985
# Poissons Ratio (y) = 0.19207 0.20424
# Poissons Ratio (z) = -0.04044 0.80939
#
# Static dielectric constant tensor:
#      x y z
#    x 1.983270 0.000000 0.000000 
#    y 0.000000 1.756900 0.000000 
#    z 0.000000 0.000000 1.794150 
# 
# From -- ./inp_files/13817.got.cif
#   From: 2010.05.17/outbox.cif.g08.bks.cpg/sg60_7_cif.got.tgz:13817.got - 2010.06.03 14:59:27.
