data_PCOD9454891
_publ_section_title
;
Structure prediction by ZEFSAII (Michael W. Deem and Ramdas Pophale) SiO2 
 PCOD9454891
Probable space group: P B C N
;
_chemical_formula_sum "Si O2"
_cell_formula_units_Z 60
_cell_length_a 11.287317
_cell_length_b 21.333336
_cell_length_c 11.830719
_cell_angle_alpha 90.000000
_cell_angle_beta 90.000000
_cell_angle_gamma 90.000000
_cell_volume 2848.791304
_symmetry_space_group_name_H-M "P B C N"
_symmetry_group_IT_number 60
_symmetry_cell_setting 'orthorhombic'
loop_
_space_group_symop_operation_xyz
x,y,z
1/2-x,1/2-y,1/2+z
1/2+x,1/2-y,-z
-x,y,1/2-z
-x,-y,-z
1/2+x,1/2+y,1/2-z
1/2-x,1/2+y,z
x,-y,1/2+z
loop_
_atom_site_type_symbol
_atom_site_label
_atom_site_fract_x
_atom_site_fract_y
_atom_site_fract_z
Si Si1 0.234001 0.913785 0.156792
Si Si2 0.493885 0.761695 0.384603
Si Si3 0.048322 0.057381 0.366014
Si Si4 0.791487 0.835763 0.573512
Si Si5 0.500000 0.349644 0.250000
Si Si6 0.185978 0.962715 0.526222
Si Si7 0.841445 0.373976 0.117657
Si Si8 0.639657 0.270381 0.083097
O O1 0.329493 0.900584 0.254962
O O2 0.109413 0.892415 0.212120
O O3 0.228259 0.986121 0.118027
O O4 0.241923 0.871289 0.043043
O O5 0.500000 0.751696 0.250000
O O6 0.390825 0.718279 0.437798
O O7 0.460852 0.834914 0.403807
O O8 0.610392 0.741214 0.451902
O O9 0.140638 0.113390 0.350830
O O10 0.000000 0.032163 0.250000
O O11 0.927102 0.077923 0.430552
O O12 0.119562 0.004725 0.432383
O O13 0.681071 0.798149 0.625177
O O14 0.533094 0.302958 0.148509
O O15 0.294232 0.925154 0.471413
O O16 0.743303 0.319355 0.107107
#
# Coordination Sequence:
#
# PCOD9454891 Si02
#       8
#     8   8   8   8   4   8   8   8
#     4  10  20  35  59  82 116 156 188 234 299 348
#     4  11  21  37  60  85 118 157 196 239 285 344
#     4  10  20  32  51  81 112 145 177 237 299 333
#     4  10  20  35  53  86 113 149 190 233 285 349
#     4  10  20  36  60  80 114 160 184 228 292 358
#     4  10  21  33  56  84 116 144 190 244 287 353
#     4  10  22  37  58  89 116 155 196 234 300 355
#     4  10  21  37  58  83 119 153 193 232 286 357
#
# _framework density 21.061565999999999
#
# number of rings (size 3 to 8) (size 9 to 14) (size 15 to 20)
#    0.000    1.867    1.333    2.800   10.267    0.000 
#    2.400    0.000    0.000    7.200    0.000    0.000 
#    0.000    0.000    0.000    0.000    0.000    0.000 
#
# Total GULP energy -334524.292777 kJ/mol
# GULP energy per Si atom -5575.404880 kJ/mol
# Density = 2.101363 g / cm^3
# Si number density = 21.061566 Si / 1000 Ang^3
#
#
#
# Elastic Constant Matrix: (Units=GPa)
#
#
# Indices 1 2 3 4 5 6 
#
# 1 6.4795 9.9393 9.4836 0.0000 0.0000 0.0000
# 2 9.9393 87.1137 30.0361 0.0000 0.0000 0.0000
# 3 9.4836 30.0361 74.0498 0.0000 0.0000 0.0000
# 4 0.0000 0.0000 0.0000 21.3472 0.0000 0.0000
# 5 0.0000 0.0000 0.0000 0.0000 9.3324 0.0000
# 6 0.0000 0.0000 0.0000 0.0000 0.0000 -21.9536
#
#
#
# Elastic Compliance Matrix: (Units=1/GPa)
#
#
# Indices 1 2 3 4 5 6 
#
# 1 0.209663 -0.017048 -0.019937 0.000000 0.000000 0.000000
# 2 -0.017048 0.014732 -0.003792 0.000000 0.000000 0.000000
# 3 -0.019937 -0.003792 0.017596 0.000000 0.000000 0.000000
# 4 0.000000 0.000000 0.000000 0.046844 0.000000 0.000000
# 5 0.000000 0.000000 0.000000 0.000000 0.107154 0.000000
# 6 0.000000 0.000000 0.000000 0.000000 0.000000 -0.045551
#
#
# Mechanical properties :
#
#
# Convention : Reuss Voigt Hill
#
# Bulk Modulus (GPa) = 6.23295 29.61790 17.92543
# Shear Modulus (GPa) = 10.29927 9.62415 9.96171
#
# Velocity S-wave (km/s) = 2.21375 2.13996 2.17717
# Velocity P-wave (km/s) = 3.08222 4.49433 3.85351
#
# Compressibility (1/GPa) = 0.16043769
#
# Stress axis : x y z
#
# Youngs Moduli (GPa) = 4.76955 67.88019 56.83116
#
# Poissons Ratio (x) = 1.15719 1.13304
# Poissons Ratio (y) = 0.08131 0.21552
# Poissons Ratio (z) = 0.09509 0.25742
#
# Static dielectric constant tensor:
#      x y z
#    x 1.812170 0.000000 0.000000 
#    y 0.000000 1.786530 0.000000 
#    z 0.000000 0.000000 1.783090 
# 
# From -- ./inp_files/11267.got.cif
#   From: 2010.05.17/outbox.cif.g08.bks.cpg/sg60_6_cif.got.tgz:11267.got - 2010.06.03 14:59:27.
