data_PCOD9454871
_publ_section_title
;
Structure prediction by ZEFSAII (Michael W. Deem and Ramdas Pophale) SiO2 
 PCOD9454871
Probable space group: P B C N
;
_chemical_formula_sum "Si O2"
_cell_formula_units_Z 48
_cell_length_a 23.380400
_cell_length_b 21.416207
_cell_length_c 5.121655
_cell_angle_alpha 90.000000
_cell_angle_beta 90.000000
_cell_angle_gamma 90.000000
_cell_volume 2564.512460
_symmetry_space_group_name_H-M "P B C N"
_symmetry_group_IT_number 60
_symmetry_cell_setting 'orthorhombic'
loop_
_space_group_symop_operation_xyz
x,y,z
1/2-x,1/2-y,1/2+z
1/2+x,1/2-y,-z
-x,y,1/2-z
-x,-y,-z
1/2+x,1/2+y,1/2-z
1/2-x,1/2+y,z
x,-y,1/2+z
loop_
_atom_site_type_symbol
_atom_site_label
_atom_site_fract_x
_atom_site_fract_y
_atom_site_fract_z
Si Si1 0.066347 0.231662 0.280430
Si Si2 0.566307 0.350042 0.221916
Si Si3 0.319203 0.213322 0.669921
Si Si4 0.236553 0.971283 0.879163
Si Si5 0.604503 0.473451 0.479535
Si Si6 0.257511 0.166335 0.171713
O O1 0.075459 0.205556 0.570942
O O2 0.113673 0.283351 0.222411
O O3 0.000000 0.250506 0.250000
O O4 0.075995 0.176208 0.067170
O O5 0.500000 0.369040 0.250000
O O6 0.602122 0.408050 0.328550
O O7 0.303538 0.189520 0.384021
O O8 0.294495 0.284218 0.692709
O O9 0.284506 0.173819 0.885432
O O10 0.170224 0.986433 0.943019
O O11 0.262714 0.981734 0.165238
O O12 0.239735 0.902801 0.755487
O O13 0.577541 0.478584 0.768625
#
# Coordination Sequence:
#
# PCOD9454871 Si02
#       6
#     8   8   8   8   8   8
#     4  10  20  34  51  71  97 128 163 201 248 304
#     4  10  20  32  47  66  91 128 168 208 249 285
#     4  10  20  33  52  76 102 131 162 205 252 297
#     4  10  20  33  49  70  99 132 165 201 243 296
#     4  10  20  31  45  65  90 127 170 209 246 280
#     4  10  20  33  51  76 103 131 164 203 250 298
#
# _framework density 18.717009000000001
#
# number of rings (size 3 to 8) (size 9 to 14) (size 15 to 20)
#    0.000    2.000    0.000    4.000    0.000    6.000 
#    0.000    0.000    0.000    0.000    0.000    0.000 
#    0.000   13.333    0.000    0.000    0.000    0.000 
#
# Total GULP energy -267690.459482 kJ/mol
# GULP energy per Si atom -5576.884573 kJ/mol
# Density = 1.867441 g / cm^3
# Si number density = 18.717009 Si / 1000 Ang^3
#
#
#
# Elastic Constant Matrix: (Units=GPa)
#
#
# Indices 1 2 3 4 5 6 
#
# 1 38.8651 -0.1399 6.4511 0.0000 0.0000 0.0000
# 2 -0.1399 39.9263 14.9953 0.0000 0.0000 0.0000
# 3 6.4511 14.9953 56.5570 0.0000 0.0000 0.0000
# 4 0.0000 0.0000 0.0000 15.3814 0.0000 0.0000
# 5 0.0000 0.0000 0.0000 0.0000 14.0356 0.0000
# 6 0.0000 0.0000 0.0000 0.0000 0.0000 12.7612
#
#
#
# Elastic Compliance Matrix: (Units=1/GPa)
#
#
# Indices 1 2 3 4 5 6 
#
# 1 0.026292 0.001353 -0.003358 0.000000 0.000000 0.000000
# 2 0.001353 0.027886 -0.007548 0.000000 0.000000 0.000000
# 3 -0.003358 -0.007548 0.020065 0.000000 0.000000 0.000000
# 4 0.000000 0.000000 0.000000 0.065013 0.000000 0.000000
# 5 0.000000 0.000000 0.000000 0.000000 0.071247 0.000000
# 6 0.000000 0.000000 0.000000 0.000000 0.000000 0.078362
#
#
# Mechanical properties :
#
#
# Convention : Reuss Voigt Hill
#
# Bulk Modulus (GPa) = 18.13612 19.77350 18.95481
# Shear Modulus (GPa) = 15.32092 16.03845 15.67969
#
# Velocity S-wave (km/s) = 2.86415 2.93045 2.89749
# Velocity P-wave (km/s) = 4.54406 4.69440 4.61984
#
# Compressibility (1/GPa) = 0.05513858
#
# Stress axis : x y z
#
# Youngs Moduli (GPa) = 38.03408 35.86069 49.83683
#
# Poissons Ratio (x) = -0.04853 0.16734
# Poissons Ratio (y) = -0.05147 0.37616
# Poissons Ratio (z) = 0.12771 0.27067
#
# Static dielectric constant tensor:
#      x y z
#    x 1.655370 0.000000 0.000000 
#    y 0.000000 1.661530 0.000000 
#    z 0.000000 0.000000 1.737160 
# 
# From -- ./inp_files/2063.got.cif
#   From: 2010.05.17/outbox.cif.g08.bks.cpg/sg60_2_cif.got.tgz:2063.got - 2010.06.03 14:59:27.
