data_PCOD9454716
_publ_section_title
;
Structure prediction by ZEFSAII (Michael W. Deem and Ramdas Pophale) SiO2 
 PCOD9454716
Probable space group: P B C N
;
_chemical_formula_sum "Si O2"
_cell_formula_units_Z 48
_cell_length_a 14.262521
_cell_length_b 18.890891
_cell_length_c 7.914907
_cell_angle_alpha 90.000000
_cell_angle_beta 90.000000
_cell_angle_gamma 90.000000
_cell_volume 2132.527083
_symmetry_space_group_name_H-M "P B C N"
_symmetry_group_IT_number 60
_symmetry_cell_setting 'orthorhombic'
loop_
_space_group_symop_operation_xyz
x,y,z
1/2-x,1/2-y,1/2+z
1/2+x,1/2-y,-z
-x,y,1/2-z
-x,-y,-z
1/2+x,1/2+y,1/2-z
1/2-x,1/2+y,z
x,-y,1/2+z
loop_
_atom_site_type_symbol
_atom_site_label
_atom_site_fract_x
_atom_site_fract_y
_atom_site_fract_z
Si Si1 0.352439 0.932735 0.690180
Si Si2 0.028151 0.612711 0.501538
Si Si3 0.293231 0.910869 0.206308
Si Si4 0.944015 0.777732 0.046617
Si Si5 0.363931 0.315545 0.076457
Si Si6 0.251432 0.679574 0.035652
O O1 0.412030 0.927712 0.859388
O O2 0.426523 0.921887 0.534682
O O3 0.288111 0.863708 0.691804
O O4 0.294950 0.004794 0.689845
O O5 0.097778 0.608529 0.662411
O O6 0.023356 0.696225 0.459963
O O7 0.214247 0.876272 0.084757
O O8 0.260335 0.876688 0.383292
O O9 0.899000 0.794494 0.231580
O O10 0.855102 0.792693 0.930558
O O11 0.033253 0.825646 0.998376
O O12 0.312630 0.247228 0.001012
#
# Coordination Sequence:
#
# PCOD9454716 Si02
#       6
#     8   8   8   8   8   8
#     4  11  22  39  57  86 122 160 188 235 305 360
#     4  11  20  37  61  82 124 158 187 237 298 361
#     4  11  24  35  58  90 120 153 193 246 294 346
#     4  10  19  37  63  87 109 161 199 232 292 348
#     4  10  19  39  59  83 119 155 197 238 289 352
#     4  11  21  37  62  89 113 152 206 244 278 351
#
# _framework density 22.508506000000001
#
# number of rings (size 3 to 8) (size 9 to 14) (size 15 to 20)
#    0.000    1.333    5.000    2.500    0.000    2.000 
#    0.000    0.833    0.000    2.000    0.000    0.000 
#    0.000    0.000    0.000    0.000    0.000    0.000 
#
# Total GULP energy -267876.622860 kJ/mol
# GULP energy per Si atom -5580.762976 kJ/mol
# Density = 2.245728 g / cm^3
# Si number density = 22.508506 Si / 1000 Ang^3
#
#
#
# Elastic Constant Matrix: (Units=GPa)
#
#
# Indices 1 2 3 4 5 6 
#
# 1 145.8447 63.9223 0.9086 0.0000 0.0000 0.0000
# 2 63.9223 125.9014 11.4058 0.0000 0.0000 0.0000
# 3 0.9086 11.4058 33.0503 0.0000 0.0000 0.0000
# 4 0.0000 0.0000 0.0000 1.5593 0.0000 0.0000
# 5 0.0000 0.0000 0.0000 0.0000 25.0597 0.0000
# 6 0.0000 0.0000 0.0000 0.0000 0.0000 44.7753
#
#
#
# Elastic Compliance Matrix: (Units=1/GPa)
#
#
# Indices 1 2 3 4 5 6 
#
# 1 0.008877 -0.004630 0.001354 0.000000 0.000000 0.000000
# 2 -0.004630 0.010614 -0.003536 0.000000 0.000000 0.000000
# 3 0.001354 -0.003536 0.031440 0.000000 0.000000 0.000000
# 4 0.000000 0.000000 0.000000 0.641321 0.000000 0.000000
# 5 0.000000 0.000000 0.000000 0.000000 0.039905 0.000000
# 6 0.000000 0.000000 0.000000 0.000000 0.000000 0.022334
#
#
# Mechanical properties :
#
#
# Convention : Reuss Voigt Hill
#
# Bulk Modulus (GPa) = 26.80421 50.80775 38.80598
# Shear Modulus (GPa) = 6.40574 29.51617 17.96096
#
# Velocity S-wave (km/s) = 1.68882 3.62516 2.82789
# Velocity P-wave (km/s) = 3.96701 6.33594 5.28589
#
# Compressibility (1/GPa) = 0.03730758
#
# Stress axis : x y z
#
# Youngs Moduli (GPa) = 112.64580 94.21813 31.80677
#
# Poissons Ratio (x) = 0.43621 -0.04306
# Poissons Ratio (y) = 0.52153 0.11245
# Poissons Ratio (z) = -0.15249 0.33311
#
# Static dielectric constant tensor:
#      x y z
#    x 1.913140 0.000000 0.000000 
#    y 0.000000 1.802400 0.000000 
#    z 0.000000 0.000000 2.007240 
# 
# From -- ./inp_files/5879.got.cif
#   From: 2010.05.17/outbox.cif.g08.bks.cpg/sg60_3_cif.got.tgz:5879.got - 2010.06.03 14:59:27.
