data_PCOD9454338
_publ_section_title
;
Structure prediction by ZEFSAII (Michael W. Deem and Ramdas Pophale) SiO2 
 PCOD9454338
Probable space group: P B C N
;
_chemical_formula_sum "Si O2"
_cell_formula_units_Z 48
_cell_length_a 11.407623
_cell_length_b 23.650761
_cell_length_c 9.744994
_cell_angle_alpha 90.000000
_cell_angle_beta 90.000000
_cell_angle_gamma 90.000000
_cell_volume 2629.189297
_symmetry_space_group_name_H-M "P B C N"
_symmetry_group_IT_number 60
_symmetry_cell_setting 'orthorhombic'
loop_
_space_group_symop_operation_xyz
x,y,z
1/2-x,1/2-y,1/2+z
1/2+x,1/2-y,-z
-x,y,1/2-z
-x,-y,-z
1/2+x,1/2+y,1/2-z
1/2-x,1/2+y,z
x,-y,1/2+z
loop_
_atom_site_type_symbol
_atom_site_label
_atom_site_fract_x
_atom_site_fract_y
_atom_site_fract_z
Si Si1 0.726426 0.405254 0.203089
Si Si2 0.911113 0.989919 0.625199
Si Si3 0.180855 0.879896 0.989739
Si Si4 0.723988 0.768239 0.482574
Si Si5 0.368547 0.199817 0.806181
Si Si6 0.538523 0.312673 0.105902
O O1 0.694278 0.464813 0.135592
O O2 0.717115 0.410110 0.367909
O O3 0.840455 0.366936 0.173011
O O4 0.622640 0.364182 0.150729
O O5 0.855704 0.927592 0.616277
O O6 0.000000 0.997325 0.750000
O O7 0.000000 0.000000 0.500000
O O8 0.068081 0.841669 0.027213
O O9 0.274903 0.831561 0.954305
O O10 0.718112 0.778855 0.318126
O O11 0.828932 0.733256 0.556841
O O12 0.610566 0.731763 0.518628
O O13 0.500000 0.207993 0.750000
O O14 0.500000 0.285864 0.250000
#
# Coordination Sequence:
#
# PCOD9454338 Si02
#       6
#     8   8   8   8   8   8
#     4   9  18  34  53  76 107 144 182 226 295 345
#     4  12  20  33  56  83 109 142 186 249 299 346
#     4  10  19  32  51  81 112 139 180 235 290 345
#     4  10  21  34  55  83 116 150 189 240 283 357
#     4  10  21  38  59  83 116 159 199 238 293 362
#     4   9  16  31  53  74 107 147 178 221 290 346
#
# _framework density 18.256578999999999
#
# number of rings (size 3 to 8) (size 9 to 14) (size 15 to 20)
#    0.000    2.000    3.333    2.500    0.000    2.000 
#    0.000    0.000    0.000    5.000    0.000    0.000 
#    0.000    0.000    0.000    0.000    0.000    0.000 
#
# Total GULP energy -267295.286977 kJ/mol
# GULP energy per Si atom -5568.651812 kJ/mol
# Density = 1.821503 g / cm^3
# Si number density = 18.256579 Si / 1000 Ang^3
#
#
#
# Elastic Constant Matrix: (Units=GPa)
#
#
# Indices 1 2 3 4 5 6 
#
# 1 58.4656 25.2775 16.1713 0.0000 0.0000 0.0000
# 2 25.2775 97.5995 25.8882 0.0000 0.0000 0.0000
# 3 16.1713 25.8882 51.6052 0.0000 0.0000 0.0000
# 4 0.0000 0.0000 0.0000 25.7992 0.0000 0.0000
# 5 0.0000 0.0000 0.0000 0.0000 20.5864 0.0000
# 6 0.0000 0.0000 0.0000 0.0000 0.0000 31.5919
#
#
#
# Elastic Compliance Matrix: (Units=1/GPa)
#
#
# Indices 1 2 3 4 5 6 
#
# 1 0.020034 -0.004064 -0.004239 0.000000 0.000000 0.000000
# 2 -0.004064 0.012643 -0.005069 0.000000 0.000000 0.000000
# 3 -0.004239 -0.005069 0.023249 0.000000 0.000000 0.000000
# 4 0.000000 0.000000 0.000000 0.038761 0.000000 0.000000
# 5 0.000000 0.000000 0.000000 0.000000 0.048576 0.000000
# 6 0.000000 0.000000 0.000000 0.000000 0.000000 0.031654
#
#
# Mechanical properties :
#
#
# Convention : Reuss Voigt Hill
#
# Bulk Modulus (GPa) = 34.26814 38.03826 36.15320
# Shear Modulus (GPa) = 23.65322 24.95106 24.30214
#
# Velocity S-wave (km/s) = 3.60335 3.70089 3.65244
# Velocity P-wave (km/s) = 6.01026 6.25641 6.13457
#
# Compressibility (1/GPa) = 0.02918162
#
# Stress axis : x y z
#
# Youngs Moduli (GPa) = 49.91586 79.09462 43.01232
#
# Poissons Ratio (x) = 0.32145 0.18233
# Poissons Ratio (y) = 0.20287 0.21803
# Poissons Ratio (z) = 0.21160 0.40093
#
# Static dielectric constant tensor:
#      x y z
#    x 1.681200 0.000000 0.000000 
#    y 0.000000 1.643430 0.000000 
#    z 0.000000 0.000000 1.722140 
# 
# From -- ./inp_files/5078.got.cif
#   From: 2010.05.17/outbox.cif.g08.bks.cpg/sg60_3_cif.got.tgz:5078.got - 2010.06.03 14:59:27.
