data_PCOD9454782
_publ_section_title
;
Structure prediction by ZEFSAII (Michael W. Deem and Ramdas Pophale) SiO2 
 PCOD9454782
Probable space group: P B C N
;
_chemical_formula_sum "Si O2"
_cell_formula_units_Z 32
_cell_length_a 5.832928
_cell_length_b 17.344612
_cell_length_c 13.234066
_cell_angle_alpha 90.000000
_cell_angle_beta 90.000000
_cell_angle_gamma 90.000000
_cell_volume 1338.888776
_symmetry_space_group_name_H-M "P B C N"
_symmetry_group_IT_number 60
_symmetry_cell_setting 'orthorhombic'
loop_
_space_group_symop_operation_xyz
x,y,z
1/2-x,1/2-y,1/2+z
1/2+x,1/2-y,-z
-x,y,1/2-z
-x,-y,-z
1/2+x,1/2+y,1/2-z
1/2-x,1/2+y,z
x,-y,1/2+z
loop_
_atom_site_type_symbol
_atom_site_label
_atom_site_fract_x
_atom_site_fract_y
_atom_site_fract_z
Si Si1 0.853762 0.319653 0.111781
Si Si2 0.000000 0.087938 0.750000
Si Si3 0.842126 0.892057 0.931313
Si Si4 0.000000 0.817074 0.750000
Si Si5 0.767905 0.445590 0.441367
O O1 0.687139 0.361550 0.191345
O O2 0.900846 0.238319 0.163173
O O3 0.072840 0.374797 0.093802
O O4 0.730890 0.320953 0.003280
O O5 0.884130 0.041137 0.839480
O O6 0.828692 0.868864 0.815047
O O7 0.675001 0.963764 0.959848
O O8 0.095848 0.917324 0.969960
#
# Coordination Sequence:
#
# PCOD9454782 Si02
#       5
#     8   4   8   4   8
#     4  11  23  41  69  96 139 178 222 277 356 407
#     4  10  19  38  70  93 132 178 216 276 331 416
#     4  10  25  41  67  95 135 174 234 285 336 412
#     4  12  25  44  66 105 136 180 224 290 349 416
#     4  10  20  44  67  96 132 181 229 280 339 413
#
# _framework density 23.900418999999999
#
# number of rings (size 3 to 8) (size 9 to 14) (size 15 to 20)
#    0.000    1.500    2.500    1.500    3.500    0.000 
#    0.000    0.000    0.000    0.000    0.000    0.000 
#    0.000    0.000    0.000    0.000    0.000    0.000 
#
# Total GULP energy -178556.430840 kJ/mol
# GULP energy per Si atom -5579.888464 kJ/mol
# Density = 2.384602 g / cm^3
# Si number density = 23.900419 Si / 1000 Ang^3
#
#
#
# Elastic Constant Matrix: (Units=GPa)
#
#
# Indices 1 2 3 4 5 6 
#
# 1 30.8728 27.9496 16.0090 0.0000 0.0000 0.0000
# 2 27.9496 116.0601 35.2639 0.0000 0.0000 0.0000
# 3 16.0090 35.2639 134.7167 0.0000 0.0000 0.0000
# 4 0.0000 0.0000 0.0000 45.6867 0.0000 0.0000
# 5 0.0000 0.0000 0.0000 0.0000 34.8557 0.0000
# 6 0.0000 0.0000 0.0000 0.0000 0.0000 2.6606
#
#
#
# Elastic Compliance Matrix: (Units=1/GPa)
#
#
# Indices 1 2 3 4 5 6 
#
# 1 0.042218 -0.009389 -0.002559 0.000000 0.000000 0.000000
# 2 -0.009389 0.011449 -0.001881 0.000000 0.000000 0.000000
# 3 -0.002559 -0.001881 0.008220 0.000000 0.000000 0.000000
# 4 0.000000 0.000000 0.000000 0.021888 0.000000 0.000000
# 5 0.000000 0.000000 0.000000 0.000000 0.028690 0.000000
# 6 0.000000 0.000000 0.000000 0.000000 0.000000 0.375858
#
#
# Mechanical properties :
#
#
# Convention : Reuss Voigt Hill
#
# Bulk Modulus (GPa) = 29.21641 48.89942 39.05791
# Shear Modulus (GPa) = 9.48062 30.13574 19.80818
#
# Velocity S-wave (km/s) = 1.99382 3.55475 2.88198
# Velocity P-wave (km/s) = 4.18942 6.11166 5.23945
#
# Compressibility (1/GPa) = 0.03422734
#
# Stress axis : x y z
#
# Youngs Moduli (GPa) = 23.68634 87.34420 121.66163
#
# Poissons Ratio (x) = 0.82011 0.31136
# Poissons Ratio (y) = 0.22240 0.22886
# Poissons Ratio (z) = 0.06062 0.16431
#
# Static dielectric constant tensor:
#      x y z
#    x 2.058640 0.000000 0.000000 
#    y 0.000000 1.990120 0.000000 
#    z 0.000000 0.000000 1.909320 
# 
# From -- ./inp_files/13597.got.cif
#   From: 2010.05.17/outbox.cif.g08.bks.cpg/sg60_7_cif.got.tgz:13597.got - 2010.06.03 14:59:27.
