data_PCOD9454779
_publ_section_title
;
Structure prediction by ZEFSAII (Michael W. Deem and Ramdas Pophale) SiO2 
 PCOD9454779
Probable space group: P B C N
;
_chemical_formula_sum "Si O2"
_cell_formula_units_Z 56
_cell_length_a 9.756159
_cell_length_b 18.967017
_cell_length_c 15.952399
_cell_angle_alpha 90.000000
_cell_angle_beta 90.000000
_cell_angle_gamma 90.000000
_cell_volume 2951.915400
_symmetry_space_group_name_H-M "P B C N"
_symmetry_group_IT_number 60
_symmetry_cell_setting 'orthorhombic'
loop_
_space_group_symop_operation_xyz
x,y,z
1/2-x,1/2-y,1/2+z
1/2+x,1/2-y,-z
-x,y,1/2-z
-x,-y,-z
1/2+x,1/2+y,1/2-z
1/2-x,1/2+y,z
x,-y,1/2+z
loop_
_atom_site_type_symbol
_atom_site_label
_atom_site_fract_x
_atom_site_fract_y
_atom_site_fract_z
Si Si1 0.302720 0.846923 0.077499
Si Si2 0.661629 0.275387 0.035888
Si Si3 0.601826 0.815176 0.155095
Si Si4 0.389595 0.998688 0.076866
Si Si5 0.500000 0.680488 0.250000
Si Si6 0.918392 0.239667 0.835957
Si Si7 0.000000 0.561016 0.750000
Si Si8 0.781717 0.135802 0.376591
O O1 0.457859 0.828766 0.107391
O O2 0.298064 0.929334 0.061665
O O3 0.195358 0.819520 0.145809
O O4 0.280804 0.799641 0.995418
O O5 0.773016 0.313424 0.092846
O O6 0.524838 0.263787 0.087680
O O7 0.647670 0.322023 0.952894
O O8 0.589741 0.738406 0.198020
O O9 0.612667 0.881733 0.217984
O O10 0.459340 0.983921 0.168399
O O11 0.293972 0.066796 0.088424
O O12 0.500000 0.000000 0.000000
O O13 0.399027 0.633168 0.194104
O O14 0.837055 0.313141 0.840494
O O15 0.000000 0.231155 0.750000
#
# Coordination Sequence:
#
# PCOD9454779 Si02
#       8
#     8   8   8   8   4   8   4   8
#     4  10  21  41  62  92 127 167 213 263 322 393
#     4  11  21  37  68  96 124 162 216 274 325 382
#     4  10  19  38  67  92 121 168 214 272 321 388
#     4  11  23  44  63  94 132 176 227 268 323 404
#     4  11  20  38  60  90 125 164 210 264 337 386
#     4  11  23  39  62  99 124 158 218 274 322 376
#     4   9  22  38  68  90 125 178 224 258 327 392
#     4  11  24  39  62  94 131 172 213 269 333 393
#
# _framework density 18.970734
#
# number of rings (size 3 to 8) (size 9 to 14) (size 15 to 20)
#    0.000    1.429    2.857    5.143    5.000    0.000 
#    3.857    0.714    0.000    0.000    0.000    0.000 
#    0.000    0.000    0.000    0.000    0.000    0.000 
#
# Total GULP energy -312409.044944 kJ/mol
# GULP energy per Si atom -5578.732945 kJ/mol
# Density = 1.892756 g / cm^3
# Si number density = 18.970734 Si / 1000 Ang^3
#
#
#
# Elastic Constant Matrix: (Units=GPa)
#
#
# Indices 1 2 3 4 5 6 
#
# 1 100.5074 39.4102 53.2523 0.0000 0.0000 0.0000
# 2 39.4102 125.2362 31.6964 0.0000 0.0000 0.0000
# 3 53.2523 31.6964 90.1626 0.0000 0.0000 0.0000
# 4 0.0000 0.0000 0.0000 18.8169 0.0000 0.0000
# 5 0.0000 0.0000 0.0000 0.0000 54.4418 0.0000
# 6 0.0000 0.0000 0.0000 0.0000 0.0000 19.7534
#
#
#
# Elastic Compliance Matrix: (Units=1/GPa)
#
#
# Indices 1 2 3 4 5 6 
#
# 1 0.015313 -0.002777 -0.008068 0.000000 0.000000 0.000000
# 2 -0.002777 0.009268 -0.001618 0.000000 0.000000 0.000000
# 3 -0.008068 -0.001618 0.016425 0.000000 0.000000 0.000000
# 4 0.000000 0.000000 0.000000 0.053144 0.000000 0.000000
# 5 0.000000 0.000000 0.000000 0.000000 0.018368 0.000000
# 6 0.000000 0.000000 0.000000 0.000000 0.000000 0.050624
#
#
# Mechanical properties :
#
#
# Convention : Reuss Voigt Hill
#
# Bulk Modulus (GPa) = 62.18785 62.73601 62.46193
# Shear Modulus (GPa) = 25.84926 31.37224 28.61075
#
# Velocity S-wave (km/s) = 3.69533 4.07100 3.88771
# Velocity P-wave (km/s) = 7.14558 7.43230 7.29035
#
# Compressibility (1/GPa) = 0.01608031
#
# Stress axis : x y z
#
# Youngs Moduli (GPa) = 65.30346 107.89463 60.88223
#
# Poissons Ratio (x) = 0.29961 0.49120
# Poissons Ratio (y) = 0.18134 0.09852
# Poissons Ratio (z) = 0.52688 0.17459
#
# Static dielectric constant tensor:
#      x y z
#    x 1.651780 0.000000 0.000000 
#    y 0.000000 1.659660 0.000000 
#    z 0.000000 0.000000 1.728720 
# 
# From -- ./inp_files/19664.got.cif
#   From: 2010.05.17/outbox.cif.g08.bks.cpg/sg60_10_cif.got.tgz:19664.got - 2010.06.03 14:59:27.
