data_PCOD9454585
_publ_section_title
;
Structure prediction by ZEFSAII (Michael W. Deem and Ramdas Pophale) SiO2 
 PCOD9454585
Probable space group: P B C N
;
_chemical_formula_sum "Si O2"
_cell_formula_units_Z 60
_cell_length_a 6.178585
_cell_length_b 19.378811
_cell_length_c 25.762782
_cell_angle_alpha 90.000000
_cell_angle_beta 90.000000
_cell_angle_gamma 90.000000
_cell_volume 3084.671433
_symmetry_space_group_name_H-M "P B C N"
_symmetry_group_IT_number 60
_symmetry_cell_setting 'orthorhombic'
loop_
_space_group_symop_operation_xyz
x,y,z
1/2-x,1/2-y,1/2+z
1/2+x,1/2-y,-z
-x,y,1/2-z
-x,-y,-z
1/2+x,1/2+y,1/2-z
1/2-x,1/2+y,z
x,-y,1/2+z
loop_
_atom_site_type_symbol
_atom_site_label
_atom_site_fract_x
_atom_site_fract_y
_atom_site_fract_z
Si Si1 0.755759 0.731233 0.563230
Si Si2 0.614373 0.199302 0.372896
Si Si3 0.145693 0.666505 0.614745
Si Si4 0.280833 0.981824 0.157165
Si Si5 0.342584 0.090229 0.323550
Si Si6 0.917730 0.848193 0.489003
Si Si7 0.467435 0.413703 0.590649
Si Si8 0.000000 0.034275 0.250000
O O1 0.568002 0.780639 0.585107
O O2 0.878049 0.777671 0.521349
O O3 0.646219 0.664328 0.538421
O O4 0.915313 0.702583 0.606626
O O5 0.711472 0.273432 0.359368
O O6 0.493748 0.157145 0.328057
O O7 0.800591 0.149560 0.396779
O O8 0.155303 0.596045 0.645774
O O9 0.241498 0.649601 0.556850
O O10 0.494301 0.026060 0.170421
O O11 0.164405 0.018216 0.107580
O O12 0.109440 0.990557 0.204022
O O13 0.191944 0.080468 0.273797
O O14 0.172871 0.092112 0.371253
O O15 0.944699 0.906927 0.532224
#
# Coordination Sequence:
#
# PCOD9454585 Si02
#       8
#     8   8   8   8   8   8   8   4
#     4  11  19  32  56  86 123 170 210 246 295 358
#     4  10  19  35  62  90 122 158 202 257 302 356
#     4  11  23  35  57  91 131 171 208 251 305 369
#     4  10  24  41  62  91 122 162 205 257 324 381
#     4  10  20  39  68  94 115 157 208 263 316 376
#     4  11  19  32  55  85 123 173 212 246 297 355
#     4  10  20  37  60  87 124 161 210 260 297 365
#     4  10  22  44  72  88 114 156 208 262 328 388
#
# _framework density 19.451018000000001
#
# number of rings (size 3 to 8) (size 9 to 14) (size 15 to 20)
#    0.000    1.600    4.000    1.200    0.000    4.800 
#    0.000    1.333   11.733    0.000    0.000    0.000 
#    0.000    0.000    0.000    0.000    0.000    0.000 
#
# Total GULP energy -334713.872293 kJ/mol
# GULP energy per Si atom -5578.564538 kJ/mol
# Density = 1.940675 g / cm^3
# Si number density = 19.451018 Si / 1000 Ang^3
#
#
#
# Elastic Constant Matrix: (Units=GPa)
#
#
# Indices 1 2 3 4 5 6 
#
# 1 98.2763 40.2196 22.7761 0.0000 0.0000 0.0000
# 2 40.2196 108.9240 30.7932 0.0000 0.0000 0.0000
# 3 22.7761 30.7932 51.6167 0.0000 0.0000 0.0000
# 4 0.0000 0.0000 0.0000 11.7722 0.0000 0.0000
# 5 0.0000 0.0000 0.0000 0.0000 31.2885 0.0000
# 6 0.0000 0.0000 0.0000 0.0000 0.0000 15.9674
#
#
#
# Elastic Compliance Matrix: (Units=1/GPa)
#
#
# Indices 1 2 3 4 5 6 
#
# 1 0.012439 -0.003658 -0.003306 0.000000 0.000000 0.000000
# 2 -0.003658 0.012119 -0.005616 0.000000 0.000000 0.000000
# 3 -0.003306 -0.005616 0.024183 0.000000 0.000000 0.000000
# 4 0.000000 0.000000 0.000000 0.084946 0.000000 0.000000
# 5 0.000000 0.000000 0.000000 0.000000 0.031961 0.000000
# 6 0.000000 0.000000 0.000000 0.000000 0.000000 0.062628
#
#
# Mechanical properties :
#
#
# Convention : Reuss Voigt Hill
#
# Bulk Modulus (GPa) = 42.40866 49.59943 46.00404
# Shear Modulus (GPa) = 19.13542 22.80747 20.97145
#
# Velocity S-wave (km/s) = 3.13992 3.42798 3.28711
# Velocity P-wave (km/s) = 5.91571 6.42052 6.17328
#
# Compressibility (1/GPa) = 0.02358009
#
# Stress axis : x y z
#
# Youngs Moduli (GPa) = 80.39376 82.51440 41.35189
#
# Poissons Ratio (x) = 0.30186 0.13672
# Poissons Ratio (y) = 0.29410 0.23222
# Poissons Ratio (z) = 0.26580 0.46338
#
# Static dielectric constant tensor:
#      x y z
#    x 1.706090 0.000000 0.000000 
#    y 0.000000 1.664150 0.000000 
#    z 0.000000 0.000000 1.693970 
# 
# From -- ./inp_files/25781.got.cif
#   From: 2010.05.17/outbox.cif.g08.bks.cpg/sg60_13_cif.got.tgz:25781.got - 2010.06.03 14:59:27.
