data_PCOD9454468
_publ_section_title
;
Structure prediction by ZEFSAII (Michael W. Deem and Ramdas Pophale) SiO2 
 PCOD9454468
Probable space group: P B C N
;
_chemical_formula_sum "Si O2"
_cell_formula_units_Z 48
_cell_length_a 5.011026
_cell_length_b 16.022725
_cell_length_c 26.893528
_cell_angle_alpha 90.000000
_cell_angle_beta 90.000000
_cell_angle_gamma 90.000000
_cell_volume 2159.289204
_symmetry_space_group_name_H-M "P B C N"
_symmetry_group_IT_number 60
_symmetry_cell_setting 'orthorhombic'
loop_
_space_group_symop_operation_xyz
x,y,z
1/2-x,1/2-y,1/2+z
1/2+x,1/2-y,-z
-x,y,1/2-z
-x,-y,-z
1/2+x,1/2+y,1/2-z
1/2-x,1/2+y,z
x,-y,1/2+z
loop_
_atom_site_type_symbol
_atom_site_label
_atom_site_fract_x
_atom_site_fract_y
_atom_site_fract_z
Si Si1 0.119884 0.699403 0.906042
Si Si2 0.601396 0.114644 0.331843
Si Si3 0.404917 0.703830 0.301183
Si Si4 0.644197 0.549241 0.456440
Si Si5 0.126982 0.286230 0.562958
Si Si6 0.152415 0.491812 0.398519
O O1 0.328044 0.752963 0.938930
O O2 0.217899 0.605425 0.899214
O O3 0.089866 0.739047 0.850649
O O4 0.832156 0.710265 0.931527
O O5 0.478060 0.026027 0.347498
O O6 0.889070 0.126707 0.308317
O O7 0.622111 0.162669 0.384776
O O8 0.387689 0.165767 0.300436
O O9 0.500000 0.746219 0.250000
O O10 0.500000 0.500000 0.500000
O O11 0.743047 0.641946 0.471020
O O12 0.413178 0.545786 0.413743
O O13 0.913374 0.504599 0.438129
#
# Coordination Sequence:
#
# PCOD9454468 Si02
#       6
#     8   8   8   8   8   8
#     4  10  20  35  58  82 111 148 185 226 282 343
#     4   9  18  33  55  77 104 147 190 222 266 341
#     4  10  19  34  55  81 110 146 189 232 278 335
#     4  11  22  38  60  85 113 149 194 241 282 332
#     4   9  18  35  56  78 108 149 186 216 271 348
#     4  11  21  37  59  85 113 149 192 235 285 341
#
# _framework density 22.229538000000002
#
# number of rings (size 3 to 8) (size 9 to 14) (size 15 to 20)
#    0.000    2.000    0.000    7.000    0.000    0.000 
#    0.000    5.000    0.000    0.000    0.000    0.000 
#    0.000    0.000    0.000    0.000    0.000    0.000 
#
# Total GULP energy -267898.650864 kJ/mol
# GULP energy per Si atom -5581.221893 kJ/mol
# Density = 2.217894 g / cm^3
# Si number density = 22.229538 Si / 1000 Ang^3
#
#
#
# Elastic Constant Matrix: (Units=GPa)
#
#
# Indices 1 2 3 4 5 6 
#
# 1 122.8665 19.2615 19.7379 0.0000 0.0000 0.0000
# 2 19.2615 97.2449 16.2217 0.0000 0.0000 0.0000
# 3 19.7379 16.2217 74.6447 0.0000 0.0000 0.0000
# 4 0.0000 0.0000 0.0000 15.3021 0.0000 0.0000
# 5 0.0000 0.0000 0.0000 0.0000 33.5420 0.0000
# 6 0.0000 0.0000 0.0000 0.0000 0.0000 25.5000
#
#
#
# Elastic Compliance Matrix: (Units=1/GPa)
#
#
# Indices 1 2 3 4 5 6 
#
# 1 0.008676 -0.001386 -0.001993 0.000000 0.000000 0.000000
# 2 -0.001386 0.010892 -0.002000 0.000000 0.000000 0.000000
# 3 -0.001993 -0.002000 0.014359 0.000000 0.000000 0.000000
# 4 0.000000 0.000000 0.000000 0.065351 0.000000 0.000000
# 5 0.000000 0.000000 0.000000 0.000000 0.029813 0.000000
# 6 0.000000 0.000000 0.000000 0.000000 0.000000 0.039216
#
#
# Mechanical properties :
#
#
# Convention : Reuss Voigt Hill
#
# Bulk Modulus (GPa) = 43.16410 45.02203 44.09306
# Shear Modulus (GPa) = 26.76834 30.83780 28.80307
#
# Velocity S-wave (km/s) = 3.47389 3.72861 3.60350
# Velocity P-wave (km/s) = 5.96240 6.23169 6.09853
#
# Compressibility (1/GPa) = 0.02316740
#
# Stress axis : x y z
#
# Youngs Moduli (GPa) = 115.25545 91.81426 69.64497
#
# Poissons Ratio (x) = 0.12726 0.13880
# Poissons Ratio (y) = 0.15975 0.13932
# Poissons Ratio (z) = 0.22971 0.18367
#
# Static dielectric constant tensor:
#      x y z
#    x 1.809250 0.000000 0.000000 
#    y 0.000000 1.841600 0.000000 
#    z 0.000000 0.000000 1.941290 
# 
# From -- ./inp_files/25666.got.cif
#   From: 2010.05.17/outbox.cif.g08.bks.cpg/sg60_13_cif.got.tgz:25666.got - 2010.06.03 14:59:27.
