data_PCOD9454255
_publ_section_title
;
Structure prediction by ZEFSAII (Michael W. Deem and Ramdas Pophale) SiO2 
 PCOD9454255
Probable space group: P B C N
;
_chemical_formula_sum "Si O2"
_cell_formula_units_Z 60
_cell_length_a 4.955086
_cell_length_b 17.232502
_cell_length_c 31.535248
_cell_angle_alpha 90.000000
_cell_angle_beta 90.000000
_cell_angle_gamma 90.000000
_cell_volume 2692.748451
_symmetry_space_group_name_H-M "P B C N"
_symmetry_group_IT_number 60
_symmetry_cell_setting 'orthorhombic'
loop_
_space_group_symop_operation_xyz
x,y,z
1/2-x,1/2-y,1/2+z
1/2+x,1/2-y,-z
-x,y,1/2-z
-x,-y,-z
1/2+x,1/2+y,1/2-z
1/2-x,1/2+y,z
x,-y,1/2+z
loop_
_atom_site_type_symbol
_atom_site_label
_atom_site_fract_x
_atom_site_fract_y
_atom_site_fract_z
Si Si1 0.875503 0.698927 0.990418
Si Si2 0.016782 0.707709 0.896860
Si Si3 0.855497 0.950985 0.536924
Si Si4 0.834984 0.413283 0.335615
Si Si5 0.864802 0.463507 0.906162
Si Si6 0.912438 0.207373 0.705932
Si Si7 0.509645 0.199500 0.126727
Si Si8 0.000000 0.587939 0.750000
O O1 0.659724 0.768631 0.993042
O O2 0.766430 0.626803 0.016884
O O3 0.791748 0.746051 0.095376
O O4 0.912202 0.675571 0.941360
O O5 0.049635 0.640446 0.861581
O O6 0.789417 0.766456 0.879566
O O7 0.602372 0.990749 0.561469
O O8 0.101368 0.935170 0.568866
O O9 0.000000 0.000000 0.500000
O O10 0.762709 0.473855 0.372003
O O11 0.622428 0.349868 0.318158
O O12 0.898833 0.457318 0.291330
O O13 0.999415 0.390851 0.882143
O O14 0.866341 0.274656 0.671921
O O15 0.698543 0.147024 0.725544
O O16 0.000000 0.246896 0.750000
#
# Coordination Sequence:
#
# PCOD9454255 Si02
#       8
#     8   8   8   8   8   8   8   4
#     4  12  24  41  66  97 128 170 224 278 324 384
#     4  11  22  40  66  93 126 175 226 266 327 394
#     4  12  27  47  65  94 137 181 226 279 338 403
#     4  10  23  39  67  96 131 178 227 276 325 404
#     4  12  26  43  66  97 139 178 221 278 347 396
#     4   9  20  39  68  98 130 171 224 272 324 399
#     4  11  22  41  63  97 132 170 210 276 337 390
#     4  10  18  42  68  98 128 166 232 272 326 392
#
# _framework density 22.282066
#
# number of rings (size 3 to 8) (size 9 to 14) (size 15 to 20)
#    0.000    1.067    1.333    6.000    1.867    2.133 
#    1.200    0.000    0.000    0.000    0.000    0.000 
#    0.000    0.000    0.000    0.000    0.000    0.000 
#
# Total GULP energy -334838.207650 kJ/mol
# GULP energy per Si atom -5580.636794 kJ/mol
# Density = 2.223135 g / cm^3
# Si number density = 22.282066 Si / 1000 Ang^3
#
#
#
# Elastic Constant Matrix: (Units=GPa)
#
#
# Indices 1 2 3 4 5 6 
#
# 1 78.8253 -1.2223 24.1435 0.0000 0.0000 0.0000
# 2 -1.2223 62.4285 42.2873 0.0000 0.0000 0.0000
# 3 24.1435 42.2873 170.5972 0.0000 0.0000 0.0000
# 4 0.0000 0.0000 0.0000 29.3241 0.0000 0.0000
# 5 0.0000 0.0000 0.0000 0.0000 37.9670 0.0000
# 6 0.0000 0.0000 0.0000 0.0000 0.0000 20.4684
#
#
#
# Elastic Compliance Matrix: (Units=1/GPa)
#
#
# Indices 1 2 3 4 5 6 
#
# 1 0.013439 0.001865 -0.002364 0.000000 0.000000 0.000000
# 2 0.001865 0.019509 -0.005100 0.000000 0.000000 0.000000
# 3 -0.002364 -0.005100 0.007460 0.000000 0.000000 0.000000
# 4 0.000000 0.000000 0.000000 0.034102 0.000000 0.000000
# 5 0.000000 0.000000 0.000000 0.000000 0.026339 0.000000
# 6 0.000000 0.000000 0.000000 0.000000 0.000000 0.048856
#
#
# Mechanical properties :
#
#
# Convention : Reuss Voigt Hill
#
# Bulk Modulus (GPa) = 34.23455 49.14090 41.68773
# Shear Modulus (GPa) = 29.30132 33.99474 31.64803
#
# Velocity S-wave (km/s) = 3.63025 3.91020 3.77282
# Velocity P-wave (km/s) = 5.74188 6.51829 6.14236
#
# Compressibility (1/GPa) = 0.02921025
#
# Stress axis : x y z
#
# Youngs Moduli (GPa) = 74.40853 51.25764 134.03974
#
# Poissons Ratio (x) = -0.09557 0.31689
# Poissons Ratio (y) = -0.13874 0.68358
# Poissons Ratio (z) = 0.17591 0.26140
#
# Static dielectric constant tensor:
#      x y z
#    x 1.907120 0.000000 0.000000 
#    y 0.000000 1.813310 0.000000 
#    z 0.000000 0.000000 1.965900 
# 
# From -- ./inp_files/25003.got.cif
#   From: 2010.05.17/outbox.cif.g08.bks.cpg/sg60_13_cif.got.tgz:25003.got - 2010.06.03 14:59:27.
