data_PCOD9455441
_publ_section_title
;
Structure prediction by ZEFSAII (Michael W. Deem and Ramdas Pophale) SiO2 
 PCOD9455441
Probable space group: P B C N
;
_chemical_formula_sum "Si O2"
_cell_formula_units_Z 52
_cell_length_a 16.959197
_cell_length_b 17.809302
_cell_length_c 8.439507
_cell_angle_alpha 90.000000
_cell_angle_beta 90.000000
_cell_angle_gamma 90.000000
_cell_volume 2548.996630
_symmetry_space_group_name_H-M "P B C N"
_symmetry_group_IT_number 60
_symmetry_cell_setting 'orthorhombic'
loop_
_space_group_symop_operation_xyz
x,y,z
1/2-x,1/2-y,1/2+z
1/2+x,1/2-y,-z
-x,y,1/2-z
-x,-y,-z
1/2+x,1/2+y,1/2-z
1/2-x,1/2+y,z
x,-y,1/2+z
loop_
_atom_site_type_symbol
_atom_site_label
_atom_site_fract_x
_atom_site_fract_y
_atom_site_fract_z
Si Si1 0.658809 0.107960 0.484441
Si Si2 0.224172 0.527775 0.321716
Si Si3 0.178047 0.339825 0.004090
Si Si4 0.000000 0.000000 0.000000
Si Si5 0.622319 0.562312 0.754587
Si Si6 0.491745 0.913921 0.060921
Si Si7 0.269271 0.701972 0.812003
O O1 0.679527 0.069882 0.318877
O O2 0.567675 0.129371 0.491864
O O3 0.719597 0.171779 0.536576
O O4 0.674520 0.042926 0.615905
O O5 0.231078 0.587383 0.463746
O O6 0.307077 0.497944 0.261132
O O7 0.192891 0.280269 0.864166
O O8 0.090033 0.373565 0.015927
O O9 0.207163 0.302001 0.167113
O O10 0.063312 0.045553 0.889783
O O11 0.073285 0.953943 0.087744
O O12 0.662378 0.643140 0.732905
O O13 0.500000 0.914495 0.250000
O O14 0.500000 0.000000 0.000000
#
# Coordination Sequence:
#
# PCOD9455441 Si02
#       7
#     8   8   8   4   8   8   8
#     4  11  21  39  66  99 137 172 226 289 348 419
#     4  11  21  38  67  99 128 177 228 284 349 422
#     4  12  25  43  68  97 139 187 228 282 357 436
#     4  10  20  38  66  90 118 166 230 284 338 380
#     4  10  21  39  65  94 127 166 228 296 335 399
#     4  12  24  42  70 108 143 175 233 305 356 418
#     4  11  24  44  64  93 139 185 227 281 352 431
#
# _framework density 20.400182999999998
#
# number of rings (size 3 to 8) (size 9 to 14) (size 15 to 20)
#    0.000    0.923    3.077    6.462    0.000    0.000 
#    0.000    7.692    3.385    0.000    0.000    0.000 
#    0.000    0.000    0.000    0.000    0.000    0.000 
#
# Total GULP energy -289542.016574 kJ/mol
# GULP energy per Si atom -5568.115703 kJ/mol
# Density = 2.035375 g / cm^3
# Si number density = 20.400183 Si / 1000 Ang^3
#
#
#
# Elastic Constant Matrix: (Units=GPa)
#
#
# Indices 1 2 3 4 5 6 
#
# 1 144.5347 63.8650 43.1025 0.0000 0.0000 0.0000
# 2 63.8650 103.0081 21.3731 0.0000 0.0000 0.0000
# 3 43.1025 21.3731 58.3445 0.0000 0.0000 0.0000
# 4 0.0000 0.0000 0.0000 23.0916 0.0000 0.0000
# 5 0.0000 0.0000 0.0000 0.0000 34.1143 0.0000
# 6 0.0000 0.0000 0.0000 0.0000 0.0000 18.1546
#
#
#
# Elastic Compliance Matrix: (Units=1/GPa)
#
#
# Indices 1 2 3 4 5 6 
#
# 1 0.011311 -0.005713 -0.006263 0.000000 0.000000 0.000000
# 2 -0.005713 0.013392 -0.000685 0.000000 0.000000 0.000000
# 3 -0.006263 -0.000685 0.022018 0.000000 0.000000 0.000000
# 4 0.000000 0.000000 0.000000 0.043306 0.000000 0.000000
# 5 0.000000 0.000000 0.000000 0.000000 0.029313 0.000000
# 6 0.000000 0.000000 0.000000 0.000000 0.000000 0.055082
#
#
# Mechanical properties :
#
#
# Convention : Reuss Voigt Hill
#
# Bulk Modulus (GPa) = 46.73430 62.50761 54.62096
# Shear Modulus (GPa) = 24.16879 26.90855 25.53867
#
# Velocity S-wave (km/s) = 3.44573 3.63579 3.54204
# Velocity P-wave (km/s) = 6.22810 6.95216 6.60007
#
# Compressibility (1/GPa) = 0.02139756
#
# Stress axis : x y z
#
# Youngs Moduli (GPa) = 88.40907 74.66918 45.41828
#
# Poissons Ratio (x) = 0.42661 0.28446
# Poissons Ratio (y) = 0.50511 0.03112
# Poissons Ratio (z) = 0.55372 0.05117
#
# Static dielectric constant tensor:
#      x y z
#    x 1.752500 0.000000 0.000000 
#    y 0.000000 1.725680 0.000000 
#    z 0.000000 0.000000 1.794980 
# 
# From -- ./inp_files/6864.got.cif
#   From: 2010.05.17/outbox.cif.g08.bks.cpg/sg60_4_cif.got.tgz:6864.got - 2010.06.03 14:59:27.
