data_PCOD9455146
_publ_section_title
;
Structure prediction by ZEFSAII (Michael W. Deem and Ramdas Pophale) SiO2 
 PCOD9455146
Probable space group: P B C N
;
_chemical_formula_sum "Si O2"
_cell_formula_units_Z 44
_cell_length_a 9.611726
_cell_length_b 17.464447
_cell_length_c 13.009839
_cell_angle_alpha 90.000000
_cell_angle_beta 90.000000
_cell_angle_gamma 90.000000
_cell_volume 2183.876840
_symmetry_space_group_name_H-M "P B C N"
_symmetry_group_IT_number 60
_symmetry_cell_setting 'orthorhombic'
loop_
_space_group_symop_operation_xyz
x,y,z
1/2-x,1/2-y,1/2+z
1/2+x,1/2-y,-z
-x,y,1/2-z
-x,-y,-z
1/2+x,1/2+y,1/2-z
1/2-x,1/2+y,z
x,-y,1/2+z
loop_
_atom_site_type_symbol
_atom_site_label
_atom_site_fract_x
_atom_site_fract_y
_atom_site_fract_z
Si Si1 0.047400 0.749218 0.465248
Si Si2 0.799448 0.342210 0.948400
Si Si3 0.123325 0.865676 0.170683
Si Si4 0.772494 0.717032 0.230333
Si Si5 0.000000 0.129406 0.250000
Si Si6 0.372714 0.520834 0.074584
O O1 0.167373 0.785734 0.534258
O O2 0.130185 0.713939 0.368581
O O3 0.935510 0.688498 0.506664
O O4 0.952339 0.817722 0.419639
O O5 0.829700 0.332473 0.826757
O O6 0.745516 0.426210 0.976239
O O7 0.220525 0.805073 0.230018
O O8 0.000000 0.887365 0.250000
O O9 0.184462 0.942717 0.123937
O O10 0.621674 0.683421 0.207010
O O11 0.936270 0.074961 0.336881
O O12 0.500000 0.500000 0.000000
#
# Coordination Sequence:
#
# PCOD9455146 Si02
#       6
#     8   8   8   8   4   8
#     4  10  20  36  59  84 119 152 204 245 298 361
#     4  10  21  34  57  89 113 160 200 247 298 357
#     4   9  17  35  56  81 110 155 195 242 294 353
#     4   9  21  36  60  81 115 155 202 252 293 355
#     4  10  22  36  60  92 114 154 210 248 296 368
#     4  11  20  34  58  88 121 153 200 248 303 363
#
# _framework density 20.147656000000001
#
# number of rings (size 3 to 8) (size 9 to 14) (size 15 to 20)
#    0.000    2.182    2.727    1.636    5.091    0.000 
#    0.000    0.000    8.000    7.636    0.000    0.000 
#    0.000    0.000    0.000    0.000    0.000    0.000 
#
# Total GULP energy -245458.662360 kJ/mol
# GULP energy per Si atom -5578.605963 kJ/mol
# Density = 2.010180 g / cm^3
# Si number density = 20.147656 Si / 1000 Ang^3
#
#
#
# Elastic Constant Matrix: (Units=GPa)
#
#
# Indices 1 2 3 4 5 6 
#
# 1 91.0645 63.6266 4.4600 0.0000 0.0000 0.0000
# 2 63.6266 110.0543 13.1284 0.0000 0.0000 0.0000
# 3 4.4600 13.1284 33.6212 0.0000 0.0000 0.0000
# 4 0.0000 0.0000 0.0000 19.0327 0.0000 0.0000
# 5 0.0000 0.0000 0.0000 0.0000 23.0323 0.0000
# 6 0.0000 0.0000 0.0000 0.0000 0.0000 38.8928
#
#
#
# Elastic Compliance Matrix: (Units=1/GPa)
#
#
# Indices 1 2 3 4 5 6 
#
# 1 0.018527 -0.010927 0.001809 0.000000 0.000000 0.000000
# 2 -0.010927 0.015975 -0.004788 0.000000 0.000000 0.000000
# 3 0.001809 -0.004788 0.031373 0.000000 0.000000 0.000000
# 4 0.000000 0.000000 0.000000 0.052541 0.000000 0.000000
# 5 0.000000 0.000000 0.000000 0.000000 0.043417 0.000000
# 6 0.000000 0.000000 0.000000 0.000000 0.000000 0.025712
#
#
# Mechanical properties :
#
#
# Convention : Reuss Voigt Hill
#
# Bulk Modulus (GPa) = 26.27262 44.13000 35.20131
# Shear Modulus (GPa) = 21.92537 26.42655 24.17596
#
# Velocity S-wave (km/s) = 3.30242 3.62559 3.46777
# Velocity P-wave (km/s) = 5.25449 6.28310 5.79168
#
# Compressibility (1/GPa) = 0.03806244
#
# Stress axis : x y z
#
# Youngs Moduli (GPa) = 53.97385 62.59738 31.87459
#
# Poissons Ratio (x) = 0.68402 -0.05766
# Poissons Ratio (y) = 0.58979 0.15263
# Poissons Ratio (z) = -0.09764 0.29974
#
# Static dielectric constant tensor:
#      x y z
#    x 1.734530 0.000000 0.000000 
#    y 0.000000 1.739020 0.000000 
#    z 0.000000 0.000000 1.774210 
# 
# From -- ./inp_files/14889.got.cif
#   From: 2010.05.17/outbox.cif.g08.bks.cpg/sg60_8_cif.got.tgz:14889.got - 2010.06.03 14:59:27.
