data_PCOD9455838
_publ_section_title
;
Structure prediction by ZEFSAII (Michael W. Deem and Ramdas Pophale) SiO2 
 PCOD9455838
Probable space group: P B C N
;
_chemical_formula_sum "Si O2"
_cell_formula_units_Z 32
_cell_length_a 15.991323
_cell_length_b 5.145790
_cell_length_c 20.562745
_cell_angle_alpha 90.000000
_cell_angle_beta 90.000000
_cell_angle_gamma 90.000000
_cell_volume 1692.066955
_symmetry_space_group_name_H-M "P B C N"
_symmetry_group_IT_number 60
_symmetry_cell_setting 'orthorhombic'
loop_
_space_group_symop_operation_xyz
x,y,z
1/2-x,1/2-y,1/2+z
1/2+x,1/2-y,-z
-x,y,1/2-z
-x,-y,-z
1/2+x,1/2+y,1/2-z
1/2-x,1/2+y,z
x,-y,1/2+z
loop_
_atom_site_type_symbol
_atom_site_label
_atom_site_fract_x
_atom_site_fract_y
_atom_site_fract_z
Si Si1 0.609092 0.487360 0.378034
Si Si2 0.966860 0.304602 0.555451
Si Si3 0.041400 0.500886 0.680184
Si Si4 0.202076 0.934210 0.497273
O O1 0.534829 0.420890 0.429973
O O2 0.609858 0.221900 0.336847
O O3 0.684155 0.567198 0.425047
O O4 0.581868 0.720512 0.332035
O O5 0.878231 0.183477 0.538466
O O6 0.000000 0.500000 0.500000
O O7 0.971456 0.457965 0.624005
O O8 0.000000 0.470788 0.750000
O O9 0.276352 0.732091 0.481875
#
# Coordination Sequence:
#
# PCOD9455838 Si02
#       4
#     8   8   8   8
#     4  10  21  37  59  83 121 147 202 243 293 344
#     4  10  21  38  62  87 118 151 202 252 294 350
#     4  10  21  35  63  88 111 151 205 250 292 345
#     4  12  23  34  57  91 122 151 188 243 306 351
#
# _framework density 18.91178
#
# number of rings (size 3 to 8) (size 9 to 14) (size 15 to 20)
#    1.500    0.000    2.500    4.500    3.500    0.000 
#    0.000    0.000    0.000    9.000    0.000    0.000 
#    0.000    0.000    0.000    0.000    0.000    0.000 
#
# Total GULP energy -178229.978239 kJ/mol
# GULP energy per Si atom -5569.686820 kJ/mol
# Density = 1.886874 g / cm^3
# Si number density = 18.911780 Si / 1000 Ang^3
#
#
#
# Elastic Constant Matrix: (Units=GPa)
#
#
# Indices 1 2 3 4 5 6 
#
# 1 30.8038 15.4991 4.3394 0.0000 0.0000 0.0000
# 2 15.4991 116.8121 21.7351 0.0000 0.0000 0.0000
# 3 4.3394 21.7351 103.1815 0.0000 0.0000 0.0000
# 4 0.0000 0.0000 0.0000 19.7015 0.0000 0.0000
# 5 0.0000 0.0000 0.0000 0.0000 22.6632 0.0000
# 6 0.0000 0.0000 0.0000 0.0000 0.0000 30.1708
#
#
#
# Elastic Compliance Matrix: (Units=1/GPa)
#
#
# Indices 1 2 3 4 5 6 
#
# 1 0.034812 -0.004524 -0.000511 0.000000 0.000000 0.000000
# 2 -0.004524 0.009498 -0.001810 0.000000 0.000000 0.000000
# 3 -0.000511 -0.001810 0.010095 0.000000 0.000000 0.000000
# 4 0.000000 0.000000 0.000000 0.050758 0.000000 0.000000
# 5 0.000000 0.000000 0.000000 0.000000 0.044124 0.000000
# 6 0.000000 0.000000 0.000000 0.000000 0.000000 0.033145
#
#
# Mechanical properties :
#
#
# Convention : Reuss Voigt Hill
#
# Bulk Modulus (GPa) = 24.56203 37.10499 30.83351
# Shear Modulus (GPa) = 23.84441 28.45534 26.14987
#
# Velocity S-wave (km/s) = 3.55466 3.88317 3.72254
# Velocity P-wave (km/s) = 5.46474 6.30619 5.90048
#
# Compressibility (1/GPa) = 0.04071325
#
# Stress axis : x y z
#
# Youngs Moduli (GPa) = 28.72596 105.28675 99.06360
#
# Poissons Ratio (x) = 0.47630 0.05063
# Poissons Ratio (y) = 0.12995 0.17935
# Poissons Ratio (z) = 0.01468 0.19062
#
# Static dielectric constant tensor:
#      x y z
#    x 1.688610 0.000000 0.000000 
#    y 0.000000 1.688110 0.000000 
#    z 0.000000 0.000000 1.639090 
# 
# From -- ./inp_files/17147.got.cif
#   From: 2010.05.17/outbox.cif.g08.bks.cpg/sg60_9_cif.got.tgz:17147.got - 2010.06.03 14:59:27.
