data_PCOD9455544
_publ_section_title
;
Structure prediction by ZEFSAII (Michael W. Deem and Ramdas Pophale) SiO2 
 PCOD9455544
Probable space group: P B C N
;
_chemical_formula_sum "Si O2"
_cell_formula_units_Z 52
_cell_length_a 12.702218
_cell_length_b 23.999759
_cell_length_c 7.330710
_cell_angle_alpha 90.000000
_cell_angle_beta 90.000000
_cell_angle_gamma 90.000000
_cell_volume 2234.768195
_symmetry_space_group_name_H-M "P B C N"
_symmetry_group_IT_number 60
_symmetry_cell_setting 'orthorhombic'
loop_
_space_group_symop_operation_xyz
x,y,z
1/2-x,1/2-y,1/2+z
1/2+x,1/2-y,-z
-x,y,1/2-z
-x,-y,-z
1/2+x,1/2+y,1/2-z
1/2-x,1/2+y,z
x,-y,1/2+z
loop_
_atom_site_type_symbol
_atom_site_label
_atom_site_fract_x
_atom_site_fract_y
_atom_site_fract_z
Si Si1 0.000000 0.582775 0.750000
Si Si2 0.746685 0.685643 0.208347
Si Si3 0.604631 0.737655 0.475177
Si Si4 0.704179 0.433049 0.794617
Si Si5 0.055675 0.328914 0.559223
Si Si6 0.401587 0.615255 0.871270
Si Si7 0.717587 0.953765 0.166632
O O1 0.893555 0.547036 0.767341
O O2 0.973077 0.624017 0.584432
O O3 0.644223 0.717431 0.279051
O O4 0.808754 0.719767 0.057502
O O5 0.722694 0.621023 0.171274
O O6 0.823682 0.681577 0.386729
O O7 0.498385 0.772232 0.491800
O O8 0.596770 0.680968 0.591426
O O9 0.607835 0.416498 0.931473
O O10 0.794227 0.442163 0.950119
O O11 0.712765 0.490317 0.686712
O O12 0.000000 0.343934 0.750000
O O13 0.500000 0.598510 0.750000
O O14 0.293455 0.596747 0.773560
#
# Coordination Sequence:
#
# PCOD9455544 Si02
#       7
#     4   8   8   8   8   8   8
#     4  12  22  42  64  94 130 170 216 260 312 396
#     4  10  20  40  55  89 123 156 205 254 314 383
#     4  10  21  35  64  86 121 167 194 264 320 376
#     4   9  21  40  56  87 123 156 208 261 309 372
#     4  10  22  38  60  93 125 166 206 253 323 376
#     4   9  19  40  62  86 121 158 212 258 318 381
#     4  10  23  40  60  90 119 166 212 257 317 368
#
# _framework density 23.268632
#
# number of rings (size 3 to 8) (size 9 to 14) (size 15 to 20)
#    0.923    1.231    1.538    1.385    4.308    3.692 
#    4.154    0.000    0.000    0.000    0.000    0.000 
#    0.000    0.000    0.000    0.000    0.000    0.000 
#
# Total GULP energy -290105.957210 kJ/mol
# GULP energy per Si atom -5578.960716 kJ/mol
# Density = 2.321567 g / cm^3
# Si number density = 23.268632 Si / 1000 Ang^3
#
#
#
# Elastic Constant Matrix: (Units=GPa)
#
#
# Indices 1 2 3 4 5 6 
#
# 1 46.0729 10.3690 10.2959 0.0000 0.0000 0.0000
# 2 10.3690 145.4387 33.1722 0.0000 0.0000 0.0000
# 3 10.2959 33.1722 60.7859 0.0000 0.0000 0.0000
# 4 0.0000 0.0000 0.0000 50.6222 0.0000 0.0000
# 5 0.0000 0.0000 0.0000 0.0000 21.9010 0.0000
# 6 0.0000 0.0000 0.0000 0.0000 0.0000 22.3986
#
#
#
# Elastic Compliance Matrix: (Units=1/GPa)
#
#
# Indices 1 2 3 4 5 6 
#
# 1 0.022649 -0.000845 -0.003375 0.000000 0.000000 0.000000
# 2 -0.000845 0.007885 -0.004160 0.000000 0.000000 0.000000
# 3 -0.003375 -0.004160 0.019293 0.000000 0.000000 0.000000
# 4 0.000000 0.000000 0.000000 0.019754 0.000000 0.000000
# 5 0.000000 0.000000 0.000000 0.000000 0.045660 0.000000
# 6 0.000000 0.000000 0.000000 0.000000 0.000000 0.044646
#
#
# Mechanical properties :
#
#
# Convention : Reuss Voigt Hill
#
# Bulk Modulus (GPa) = 30.24158 39.99684 35.11921
# Shear Modulus (GPa) = 26.64266 32.21506 29.42886
#
# Velocity S-wave (km/s) = 3.38746 3.72490 3.56018
# Velocity P-wave (km/s) = 5.32210 5.97715 5.65911
#
# Compressibility (1/GPa) = 0.03306706
#
# Stress axis : x y z
#
# Youngs Moduli (GPa) = 44.15175 126.82687 51.83240
#
# Poissons Ratio (x) = 0.10716 0.17495
# Poissons Ratio (y) = 0.03730 0.21561
# Poissons Ratio (z) = 0.14902 0.52757
#
# Static dielectric constant tensor:
#      x y z
#    x 2.159010 0.000000 0.000000 
#    y 0.000000 1.876160 0.000000 
#    z 0.000000 0.000000 1.905460 
# 
# From -- ./inp_files/6091.got.cif
#   From: 2010.05.17/outbox.cif.g08.bks.cpg/sg60_4_cif.got.tgz:6091.got - 2010.06.03 14:59:27.
