data_PCOD9455818
_publ_section_title
;
Structure prediction by ZEFSAII (Michael W. Deem and Ramdas Pophale) SiO2 
 PCOD9455818
Probable space group: P B C N
;
_chemical_formula_sum "Si O2"
_cell_formula_units_Z 60
_cell_length_a 25.265661
_cell_length_b 12.441988
_cell_length_c 8.820505
_cell_angle_alpha 90.000000
_cell_angle_beta 90.000000
_cell_angle_gamma 90.000000
_cell_volume 2772.770299
_symmetry_space_group_name_H-M "P B C N"
_symmetry_group_IT_number 60
_symmetry_cell_setting 'orthorhombic'
loop_
_space_group_symop_operation_xyz
x,y,z
1/2-x,1/2-y,1/2+z
1/2+x,1/2-y,-z
-x,y,1/2-z
-x,-y,-z
1/2+x,1/2+y,1/2-z
1/2-x,1/2+y,z
x,-y,1/2+z
loop_
_atom_site_type_symbol
_atom_site_label
_atom_site_fract_x
_atom_site_fract_y
_atom_site_fract_z
Si Si1 0.500000 0.531411 0.250000
Si Si2 0.926344 0.923931 0.494125
Si Si3 0.739416 0.470821 0.094197
Si Si4 0.755455 0.150654 0.894263
Si Si5 0.636148 0.355380 0.017661
Si Si6 0.129854 0.343690 0.146659
Si Si7 0.635101 0.049699 0.533369
Si Si8 0.358554 0.244140 0.161797
O O1 0.464375 0.599278 0.365053
O O2 0.463080 0.455384 0.147726
O O3 0.886833 0.830252 0.447335
O O4 0.894824 0.033270 0.531475
O O5 0.731154 0.440585 0.268815
O O6 0.697457 0.393614 0.009833
O O7 0.800920 0.454692 0.053019
O O8 0.730947 0.595331 0.053680
O O9 0.693788 0.169529 0.870888
O O10 0.795393 0.246160 0.862465
O O11 0.630894 0.283447 0.168811
O O12 0.613033 0.278375 0.887000
O O13 0.116553 0.395078 0.309849
O O14 0.115773 0.431884 0.017296
O O15 0.623896 0.127565 0.391346
#
# Coordination Sequence:
#
# PCOD9455818 Si02
#       8
#     4   8   8   8   8   8   8   8
#     4  10  24  42  60  86 122 138 176 238 310 366
#     4  11  22  40  62  90 116 146 180 234 302 355
#     4   9  18  31  48  76 114 154 194 236 273 317
#     4   9  18  31  48  76 114 154 194 236 273 317
#     4  11  21  34  56  84 113 149 195 234 279 342
#     4  10  21  35  52  77 116 160 198 235 272 315
#     4  10  21  35  52  77 116 160 198 235 272 315
#     4  11  21  34  56  84 113 149 195 234 279 342
#
# _framework density 21.639009000000001
#
# number of rings (size 3 to 8) (size 9 to 14) (size 15 to 20)
#    0.000    1.867    2.667    1.600    1.867    2.133 
#    0.000    0.000    0.000    0.000    0.000    5.600 
#    0.000    0.000    0.000    0.000    0.000    0.000 
#
# Total GULP energy -334914.023423 kJ/mol
# GULP energy per Si atom -5581.900390 kJ/mol
# Density = 2.158976 g / cm^3
# Si number density = 21.639009 Si / 1000 Ang^3
#
#
#
# Elastic Constant Matrix: (Units=GPa)
#
#
# Indices 1 2 3 4 5 6 
#
# 1 20.5803 -10.4977 5.3035 0.0000 0.0000 0.0000
# 2 -10.4977 50.3314 -7.0494 0.0000 0.0000 0.0000
# 3 5.3035 -7.0494 43.4211 0.0000 0.0000 0.0000
# 4 0.0000 0.0000 0.0000 29.7906 0.0000 0.0000
# 5 0.0000 0.0000 0.0000 0.0000 28.4393 0.0000
# 6 0.0000 0.0000 0.0000 0.0000 0.0000 5.7465
#
#
#
# Elastic Compliance Matrix: (Units=1/GPa)
#
#
# Indices 1 2 3 4 5 6 
#
# 1 0.055419 0.010858 -0.005006 0.000000 0.000000 0.000000
# 2 0.010858 0.022458 0.002320 0.000000 0.000000 0.000000
# 3 -0.005006 0.002320 0.024018 0.000000 0.000000 0.000000
# 4 0.000000 0.000000 0.000000 0.033568 0.000000 0.000000
# 5 0.000000 0.000000 0.000000 0.000000 0.035163 0.000000
# 6 0.000000 0.000000 0.000000 0.000000 0.000000 0.174019
#
#
# Mechanical properties :
#
#
# Convention : Reuss Voigt Hill
#
# Bulk Modulus (GPa) = 8.45756 9.98283 9.22019
# Shear Modulus (GPa) = 13.59755 21.23370 17.41563
#
# Velocity S-wave (km/s) = 2.50947 3.13592 2.84002
# Velocity P-wave (km/s) = 3.50907 4.21134 3.87614
#
# Compressibility (1/GPa) = 0.11823743
#
# Stress axis : x y z
#
# Youngs Moduli (GPa) = 18.04452 44.52789 41.63485
#
# Poissons Ratio (x) = -0.48347 0.20843
# Poissons Ratio (y) = -0.19592 -0.09659
# Poissons Ratio (z) = 0.09033 -0.10330
#
# Static dielectric constant tensor:
#      x y z
#    x 1.777880 0.000000 0.000000 
#    y 0.000000 1.800860 0.000000 
#    z 0.000000 0.000000 1.834380 
# 
# From -- ./inp_files/8168.got.cif
#   From: 2010.05.17/outbox.cif.g08.bks.cpg/sg60_5_cif.got.tgz:8168.got - 2010.06.03 14:59:27.
