data_PCOD9455776
_publ_section_title
;
Structure prediction by ZEFSAII (Michael W. Deem and Ramdas Pophale) SiO2 
 PCOD9455776
Probable space group: P B C N
;
_chemical_formula_sum "Si O2"
_cell_formula_units_Z 48
_cell_length_a 21.592782
_cell_length_b 19.634013
_cell_length_c 5.492991
_cell_angle_alpha 90.000000
_cell_angle_beta 90.000000
_cell_angle_gamma 90.000000
_cell_volume 2328.769807
_symmetry_space_group_name_H-M "P B C N"
_symmetry_group_IT_number 60
_symmetry_cell_setting 'orthorhombic'
loop_
_space_group_symop_operation_xyz
x,y,z
1/2-x,1/2-y,1/2+z
1/2+x,1/2-y,-z
-x,y,1/2-z
-x,-y,-z
1/2+x,1/2+y,1/2-z
1/2-x,1/2+y,z
x,-y,1/2+z
loop_
_atom_site_type_symbol
_atom_site_label
_atom_site_fract_x
_atom_site_fract_y
_atom_site_fract_z
Si Si1 0.222124 0.666597 0.499999
Si Si2 0.223426 0.014157 0.499999
Si Si3 0.831743 0.723016 0.500001
Si Si4 0.856133 0.460696 0.000001
Si Si5 0.025791 0.765634 1.000000
Si Si6 0.475937 0.890671 0.500000
O O1 0.245467 0.588737 0.499999
O O2 0.281926 0.715129 0.499999
O O3 0.183856 0.683617 0.254006
O O4 0.183856 0.683617 0.745993
O O5 0.188600 0.000000 0.249999
O O6 0.281535 0.960755 0.499999
O O7 0.900270 0.755606 0.500000
O O8 0.871354 0.500000 0.750001
O O9 0.901946 0.396814 0.000000
O O10 0.000000 0.797052 0.750000
O O11 0.000892 0.687191 0.000000
O O12 0.000000 0.797052 0.250000
O O13 0.500000 0.921806 0.750000
O O14 0.500000 0.921806 0.250000
#
# Coordination Sequence:
#
# PCOD9455776 Si02
#       6
#     8   8   8   8   8   8
#     4  10  21  36  57  83 105 140 185 224 285 320
#     4  10  21  34  50  76 102 136 173 218 265 330
#     4  10  21  36  59  79 107 141 178 239 269 335
#     4  10  21  30  43  60  82 128 163 206 250 277
#     4  10  21  35  52  76 103 139 178 227 270 311
#     4  10  21  33  43  60  89 128 173 214 239 277
#
# _framework density 20.611740000000001
#
# number of rings (size 3 to 8) (size 9 to 14) (size 15 to 20)
#    0.000    2.000    0.000    3.000    9.333    2.000 
#    0.000    0.000    0.000    0.000    0.000    0.000 
#    0.000    4.000    0.000    0.000    0.000    0.000 
#
# Total GULP energy -267699.372644 kJ/mol
# GULP energy per Si atom -5577.070263 kJ/mol
# Density = 2.056483 g / cm^3
# Si number density = 20.611740 Si / 1000 Ang^3
#
#
#
# Elastic Constant Matrix: (Units=GPa)
#
#
# Indices 1 2 3 4 5 6 
#
# 1 64.4191 6.8546 52.8776 0.0000 0.0000 0.0000
# 2 6.8546 35.6378 32.5211 0.0000 0.0000 0.0000
# 3 52.8776 32.5211 257.5224 0.0000 0.0000 0.0000
# 4 0.0000 0.0000 0.0000 22.2407 0.0000 0.0000
# 5 0.0000 0.0000 0.0000 0.0000 -2.7088 0.0000
# 6 0.0000 0.0000 0.0000 0.0000 0.0000 18.3435
#
#
#
# Elastic Compliance Matrix: (Units=1/GPa)
#
#
# Indices 1 2 3 4 5 6 
#
# 1 0.018670 -0.000105 -0.003820 0.000000 0.000000 0.000000
# 2 -0.000105 0.031716 -0.003984 0.000000 0.000000 0.000000
# 3 -0.003820 -0.003984 0.005171 0.000000 0.000000 0.000000
# 4 0.000000 0.000000 0.000000 0.044963 0.000000 0.000000
# 5 0.000000 0.000000 0.000000 0.000000 -0.369171 0.000000
# 6 0.000000 0.000000 0.000000 0.000000 0.000000 0.054515
#
#
# Mechanical properties :
#
#
# Convention : Reuss Voigt Hill
#
# Bulk Modulus (GPa) = 25.16425 60.23176 42.69801
# Shear Modulus (GPa) = -27.01647 25.26349 -0.87649
#
# Velocity S-wave (km/s) = -3.62433 3.50478 -0.65281
# Velocity P-wave (km/s) = 2.29764 6.75747 4.49357
#
# Compressibility (1/GPa) = 0.03973891
#
# Stress axis : x y z
#
# Youngs Moduli (GPa) = 53.56068 31.53030 193.39808
#
# Poissons Ratio (x) = 0.00330 0.73886
# Poissons Ratio (y) = 0.00561 0.77043
# Poissons Ratio (z) = 0.20462 0.12561
#
# Static dielectric constant tensor:
#      x y z
#    x 1.710480 0.000000 0.000000 
#    y 0.000000 1.774270 0.000000 
#    z 0.000000 0.000000 1.836500 
# 
# From -- ./inp_files/2065.got.cif
#   From: 2010.05.17/outbox.cif.g08.bks.cpg/sg60_2_cif.got.tgz:2065.got - 2010.06.03 14:59:27.
