data_PCOD9455965
_publ_section_title
;
Structure prediction by ZEFSAII (Michael W. Deem and Ramdas Pophale) SiO2 
 PCOD9455965
Probable space group: P B C N
;
_chemical_formula_sum "Si O2"
_cell_formula_units_Z 32
_cell_length_a 4.979203
_cell_length_b 17.446525
_cell_length_c 15.957058
_cell_angle_alpha 90.000000
_cell_angle_beta 90.000000
_cell_angle_gamma 90.000000
_cell_volume 1386.186271
_symmetry_space_group_name_H-M "P B C N"
_symmetry_group_IT_number 60
_symmetry_cell_setting 'orthorhombic'
loop_
_space_group_symop_operation_xyz
x,y,z
1/2-x,1/2-y,1/2+z
1/2+x,1/2-y,-z
-x,y,1/2-z
-x,-y,-z
1/2+x,1/2+y,1/2-z
1/2-x,1/2+y,z
x,-y,1/2+z
loop_
_atom_site_type_symbol
_atom_site_label
_atom_site_fract_x
_atom_site_fract_y
_atom_site_fract_z
Si Si1 0.343264 0.005101 0.088028
Si Si2 0.352439 0.566435 0.834539
Si Si3 0.174756 0.319643 0.585784
Si Si4 0.174918 0.726170 0.889268
O O1 0.259853 0.092598 0.103321
O O2 0.079140 0.952099 0.094937
O O3 0.576121 0.977812 0.150634
O O4 0.500000 0.000000 0.000000
O O5 0.500000 0.543488 0.750000
O O6 0.272035 0.655490 0.834369
O O7 0.381226 0.259451 0.625740
O O8 0.184417 0.305904 0.485150
O O9 0.879287 0.296692 0.614904
#
# Coordination Sequence:
#
# PCOD9455965 Si02
#       4
#     8   8   8   8
#     4  12  24  42  71 103 135 181 234 291 340 407
#     4  12  26  44  67 101 143 186 226 282 357 420
#     4  10  21  37  65  99 128 163 230 285 330 384
#     4  10  21  38  63  97 131 169 220 285 333 405
#
# _framework density 23.084921999999999
#
# number of rings (size 3 to 8) (size 9 to 14) (size 15 to 20)
#    0.000    1.000    2.500    4.500    7.000    0.000 
#    0.000    5.000    0.000    0.000    0.000    0.000 
#    0.000    0.000    0.000    0.000    0.000    0.000 
#
# Total GULP energy -179159.647324 kJ/mol
# GULP energy per Si atom -5598.738979 kJ/mol
# Density = 2.303238 g / cm^3
# Si number density = 23.084922 Si / 1000 Ang^3
#
#
#
# Elastic Constant Matrix: (Units=GPa)
#
#
# Indices 1 2 3 4 5 6 
#
# 1 107.7277 12.8964 9.7234 0.0000 0.0000 0.0000
# 2 12.8964 101.2534 4.7170 0.0000 0.0000 0.0000
# 3 9.7234 4.7170 28.9681 0.0000 0.0000 0.0000
# 4 0.0000 0.0000 0.0000 4.6538 0.0000 0.0000
# 5 0.0000 0.0000 0.0000 0.0000 28.0877 0.0000
# 6 0.0000 0.0000 0.0000 0.0000 0.0000 47.4780
#
#
#
# Elastic Compliance Matrix: (Units=1/GPa)
#
#
# Indices 1 2 3 4 5 6 
#
# 1 0.009691 -0.001091 -0.003075 0.000000 0.000000 0.000000
# 2 -0.001091 0.010075 -0.001274 0.000000 0.000000 0.000000
# 3 -0.003075 -0.001274 0.035760 0.000000 0.000000 0.000000
# 4 0.000000 0.000000 0.000000 0.214876 0.000000 0.000000
# 5 0.000000 0.000000 0.000000 0.000000 0.035603 0.000000
# 6 0.000000 0.000000 0.000000 0.000000 0.000000 0.021062
#
#
# Mechanical properties :
#
#
# Convention : Reuss Voigt Hill
#
# Bulk Modulus (GPa) = 22.39898 32.51366 27.45632
# Shear Modulus (GPa) = 14.17114 30.08472 22.12793
#
# Velocity S-wave (km/s) = 2.48033 3.61393 3.09940
# Velocity P-wave (km/s) = 4.23399 5.61506 4.97270
#
# Compressibility (1/GPa) = 0.04464488
#
# Stress axis : x y z
#
# Youngs Moduli (GPa) = 103.19029 99.26016 27.96385
#
# Poissons Ratio (x) = 0.10830 0.08599
# Poissons Ratio (y) = 0.11258 0.03563
# Poissons Ratio (z) = 0.31733 0.12648
#
# Static dielectric constant tensor:
#      x y z
#    x 1.809550 0.000000 0.000000 
#    y 0.000000 1.719680 0.000000 
#    z 0.000000 0.000000 1.929630 
# 
# From -- ./inp_files/18412.got.cif
#   From: 2010.05.17/outbox.cif.g08.bks.cpg/sg60_10_cif.got.tgz:18412.got - 2010.06.03 14:59:27.
