data_PCOD9455881
_publ_section_title
;
Structure prediction by ZEFSAII (Michael W. Deem and Ramdas Pophale) SiO2 
 PCOD9455881
Probable space group: P B C N
;
_chemical_formula_sum "Si O2"
_cell_formula_units_Z 56
_cell_length_a 13.907125
_cell_length_b 14.458274
_cell_length_c 13.534901
_cell_angle_alpha 90.000000
_cell_angle_beta 90.000000
_cell_angle_gamma 90.000000
_cell_volume 2721.503471
_symmetry_space_group_name_H-M "P B C N"
_symmetry_group_IT_number 60
_symmetry_cell_setting 'orthorhombic'
loop_
_space_group_symop_operation_xyz
x,y,z
1/2-x,1/2-y,1/2+z
1/2+x,1/2-y,-z
-x,y,1/2-z
-x,-y,-z
1/2+x,1/2+y,1/2-z
1/2-x,1/2+y,z
x,-y,1/2+z
loop_
_atom_site_type_symbol
_atom_site_label
_atom_site_fract_x
_atom_site_fract_y
_atom_site_fract_z
Si Si1 0.690829 0.905069 0.040293
Si Si2 0.016505 0.897559 0.866949
Si Si3 0.315982 0.513726 0.124826
Si Si4 0.602022 0.674547 0.795348
Si Si5 0.778036 0.948374 0.661508
Si Si6 0.820053 0.734982 0.095583
Si Si7 0.471093 0.224309 0.010831
O O1 0.757170 0.813729 0.043634
O O2 0.711435 0.964303 0.138055
O O3 0.735427 0.971040 0.956513
O O4 0.584209 0.867571 0.023537
O O5 0.111239 0.962027 0.872328
O O6 0.000000 0.878306 0.750000
O O7 0.919977 0.945834 0.906251
O O8 0.036551 0.804992 0.928792
O O9 0.336809 0.410088 0.161586
O O10 0.282656 0.568484 0.222062
O O11 0.500000 0.638917 0.750000
O O12 0.652069 0.726359 0.704302
O O13 0.577513 0.740778 0.887114
O O14 0.739150 0.858077 0.608474
O O15 0.917066 0.713831 0.036207
#
# Coordination Sequence:
#
# PCOD9455881 Si02
#       7
#     8   8   8   8   8   8   8
#     4  12  24  40  64  97 128 172 221 266 331 395
#     4  10  21  36  61  94 128 157 211 277 323 366
#     4  11  22  37  64  97 127 161 218 278 333 379
#     4  10  21  39  66  95 127 166 213 274 342 386
#     4  11  23  41  62  91 131 167 215 269 320 397
#     4  11  23  42  65  91 131 175 214 271 333 393
#     4  11  23  41  62  95 131 172 213 266 327 404
#
# _framework density 20.576861000000001
#
# number of rings (size 3 to 8) (size 9 to 14) (size 15 to 20)
#    0.000    1.143    4.286    3.000    2.000    1.714 
#    0.000    1.429    0.000    2.571    0.000    0.000 
#    0.000    0.000    0.000    0.000    0.000    0.000 
#
# Total GULP energy -313053.762195 kJ/mol
# GULP energy per Si atom -5590.245753 kJ/mol
# Density = 2.053003 g / cm^3
# Si number density = 20.576861 Si / 1000 Ang^3
#
#
#
# Elastic Constant Matrix: (Units=GPa)
#
#
# Indices 1 2 3 4 5 6 
#
# 1 61.8175 31.2352 14.8294 0.0000 0.0000 0.0000
# 2 31.2352 69.7814 3.8131 0.0000 0.0000 0.0000
# 3 14.8294 3.8131 55.5856 0.0000 0.0000 0.0000
# 4 0.0000 0.0000 0.0000 18.4857 0.0000 0.0000
# 5 0.0000 0.0000 0.0000 0.0000 25.3993 0.0000
# 6 0.0000 0.0000 0.0000 0.0000 0.0000 32.8707
#
#
#
# Elastic Compliance Matrix: (Units=1/GPa)
#
#
# Indices 1 2 3 4 5 6 
#
# 1 0.022358 -0.009718 -0.005298 0.000000 0.000000 0.000000
# 2 -0.009718 0.018609 0.001316 0.000000 0.000000 0.000000
# 3 -0.005298 0.001316 0.019313 0.000000 0.000000 0.000000
# 4 0.000000 0.000000 0.000000 0.054096 0.000000 0.000000
# 5 0.000000 0.000000 0.000000 0.000000 0.039371 0.000000
# 6 0.000000 0.000000 0.000000 0.000000 0.000000 0.030422
#
#
# Mechanical properties :
#
#
# Convention : Reuss Voigt Hill
#
# Bulk Modulus (GPa) = 30.41399 31.88220 31.14810
# Shear Modulus (GPa) = 22.46887 24.50490 23.48689
#
# Velocity S-wave (km/s) = 3.30805 3.45468 3.38216
# Velocity P-wave (km/s) = 5.42252 5.60722 5.51564
#
# Compressibility (1/GPa) = 0.03287961
#
# Stress axis : x y z
#
# Youngs Moduli (GPa) = 44.72645 53.73851 51.77738
#
# Poissons Ratio (x) = 0.52225 0.27432
# Poissons Ratio (y) = 0.43467 -0.06815
# Poissons Ratio (z) = 0.23697 -0.07073
#
# Static dielectric constant tensor:
#      x y z
#    x 1.731650 0.000000 0.000000 
#    y 0.000000 1.714520 0.000000 
#    z 0.000000 0.000000 1.753090 
# 
# From -- ./inp_files/11959.got.cif
#   From: 2010.05.17/outbox.cif.g08.bks.cpg/sg60_6_cif.got.tgz:11959.got - 2010.06.03 14:59:27.
