data_PCOD9455629
_publ_section_title
;
Structure prediction by ZEFSAII (Michael W. Deem and Ramdas Pophale) SiO2 
 PCOD9455629
Probable space group: P B C N
;
_chemical_formula_sum "Si O2"
_cell_formula_units_Z 28
_cell_length_a 9.950986
_cell_length_b 13.744648
_cell_length_c 8.746136
_cell_angle_alpha 90.000000
_cell_angle_beta 90.000000
_cell_angle_gamma 90.000000
_cell_volume 1196.233508
_symmetry_space_group_name_H-M "P B C N"
_symmetry_group_IT_number 60
_symmetry_cell_setting 'orthorhombic'
loop_
_space_group_symop_operation_xyz
x,y,z
1/2-x,1/2-y,1/2+z
1/2+x,1/2-y,-z
-x,y,1/2-z
-x,-y,-z
1/2+x,1/2+y,1/2-z
1/2-x,1/2+y,z
x,-y,1/2+z
loop_
_atom_site_type_symbol
_atom_site_label
_atom_site_fract_x
_atom_site_fract_y
_atom_site_fract_z
Si Si1 0.365331 0.680797 0.149266
Si Si2 0.689110 0.471121 0.489969
Si Si3 0.874955 0.321264 0.636044
Si Si4 0.500000 0.447950 0.250000
O O1 0.500000 0.679438 0.250000
O O2 0.249292 0.716920 0.262435
O O3 0.305742 0.577243 0.087793
O O4 0.395583 0.745748 0.001268
O O5 0.821556 0.420249 0.553599
O O6 0.608911 0.403515 0.367140
O O7 0.591731 0.491736 0.632538
O O8 0.000000 0.334482 0.750000
#
# Coordination Sequence:
#
# PCOD9455629 Si02
#       4
#     8   8   8   4
#     4  12  26  51  78 108 146 211 262 304 375 471
#     4  11  22  45  73 108 146 195 261 304 374 450
#     4  12  29  47  73 116 157 194 252 326 395 440
#     4  10  20  40  78 102 134 198 264 298 348 464
#
# _framework density 23.406801999999999
#
# number of rings (size 3 to 8) (size 9 to 14) (size 15 to 20)
#    0.000    0.571    4.286    3.429    6.000    1.143 
#    0.000    2.857    0.000    0.000    0.000    0.000 
#    0.000    0.000    0.000    0.000    0.000    0.000 
#
# Total GULP energy -156301.130114 kJ/mol
# GULP energy per Si atom -5582.183218 kJ/mol
# Density = 2.335353 g / cm^3
# Si number density = 23.406802 Si / 1000 Ang^3
#
#
#
# Elastic Constant Matrix: (Units=GPa)
#
#
# Indices 1 2 3 4 5 6 
#
# 1 156.6578 53.2706 88.0997 0.0000 0.0000 0.0000
# 2 53.2706 118.6564 68.3461 0.0000 0.0000 0.0000
# 3 88.0997 68.3461 211.8040 0.0000 0.0000 0.0000
# 4 0.0000 0.0000 0.0000 30.1967 0.0000 0.0000
# 5 0.0000 0.0000 0.0000 0.0000 67.5835 0.0000
# 6 0.0000 0.0000 0.0000 0.0000 0.0000 17.9538
#
#
#
# Elastic Compliance Matrix: (Units=1/GPa)
#
#
# Indices 1 2 3 4 5 6 
#
# 1 0.008801 -0.002263 -0.002930 0.000000 0.000000 0.000000
# 2 -0.002263 0.010934 -0.002587 0.000000 0.000000 0.000000
# 3 -0.002930 -0.002587 0.006775 0.000000 0.000000 0.000000
# 4 0.000000 0.000000 0.000000 0.033116 0.000000 0.000000
# 5 0.000000 0.000000 0.000000 0.000000 0.014797 0.000000
# 6 0.000000 0.000000 0.000000 0.000000 0.000000 0.055699
#
#
# Mechanical properties :
#
#
# Convention : Reuss Voigt Hill
#
# Bulk Modulus (GPa) = 91.33437 100.72788 96.03113
# Shear Modulus (GPa) = 33.48257 41.64025 37.56141
#
# Velocity S-wave (km/s) = 3.78625 4.22237 4.01024
# Velocity P-wave (km/s) = 7.63016 8.17914 7.90941
#
# Compressibility (1/GPa) = 0.01094878
#
# Stress axis : x y z
#
# Youngs Moduli (GPa) = 113.62440 91.45985 147.60209
#
# Poissons Ratio (x) = 0.20700 0.43254
# Poissons Ratio (y) = 0.25716 0.38181
# Poissons Ratio (z) = 0.33297 0.23659
#
# Static dielectric constant tensor:
#      x y z
#    x 1.921400 0.000000 0.000000 
#    y 0.000000 2.050180 0.000000 
#    z 0.000000 0.000000 1.899520 
# 
# From -- ./inp_files/3477.got.cif
#   From: 2010.05.17/outbox.cif.g08.bks.cpg/sg60_2_cif.got.tgz:3477.got - 2010.06.03 14:59:27.
