data_PCOD9455294
_publ_section_title
;
Structure prediction by ZEFSAII (Michael W. Deem and Ramdas Pophale) SiO2 
 PCOD9455294
Probable space group: P B C N
;
_chemical_formula_sum "Si O2"
_cell_formula_units_Z 48
_cell_length_a 5.358207
_cell_length_b 13.974144
_cell_length_c 25.625998
_cell_angle_alpha 90.000000
_cell_angle_beta 90.000000
_cell_angle_gamma 90.000000
_cell_volume 1918.781354
_symmetry_space_group_name_H-M "P B C N"
_symmetry_group_IT_number 60
_symmetry_cell_setting 'orthorhombic'
loop_
_space_group_symop_operation_xyz
x,y,z
1/2-x,1/2-y,1/2+z
1/2+x,1/2-y,-z
-x,y,1/2-z
-x,-y,-z
1/2+x,1/2+y,1/2-z
1/2-x,1/2+y,z
x,-y,1/2+z
loop_
_atom_site_type_symbol
_atom_site_label
_atom_site_fract_x
_atom_site_fract_y
_atom_site_fract_z
Si Si1 0.177763 0.563170 0.707395
Si Si2 0.870955 0.414902 0.967642
Si Si3 0.242172 0.738225 0.268730
Si Si4 0.629430 0.674183 0.054714
Si Si5 0.314725 0.158811 0.874407
Si Si6 0.454815 0.489007 0.621350
O O1 0.258837 0.661659 0.735300
O O2 0.393125 0.500491 0.682092
O O3 0.000000 0.517226 0.750000
O O4 0.018656 0.598570 0.657458
O O5 0.789494 0.463604 0.912869
O O6 0.079207 0.721778 0.921489
O O7 0.088204 0.335973 0.965050
O O8 0.000000 0.500000 0.000000
O O9 0.500000 0.693079 0.250000
O O10 0.000000 0.684623 0.250000
O O11 0.225149 0.767933 0.329050
O O12 0.625238 0.598942 0.103493
O O13 0.400977 0.632642 0.019385
O O14 0.096375 0.087504 0.892294
#
# Coordination Sequence:
#
# PCOD9455294 Si02
#       6
#     8   8   8   8   8   8
#     4   9  19  34  63  89 131 183 222 273 335 385
#     4  10  23  45  68  94 133 178 214 283 361 400
#     4   9  17  30  55  81 119 175 206 260 326 365
#     4  10  24  39  70  96 133 174 219 281 345 405
#     4  10  20  37  64  94 130 173 231 275 331 408
#     4  10  21  36  71  94 137 175 230 274 344 408
#
# _framework density 25.015879000000002
#
# number of rings (size 3 to 8) (size 9 to 14) (size 15 to 20)
#    1.000    1.667    1.667    1.500    2.333    0.000 
#    0.000    0.000   51.333    1.000    0.000    0.000 
#    0.000    0.000    0.000    0.000    0.000    0.000 
#
# Total GULP energy -267690.667101 kJ/mol
# GULP energy per Si atom -5576.888898 kJ/mol
# Density = 2.495894 g / cm^3
# Si number density = 25.015879 Si / 1000 Ang^3
#
#
#
# Elastic Constant Matrix: (Units=GPa)
#
#
# Indices 1 2 3 4 5 6 
#
# 1 153.0027 32.3726 22.0148 0.0000 0.0000 0.0000
# 2 32.3726 98.9555 43.6038 0.0000 0.0000 0.0000
# 3 22.0148 43.6038 86.8911 0.0000 0.0000 0.0000
# 4 0.0000 0.0000 0.0000 39.4559 0.0000 0.0000
# 5 0.0000 0.0000 0.0000 0.0000 30.5387 0.0000
# 6 0.0000 0.0000 0.0000 0.0000 0.0000 -31.7784
#
#
#
# Elastic Compliance Matrix: (Units=1/GPa)
#
#
# Indices 1 2 3 4 5 6 
#
# 1 0.007066 -0.001955 -0.000809 0.000000 0.000000 0.000000
# 2 -0.001955 0.013515 -0.006287 0.000000 0.000000 0.000000
# 3 -0.000809 -0.006287 0.014869 0.000000 0.000000 0.000000
# 4 0.000000 0.000000 0.000000 0.025345 0.000000 0.000000
# 5 0.000000 0.000000 0.000000 0.000000 0.032745 0.000000
# 6 0.000000 0.000000 0.000000 0.000000 0.000000 -0.031468
#
#
# Mechanical properties :
#
#
# Convention : Reuss Voigt Hill
#
# Bulk Modulus (GPa) = 57.64488 59.42577 58.53532
# Shear Modulus (GPa) = 58.16857 23.70043 40.93450
#
# Velocity S-wave (km/s) = 4.82733 3.08135 4.04956
# Velocity P-wave (km/s) = 7.35963 6.03874 6.73166
#
# Compressibility (1/GPa) = 0.01734759
#
# Stress axis : x y z
#
# Youngs Moduli (GPa) = 141.52465 73.98943 67.25574
#
# Poissons Ratio (x) = 0.14465 0.05442
# Poissons Ratio (y) = 0.27668 0.42284
# Poissons Ratio (z) = 0.11452 0.46517
#
# Static dielectric constant tensor:
#      x y z
#    x 2.114700 0.000000 0.000000 
#    y 0.000000 1.961230 0.000000 
#    z 0.000000 0.000000 1.995210 
# 
# From -- ./inp_files/23630.got.cif
#   From: 2010.05.17/outbox.cif.g08.bks.cpg/sg60_12_cif.got.tgz:23630.got - 2010.06.03 14:59:27.
