data_PCOD9455266
_publ_section_title
;
Structure prediction by ZEFSAII (Michael W. Deem and Ramdas Pophale) SiO2 
 PCOD9455266
Probable space group: P B C N
;
_chemical_formula_sum "Si O2"
_cell_formula_units_Z 64
_cell_length_a 12.703568
_cell_length_b 16.442440
_cell_length_c 15.783900
_cell_angle_alpha 90.000000
_cell_angle_beta 90.000000
_cell_angle_gamma 90.000000
_cell_volume 3296.904013
_symmetry_space_group_name_H-M "P B C N"
_symmetry_group_IT_number 60
_symmetry_cell_setting 'orthorhombic'
loop_
_space_group_symop_operation_xyz
x,y,z
1/2-x,1/2-y,1/2+z
1/2+x,1/2-y,-z
-x,y,1/2-z
-x,-y,-z
1/2+x,1/2+y,1/2-z
1/2-x,1/2+y,z
x,-y,1/2+z
loop_
_atom_site_type_symbol
_atom_site_label
_atom_site_fract_x
_atom_site_fract_y
_atom_site_fract_z
Si Si1 0.614344 0.417508 0.762860
Si Si2 0.239230 0.090329 0.974814
Si Si3 0.396604 0.774421 0.521768
Si Si4 0.310809 0.002001 0.145714
Si Si5 0.746200 0.924973 0.610376
Si Si6 0.071076 0.187259 0.071822
Si Si7 0.991724 0.385613 0.659277
Si Si8 0.774356 0.663981 0.929825
O O1 0.500000 0.458802 0.750000
O O2 0.711506 0.469819 0.798913
O O3 0.665797 0.390112 0.674148
O O4 0.587853 0.349996 0.834663
O O5 0.232569 0.021669 0.903269
O O6 0.318383 0.167052 0.967657
O O7 0.127575 0.125389 0.006131
O O8 0.287104 0.041591 0.054395
O O9 0.458043 0.712766 0.461658
O O10 0.470994 0.830759 0.580184
O O11 0.326888 0.720255 0.585879
O O12 0.304875 0.905788 0.135688
O O13 0.423899 0.040301 0.168293
O O14 0.627483 0.913852 0.644490
O O15 0.746067 0.879289 0.520203
O O16 0.132961 0.271674 0.065944
O O17 0.000000 0.341067 0.750000
#
# Coordination Sequence:
#
# PCOD9455266 Si02
#       8
#     8   8   8   8   8   8   8   8
#     4  11  23  40  59  82 121 161 202 250 306 363
#     4   8  20  35  59  89 113 150 208 245 283 367
#     4  10  20  37  61  91 122 162 197 246 309 371
#     4   9  20  38  58  84 115 154 197 248 294 354
#     4  11  21  38  64  90 114 162 211 255 299 357
#     4  10  20  39  59  87 123 159 193 245 307 365
#     4  11  21  37  64  89 123 158 207 257 307 353
#     4  10  21  37  61  88 119 153 201 245 302 367
#
# _framework density 19.412151999999999
#
# number of rings (size 3 to 8) (size 9 to 14) (size 15 to 20)
#    0.000    2.000    2.500    1.500    1.750    2.500 
#    0.000   10.000    0.000    0.000    0.000    0.000 
#    0.000    0.000    0.000    0.000    0.000    0.000 
#
# Total GULP energy -356421.194994 kJ/mol
# GULP energy per Si atom -5569.081172 kJ/mol
# Density = 1.936797 g / cm^3
# Si number density = 19.412152 Si / 1000 Ang^3
#
#
#
# Elastic Constant Matrix: (Units=GPa)
#
#
# Indices 1 2 3 4 5 6 
#
# 1 116.2367 33.4633 28.1221 0.0000 0.0000 0.0000
# 2 33.4633 71.3479 15.5432 0.0000 0.0000 0.0000
# 3 28.1221 15.5432 71.3102 0.0000 0.0000 0.0000
# 4 0.0000 0.0000 0.0000 19.7689 0.0000 0.0000
# 5 0.0000 0.0000 0.0000 0.0000 24.9676 0.0000
# 6 0.0000 0.0000 0.0000 0.0000 0.0000 2.2240
#
#
#
# Elastic Compliance Matrix: (Units=1/GPa)
#
#
# Indices 1 2 3 4 5 6 
#
# 1 0.010621 -0.004272 -0.003257 0.000000 0.000000 0.000000
# 2 -0.004272 0.016433 -0.001897 0.000000 0.000000 0.000000
# 3 -0.003257 -0.001897 0.015721 0.000000 0.000000 0.000000
# 4 0.000000 0.000000 0.000000 0.050584 0.000000 0.000000
# 5 0.000000 0.000000 0.000000 0.000000 0.040052 0.000000
# 6 0.000000 0.000000 0.000000 0.000000 0.000000 0.449636
#
#
# Mechanical properties :
#
#
# Convention : Reuss Voigt Hill
#
# Bulk Modulus (GPa) = 41.80191 45.90576 43.85384
# Shear Modulus (GPa) = 8.19842 21.50986 14.85414
#
# Velocity S-wave (km/s) = 2.05731 3.33237 2.76922
# Velocity P-wave (km/s) = 5.21766 6.20528 5.73278
#
# Compressibility (1/GPa) = 0.02392235
#
# Stress axis : x y z
#
# Youngs Moduli (GPa) = 94.15277 60.85445 63.60775
#
# Poissons Ratio (x) = 0.25996 0.20720
# Poissons Ratio (y) = 0.40220 0.12067
# Poissons Ratio (z) = 0.30670 0.11545
#
# Static dielectric constant tensor:
#      x y z
#    x 1.803470 0.000000 0.000000 
#    y 0.000000 1.686390 0.000000 
#    z 0.000000 0.000000 1.723550 
# 
# From -- ./inp_files/20285.got.cif
#   From: 2010.05.17/outbox.cif.g08.bks.cpg/sg60_11_cif.got.tgz:20285.got - 2010.06.03 14:59:27.
