data_PCOD9455696
_publ_section_title
;
Structure prediction by ZEFSAII (Michael W. Deem and Ramdas Pophale) SiO2 
 PCOD9455696
Probable space group: P B C N
;
_chemical_formula_sum "Si O2"
_cell_formula_units_Z 48
_cell_length_a 12.573868
_cell_length_b 8.631631
_cell_length_c 22.399079
_cell_angle_alpha 90.000000
_cell_angle_beta 90.000000
_cell_angle_gamma 90.000000
_cell_volume 2431.038991
_symmetry_space_group_name_H-M "P B C N"
_symmetry_group_IT_number 60
_symmetry_cell_setting 'orthorhombic'
loop_
_space_group_symop_operation_xyz
x,y,z
1/2-x,1/2-y,1/2+z
1/2+x,1/2-y,-z
-x,y,1/2-z
-x,-y,-z
1/2+x,1/2+y,1/2-z
1/2-x,1/2+y,z
x,-y,1/2+z
loop_
_atom_site_type_symbol
_atom_site_label
_atom_site_fract_x
_atom_site_fract_y
_atom_site_fract_z
Si Si1 0.487418 0.853858 0.543360
Si Si2 0.659642 0.997952 0.751022
Si Si3 0.884287 0.216454 0.062915
Si Si4 0.382548 0.644684 0.769039
Si Si5 0.838439 0.861661 0.091437
Si Si6 0.507781 0.077692 0.850774
O O1 0.406339 0.746418 0.506983
O O2 0.593672 0.754951 0.551163
O O3 0.500000 0.000000 0.500000
O O4 0.464637 0.930674 0.607224
O O5 0.637093 0.815307 0.758499
O O6 0.784098 0.034214 0.747541
O O7 0.603651 0.093182 0.804161
O O8 0.595952 0.044375 0.690543
O O9 0.783661 0.318578 0.082325
O O10 0.979663 0.280488 0.105133
O O11 0.860974 0.038389 0.074985
O O12 0.500000 0.590589 0.750000
O O13 0.373940 0.662154 0.840356
#
# Coordination Sequence:
#
# PCOD9455696 Si02
#       6
#     8   8   8   8   8   8
#     4  10  21  40  65  90 125 172 220 271 335 389
#     4  11  22  41  67  94 136 172 217 274 345 391
#     4  11  23  38  66  94 127 176 224 273 335 417
#     4  12  24  41  66  98 132 177 221 277 338 413
#     4  12  22  41  62  97 131 171 227 277 341 407
#     4  10  20  42  65  94 131 177 216 280 339 400
#
# _framework density 19.744643
#
# number of rings (size 3 to 8) (size 9 to 14) (size 15 to 20)
#    0.000    1.000    5.000    3.500    0.000    1.333 
#    0.000   11.667    0.000    0.000    0.000    0.000 
#    0.000    0.000    0.000    0.000    0.000    0.000 
#
# Total GULP energy -267967.879560 kJ/mol
# GULP energy per Si atom -5582.664158 kJ/mol
# Density = 1.969970 g / cm^3
# Si number density = 19.744643 Si / 1000 Ang^3
#
#
#
# Elastic Constant Matrix: (Units=GPa)
#
#
# Indices 1 2 3 4 5 6 
#
# 1 127.3242 20.6869 56.2907 0.0000 0.0000 0.0000
# 2 20.6869 89.0709 22.6702 0.0000 0.0000 0.0000
# 3 56.2907 22.6702 101.0697 0.0000 0.0000 0.0000
# 4 0.0000 0.0000 0.0000 28.1934 0.0000 0.0000
# 5 0.0000 0.0000 0.0000 0.0000 30.8192 0.0000
# 6 0.0000 0.0000 0.0000 0.0000 0.0000 28.1063
#
#
#
# Elastic Compliance Matrix: (Units=1/GPa)
#
#
# Indices 1 2 3 4 5 6 
#
# 1 0.010504 -0.001008 -0.005624 0.000000 0.000000 0.000000
# 2 -0.001008 0.012004 -0.002131 0.000000 0.000000 0.000000
# 3 -0.005624 -0.002131 0.013505 0.000000 0.000000 0.000000
# 4 0.000000 0.000000 0.000000 0.035469 0.000000 0.000000
# 5 0.000000 0.000000 0.000000 0.000000 0.032447 0.000000
# 6 0.000000 0.000000 0.000000 0.000000 0.000000 0.035579
#
#
# Mechanical properties :
#
#
# Convention : Reuss Voigt Hill
#
# Bulk Modulus (GPa) = 54.09581 57.41781 55.75681
# Shear Modulus (GPa) = 30.63788 31.94491 31.29140
#
# Velocity S-wave (km/s) = 3.94344 4.02668 3.98528
# Velocity P-wave (km/s) = 6.94201 7.12476 7.03398
#
# Compressibility (1/GPa) = 0.01848572
#
# Stress axis : x y z
#
# Youngs Moduli (GPa) = 95.19953 83.30887 74.04925
#
# Poissons Ratio (x) = 0.08399 0.41647
# Poissons Ratio (y) = 0.09598 0.15779
# Poissons Ratio (z) = 0.53542 0.17752
#
# Static dielectric constant tensor:
#      x y z
#    x 1.688040 0.000000 0.000000 
#    y 0.000000 1.704300 0.000000 
#    z 0.000000 0.000000 1.716550 
# 
# From -- ./inp_files/24242.got.cif
#   From: 2010.05.17/outbox.cif.g08.bks.cpg/sg60_13_cif.got.tgz:24242.got - 2010.06.03 14:59:27.
