data_PCOD9455540
_publ_section_title
;
Structure prediction by ZEFSAII (Michael W. Deem and Ramdas Pophale) SiO2 
 PCOD9455540
Probable space group: P B C N
;
_chemical_formula_sum "Si O2"
_cell_formula_units_Z 48
_cell_length_a 7.177214
_cell_length_b 21.718181
_cell_length_c 12.814115
_cell_angle_alpha 90.000000
_cell_angle_beta 90.000000
_cell_angle_gamma 90.000000
_cell_volume 1997.413409
_symmetry_space_group_name_H-M "P B C N"
_symmetry_group_IT_number 60
_symmetry_cell_setting 'orthorhombic'
loop_
_space_group_symop_operation_xyz
x,y,z
1/2-x,1/2-y,1/2+z
1/2+x,1/2-y,-z
-x,y,1/2-z
-x,-y,-z
1/2+x,1/2+y,1/2-z
1/2-x,1/2+y,z
x,-y,1/2+z
loop_
_atom_site_type_symbol
_atom_site_label
_atom_site_fract_x
_atom_site_fract_y
_atom_site_fract_z
Si Si1 0.302841 0.192822 0.938780
Si Si2 0.994050 0.063928 0.128281
Si Si3 0.334087 0.985211 0.352054
Si Si4 0.084734 0.417310 0.558781
Si Si5 0.775345 0.126310 0.769442
Si Si6 0.128344 0.171341 0.510908
O O1 0.322080 0.167573 0.820687
O O2 0.087810 0.177580 0.959475
O O3 0.416253 0.155235 0.029157
O O4 0.324524 0.265077 0.954731
O O5 0.000000 0.079470 0.250000
O O6 0.206813 0.065136 0.093696
O O7 0.880099 0.000712 0.116979
O O8 0.874290 0.113482 0.065002
O O9 0.430839 0.946587 0.443501
O O10 0.305847 0.942560 0.250192
O O11 0.554318 0.049606 0.139545
O O12 0.758284 0.155619 0.883938
O O13 0.000000 0.123501 0.750000
#
# Coordination Sequence:
#
# PCOD9455540 Si02
#       6
#     8   8   8   8   8   8
#     4   9  20  38  66  94 133 173 228 280 341 412
#     4  11  24  39  60  93 132 177 219 270 344 404
#     4  10  20  39  70  91 133 170 226 279 344 403
#     4   9  21  40  63  99 126 171 222 286 332 403
#     4   9  19  40  67  97 128 180 225 278 351 412
#     4  10  22  40  66  93 136 176 225 285 340 415
#
# _framework density 24.031081
#
# number of rings (size 3 to 8) (size 9 to 14) (size 15 to 20)
#    0.000    2.333    0.000    2.000    2.333    4.667 
#    0.000    1.667    7.333    0.000    0.000    0.000 
#    0.000    0.000    0.000    0.000    0.000    0.000 
#
# Total GULP energy -268199.758305 kJ/mol
# GULP energy per Si atom -5587.494965 kJ/mol
# Density = 2.397639 g / cm^3
# Si number density = 24.031081 Si / 1000 Ang^3
#
#
#
# Elastic Constant Matrix: (Units=GPa)
#
#
# Indices 1 2 3 4 5 6 
#
# 1 91.7074 32.5383 29.6655 0.0000 0.0000 0.0000
# 2 32.5383 102.7330 37.4582 0.0000 0.0000 0.0000
# 3 29.6655 37.4582 130.2680 0.0000 0.0000 0.0000
# 4 0.0000 0.0000 0.0000 23.9944 0.0000 0.0000
# 5 0.0000 0.0000 0.0000 0.0000 36.4828 0.0000
# 6 0.0000 0.0000 0.0000 0.0000 0.0000 28.8859
#
#
#
# Elastic Compliance Matrix: (Units=1/GPa)
#
#
# Indices 1 2 3 4 5 6 
#
# 1 0.012709 -0.003318 -0.001940 0.000000 0.000000 0.000000
# 2 -0.003318 0.011740 -0.002620 0.000000 0.000000 0.000000
# 3 -0.001940 -0.002620 0.008872 0.000000 0.000000 0.000000
# 4 0.000000 0.000000 0.000000 0.041676 0.000000 0.000000
# 5 0.000000 0.000000 0.000000 0.000000 0.027410 0.000000
# 6 0.000000 0.000000 0.000000 0.000000 0.000000 0.034619
#
#
# Mechanical properties :
#
#
# Convention : Reuss Voigt Hill
#
# Bulk Modulus (GPa) = 56.93336 58.22582 57.57959
# Shear Modulus (GPa) = 31.51826 32.87569 32.19698
#
# Velocity S-wave (km/s) = 3.62548 3.70273 3.66431
# Velocity P-wave (km/s) = 6.42405 6.52397 6.47421
#
# Compressibility (1/GPa) = 0.01756439
#
# Stress axis : x y z
#
# Youngs Moduli (GPa) = 78.68404 85.17706 112.71710
#
# Poissons Ratio (x) = 0.28261 0.21869
# Poissons Ratio (y) = 0.26107 0.29535
# Poissons Ratio (z) = 0.15266 0.22319
#
# Static dielectric constant tensor:
#      x y z
#    x 1.998300 0.000000 0.000000 
#    y 0.000000 1.933740 0.000000 
#    z 0.000000 0.000000 1.934310 
# 
# From -- ./inp_files/10064.got.cif
#   From: 2010.05.17/outbox.cif.g08.bks.cpg/sg60_6_cif.got.tgz:10064.got - 2010.06.03 14:59:27.
