data_PCOD9455771
_publ_section_title
;
Structure prediction by ZEFSAII (Michael W. Deem and Ramdas Pophale) SiO2 
 PCOD9455771
Probable space group: P B C N
;
_chemical_formula_sum "Si O2"
_cell_formula_units_Z 36
_cell_length_a 8.564600
_cell_length_b 15.598817
_cell_length_c 13.979219
_cell_angle_alpha 90.000000
_cell_angle_beta 90.000000
_cell_angle_gamma 90.000000
_cell_volume 1867.590501
_symmetry_space_group_name_H-M "P B C N"
_symmetry_group_IT_number 60
_symmetry_cell_setting 'orthorhombic'
loop_
_space_group_symop_operation_xyz
x,y,z
1/2-x,1/2-y,1/2+z
1/2+x,1/2-y,-z
-x,y,1/2-z
-x,-y,-z
1/2+x,1/2+y,1/2-z
1/2-x,1/2+y,z
x,-y,1/2+z
loop_
_atom_site_type_symbol
_atom_site_label
_atom_site_fract_x
_atom_site_fract_y
_atom_site_fract_z
Si Si1 0.804421 0.867564 0.164200
Si Si2 0.500000 0.592495 0.250000
Si Si3 0.612589 0.557759 0.868743
Si Si4 0.673440 0.171662 0.198890
Si Si5 0.664479 0.019751 0.045524
O O1 0.802946 0.908188 0.271971
O O2 0.775460 0.767018 0.167931
O O3 0.977641 0.873052 0.118657
O O4 0.705393 0.932804 0.101992
O O5 0.483534 0.528037 0.159905
O O6 0.333002 0.639950 0.247869
O O7 0.717226 0.540543 0.959313
O O8 0.500000 0.175860 0.250000
O O9 0.655938 0.101298 0.115584
O O10 0.500000 0.000000 0.000000
#
# Coordination Sequence:
#
# PCOD9455771 Si02
#       5
#     8   4   8   8   8
#     4  10  23  45  68  94 136 179 219 282 344 406
#     4  10  22  42  74  86 130 186 214 280 340 398
#     4  10  20  47  68  87 135 183 216 275 347 400
#     4  12  24  45  68 100 134 177 232 277 344 402
#     4  12  26  40  69 103 135 177 232 285 331 417
#
# _framework density 19.276174999999999
#
# number of rings (size 3 to 8) (size 9 to 14) (size 15 to 20)
#    0.000    1.333    6.667    2.000    0.000    3.556 
#    4.000    0.000    0.000    0.000    0.000    0.000 
#    0.000    0.000    0.000    0.000    0.000    0.000 
#
# Total GULP energy -200452.409738 kJ/mol
# GULP energy per Si atom -5568.122493 kJ/mol
# Density = 1.923230 g / cm^3
# Si number density = 19.276175 Si / 1000 Ang^3
#
#
#
# Elastic Constant Matrix: (Units=GPa)
#
#
# Indices 1 2 3 4 5 6 
#
# 1 73.3890 43.2648 48.8224 0.0000 0.0000 0.0000
# 2 43.2648 132.7957 57.9125 0.0000 0.0000 0.0000
# 3 48.8224 57.9125 71.6323 0.0000 0.0000 0.0000
# 4 0.0000 0.0000 0.0000 6.3587 0.0000 0.0000
# 5 0.0000 0.0000 0.0000 0.0000 18.9170 0.0000
# 6 0.0000 0.0000 0.0000 0.0000 0.0000 25.3318
#
#
#
# Elastic Compliance Matrix: (Units=1/GPa)
#
#
# Indices 1 2 3 4 5 6 
#
# 1 0.025034 -0.001105 -0.016169 0.000000 0.000000 0.000000
# 2 -0.001105 0.011680 -0.008690 0.000000 0.000000 0.000000
# 3 -0.016169 -0.008690 0.032006 0.000000 0.000000 0.000000
# 4 0.000000 0.000000 0.000000 0.157264 0.000000 0.000000
# 5 0.000000 0.000000 0.000000 0.000000 0.052862 0.000000
# 6 0.000000 0.000000 0.000000 0.000000 0.000000 0.039476
#
#
# Mechanical properties :
#
#
# Convention : Reuss Voigt Hill
#
# Bulk Modulus (GPa) = 59.55110 64.20186 61.87648
# Shear Modulus (GPa) = 13.30324 18.64267 15.97295
#
# Velocity S-wave (km/s) = 2.62990 3.11325 2.88173
# Velocity P-wave (km/s) = 6.33897 6.80454 6.57588
#
# Compressibility (1/GPa) = 0.01679230
#
# Stress axis : x y z
#
# Youngs Moduli (GPa) = 39.94573 85.61650 31.24373
#
# Poissons Ratio (x) = 0.09457 0.50519
# Poissons Ratio (y) = 0.04412 0.27151
# Poissons Ratio (z) = 0.64590 0.74401
#
# Static dielectric constant tensor:
#      x y z
#    x 1.772090 0.000000 0.000000 
#    y 0.000000 1.773390 0.000000 
#    z 0.000000 0.000000 1.697610 
# 
# From -- ./inp_files/14573.got.cif
#   From: 2010.05.17/outbox.cif.g08.bks.cpg/sg60_8_cif.got.tgz:14573.got - 2010.06.03 14:59:27.
