data_PCOD9455821
_publ_section_title
;
Structure prediction by ZEFSAII (Michael W. Deem and Ramdas Pophale) SiO2 
 PCOD9455821
Probable space group: P B C N
;
_chemical_formula_sum "Si O2"
_cell_formula_units_Z 56
_cell_length_a 15.943437
_cell_length_b 33.549853
_cell_length_c 5.205663
_cell_angle_alpha 90.000000
_cell_angle_beta 90.000000
_cell_angle_gamma 90.000000
_cell_volume 2784.508970
_symmetry_space_group_name_H-M "P B C N"
_symmetry_group_IT_number 60
_symmetry_cell_setting 'orthorhombic'
loop_
_space_group_symop_operation_xyz
x,y,z
1/2-x,1/2-y,1/2+z
1/2+x,1/2-y,-z
-x,y,1/2-z
-x,-y,-z
1/2+x,1/2+y,1/2-z
1/2-x,1/2+y,z
x,-y,1/2+z
loop_
_atom_site_type_symbol
_atom_site_label
_atom_site_fract_x
_atom_site_fract_y
_atom_site_fract_z
Si Si1 0.796778 0.783872 0.936872
Si Si2 0.255038 0.131738 0.942412
Si Si3 0.612660 0.241206 0.303822
Si Si4 0.332658 0.398058 0.968966
Si Si5 0.920980 0.820312 0.563389
Si Si6 0.100284 0.979907 0.195506
Si Si7 0.553314 0.155618 0.486871
O O1 0.778441 0.822717 0.113276
O O2 0.866561 0.750648 0.006378
O O3 0.708926 0.762700 0.897693
O O4 0.834812 0.807952 0.702344
O O5 0.239921 0.108477 0.679232
O O6 0.353858 0.136735 0.998436
O O7 0.204359 0.110924 0.181702
O O8 0.569746 0.281640 0.390407
O O9 0.569593 0.201920 0.407166
O O10 0.374313 0.439891 0.044882
O O11 0.402982 0.364403 0.035171
O O12 0.000000 0.822518 0.750000
O O13 0.000000 0.981014 0.250000
O O14 0.131166 0.986801 0.488174
O O15 0.500000 0.153452 0.750000
O O16 0.500000 0.138203 0.250000
#
# Coordination Sequence:
#
# PCOD9455821 Si02
#       7
#     8   8   8   8   8   8   8
#     4  10  21  35  54  69 104 155 201 252 305 361
#     4  10  22  40  62  83 118 159 204 251 309 358
#     4  11  21  35  54  71 108 155 207 252 312 353
#     4  11  22  41  62  89 120 162 199 239 295 367
#     4  11  24  35  51  78 109 146 202 259 298 341
#     4  10  22  40  65  95 130 164 195 237 291 351
#     4  11  25  39  58  86 118 156 210 267 311 362
#
# _framework density 20.111266000000001
#
# number of rings (size 3 to 8) (size 9 to 14) (size 15 to 20)
#    0.000    1.429    2.857    2.143    4.000    4.000 
#    0.000    0.000    0.000    0.000    0.000    0.000 
#    0.000   40.000    0.000    0.000    0.000    0.000 
#
# Total GULP energy -311742.683672 kJ/mol
# GULP energy per Si atom -5566.833637 kJ/mol
# Density = 2.006549 g / cm^3
# Si number density = 20.111266 Si / 1000 Ang^3
#
#
#
# Elastic Constant Matrix: (Units=GPa)
#
#
# Indices 1 2 3 4 5 6 
#
# 1 73.8156 15.9879 30.3342 0.0000 0.0000 0.0000
# 2 15.9879 73.8028 24.8193 0.0000 0.0000 0.0000
# 3 30.3342 24.8193 97.0558 0.0000 0.0000 0.0000
# 4 0.0000 0.0000 0.0000 17.8358 0.0000 0.0000
# 5 0.0000 0.0000 0.0000 0.0000 37.3764 0.0000
# 6 0.0000 0.0000 0.0000 0.0000 0.0000 4.6690
#
#
#
# Elastic Compliance Matrix: (Units=1/GPa)
#
#
# Indices 1 2 3 4 5 6 
#
# 1 0.015790 -0.001927 -0.004442 0.000000 0.000000 0.000000
# 2 -0.001927 0.015060 -0.003249 0.000000 0.000000 0.000000
# 3 -0.004442 -0.003249 0.012523 0.000000 0.000000 0.000000
# 4 0.000000 0.000000 0.000000 0.056067 0.000000 0.000000
# 5 0.000000 0.000000 0.000000 0.000000 0.026755 0.000000
# 6 0.000000 0.000000 0.000000 0.000000 0.000000 0.214179
#
#
# Mechanical properties :
#
#
# Convention : Reuss Voigt Hill
#
# Bulk Modulus (GPa) = 41.43123 42.99522 42.21323
# Shear Modulus (GPa) = 13.59972 23.54510 18.57241
#
# Velocity S-wave (km/s) = 2.60325 3.42532 3.04218
# Velocity P-wave (km/s) = 5.44808 6.08842 5.77713
#
# Compressibility (1/GPa) = 0.02413638
#
# Stress axis : x y z
#
# Youngs Moduli (GPa) = 63.33051 66.40298 79.85549
#
# Poissons Ratio (x) = 0.12794 0.35475
# Poissons Ratio (y) = 0.12202 0.25944
# Poissons Ratio (z) = 0.28134 0.21574
#
# Static dielectric constant tensor:
#      x y z
#    x 1.709600 0.000000 0.000000 
#    y 0.000000 1.739300 0.000000 
#    z 0.000000 0.000000 2.018790 
# 
# From -- ./inp_files/1487.got.cif
#   From: 2010.05.17/outbox.cif.g08.bks.cpg/sg60_1_cif.got.tgz:1487.got - 2010.06.03 14:59:27.
