data_PCOD9455607
_publ_section_title
;
Structure prediction by ZEFSAII (Michael W. Deem and Ramdas Pophale) SiO2 
 PCOD9455607
Probable space group: P B C N
;
_chemical_formula_sum "Si O2"
_cell_formula_units_Z 60
_cell_length_a 7.100743
_cell_length_b 16.362297
_cell_length_c 24.181444
_cell_angle_alpha 90.000000
_cell_angle_beta 90.000000
_cell_angle_gamma 90.000000
_cell_volume 2809.508156
_symmetry_space_group_name_H-M "P B C N"
_symmetry_group_IT_number 60
_symmetry_cell_setting 'orthorhombic'
loop_
_space_group_symop_operation_xyz
x,y,z
1/2-x,1/2-y,1/2+z
1/2+x,1/2-y,-z
-x,y,1/2-z
-x,-y,-z
1/2+x,1/2+y,1/2-z
1/2-x,1/2+y,z
x,-y,1/2+z
loop_
_atom_site_type_symbol
_atom_site_label
_atom_site_fract_x
_atom_site_fract_y
_atom_site_fract_z
Si Si1 0.291359 0.072602 0.409011
Si Si2 0.978822 0.096554 0.994836
Si Si3 0.581005 0.688069 0.886051
Si Si4 0.741435 0.408644 0.152605
Si Si5 0.500000 0.491396 0.250000
Si Si6 0.304417 0.135520 0.067533
Si Si7 0.015072 0.125012 0.163437
Si Si8 0.577804 0.815008 0.310818
O O1 0.509929 0.080756 0.424575
O O2 0.179153 0.115218 0.459022
O O3 0.204622 0.114767 0.353693
O O4 0.233594 0.979613 0.393682
O O5 0.183579 0.134956 0.010741
O O6 0.899972 0.124210 0.936051
O O7 0.000000 0.000000 0.000000
O O8 0.372220 0.672039 0.864724
O O9 0.628213 0.774913 0.913048
O O10 0.712288 0.672016 0.833001
O O11 0.645558 0.441422 0.210365
O O12 0.953900 0.379158 0.155370
O O13 0.585189 0.557361 0.293086
O O14 0.144497 0.108106 0.110492
O O15 0.043374 0.218499 0.180128
O O16 0.500000 0.831060 0.250000
#
# Coordination Sequence:
#
# PCOD9455607 Si02
#       8
#     8   8   8   8   4   8   8   8
#     4  10  22  40  64  91 126 165 217 267 324 394
#     4  11  24  43  64  93 131 170 215 279 331 379
#     4  11  25  44  63  96 132 168 218 276 323 403
#     4  11  23  38  64  96 128 169 215 273 329 389
#     4  10  20  40  68  90 132 170 210 276 328 388
#     4  10  24  41  66  91 126 175 218 265 333 399
#     4   9  20  42  63  90 128 169 214 269 321 388
#     4  11  23  40  66  92 129 174 214 263 327 393
#
# _framework density 21.356051000000001
#
# number of rings (size 3 to 8) (size 9 to 14) (size 15 to 20)
#    0.000    1.600    2.000    1.600    3.733    2.667 
#    0.000    2.000    0.000    0.000    0.000    0.000 
#    0.000    0.000    0.000    0.000    0.000    0.000 
#
# Total GULP energy -334129.640709 kJ/mol
# GULP energy per Si atom -5568.827345 kJ/mol
# Density = 2.130744 g / cm^3
# Si number density = 21.356051 Si / 1000 Ang^3
#
#
#
# Elastic Constant Matrix: (Units=GPa)
#
#
# Indices 1 2 3 4 5 6 
#
# 1 67.7414 8.8607 3.5028 0.0000 0.0000 0.0000
# 2 8.8607 57.9824 0.4907 0.0000 0.0000 0.0000
# 3 3.5028 0.4907 60.9311 0.0000 0.0000 0.0000
# 4 0.0000 0.0000 0.0000 24.1740 0.0000 0.0000
# 5 0.0000 0.0000 0.0000 0.0000 17.9022 0.0000
# 6 0.0000 0.0000 0.0000 0.0000 0.0000 -41.6093
#
#
#
# Elastic Compliance Matrix: (Units=1/GPa)
#
#
# Indices 1 2 3 4 5 6 
#
# 1 0.015107 -0.002301 -0.000850 0.000000 0.000000 0.000000
# 2 -0.002301 0.017598 -0.000009 0.000000 0.000000 0.000000
# 3 -0.000850 -0.000009 0.016461 0.000000 0.000000 0.000000
# 4 0.000000 0.000000 0.000000 0.041367 0.000000 0.000000
# 5 0.000000 0.000000 0.000000 0.000000 0.055859 0.000000
# 6 0.000000 0.000000 0.000000 0.000000 0.000000 -0.024033
#
#
# Mechanical properties :
#
#
# Convention : Reuss Voigt Hill
#
# Bulk Modulus (GPa) = 23.34006 23.59591 23.46799
# Shear Modulus (GPa) = 34.97426 11.68009 23.32718
#
# Velocity S-wave (km/s) = 4.05121 2.34117 3.30858
# Velocity P-wave (km/s) = 5.73025 4.28730 5.06047
#
# Compressibility (1/GPa) = 0.04284479
#
# Stress axis : x y z
#
# Youngs Moduli (GPa) = 66.19452 56.82336 60.74995
#
# Poissons Ratio (x) = 0.13077 0.05163
# Poissons Ratio (y) = 0.15234 0.00057
# Poissons Ratio (z) = 0.05626 0.00054
#
# Static dielectric constant tensor:
#      x y z
#    x 1.766530 0.000000 0.000000 
#    y 0.000000 1.762640 0.000000 
#    z 0.000000 0.000000 1.906480 
# 
# From -- ./inp_files/24994.got.cif
#   From: 2010.05.17/outbox.cif.g08.bks.cpg/sg60_13_cif.got.tgz:24994.got - 2010.06.03 14:59:27.
