data_PCOD9455597
_publ_section_title
;
Structure prediction by ZEFSAII (Michael W. Deem and Ramdas Pophale) SiO2 
 PCOD9455597
Probable space group: P B C N
;
_chemical_formula_sum "Si O2"
_cell_formula_units_Z 48
_cell_length_a 7.642379
_cell_length_b 9.446214
_cell_length_c 27.068701
_cell_angle_alpha 90.000000
_cell_angle_beta 90.000000
_cell_angle_gamma 90.000000
_cell_volume 1954.131414
_symmetry_space_group_name_H-M "P B C N"
_symmetry_group_IT_number 60
_symmetry_cell_setting 'orthorhombic'
loop_
_space_group_symop_operation_xyz
x,y,z
1/2-x,1/2-y,1/2+z
1/2+x,1/2-y,-z
-x,y,1/2-z
-x,-y,-z
1/2+x,1/2+y,1/2-z
1/2-x,1/2+y,z
x,-y,1/2+z
loop_
_atom_site_type_symbol
_atom_site_label
_atom_site_fract_x
_atom_site_fract_y
_atom_site_fract_z
Si Si1 0.370561 0.350529 0.055617
Si Si2 0.666874 0.779287 0.622508
Si Si3 0.193622 0.002852 0.813451
Si Si4 0.985147 0.824269 0.943901
Si Si5 0.145189 0.531522 0.211414
Si Si6 0.417308 0.266090 0.694886
O O1 0.501596 0.257858 0.089072
O O2 0.404674 0.518108 0.066956
O O3 0.172783 0.289989 0.060423
O O4 0.439030 0.329334 0.999537
O O5 0.656691 0.920002 0.655500
O O6 0.681248 0.653909 0.662200
O O7 0.842908 0.787298 0.588821
O O8 0.036451 0.893975 0.823767
O O9 0.214467 0.018370 0.754506
O O10 0.102239 0.395280 0.179005
O O11 0.227484 0.668319 0.188132
O O12 0.000000 0.577601 0.250000
O O13 0.500000 0.244509 0.750000
#
# Coordination Sequence:
#
# PCOD9455597 Si02
#       6
#     8   8   8   8   8   8
#     4  11  25  45  73 104 139 195 245 291 355 438
#     4  12  24  46  65 105 149 187 234 307 357 415
#     4  11  24  43  66  97 142 178 225 300 364 402
#     4  11  25  45  73 104 140 190 249 291 354 438
#     4  10  20  40  66  91 123 175 226 278 338 431
#     4   9  20  39  62  91 124 171 225 270 340 431
#
# _framework density 24.563341999999999
#
# number of rings (size 3 to 8) (size 9 to 14) (size 15 to 20)
#    0.000    1.333    3.333    3.000    2.333    4.000 
#    9.000    0.000    0.000    0.000    0.000    0.000 
#    0.000    0.000    0.000    0.000    0.000    0.000 
#
# Total GULP energy -268119.157665 kJ/mol
# GULP energy per Si atom -5585.815785 kJ/mol
# Density = 2.450743 g / cm^3
# Si number density = 24.563342 Si / 1000 Ang^3
#
#
#
# Elastic Constant Matrix: (Units=GPa)
#
#
# Indices 1 2 3 4 5 6 
#
# 1 123.4035 70.6793 4.6237 0.0000 0.0000 0.0000
# 2 70.6793 168.8983 21.7286 0.0000 0.0000 0.0000
# 3 4.6237 21.7286 83.8484 0.0000 0.0000 0.0000
# 4 0.0000 0.0000 0.0000 26.8499 0.0000 0.0000
# 5 0.0000 0.0000 0.0000 0.0000 36.2813 0.0000
# 6 0.0000 0.0000 0.0000 0.0000 0.0000 53.8948
#
#
#
# Elastic Compliance Matrix: (Units=1/GPa)
#
#
# Indices 1 2 3 4 5 6 
#
# 1 0.010686 -0.004548 0.000589 0.000000 0.000000 0.000000
# 2 -0.004548 0.008060 -0.001838 0.000000 0.000000 0.000000
# 3 0.000589 -0.001838 0.012370 0.000000 0.000000 0.000000
# 4 0.000000 0.000000 0.000000 0.037244 0.000000 0.000000
# 5 0.000000 0.000000 0.000000 0.000000 0.027562 0.000000
# 6 0.000000 0.000000 0.000000 0.000000 0.000000 0.018555
#
#
# Mechanical properties :
#
#
# Convention : Reuss Voigt Hill
#
# Bulk Modulus (GPa) = 51.22001 63.35704 57.28853
# Shear Modulus (GPa) = 37.71360 42.01312 39.86336
#
# Velocity S-wave (km/s) = 3.92262 4.14018 4.03287
# Velocity P-wave (km/s) = 6.43532 6.97884 6.71258
#
# Compressibility (1/GPa) = 0.01952362
#
# Stress axis : x y z
#
# Youngs Moduli (GPa) = 93.57974 124.06595 80.84018
#
# Poissons Ratio (x) = 0.56421 -0.04763
# Poissons Ratio (y) = 0.42557 0.14858
# Poissons Ratio (z) = -0.05514 0.22803
#
# Static dielectric constant tensor:
#      x y z
#    x 2.183040 0.000000 0.000000 
#    y 0.000000 1.868570 0.000000 
#    z 0.000000 0.000000 2.040040 
# 
# From -- ./inp_files/25918.got.cif
#   From: 2010.05.17/outbox.cif.g08.bks.cpg/sg60_13_cif.got.tgz:25918.got - 2010.06.03 14:59:27.
