data_PCOD9455552
_publ_section_title
;
Structure prediction by ZEFSAII (Michael W. Deem and Ramdas Pophale) SiO2 
 PCOD9455552
Probable space group: P B C N
;
_chemical_formula_sum "Si O2"
_cell_formula_units_Z 64
_cell_length_a 5.173761
_cell_length_b 20.540155
_cell_length_c 24.434247
_cell_angle_alpha 90.000000
_cell_angle_beta 90.000000
_cell_angle_gamma 90.000000
_cell_volume 2596.623834
_symmetry_space_group_name_H-M "P B C N"
_symmetry_group_IT_number 60
_symmetry_cell_setting 'orthorhombic'
loop_
_space_group_symop_operation_xyz
x,y,z
1/2-x,1/2-y,1/2+z
1/2+x,1/2-y,-z
-x,y,1/2-z
-x,-y,-z
1/2+x,1/2+y,1/2-z
1/2-x,1/2+y,z
x,-y,1/2+z
loop_
_atom_site_type_symbol
_atom_site_label
_atom_site_fract_x
_atom_site_fract_y
_atom_site_fract_z
Si Si1 0.972103 0.060446 0.579310
Si Si2 0.737847 0.781192 0.680238
Si Si3 0.002488 0.134917 0.688644
Si Si4 0.158040 0.421745 0.800542
Si Si5 0.391698 0.793893 0.125631
Si Si6 0.158402 0.067936 0.128249
Si Si7 0.096273 0.686508 0.077577
Si Si8 0.000912 0.375804 0.462886
O O1 0.904019 0.086939 0.641138
O O2 0.216908 0.099887 0.554582
O O3 0.718370 0.068707 0.542289
O O4 0.073689 0.987876 0.587012
O O5 0.617944 0.709110 0.691404
O O6 0.699525 0.844902 0.715743
O O7 0.623907 0.808202 0.623310
O O8 0.030691 0.761588 0.668632
O O9 0.286204 0.150213 0.664955
O O10 0.000000 0.108484 0.750000
O O11 0.444860 0.436586 0.823232
O O12 0.000000 0.452586 0.750000
O O13 0.950342 0.437605 0.848494
O O14 0.205698 0.759259 0.081973
O O15 0.595426 0.824676 0.084251
O O16 0.180787 0.136408 0.096900
O O17 0.000160 0.660220 0.020299
#
# Coordination Sequence:
#
# PCOD9455552 Si02
#       8
#     8   8   8   8   8   8   8   8
#     4  11  25  45  63  93 132 172 226 276 318 388
#     4  10  20  40  60  95 129 160 208 273 329 400
#     4  10  22  40  60  91 126 171 213 265 331 394
#     4  11  23  41  67  95 127 169 217 271 340 396
#     4  10  21  39  62  95 132 167 216 276 335 404
#     4  11  24  44  65  93 134 173 225 280 323 392
#     4  10  24  38  67  97 132 175 215 275 341 399
#     4  11  25  41  67  96 131 175 220 274 334 398
#
# _framework density 24.647390000000001
#
# number of rings (size 3 to 8) (size 9 to 14) (size 15 to 20)
#    0.000    1.500    2.500    1.500    3.500    2.500 
#    2.250    0.000    0.000    0.000    0.000    0.000 
#    0.000    0.000    0.000    0.000    0.000    0.000 
#
# Total GULP energy -356625.692426 kJ/mol
# GULP energy per Si atom -5572.276444 kJ/mol
# Density = 2.459129 g / cm^3
# Si number density = 24.647390 Si / 1000 Ang^3
#
#
#
# Elastic Constant Matrix: (Units=GPa)
#
#
# Indices 1 2 3 4 5 6 
#
# 1 50.2143 7.4340 -1.5419 0.0000 0.0000 0.0000
# 2 7.4340 35.7501 -3.9451 0.0000 0.0000 0.0000
# 3 -1.5419 -3.9451 66.6253 0.0000 0.0000 0.0000
# 4 0.0000 0.0000 0.0000 7.4524 0.0000 0.0000
# 5 0.0000 0.0000 0.0000 0.0000 19.8955 0.0000
# 6 0.0000 0.0000 0.0000 0.0000 0.0000 21.6565
#
#
#
# Elastic Compliance Matrix: (Units=1/GPa)
#
#
# Indices 1 2 3 4 5 6 
#
# 1 0.020551 -0.004249 0.000224 0.000000 0.000000 0.000000
# 2 -0.004249 0.029034 0.001621 0.000000 0.000000 0.000000
# 3 0.000224 0.001621 0.015110 0.000000 0.000000 0.000000
# 4 0.000000 0.000000 0.000000 0.134185 0.000000 0.000000
# 5 0.000000 0.000000 0.000000 0.000000 0.050263 0.000000
# 6 0.000000 0.000000 0.000000 0.000000 0.000000 0.046176
#
#
# Mechanical properties :
#
#
# Convention : Reuss Voigt Hill
#
# Bulk Modulus (GPa) = 16.69787 17.38707 17.04247
# Shear Modulus (GPa) = 15.62066 19.84373 17.73220
#
# Velocity S-wave (km/s) = 2.52020 2.84051 2.68514
# Velocity P-wave (km/s) = 3.90614 4.22228 4.06729
#
# Compressibility (1/GPa) = 0.05988788
#
# Stress axis : x y z
#
# Youngs Moduli (GPa) = 48.66058 34.44208 66.17928
#
# Poissons Ratio (x) = 0.14633 -0.01483
# Poissons Ratio (y) = 0.20674 -0.10727
# Poissons Ratio (z) = -0.01090 -0.05583
#
# Static dielectric constant tensor:
#      x y z
#    x 2.063300 0.000000 0.000000 
#    y 0.000000 2.083510 0.000000 
#    z 0.000000 0.000000 1.974510 
# 
# From -- ./inp_files/23766.got.cif
#   From: 2010.05.17/outbox.cif.g08.bks.cpg/sg60_12_cif.got.tgz:23766.got - 2010.06.03 14:59:27.
