data_PCOD9455880
_publ_section_title
;
Structure prediction by ZEFSAII (Michael W. Deem and Ramdas Pophale) SiO2 
 PCOD9455880
Probable space group: P B C N
;
_chemical_formula_sum "Si O2"
_cell_formula_units_Z 48
_cell_length_a 9.717578
_cell_length_b 26.347787
_cell_length_c 9.301657
_cell_angle_alpha 90.000000
_cell_angle_beta 90.000000
_cell_angle_gamma 90.000000
_cell_volume 2381.565333
_symmetry_space_group_name_H-M "P B C N"
_symmetry_group_IT_number 60
_symmetry_cell_setting 'orthorhombic'
loop_
_space_group_symop_operation_xyz
x,y,z
1/2-x,1/2-y,1/2+z
1/2+x,1/2-y,-z
-x,y,1/2-z
-x,-y,-z
1/2+x,1/2+y,1/2-z
1/2-x,1/2+y,z
x,-y,1/2+z
loop_
_atom_site_type_symbol
_atom_site_label
_atom_site_fract_x
_atom_site_fract_y
_atom_site_fract_z
Si Si1 0.159837 0.348579 0.644377
Si Si2 0.300658 0.353595 0.139250
Si Si3 0.594613 0.674761 0.545810
Si Si4 0.407956 0.203868 0.450262
Si Si5 0.164601 0.450006 0.244415
Si Si6 0.377025 0.038997 0.054704
O O1 0.314211 0.344913 0.586073
O O2 0.144261 0.324002 0.802876
O O3 0.099258 0.405392 0.621891
O O4 0.065718 0.313864 0.540670
O O5 0.337932 0.342093 0.303841
O O6 0.439087 0.345832 0.048170
O O7 0.238917 0.409846 0.143500
O O8 0.184880 0.316543 0.078357
O O9 0.594379 0.735772 0.553304
O O10 0.208309 0.450268 0.410369
O O11 0.187355 0.505309 0.179291
O O12 0.000000 0.437450 0.250000
O O13 0.500000 0.000000 0.000000
#
# Coordination Sequence:
#
# PCOD9455880 Si02
#       6
#     8   8   8   8   8   8
#     4  11  23  40  64  95 126 160 211 266 315 368
#     4  11  23  40  63  88 128 168 209 251 318 376
#     4  11  23  43  60  89 131 171 206 257 312 380
#     4  11  23  38  66  94 121 167 213 261 308 372
#     4  10  21  37  62  92 118 159 204 264 315 366
#     4  10  21  36  61  92 123 152 205 265 314 364
#
# _framework density 20.154810000000001
#
# number of rings (size 3 to 8) (size 9 to 14) (size 15 to 20)
#    0.000    1.333    1.667    6.000    9.333    0.667 
#    0.000    4.167    0.000    0.000    0.000    0.000 
#    0.000    0.000    0.000    0.000    0.000    0.000 
#
# Total GULP energy -267759.726372 kJ/mol
# GULP energy per Si atom -5578.327633 kJ/mol
# Density = 2.010894 g / cm^3
# Si number density = 20.154810 Si / 1000 Ang^3
#
#
#
# Elastic Constant Matrix: (Units=GPa)
#
#
# Indices 1 2 3 4 5 6 
#
# 1 41.8521 20.5245 12.8552 0.0000 0.0000 0.0000
# 2 20.5245 134.2735 10.5120 0.0000 0.0000 0.0000
# 3 12.8552 10.5120 42.2332 0.0000 0.0000 0.0000
# 4 0.0000 0.0000 0.0000 16.8639 0.0000 0.0000
# 5 0.0000 0.0000 0.0000 0.0000 33.5558 0.0000
# 6 0.0000 0.0000 0.0000 0.0000 0.0000 1.1619
#
#
#
# Elastic Compliance Matrix: (Units=1/GPa)
#
#
# Indices 1 2 3 4 5 6 
#
# 1 0.028043 -0.003690 -0.007617 0.000000 0.000000 0.000000
# 2 -0.003690 0.008081 -0.000888 0.000000 0.000000 0.000000
# 3 -0.007617 -0.000888 0.026218 0.000000 0.000000 0.000000
# 4 0.000000 0.000000 0.000000 0.059298 0.000000 0.000000
# 5 0.000000 0.000000 0.000000 0.000000 0.029801 0.000000
# 6 0.000000 0.000000 0.000000 0.000000 0.000000 0.860641
#
#
# Mechanical properties :
#
#
# Convention : Reuss Voigt Hill
#
# Bulk Modulus (GPa) = 26.35021 34.01581 30.18301
# Shear Modulus (GPa) = 4.76588 21.94747 13.35667
#
# Velocity S-wave (km/s) = 1.53941 3.30350 2.57710
# Velocity P-wave (km/s) = 4.03262 5.60934 4.88501
#
# Compressibility (1/GPa) = 0.03795036
#
# Stress axis : x y z
#
# Youngs Moduli (GPa) = 35.65944 123.74572 38.14214
#
# Poissons Ratio (x) = 0.45665 0.29054
# Poissons Ratio (y) = 0.13159 0.03388
# Poissons Ratio (z) = 0.27163 0.10991
#
# Static dielectric constant tensor:
#      x y z
#    x 1.823080 0.000000 0.000000 
#    y 0.000000 1.750030 0.000000 
#    z 0.000000 0.000000 1.704270 
# 
# From -- ./inp_files/5044.got.cif
#   From: 2010.05.17/outbox.cif.g08.bks.cpg/sg60_3_cif.got.tgz:5044.got - 2010.06.03 14:59:27.
