data_PCOD9455224
_publ_section_title
;
Structure prediction by ZEFSAII (Michael W. Deem and Ramdas Pophale) SiO2 
 PCOD9455224
Probable space group: P B C N
;
_chemical_formula_sum "Si O2"
_cell_formula_units_Z 64
_cell_length_a 17.754241
_cell_length_b 11.093076
_cell_length_c 17.252668
_cell_angle_alpha 90.000000
_cell_angle_beta 90.000000
_cell_angle_gamma 90.000000
_cell_volume 3397.898207
_symmetry_space_group_name_H-M "P B C N"
_symmetry_group_IT_number 60
_symmetry_cell_setting 'orthorhombic'
loop_
_space_group_symop_operation_xyz
x,y,z
1/2-x,1/2-y,1/2+z
1/2+x,1/2-y,-z
-x,y,1/2-z
-x,-y,-z
1/2+x,1/2+y,1/2-z
1/2-x,1/2+y,z
x,-y,1/2+z
loop_
_atom_site_type_symbol
_atom_site_label
_atom_site_fract_x
_atom_site_fract_y
_atom_site_fract_z
Si Si1 0.732743 0.675204 0.103052
Si Si2 0.447286 0.057315 0.314895
Si Si3 0.299229 0.881189 0.737493
Si Si4 0.265420 0.138355 0.653825
Si Si5 0.701090 0.505561 0.983893
Si Si6 0.138414 0.746852 0.521572
Si Si7 0.986843 0.365139 0.966382
Si Si8 0.649920 0.898450 0.063860
O O1 0.754013 0.614498 0.182324
O O2 0.678034 0.588213 0.055361
O O3 0.805349 0.703783 0.048110
O O4 0.693193 0.801703 0.115281
O O5 0.500000 0.994739 0.250000
O O6 0.385700 0.131650 0.265812
O O7 0.501290 0.129623 0.374211
O O8 0.398003 0.977119 0.375061
O O9 0.268220 0.760113 0.694030
O O10 0.288561 0.013888 0.698316
O O11 0.335162 0.182332 0.600440
O O12 0.205939 0.088179 0.591224
O O13 0.652787 0.388024 0.970471
O O14 0.785320 0.461450 0.011514
O O15 0.053988 0.714222 0.500336
O O16 0.000000 0.500000 0.000000
O O17 0.905757 0.336626 0.001689
#
# Coordination Sequence:
#
# PCOD9455224 Si02
#       8
#     8   8   8   8   8   8   8   8
#     4  10  20  37  61  86 118 161 210 247 307 369
#     4  11  23  34  55  92 128 159 195 255 319 372
#     4  12  23  38  58  94 128 161 197 256 322 363
#     4  11  23  36  60  91 125 157 205 254 307 364
#     4  10  20  40  62  89 117 164 211 255 298 366
#     4  10  20  39  61  87 121 159 207 261 299 361
#     4  10  20  37  58  84 119 155 203 255 305 356
#     4  10  21  39  61  87 120 162 208 260 305 363
#
# _framework density 18.835173000000001
#
# number of rings (size 3 to 8) (size 9 to 14) (size 15 to 20)
#    0.000    1.500    3.750    3.000    7.000    0.000 
#    0.000    0.625    0.000    1.500    0.000    0.875 
#    0.000    0.000    0.000    0.000    0.000    0.000 
#
# Total GULP energy -356332.519652 kJ/mol
# GULP energy per Si atom -5567.695620 kJ/mol
# Density = 1.879230 g / cm^3
# Si number density = 18.835173 Si / 1000 Ang^3
#
#
#
# Elastic Constant Matrix: (Units=GPa)
#
#
# Indices 1 2 3 4 5 6 
#
# 1 50.3788 11.4042 16.9523 0.0000 0.0000 0.0000
# 2 11.4042 88.9108 35.5211 0.0000 0.0000 0.0000
# 3 16.9523 35.5211 105.5995 0.0000 0.0000 0.0000
# 4 0.0000 0.0000 0.0000 34.6275 0.0000 0.0000
# 5 0.0000 0.0000 0.0000 0.0000 21.1147 0.0000
# 6 0.0000 0.0000 0.0000 0.0000 0.0000 15.9729
#
#
#
# Elastic Compliance Matrix: (Units=1/GPa)
#
#
# Indices 1 2 3 4 5 6 
#
# 1 0.021171 -0.001568 -0.002871 0.000000 0.000000 0.000000
# 2 -0.001568 0.013110 -0.004158 0.000000 0.000000 0.000000
# 3 -0.002871 -0.004158 0.011329 0.000000 0.000000 0.000000
# 4 0.000000 0.000000 0.000000 0.028879 0.000000 0.000000
# 5 0.000000 0.000000 0.000000 0.000000 0.047360 0.000000
# 6 0.000000 0.000000 0.000000 0.000000 0.000000 0.062606
#
#
# Mechanical properties :
#
#
# Convention : Reuss Voigt Hill
#
# Bulk Modulus (GPa) = 35.19303 41.40492 38.29897
# Shear Modulus (GPa) = 23.68308 26.41046 25.04677
#
# Velocity S-wave (km/s) = 3.54981 3.74864 3.65058
# Velocity P-wave (km/s) = 5.96044 6.38490 6.17632
#
# Compressibility (1/GPa) = 0.02841472
#
# Stress axis : x y z
#
# Youngs Moduli (GPa) = 47.23494 76.28022 88.26702
#
# Poissons Ratio (x) = 0.11964 0.25342
# Poissons Ratio (y) = 0.07409 0.36701
# Poissons Ratio (z) = 0.13561 0.31717
#
# Static dielectric constant tensor:
#      x y z
#    x 1.680330 0.000000 0.000000 
#    y 0.000000 1.692620 0.000000 
#    z 0.000000 0.000000 1.689540 
# 
# From -- ./inp_files/20962.got.cif
#   From: 2010.05.17/outbox.cif.g08.bks.cpg/sg60_11_cif.got.tgz:20962.got - 2010.06.03 14:59:27.
