data_PCOD9455822
_publ_section_title
;
Structure prediction by ZEFSAII (Michael W. Deem and Ramdas Pophale) SiO2 
 PCOD9455822
Probable space group: P B C N
;
_chemical_formula_sum "Si O2"
_cell_formula_units_Z 56
_cell_length_a 11.785900
_cell_length_b 20.038148
_cell_length_c 11.471197
_cell_angle_alpha 90.000000
_cell_angle_beta 90.000000
_cell_angle_gamma 90.000000
_cell_volume 2709.125162
_symmetry_space_group_name_H-M "P B C N"
_symmetry_group_IT_number 60
_symmetry_cell_setting 'orthorhombic'
loop_
_space_group_symop_operation_xyz
x,y,z
1/2-x,1/2-y,1/2+z
1/2+x,1/2-y,-z
-x,y,1/2-z
-x,-y,-z
1/2+x,1/2+y,1/2-z
1/2-x,1/2+y,z
x,-y,1/2+z
loop_
_atom_site_type_symbol
_atom_site_label
_atom_site_fract_x
_atom_site_fract_y
_atom_site_fract_z
Si Si1 0.867713 0.478841 0.745869
Si Si2 0.584851 0.713677 0.543332
Si Si3 0.161202 0.676011 0.939078
Si Si4 0.334993 0.225749 0.694236
Si Si5 0.626136 0.030086 0.500971
Si Si6 0.189635 0.332591 0.825672
Si Si7 0.846597 0.177836 0.959335
O O1 0.819790 0.491528 0.876520
O O2 0.819340 0.510469 0.626045
O O3 0.861168 0.399412 0.724996
O O4 0.000000 0.499797 0.750000
O O5 0.701652 0.673598 0.563995
O O6 0.591870 0.747660 0.414371
O O7 0.598634 0.778050 0.628314
O O8 0.478543 0.664408 0.558378
O O9 0.116254 0.690741 0.809019
O O10 0.114182 0.609815 0.995207
O O11 0.141613 0.742769 0.012430
O O12 0.269683 0.291639 0.738761
O O13 0.239437 0.174888 0.647032
O O14 0.500000 0.000000 0.500000
O O15 0.275539 0.350619 0.932368
#
# Coordination Sequence:
#
# PCOD9455822 Si02
#       7
#     8   8   8   8   8   8   8
#     4  10  21  35  54  77 106 149 193 231 283 336
#     4   9  18  30  52  80 109 152 182 230 294 341
#     4   9  19  33  50  76 113 146 185 233 281 343
#     4   8  17  32  46  76 109 141 181 228 287 338
#     4  10  22  38  53  79 107 151 191 236 286 333
#     4   9  19  30  50  77 105 147 183 234 282 339
#     4   9  18  31  50  81 110 139 188 224 292 349
#
# _framework density 20.67088
#
# number of rings (size 3 to 8) (size 9 to 14) (size 15 to 20)
#    0.000    3.429    0.000    1.714    6.000    6.286 
#    5.143    0.000    0.000    0.857    0.000    2.000 
#    0.000    0.000    0.000    0.000    0.000    0.000 
#
# Total GULP energy -311770.148084 kJ/mol
# GULP energy per Si atom -5567.324073 kJ/mol
# Density = 2.062383 g / cm^3
# Si number density = 20.670880 Si / 1000 Ang^3
#
#
#
# Elastic Constant Matrix: (Units=GPa)
#
#
# Indices 1 2 3 4 5 6 
#
# 1 56.3341 -15.3401 0.1984 0.0000 0.0000 0.0000
# 2 -15.3401 31.3683 22.2259 0.0000 0.0000 0.0000
# 3 0.1984 22.2259 139.1289 0.0000 0.0000 0.0000
# 4 0.0000 0.0000 0.0000 8.7348 0.0000 0.0000
# 5 0.0000 0.0000 0.0000 0.0000 10.6226 0.0000
# 6 0.0000 0.0000 0.0000 0.0000 0.0000 16.8241
#
#
#
# Elastic Compliance Matrix: (Units=1/GPa)
#
#
# Indices 1 2 3 4 5 6 
#
# 1 0.020903 0.011551 -0.001875 0.000000 0.000000 0.000000
# 2 0.011551 0.042331 -0.006779 0.000000 0.000000 0.000000
# 3 -0.001875 -0.006779 0.008273 0.000000 0.000000 0.000000
# 4 0.000000 0.000000 0.000000 0.114485 0.000000 0.000000
# 5 0.000000 0.000000 0.000000 0.000000 0.094139 0.000000
# 6 0.000000 0.000000 0.000000 0.000000 0.000000 0.059439
#
#
# Mechanical properties :
#
#
# Convention : Reuss Voigt Hill
#
# Bulk Modulus (GPa) = 12.93639 26.77777 19.85708
# Shear Modulus (GPa) = 13.90653 21.88609 17.89631
#
# Velocity S-wave (km/s) = 2.59657 3.25743 2.94560
# Velocity P-wave (km/s) = 3.90659 5.20868 4.60390
#
# Compressibility (1/GPa) = 0.07730135
#
# Stress axis : x y z
#
# Youngs Moduli (GPa) = 47.83958 23.62325 120.87239
#
# Poissons Ratio (x) = -0.27287 0.22664
# Poissons Ratio (y) = -0.55259 0.81938
# Poissons Ratio (z) = 0.08970 0.16014
#
# Static dielectric constant tensor:
#      x y z
#    x 1.848840 0.000000 0.000000 
#    y 0.000000 1.707270 0.000000 
#    z 0.000000 0.000000 1.871060 
# 
# From -- ./inp_files/11194.got.cif
#   From: 2010.05.17/outbox.cif.g08.bks.cpg/sg60_6_cif.got.tgz:11194.got - 2010.06.03 14:59:27.
