data_PCOD9455569
_publ_section_title
;
Structure prediction by ZEFSAII (Michael W. Deem and Ramdas Pophale) SiO2 
 PCOD9455569
Probable space group: P B C N
;
_chemical_formula_sum "Si O2"
_cell_formula_units_Z 48
_cell_length_a 10.126693
_cell_length_b 14.841454
_cell_length_c 15.014840
_cell_angle_alpha 90.000000
_cell_angle_beta 90.000000
_cell_angle_gamma 90.000000
_cell_volume 2256.653101
_symmetry_space_group_name_H-M "P B C N"
_symmetry_group_IT_number 60
_symmetry_cell_setting 'orthorhombic'
loop_
_space_group_symop_operation_xyz
x,y,z
1/2-x,1/2-y,1/2+z
1/2+x,1/2-y,-z
-x,y,1/2-z
-x,-y,-z
1/2+x,1/2+y,1/2-z
1/2-x,1/2+y,z
x,-y,1/2+z
loop_
_atom_site_type_symbol
_atom_site_label
_atom_site_fract_x
_atom_site_fract_y
_atom_site_fract_z
Si Si1 0.220163 0.015784 0.540555
Si Si2 0.478323 0.401148 0.919571
Si Si3 0.905418 0.237829 0.561719
Si Si4 0.000000 0.808797 0.250000
Si Si5 0.000000 0.228275 0.250000
Si Si6 0.655465 0.175794 0.476637
Si Si7 0.742477 0.823288 0.337191
O O1 0.309654 0.928498 0.527865
O O2 0.090528 0.976773 0.592017
O O3 0.159580 0.055081 0.448843
O O4 0.285829 0.096798 0.594259
O O5 0.473105 0.335715 0.835370
O O6 0.531035 0.347587 0.008116
O O7 0.749398 0.224546 0.549695
O O8 0.942392 0.243295 0.664816
O O9 0.998699 0.312613 0.516242
O O10 0.870061 0.858279 0.283826
O O11 0.122897 0.291081 0.223213
O O12 0.708548 0.233405 0.390955
#
# Coordination Sequence:
#
# PCOD9455569 Si02
#       7
#     8   8   8   4   4   8   8
#     4  10  20  42  66  93 134 171 225 276 319 395
#     4  10  21  40  67  95 127 173 225 271 317 398
#     4  10  20  40  63  92 131 164 217 271 330 382
#     4  10  22  35  63  96 120 168 224 265 317 382
#     4  12  24  43  69 100 136 174 214 281 345 394
#     4  10  21  41  64  93 131 172 215 277 321 395
#     4  11  23  41  65  95 134 174 221 274 329 394
#
# _framework density 21.270440000000001
#
# number of rings (size 3 to 8) (size 9 to 14) (size 15 to 20)
#    0.000    1.667    6.667    0.000    2.333    0.667 
#    0.000    4.167    0.000    2.000    0.000    0.000 
#    0.000    0.000    0.000    0.000    0.000    0.000 
#
# Total GULP energy -267462.129161 kJ/mol
# GULP energy per Si atom -5572.127691 kJ/mol
# Density = 2.122203 g / cm^3
# Si number density = 21.270440 Si / 1000 Ang^3
#
#
#
# Elastic Constant Matrix: (Units=GPa)
#
#
# Indices 1 2 3 4 5 6 
#
# 1 95.8285 51.1017 56.4254 0.0000 0.0000 0.0000
# 2 51.1017 121.2641 39.8369 0.0000 0.0000 0.0000
# 3 56.4254 39.8369 98.1773 0.0000 0.0000 0.0000
# 4 0.0000 0.0000 0.0000 20.6236 0.0000 0.0000
# 5 0.0000 0.0000 0.0000 0.0000 31.4416 0.0000
# 6 0.0000 0.0000 0.0000 0.0000 0.0000 28.6520
#
#
#
# Elastic Compliance Matrix: (Units=1/GPa)
#
#
# Indices 1 2 3 4 5 6 
#
# 1 0.017912 -0.004807 -0.008344 0.000000 0.000000 0.000000
# 2 -0.004807 0.010805 -0.001621 0.000000 0.000000 0.000000
# 3 -0.008344 -0.001621 0.015639 0.000000 0.000000 0.000000
# 4 0.000000 0.000000 0.000000 0.048488 0.000000 0.000000
# 5 0.000000 0.000000 0.000000 0.000000 0.031805 0.000000
# 6 0.000000 0.000000 0.000000 0.000000 0.000000 0.034902
#
#
# Mechanical properties :
#
#
# Convention : Reuss Voigt Hill
#
# Bulk Modulus (GPa) = 67.51806 67.77753 67.64780
# Shear Modulus (GPa) = 25.76891 27.33717 26.55304
#
# Velocity S-wave (km/s) = 3.48442 3.58888 3.53704
# Velocity P-wave (km/s) = 6.92819 7.00766 6.96804
#
# Compressibility (1/GPa) = 0.01481085
#
# Stress axis : x y z
#
# Youngs Moduli (GPa) = 55.82929 92.55076 63.94242
#
# Poissons Ratio (x) = 0.44490 0.53353
# Poissons Ratio (y) = 0.26838 0.10368
# Poissons Ratio (z) = 0.46583 0.15007
#
# Static dielectric constant tensor:
#      x y z
#    x 1.847440 0.000000 0.000000 
#    y 0.000000 1.790890 0.000000 
#    z 0.000000 0.000000 1.875420 
# 
# From -- ./inp_files/16110.got.cif
#   From: 2010.05.17/outbox.cif.g08.bks.cpg/sg60_9_cif.got.tgz:16110.got - 2010.06.03 14:59:27.
