data_PCOD9455420
_publ_section_title
;
Structure prediction by ZEFSAII (Michael W. Deem and Ramdas Pophale) SiO2 
 PCOD9455420
Probable space group: P B C N
;
_chemical_formula_sum "Si O2"
_cell_formula_units_Z 60
_cell_length_a 12.087843
_cell_length_b 26.683551
_cell_length_c 8.635451
_cell_angle_alpha 90.000000
_cell_angle_beta 90.000000
_cell_angle_gamma 90.000000
_cell_volume 2785.335145
_symmetry_space_group_name_H-M "P B C N"
_symmetry_group_IT_number 60
_symmetry_cell_setting 'orthorhombic'
loop_
_space_group_symop_operation_xyz
x,y,z
1/2-x,1/2-y,1/2+z
1/2+x,1/2-y,-z
-x,y,1/2-z
-x,-y,-z
1/2+x,1/2+y,1/2-z
1/2-x,1/2+y,z
x,-y,1/2+z
loop_
_atom_site_type_symbol
_atom_site_label
_atom_site_fract_x
_atom_site_fract_y
_atom_site_fract_z
Si Si1 0.072375 0.889629 0.408141
Si Si2 0.375419 0.956615 0.725858
Si Si3 0.265037 0.191874 0.947887
Si Si4 0.575423 0.106116 0.565594
Si Si5 0.745982 0.451225 0.240347
Si Si6 0.500000 0.639378 0.250000
Si Si7 0.227934 0.198528 0.304716
Si Si8 0.823527 0.611510 0.992631
O O1 0.156291 0.841921 0.415943
O O2 0.145248 0.940084 0.375062
O O3 0.000000 0.884009 0.250000
O O4 0.021297 0.889802 0.584526
O O5 0.500000 0.977683 0.750000
O O6 0.396049 0.910388 0.609981
O O7 0.331899 0.932171 0.881676
O O8 0.280465 0.996434 0.681892
O O9 0.365841 0.157586 0.892923
O O10 0.267962 0.245331 0.867679
O O11 0.276485 0.198209 0.132180
O O12 0.640371 0.061983 0.651521
O O13 0.445429 0.111745 0.581360
O O14 0.735590 0.407928 0.369248
O O15 0.606231 0.674185 0.214181
O O16 0.292955 0.162618 0.423430
#
# Coordination Sequence:
#
# PCOD9455420 Si02
#       8
#     8   8   8   8   8   4   8   8
#     4  10  23  45  68  96 130 177 227 274 330 392
#     4  10  20  38  64  96 133 173 207 262 342 403
#     4  10  24  41  64  98 131 167 218 271 328 391
#     4  10  21  39  60  96 135 167 207 266 331 399
#     4  11  22  37  64  97 129 167 218 267 324 403
#     4  10  24  46  68  90 130 184 218 278 332 390
#     4  11  24  42  64  95 127 173 219 269 330 389
#     4  11  22  38  64  96 133 170 210 269 333 400
#
# _framework density 21.541395000000001
#
# number of rings (size 3 to 8) (size 9 to 14) (size 15 to 20)
#    0.000    1.600    1.333    2.800    5.600    4.267 
#    0.000    0.000    1.467    4.800    0.000    0.000 
#    0.000    0.000    0.000    0.000    0.000    0.000 
#
# Total GULP energy -334615.797314 kJ/mol
# GULP energy per Si atom -5576.929955 kJ/mol
# Density = 2.149237 g / cm^3
# Si number density = 21.541395 Si / 1000 Ang^3
#
#
#
# Elastic Constant Matrix: (Units=GPa)
#
#
# Indices 1 2 3 4 5 6 
#
# 1 55.8356 16.6708 26.9102 0.0000 0.0000 0.0000
# 2 16.6708 80.8778 17.2083 0.0000 0.0000 0.0000
# 3 26.9102 17.2083 100.7519 0.0000 0.0000 0.0000
# 4 0.0000 0.0000 0.0000 23.5151 0.0000 0.0000
# 5 0.0000 0.0000 0.0000 0.0000 37.2277 0.0000
# 6 0.0000 0.0000 0.0000 0.0000 0.0000 31.6739
#
#
#
# Elastic Compliance Matrix: (Units=1/GPa)
#
#
# Indices 1 2 3 4 5 6 
#
# 1 0.021378 -0.003312 -0.005144 0.000000 0.000000 0.000000
# 2 -0.003312 0.013344 -0.001394 0.000000 0.000000 0.000000
# 3 -0.005144 -0.001394 0.011538 0.000000 0.000000 0.000000
# 4 0.000000 0.000000 0.000000 0.042526 0.000000 0.000000
# 5 0.000000 0.000000 0.000000 0.000000 0.026862 0.000000
# 6 0.000000 0.000000 0.000000 0.000000 0.000000 0.031572
#
#
# Mechanical properties :
#
#
# Convention : Reuss Voigt Hill
#
# Bulk Modulus (GPa) = 37.65372 39.89375 38.77373
# Shear Modulus (GPa) = 28.44591 30.26175 29.35383
#
# Velocity S-wave (km/s) = 3.63784 3.75216 3.69544
# Velocity P-wave (km/s) = 5.92983 6.10994 6.02056
#
# Compressibility (1/GPa) = 0.02655780
#
# Stress axis : x y z
#
# Youngs Moduli (GPa) = 46.77739 74.94172 86.67362
#
# Poissons Ratio (x) = 0.24820 0.44587
# Poissons Ratio (y) = 0.15492 0.12086
# Poissons Ratio (z) = 0.24063 0.10450
#
# Static dielectric constant tensor:
#      x y z
#    x 1.794650 0.000000 0.000000 
#    y 0.000000 1.741080 0.000000 
#    z 0.000000 0.000000 1.876100 
# 
# From -- ./inp_files/5227.got.cif
#   From: 2010.05.17/outbox.cif.g08.bks.cpg/sg60_3_cif.got.tgz:5227.got - 2010.06.03 14:59:27.
