data_PCOD9455493
_publ_section_title
;
Structure prediction by ZEFSAII (Michael W. Deem and Ramdas Pophale) SiO2 
 PCOD9455493
Probable space group: P B C N
;
_chemical_formula_sum "Si O2"
_cell_formula_units_Z 40
_cell_length_a 9.086285
_cell_length_b 26.589892
_cell_length_c 7.803512
_cell_angle_alpha 90.000000
_cell_angle_beta 90.000000
_cell_angle_gamma 90.000000
_cell_volume 1885.354538
_symmetry_space_group_name_H-M "P B C N"
_symmetry_group_IT_number 60
_symmetry_cell_setting 'orthorhombic'
loop_
_space_group_symop_operation_xyz
x,y,z
1/2-x,1/2-y,1/2+z
1/2+x,1/2-y,-z
-x,y,1/2-z
-x,-y,-z
1/2+x,1/2+y,1/2-z
1/2-x,1/2+y,z
x,-y,1/2+z
loop_
_atom_site_type_symbol
_atom_site_label
_atom_site_fract_x
_atom_site_fract_y
_atom_site_fract_z
Si Si1 0.500000 0.510143 0.750000
Si Si2 0.533938 0.792884 0.924838
Si Si3 0.161181 0.371145 0.321272
Si Si4 0.291631 0.303237 0.045362
Si Si5 0.142148 0.068631 0.047676
Si Si6 0.500000 0.342012 0.750000
O O1 0.365541 0.472397 0.700236
O O2 0.529742 0.545423 0.589435
O O3 0.500000 0.822769 0.750000
O O4 0.617812 0.742279 0.873342
O O5 0.635385 0.823441 0.054568
O O6 0.375349 0.785297 0.011581
O O7 0.269983 0.351542 0.170140
O O8 0.217860 0.417307 0.434518
O O9 0.000000 0.382916 0.250000
O O10 0.381738 0.313664 0.869590
O O11 0.087850 0.121140 0.123511
#
# Coordination Sequence:
#
# PCOD9455493 Si02
#       6
#     4   8   8   8   8   4
#     4   9  20  38  66  92 116 154 194 270 324 375
#     4  11  24  39  60  86 128 176 215 264 300 365
#     4  10  23  41  60  88 125 168 208 253 309 375
#     4  11  25  38  60  91 128 174 219 256 308 360
#     4  10  20  39  62  90 122 151 207 258 316 380
#     4  11  24  36  64  94 122 168 208 256 308 375
#
# _framework density 21.216169000000001
#
# number of rings (size 3 to 8) (size 9 to 14) (size 15 to 20)
#    0.000    1.600    0.000    3.600   12.600    0.000 
#    0.000    1.000    0.000    0.000    0.000    0.000 
#    0.000    0.000    0.000    0.000    0.000    0.000 
#
# Total GULP energy -223166.284538 kJ/mol
# GULP energy per Si atom -5579.157113 kJ/mol
# Density = 2.116788 g / cm^3
# Si number density = 21.216169 Si / 1000 Ang^3
#
#
#
# Elastic Constant Matrix: (Units=GPa)
#
#
# Indices 1 2 3 4 5 6 
#
# 1 71.8754 32.9999 28.7291 0.0000 0.0000 0.0000
# 2 32.9999 44.2698 18.5032 0.0000 0.0000 0.0000
# 3 28.7291 18.5032 89.8556 0.0000 0.0000 0.0000
# 4 0.0000 0.0000 0.0000 12.1363 0.0000 0.0000
# 5 0.0000 0.0000 0.0000 0.0000 41.0331 0.0000
# 6 0.0000 0.0000 0.0000 0.0000 0.0000 13.7795
#
#
#
# Elastic Compliance Matrix: (Units=1/GPa)
#
#
# Indices 1 2 3 4 5 6 
#
# 1 0.022442 -0.015023 -0.004082 0.000000 0.000000 0.000000
# 2 -0.015023 0.034772 -0.002357 0.000000 0.000000 0.000000
# 3 -0.004082 -0.002357 0.012919 0.000000 0.000000 0.000000
# 4 0.000000 0.000000 0.000000 0.082398 0.000000 0.000000
# 5 0.000000 0.000000 0.000000 0.000000 0.024371 0.000000
# 6 0.000000 0.000000 0.000000 0.000000 0.000000 0.072572
#
#
# Mechanical properties :
#
#
# Convention : Reuss Voigt Hill
#
# Bulk Modulus (GPa) = 36.75087 40.71836 38.73461
# Shear Modulus (GPa) = 16.58557 21.77434 19.17996
#
# Velocity S-wave (km/s) = 2.79900 3.20708 3.00996
# Velocity P-wave (km/s) = 5.27310 5.74000 5.51150
#
# Compressibility (1/GPa) = 0.02721024
#
# Stress axis : x y z
#
# Youngs Moduli (GPa) = 44.55972 28.75845 77.40301
#
# Poissons Ratio (x) = 0.43203 0.31594
# Poissons Ratio (y) = 0.66941 0.18246
# Poissons Ratio (z) = 0.18188 0.06779
#
# Static dielectric constant tensor:
#      x y z
#    x 1.778650 0.000000 0.000000 
#    y 0.000000 1.764150 0.000000 
#    z 0.000000 0.000000 1.878470 
# 
# From -- ./inp_files/3903.got.cif
#   From: 2010.05.17/outbox.cif.g08.bks.cpg/sg60_2_cif.got.tgz:3903.got - 2010.06.03 14:59:27.
