data_PCOD9455550
_publ_section_title
;
Structure prediction by ZEFSAII (Michael W. Deem and Ramdas Pophale) SiO2 
 PCOD9455550
Probable space group: P B C N
;
_chemical_formula_sum "Si O2"
_cell_formula_units_Z 40
_cell_length_a 8.348817
_cell_length_b 20.478611
_cell_length_c 10.245473
_cell_angle_alpha 90.000000
_cell_angle_beta 90.000000
_cell_angle_gamma 90.000000
_cell_volume 1751.690809
_symmetry_space_group_name_H-M "P B C N"
_symmetry_group_IT_number 60
_symmetry_cell_setting 'orthorhombic'
loop_
_space_group_symop_operation_xyz
x,y,z
1/2-x,1/2-y,1/2+z
1/2+x,1/2-y,-z
-x,y,1/2-z
-x,-y,-z
1/2+x,1/2+y,1/2-z
1/2-x,1/2+y,z
x,-y,1/2+z
loop_
_atom_site_type_symbol
_atom_site_label
_atom_site_fract_x
_atom_site_fract_y
_atom_site_fract_z
Si Si1 0.807789 0.567285 0.276489
Si Si2 0.000000 0.198836 0.750000
Si Si3 0.000000 0.301397 0.250000
Si Si4 0.690939 0.501191 0.526114
Si Si5 0.729317 0.294991 0.656787
Si Si6 0.259445 0.364832 0.096045
O O1 0.768459 0.555133 0.429613
O O2 0.725244 0.635892 0.232918
O O3 0.000000 0.571127 0.250000
O O4 0.735365 0.510186 0.179529
O O5 0.855594 0.247507 0.723184
O O6 0.941266 0.151007 0.864132
O O7 0.930346 0.248589 0.147473
O O8 0.858234 0.349740 0.287234
O O9 0.500000 0.500000 0.500000
O O10 0.759820 0.435212 0.462456
O O11 0.786965 0.313501 0.514336
#
# Coordination Sequence:
#
# PCOD9455550 Si02
#       6
#     8   4   4   8   8   8
#     4  11  24  45  68  99 134 177 224 281 337 403
#     4  10  20  40  60  92 126 162 214 264 332 396
#     4  10  22  40  64  94 128 172 214 278 330 412
#     4  11  26  44  69  98 136 176 232 277 340 401
#     4  10  21  40  65  92 129 165 219 264 342 391
#     4  10  23  39  63  93 129 168 218 271 335 393
#
# _framework density 22.835077999999999
#
# number of rings (size 3 to 8) (size 9 to 14) (size 15 to 20)
#    0.000    1.600    1.000    2.400    9.800    0.000 
#    0.000    0.000    0.000    0.000    0.000    0.000 
#    0.000    0.000    0.000    0.000    0.000    0.000 
#
# Total GULP energy -222976.501103 kJ/mol
# GULP energy per Si atom -5574.412528 kJ/mol
# Density = 2.278310 g / cm^3
# Si number density = 22.835078 Si / 1000 Ang^3
#
#
#
# Elastic Constant Matrix: (Units=GPa)
#
#
# Indices 1 2 3 4 5 6 
#
# 1 56.6307 3.9569 -13.2118 0.0000 0.0000 0.0000
# 2 3.9569 21.0265 -3.7285 0.0000 0.0000 0.0000
# 3 -13.2118 -3.7285 36.2542 0.0000 0.0000 0.0000
# 4 0.0000 0.0000 0.0000 21.9851 0.0000 0.0000
# 5 0.0000 0.0000 0.0000 0.0000 26.0370 0.0000
# 6 0.0000 0.0000 0.0000 0.0000 0.0000 22.7061
#
#
#
# Elastic Compliance Matrix: (Units=1/GPa)
#
#
# Indices 1 2 3 4 5 6 
#
# 1 0.019422 -0.002444 0.006826 0.000000 0.000000 0.000000
# 2 -0.002444 0.048750 0.004123 0.000000 0.000000 0.000000
# 3 0.006826 0.004123 0.030495 0.000000 0.000000 0.000000
# 4 0.000000 0.000000 0.000000 0.045485 0.000000 0.000000
# 5 0.000000 0.000000 0.000000 0.000000 0.038407 0.000000
# 6 0.000000 0.000000 0.000000 0.000000 0.000000 0.044041
#
#
# Mechanical properties :
#
#
# Convention : Reuss Voigt Hill
#
# Bulk Modulus (GPa) = 8.64485 9.77161 9.20823
# Shear Modulus (GPa) = 20.14919 22.60529 21.37724
#
# Velocity S-wave (km/s) = 2.97371 3.14974 3.06299
# Velocity P-wave (km/s) = 3.94773 4.18525 4.06822
#
# Compressibility (1/GPa) = 0.11567583
#
# Stress axis : x y z
#
# Youngs Moduli (GPa) = 51.48899 20.51276 32.79263
#
# Poissons Ratio (x) = 0.05014 -0.22385
# Poissons Ratio (y) = 0.12586 -0.13520
# Poissons Ratio (z) = -0.35148 -0.08457
#
# Static dielectric constant tensor:
#      x y z
#    x 2.080670 0.000000 0.000000 
#    y 0.000000 1.813590 0.000000 
#    z 0.000000 0.000000 2.031760 
# 
# From -- ./inp_files/3924.got.cif
#   From: 2010.05.17/outbox.cif.g08.bks.cpg/sg60_2_cif.got.tgz:3924.got - 2010.06.03 14:59:27.
