data_PCOD9455066
_publ_section_title
;
Structure prediction by ZEFSAII (Michael W. Deem and Ramdas Pophale) SiO2 
 PCOD9455066
Probable space group: P B C N
;
_chemical_formula_sum "Si O2"
_cell_formula_units_Z 56
_cell_length_a 9.289198
_cell_length_b 14.026064
_cell_length_c 22.432499
_cell_angle_alpha 90.000000
_cell_angle_beta 90.000000
_cell_angle_gamma 90.000000
_cell_volume 2922.750162
_symmetry_space_group_name_H-M "P B C N"
_symmetry_group_IT_number 60
_symmetry_cell_setting 'orthorhombic'
loop_
_space_group_symop_operation_xyz
x,y,z
1/2-x,1/2-y,1/2+z
1/2+x,1/2-y,-z
-x,y,1/2-z
-x,-y,-z
1/2+x,1/2+y,1/2-z
1/2-x,1/2+y,z
x,-y,1/2+z
loop_
_atom_site_type_symbol
_atom_site_label
_atom_site_fract_x
_atom_site_fract_y
_atom_site_fract_z
Si Si1 0.820648 0.377925 0.810570
Si Si2 0.859760 0.224914 0.098910
Si Si3 0.141885 0.443085 0.421479
Si Si4 0.098527 0.286715 0.190528
Si Si5 0.817556 0.546075 0.891204
Si Si6 0.358964 0.564925 0.499212
Si Si7 0.659461 0.908207 0.678223
O O1 0.740175 0.277830 0.805375
O O2 0.770188 0.443951 0.865318
O O3 0.790425 0.422849 0.745687
O O4 0.992857 0.375854 0.818974
O O5 0.818251 0.331979 0.079692
O O6 0.746857 0.171699 0.142008
O O7 0.001840 0.239577 0.138579
O O8 0.880691 0.157564 0.041768
O O9 0.233647 0.501031 0.469150
O O10 0.173755 0.493989 0.358273
O O11 0.969470 0.455975 0.426798
O O12 0.144975 0.389453 0.166081
O O13 0.000000 0.290642 0.250000
O O14 0.697023 0.588134 0.934582
O O15 0.500000 0.500000 0.500000
#
# Coordination Sequence:
#
# PCOD9455066 Si02
#       7
#     8   8   8   8   8   8   8
#     4  10  20  35  59  83 121 154 192 244 297 355
#     4  10  21  38  61  87 117 161 197 255 301 357
#     4   9  21  38  61  82 114 158 204 238 296 365
#     4  11  22  38  62  93 122 156 205 248 308 372
#     4  10  23  38  61  88 116 161 204 246 299 367
#     4  11  23  40  59  88 126 156 206 256 309 356
#     4   9  19  35  56  86 115 152 194 240 297 356
#
# _framework density 19.160036000000002
#
# number of rings (size 3 to 8) (size 9 to 14) (size 15 to 20)
#    0.000    2.000    1.429    1.286    6.000    4.571 
#    0.000    1.429    3.143    0.000    0.000    0.000 
#    0.000    0.000    0.000    0.000    0.000    0.000 
#
# Total GULP energy -312339.411729 kJ/mol
# GULP energy per Si atom -5577.489495 kJ/mol
# Density = 1.911643 g / cm^3
# Si number density = 19.160036 Si / 1000 Ang^3
#
#
#
# Elastic Constant Matrix: (Units=GPa)
#
#
# Indices 1 2 3 4 5 6 
#
# 1 22.8715 17.5582 10.9152 0.0000 0.0000 0.0000
# 2 17.5582 89.5363 12.5264 0.0000 0.0000 0.0000
# 3 10.9152 12.5264 57.8757 0.0000 0.0000 0.0000
# 4 0.0000 0.0000 0.0000 15.9174 0.0000 0.0000
# 5 0.0000 0.0000 0.0000 0.0000 26.3859 0.0000
# 6 0.0000 0.0000 0.0000 0.0000 0.0000 28.4154
#
#
#
# Elastic Compliance Matrix: (Units=1/GPa)
#
#
# Indices 1 2 3 4 5 6 
#
# 1 0.055086 -0.009641 -0.008302 0.000000 0.000000 0.000000
# 2 -0.009641 0.013205 -0.001040 0.000000 0.000000 0.000000
# 3 -0.008302 -0.001040 0.019069 0.000000 0.000000 0.000000
# 4 0.000000 0.000000 0.000000 0.062824 0.000000 0.000000
# 5 0.000000 0.000000 0.000000 0.000000 0.037899 0.000000
# 6 0.000000 0.000000 0.000000 0.000000 0.000000 0.035192
#
#
# Mechanical properties :
#
#
# Convention : Reuss Voigt Hill
#
# Bulk Modulus (GPa) = 20.24542 28.03146 24.13844
# Shear Modulus (GPa) = 18.00462 22.76266 20.38364
#
# Velocity S-wave (km/s) = 3.06877 3.45052 3.26523
# Velocity P-wave (km/s) = 4.81102 5.52600 5.18086
#
# Compressibility (1/GPa) = 0.04939388
#
# Stress axis : x y z
#
# Youngs Moduli (GPa) = 18.15339 75.73062 52.44034
#
# Poissons Ratio (x) = 0.73011 0.43539
# Poissons Ratio (y) = 0.17501 0.05452
# Poissons Ratio (z) = 0.15072 0.07874
#
# Static dielectric constant tensor:
#      x y z
#    x 1.662600 0.000000 0.000000 
#    y 0.000000 1.664870 0.000000 
#    z 0.000000 0.000000 1.695290 
# 
# From -- ./inp_files/22203.got.cif
#   From: 2010.05.17/outbox.cif.g08.bks.cpg/sg60_12_cif.got.tgz:22203.got - 2010.06.03 14:59:27.
