data_PCOD9455122
_publ_section_title
;
Structure prediction by ZEFSAII (Michael W. Deem and Ramdas Pophale) SiO2 
 PCOD9455122
Probable space group: P B C N
;
_chemical_formula_sum "Si O2"
_cell_formula_units_Z 60
_cell_length_a 8.710715
_cell_length_b 14.390969
_cell_length_c 23.816568
_cell_angle_alpha 90.000000
_cell_angle_beta 90.000000
_cell_angle_gamma 90.000000
_cell_volume 2985.540875
_symmetry_space_group_name_H-M "P B C N"
_symmetry_group_IT_number 60
_symmetry_cell_setting 'orthorhombic'
loop_
_space_group_symop_operation_xyz
x,y,z
1/2-x,1/2-y,1/2+z
1/2+x,1/2-y,-z
-x,y,1/2-z
-x,-y,-z
1/2+x,1/2+y,1/2-z
1/2-x,1/2+y,z
x,-y,1/2+z
loop_
_atom_site_type_symbol
_atom_site_label
_atom_site_fract_x
_atom_site_fract_y
_atom_site_fract_z
Si Si1 0.594446 0.551527 0.547633
Si Si2 0.834908 0.129916 0.720254
Si Si3 0.915068 0.706230 0.135494
Si Si4 0.993218 0.326474 0.371982
Si Si5 0.718987 0.766309 0.034047
Si Si6 0.500000 0.191448 0.750000
Si Si7 0.659398 0.315804 0.412054
Si Si8 0.203637 0.491295 0.856278
O O1 0.500000 0.500000 0.500000
O O2 0.706574 0.631990 0.523943
O O3 0.470095 0.604897 0.586259
O O4 0.699145 0.486169 0.586242
O O5 0.842147 0.213132 0.674031
O O6 0.670246 0.142137 0.751912
O O7 0.818355 0.030244 0.690628
O O8 0.000000 0.136494 0.750000
O O9 0.842756 0.714477 0.073130
O O10 0.877676 0.604699 0.157663
O O11 0.091715 0.732946 0.126164
O O12 0.072840 0.277011 0.425019
O O13 0.083245 0.423615 0.362897
O O14 0.003367 0.268578 0.313590
O O15 0.819757 0.347366 0.387960
O O16 0.681516 0.717612 0.976011
#
# Coordination Sequence:
#
# PCOD9455122 Si02
#       8
#     8   8   8   8   8   4   8   8
#     4  10  20  36  56  86 126 167 209 266 326 395
#     4  11  22  45  71  91 132 178 217 277 346 389
#     4  11  21  42  63  92 132 166 217 278 328 398
#     4  10  20  39  61  87 128 169 210 275 336 385
#     4  10  20  38  59  92 131 171 217 275 332 402
#     4  10  20  38  70  88 124 168 220 270 328 392
#     4  11  21  35  64  91 124 175 216 264 341 406
#     4  10  22  41  63  91 134 165 213 279 326 390
#
# _framework density 20.096861000000001
#
# number of rings (size 3 to 8) (size 9 to 14) (size 15 to 20)
#    0.000    1.600    5.333    3.200    0.000    1.067 
#    6.000    3.333    0.000    0.000    0.000    0.000 
#    0.000    0.000    0.000    0.000    0.000    0.000 
#
# Total GULP energy -334331.781372 kJ/mol
# GULP energy per Si atom -5572.196356 kJ/mol
# Density = 2.005112 g / cm^3
# Si number density = 20.096861 Si / 1000 Ang^3
#
#
#
# Elastic Constant Matrix: (Units=GPa)
#
#
# Indices 1 2 3 4 5 6 
#
# 1 126.1122 12.7168 33.6542 0.0000 0.0000 0.0000
# 2 12.7168 47.7787 22.6002 0.0000 0.0000 0.0000
# 3 33.6542 22.6002 89.1092 0.0000 0.0000 0.0000
# 4 0.0000 0.0000 0.0000 13.8949 0.0000 0.0000
# 5 0.0000 0.0000 0.0000 0.0000 38.4224 0.0000
# 6 0.0000 0.0000 0.0000 0.0000 0.0000 15.6704
#
#
#
# Elastic Compliance Matrix: (Units=1/GPa)
#
#
# Indices 1 2 3 4 5 6 
#
# 1 0.008851 -0.000880 -0.003119 0.000000 0.000000 0.000000
# 2 -0.000880 0.023871 -0.005722 0.000000 0.000000 0.000000
# 3 -0.003119 -0.005722 0.013851 0.000000 0.000000 0.000000
# 4 0.000000 0.000000 0.000000 0.071969 0.000000 0.000000
# 5 0.000000 0.000000 0.000000 0.000000 0.026026 0.000000
# 6 0.000000 0.000000 0.000000 0.000000 0.000000 0.063814
#
#
# Mechanical properties :
#
#
# Convention : Reuss Voigt Hill
#
# Bulk Modulus (GPa) = 36.85944 44.54916 40.70430
# Shear Modulus (GPa) = 21.10875 26.53280 23.82077
#
# Velocity S-wave (km/s) = 3.24443 3.63746 3.44655
# Velocity P-wave (km/s) = 5.69349 6.31323 6.01135
#
# Compressibility (1/GPa) = 0.02713009
#
# Stress axis : x y z
#
# Youngs Moduli (GPa) = 112.98606 41.89255 72.19442
#
# Poissons Ratio (x) = 0.03687 0.22521
# Poissons Ratio (y) = 0.09944 0.41308
# Poissons Ratio (z) = 0.35245 0.23970
#
# Static dielectric constant tensor:
#      x y z
#    x 1.742560 0.000000 0.000000 
#    y 0.000000 1.710350 0.000000 
#    z 0.000000 0.000000 1.749230 
# 
# From -- ./inp_files/24045.got.cif
#   From: 2010.05.17/outbox.cif.g08.bks.cpg/sg60_13_cif.got.tgz:24045.got - 2010.06.03 14:59:27.
