data_PCOD9455993
_publ_section_title
;
Structure prediction by ZEFSAII (Michael W. Deem and Ramdas Pophale) SiO2 
 PCOD9455993
Probable space group: P B C N
;
_chemical_formula_sum "Si O2"
_cell_formula_units_Z 44
_cell_length_a 18.733477
_cell_length_b 14.018253
_cell_length_c 9.108761
_cell_angle_alpha 90.000000
_cell_angle_beta 90.000000
_cell_angle_gamma 90.000000
_cell_volume 2392.057375
_symmetry_space_group_name_H-M "P B C N"
_symmetry_group_IT_number 60
_symmetry_cell_setting 'orthorhombic'
loop_
_space_group_symop_operation_xyz
x,y,z
1/2-x,1/2-y,1/2+z
1/2+x,1/2-y,-z
-x,y,1/2-z
-x,-y,-z
1/2+x,1/2+y,1/2-z
1/2-x,1/2+y,z
x,-y,1/2+z
loop_
_atom_site_type_symbol
_atom_site_label
_atom_site_fract_x
_atom_site_fract_y
_atom_site_fract_z
Si Si1 0.645919 0.267444 0.863529
Si Si2 0.235995 0.415337 0.151144
Si Si3 0.272100 0.885916 0.496694
Si Si4 0.976806 0.866267 0.995285
Si Si5 0.500000 0.481431 0.250000
Si Si6 0.359752 0.697879 0.482115
O O1 0.673712 0.160725 0.879410
O O2 0.700748 0.333889 0.949841
O O3 0.647937 0.302445 0.694897
O O4 0.569223 0.280069 0.935694
O O5 0.218112 0.518998 0.090292
O O6 0.240480 0.413664 0.327259
O O7 0.305845 0.372535 0.068280
O O8 0.334630 0.806508 0.518700
O O9 0.966896 0.948196 0.871015
O O10 0.952305 0.912469 0.148944
O O11 0.059125 0.834909 0.011684
#
# Coordination Sequence:
#
# PCOD9455993 Si02
#       6
#     8   8   8   8   4   8
#     4  10  21  38  58  82 112 146 182 230 273 326
#     4  10  22  37  57  81 112 148 186 225 273 324
#     4  10  22  37  57  81 112 148 186 225 273 324
#     4  11  22  38  55  86 111 142 182 225 277 331
#     4  10  24  34  56  86 114 144 172 220 290 330
#     4  10  21  38  58  82 112 146 182 230 273 326
#
# _framework density 18.394207000000002
#
# number of rings (size 3 to 8) (size 9 to 14) (size 15 to 20)
#    0.000    1.818    1.818    1.091    7.636    1.455 
#    0.000    0.909    0.000    0.000    0.000    0.000 
#    0.000    0.000    0.000    0.000    0.000    0.000 
#
# Total GULP energy -245369.393361 kJ/mol
# GULP energy per Si atom -5576.577122 kJ/mol
# Density = 1.835234 g / cm^3
# Si number density = 18.394207 Si / 1000 Ang^3
#
#
#
# Elastic Constant Matrix: (Units=GPa)
#
#
# Indices 1 2 3 4 5 6 
#
# 1 69.1039 30.4197 16.1248 0.0000 0.0000 0.0000
# 2 30.4197 112.5058 55.4982 0.0000 0.0000 0.0000
# 3 16.1248 55.4982 80.2390 0.0000 0.0000 0.0000
# 4 0.0000 0.0000 0.0000 29.2570 0.0000 0.0000
# 5 0.0000 0.0000 0.0000 0.0000 18.5196 0.0000
# 6 0.0000 0.0000 0.0000 0.0000 0.0000 7.7145
#
#
#
# Elastic Compliance Matrix: (Units=1/GPa)
#
#
# Indices 1 2 3 4 5 6 
#
# 1 0.016432 -0.004271 -0.000348 0.000000 0.000000 0.000000
# 2 -0.004271 0.014602 -0.009241 0.000000 0.000000 0.000000
# 3 -0.000348 -0.009241 0.018924 0.000000 0.000000 0.000000
# 4 0.000000 0.000000 0.000000 0.034180 0.000000 0.000000
# 5 0.000000 0.000000 0.000000 0.000000 0.053997 0.000000
# 6 0.000000 0.000000 0.000000 0.000000 0.000000 0.129626
#
#
# Mechanical properties :
#
#
# Convention : Reuss Voigt Hill
#
# Bulk Modulus (GPa) = 44.96849 51.77045 48.36947
# Shear Modulus (GPa) = 16.50734 21.75195 19.12964
#
# Velocity S-wave (km/s) = 2.99895 3.44254 3.22837
# Velocity P-wave (km/s) = 6.04084 6.63382 6.34426
#
# Compressibility (1/GPa) = 0.02223780
#
# Stress axis : x y z
#
# Youngs Moduli (GPa) = 60.85520 68.48390 52.84170
#
# Poissons Ratio (x) = 0.29253 0.01838
# Poissons Ratio (y) = 0.25994 0.48832
# Poissons Ratio (z) = 0.02117 0.63287
#
# Static dielectric constant tensor:
#      x y z
#    x 1.643370 0.000000 0.000000 
#    y 0.000000 1.646980 0.000000 
#    z 0.000000 0.000000 1.650730 
# 
# From -- ./inp_files/6660.got.cif
#   From: 2010.05.17/outbox.cif.g08.bks.cpg/sg60_4_cif.got.tgz:6660.got - 2010.06.03 14:59:27.
