data_PCOD9455931
_publ_section_title
;
Structure prediction by ZEFSAII (Michael W. Deem and Ramdas Pophale) SiO2 
 PCOD9455931
Probable space group: P B C N
;
_chemical_formula_sum "Si O2"
_cell_formula_units_Z 40
_cell_length_a 24.636357
_cell_length_b 8.825996
_cell_length_c 8.236469
_cell_angle_alpha 90.000000
_cell_angle_beta 90.000000
_cell_angle_gamma 90.000000
_cell_volume 1790.941018
_symmetry_space_group_name_H-M "P B C N"
_symmetry_group_IT_number 60
_symmetry_cell_setting 'orthorhombic'
loop_
_space_group_symop_operation_xyz
x,y,z
1/2-x,1/2-y,1/2+z
1/2+x,1/2-y,-z
-x,y,1/2-z
-x,-y,-z
1/2+x,1/2+y,1/2-z
1/2-x,1/2+y,z
x,-y,1/2+z
loop_
_atom_site_type_symbol
_atom_site_label
_atom_site_fract_x
_atom_site_fract_y
_atom_site_fract_z
Si Si1 0.078813 0.848802 0.430010
Si Si2 0.689970 0.715781 0.444497
Si Si3 0.219106 0.101119 0.694156
Si Si4 0.483699 0.162661 0.934730
Si Si5 0.110510 0.821311 0.056320
O O1 0.125652 0.762340 0.532668
O O2 0.019600 0.790570 0.475374
O O3 0.089002 0.823535 0.240716
O O4 0.091756 0.023130 0.470923
O O5 0.703329 0.575045 0.324506
O O6 0.722312 0.858665 0.376450
O O7 0.710734 0.661024 0.622915
O O8 0.174960 0.184079 0.577745
O O9 0.500000 0.174914 0.750000
O O10 0.420223 0.190004 0.962819
O O11 0.500000 0.000000 0.000000
#
# Coordination Sequence:
#
# PCOD9455931 Si02
#       5
#     8   8   8   8   8
#     4  10  21  39  61  85 113 149 190 231 277 334
#     4  10  21  37  59  85 115 150 189 232 279 331
#     4  10  21  37  59  85 115 150 189 232 279 331
#     4  12  25  40  59  84 114 148 186 234 285 334
#     4  10  21  39  61  85 113 149 190 231 277 334
#
# _framework density 22.334624999999999
#
# number of rings (size 3 to 8) (size 9 to 14) (size 15 to 20)
#    0.000    1.600    0.000    4.800    0.000    6.400 
#    0.000    0.000    0.000    0.000    0.000    0.000 
#    0.000    0.000    0.000    0.000    0.000    0.000 
#
# Total GULP energy -223762.852693 kJ/mol
# GULP energy per Si atom -5594.071317 kJ/mol
# Density = 2.228379 g / cm^3
# Si number density = 22.334625 Si / 1000 Ang^3
#
#
#
# Elastic Constant Matrix: (Units=GPa)
#
#
# Indices 1 2 3 4 5 6 
#
# 1 61.2791 -6.6583 -9.7089 0.0000 0.0000 0.0000
# 2 -6.6583 14.1096 -12.9290 0.0000 0.0000 0.0000
# 3 -9.7089 -12.9290 65.9991 0.0000 0.0000 0.0000
# 4 0.0000 0.0000 0.0000 10.2879 0.0000 0.0000
# 5 0.0000 0.0000 0.0000 0.0000 29.0299 0.0000
# 6 0.0000 0.0000 0.0000 0.0000 0.0000 34.0747
#
#
#
# Elastic Compliance Matrix: (Units=1/GPa)
#
#
# Indices 1 2 3 4 5 6 
#
# 1 0.018684 0.013816 0.005455 0.000000 0.000000 0.000000
# 2 0.013816 0.096595 0.020955 0.000000 0.000000 0.000000
# 3 0.005455 0.020955 0.020059 0.000000 0.000000 0.000000
# 4 0.000000 0.000000 0.000000 0.097202 0.000000 0.000000
# 5 0.000000 0.000000 0.000000 0.000000 0.034447 0.000000
# 6 0.000000 0.000000 0.000000 0.000000 0.000000 0.029347
#
#
# Mechanical properties :
#
#
# Convention : Reuss Voigt Hill
#
# Bulk Modulus (GPa) = 4.63413 9.19949 6.91681
# Shear Modulus (GPa) = 17.37235 26.05742 21.71489
#
# Velocity S-wave (km/s) = 2.79197 3.41938 3.12148
# Velocity P-wave (km/s) = 3.53169 4.44043 4.01187
#
# Compressibility (1/GPa) = 0.21579023
#
# Stress axis : x y z
#
# Youngs Moduli (GPa) = 53.52115 10.35247 49.85242
#
# Poissons Ratio (x) = -0.14303 -0.27195
# Poissons Ratio (y) = -0.73943 -1.04466
# Poissons Ratio (z) = -0.29196 -0.21694
#
# Static dielectric constant tensor:
#      x y z
#    x 1.808120 0.000000 0.000000 
#    y 0.000000 1.794970 0.000000 
#    z 0.000000 0.000000 1.804080 
# 
# From -- ./inp_files/7714.got.cif
#   From: 2010.05.17/outbox.cif.g08.bks.cpg/sg60_4_cif.got.tgz:7714.got - 2010.06.03 14:59:27.
