data_PCOD9455494
_publ_section_title
;
Structure prediction by ZEFSAII (Michael W. Deem and Ramdas Pophale) SiO2 
 PCOD9455494
Probable space group: P B C N
;
_chemical_formula_sum "Si O2"
_cell_formula_units_Z 56
_cell_length_a 5.129270
_cell_length_b 14.308027
_cell_length_c 30.097998
_cell_angle_alpha 90.000000
_cell_angle_beta 90.000000
_cell_angle_gamma 90.000000
_cell_volume 2208.884057
_symmetry_space_group_name_H-M "P B C N"
_symmetry_group_IT_number 60
_symmetry_cell_setting 'orthorhombic'
loop_
_space_group_symop_operation_xyz
x,y,z
1/2-x,1/2-y,1/2+z
1/2+x,1/2-y,-z
-x,y,1/2-z
-x,-y,-z
1/2+x,1/2+y,1/2-z
1/2-x,1/2+y,z
x,-y,1/2+z
loop_
_atom_site_type_symbol
_atom_site_label
_atom_site_fract_x
_atom_site_fract_y
_atom_site_fract_z
Si Si1 0.341635 0.694736 0.637951
Si Si2 0.196095 0.551523 0.357645
Si Si3 0.443388 0.292330 0.798506
Si Si4 0.776198 0.989983 0.408932
Si Si5 0.666877 0.596470 0.708973
Si Si6 0.653960 0.130096 0.981708
Si Si7 0.350667 0.740075 0.945247
O O1 0.202574 0.615830 0.607716
O O2 0.449462 0.626974 0.674843
O O3 0.575486 0.733085 0.606646
O O4 0.171358 0.767182 0.666058
O O5 0.265374 0.640327 0.327749
O O6 0.438706 0.520275 0.390398
O O7 0.158136 0.474353 0.318553
O O8 0.934681 0.555504 0.386084
O O9 0.500000 0.336612 0.750000
O O10 0.312027 0.194356 0.784120
O O11 0.726538 0.972193 0.461754
O O12 0.500000 0.559816 0.750000
O O13 0.894771 0.195051 0.967027
O O14 0.389072 0.174897 0.961052
O O15 0.662486 0.155679 0.034267
#
# Coordination Sequence:
#
# PCOD9455494 Si02
#       7
#     8   8   8   8   8   8   8
#     4  10  21  37  61  88 123 162 208 252 311 367
#     4  11  25  40  64  90 123 162 208 256 309 370
#     4  12  25  42  61  91 122 166 210 261 315 371
#     4  10  20  39  62  90 122 163 203 255 306 366
#     4  11  22  41  62  87 119 162 205 262 309 366
#     4   9  16  32  55  90 126 155 204 254 306 363
#     4   9  18  29  56  92 123 158 203 257 300 371
#
# _framework density 25.352167999999999
#
# number of rings (size 3 to 8) (size 9 to 14) (size 15 to 20)
#    0.000    1.714    2.857    3.000    4.000    0.000 
#    0.000    2.143    0.000    1.714    0.000    0.000 
#    0.000    0.000    0.000    0.000    0.000    0.000 
#
# Total GULP energy -312261.223693 kJ/mol
# GULP energy per Si atom -5576.093280 kJ/mol
# Density = 2.529446 g / cm^3
# Si number density = 25.352168 Si / 1000 Ang^3
#
#
#
# Elastic Constant Matrix: (Units=GPa)
#
#
# Indices 1 2 3 4 5 6 
#
# 1 75.2431 -3.8559 21.6480 0.0000 0.0000 0.0000
# 2 -3.8559 66.7169 15.8349 0.0000 0.0000 0.0000
# 3 21.6480 15.8349 86.8510 0.0000 0.0000 0.0000
# 4 0.0000 0.0000 0.0000 50.6545 0.0000 0.0000
# 5 0.0000 0.0000 0.0000 0.0000 74.7589 0.0000
# 6 0.0000 0.0000 0.0000 0.0000 0.0000 26.6697
#
#
#
# Elastic Compliance Matrix: (Units=1/GPa)
#
#
# Indices 1 2 3 4 5 6 
#
# 1 0.014515 0.001774 -0.003941 0.000000 0.000000 0.000000
# 2 0.001774 0.015884 -0.003338 0.000000 0.000000 0.000000
# 3 -0.003941 -0.003338 0.013105 0.000000 0.000000 0.000000
# 4 0.000000 0.000000 0.000000 0.019742 0.000000 0.000000
# 5 0.000000 0.000000 0.000000 0.000000 0.013376 0.000000
# 6 0.000000 0.000000 0.000000 0.000000 0.000000 0.037496
#
#
# Mechanical properties :
#
#
# Convention : Reuss Voigt Hill
#
# Bulk Modulus (GPa) = 30.77570 32.89612 31.83591
# Shear Modulus (GPa) = 36.77577 43.42889 40.10233
#
# Velocity S-wave (km/s) = 3.81280 4.14336 3.98151
# Velocity P-wave (km/s) = 5.61684 5.99114 5.80701
#
# Compressibility (1/GPa) = 0.03249317
#
# Stress axis : x y z
#
# Youngs Moduli (GPa) = 68.89343 62.95813 76.30650
#
# Poissons Ratio (x) = -0.11171 0.30076
# Poissons Ratio (y) = -0.12224 0.25473
# Poissons Ratio (z) = 0.27154 0.21017
#
# Static dielectric constant tensor:
#      x y z
#    x 2.025520 0.000000 0.000000 
#    y 0.000000 2.088580 0.000000 
#    z 0.000000 0.000000 2.855510 
# 
# From -- ./inp_files/25710.got.cif
#   From: 2010.05.17/outbox.cif.g08.bks.cpg/sg60_13_cif.got.tgz:25710.got - 2010.06.03 14:59:27.
