data_PCOD9455709
_publ_section_title
;
Structure prediction by ZEFSAII (Michael W. Deem and Ramdas Pophale) SiO2 
 PCOD9455709
Probable space group: P B C N
;
_chemical_formula_sum "Si O2"
_cell_formula_units_Z 60
_cell_length_a 11.853359
_cell_length_b 8.626162
_cell_length_c 24.547807
_cell_angle_alpha 90.000000
_cell_angle_beta 90.000000
_cell_angle_gamma 90.000000
_cell_volume 2509.988595
_symmetry_space_group_name_H-M "P B C N"
_symmetry_group_IT_number 60
_symmetry_cell_setting 'orthorhombic'
loop_
_space_group_symop_operation_xyz
x,y,z
1/2-x,1/2-y,1/2+z
1/2+x,1/2-y,-z
-x,y,1/2-z
-x,-y,-z
1/2+x,1/2+y,1/2-z
1/2-x,1/2+y,z
x,-y,1/2+z
loop_
_atom_site_type_symbol
_atom_site_label
_atom_site_fract_x
_atom_site_fract_y
_atom_site_fract_z
Si Si1 0.964896 0.779230 0.644211
Si Si2 0.156235 0.574575 0.786316
Si Si3 0.632721 0.818345 0.443720
Si Si4 0.414870 0.233539 0.435302
Si Si5 0.725554 0.517524 0.106879
Si Si6 0.500000 0.476714 0.750000
Si Si7 0.267530 0.632473 0.217130
Si Si8 0.344473 0.166222 0.098088
O O1 0.952672 0.620780 0.678534
O O2 0.853004 0.830627 0.612842
O O3 0.973205 0.903823 0.691611
O O4 0.065815 0.772486 0.603032
O O5 0.248127 0.555621 0.834127
O O6 0.177703 0.713733 0.743507
O O7 0.160636 0.416420 0.753749
O O8 0.570420 0.789973 0.500385
O O9 0.760581 0.757814 0.442151
O O10 0.635384 0.996412 0.426332
O O11 0.342229 0.389089 0.426392
O O12 0.342125 0.084126 0.416482
O O13 0.531965 0.243820 0.402342
O O14 0.636202 0.501316 0.769962
O O15 0.219412 0.652536 0.156454
#
# Coordination Sequence:
#
# PCOD9455709 Si02
#       8
#     8   8   8   8   8   4   8   8
#     4  11  24  42  75 100 149 196 239 305 381 453
#     4  11  21  43  69 105 140 193 238 302 375 457
#     4  12  28  50  75 108 156 196 260 317 383 448
#     4  12  29  49  78 110 151 204 258 325 377 451
#     4  12  24  48  75 108 148 195 262 303 389 456
#     4  10  20  42  68 104 142 198 224 302 378 450
#     4  11  23  42  71 107 150 185 252 304 385 453
#     4  12  28  48  75 115 150 199 254 321 383 457
#
# _framework density 23.904491
#
# number of rings (size 3 to 8) (size 9 to 14) (size 15 to 20)
#    0.000    0.533    5.333    2.800    5.600    1.600 
#    0.000    2.667    0.000    0.000    0.000    0.000 
#    0.000    0.000    0.000    0.000    0.000    0.000 
#
# Total GULP energy -334603.959523 kJ/mol
# GULP energy per Si atom -5576.732659 kJ/mol
# Density = 2.385008 g / cm^3
# Si number density = 23.904491 Si / 1000 Ang^3
#
#
#
# Elastic Constant Matrix: (Units=GPa)
#
#
# Indices 1 2 3 4 5 6 
#
# 1 124.6925 18.1792 48.6841 0.0000 0.0000 0.0000
# 2 18.1792 41.6553 12.4244 0.0000 0.0000 0.0000
# 3 48.6841 12.4244 110.1822 0.0000 0.0000 0.0000
# 4 0.0000 0.0000 0.0000 28.3814 0.0000 0.0000
# 5 0.0000 0.0000 0.0000 0.0000 35.6225 0.0000
# 6 0.0000 0.0000 0.0000 0.0000 0.0000 11.0674
#
#
#
# Elastic Compliance Matrix: (Units=1/GPa)
#
#
# Indices 1 2 3 4 5 6 
#
# 1 0.010083 -0.003178 -0.004097 0.000000 0.000000 0.000000
# 2 -0.003178 0.025844 -0.001510 0.000000 0.000000 0.000000
# 3 -0.004097 -0.001510 0.011056 0.000000 0.000000 0.000000
# 4 0.000000 0.000000 0.000000 0.035234 0.000000 0.000000
# 5 0.000000 0.000000 0.000000 0.000000 0.028072 0.000000
# 6 0.000000 0.000000 0.000000 0.000000 0.000000 0.090355
#
#
# Mechanical properties :
#
#
# Convention : Reuss Voigt Hill
#
# Bulk Modulus (GPa) = 33.99840 48.34505 41.17173
# Shear Modulus (GPa) = 21.92804 28.16376 25.04590
#
# Velocity S-wave (km/s) = 3.03201 3.43618 3.24041
# Velocity P-wave (km/s) = 5.14888 6.00094 5.59117
#
# Compressibility (1/GPa) = 0.02941315
#
# Stress axis : x y z
#
# Youngs Moduli (GPa) = 99.18126 38.69367 90.44693
#
# Poissons Ratio (x) = 0.12298 0.37052
# Poissons Ratio (y) = 0.31523 0.13656
# Poissons Ratio (z) = 0.40630 0.05842
#
# Static dielectric constant tensor:
#      x y z
#    x 2.086920 0.000000 0.000000 
#    y 0.000000 1.947020 0.000000 
#    z 0.000000 0.000000 1.901030 
# 
# From -- ./inp_files/25323.got.cif
#   From: 2010.05.17/outbox.cif.g08.bks.cpg/sg60_13_cif.got.tgz:25323.got - 2010.06.03 14:59:27.
