data_PCOD9455690
_publ_section_title
;
Structure prediction by ZEFSAII (Michael W. Deem and Ramdas Pophale) SiO2 
 PCOD9455690
Probable space group: P B C N
;
_chemical_formula_sum "Si O2"
_cell_formula_units_Z 56
_cell_length_a 14.407352
_cell_length_b 12.059508
_cell_length_c 15.990632
_cell_angle_alpha 90.000000
_cell_angle_beta 90.000000
_cell_angle_gamma 90.000000
_cell_volume 2778.301579
_symmetry_space_group_name_H-M "P B C N"
_symmetry_group_IT_number 60
_symmetry_cell_setting 'orthorhombic'
loop_
_space_group_symop_operation_xyz
x,y,z
1/2-x,1/2-y,1/2+z
1/2+x,1/2-y,-z
-x,y,1/2-z
-x,-y,-z
1/2+x,1/2+y,1/2-z
1/2-x,1/2+y,z
x,-y,1/2+z
loop_
_atom_site_type_symbol
_atom_site_label
_atom_site_fract_x
_atom_site_fract_y
_atom_site_fract_z
Si Si1 0.684900 0.773246 0.125768
Si Si2 0.370106 0.651501 0.953832
Si Si3 0.649478 0.403359 0.490752
Si Si4 0.322278 0.201277 0.593763
Si Si5 0.031702 0.165769 0.667746
Si Si6 0.605191 0.058786 0.754882
Si Si7 0.695274 0.826573 0.778223
O O1 0.763109 0.831897 0.070239
O O2 0.633553 0.687956 0.063724
O O3 0.625626 0.865191 0.174134
O O4 0.744656 0.712554 0.198506
O O5 0.377873 0.522173 0.973111
O O6 0.437278 0.693310 0.880826
O O7 0.387529 0.728756 0.033367
O O8 0.755890 0.380679 0.460560
O O9 0.592090 0.389092 0.405214
O O10 0.376493 0.134207 0.664041
O O11 0.256303 0.290172 0.641591
O O12 0.097833 0.262207 0.705117
O O13 0.000000 0.097765 0.750000
O O14 0.500000 0.018846 0.750000
O O15 0.673597 0.954981 0.764733
#
# Coordination Sequence:
#
# PCOD9455690 Si02
#       7
#     8   8   8   8   8   8   8
#     4  10  22  40  64  90 128 166 211 262 311 393
#     4  11  21  40  64  88 124 161 213 261 326 371
#     4  10  22  40  63  90 123 163 213 261 321 369
#     4   9  22  40  62  88 126 166 210 263 312 391
#     4  11  22  39  63  91 121 162 213 263 299 392
#     4  11  23  38  63  96 131 163 211 263 323 365
#     4  10  20  42  64  90 126 173 213 249 321 387
#
# _framework density 20.156199000000001
#
# number of rings (size 3 to 8) (size 9 to 14) (size 15 to 20)
#    0.000    1.714    1.429    2.571    2.000    0.000 
#    5.143    0.714    0.000    0.000    0.000    0.000 
#    0.000    0.000    0.000    0.000    0.000    0.000 
#
# Total GULP energy -312313.721048 kJ/mol
# GULP energy per Si atom -5577.030733 kJ/mol
# Density = 2.011032 g / cm^3
# Si number density = 20.156199 Si / 1000 Ang^3
#
#
#
# Elastic Constant Matrix: (Units=GPa)
#
#
# Indices 1 2 3 4 5 6 
#
# 1 50.5973 12.6866 18.0035 0.0000 0.0000 0.0000
# 2 12.6866 78.0805 42.4574 0.0000 0.0000 0.0000
# 3 18.0035 42.4574 119.3676 0.0000 0.0000 0.0000
# 4 0.0000 0.0000 0.0000 6.7427 0.0000 0.0000
# 5 0.0000 0.0000 0.0000 0.0000 26.1159 0.0000
# 6 0.0000 0.0000 0.0000 0.0000 0.0000 10.5205
#
#
#
# Elastic Compliance Matrix: (Units=1/GPa)
#
#
# Indices 1 2 3 4 5 6 
#
# 1 0.021162 -0.002111 -0.002441 0.000000 0.000000 0.000000
# 2 -0.002111 0.016089 -0.005404 0.000000 0.000000 0.000000
# 3 -0.002441 -0.005404 0.010668 0.000000 0.000000 0.000000
# 4 0.000000 0.000000 0.000000 0.148309 0.000000 0.000000
# 5 0.000000 0.000000 0.000000 0.000000 0.038291 0.000000
# 6 0.000000 0.000000 0.000000 0.000000 0.000000 0.095053
#
#
# Mechanical properties :
#
#
# Convention : Reuss Voigt Hill
#
# Bulk Modulus (GPa) = 35.70641 43.81561 39.76101
# Shear Modulus (GPa) = 13.93460 20.33567 17.13513
#
# Velocity S-wave (km/s) = 2.63217 3.17977 2.91884
# Velocity P-wave (km/s) = 5.19529 5.93856 5.57932
#
# Compressibility (1/GPa) = 0.02800617
#
# Stress axis : x y z
#
# Youngs Moduli (GPa) = 47.25509 62.15459 93.73999
#
# Poissons Ratio (x) = 0.13122 0.22880
# Poissons Ratio (y) = 0.09976 0.50659
# Poissons Ratio (z) = 0.11534 0.33590
#
# Static dielectric constant tensor:
#      x y z
#    x 1.751220 0.000000 0.000000 
#    y 0.000000 1.689840 0.000000 
#    z 0.000000 0.000000 1.734940 
# 
# From -- ./inp_files/16854.got.cif
#   From: 2010.05.17/outbox.cif.g08.bks.cpg/sg60_9_cif.got.tgz:16854.got - 2010.06.03 14:59:27.
