data_PCOD9455356
_publ_section_title
;
Structure prediction by ZEFSAII (Michael W. Deem and Ramdas Pophale) SiO2 
 PCOD9455356
Probable space group: P B C N
;
_chemical_formula_sum "Si O2"
_cell_formula_units_Z 24
_cell_length_a 5.060399
_cell_length_b 15.813019
_cell_length_c 14.812985
_cell_angle_alpha 90.000000
_cell_angle_beta 90.000000
_cell_angle_gamma 90.000000
_cell_volume 1185.337808
_symmetry_space_group_name_H-M "P B C N"
_symmetry_group_IT_number 60
_symmetry_cell_setting 'orthorhombic'
loop_
_space_group_symop_operation_xyz
x,y,z
1/2-x,1/2-y,1/2+z
1/2+x,1/2-y,-z
-x,y,1/2-z
-x,-y,-z
1/2+x,1/2+y,1/2-z
1/2-x,1/2+y,z
x,-y,1/2+z
loop_
_atom_site_type_symbol
_atom_site_label
_atom_site_fract_x
_atom_site_fract_y
_atom_site_fract_z
Si Si1 0.801406 0.306313 0.498520
Si Si2 0.394772 0.431948 0.845088
Si Si3 0.414223 0.968499 0.098966
O O1 0.570400 0.240837 0.474699
O O2 0.690964 0.361376 0.582686
O O3 0.868750 0.369069 0.415494
O O4 0.500000 0.396566 0.750000
O O5 0.639458 0.486447 0.880960
O O6 0.148019 0.496830 0.837759
O O7 0.500000 0.000000 0.000000
#
# Coordination Sequence:
#
# PCOD9455356 Si02
#       3
#     8   8   8
#     4  11  21  37  61  88 120 157 196 242 300 361
#     4  11  22  39  62  88 118 157 203 251 291 339
#     4  10  20  38  61  84 112 156 204 235 281 362
#
# _framework density 20.247392999999999
#
# number of rings (size 3 to 8) (size 9 to 14) (size 15 to 20)
#    0.000    1.333    0.000   11.000    0.000    0.000 
#    0.000    6.667    0.000    0.000    0.000    0.000 
#    0.000    0.000    0.000    0.000    0.000    0.000 
#
# Total GULP energy -133988.026088 kJ/mol
# GULP energy per Si atom -5582.834420 kJ/mol
# Density = 2.020131 g / cm^3
# Si number density = 20.247393 Si / 1000 Ang^3
#
#
#
# Elastic Constant Matrix: (Units=GPa)
#
#
# Indices 1 2 3 4 5 6 
#
# 1 143.7054 29.2847 10.3071 0.0000 0.0000 0.0000
# 2 29.2847 70.0745 -1.2991 0.0000 0.0000 0.0000
# 3 10.3071 -1.2991 58.6062 0.0000 0.0000 0.0000
# 4 0.0000 0.0000 0.0000 12.1699 0.0000 0.0000
# 5 0.0000 0.0000 0.0000 0.0000 31.2228 0.0000
# 6 0.0000 0.0000 0.0000 0.0000 0.0000 49.3277
#
#
#
# Elastic Compliance Matrix: (Units=1/GPa)
#
#
# Indices 1 2 3 4 5 6 
#
# 1 0.007725 -0.003255 -0.001431 0.000000 0.000000 0.000000
# 2 -0.003255 0.015648 0.000919 0.000000 0.000000 0.000000
# 3 -0.001431 0.000919 0.017335 0.000000 0.000000 0.000000
# 4 0.000000 0.000000 0.000000 0.082170 0.000000 0.000000
# 5 0.000000 0.000000 0.000000 0.000000 0.032028 0.000000
# 6 0.000000 0.000000 0.000000 0.000000 0.000000 0.020273
#
#
# Mechanical properties :
#
#
# Convention : Reuss Voigt Hill
#
# Bulk Modulus (GPa) = 30.14306 38.77462 34.45884
# Shear Modulus (GPa) = 25.80406 34.15032 29.97719
#
# Velocity S-wave (km/s) = 3.57380 4.11134 3.85196
# Velocity P-wave (km/s) = 5.65235 6.45984 6.06954
#
# Compressibility (1/GPa) = 0.03317514
#
# Stress axis : x y z
#
# Youngs Moduli (GPa) = 129.45756 63.90708 57.68664
#
# Poissons Ratio (x) = 0.20800 0.08253
# Poissons Ratio (y) = 0.42134 -0.05303
# Poissons Ratio (z) = 0.18521 -0.05875
#
# Static dielectric constant tensor:
#      x y z
#    x 1.702880 0.000000 0.000000 
#    y 0.000000 1.762040 0.000000 
#    z 0.000000 0.000000 1.758320 
# 
# From -- ./inp_files/13481.got.cif
#   From: 2010.05.17/outbox.cif.g08.bks.cpg/sg60_7_cif.got.tgz:13481.got - 2010.06.03 14:59:27.
