data_PCOD9455048
_publ_section_title
;
Structure prediction by ZEFSAII (Michael W. Deem and Ramdas Pophale) SiO2 
 PCOD9455048
Probable space group: P B C N
;
_chemical_formula_sum "Si O2"
_cell_formula_units_Z 64
_cell_length_a 5.196474
_cell_length_b 18.823081
_cell_length_c 25.778196
_cell_angle_alpha 90.000000
_cell_angle_beta 90.000000
_cell_angle_gamma 90.000000
_cell_volume 2521.459467
_symmetry_space_group_name_H-M "P B C N"
_symmetry_group_IT_number 60
_symmetry_cell_setting 'orthorhombic'
loop_
_space_group_symop_operation_xyz
x,y,z
1/2-x,1/2-y,1/2+z
1/2+x,1/2-y,-z
-x,y,1/2-z
-x,-y,-z
1/2+x,1/2+y,1/2-z
1/2-x,1/2+y,z
x,-y,1/2+z
loop_
_atom_site_type_symbol
_atom_site_label
_atom_site_fract_x
_atom_site_fract_y
_atom_site_fract_z
Si Si1 0.202445 0.986645 0.113746
Si Si2 0.517716 0.785947 0.561622
Si Si3 0.763846 0.419601 0.784384
Si Si4 0.197334 0.559971 0.941633
Si Si5 0.805964 0.762869 0.798182
Si Si6 0.524516 0.344684 0.978958
Si Si7 0.475229 0.382390 0.196323
Si Si8 0.334726 0.191024 0.871721
O O1 0.234600 0.044349 0.159142
O O2 0.428422 0.981022 0.070415
O O3 0.190110 0.916217 0.150330
O O4 0.916927 0.983557 0.089345
O O5 0.247343 0.824574 0.561094
O O6 0.507605 0.722336 0.518800
O O7 0.599570 0.742015 0.611946
O O8 0.742156 0.842145 0.546242
O O9 0.500000 0.420797 0.750000
O O10 0.832622 0.337830 0.797509
O O11 0.000000 0.449790 0.750000
O O12 0.362309 0.586136 0.991838
O O13 0.116418 0.639016 0.919917
O O14 0.647810 0.692139 0.790496
O O15 0.000000 0.766330 0.750000
O O16 0.960804 0.745033 0.850166
O O17 0.500000 0.424625 0.250000
O O18 0.751151 0.364192 0.172569
#
# Coordination Sequence:
#
# PCOD9455048 Si02
#       8
#     8   8   8   8   8   8   8   8
#     4  11  22  37  58  84 113 147 192 235 287 332
#     4   9  18  29  49  76 113 147 174 225 279 345
#     4  11  25  42  58  81 115 156 200 238 278 338
#     4  10  20  35  57  85 114 145 183 239 285 349
#     4  11  22  37  57  78 114 156 193 234 283 332
#     4   9  17  31  49  77 112 145 176 216 294 343
#     4  11  21  34  55  82 115 151 186 237 290 336
#     4  10  21  33  52  84 115 146 192 234 282 339
#
# _framework density 25.382127000000001
#
# number of rings (size 3 to 8) (size 9 to 14) (size 15 to 20)
#    0.000    1.750    2.500    2.250    3.500    4.500 
#    0.000    0.000    0.000    0.000    0.000    5.250 
#    0.000    0.000    0.000    0.000    0.000    0.000 
#
# Total GULP energy -357301.532972 kJ/mol
# GULP energy per Si atom -5582.836453 kJ/mol
# Density = 2.532436 g / cm^3
# Si number density = 25.382127 Si / 1000 Ang^3
#
#
#
# Elastic Constant Matrix: (Units=GPa)
#
#
# Indices 1 2 3 4 5 6 
#
# 1 118.3371 8.8340 13.9663 0.0000 0.0000 0.0000
# 2 8.8340 90.7734 14.6672 0.0000 0.0000 0.0000
# 3 13.9663 14.6672 28.6622 0.0000 0.0000 0.0000
# 4 0.0000 0.0000 0.0000 11.4438 0.0000 0.0000
# 5 0.0000 0.0000 0.0000 0.0000 39.0317 0.0000
# 6 0.0000 0.0000 0.0000 0.0000 0.0000 16.7501
#
#
#
# Elastic Compliance Matrix: (Units=1/GPa)
#
#
# Indices 1 2 3 4 5 6 
#
# 1 0.008969 -0.000182 -0.004277 0.000000 0.000000 0.000000
# 2 -0.000182 0.012013 -0.006059 0.000000 0.000000 0.000000
# 3 -0.004277 -0.006059 0.040074 0.000000 0.000000 0.000000
# 4 0.000000 0.000000 0.000000 0.087384 0.000000 0.000000
# 5 0.000000 0.000000 0.000000 0.000000 0.025620 0.000000
# 6 0.000000 0.000000 0.000000 0.000000 0.000000 0.059701
#
#
# Mechanical properties :
#
#
# Convention : Reuss Voigt Hill
#
# Bulk Modulus (GPa) = 24.98749 34.74530 29.86639
# Shear Modulus (GPa) = 18.64721 26.79878 22.72299
#
# Velocity S-wave (km/s) = 2.71340 3.25285 2.99530
# Velocity P-wave (km/s) = 4.43651 5.27510 4.87387
#
# Compressibility (1/GPa) = 0.04002003
#
# Stress axis : x y z
#
# Youngs Moduli (GPa) = 111.49747 83.24228 24.95394
#
# Poissons Ratio (x) = 0.01513 0.10673
# Poissons Ratio (y) = 0.02026 0.15119
# Poissons Ratio (z) = 0.47690 0.50435
#
# Static dielectric constant tensor:
#      x y z
#    x 2.129270 0.000000 0.000000 
#    y 0.000000 1.989610 0.000000 
#    z 0.000000 0.000000 2.070350 
# 
# From -- ./inp_files/25052.got.cif
#   From: 2010.05.17/outbox.cif.g08.bks.cpg/sg60_13_cif.got.tgz:25052.got - 2010.06.03 14:59:27.
