data_PCOD9455619
_publ_section_title
;
Structure prediction by ZEFSAII (Michael W. Deem and Ramdas Pophale) SiO2 
 PCOD9455619
Probable space group: P B C N
;
_chemical_formula_sum "Si O2"
_cell_formula_units_Z 60
_cell_length_a 11.255141
_cell_length_b 8.398537
_cell_length_c 28.305889
_cell_angle_alpha 90.000000
_cell_angle_beta 90.000000
_cell_angle_gamma 90.000000
_cell_volume 2675.662791
_symmetry_space_group_name_H-M "P B C N"
_symmetry_group_IT_number 60
_symmetry_cell_setting 'orthorhombic'
loop_
_space_group_symop_operation_xyz
x,y,z
1/2-x,1/2-y,1/2+z
1/2+x,1/2-y,-z
-x,y,1/2-z
-x,-y,-z
1/2+x,1/2+y,1/2-z
1/2-x,1/2+y,z
x,-y,1/2+z
loop_
_atom_site_type_symbol
_atom_site_label
_atom_site_fract_x
_atom_site_fract_y
_atom_site_fract_z
Si Si1 0.876143 0.905766 0.495271
Si Si2 0.389792 0.146901 0.390987
Si Si3 0.168654 0.190135 0.793066
Si Si4 0.135755 0.514558 0.745346
Si Si5 0.179882 0.933208 0.669869
Si Si6 0.144132 0.228650 0.609388
Si Si7 0.280410 0.867588 0.447213
Si Si8 0.000000 0.070232 0.250000
O O1 0.847688 0.836033 0.443797
O O2 0.872478 0.759681 0.532303
O O3 0.769259 0.020829 0.511360
O O4 0.000000 0.000000 0.500000
O O5 0.346706 0.216428 0.341344
O O6 0.531736 0.152832 0.389969
O O7 0.333916 0.272443 0.427945
O O8 0.337008 0.978034 0.406747
O O9 0.142720 0.325244 0.754659
O O10 0.297604 0.117289 0.784930
O O11 0.083065 0.042690 0.782343
O O12 0.213347 0.522856 0.698041
O O13 0.000000 0.558815 0.750000
O O14 0.241833 0.815034 0.632448
O O15 0.092835 0.860860 0.710620
O O16 0.115141 0.074150 0.641405
#
# Coordination Sequence:
#
# PCOD9455619 Si02
#       8
#     8   8   8   8   8   8   8   4
#     4  11  23  47  74 106 142 190 235 307 376 451
#     4  11  22  43  70 102 140 189 241 304 352 446
#     4  11  21  41  68  94 138 189 232 302 352 423
#     4  11  23  42  65  97 141 191 244 295 365 431
#     4  11  24  44  67 102 138 198 233 302 358 423
#     4  12  24  45  70 103 149 181 245 301 361 437
#     4  10  24  45  72 104 142 187 243 289 386 444
#     4  10  20  40  70  92 142 190 240 290 366 424
#
# _framework density 22.424351000000001
#
# number of rings (size 3 to 8) (size 9 to 14) (size 15 to 20)
#    0.000    1.067    3.333    4.000    0.000    0.533 
#   15.600    0.000    0.000    0.000    0.000    0.000 
#    0.000    0.000    0.000    0.000    0.000    0.000 
#
# Total GULP energy -335291.559793 kJ/mol
# GULP energy per Si atom -5588.192663 kJ/mol
# Density = 2.237331 g / cm^3
# Si number density = 22.424351 Si / 1000 Ang^3
#
#
#
# Elastic Constant Matrix: (Units=GPa)
#
#
# Indices 1 2 3 4 5 6 
#
# 1 139.6882 38.4668 36.4356 0.0000 0.0000 0.0000
# 2 38.4668 73.6953 26.4350 0.0000 0.0000 0.0000
# 3 36.4356 26.4350 101.5867 0.0000 0.0000 0.0000
# 4 0.0000 0.0000 0.0000 30.4434 0.0000 0.0000
# 5 0.0000 0.0000 0.0000 0.0000 30.4857 0.0000
# 6 0.0000 0.0000 0.0000 0.0000 0.0000 149.1937
#
#
#
# Elastic Compliance Matrix: (Units=1/GPa)
#
#
# Indices 1 2 3 4 5 6 
#
# 1 0.008768 -0.003804 -0.002155 0.000000 0.000000 0.000000
# 2 -0.003804 0.016617 -0.002960 0.000000 0.000000 0.000000
# 3 -0.002155 -0.002960 0.011387 0.000000 0.000000 0.000000
# 4 0.000000 0.000000 0.000000 0.032848 0.000000 0.000000
# 5 0.000000 0.000000 0.000000 0.000000 0.032802 0.000000
# 6 0.000000 0.000000 0.000000 0.000000 0.000000 0.006703
#
#
# Mechanical properties :
#
#
# Convention : Reuss Voigt Hill
#
# Bulk Modulus (GPa) = 52.81308 57.51613 55.16461
# Shear Modulus (GPa) = 37.51690 56.26676 46.89183
#
# Velocity S-wave (km/s) = 4.09472 5.01461 4.57783
# Velocity P-wave (km/s) = 6.77927 7.69630 7.25229
#
# Compressibility (1/GPa) = 0.01893470
#
# Stress axis : x y z
#
# Youngs Moduli (GPa) = 114.04588 60.18110 87.81998
#
# Poissons Ratio (x) = 0.22892 0.18926
# Poissons Ratio (y) = 0.43381 0.25992
# Poissons Ratio (z) = 0.24578 0.17812
#
# Static dielectric constant tensor:
#      x y z
#    x 1.925840 0.000000 0.000000 
#    y 0.000000 1.867110 0.000000 
#    z 0.000000 0.000000 1.844680 
# 
# From -- ./inp_files/25328.got.cif
#   From: 2010.05.17/outbox.cif.g08.bks.cpg/sg60_13_cif.got.tgz:25328.got - 2010.06.03 14:59:27.
