data_PCOD9455780
_publ_section_title
;
Structure prediction by ZEFSAII (Michael W. Deem and Ramdas Pophale) SiO2 
 PCOD9455780
Probable space group: P B C N
;
_chemical_formula_sum "Si O2"
_cell_formula_units_Z 52
_cell_length_a 5.803919
_cell_length_b 18.111245
_cell_length_c 20.665619
_cell_angle_alpha 90.000000
_cell_angle_beta 90.000000
_cell_angle_gamma 90.000000
_cell_volume 2172.291319
_symmetry_space_group_name_H-M "P B C N"
_symmetry_group_IT_number 60
_symmetry_cell_setting 'orthorhombic'
loop_
_space_group_symop_operation_xyz
x,y,z
1/2-x,1/2-y,1/2+z
1/2+x,1/2-y,-z
-x,y,1/2-z
-x,-y,-z
1/2+x,1/2+y,1/2-z
1/2-x,1/2+y,z
x,-y,1/2+z
loop_
_atom_site_type_symbol
_atom_site_label
_atom_site_fract_x
_atom_site_fract_y
_atom_site_fract_z
Si Si1 0.496189 0.913249 0.481233
Si Si2 0.385823 0.529579 0.815344
Si Si3 0.887247 0.812348 0.317666
Si Si4 0.976012 0.118201 0.122418
Si Si5 0.996353 0.913791 0.477718
Si Si6 0.977188 0.331365 0.880704
Si Si7 0.500000 0.112222 0.750000
O O1 0.491880 0.867020 0.548059
O O2 0.500000 0.000000 0.500000
O O3 0.742919 0.899469 0.447768
O O4 0.249539 0.898814 0.447682
O O5 0.500000 0.497730 0.750000
O O6 0.507837 0.606999 0.827354
O O7 0.427615 0.468527 0.867920
O O8 0.134190 0.555459 0.796177
O O9 0.936183 0.755716 0.374214
O O10 0.629996 0.832158 0.297849
O O11 0.000000 0.783120 0.250000
O O12 0.992471 0.132025 0.045398
O O13 0.734944 0.153272 0.147923
O O14 0.233394 0.137100 0.148638
O O15 0.000000 0.000000 0.500000
#
# Coordination Sequence:
#
# PCOD9455780 Si02
#       7
#     8   8   8   8   8   8   4
#     4   8  14  27  45  68  97 126 154 196 251 298
#     4   9  20  35  51  69  99 143 176 210 255 311
#     4   9  20  35  51  69  99 143 176 210 255 311
#     4  10  21  32  50  80 104 127 171 219 259 296
#     4   8  14  27  45  68  97 126 154 196 251 298
#     4  10  21  32  50  80 104 127 171 219 259 296
#     4   8  18  36  52  62  96 148 188 196 262 316
#
# _framework density 23.937859
#
# number of rings (size 3 to 8) (size 9 to 14) (size 15 to 20)
#    0.000    3.385    0.000    0.000    8.615    1.231 
#    0.000    0.000    0.000    0.000    0.000   34.462 
#    0.000    0.000    0.000    0.000    0.000    0.000 
#
# Total GULP energy -289549.742817 kJ/mol
# GULP energy per Si atom -5568.264285 kJ/mol
# Density = 2.388338 g / cm^3
# Si number density = 23.937859 Si / 1000 Ang^3
#
#
#
# Elastic Constant Matrix: (Units=GPa)
#
#
# Indices 1 2 3 4 5 6 
#
# 1 232.1581 25.1415 19.6252 0.0000 0.0000 0.0000
# 2 25.1415 48.0934 2.5565 0.0000 0.0000 0.0000
# 3 19.6252 2.5565 61.6963 0.0000 0.0000 0.0000
# 4 0.0000 0.0000 0.0000 1.2056 0.0000 0.0000
# 5 0.0000 0.0000 0.0000 0.0000 24.4321 0.0000
# 6 0.0000 0.0000 0.0000 0.0000 0.0000 39.4189
#
#
#
# Elastic Compliance Matrix: (Units=1/GPa)
#
#
# Indices 1 2 3 4 5 6 
#
# 1 0.004682 -0.002374 -0.001391 0.000000 0.000000 0.000000
# 2 -0.002374 0.022042 -0.000158 0.000000 0.000000 0.000000
# 3 -0.001391 -0.000158 0.016657 0.000000 0.000000 0.000000
# 4 0.000000 0.000000 0.000000 0.829449 0.000000 0.000000
# 5 0.000000 0.000000 0.000000 0.000000 0.040930 0.000000
# 6 0.000000 0.000000 0.000000 0.000000 0.000000 0.025369
#
#
# Mechanical properties :
#
#
# Convention : Reuss Voigt Hill
#
# Bulk Modulus (GPa) = 28.14064 48.51045 38.32555
# Shear Modulus (GPa) = 5.21474 32.65296 18.93385
#
# Velocity S-wave (km/s) = 1.47756 3.69734 2.81545
# Velocity P-wave (km/s) = 3.83303 6.20776 5.15890
#
# Compressibility (1/GPa) = 0.03553579
#
# Stress axis : x y z
#
# Youngs Moduli (GPa) = 213.58163 45.36759 60.03318
#
# Poissons Ratio (x) = 0.10769 0.08350
# Poissons Ratio (y) = 0.50697 0.00950
# Poissons Ratio (z) = 0.29709 0.00718
#
# Static dielectric constant tensor:
#      x y z
#    x 2.138280 0.000000 0.000000 
#    y 0.000000 1.865030 0.000000 
#    z 0.000000 0.000000 1.796320 
# 
# From -- ./inp_files/25824.got.cif
#   From: 2010.05.17/outbox.cif.g08.bks.cpg/sg60_13_cif.got.tgz:25824.got - 2010.06.03 14:59:27.
