data_PCOD9455657
_publ_section_title
;
Structure prediction by ZEFSAII (Michael W. Deem and Ramdas Pophale) SiO2 
 PCOD9455657
Probable space group: P B C N
;
_chemical_formula_sum "Si O2"
_cell_formula_units_Z 64
_cell_length_a 9.354064
_cell_length_b 11.001363
_cell_length_c 27.317600
_cell_angle_alpha 90.000000
_cell_angle_beta 90.000000
_cell_angle_gamma 90.000000
_cell_volume 2811.184654
_symmetry_space_group_name_H-M "P B C N"
_symmetry_group_IT_number 60
_symmetry_cell_setting 'orthorhombic'
loop_
_space_group_symop_operation_xyz
x,y,z
1/2-x,1/2-y,1/2+z
1/2+x,1/2-y,-z
-x,y,1/2-z
-x,-y,-z
1/2+x,1/2+y,1/2-z
1/2-x,1/2+y,z
x,-y,1/2+z
loop_
_atom_site_type_symbol
_atom_site_label
_atom_site_fract_x
_atom_site_fract_y
_atom_site_fract_z
Si Si1 0.259220 0.342079 0.878518
Si Si2 0.026668 0.664099 0.303445
Si Si3 0.368688 0.901593 0.404017
Si Si4 0.544625 0.883440 0.304147
Si Si5 0.269906 0.238321 0.139932
Si Si6 0.062007 0.688440 0.511162
Si Si7 0.645672 0.340795 0.456774
Si Si8 0.063264 0.086793 0.084390
O O1 0.187431 0.334482 0.824380
O O2 0.180758 0.460190 0.900498
O O3 0.254061 0.209952 0.905347
O O4 0.423868 0.382964 0.883850
O O5 0.000000 0.719150 0.250000
O O6 0.953895 0.530128 0.300509
O O7 0.932422 0.728575 0.344338
O O8 0.443260 0.868926 0.351805
O O9 0.473234 0.893150 0.450517
O O10 0.500000 0.841779 0.250000
O O11 0.683092 0.806442 0.318174
O O12 0.264256 0.321281 0.092413
O O13 0.196129 0.114036 0.120802
O O14 0.954350 0.725266 0.467738
O O15 0.225494 0.645297 0.503829
O O16 0.071663 0.817309 0.539991
O O17 0.558122 0.459493 0.443053
#
# Coordination Sequence:
#
# PCOD9455657 Si02
#       8
#     8   8   8   8   8   8   8   8
#     4  10  22  39  67  91 130 169 216 263 331 384
#     4  10  24  40  61  95 130 164 216 274 323 394
#     4  10  21  43  63  97 131 170 216 272 323 399
#     4  10  20  41  67  86 126 175 207 263 340 389
#     4  11  22  40  64  94 126 164 215 273 327 388
#     4  10  23  42  62  90 129 169 216 268 330 389
#     4  11  23  40  63  92 126 170 219 267 329 393
#     4  10  22  41  64  88 127 170 213 271 318 396
#
# _framework density 22.766203000000001
#
# number of rings (size 3 to 8) (size 9 to 14) (size 15 to 20)
#    0.000    1.750    3.750    1.125    7.000    1.000 
#    2.250    2.500    0.000    2.250    0.000    0.000 
#    0.000    0.000    0.000    0.000    0.000    0.000 
#
# Total GULP energy -356785.621978 kJ/mol
# GULP energy per Si atom -5574.775343 kJ/mol
# Density = 2.271439 g / cm^3
# Si number density = 22.766203 Si / 1000 Ang^3
#
#
#
# Elastic Constant Matrix: (Units=GPa)
#
#
# Indices 1 2 3 4 5 6 
#
# 1 69.8757 -0.3106 18.5482 0.0000 0.0000 0.0000
# 2 -0.3106 43.0524 -10.2872 0.0000 0.0000 0.0000
# 3 18.5482 -10.2872 82.0406 0.0000 0.0000 0.0000
# 4 0.0000 0.0000 0.0000 24.1841 0.0000 0.0000
# 5 0.0000 0.0000 0.0000 0.0000 33.6138 0.0000
# 6 0.0000 0.0000 0.0000 0.0000 0.0000 25.6679
#
#
#
# Elastic Compliance Matrix: (Units=1/GPa)
#
#
# Indices 1 2 3 4 5 6 
#
# 1 0.015247 -0.000736 -0.003539 0.000000 0.000000 0.000000
# 2 -0.000736 0.023980 0.003173 0.000000 0.000000 0.000000
# 3 -0.003539 0.003173 0.013387 0.000000 0.000000 0.000000
# 4 0.000000 0.000000 0.000000 0.041349 0.000000 0.000000
# 5 0.000000 0.000000 0.000000 0.000000 0.029750 0.000000
# 6 0.000000 0.000000 0.000000 0.000000 0.000000 0.038959
#
#
# Mechanical properties :
#
#
# Convention : Reuss Voigt Hill
#
# Bulk Modulus (GPa) = 19.83686 23.42994 21.63340
# Shear Modulus (GPa) = 27.52079 29.16107 28.34093
#
# Velocity S-wave (km/s) = 3.48062 3.58284 3.53210
# Velocity P-wave (km/s) = 4.98850 5.23732 5.11442
#
# Compressibility (1/GPa) = 0.05041121
#
# Stress axis : x y z
#
# Youngs Moduli (GPa) = 65.58503 41.70062 74.69814
#
# Poissons Ratio (x) = 0.03068 0.26439
# Poissons Ratio (y) = 0.04825 -0.23704
# Poissons Ratio (z) = 0.23214 -0.13233
#
# Static dielectric constant tensor:
#      x y z
#    x 1.917660 0.000000 0.000000 
#    y 0.000000 1.900010 0.000000 
#    z 0.000000 0.000000 1.917260 
# 
# From -- ./inp_files/26031.got.cif
#   From: 2010.05.17/outbox.cif.g08.bks.cpg/sg60_14_cif.got.tgz:26031.got - 2010.06.03 14:59:27.
