data_PCOD9455614
_publ_section_title
;
Structure prediction by ZEFSAII (Michael W. Deem and Ramdas Pophale) SiO2 
 PCOD9455614
Probable space group: P B C N
;
_chemical_formula_sum "Si O2"
_cell_formula_units_Z 44
_cell_length_a 15.679342
_cell_length_b 9.522944
_cell_length_c 12.462997
_cell_angle_alpha 90.000000
_cell_angle_beta 90.000000
_cell_angle_gamma 90.000000
_cell_volume 1860.893650
_symmetry_space_group_name_H-M "P B C N"
_symmetry_group_IT_number 60
_symmetry_cell_setting 'orthorhombic'
loop_
_space_group_symop_operation_xyz
x,y,z
1/2-x,1/2-y,1/2+z
1/2+x,1/2-y,-z
-x,y,1/2-z
-x,-y,-z
1/2+x,1/2+y,1/2-z
1/2-x,1/2+y,z
x,-y,1/2+z
loop_
_atom_site_type_symbol
_atom_site_label
_atom_site_fract_x
_atom_site_fract_y
_atom_site_fract_z
Si Si1 0.190474 0.523148 0.668411
Si Si2 0.436116 0.616631 0.951201
Si Si3 0.453593 0.810785 0.634701
Si Si4 0.325678 0.398805 0.016965
Si Si5 0.332763 0.314279 0.769786
Si Si6 0.500000 0.535001 0.250000
O O1 0.105127 0.446156 0.632018
O O2 0.233383 0.598163 0.566619
O O3 0.256030 0.409107 0.720980
O O4 0.178018 0.649955 0.750307
O O5 0.471825 0.772871 0.951270
O O6 0.447063 0.567203 0.828205
O O7 0.500000 0.500000 0.000000
O O8 0.348581 0.564279 0.998904
O O9 0.500000 0.818884 0.750000
O O10 0.386589 0.683912 0.602098
O O11 0.336295 0.335619 0.898724
O O12 0.422432 0.363946 0.715504
#
# Coordination Sequence:
#
# PCOD9455614 Si02
#       6
#     8   8   8   8   8   4
#     4  12  26  46  72 110 154 191 249 322 372 435
#     4   9  18  37  72  96 132 186 241 282 349 452
#     4  11  23  44  71 105 146 194 243 302 377 436
#     4  10  24  46  73 107 145 197 259 294 381 455
#     4  11  26  44  75 105 147 200 246 312 375 445
#     4  10  20  40  68  98 136 180 250 286 366 430
#
# _framework density 23.644553999999999
#
# number of rings (size 3 to 8) (size 9 to 14) (size 15 to 20)
#    0.000    1.455    2.727    2.182    6.364    0.000 
#    0.000    4.545    0.000    0.000    0.000    0.000 
#    0.000    0.000    0.000    0.000    0.000    0.000 
#
# Total GULP energy -245100.720182 kJ/mol
# GULP energy per Si atom -5570.470913 kJ/mol
# Density = 2.359074 g / cm^3
# Si number density = 23.644554 Si / 1000 Ang^3
#
#
#
# Elastic Constant Matrix: (Units=GPa)
#
#
# Indices 1 2 3 4 5 6 
#
# 1 69.7594 55.8496 31.2534 0.0000 0.0000 0.0000
# 2 55.8496 126.4887 29.2268 0.0000 0.0000 0.0000
# 3 31.2534 29.2268 95.0922 0.0000 0.0000 0.0000
# 4 0.0000 0.0000 0.0000 22.0057 0.0000 0.0000
# 5 0.0000 0.0000 0.0000 0.0000 19.0684 0.0000
# 6 0.0000 0.0000 0.0000 0.0000 0.0000 48.6629
#
#
#
# Elastic Compliance Matrix: (Units=1/GPa)
#
#
# Indices 1 2 3 4 5 6 
#
# 1 0.024220 -0.009532 -0.005031 0.000000 0.000000 0.000000
# 2 -0.009532 0.012261 -0.000636 0.000000 0.000000 0.000000
# 3 -0.005031 -0.000636 0.012365 0.000000 0.000000 0.000000
# 4 0.000000 0.000000 0.000000 0.045443 0.000000 0.000000
# 5 0.000000 0.000000 0.000000 0.000000 0.052443 0.000000
# 6 0.000000 0.000000 0.000000 0.000000 0.000000 0.020550
#
#
# Mechanical properties :
#
#
# Convention : Reuss Voigt Hill
#
# Bulk Modulus (GPa) = 54.20076 58.22220 56.21148
# Shear Modulus (GPa) = 24.53059 29.61478 27.07269
#
# Velocity S-wave (km/s) = 3.22448 3.54291 3.38744
# Velocity P-wave (km/s) = 6.06926 6.43534 6.25498
#
# Compressibility (1/GPa) = 0.01844993
#
# Stress axis : x y z
#
# Youngs Moduli (GPa) = 41.28858 81.55732 80.87392
#
# Poissons Ratio (x) = 0.77737 0.40685
# Poissons Ratio (y) = 0.39354 0.05142
# Poissons Ratio (z) = 0.20771 0.05186
#
# Static dielectric constant tensor:
#      x y z
#    x 2.004920 0.000000 0.000000 
#    y 0.000000 1.963290 0.000000 
#    z 0.000000 0.000000 2.042010 
# 
# From -- ./inp_files/17274.got.cif
#   From: 2010.05.17/outbox.cif.g08.bks.cpg/sg60_9_cif.got.tgz:17274.got - 2010.06.03 14:59:27.
