data_PCOD9455814
_publ_section_title
;
Structure prediction by ZEFSAII (Michael W. Deem and Ramdas Pophale) SiO2 
 PCOD9455814
Probable space group: P B C N
;
_chemical_formula_sum "Si O2"
_cell_formula_units_Z 56
_cell_length_a 13.138458
_cell_length_b 14.339880
_cell_length_c 16.895741
_cell_angle_alpha 90.000000
_cell_angle_beta 90.000000
_cell_angle_gamma 90.000000
_cell_volume 3183.223685
_symmetry_space_group_name_H-M "P B C N"
_symmetry_group_IT_number 60
_symmetry_cell_setting 'orthorhombic'
loop_
_space_group_symop_operation_xyz
x,y,z
1/2-x,1/2-y,1/2+z
1/2+x,1/2-y,-z
-x,y,1/2-z
-x,-y,-z
1/2+x,1/2+y,1/2-z
1/2-x,1/2+y,z
x,-y,1/2+z
loop_
_atom_site_type_symbol
_atom_site_label
_atom_site_fract_x
_atom_site_fract_y
_atom_site_fract_z
Si Si1 0.609815 0.030686 0.285998
Si Si2 0.868401 0.248822 0.184806
Si Si3 0.405155 0.819860 0.158950
Si Si4 0.241015 0.075166 0.359711
Si Si5 0.122849 0.699354 0.478758
Si Si6 0.429620 0.086118 0.035637
Si Si7 0.262497 0.374731 0.422710
O O1 0.500000 0.056612 0.250000
O O2 0.610100 0.919243 0.299145
O O3 0.694113 0.060353 0.221448
O O4 0.610562 0.067781 0.375887
O O5 0.859841 0.246765 0.279353
O O6 0.851602 0.145556 0.153426
O O7 0.781487 0.314544 0.149830
O O8 0.975137 0.294017 0.158127
O O9 0.360534 0.820147 0.071676
O O10 0.313017 0.128146 0.423723
O O11 0.205368 0.975713 0.392156
O O12 0.155696 0.805333 0.461408
O O13 0.005632 0.673905 0.463150
O O14 0.333555 0.105558 0.980081
O O15 0.500000 0.000000 0.000000
#
# Coordination Sequence:
#
# PCOD9455814 Si02
#       7
#     8   8   8   8   8   8   8
#     4  12  19  32  60  85 112 148 192 243 293 328
#     4  10  21  34  61  80 116 150 196 232 292 348
#     4  11  19  38  58  85 110 159 194 238 285 356
#     4  11  22  38  55  91 116 151 190 249 293 347
#     4  11  23  35  60  86 119 150 199 244 296 342
#     4  12  20  36  59  88 118 150 199 249 284 349
#     4  11  21  39  58  83 120 155 188 247 297 343
#
# _framework density 17.592229
#
# number of rings (size 3 to 8) (size 9 to 14) (size 15 to 20)
#    0.000    0.857    8.571    0.000    2.000    0.000 
#    0.000    0.714    0.000    6.857    0.000    0.000 
#    0.000    0.000    0.000    0.000    0.000    0.000 
#
# Total GULP energy -312225.017363 kJ/mol
# GULP energy per Si atom -5575.446739 kJ/mol
# Density = 1.755219 g / cm^3
# Si number density = 17.592229 Si / 1000 Ang^3
#
#
#
# Elastic Constant Matrix: (Units=GPa)
#
#
# Indices 1 2 3 4 5 6 
#
# 1 31.6887 25.4002 20.4923 0.0000 0.0000 0.0000
# 2 25.4002 114.3851 33.3399 0.0000 0.0000 0.0000
# 3 20.4923 33.3399 122.6979 0.0000 0.0000 0.0000
# 4 0.0000 0.0000 0.0000 28.1157 0.0000 0.0000
# 5 0.0000 0.0000 0.0000 0.0000 21.9610 0.0000
# 6 0.0000 0.0000 0.0000 0.0000 0.0000 26.3382
#
#
#
# Elastic Compliance Matrix: (Units=1/GPa)
#
#
# Indices 1 2 3 4 5 6 
#
# 1 0.040763 -0.007675 -0.004722 0.000000 0.000000 0.000000
# 2 -0.007675 0.010940 -0.001691 0.000000 0.000000 0.000000
# 3 -0.004722 -0.001691 0.009398 0.000000 0.000000 0.000000
# 4 0.000000 0.000000 0.000000 0.035567 0.000000 0.000000
# 5 0.000000 0.000000 0.000000 0.000000 0.045535 0.000000
# 6 0.000000 0.000000 0.000000 0.000000 0.000000 0.037968
#
#
# Mechanical properties :
#
#
# Convention : Reuss Voigt Hill
#
# Bulk Modulus (GPa) = 30.37302 47.47072 38.92187
# Shear Modulus (GPa) = 22.79750 27.91896 25.35823
#
# Velocity S-wave (km/s) = 3.60374 3.98805 3.80076
# Velocity P-wave (km/s) = 5.88375 6.94611 6.43688
#
# Compressibility (1/GPa) = 0.03292395
#
# Stress axis : x y z
#
# Youngs Moduli (GPa) = 24.53203 91.41155 106.40338
#
# Poissons Ratio (x) = 0.70161 0.50248
# Poissons Ratio (y) = 0.18829 0.17989
# Poissons Ratio (z) = 0.11585 0.15454
#
# Static dielectric constant tensor:
#      x y z
#    x 1.596570 0.000000 0.000000 
#    y 0.000000 1.626680 0.000000 
#    z 0.000000 0.000000 1.641340 
# 
# From -- ./inp_files/16960.got.cif
#   From: 2010.05.17/outbox.cif.g08.bks.cpg/sg60_9_cif.got.tgz:16960.got - 2010.06.03 14:59:27.
