data_PCOD9455139
_publ_section_title
;
Structure prediction by ZEFSAII (Michael W. Deem and Ramdas Pophale) SiO2 
 PCOD9455139
Probable space group: P B C N
;
_chemical_formula_sum "Si O2"
_cell_formula_units_Z 64
_cell_length_a 10.753807
_cell_length_b 32.229521
_cell_length_c 9.473058
_cell_angle_alpha 90.000000
_cell_angle_beta 90.000000
_cell_angle_gamma 90.000000
_cell_volume 3283.267632
_symmetry_space_group_name_H-M "P B C N"
_symmetry_group_IT_number 60
_symmetry_cell_setting 'orthorhombic'
loop_
_space_group_symop_operation_xyz
x,y,z
1/2-x,1/2-y,1/2+z
1/2+x,1/2-y,-z
-x,y,1/2-z
-x,-y,-z
1/2+x,1/2+y,1/2-z
1/2-x,1/2+y,z
x,-y,1/2+z
loop_
_atom_site_type_symbol
_atom_site_label
_atom_site_fract_x
_atom_site_fract_y
_atom_site_fract_z
Si Si1 0.779051 0.387014 0.987274
Si Si2 0.481059 0.847219 0.913408
Si Si3 0.282713 0.376227 0.830750
Si Si4 0.422101 0.228174 0.893072
Si Si5 0.104223 0.959987 0.861643
Si Si6 0.565383 0.680633 0.978051
Si Si7 0.575083 0.553143 0.618550
Si Si8 0.694143 0.679521 0.683209
O O1 0.926714 0.385913 0.950874
O O2 0.726376 0.368462 0.838246
O O3 0.685684 0.423579 0.035434
O O4 0.774000 0.358665 0.126711
O O5 0.500000 0.835835 0.750000
O O6 0.337265 0.859527 0.914659
O O7 0.522111 0.807501 0.004904
O O8 0.289567 0.425928 0.848013
O O9 0.398676 0.353647 0.905709
O O10 0.500000 0.226442 0.750000
O O11 0.278052 0.218682 0.857515
O O12 0.429918 0.273618 0.957884
O O13 0.000000 0.946728 0.750000
O O14 0.129663 0.008411 0.833701
O O15 0.037236 0.955906 0.011401
O O16 0.659311 0.678195 0.845861
O O17 0.430357 0.675725 0.909015
O O18 0.500000 0.574084 0.750000
#
# Coordination Sequence:
#
# PCOD9455139 Si02
#       8
#     8   8   8   8   8   8   8   8
#     4  10  21  40  62  87 121 159 202 247 301 372
#     4   9  22  42  63  86 116 164 202 253 303 362
#     4  11  22  39  65  87 120 155 207 248 303 360
#     4  11  25  41  62  83 119 157 202 244 310 363
#     4  10  20  36  58  91 121 155 198 250 301 364
#     4  11  26  38  61  87 115 154 198 252 299 356
#     4  10  21  35  59  89 126 158 191 245 310 359
#     4  10  25  41  56  88 118 150 195 251 298 356
#
# _framework density 19.492775000000002
#
# number of rings (size 3 to 8) (size 9 to 14) (size 15 to 20)
#    0.000    1.750    1.250    1.500   10.500    1.000 
#    0.000    0.625    0.000    0.000    0.000    0.000 
#    0.000    0.000    0.000    0.000    0.000    0.000 
#
# Total GULP energy -356627.798473 kJ/mol
# GULP energy per Si atom -5572.309351 kJ/mol
# Density = 1.944841 g / cm^3
# Si number density = 19.492775 Si / 1000 Ang^3
#
#
#
# Elastic Constant Matrix: (Units=GPa)
#
#
# Indices 1 2 3 4 5 6 
#
# 1 70.5075 19.8742 46.1409 0.0000 0.0000 0.0000
# 2 19.8742 62.0709 22.2749 0.0000 0.0000 0.0000
# 3 46.1409 22.2749 96.9038 0.0000 0.0000 0.0000
# 4 0.0000 0.0000 0.0000 48.6712 0.0000 0.0000
# 5 0.0000 0.0000 0.0000 0.0000 25.1296 0.0000
# 6 0.0000 0.0000 0.0000 0.0000 0.0000 -20.8587
#
#
#
# Elastic Compliance Matrix: (Units=1/GPa)
#
#
# Indices 1 2 3 4 5 6 
#
# 1 0.021263 -0.003460 -0.009329 0.000000 0.000000 0.000000
# 2 -0.003460 0.018122 -0.002518 0.000000 0.000000 0.000000
# 3 -0.009329 -0.002518 0.015340 0.000000 0.000000 0.000000
# 4 0.000000 0.000000 0.000000 0.020546 0.000000 0.000000
# 5 0.000000 0.000000 0.000000 0.000000 0.039794 0.000000
# 6 0.000000 0.000000 0.000000 0.000000 0.000000 -0.047942
#
#
# Mechanical properties :
#
#
# Convention : Reuss Voigt Hill
#
# Bulk Modulus (GPa) = 41.47503 45.11803 43.29653
# Shear Modulus (GPa) = 47.26955 20.00122 33.63538
#
# Velocity S-wave (km/s) = 4.92975 3.20673 4.15846
# Velocity P-wave (km/s) = 7.32984 6.07512 6.73178
#
# Compressibility (1/GPa) = 0.02411089
#
# Stress axis : x y z
#
# Youngs Moduli (GPa) = 47.02914 55.18099 65.18717
#
# Poissons Ratio (x) = 0.19095 0.60814
# Poissons Ratio (y) = 0.16274 0.16414
# Poissons Ratio (z) = 0.43874 0.13895
#
# Static dielectric constant tensor:
#      x y z
#    x 1.724910 0.000000 0.000000 
#    y 0.000000 1.722110 0.000000 
#    z 0.000000 0.000000 1.668930 
# 
# From -- ./inp_files/5356.got.cif
#   From: 2010.05.17/outbox.cif.g08.bks.cpg/sg60_3_cif.got.tgz:5356.got - 2010.06.03 14:59:27.
