data_PCOD9455433
_publ_section_title
;
Structure prediction by ZEFSAII (Michael W. Deem and Ramdas Pophale) SiO2 
 PCOD9455433
Probable space group: P B C N
;
_chemical_formula_sum "Si O2"
_cell_formula_units_Z 64
_cell_length_a 11.354351
_cell_length_b 17.324196
_cell_length_c 14.724440
_cell_angle_alpha 90.000000
_cell_angle_beta 90.000000
_cell_angle_gamma 90.000000
_cell_volume 2896.371002
_symmetry_space_group_name_H-M "P B C N"
_symmetry_group_IT_number 60
_symmetry_cell_setting 'orthorhombic'
loop_
_space_group_symop_operation_xyz
x,y,z
1/2-x,1/2-y,1/2+z
1/2+x,1/2-y,-z
-x,y,1/2-z
-x,-y,-z
1/2+x,1/2+y,1/2-z
1/2-x,1/2+y,z
x,-y,1/2+z
loop_
_atom_site_type_symbol
_atom_site_label
_atom_site_fract_x
_atom_site_fract_y
_atom_site_fract_z
Si Si1 0.249120 0.506791 0.816755
Si Si2 0.841405 0.393237 0.537461
Si Si3 0.868398 0.346315 0.222180
Si Si4 0.541726 0.719012 0.102910
Si Si5 0.222395 0.722443 0.610377
Si Si6 0.513120 0.449707 0.643745
Si Si7 0.250673 0.980277 0.602073
Si Si8 0.601098 0.833792 0.939409
O O1 0.209179 0.432778 0.873173
O O2 0.182139 0.585967 0.840091
O O3 0.385769 0.513623 0.845492
O O4 0.226697 0.489149 0.710317
O O5 0.785984 0.317403 0.489268
O O6 0.817205 0.456196 0.458417
O O7 0.975590 0.375265 0.565443
O O8 0.884100 0.260223 0.182710
O O9 0.787229 0.340331 0.310395
O O10 0.000000 0.370421 0.250000
O O11 0.401276 0.731438 0.117635
O O12 0.555453 0.627799 0.092756
O O13 0.577767 0.776587 0.023070
O O14 0.337514 0.773070 0.628712
O O15 0.500000 0.423635 0.750000
O O16 0.392200 0.479839 0.599992
O O17 0.300981 0.900422 0.562337
#
# Coordination Sequence:
#
# PCOD9455433 Si02
#       8
#     8   8   8   8   8   8   8   8
#     4  11  24  40  65  99 139 177 231 279 342 418
#     4  11  24  41  67 103 137 176 231 281 349 417
#     4  10  21  37  65  95 129 179 231 283 347 408
#     4  10  20  38  65  96 124 173 234 274 334 420
#     4  10  20  41  63  95 134 174 218 290 343 400
#     4  10  21  40  68  97 132 181 232 278 340 418
#     4  11  23  42  69  96 138 181 221 285 348 405
#     4  11  23  38  67  99 135 170 226 285 346 412
#
# _framework density 22.096616999999998
#
# number of rings (size 3 to 8) (size 9 to 14) (size 15 to 20)
#    0.000    1.500    2.500    3.000    3.500    0.500 
#    0.000    0.000    2.750    0.000    0.000    0.000 
#    0.000    0.000    0.000    0.000    0.000    0.000 
#
# Total GULP energy -356558.163533 kJ/mol
# GULP energy per Si atom -5571.221305 kJ/mol
# Density = 2.204632 g / cm^3
# Si number density = 22.096617 Si / 1000 Ang^3
#
#
#
# Elastic Constant Matrix: (Units=GPa)
#
#
# Indices 1 2 3 4 5 6 
#
# 1 105.2734 35.7079 37.8090 0.0000 0.0000 0.0000
# 2 35.7079 70.4122 11.3994 0.0000 0.0000 0.0000
# 3 37.8090 11.3994 60.2636 0.0000 0.0000 0.0000
# 4 0.0000 0.0000 0.0000 16.5032 0.0000 0.0000
# 5 0.0000 0.0000 0.0000 0.0000 21.5301 0.0000
# 6 0.0000 0.0000 0.0000 0.0000 0.0000 7.1257
#
#
#
# Elastic Compliance Matrix: (Units=1/GPa)
#
#
# Indices 1 2 3 4 5 6 
#
# 1 0.014367 -0.006011 -0.007877 0.000000 0.000000 0.000000
# 2 -0.006011 0.017165 0.000524 0.000000 0.000000 0.000000
# 3 -0.007877 0.000524 0.021436 0.000000 0.000000 0.000000
# 4 0.000000 0.000000 0.000000 0.060594 0.000000 0.000000
# 5 0.000000 0.000000 0.000000 0.000000 0.046447 0.000000
# 6 0.000000 0.000000 0.000000 0.000000 0.000000 0.140338
#
#
# Mechanical properties :
#
#
# Convention : Reuss Voigt Hill
#
# Bulk Modulus (GPa) = 38.10669 45.08685 41.59677
# Shear Modulus (GPa) = 14.88889 19.10066 16.99477
#
# Velocity S-wave (km/s) = 2.59860 2.94328 2.77630
# Velocity P-wave (km/s) = 5.12704 5.65679 5.39842
#
# Compressibility (1/GPa) = 0.02624211
#
# Stress axis : x y z
#
# Youngs Moduli (GPa) = 69.60536 58.25682 46.64962
#
# Poissons Ratio (x) = 0.35016 0.36744
# Poissons Ratio (y) = 0.41837 -0.02444
# Poissons Ratio (z) = 0.54826 -0.03053
#
# Static dielectric constant tensor:
#      x y z
#    x 1.860450 0.000000 0.000000 
#    y 0.000000 1.825540 0.000000 
#    z 0.000000 0.000000 1.913640 
# 
# From -- ./inp_files/16377.got.cif
#   From: 2010.05.17/outbox.cif.g08.bks.cpg/sg60_9_cif.got.tgz:16377.got - 2010.06.03 14:59:27.
