data_PCOD9455262
_publ_section_title
;
Structure prediction by ZEFSAII (Michael W. Deem and Ramdas Pophale) SiO2 
 PCOD9455262
Probable space group: P B C N
;
_chemical_formula_sum "Si O2"
_cell_formula_units_Z 40
_cell_length_a 9.725989
_cell_length_b 23.131377
_cell_length_c 7.824567
_cell_angle_alpha 90.000000
_cell_angle_beta 90.000000
_cell_angle_gamma 90.000000
_cell_volume 1760.336016
_symmetry_space_group_name_H-M "P B C N"
_symmetry_group_IT_number 60
_symmetry_cell_setting 'orthorhombic'
loop_
_space_group_symop_operation_xyz
x,y,z
1/2-x,1/2-y,1/2+z
1/2+x,1/2-y,-z
-x,y,1/2-z
-x,-y,-z
1/2+x,1/2+y,1/2-z
1/2-x,1/2+y,z
x,-y,1/2+z
loop_
_atom_site_type_symbol
_atom_site_label
_atom_site_fract_x
_atom_site_fract_y
_atom_site_fract_z
Si Si1 0.347400 0.479806 0.328873
Si Si2 0.346440 0.109038 0.672373
Si Si3 0.148881 0.094988 0.180334
Si Si4 0.065071 0.298568 0.935438
Si Si5 0.271064 0.193085 0.955473
O O1 0.500000 0.475134 0.250000
O O2 0.236590 0.448735 0.207708
O O3 0.354772 0.446057 0.509331
O O4 0.309095 0.547786 0.323941
O O5 0.500000 0.101398 0.750000
O O6 0.370515 0.140590 0.493239
O O7 0.259053 0.155387 0.784014
O O8 0.235720 0.149814 0.113555
O O9 0.000000 0.115377 0.250000
O O10 0.000000 0.299946 0.750000
O O11 0.929150 0.287709 0.047674
O O12 0.172242 0.247356 0.956181
#
# Coordination Sequence:
#
# PCOD9455262 Si02
#       5
#     8   8   8   8   8
#     4  10  20  37  61  87 116 156 202 245 296 356
#     4   9  21  41  58  81 122 157 191 248 309 362
#     4  10  21  37  60  91 123 159 202 251 303 358
#     4  11  23  39  62  90 116 156 205 250 306 371
#     4  10  23  40  59  87 123 160 198 250 312 367
#
# _framework density 22.722933999999999
#
# number of rings (size 3 to 8) (size 9 to 14) (size 15 to 20)
#    0.000    2.000    0.000    3.600    0.000   13.600 
#    0.000   10.000    0.000    0.000    0.000    0.000 
#    0.000    0.000    0.000    0.000    0.000    0.000 
#
# Total GULP energy -223262.088788 kJ/mol
# GULP energy per Si atom -5581.552220 kJ/mol
# Density = 2.267122 g / cm^3
# Si number density = 22.722934 Si / 1000 Ang^3
#
#
#
# Elastic Constant Matrix: (Units=GPa)
#
#
# Indices 1 2 3 4 5 6 
#
# 1 119.5013 84.5828 13.3285 0.0000 0.0000 0.0000
# 2 84.5828 87.3409 5.6119 0.0000 0.0000 0.0000
# 3 13.3285 5.6119 67.9393 0.0000 0.0000 0.0000
# 4 0.0000 0.0000 0.0000 26.3966 0.0000 0.0000
# 5 0.0000 0.0000 0.0000 0.0000 27.5935 0.0000
# 6 0.0000 0.0000 0.0000 0.0000 0.0000 39.6403
#
#
#
# Elastic Compliance Matrix: (Units=1/GPa)
#
#
# Indices 1 2 3 4 5 6 
#
# 1 0.027272 -0.026206 -0.003186 0.000000 0.000000 0.000000
# 2 -0.026206 0.036693 0.002110 0.000000 0.000000 0.000000
# 3 -0.003186 0.002110 0.015170 0.000000 0.000000 0.000000
# 4 0.000000 0.000000 0.000000 0.037884 0.000000 0.000000
# 5 0.000000 0.000000 0.000000 0.000000 0.036240 0.000000
# 6 0.000000 0.000000 0.000000 0.000000 0.000000 0.025227
#
#
# Mechanical properties :
#
#
# Convention : Reuss Voigt Hill
#
# Bulk Modulus (GPa) = 40.69801 53.53644 47.11722
# Shear Modulus (GPa) = 20.72634 30.14330 25.43482
#
# Velocity S-wave (km/s) = 3.02343 3.64615 3.34929
# Velocity P-wave (km/s) = 5.48977 6.42943 5.97809
#
# Compressibility (1/GPa) = 0.02457123
#
# Stress axis : x y z
#
# Youngs Moduli (GPa) = 36.66739 27.25348 65.92104
#
# Poissons Ratio (x) = 0.71421 0.21000
# Poissons Ratio (y) = 0.96092 -0.13912
# Poissons Ratio (z) = 0.11681 -0.05751
#
# Static dielectric constant tensor:
#      x y z
#    x 1.846330 0.000000 0.000000 
#    y 0.000000 1.822660 0.000000 
#    z 0.000000 0.000000 1.948210 
# 
# From -- ./inp_files/3993.got.cif
#   From: 2010.05.17/outbox.cif.g08.bks.cpg/sg60_2_cif.got.tgz:3993.got - 2010.06.03 14:59:27.
