data_PCOD9455873
_publ_section_title
;
Structure prediction by ZEFSAII (Michael W. Deem and Ramdas Pophale) SiO2 
 PCOD9455873
Probable space group: P B C N
;
_chemical_formula_sum "Si O2"
_cell_formula_units_Z 44
_cell_length_a 14.075784
_cell_length_b 28.057513
_cell_length_c 5.029032
_cell_angle_alpha 90.000000
_cell_angle_beta 90.000000
_cell_angle_gamma 90.000000
_cell_volume 1986.123114
_symmetry_space_group_name_H-M "P B C N"
_symmetry_group_IT_number 60
_symmetry_cell_setting 'orthorhombic'
loop_
_space_group_symop_operation_xyz
x,y,z
1/2-x,1/2-y,1/2+z
1/2+x,1/2-y,-z
-x,y,1/2-z
-x,-y,-z
1/2+x,1/2+y,1/2-z
1/2-x,1/2+y,z
x,-y,1/2+z
loop_
_atom_site_type_symbol
_atom_site_label
_atom_site_fract_x
_atom_site_fract_y
_atom_site_fract_z
Si Si1 0.356307 0.224133 0.473571
Si Si2 0.000000 0.336000 0.250000
Si Si3 0.000000 0.964912 0.250000
Si Si4 0.500000 0.965074 0.750000
Si Si5 0.748370 0.687496 0.517524
Si Si6 0.704961 0.468041 0.321396
Si Si7 0.842511 0.404607 0.001888
O O1 0.454236 0.198907 0.535371
O O2 0.345916 0.280762 0.521101
O O3 0.323253 0.213202 0.177367
O O4 0.283871 0.197544 0.681345
O O5 0.079136 0.370611 0.366957
O O6 0.104209 0.941340 0.234949
O O7 0.000000 0.000000 0.500000
O O8 0.404760 0.933035 0.715530
O O9 0.500000 0.000000 0.500000
O O10 0.758194 0.632577 0.429872
O O11 0.706265 0.485564 0.625380
O O12 0.794805 0.438983 0.217956
#
# Coordination Sequence:
#
# PCOD9455873 Si02
#       7
#     8   4   4   4   8   8   8
#     4   9  18  35  54  79 106 141 186 232 286 330
#     4  10  21  36  60  87 120 158 192 235 287 362
#     4   8  16  34  58  77  97 136 189 243 298 342
#     4  12  25  38  52  80 125 164 197 238 285 346
#     4   9  19  34  56  77 105 143 189 238 276 332
#     4  10  21  37  58  83 114 153 197 248 298 341
#     4  11  22  37  58  86 119 161 204 239 287 356
#
# _framework density 22.153711000000001
#
# number of rings (size 3 to 8) (size 9 to 14) (size 15 to 20)
#    0.000    2.182    0.000    2.727    0.000    8.000 
#    0.000    0.000    0.000   24.000    0.000    0.000 
#    0.000    0.000    0.000    0.000    0.000    0.000 
#
# Total GULP energy -245299.867639 kJ/mol
# GULP energy per Si atom -5574.996992 kJ/mol
# Density = 2.210329 g / cm^3
# Si number density = 22.153711 Si / 1000 Ang^3
#
#
#
# Elastic Constant Matrix: (Units=GPa)
#
#
# Indices 1 2 3 4 5 6 
#
# 1 101.1989 34.5823 10.1898 0.0000 0.0000 0.0000
# 2 34.5823 96.2730 8.9446 0.0000 0.0000 0.0000
# 3 10.1898 8.9446 82.9449 0.0000 0.0000 0.0000
# 4 0.0000 0.0000 0.0000 12.5843 0.0000 0.0000
# 5 0.0000 0.0000 0.0000 0.0000 24.8925 0.0000
# 6 0.0000 0.0000 0.0000 0.0000 0.0000 44.9660
#
#
#
# Elastic Compliance Matrix: (Units=1/GPa)
#
#
# Indices 1 2 3 4 5 6 
#
# 1 0.011340 -0.003984 -0.000964 0.000000 0.000000 0.000000
# 2 -0.003984 0.011892 -0.000793 0.000000 0.000000 0.000000
# 3 -0.000964 -0.000793 0.012260 0.000000 0.000000 0.000000
# 4 0.000000 0.000000 0.000000 0.079464 0.000000 0.000000
# 5 0.000000 0.000000 0.000000 0.000000 0.040173 0.000000
# 6 0.000000 0.000000 0.000000 0.000000 0.000000 0.022239
#
#
# Mechanical properties :
#
#
# Convention : Reuss Voigt Hill
#
# Bulk Modulus (GPa) = 41.64736 43.09448 42.37092
# Shear Modulus (GPa) = 25.39973 31.60188 28.50081
#
# Velocity S-wave (km/s) = 3.38971 3.78098 3.59068
# Velocity P-wave (km/s) = 5.84468 6.20933 6.02976
#
# Compressibility (1/GPa) = 0.02401112
#
# Stress axis : x y z
#
# Youngs Moduli (GPa) = 88.18378 84.09104 81.56552
#
# Poissons Ratio (x) = 0.33501 0.07859
# Poissons Ratio (y) = 0.35132 0.06468
# Poissons Ratio (z) = 0.08497 0.06668
#
# Static dielectric constant tensor:
#      x y z
#    x 1.940660 0.000000 0.000000 
#    y 0.000000 1.866620 0.000000 
#    z 0.000000 0.000000 1.827650 
# 
# From -- ./inp_files/1302.got.cif
#   From: 2010.05.17/outbox.cif.g08.bks.cpg/sg60_1_cif.got.tgz:1302.got - 2010.06.03 14:59:27.
