data_PCOD9455309
_publ_section_title
;
Structure prediction by ZEFSAII (Michael W. Deem and Ramdas Pophale) SiO2 
 PCOD9455309
Probable space group: P B C N
;
_chemical_formula_sum "Si O2"
_cell_formula_units_Z 36
_cell_length_a 13.281936
_cell_length_b 18.730724
_cell_length_c 5.844641
_cell_angle_alpha 90.000000
_cell_angle_beta 90.000000
_cell_angle_gamma 90.000000
_cell_volume 1454.031409
_symmetry_space_group_name_H-M "P B C N"
_symmetry_group_IT_number 60
_symmetry_cell_setting 'orthorhombic'
loop_
_space_group_symop_operation_xyz
x,y,z
1/2-x,1/2-y,1/2+z
1/2+x,1/2-y,-z
-x,y,1/2-z
-x,-y,-z
1/2+x,1/2+y,1/2-z
1/2-x,1/2+y,z
x,-y,1/2+z
loop_
_atom_site_type_symbol
_atom_site_label
_atom_site_fract_x
_atom_site_fract_y
_atom_site_fract_z
Si Si1 0.881517 0.683846 0.227547
Si Si2 0.793828 0.582757 0.882390
Si Si3 0.624588 0.527226 0.379552
Si Si4 0.306989 0.675923 0.970549
Si Si5 0.000000 0.537760 0.750000
O O1 0.869491 0.752441 0.062397
O O2 0.802842 0.697787 0.432441
O O3 0.000000 0.671988 0.250000
O O4 0.832522 0.613743 0.118401
O O5 0.714989 0.637114 0.770398
O O6 0.895820 0.580131 0.738482
O O7 0.736705 0.508174 0.891511
O O8 0.585444 0.502784 0.127570
O O9 0.635597 0.612966 0.391292
O O10 0.000000 0.500000 0.500000
#
# Coordination Sequence:
#
# PCOD9455309 Si02
#       5
#     8   8   8   8   4
#     4  12  25  42  68  97 137 188 233 289 360 432
#     4  11  23  40  63  95 133 182 225 292 353 424
#     4  10  20  37  67  93 129 181 218 282 352 413
#     4  11  23  44  62  97 140 178 234 286 356 421
#     4  12  26  38  60 102 142 176 226 284 360 440
#
# _framework density 24.758749999999999
#
# number of rings (size 3 to 8) (size 9 to 14) (size 15 to 20)
#    0.000    0.889    4.444    4.000    4.667    0.000 
#    0.000    0.000    0.000    5.333    0.000    0.000 
#    0.000    0.000    0.000    0.000    0.000    0.000 
#
# Total GULP energy -201039.505427 kJ/mol
# GULP energy per Si atom -5584.430706 kJ/mol
# Density = 2.470240 g / cm^3
# Si number density = 24.758750 Si / 1000 Ang^3
#
#
#
# Elastic Constant Matrix: (Units=GPa)
#
#
# Indices 1 2 3 4 5 6 
#
# 1 53.3678 7.5518 59.3904 0.0000 0.0000 0.0000
# 2 7.5518 125.7570 39.5345 0.0000 0.0000 0.0000
# 3 59.3904 39.5345 126.2378 0.0000 0.0000 0.0000
# 4 0.0000 0.0000 0.0000 37.5893 0.0000 0.0000
# 5 0.0000 0.0000 0.0000 0.0000 54.2266 0.0000
# 6 0.0000 0.0000 0.0000 0.0000 0.0000 13.0934
#
#
#
# Elastic Compliance Matrix: (Units=1/GPa)
#
#
# Indices 1 2 3 4 5 6 
#
# 1 0.041067 0.004002 -0.020574 0.000000 0.000000 0.000000
# 2 0.004002 0.009210 -0.004767 0.000000 0.000000 0.000000
# 3 -0.020574 -0.004767 0.019094 0.000000 0.000000 0.000000
# 4 0.000000 0.000000 0.000000 0.026603 0.000000 0.000000
# 5 0.000000 0.000000 0.000000 0.000000 0.018441 0.000000
# 6 0.000000 0.000000 0.000000 0.000000 0.000000 0.076374
#
#
# Mechanical properties :
#
#
# Convention : Reuss Voigt Hill
#
# Bulk Modulus (GPa) = 37.46333 57.59068 47.52701
# Shear Modulus (GPa) = 20.62990 34.24092 27.43541
#
# Velocity S-wave (km/s) = 2.88972 3.72288 3.33244
# Velocity P-wave (km/s) = 5.12817 6.46460 5.83477
#
# Compressibility (1/GPa) = 0.02669277
#
# Stress axis : x y z
#
# Youngs Moduli (GPa) = 24.35018 108.57553 52.37288
#
# Poissons Ratio (x) = -0.43449 1.07752
# Poissons Ratio (y) = -0.09744 0.24967
# Poissons Ratio (z) = 0.50098 0.51759
#
# Static dielectric constant tensor:
#      x y z
#    x 2.200380 0.000000 0.000000 
#    y 0.000000 1.935830 0.000000 
#    z 0.000000 0.000000 2.115240 
# 
# From -- ./inp_files/1127.got.cif
#   From: 2010.05.17/outbox.cif.g08.bks.cpg/sg60_1_cif.got.tgz:1127.got - 2010.06.03 14:59:27.
