data_PCOD9455549
_publ_section_title
;
Structure prediction by ZEFSAII (Michael W. Deem and Ramdas Pophale) SiO2 
 PCOD9455549
Probable space group: P B C N
;
_chemical_formula_sum "Si O2"
_cell_formula_units_Z 44
_cell_length_a 5.230106
_cell_length_b 14.305514
_cell_length_c 24.680980
_cell_angle_alpha 90.000000
_cell_angle_beta 90.000000
_cell_angle_gamma 90.000000
_cell_volume 1846.614995
_symmetry_space_group_name_H-M "P B C N"
_symmetry_group_IT_number 60
_symmetry_cell_setting 'orthorhombic'
loop_
_space_group_symop_operation_xyz
x,y,z
1/2-x,1/2-y,1/2+z
1/2+x,1/2-y,-z
-x,y,1/2-z
-x,-y,-z
1/2+x,1/2+y,1/2-z
1/2-x,1/2+y,z
x,-y,1/2+z
loop_
_atom_site_type_symbol
_atom_site_label
_atom_site_fract_x
_atom_site_fract_y
_atom_site_fract_z
Si Si1 0.504762 0.056659 0.582163
Si Si2 0.612610 0.704068 0.621819
Si Si3 0.624166 0.554597 0.818183
Si Si4 0.766790 0.599665 0.141229
Si Si5 0.741883 0.710806 0.972207
Si Si6 0.000000 0.458561 0.750000
O O1 0.749021 0.124345 0.586396
O O2 0.352891 0.070693 0.638565
O O3 0.330027 0.101894 0.535481
O O4 0.598239 0.950533 0.589673
O O5 0.533381 0.649945 0.676095
O O6 0.788234 0.793193 0.630429
O O7 0.369093 0.737729 0.586999
O O8 0.466075 0.467334 0.842521
O O9 0.759541 0.524350 0.763178
O O10 0.944471 0.597799 0.195314
O O11 0.495950 0.732953 0.009820
#
# Coordination Sequence:
#
# PCOD9455549 Si02
#       6
#     8   8   8   8   8   4
#     4   9  20  39  63  90 131 173 209 268 334 380
#     4  10  21  40  67  97 125 176 217 271 332 393
#     4   9  20  38  64  86 130 168 213 264 331 381
#     4  10  21  40  64  94 129 171 217 273 330 394
#     4  11  21  40  69  96 132 175 224 271 329 400
#     4  10  20  40  60  90 130 168 210 272 318 394
#
# _framework density 23.827380000000002
#
# number of rings (size 3 to 8) (size 9 to 14) (size 15 to 20)
#    0.000    2.182    1.818    0.545    0.000    5.818 
#    9.818    1.818    0.000    0.000    0.000    0.000 
#    0.000    0.000    0.000    0.000    0.000    0.000 
#
# Total GULP energy -245343.572434 kJ/mol
# GULP energy per Si atom -5575.990283 kJ/mol
# Density = 2.377315 g / cm^3
# Si number density = 23.827380 Si / 1000 Ang^3
#
#
#
# Elastic Constant Matrix: (Units=GPa)
#
#
# Indices 1 2 3 4 5 6 
#
# 1 100.1830 16.5738 6.2383 0.0000 0.0000 0.0000
# 2 16.5738 104.0510 5.8387 0.0000 0.0000 0.0000
# 3 6.2383 5.8387 73.7563 0.0000 0.0000 0.0000
# 4 0.0000 0.0000 0.0000 23.6783 0.0000 0.0000
# 5 0.0000 0.0000 0.0000 0.0000 49.1081 0.0000
# 6 0.0000 0.0000 0.0000 0.0000 0.0000 8.9717
#
#
#
# Elastic Compliance Matrix: (Units=1/GPa)
#
#
# Indices 1 2 3 4 5 6 
#
# 1 0.010292 -0.001598 -0.000744 0.000000 0.000000 0.000000
# 2 -0.001598 0.009902 -0.000649 0.000000 0.000000 0.000000
# 3 -0.000744 -0.000649 0.013672 0.000000 0.000000 0.000000
# 4 0.000000 0.000000 0.000000 0.042233 0.000000 0.000000
# 5 0.000000 0.000000 0.000000 0.000000 0.020363 0.000000
# 6 0.000000 0.000000 0.000000 0.000000 0.000000 0.111462
#
#
# Mechanical properties :
#
#
# Convention : Reuss Voigt Hill
#
# Bulk Modulus (GPa) = 35.86087 37.25465 36.55776
# Shear Modulus (GPa) = 22.40142 32.97424 27.68783
#
# Velocity S-wave (km/s) = 3.06952 3.72409 3.41254
# Velocity P-wave (km/s) = 5.25790 5.84474 5.55907
#
# Compressibility (1/GPa) = 0.02788555
#
# Stress axis : x y z
#
# Youngs Moduli (GPa) = 97.15930 100.99417 73.13978
#
# Poissons Ratio (x) = 0.16136 0.05442
# Poissons Ratio (y) = 0.15523 0.04745
# Poissons Ratio (z) = 0.07229 0.06551
#
# Static dielectric constant tensor:
#      x y z
#    x 1.982850 0.000000 0.000000 
#    y 0.000000 1.890900 0.000000 
#    z 0.000000 0.000000 2.008310 
# 
# From -- ./inp_files/24831.got.cif
#   From: 2010.05.17/outbox.cif.g08.bks.cpg/sg60_13_cif.got.tgz:24831.got - 2010.06.03 14:59:27.
