data_PCOD9455453
_publ_section_title
;
Structure prediction by ZEFSAII (Michael W. Deem and Ramdas Pophale) SiO2 
 PCOD9455453
Probable space group: P B C N
;
_chemical_formula_sum "Si O2"
_cell_formula_units_Z 40
_cell_length_a 8.171362
_cell_length_b 14.216323
_cell_length_c 16.179874
_cell_angle_alpha 90.000000
_cell_angle_beta 90.000000
_cell_angle_gamma 90.000000
_cell_volume 1879.562918
_symmetry_space_group_name_H-M "P B C N"
_symmetry_group_IT_number 60
_symmetry_cell_setting 'orthorhombic'
loop_
_space_group_symop_operation_xyz
x,y,z
1/2-x,1/2-y,1/2+z
1/2+x,1/2-y,-z
-x,y,1/2-z
-x,-y,-z
1/2+x,1/2+y,1/2-z
1/2-x,1/2+y,z
x,-y,1/2+z
loop_
_atom_site_type_symbol
_atom_site_label
_atom_site_fract_x
_atom_site_fract_y
_atom_site_fract_z
Si Si1 0.616174 0.663812 0.686939
Si Si2 0.232230 0.526484 0.028422
Si Si3 0.067498 0.676208 0.913973
Si Si4 0.951556 0.862637 0.485922
Si Si5 0.152244 0.558558 0.694421
O O1 0.500000 0.720236 0.750000
O O2 0.777782 0.704889 0.643393
O O3 0.501942 0.633324 0.610443
O O4 0.696995 0.582769 0.745206
O O5 0.286672 0.421887 0.999415
O O6 0.178132 0.516029 0.122377
O O7 0.117272 0.581359 0.964233
O O8 0.400593 0.584415 0.030450
O O9 0.914731 0.651798 0.854974
O O10 0.048551 0.757643 0.980573
O O11 0.000000 0.529261 0.750000
#
# Coordination Sequence:
#
# PCOD9455453 Si02
#       5
#     8   8   8   8   8
#     4  10  20  38  68  88 132 175 197 274 333 363
#     4  10  21  39  68  91 123 172 215 258 323 386
#     4  10  23  40  68  96 126 171 221 268 314 392
#     4  10  22  40  68  95 125 172 223 257 318 392
#     4  10  21  40  66  95 135 167 205 277 331 368
#
# _framework density 21.281544
#
# number of rings (size 3 to 8) (size 9 to 14) (size 15 to 20)
#    0.000    2.000    2.000    0.600    5.600    0.000 
#    0.000    3.000   66.000    0.000    0.000    0.000 
#    0.000    0.000    0.000    0.000    0.000    0.000 
#
# Total GULP energy -223010.805089 kJ/mol
# GULP energy per Si atom -5575.270127 kJ/mol
# Density = 2.123311 g / cm^3
# Si number density = 21.281544 Si / 1000 Ang^3
#
#
#
# Elastic Constant Matrix: (Units=GPa)
#
#
# Indices 1 2 3 4 5 6 
#
# 1 65.6432 24.7734 55.9074 0.0000 0.0000 0.0000
# 2 24.7734 64.8222 48.4923 0.0000 0.0000 0.0000
# 3 55.9074 48.4923 155.0645 0.0000 0.0000 0.0000
# 4 0.0000 0.0000 0.0000 9.8186 0.0000 0.0000
# 5 0.0000 0.0000 0.0000 0.0000 50.9592 0.0000
# 6 0.0000 0.0000 0.0000 0.0000 0.0000 13.1286
#
#
#
# Elastic Compliance Matrix: (Units=1/GPa)
#
#
# Indices 1 2 3 4 5 6 
#
# 1 0.022514 -0.003305 -0.007084 0.000000 0.000000 0.000000
# 2 -0.003305 0.020623 -0.005258 0.000000 0.000000 0.000000
# 3 -0.007084 -0.005258 0.010647 0.000000 0.000000 0.000000
# 4 0.000000 0.000000 0.000000 0.101848 0.000000 0.000000
# 5 0.000000 0.000000 0.000000 0.000000 0.019624 0.000000
# 6 0.000000 0.000000 0.000000 0.000000 0.000000 0.076170
#
#
# Mechanical properties :
#
#
# Convention : Reuss Voigt Hill
#
# Bulk Modulus (GPa) = 44.46147 60.43066 52.44607
# Shear Modulus (GPa) = 17.22852 25.20506 21.21679
#
# Velocity S-wave (km/s) = 2.84835 3.44519 3.16089
# Velocity P-wave (km/s) = 5.63514 6.65456 6.16596
#
# Compressibility (1/GPa) = 0.02249138
#
# Stress axis : x y z
#
# Youngs Moduli (GPa) = 44.41602 48.48928 93.92184
#
# Poissons Ratio (x) = 0.16026 0.66532
# Poissons Ratio (y) = 0.14680 0.49381
# Poissons Ratio (z) = 0.31463 0.25494
#
# Static dielectric constant tensor:
#      x y z
#    x 1.866690 0.000000 0.000000 
#    y 0.000000 1.760720 0.000000 
#    z 0.000000 0.000000 1.778900 
# 
# From -- ./inp_files/14643.got.cif
#   From: 2010.05.17/outbox.cif.g08.bks.cpg/sg60_8_cif.got.tgz:14643.got - 2010.06.03 14:59:27.
