data_PCOD9455186
_publ_section_title
;
Structure prediction by ZEFSAII (Michael W. Deem and Ramdas Pophale) SiO2 
 PCOD9455186
Probable space group: P B C N
;
_chemical_formula_sum "Si O2"
_cell_formula_units_Z 44
_cell_length_a 11.452839
_cell_length_b 9.509659
_cell_length_c 15.925934
_cell_angle_alpha 90.000000
_cell_angle_beta 90.000000
_cell_angle_gamma 90.000000
_cell_volume 1734.534775
_symmetry_space_group_name_H-M "P B C N"
_symmetry_group_IT_number 60
_symmetry_cell_setting 'orthorhombic'
loop_
_space_group_symop_operation_xyz
x,y,z
1/2-x,1/2-y,1/2+z
1/2+x,1/2-y,-z
-x,y,1/2-z
-x,-y,-z
1/2+x,1/2+y,1/2-z
1/2-x,1/2+y,z
x,-y,1/2+z
loop_
_atom_site_type_symbol
_atom_site_label
_atom_site_fract_x
_atom_site_fract_y
_atom_site_fract_z
Si Si1 0.085330 0.290868 0.087567
Si Si2 0.500000 0.110524 0.750000
Si Si3 0.182207 0.823934 0.198642
Si Si4 0.404548 0.685185 0.533221
Si Si5 0.792016 0.478544 0.014822
Si Si6 0.721874 0.058547 0.208787
O O1 0.207233 0.277195 0.138626
O O2 0.994910 0.303178 0.164548
O O3 0.022483 0.191226 0.020305
O O4 0.109092 0.432888 0.034720
O O5 0.388898 0.011678 0.745613
O O6 0.205255 0.722406 0.276702
O O7 0.178060 0.980226 0.237191
O O8 0.077634 0.796753 0.133505
O O9 0.327003 0.544678 0.523130
O O10 0.325776 0.816327 0.498445
O O11 0.783013 0.517388 0.112302
#
# Coordination Sequence:
#
# PCOD9455186 Si02
#       6
#     8   4   8   8   8   8
#     4  10  22  39  64  93 120 172 212 255 308 394
#     4  10  20  36  64  88 118 162 216 250 306 372
#     4  10  23  40  63  91 129 161 213 265 317 373
#     4  11  21  41  63  89 125 164 212 258 318 376
#     4  11  23  38  65  95 123 165 215 261 314 375
#     4  11  22  39  62  93 124 164 207 264 311 373
#
# _framework density 25.367032999999999
#
# number of rings (size 3 to 8) (size 9 to 14) (size 15 to 20)
#    0.000    1.455    1.818    4.909    5.091    0.000 
#    0.000    8.182    4.000    0.000    0.000    0.000 
#    0.000    0.000    0.000    0.000    0.000    0.000 
#
# Total GULP energy -245579.905072 kJ/mol
# GULP energy per Si atom -5581.361479 kJ/mol
# Density = 2.530930 g / cm^3
# Si number density = 25.367033 Si / 1000 Ang^3
#
#
#
# Elastic Constant Matrix: (Units=GPa)
#
#
# Indices 1 2 3 4 5 6 
#
# 1 30.9057 18.9085 1.7043 0.0000 0.0000 0.0000
# 2 18.9085 99.4148 36.1077 0.0000 0.0000 0.0000
# 3 1.7043 36.1077 141.1263 0.0000 0.0000 0.0000
# 4 0.0000 0.0000 0.0000 20.0872 0.0000 0.0000
# 5 0.0000 0.0000 0.0000 0.0000 15.4603 0.0000
# 6 0.0000 0.0000 0.0000 0.0000 0.0000 23.7475
#
#
#
# Elastic Compliance Matrix: (Units=1/GPa)
#
#
# Indices 1 2 3 4 5 6 
#
# 1 0.036899 -0.007559 0.001488 0.000000 0.000000 0.000000
# 2 -0.007559 0.012638 -0.003142 0.000000 0.000000 0.000000
# 3 0.001488 -0.003142 0.007872 0.000000 0.000000 0.000000
# 4 0.000000 0.000000 0.000000 0.049783 0.000000 0.000000
# 5 0.000000 0.000000 0.000000 0.000000 0.064682 0.000000
# 6 0.000000 0.000000 0.000000 0.000000 0.000000 0.042110
#
#
# Mechanical properties :
#
#
# Convention : Reuss Voigt Hill
#
# Bulk Modulus (GPa) = 25.65192 42.76532 34.20862
# Shear Modulus (GPa) = 20.37472 26.17409 23.27440
#
# Velocity S-wave (km/s) = 2.83715 3.21567 3.03232
# Velocity P-wave (km/s) = 4.56802 5.53919 5.07688
#
# Compressibility (1/GPa) = 0.03898343
#
# Stress axis : x y z
#
# Youngs Moduli (GPa) = 27.10112 79.12812 127.03567
#
# Poissons Ratio (x) = 0.59810 -0.18907
# Poissons Ratio (y) = 0.20485 0.39916
# Poissons Ratio (z) = -0.04033 0.24863
#
# Static dielectric constant tensor:
#      x y z
#    x 2.195580 0.000000 0.000000 
#    y 0.000000 2.074190 0.000000 
#    z 0.000000 0.000000 2.005840 
# 
# From -- ./inp_files/16745.got.cif
#   From: 2010.05.17/outbox.cif.g08.bks.cpg/sg60_9_cif.got.tgz:16745.got - 2010.06.03 14:59:27.
