data_PCOD9455775
_publ_section_title
;
Structure prediction by ZEFSAII (Michael W. Deem and Ramdas Pophale) SiO2 
 PCOD9455775
Probable space group: P B C N
;
_chemical_formula_sum "Si O2"
_cell_formula_units_Z 28
_cell_length_a 5.008003
_cell_length_b 19.542155
_cell_length_c 9.972750
_cell_angle_alpha 90.000000
_cell_angle_beta 90.000000
_cell_angle_gamma 90.000000
_cell_volume 976.004828
_symmetry_space_group_name_H-M "P B C N"
_symmetry_group_IT_number 60
_symmetry_cell_setting 'orthorhombic'
loop_
_space_group_symop_operation_xyz
x,y,z
1/2-x,1/2-y,1/2+z
1/2+x,1/2-y,-z
-x,y,1/2-z
-x,-y,-z
1/2+x,1/2+y,1/2-z
1/2-x,1/2+y,z
x,-y,1/2+z
loop_
_atom_site_type_symbol
_atom_site_label
_atom_site_fract_x
_atom_site_fract_y
_atom_site_fract_z
Si Si1 0.799541 0.097777 0.163373
Si Si2 0.018476 0.295191 0.495929
Si Si3 0.278823 0.507652 0.586971
Si Si4 0.000000 0.621708 0.750000
O O1 0.000000 0.145427 0.250000
O O2 0.582743 0.146462 0.098229
O O3 0.944611 0.049611 0.045491
O O4 0.254864 0.044027 0.218159
O O5 0.751100 0.254369 0.456231
O O6 0.130042 0.333243 0.365732
O O7 0.222210 0.576573 0.675683
O O8 0.000000 0.500000 0.500000
#
# Coordination Sequence:
#
# PCOD9455775 Si02
#       4
#     8   8   8   4
#     4   8  17  41  66 102 151 193 259 331 407 495
#     4  11  26  48  72 110 154 222 278 328 424 507
#     4   7  17  37  68 106 150 199 256 334 430 492
#     4  10  20  48  74 110 170 210 276 360 422 520
#
# _framework density 28.688379999999999
#
# number of rings (size 3 to 8) (size 9 to 14) (size 15 to 20)
#    1.714    1.143    0.000    0.000    2.000    1.143 
#   20.571    2.857    0.000    0.000    0.000    0.000 
#    0.000    0.286    0.000    0.000    0.000    0.000 
#
# Total GULP energy -156436.142432 kJ/mol
# GULP energy per Si atom -5587.005087 kJ/mol
# Density = 2.862308 g / cm^3
# Si number density = 28.688380 Si / 1000 Ang^3
#
#
#
# Elastic Constant Matrix: (Units=GPa)
#
#
# Indices 1 2 3 4 5 6 
#
# 1 182.8563 61.4140 81.1156 0.0000 0.0000 0.0000
# 2 61.4140 161.6754 96.6392 0.0000 0.0000 0.0000
# 3 81.1156 96.6392 257.2300 0.0000 0.0000 0.0000
# 4 0.0000 0.0000 0.0000 62.9328 0.0000 0.0000
# 5 0.0000 0.0000 0.0000 0.0000 67.6570 0.0000
# 6 0.0000 0.0000 0.0000 0.0000 0.0000 42.6334
#
#
#
# Elastic Compliance Matrix: (Units=1/GPa)
#
#
# Indices 1 2 3 4 5 6 
#
# 1 0.006683 -0.001649 -0.001488 0.000000 0.000000 0.000000
# 2 -0.001649 0.008383 -0.002630 0.000000 0.000000 0.000000
# 3 -0.001488 -0.002630 0.005345 0.000000 0.000000 0.000000
# 4 0.000000 0.000000 0.000000 0.015890 0.000000 0.000000
# 5 0.000000 0.000000 0.000000 0.000000 0.014780 0.000000
# 6 0.000000 0.000000 0.000000 0.000000 0.000000 0.023456
#
#
# Mechanical properties :
#
#
# Convention : Reuss Voigt Hill
#
# Bulk Modulus (GPa) = 112.64072 120.01104 116.32588
# Shear Modulus (GPa) = 56.16142 58.81750 57.48946
#
# Velocity S-wave (km/s) = 4.42932 4.53285 4.48138
# Velocity P-wave (km/s) = 8.09366 8.32581 8.21055
#
# Compressibility (1/GPa) = 0.00887778
#
# Stress axis : x y z
#
# Youngs Moduli (GPa) = 149.64162 119.28235 187.10434
#
# Poissons Ratio (x) = 0.19672 0.27836
# Poissons Ratio (y) = 0.24679 0.49200
# Poissons Ratio (z) = 0.22263 0.31366
#
# Static dielectric constant tensor:
#      x y z
#    x 3.802280 0.000000 0.000000 
#    y 0.000000 2.179130 0.000000 
#    z 0.000000 0.000000 2.367060 
# 
# From -- ./inp_files/8746.got.cif
#   From: 2010.05.17/outbox.cif.g08.bks.cpg/sg60_5_cif.got.tgz:8746.got - 2010.06.03 14:59:27.
