data_PCOD9455925
_publ_section_title
;
Structure prediction by ZEFSAII (Michael W. Deem and Ramdas Pophale) SiO2 
 PCOD9455925
Probable space group: P B C N
;
_chemical_formula_sum "Si O2"
_cell_formula_units_Z 32
_cell_length_a 4.838636
_cell_length_b 34.419437
_cell_length_c 9.060599
_cell_angle_alpha 90.000000
_cell_angle_beta 90.000000
_cell_angle_gamma 90.000000
_cell_volume 1508.980490
_symmetry_space_group_name_H-M "P B C N"
_symmetry_group_IT_number 60
_symmetry_cell_setting 'orthorhombic'
loop_
_space_group_symop_operation_xyz
x,y,z
1/2-x,1/2-y,1/2+z
1/2+x,1/2-y,-z
-x,y,1/2-z
-x,-y,-z
1/2+x,1/2+y,1/2-z
1/2-x,1/2+y,z
x,-y,1/2+z
loop_
_atom_site_type_symbol
_atom_site_label
_atom_site_fract_x
_atom_site_fract_y
_atom_site_fract_z
Si Si1 0.545678 0.959363 0.922460
Si Si2 0.008561 0.732677 0.576364
Si Si3 0.749723 0.346995 0.144547
Si Si4 0.461616 0.592724 0.423838
O O1 0.500000 0.965646 0.750000
O O2 0.855768 0.945642 0.947125
O O3 0.346351 0.922421 0.958803
O O4 0.500000 0.000000 0.000000
O O5 0.811082 0.761743 0.488113
O O6 0.891606 0.689113 0.561533
O O7 0.000000 0.741450 0.750000
O O8 0.500000 0.332626 0.250000
O O9 0.000000 0.362959 0.250000
O O10 0.595314 0.375670 0.031814
O O11 0.500000 0.603814 0.250000
#
# Coordination Sequence:
#
# PCOD9455925 Si02
#       4
#     8   8   8   8
#     4  10  21  37  58  86 118 154 198 249 300 361
#     4  11  23  42  65  93 127 164 209 262 314 375
#     4  11  23  41  63  91 124 161 207 259 310 372
#     4  10  22  40  60  86 121 157 200 250 304 366
#
# _framework density 21.206371000000001
#
# number of rings (size 3 to 8) (size 9 to 14) (size 15 to 20)
#    0.000    1.500    0.000    6.000    0.000    4.000 
#    0.000   10.000    0.000    0.000    0.000    0.000 
#    0.000    0.000    0.000    0.000    0.000    0.000 
#
# Total GULP energy -178708.681678 kJ/mol
# GULP energy per Si atom -5584.646302 kJ/mol
# Density = 2.115810 g / cm^3
# Si number density = 21.206371 Si / 1000 Ang^3
#
#
#
# Elastic Constant Matrix: (Units=GPa)
#
#
# Indices 1 2 3 4 5 6 
#
# 1 73.6542 -11.5402 14.5008 0.0000 0.0000 0.0000
# 2 -11.5402 71.2369 56.4059 0.0000 0.0000 0.0000
# 3 14.5008 56.4059 74.7907 0.0000 0.0000 0.0000
# 4 0.0000 0.0000 0.0000 6.5855 0.0000 0.0000
# 5 0.0000 0.0000 0.0000 0.0000 42.5482 0.0000
# 6 0.0000 0.0000 0.0000 0.0000 0.0000 -17.8938
#
#
#
# Elastic Compliance Matrix: (Units=1/GPa)
#
#
# Indices 1 2 3 4 5 6 
#
# 1 0.018784 0.014712 -0.014737 0.000000 0.000000 0.000000
# 2 0.014712 0.046371 -0.037824 0.000000 0.000000 0.000000
# 3 -0.014737 -0.037824 0.044755 0.000000 0.000000 0.000000
# 4 0.000000 0.000000 0.000000 0.151849 0.000000 0.000000
# 5 0.000000 0.000000 0.000000 0.000000 0.023503 0.000000
# 6 0.000000 0.000000 0.000000 0.000000 0.000000 -0.055885
#
#
# Mechanical properties :
#
#
# Convention : Reuss Voigt Hill
#
# Bulk Modulus (GPa) = 29.23193 37.60163 33.41678
# Shear Modulus (GPa) = 15.79891 16.93567 16.36729
#
# Velocity S-wave (km/s) = 2.73244 2.82904 2.78116
# Velocity P-wave (km/s) = 4.87539 5.33302 5.10933
#
# Compressibility (1/GPa) = 0.03420917
#
# Stress axis : x y z
#
# Youngs Moduli (GPa) = 53.23821 21.56539 22.34411
#
# Poissons Ratio (x) = -0.31727 0.32930
# Poissons Ratio (y) = -0.78325 0.84515
# Poissons Ratio (z) = 0.78460 0.81570
#
# Static dielectric constant tensor:
#      x y z
#    x 1.831340 0.000000 0.000000 
#    y 0.000000 1.762340 0.000000 
#    z 0.000000 0.000000 1.749500 
# 
# From -- ./inp_files/3036.got.cif
#   From: 2010.05.17/outbox.cif.g08.bks.cpg/sg60_2_cif.got.tgz:3036.got - 2010.06.03 14:59:27.
