data_PCOD9455691
_publ_section_title
;
Structure prediction by ZEFSAII (Michael W. Deem and Ramdas Pophale) SiO2 
 PCOD9455691
Probable space group: P B C N
;
_chemical_formula_sum "Si O2"
_cell_formula_units_Z 60
_cell_length_a 11.421992
_cell_length_b 10.157727
_cell_length_c 21.763264
_cell_angle_alpha 90.000000
_cell_angle_beta 90.000000
_cell_angle_gamma 90.000000
_cell_volume 2525.006023
_symmetry_space_group_name_H-M "P B C N"
_symmetry_group_IT_number 60
_symmetry_cell_setting 'orthorhombic'
loop_
_space_group_symop_operation_xyz
x,y,z
1/2-x,1/2-y,1/2+z
1/2+x,1/2-y,-z
-x,y,1/2-z
-x,-y,-z
1/2+x,1/2+y,1/2-z
1/2-x,1/2+y,z
x,-y,1/2+z
loop_
_atom_site_type_symbol
_atom_site_label
_atom_site_fract_x
_atom_site_fract_y
_atom_site_fract_z
Si Si1 0.500000 0.645568 0.750000
Si Si2 0.193036 0.032531 0.173919
Si Si3 0.603871 0.575301 0.542957
Si Si4 0.312973 0.999521 0.041817
Si Si5 0.165791 0.243409 0.849169
Si Si6 0.468232 0.641484 0.361910
Si Si7 0.975907 0.296324 0.024982
Si Si8 0.756263 0.020205 0.202197
O O1 0.394982 0.568014 0.711954
O O2 0.553453 0.726350 0.694044
O O3 0.259237 0.998024 0.110871
O O4 0.283387 0.056443 0.229370
O O5 0.103030 0.150031 0.157735
O O6 0.702238 0.501180 0.504045
O O7 0.660594 0.692322 0.582475
O O8 0.544292 0.488704 0.595692
O O9 0.512224 0.654797 0.502178
O O10 0.386593 0.129377 0.020276
O O11 0.406191 0.882863 0.032314
O O12 0.189144 0.397261 0.848912
O O13 0.245701 0.132657 0.814623
O O14 0.432579 0.761360 0.405957
O O15 0.381899 0.597706 0.307531
#
# Coordination Sequence:
#
# PCOD9455691 Si02
#       8
#     4   8   8   8   8   8   8   8
#     4  10  20  42  64  98 130 166 238 274 332 424
#     4  11  20  42  67  97 130 178 226 282 342 413
#     4  11  23  40  69  92 130 183 224 273 342 418
#     4  11  27  42  63 100 139 178 219 290 353 400
#     4  10  22  39  67  92 129 173 220 279 337 405
#     4  11  21  40  68  95 127 175 227 274 334 412
#     4  11  26  43  61 102 141 172 230 285 339 421
#     4  10  22  40  66  96 129 173 223 282 342 409
#
# _framework density 23.762321
#
# number of rings (size 3 to 8) (size 9 to 14) (size 15 to 20)
#    0.000    1.333    5.333    1.200    5.600    3.200 
#    0.000    0.000    2.933    0.000    0.000    0.000 
#    0.000    0.000    0.000    0.000    0.000    0.000 
#
# Total GULP energy -334189.839124 kJ/mol
# GULP energy per Si atom -5569.830652 kJ/mol
# Density = 2.370824 g / cm^3
# Si number density = 23.762321 Si / 1000 Ang^3
#
#
#
# Elastic Constant Matrix: (Units=GPa)
#
#
# Indices 1 2 3 4 5 6 
#
# 1 63.7792 8.0924 21.4710 0.0000 0.0000 0.0000
# 2 8.0924 39.0249 -5.3127 0.0000 0.0000 0.0000
# 3 21.4710 -5.3127 131.2417 0.0000 0.0000 0.0000
# 4 0.0000 0.0000 0.0000 18.6776 0.0000 0.0000
# 5 0.0000 0.0000 0.0000 0.0000 38.2659 0.0000
# 6 0.0000 0.0000 0.0000 0.0000 0.0000 23.8287
#
#
#
# Elastic Compliance Matrix: (Units=1/GPa)
#
#
# Indices 1 2 3 4 5 6 
#
# 1 0.017183 -0.003968 -0.002972 0.000000 0.000000 0.000000
# 2 -0.003968 0.026683 0.001729 0.000000 0.000000 0.000000
# 3 -0.002972 0.001729 0.008176 0.000000 0.000000 0.000000
# 4 0.000000 0.000000 0.000000 0.053540 0.000000 0.000000
# 5 0.000000 0.000000 0.000000 0.000000 0.026133 0.000000
# 6 0.000000 0.000000 0.000000 0.000000 0.000000 0.041966
#
#
# Mechanical properties :
#
#
# Convention : Reuss Voigt Hill
#
# Bulk Modulus (GPa) = 24.02625 31.39413 27.71019
# Shear Modulus (GPa) = 25.25576 30.14079 27.69828
#
# Velocity S-wave (km/s) = 3.26367 3.56536 3.41785
# Velocity P-wave (km/s) = 4.93306 5.49450 5.22133
#
# Compressibility (1/GPa) = 0.04162114
#
# Stress axis : x y z
#
# Youngs Moduli (GPa) = 58.19723 37.47726 122.31367
#
# Poissons Ratio (x) = 0.14870 0.36348
# Poissons Ratio (y) = 0.23091 -0.21151
# Poissons Ratio (z) = 0.17295 -0.06481
#
# Static dielectric constant tensor:
#      x y z
#    x 2.156020 0.000000 0.000000 
#    y 0.000000 1.950800 0.000000 
#    z 0.000000 0.000000 1.983230 
# 
# From -- ./inp_files/22664.got.cif
#   From: 2010.05.17/outbox.cif.g08.bks.cpg/sg60_12_cif.got.tgz:22664.got - 2010.06.03 14:59:27.
