data_PCOD9455944
_publ_section_title
;
Structure prediction by ZEFSAII (Michael W. Deem and Ramdas Pophale) SiO2 
 PCOD9455944
Probable space group: P B C N
;
_chemical_formula_sum "Si O2"
_cell_formula_units_Z 48
_cell_length_a 7.375007
_cell_length_b 11.194504
_cell_length_c 25.495233
_cell_angle_alpha 90.000000
_cell_angle_beta 90.000000
_cell_angle_gamma 90.000000
_cell_volume 2104.874845
_symmetry_space_group_name_H-M "P B C N"
_symmetry_group_IT_number 60
_symmetry_cell_setting 'orthorhombic'
loop_
_space_group_symop_operation_xyz
x,y,z
1/2-x,1/2-y,1/2+z
1/2+x,1/2-y,-z
-x,y,1/2-z
-x,-y,-z
1/2+x,1/2+y,1/2-z
1/2-x,1/2+y,z
x,-y,1/2+z
loop_
_atom_site_type_symbol
_atom_site_label
_atom_site_fract_x
_atom_site_fract_y
_atom_site_fract_z
Si Si1 0.118128 0.335728 0.196415
Si Si2 0.885508 0.615559 0.990705
Si Si3 0.529515 0.212487 0.094872
Si Si4 0.465193 0.464904 0.061119
Si Si5 0.411943 0.715148 0.091686
Si Si6 0.398685 0.111742 0.195720
O O1 0.029799 0.296019 0.140801
O O2 0.264932 0.227061 0.199337
O O3 0.178730 0.475470 0.188449
O O4 0.000000 0.331016 0.250000
O O5 0.849066 0.654500 0.049861
O O6 0.740183 0.578718 0.947308
O O7 0.979566 0.727360 0.962704
O O8 0.000000 0.500000 0.000000
O O9 0.564382 0.353482 0.087734
O O10 0.309180 0.197738 0.085253
O O11 0.541568 0.147504 0.150234
O O12 0.480195 0.580933 0.096252
O O13 0.500000 0.500000 0.000000
O O14 0.500000 0.105558 0.250000
#
# Coordination Sequence:
#
# PCOD9455944 Si02
#       6
#     8   8   8   8   8   8
#     4  10  23  43  65  89 122 162 210 257 315 372
#     4  11  20  35  59  84 119 160 200 242 307 369
#     4  10  21  37  61  87 118 164 199 248 311 363
#     4  11  22  38  55  91 126 158 204 249 301 378
#     4  10  21  37  62  86 119 160 200 249 302 370
#     4  10  23  44  65  93 125 160 215 267 316 377
#
# _framework density 22.804206000000001
#
# number of rings (size 3 to 8) (size 9 to 14) (size 15 to 20)
#    0.000    1.667    3.333    1.000   11.667    0.667 
#    3.000    1.667    0.000    0.000    0.000    0.000 
#    0.000    0.000    0.000    0.000    0.000    0.000 
#
# Total GULP energy -267235.085632 kJ/mol
# GULP energy per Si atom -5567.397617 kJ/mol
# Density = 2.275230 g / cm^3
# Si number density = 22.804206 Si / 1000 Ang^3
#
#
#
# Elastic Constant Matrix: (Units=GPa)
#
#
# Indices 1 2 3 4 5 6 
#
# 1 30.4825 14.3190 11.1035 0.0000 0.0000 0.0000
# 2 14.3190 197.5655 53.2651 0.0000 0.0000 0.0000
# 3 11.1035 53.2651 145.8829 0.0000 0.0000 0.0000
# 4 0.0000 0.0000 0.0000 34.2333 0.0000 0.0000
# 5 0.0000 0.0000 0.0000 0.0000 27.6910 0.0000
# 6 0.0000 0.0000 0.0000 0.0000 0.0000 14.0266
#
#
#
# Elastic Compliance Matrix: (Units=1/GPa)
#
#
# Indices 1 2 3 4 5 6 
#
# 1 0.034428 -0.001984 -0.001896 0.000000 0.000000 0.000000
# 2 -0.001984 0.005729 -0.001941 0.000000 0.000000 0.000000
# 3 -0.001896 -0.001941 0.007708 0.000000 0.000000 0.000000
# 4 0.000000 0.000000 0.000000 0.029211 0.000000 0.000000
# 5 0.000000 0.000000 0.000000 0.000000 0.036113 0.000000
# 6 0.000000 0.000000 0.000000 0.000000 0.000000 0.071293
#
#
# Mechanical properties :
#
#
# Convention : Reuss Voigt Hill
#
# Bulk Modulus (GPa) = 27.60659 59.03401 43.32030
# Shear Modulus (GPa) = 24.01560 34.87305 29.44433
#
# Velocity S-wave (km/s) = 3.24870 3.91479 3.59720
# Velocity P-wave (km/s) = 5.11901 6.81011 6.02420
#
# Compressibility (1/GPa) = 0.03622324
#
# Stress axis : x y z
#
# Youngs Moduli (GPa) = 29.04582 174.56193 129.74058
#
# Poissons Ratio (x) = 0.34635 0.24598
# Poissons Ratio (y) = 0.05763 0.25178
# Poissons Ratio (z) = 0.05507 0.33876
#
# Static dielectric constant tensor:
#      x y z
#    x 2.166030 0.000000 0.000000 
#    y 0.000000 1.401100 0.000000 
#    z 0.000000 0.000000 1.907970 
# 
# From -- ./inp_files/25148.got.cif
#   From: 2010.05.17/outbox.cif.g08.bks.cpg/sg60_13_cif.got.tgz:25148.got - 2010.06.03 14:59:27.
