data_PCOD9455372
_publ_section_title
;
Structure prediction by ZEFSAII (Michael W. Deem and Ramdas Pophale) SiO2 
 PCOD9455372
Probable space group: P B C N
;
_chemical_formula_sum "Si O2"
_cell_formula_units_Z 48
_cell_length_a 9.857731
_cell_length_b 14.381037
_cell_length_c 16.161516
_cell_angle_alpha 90.000000
_cell_angle_beta 90.000000
_cell_angle_gamma 90.000000
_cell_volume 2291.127526
_symmetry_space_group_name_H-M "P B C N"
_symmetry_group_IT_number 60
_symmetry_cell_setting 'orthorhombic'
loop_
_space_group_symop_operation_xyz
x,y,z
1/2-x,1/2-y,1/2+z
1/2+x,1/2-y,-z
-x,y,1/2-z
-x,-y,-z
1/2+x,1/2+y,1/2-z
1/2-x,1/2+y,z
x,-y,1/2+z
loop_
_atom_site_type_symbol
_atom_site_label
_atom_site_fract_x
_atom_site_fract_y
_atom_site_fract_z
Si Si1 0.479365 0.850700 0.071093
Si Si2 0.475637 0.716815 0.914439
Si Si3 0.500000 0.162391 0.250000
Si Si4 0.500000 0.848563 0.250000
Si Si5 0.270970 0.992708 0.756006
Si Si6 0.267175 0.564920 0.925699
Si Si7 0.688515 0.549708 0.916303
O O1 0.492005 0.800147 0.160945
O O2 0.605467 0.921980 0.065251
O O3 0.338947 0.906873 0.071942
O O4 0.484454 0.782021 0.994231
O O5 0.500656 0.775545 0.831910
O O6 0.330513 0.666214 0.911164
O O7 0.583730 0.633875 0.919512
O O8 0.631528 0.096049 0.248356
O O9 0.630088 0.916736 0.246490
O O10 0.201890 0.001844 0.845417
O O11 0.182454 0.001167 0.673541
O O12 0.328012 0.521541 0.008579
#
# Coordination Sequence:
#
# PCOD9455372 Si02
#       7
#     8   8   4   4   8   8   8
#     4  10  20  38  62  87 115 160 206 241 283 349
#     4  12  24  37  58  94 126 149 189 258 307 333
#     4  11  22  40  64  89 114 154 206 247 288 354
#     4   7  16  34  58  83 110 144 196 245 276 330
#     4   9  19  37  62  84 107 154 206 238 279 350
#     4  11  22  40  61  86 121 161 197 238 294 360
#     4  11  22  40  61  86 121 161 197 238 294 360
#
# _framework density 20.950382999999999
#
# number of rings (size 3 to 8) (size 9 to 14) (size 15 to 20)
#    0.000    1.667    0.000    6.000    0.000    0.000 
#    0.000    1.667    0.000    2.000    0.000    0.000 
#    0.000    0.000    0.000    0.000    0.000    0.000 
#
# Total GULP energy -268234.006879 kJ/mol
# GULP energy per Si atom -5588.208477 kJ/mol
# Density = 2.090270 g / cm^3
# Si number density = 20.950383 Si / 1000 Ang^3
#
#
#
# Elastic Constant Matrix: (Units=GPa)
#
#
# Indices 1 2 3 4 5 6 
#
# 1 50.9721 0.2867 0.3308 0.0000 0.0000 0.0000
# 2 0.2867 49.1442 41.0649 0.0000 0.0000 0.0000
# 3 0.3308 41.0649 174.8613 0.0000 0.0000 0.0000
# 4 0.0000 0.0000 0.0000 -156.1702 0.0000 0.0000
# 5 0.0000 0.0000 0.0000 0.0000 -61.5985 0.0000
# 6 0.0000 0.0000 0.0000 0.0000 0.0000 40.2633
#
#
#
# Elastic Compliance Matrix: (Units=1/GPa)
#
#
# Indices 1 2 3 4 5 6 
#
# 1 0.019619 -0.000104 -0.000013 0.000000 0.000000 0.000000
# 2 -0.000104 0.025317 -0.005945 0.000000 0.000000 0.000000
# 3 -0.000013 -0.005945 0.007115 0.000000 0.000000 0.000000
# 4 0.000000 0.000000 0.000000 -0.006403 0.000000 0.000000
# 5 0.000000 0.000000 0.000000 0.000000 -0.016234 0.000000
# 6 0.000000 0.000000 0.000000 0.000000 0.000000 0.024837
#
#
# Mechanical properties :
#
#
# Convention : Reuss Voigt Hill
#
# Bulk Modulus (GPa) = 25.04545 39.81582 32.43064
# Shear Modulus (GPa) = 62.74877 -19.94807 21.40035
#
# Velocity S-wave (km/s) = 5.47870 -3.08905 3.19952
# Velocity P-wave (km/s) = 7.21125 2.51457 5.40024
#
# Compressibility (1/GPa) = 0.03992740
#
# Stress axis : x y z
#
# Youngs Moduli (GPa) = 50.97035 39.49957 140.54724
#
# Poissons Ratio (x) = 0.00410 0.00179
# Poissons Ratio (y) = 0.00529 0.83559
# Poissons Ratio (z) = 0.00065 0.23484
#
# Static dielectric constant tensor:
#      x y z
#    x 1.689040 0.000000 0.000000 
#    y 0.000000 1.697670 0.000000 
#    z 0.000000 0.000000 1.782230 
# 
# From -- ./inp_files/16095.got.cif
#   From: 2010.05.17/outbox.cif.g08.bks.cpg/sg60_9_cif.got.tgz:16095.got - 2010.06.03 14:59:27.
