data_PCOD9455715
_publ_section_title
;
Structure prediction by ZEFSAII (Michael W. Deem and Ramdas Pophale) SiO2 
 PCOD9455715
Probable space group: P B C N
;
_chemical_formula_sum "Si O2"
_cell_formula_units_Z 60
_cell_length_a 20.370989
_cell_length_b 15.388140
_cell_length_c 8.782473
_cell_angle_alpha 90.000000
_cell_angle_beta 90.000000
_cell_angle_gamma 90.000000
_cell_volume 2753.056133
_symmetry_space_group_name_H-M "P B C N"
_symmetry_group_IT_number 60
_symmetry_cell_setting 'orthorhombic'
loop_
_space_group_symop_operation_xyz
x,y,z
1/2-x,1/2-y,1/2+z
1/2+x,1/2-y,-z
-x,y,1/2-z
-x,-y,-z
1/2+x,1/2+y,1/2-z
1/2-x,1/2+y,z
x,-y,1/2+z
loop_
_atom_site_type_symbol
_atom_site_label
_atom_site_fract_x
_atom_site_fract_y
_atom_site_fract_z
Si Si1 0.926549 0.101175 0.923842
Si Si2 0.416583 0.571627 0.915635
Si Si3 0.229266 0.628426 0.050207
Si Si4 0.147745 0.771940 0.589698
Si Si5 0.700826 0.002895 0.702049
Si Si6 0.614946 0.917124 0.456880
Si Si7 0.500000 0.102813 0.750000
Si Si8 0.106408 0.279755 0.420234
O O1 0.895843 0.090723 0.756790
O O2 0.004495 0.082841 0.916064
O O3 0.916652 0.197430 0.984812
O O4 0.899516 0.025673 0.033165
O O5 0.389050 0.641917 0.033495
O O6 0.243339 0.559073 0.915457
O O7 0.155743 0.660989 0.017097
O O8 0.277397 0.709865 0.045214
O O9 0.233623 0.577291 0.209719
O O10 0.116017 0.686153 0.515194
O O11 0.142098 0.757070 0.769596
O O12 0.638351 0.967691 0.605407
O O13 0.672421 0.064514 0.833822
O O14 0.548219 0.944076 0.370404
O O15 0.452824 0.163282 0.852686
#
# Coordination Sequence:
#
# PCOD9455715 Si02
#       8
#     8   8   8   8   8   8   4   8
#     4  10  21  39  64  91 132 160 213 266 324 389
#     4  10  22  39  62  97 125 168 208 267 323 385
#     4  11  25  44  65  91 131 171 217 264 323 381
#     4  11  24  41  65  93 128 171 215 260 326 384
#     4  10  23  45  62  95 127 171 216 268 315 382
#     4  10  22  41  67  92 133 164 213 266 328 382
#     4  10  20  42  68  98 130 172 216 274 330 390
#     4  11  23  42  65  96 128 172 214 270 328 387
#
# _framework density 21.793960999999999
#
# number of rings (size 3 to 8) (size 9 to 14) (size 15 to 20)
#    0.000    1.600    2.667    2.400    3.733    4.800 
#    2.400    0.000    0.000    0.000    0.000    0.000 
#    0.000    0.000    0.000    0.000    0.000    0.000 
#
# Total GULP energy -335259.672471 kJ/mol
# GULP energy per Si atom -5587.661208 kJ/mol
# Density = 2.174436 g / cm^3
# Si number density = 21.793961 Si / 1000 Ang^3
#
#
#
# Elastic Constant Matrix: (Units=GPa)
#
#
# Indices 1 2 3 4 5 6 
#
# 1 42.9569 -11.0788 -1.2265 0.0000 0.0000 0.0000
# 2 -11.0788 39.7540 17.6347 0.0000 0.0000 0.0000
# 3 -1.2265 17.6347 79.5362 0.0000 0.0000 0.0000
# 4 0.0000 0.0000 0.0000 37.3863 0.0000 0.0000
# 5 0.0000 0.0000 0.0000 0.0000 17.1299 0.0000
# 6 0.0000 0.0000 0.0000 0.0000 0.0000 28.0723
#
#
#
# Elastic Compliance Matrix: (Units=1/GPa)
#
#
# Indices 1 2 3 4 5 6 
#
# 1 0.025202 0.007598 -0.001296 0.000000 0.000000 0.000000
# 2 0.007598 0.030190 -0.006576 0.000000 0.000000 0.000000
# 3 -0.001296 -0.006576 0.014011 0.000000 0.000000 0.000000
# 4 0.000000 0.000000 0.000000 0.026748 0.000000 0.000000
# 5 0.000000 0.000000 0.000000 0.000000 0.058377 0.000000
# 6 0.000000 0.000000 0.000000 0.000000 0.000000 0.035622
#
#
# Mechanical properties :
#
#
# Convention : Reuss Voigt Hill
#
# Bulk Modulus (GPa) = 14.52352 19.21177 16.86765
# Shear Modulus (GPa) = 23.40282 26.97887 25.19084
#
# Velocity S-wave (km/s) = 3.28048 3.52221 3.40349
# Velocity P-wave (km/s) = 4.58554 5.03742 4.81678
#
# Compressibility (1/GPa) = 0.06885382
#
# Stress axis : x y z
#
# Youngs Moduli (GPa) = 39.67976 33.12409 71.37228
#
# Poissons Ratio (x) = -0.25168 0.09250
# Poissons Ratio (y) = -0.30150 0.46938
# Poissons Ratio (z) = 0.05143 0.21784
#
# Static dielectric constant tensor:
#      x y z
#    x 1.823930 0.000000 0.000000 
#    y 0.000000 1.793990 0.000000 
#    z 0.000000 0.000000 1.791070 
# 
# From -- ./inp_files/7942.got.cif
#   From: 2010.05.17/outbox.cif.g08.bks.cpg/sg60_4_cif.got.tgz:7942.got - 2010.06.03 14:59:27.
