data_PCOD9455577
_publ_section_title
;
Structure prediction by ZEFSAII (Michael W. Deem and Ramdas Pophale) SiO2 
 PCOD9455577
Probable space group: P B C N
;
_chemical_formula_sum "Si O2"
_cell_formula_units_Z 48
_cell_length_a 8.112284
_cell_length_b 19.038414
_cell_length_c 14.775825
_cell_angle_alpha 90.000000
_cell_angle_beta 90.000000
_cell_angle_gamma 90.000000
_cell_volume 2282.052607
_symmetry_space_group_name_H-M "P B C N"
_symmetry_group_IT_number 60
_symmetry_cell_setting 'orthorhombic'
loop_
_space_group_symop_operation_xyz
x,y,z
1/2-x,1/2-y,1/2+z
1/2+x,1/2-y,-z
-x,y,1/2-z
-x,-y,-z
1/2+x,1/2+y,1/2-z
1/2-x,1/2+y,z
x,-y,1/2+z
loop_
_atom_site_type_symbol
_atom_site_label
_atom_site_fract_x
_atom_site_fract_y
_atom_site_fract_z
Si Si1 0.630879 0.836852 0.174875
Si Si2 0.781399 0.065320 0.531441
Si Si3 0.141878 0.668753 0.096516
Si Si4 0.125603 0.289555 0.025693
Si Si5 0.309032 0.686445 0.280538
Si Si6 0.151478 0.904115 0.962712
O O1 0.500000 0.862737 0.250000
O O2 0.738351 0.895861 0.125572
O O3 0.517862 0.801643 0.097346
O O4 0.731714 0.769525 0.209799
O O5 0.653538 0.095611 0.457376
O O6 0.962382 0.086086 0.493424
O O7 0.774973 0.981965 0.541135
O O8 0.279868 0.718954 0.050079
O O9 0.191420 0.659584 0.200221
O O10 0.969534 0.705468 0.070308
O O11 0.253601 0.353384 0.031873
O O12 0.500000 0.687347 0.250000
O O13 0.320808 0.636707 0.368200
#
# Coordination Sequence:
#
# PCOD9455577 Si02
#       6
#     8   8   8   8   8   8
#     4  10  20  40  64  90 123 162 211 271 319 373
#     4  10  22  41  63  86 126 171 211 253 325 392
#     4  11  21  39  66  90 121 167 207 266 321 385
#     4  11  22  38  66  90 119 163 212 259 322 386
#     4  11  20  39  64  89 125 162 208 266 322 373
#     4  11  23  41  60  91 126 167 213 256 318 402
#
# _framework density 21.033695000000002
#
# number of rings (size 3 to 8) (size 9 to 14) (size 15 to 20)
#    0.000    1.333    5.000    3.000    0.000    3.333 
#    6.000    0.833    0.000    0.000    0.000    0.000 
#    0.000    0.000    0.000    0.000    0.000    0.000 
#
# Total GULP energy -267988.369398 kJ/mol
# GULP energy per Si atom -5583.091029 kJ/mol
# Density = 2.098582 g / cm^3
# Si number density = 21.033695 Si / 1000 Ang^3
#
#
#
# Elastic Constant Matrix: (Units=GPa)
#
#
# Indices 1 2 3 4 5 6 
#
# 1 43.6707 16.6692 18.9618 0.0000 0.0000 0.0000
# 2 16.6692 140.0419 30.6977 0.0000 0.0000 0.0000
# 3 18.9618 30.6977 90.9704 0.0000 0.0000 0.0000
# 4 0.0000 0.0000 0.0000 14.2614 0.0000 0.0000
# 5 0.0000 0.0000 0.0000 0.0000 42.5601 0.0000
# 6 0.0000 0.0000 0.0000 0.0000 0.0000 24.1869
#
#
#
# Elastic Compliance Matrix: (Units=1/GPa)
#
#
# Indices 1 2 3 4 5 6 
#
# 1 0.025704 -0.002036 -0.004671 0.000000 0.000000 0.000000
# 2 -0.002036 0.007872 -0.002232 0.000000 0.000000 0.000000
# 3 -0.004671 -0.002232 0.012719 0.000000 0.000000 0.000000
# 4 0.000000 0.000000 0.000000 0.070119 0.000000 0.000000
# 5 0.000000 0.000000 0.000000 0.000000 0.023496 0.000000
# 6 0.000000 0.000000 0.000000 0.000000 0.000000 0.041345
#
#
# Mechanical properties :
#
#
# Convention : Reuss Voigt Hill
#
# Bulk Modulus (GPa) = 35.18862 45.26003 40.22433
# Shear Modulus (GPa) = 23.96870 30.09199 27.03034
#
# Velocity S-wave (km/s) = 3.37937 3.78651 3.58871
# Velocity P-wave (km/s) = 5.65622 6.37820 6.02803
#
# Compressibility (1/GPa) = 0.02841828
#
# Stress axis : x y z
#
# Youngs Moduli (GPa) = 38.90490 127.02722 78.62016
#
# Poissons Ratio (x) = 0.25859 0.36721
# Poissons Ratio (y) = 0.07920 0.17549
# Poissons Ratio (z) = 0.18171 0.28355
#
# Static dielectric constant tensor:
#      x y z
#    x 1.802910 0.000000 0.000000 
#    y 0.000000 1.719960 0.000000 
#    z 0.000000 0.000000 1.846430 
# 
# From -- ./inp_files/15014.got.cif
#   From: 2010.05.17/outbox.cif.g08.bks.cpg/sg60_8_cif.got.tgz:15014.got - 2010.06.03 14:59:27.
