data_PCOD9455843
_publ_section_title
;
Structure prediction by ZEFSAII (Michael W. Deem and Ramdas Pophale) SiO2 
 PCOD9455843
Probable space group: P B C N
;
_chemical_formula_sum "Si O2"
_cell_formula_units_Z 48
_cell_length_a 12.460549
_cell_length_b 11.334293
_cell_length_c 17.782052
_cell_angle_alpha 90.000000
_cell_angle_beta 90.000000
_cell_angle_gamma 90.000000
_cell_volume 2511.386114
_symmetry_space_group_name_H-M "P B C N"
_symmetry_group_IT_number 60
_symmetry_cell_setting 'orthorhombic'
loop_
_space_group_symop_operation_xyz
x,y,z
1/2-x,1/2-y,1/2+z
1/2+x,1/2-y,-z
-x,y,1/2-z
-x,-y,-z
1/2+x,1/2+y,1/2-z
1/2-x,1/2+y,z
x,-y,1/2+z
loop_
_atom_site_type_symbol
_atom_site_label
_atom_site_fract_x
_atom_site_fract_y
_atom_site_fract_z
Si Si1 0.721756 0.832451 0.872916
Si Si2 0.847336 0.915422 0.016613
Si Si3 0.882003 0.764442 0.751846
Si Si4 0.865426 0.647742 0.594380
Si Si5 0.450672 0.017460 0.673302
Si Si6 0.920633 0.828330 0.462650
O O1 0.789147 0.828701 0.796491
O O2 0.637819 0.939036 0.866483
O O3 0.649977 0.717689 0.892686
O O4 0.806418 0.851348 0.940445
O O5 0.747500 0.908176 0.072453
O O6 0.953527 0.853212 0.049263
O O7 0.874443 0.049391 0.994786
O O8 0.852746 0.730400 0.667348
O O9 0.901757 0.641936 0.797758
O O10 0.000000 0.824175 0.750000
O O11 0.906778 0.726903 0.525456
O O12 0.953069 0.550794 0.617550
O O13 0.500000 0.961722 0.750000
#
# Coordination Sequence:
#
# PCOD9455843 Si02
#       6
#     8   8   8   8   8   8
#     4  11  21  35  59  82 111 147 184 234 283 338
#     4  10  21  36  53  79 111 145 186 230 277 334
#     4   9  19  37  57  80 108 142 181 222 280 337
#     4   9  20  37  58  78 109 147 182 229 283 334
#     4   9  20  36  54  81 109 138 185 231 274 331
#     4  10  22  36  53  80 111 145 187 229 276 335
#
# _framework density 19.112950999999999
#
# number of rings (size 3 to 8) (size 9 to 14) (size 15 to 20)
#    0.000    2.667    0.000    3.000    0.000   10.667 
#    0.000    0.000    0.000    2.000    0.000    0.000 
#    0.000    0.000    0.000    0.000    0.000    0.000 
#
# Total GULP energy -267780.472197 kJ/mol
# GULP energy per Si atom -5578.759837 kJ/mol
# Density = 1.906945 g / cm^3
# Si number density = 19.112951 Si / 1000 Ang^3
#
#
#
# Elastic Constant Matrix: (Units=GPa)
#
#
# Indices 1 2 3 4 5 6 
#
# 1 113.6809 34.1990 23.2567 0.0000 0.0000 0.0000
# 2 34.1990 34.6372 -7.2283 0.0000 0.0000 0.0000
# 3 23.2567 -7.2283 36.7570 0.0000 0.0000 0.0000
# 4 0.0000 0.0000 0.0000 3.7404 0.0000 0.0000
# 5 0.0000 0.0000 0.0000 0.0000 37.0507 0.0000
# 6 0.0000 0.0000 0.0000 0.0000 0.0000 18.9246
#
#
#
# Elastic Compliance Matrix: (Units=1/GPa)
#
#
# Indices 1 2 3 4 5 6 
#
# 1 0.018619 -0.021734 -0.016055 0.000000 0.000000 0.000000
# 2 -0.021734 0.055476 0.024661 0.000000 0.000000 0.000000
# 3 -0.016055 0.024661 0.042213 0.000000 0.000000 0.000000
# 4 0.000000 0.000000 0.000000 0.267348 0.000000 0.000000
# 5 0.000000 0.000000 0.000000 0.000000 0.026990 0.000000
# 6 0.000000 0.000000 0.000000 0.000000 0.000000 0.052841
#
#
# Mechanical properties :
#
#
# Convention : Reuss Voigt Hill
#
# Bulk Modulus (GPa) = 11.10457 31.72555 21.41506
# Shear Modulus (GPa) = 9.61979 20.93300 15.27639
#
# Velocity S-wave (km/s) = 2.24590 3.31301 2.83020
# Velocity P-wave (km/s) = 3.54231 5.59193 4.68069
#
# Compressibility (1/GPa) = 0.09005297
#
# Stress axis : x y z
#
# Youngs Moduli (GPa) = 53.70749 18.02573 23.68918
#
# Poissons Ratio (x) = 0.39177 0.38032
# Poissons Ratio (y) = 1.16729 -0.58420
# Poissons Ratio (z) = 0.86226 -0.44453
#
# Static dielectric constant tensor:
#      x y z
#    x 1.674440 0.000000 0.000000 
#    y 0.000000 1.655080 0.000000 
#    z 0.000000 0.000000 1.678340 
# 
# From -- ./inp_files/20022.got.cif
#   From: 2010.05.17/outbox.cif.g08.bks.cpg/sg60_11_cif.got.tgz:20022.got - 2010.06.03 14:59:27.
