data_PCOD9455859
_publ_section_title
;
Structure prediction by ZEFSAII (Michael W. Deem and Ramdas Pophale) SiO2 
 PCOD9455859
Probable space group: P B C N
;
_chemical_formula_sum "Si O2"
_cell_formula_units_Z 32
_cell_length_a 16.378446
_cell_length_b 13.471535
_cell_length_c 5.366075
_cell_angle_alpha 90.000000
_cell_angle_beta 90.000000
_cell_angle_gamma 90.000000
_cell_volume 1183.985859
_symmetry_space_group_name_H-M "P B C N"
_symmetry_group_IT_number 60
_symmetry_cell_setting 'orthorhombic'
loop_
_space_group_symop_operation_xyz
x,y,z
1/2-x,1/2-y,1/2+z
1/2+x,1/2-y,-z
-x,y,1/2-z
-x,-y,-z
1/2+x,1/2+y,1/2-z
1/2-x,1/2+y,z
x,-y,1/2+z
loop_
_atom_site_type_symbol
_atom_site_label
_atom_site_fract_x
_atom_site_fract_y
_atom_site_fract_z
Si Si1 0.780267 0.628494 0.250996
Si Si2 0.319071 0.362371 0.250012
Si Si3 0.500000 0.630226 0.750000
Si Si4 0.058639 0.591561 0.443160
Si Si5 0.500000 0.247638 0.750000
O O1 0.737219 0.611472 0.513210
O O2 0.818009 0.740767 0.243471
O O3 0.859067 0.562219 0.192053
O O4 0.719233 0.615786 0.019320
O O5 0.408108 0.410892 0.289210
O O6 0.484407 0.683781 0.483963
O O7 0.070563 0.668456 0.670531
O O8 0.000000 0.649531 0.250000
O O9 0.000000 0.500000 0.500000
#
# Coordination Sequence:
#
# PCOD9455859 Si02
#       5
#     8   8   4   8   4
#     4  10  22  36  54  82 119 159 204 254 311 367
#     4  10  21  36  57  81 116 157 203 260 307 383
#     4  12  22  37  64  88 116 162 213 258 322 382
#     4  12  25  38  59  85 125 173 213 254 307 386
#     4  12  22  35  58  84 118 164 207 256 294 386
#
# _framework density 27.027348
#
# number of rings (size 3 to 8) (size 9 to 14) (size 15 to 20)
#    0.000    1.000    5.000    1.500   10.500    0.000 
#    0.000    0.000    0.000    0.000    0.000    0.000 
#    0.000   20.000    0.000    0.000    0.000    0.000 
#
# Total GULP energy -178943.967829 kJ/mol
# GULP energy per Si atom -5591.998995 kJ/mol
# Density = 2.696583 g / cm^3
# Si number density = 27.027348 Si / 1000 Ang^3
#
#
#
# Elastic Constant Matrix: (Units=GPa)
#
#
# Indices 1 2 3 4 5 6 
#
# 1 191.0809 14.2193 34.6039 0.0000 0.0000 0.0000
# 2 14.2193 55.8453 15.8413 0.0000 0.0000 0.0000
# 3 34.6039 15.8413 171.1299 0.0000 0.0000 0.0000
# 4 0.0000 0.0000 0.0000 12.1665 0.0000 0.0000
# 5 0.0000 0.0000 0.0000 0.0000 52.6878 0.0000
# 6 0.0000 0.0000 0.0000 0.0000 0.0000 6.2943
#
#
#
# Elastic Compliance Matrix: (Units=1/GPa)
#
#
# Indices 1 2 3 4 5 6 
#
# 1 0.005499 -0.001114 -0.001009 0.000000 0.000000 0.000000
# 2 -0.001114 0.018615 -0.001498 0.000000 0.000000 0.000000
# 3 -0.001009 -0.001498 0.006186 0.000000 0.000000 0.000000
# 4 0.000000 0.000000 0.000000 0.082193 0.000000 0.000000
# 5 0.000000 0.000000 0.000000 0.000000 0.018980 0.000000
# 6 0.000000 0.000000 0.000000 0.000000 0.000000 0.158873
#
#
# Mechanical properties :
#
#
# Convention : Reuss Voigt Hill
#
# Bulk Modulus (GPa) = 43.36730 60.82057 52.09394
# Shear Modulus (GPa) = 16.37875 37.78917 27.08396
#
# Velocity S-wave (km/s) = 2.46439 3.74328 3.16902
# Velocity P-wave (km/s) = 4.91713 6.42146 5.71897
#
# Compressibility (1/GPa) = 0.02305885
#
# Stress axis : x y z
#
# Youngs Moduli (GPa) = 181.85211 53.71964 161.65095
#
# Poissons Ratio (x) = 0.05984 0.16308
# Poissons Ratio (y) = 0.20258 0.24214
# Poissons Ratio (z) = 0.18346 0.08047
#
# Static dielectric constant tensor:
#      x y z
#    x 2.209940 0.000000 0.000000 
#    y 0.000000 2.241360 0.000000 
#    z 0.000000 0.000000 2.466380 
# 
# From -- ./inp_files/1070.got.cif
#   From: 2010.05.17/outbox.cif.g08.bks.cpg/sg60_1_cif.got.tgz:1070.got - 2010.06.03 14:59:27.
