data_PCOD9455989
_publ_section_title
;
Structure prediction by ZEFSAII (Michael W. Deem and Ramdas Pophale) SiO2 
 PCOD9455989
Probable space group: P B C N
;
_chemical_formula_sum "Si O2"
_cell_formula_units_Z 60
_cell_length_a 5.368966
_cell_length_b 24.334417
_cell_length_c 19.258465
_cell_angle_alpha 90.000000
_cell_angle_beta 90.000000
_cell_angle_gamma 90.000000
_cell_volume 2516.131115
_symmetry_space_group_name_H-M "P B C N"
_symmetry_group_IT_number 60
_symmetry_cell_setting 'orthorhombic'
loop_
_space_group_symop_operation_xyz
x,y,z
1/2-x,1/2-y,1/2+z
1/2+x,1/2-y,-z
-x,y,1/2-z
-x,-y,-z
1/2+x,1/2+y,1/2-z
1/2-x,1/2+y,z
x,-y,1/2+z
loop_
_atom_site_type_symbol
_atom_site_label
_atom_site_fract_x
_atom_site_fract_y
_atom_site_fract_z
Si Si1 0.266665 0.865447 0.291620
Si Si2 0.301983 0.516334 0.810170
Si Si3 0.726439 0.220629 0.592415
Si Si4 0.718703 0.745657 0.938926
Si Si5 0.297433 0.627101 0.483449
Si Si6 0.816228 0.401680 0.898243
Si Si7 0.500000 0.917894 0.750000
Si Si8 0.833300 0.018599 0.936921
O O1 0.500000 0.840118 0.250000
O O2 0.352917 0.927751 0.308397
O O3 0.246688 0.834300 0.364513
O O4 0.000000 0.862205 0.250000
O O5 0.500000 0.522405 0.750000
O O6 0.466988 0.521132 0.876952
O O7 0.172577 0.459221 0.794639
O O8 0.465960 0.250006 0.605800
O O9 0.720206 0.217683 0.508204
O O10 0.975020 0.254533 0.606125
O O11 0.701928 0.683501 0.971495
O O12 0.554209 0.616151 0.437695
O O13 0.243691 0.578294 0.539377
O O14 0.059747 0.625082 0.432792
O O15 0.837160 0.391941 0.814082
O O16 0.841968 0.467807 0.915279
O O17 0.000000 0.000000 0.000000
#
# Coordination Sequence:
#
# PCOD9455989 Si02
#       8
#     8   8   8   8   8   8   4   8
#     4  11  23  39  59  94 129 162 198 245 313 383
#     4  11  22  38  56  87 123 160 204 247 309 379
#     4  10  21  39  65  95 122 158 198 250 315 379
#     4  10  21  39  66  93 120 159 201 256 314 365
#     4  11  23  40  60  90 122 155 204 264 305 361
#     4  11  24  38  59  84 119 165 205 254 304 357
#     4  12  22  38  60  78 118 166 212 246 294 368
#     4  10  21  38  57  86 119 158 205 255 310 350
#
# _framework density 23.846133999999999
#
# number of rings (size 3 to 8) (size 9 to 14) (size 15 to 20)
#    0.000    1.333    2.000    4.400    0.000    4.267 
#    0.000    0.000    4.400    0.000    0.000    0.000 
#    0.000    0.000    0.000    0.000    0.000    0.000 
#
# Total GULP energy -334613.642664 kJ/mol
# GULP energy per Si atom -5576.894044 kJ/mol
# Density = 2.379186 g / cm^3
# Si number density = 23.846134 Si / 1000 Ang^3
#
#
#
# Elastic Constant Matrix: (Units=GPa)
#
#
# Indices 1 2 3 4 5 6 
#
# 1 162.1865 17.6156 28.6175 0.0000 0.0000 0.0000
# 2 17.6156 102.4322 34.1129 0.0000 0.0000 0.0000
# 3 28.6175 34.1129 117.6128 0.0000 0.0000 0.0000
# 4 0.0000 0.0000 0.0000 56.7190 0.0000 0.0000
# 5 0.0000 0.0000 0.0000 0.0000 22.5105 0.0000
# 6 0.0000 0.0000 0.0000 0.0000 0.0000 28.9234
#
#
#
# Elastic Compliance Matrix: (Units=1/GPa)
#
#
# Indices 1 2 3 4 5 6 
#
# 1 0.006481 -0.000652 -0.001388 0.000000 0.000000 0.000000
# 2 -0.000652 0.010872 -0.002995 0.000000 0.000000 0.000000
# 3 -0.001388 -0.002995 0.009709 0.000000 0.000000 0.000000
# 4 0.000000 0.000000 0.000000 0.017631 0.000000 0.000000
# 5 0.000000 0.000000 0.000000 0.000000 0.044424 0.000000
# 6 0.000000 0.000000 0.000000 0.000000 0.000000 0.034574
#
#
# Mechanical properties :
#
#
# Convention : Reuss Voigt Hill
#
# Bulk Modulus (GPa) = 58.84963 60.32484 59.58724
# Shear Modulus (GPa) = 35.86160 41.75628 38.80894
#
# Velocity S-wave (km/s) = 3.88219 4.18912 4.03857
# Velocity P-wave (km/s) = 6.69535 6.98217 6.84026
#
# Compressibility (1/GPa) = 0.01699246
#
# Stress axis : x y z
#
# Youngs Moduli (GPa) = 154.28563 91.97892 103.00004
#
# Poissons Ratio (x) = 0.06001 0.14295
# Poissons Ratio (y) = 0.10066 0.30845
# Poissons Ratio (z) = 0.21412 0.27544
#
# Static dielectric constant tensor:
#      x y z
#    x 2.053110 0.000000 0.000000 
#    y 0.000000 2.028370 0.000000 
#    z 0.000000 0.000000 1.962570 
# 
# From -- ./inp_files/18812.got.cif
#   From: 2010.05.17/outbox.cif.g08.bks.cpg/sg60_10_cif.got.tgz:18812.got - 2010.06.03 14:59:27.
