data_PCOD9455011
_publ_section_title
;
Structure prediction by ZEFSAII (Michael W. Deem and Ramdas Pophale) SiO2 
 PCOD9455011
Probable space group: P B C N
;
_chemical_formula_sum "Si O2"
_cell_formula_units_Z 40
_cell_length_a 19.423731
_cell_length_b 12.198491
_cell_length_c 9.391155
_cell_angle_alpha 90.000000
_cell_angle_beta 90.000000
_cell_angle_gamma 90.000000
_cell_volume 2225.142217
_symmetry_space_group_name_H-M "P B C N"
_symmetry_group_IT_number 60
_symmetry_cell_setting 'orthorhombic'
loop_
_space_group_symop_operation_xyz
x,y,z
1/2-x,1/2-y,1/2+z
1/2+x,1/2-y,-z
-x,y,1/2-z
-x,-y,-z
1/2+x,1/2+y,1/2-z
1/2-x,1/2+y,z
x,-y,1/2+z
loop_
_atom_site_type_symbol
_atom_site_label
_atom_site_fract_x
_atom_site_fract_y
_atom_site_fract_z
Si Si1 0.190047 0.580374 0.308666
Si Si2 0.842925 0.213425 0.508370
Si Si3 0.151900 0.159089 0.313447
Si Si4 0.814833 0.363887 0.018573
Si Si5 0.950435 0.038457 0.625274
O O1 0.156010 0.672253 0.408873
O O2 0.272775 0.601619 0.320664
O O3 0.171944 0.461871 0.371026
O O4 0.171360 0.599139 0.143398
O O5 0.852832 0.219332 0.338767
O O6 0.766503 0.163837 0.529482
O O7 0.898345 0.130746 0.572288
O O8 0.147966 0.251435 0.435515
O O9 0.094617 0.065836 0.324908
O O10 0.000000 0.078735 0.750000
O O11 0.000000 0.000000 0.500000
#
# Coordination Sequence:
#
# PCOD9455011 Si02
#       5
#     8   8   8   8   8
#     4  10  20  34  59  85 116 149 186 247 291 340
#     4  10  21  37  55  84 117 151 195 234 290 340
#     4  10  21  37  55  84 117 151 195 235 290 338
#     4  10  20  34  59  85 116 149 186 246 291 340
#     4  12  24  38  60  84 118 160 192 235 279 346
#
# _framework density 17.976378
#
# number of rings (size 3 to 8) (size 9 to 14) (size 15 to 20)
#    0.000    1.600    4.000    1.200    2.800    1.600 
#    0.000    0.000    0.000    2.400    0.000    0.000 
#    0.000    0.000    0.000    0.000    0.000    0.000 
#
# Total GULP energy -223325.279067 kJ/mol
# GULP energy per Si atom -5583.131977 kJ/mol
# Density = 1.793546 g / cm^3
# Si number density = 17.976378 Si / 1000 Ang^3
#
#
#
# Elastic Constant Matrix: (Units=GPa)
#
#
# Indices 1 2 3 4 5 6 
#
# 1 44.5636 6.2855 3.9151 0.0000 0.0000 0.0000
# 2 6.2855 56.9822 0.7199 0.0000 0.0000 0.0000
# 3 3.9151 0.7199 52.5634 0.0000 0.0000 0.0000
# 4 0.0000 0.0000 0.0000 37.7542 0.0000 0.0000
# 5 0.0000 0.0000 0.0000 0.0000 22.1641 0.0000
# 6 0.0000 0.0000 0.0000 0.0000 0.0000 23.8162
#
#
#
# Elastic Compliance Matrix: (Units=1/GPa)
#
#
# Indices 1 2 3 4 5 6 
#
# 1 0.022941 -0.002509 -0.001674 0.000000 0.000000 0.000000
# 2 -0.002509 0.017827 -0.000057 0.000000 0.000000 0.000000
# 3 -0.001674 -0.000057 0.019150 0.000000 0.000000 0.000000
# 4 0.000000 0.000000 0.000000 0.026487 0.000000 0.000000
# 5 0.000000 0.000000 0.000000 0.000000 0.045118 0.000000
# 6 0.000000 0.000000 0.000000 0.000000 0.000000 0.041988
#
#
# Mechanical properties :
#
#
# Convention : Reuss Voigt Hill
#
# Bulk Modulus (GPa) = 19.44165 19.55001 19.49583
# Shear Modulus (GPa) = 25.10815 26.29281 25.70048
#
# Velocity S-wave (km/s) = 3.74134 3.82858 3.78521
# Velocity P-wave (km/s) = 5.43158 5.51752 5.47472
#
# Compressibility (1/GPa) = 0.05143597
#
# Stress axis : x y z
#
# Youngs Moduli (GPa) = 43.59027 56.09514 52.21897
#
# Poissons Ratio (x) = 0.14076 0.08743
# Poissons Ratio (y) = 0.10938 0.00299
# Poissons Ratio (z) = 0.07298 0.00321
#
# Static dielectric constant tensor:
#      x y z
#    x 1.576350 0.000000 0.000000 
#    y 0.000000 1.593290 0.000000 
#    z 0.000000 0.000000 1.594720 
# 
# From -- ./inp_files/6498.got.cif
#   From: 2010.05.17/outbox.cif.g08.bks.cpg/sg60_4_cif.got.tgz:6498.got - 2010.06.03 14:59:27.
