data_PCOD9455588
_publ_section_title
;
Structure prediction by ZEFSAII (Michael W. Deem and Ramdas Pophale) SiO2 
 PCOD9455588
Probable space group: P B C N
;
_chemical_formula_sum "Si O2"
_cell_formula_units_Z 48
_cell_length_a 14.067848
_cell_length_b 17.539228
_cell_length_c 8.736898
_cell_angle_alpha 90.000000
_cell_angle_beta 90.000000
_cell_angle_gamma 90.000000
_cell_volume 2155.735167
_symmetry_space_group_name_H-M "P B C N"
_symmetry_group_IT_number 60
_symmetry_cell_setting 'orthorhombic'
loop_
_space_group_symop_operation_xyz
x,y,z
1/2-x,1/2-y,1/2+z
1/2+x,1/2-y,-z
-x,y,1/2-z
-x,-y,-z
1/2+x,1/2+y,1/2-z
1/2-x,1/2+y,z
x,-y,1/2+z
loop_
_atom_site_type_symbol
_atom_site_label
_atom_site_fract_x
_atom_site_fract_y
_atom_site_fract_z
Si Si1 0.110068 0.431404 0.306273
Si Si2 0.567702 0.134525 0.381442
Si Si3 0.368139 0.676605 0.142576
Si Si4 0.776657 0.412995 0.710472
Si Si5 0.941401 0.793960 0.514121
Si Si6 0.757360 0.671118 0.896514
O O1 0.097234 0.423142 0.487686
O O2 0.167266 0.508770 0.273795
O O3 0.180147 0.365752 0.240123
O O4 0.000000 0.426100 0.250000
O O5 0.500000 0.103836 0.250000
O O6 0.660423 0.154073 0.285350
O O7 0.529104 0.208935 0.464208
O O8 0.316936 0.597319 0.187509
O O9 0.459530 0.662506 0.036465
O O10 0.398120 0.705951 0.313653
O O11 0.304962 0.745741 0.073067
O O12 0.769443 0.388760 0.535651
O O13 0.857850 0.820144 0.398756
#
# Coordination Sequence:
#
# PCOD9455588 Si02
#       6
#     8   8   8   8   8   8
#     4  12  25  43  63  95 141 181 218 278 353 416
#     4  12  23  38  63  98 133 172 220 283 344 408
#     4  10  20  40  65  93 131 176 230 287 338 399
#     4  11  24  39  62  94 132 175 222 276 340 414
#     4  10  21  39  66  96 129 176 229 286 339 398
#     4  11  22  42  69  96 132 182 229 283 344 405
#
# _framework density 22.266185
#
# number of rings (size 3 to 8) (size 9 to 14) (size 15 to 20)
#    0.000    1.000    3.333    4.500    0.000    2.000 
#    3.000    0.833    0.000    2.000    0.000    0.000 
#    0.000    0.000    0.000    0.000    0.000    0.000 
#
# Total GULP energy -267431.112039 kJ/mol
# GULP energy per Si atom -5571.481501 kJ/mol
# Density = 2.221551 g / cm^3
# Si number density = 22.266185 Si / 1000 Ang^3
#
#
#
# Elastic Constant Matrix: (Units=GPa)
#
#
# Indices 1 2 3 4 5 6 
#
# 1 148.1890 56.6972 51.8322 0.0000 0.0000 0.0000
# 2 56.6972 79.7569 31.4325 0.0000 0.0000 0.0000
# 3 51.8322 31.4325 78.0619 0.0000 0.0000 0.0000
# 4 0.0000 0.0000 0.0000 -7.4852 0.0000 0.0000
# 5 0.0000 0.0000 0.0000 0.0000 40.8136 0.0000
# 6 0.0000 0.0000 0.0000 0.0000 0.0000 15.4027
#
#
#
# Elastic Compliance Matrix: (Units=1/GPa)
#
#
# Indices 1 2 3 4 5 6 
#
# 1 0.010566 -0.005641 -0.004744 0.000000 0.000000 0.000000
# 2 -0.005641 0.017915 -0.003468 0.000000 0.000000 0.000000
# 3 -0.004744 -0.003468 0.017357 0.000000 0.000000 0.000000
# 4 0.000000 0.000000 0.000000 -0.133596 0.000000 0.000000
# 5 0.000000 0.000000 0.000000 0.000000 0.024502 0.000000
# 6 0.000000 0.000000 0.000000 0.000000 0.000000 0.064924
#
#
# Mechanical properties :
#
#
# Convention : Reuss Voigt Hill
#
# Bulk Modulus (GPa) = 55.15402 65.10351 60.12877
# Shear Modulus (GPa) = 141.17426 20.81594 80.99510
#
# Velocity S-wave (km/s) = 7.97124 3.06088 6.03778
# Velocity P-wave (km/s) = 10.46637 6.46484 8.69882
#
# Compressibility (1/GPa) = 0.01813104
#
# Stress axis : x y z
#
# Youngs Moduli (GPa) = 94.64446 55.81875 57.61452
#
# Poissons Ratio (x) = 0.31489 0.27333
# Poissons Ratio (y) = 0.53392 0.19980
# Poissons Ratio (z) = 0.44900 0.19358
#
# Static dielectric constant tensor:
#      x y z
#    x 2.063810 0.000000 0.000000 
#    y 0.000000 1.823160 0.000000 
#    z 0.000000 0.000000 1.915630 
# 
# From -- ./inp_files/5944.got.cif
#   From: 2010.05.17/outbox.cif.g08.bks.cpg/sg60_3_cif.got.tgz:5944.got - 2010.06.03 14:59:27.
