data_PCOD9455981
_publ_section_title
;
Structure prediction by ZEFSAII (Michael W. Deem and Ramdas Pophale) SiO2 
 PCOD9455981
Probable space group: P B C N
;
_chemical_formula_sum "Si O2"
_cell_formula_units_Z 64
_cell_length_a 9.080522
_cell_length_b 14.666123
_cell_length_c 25.025983
_cell_angle_alpha 90.000000
_cell_angle_beta 90.000000
_cell_angle_gamma 90.000000
_cell_volume 3332.861627
_symmetry_space_group_name_H-M "P B C N"
_symmetry_group_IT_number 60
_symmetry_cell_setting 'orthorhombic'
loop_
_space_group_symop_operation_xyz
x,y,z
1/2-x,1/2-y,1/2+z
1/2+x,1/2-y,-z
-x,y,1/2-z
-x,-y,-z
1/2+x,1/2+y,1/2-z
1/2-x,1/2+y,z
x,-y,1/2+z
loop_
_atom_site_type_symbol
_atom_site_label
_atom_site_fract_x
_atom_site_fract_y
_atom_site_fract_z
Si Si1 0.303487 0.052753 0.096394
Si Si2 0.255348 0.948269 0.361238
Si Si3 0.848386 0.227398 0.042054
Si Si4 0.535316 0.116795 0.925730
Si Si5 0.963410 0.587184 0.188105
Si Si6 0.482779 0.465396 0.938860
Si Si7 0.797056 0.231787 0.923214
Si Si8 0.896988 0.224858 0.631033
O O1 0.397452 0.053703 0.151550
O O2 0.297126 0.158661 0.079689
O O3 0.134515 0.020625 0.093513
O O4 0.391239 0.979914 0.059204
O O5 0.403737 0.907682 0.386144
O O6 0.165776 0.862852 0.338243
O O7 0.317611 0.027426 0.323976
O O8 0.153170 0.987272 0.408737
O O9 0.946125 0.142098 0.059926
O O10 0.721749 0.247325 0.085301
O O11 0.952315 0.315784 0.033589
O O12 0.782740 0.203235 0.984850
O O13 0.659837 0.179098 0.897432
O O14 0.928481 0.689014 0.168066
O O15 0.000000 0.583552 0.250000
O O16 0.500000 0.500000 0.000000
O O17 0.951678 0.200834 0.899032
#
# Coordination Sequence:
#
# PCOD9455981 Si02
#       8
#     8   8   8   8   8   8   8   8
#     4  10  23  39  61  91 124 167 214 269 313 391
#     4  10  22  40  64  89 127 167 207 271 319 389
#     4  11  21  35  56  85 130 170 206 254 309 388
#     4  10  21  38  55  84 122 166 212 256 307 372
#     4  10  22  46  68  89 123 167 220 279 331 371
#     4  12  23  38  58  94 134 175 210 253 316 391
#     4  11  21  36  56  90 129 170 213 254 311 384
#     4  10  21  38  62  90 124 165 211 265 319 382
#
# _framework density 19.202717
#
# number of rings (size 3 to 8) (size 9 to 14) (size 15 to 20)
#    0.000    1.500    2.500    3.000    3.500    0.500 
#    0.000    6.875    0.000    0.000    0.000    0.000 
#    0.000    0.000    0.000    0.000    0.000    0.000 
#
# Total GULP energy -356859.367524 kJ/mol
# GULP energy per Si atom -5575.927618 kJ/mol
# Density = 1.915901 g / cm^3
# Si number density = 19.202717 Si / 1000 Ang^3
#
#
#
# Elastic Constant Matrix: (Units=GPa)
#
#
# Indices 1 2 3 4 5 6 
#
# 1 130.3900 48.1146 50.9843 0.0000 0.0000 0.0000
# 2 48.1146 106.3359 34.8394 0.0000 0.0000 0.0000
# 3 50.9843 34.8394 86.2301 0.0000 0.0000 0.0000
# 4 0.0000 0.0000 0.0000 9.9438 0.0000 0.0000
# 5 0.0000 0.0000 0.0000 0.0000 17.1175 0.0000
# 6 0.0000 0.0000 0.0000 0.0000 0.0000 42.2935
#
#
#
# Elastic Compliance Matrix: (Units=1/GPa)
#
#
# Indices 1 2 3 4 5 6 
#
# 1 0.010865 -0.003240 -0.005115 0.000000 0.000000 0.000000
# 2 -0.003240 0.011805 -0.002854 0.000000 0.000000 0.000000
# 3 -0.005115 -0.002854 0.015774 0.000000 0.000000 0.000000
# 4 0.000000 0.000000 0.000000 0.100565 0.000000 0.000000
# 5 0.000000 0.000000 0.000000 0.000000 0.058420 0.000000
# 6 0.000000 0.000000 0.000000 0.000000 0.000000 0.023644
#
#
# Mechanical properties :
#
#
# Convention : Reuss Voigt Hill
#
# Bulk Modulus (GPa) = 62.39689 65.64808 64.02248
# Shear Modulus (GPa) = 20.09372 26.47213 23.28293
#
# Velocity S-wave (km/s) = 3.23832 3.71693 3.48585
# Velocity P-wave (km/s) = 6.82251 7.25822 7.04374
#
# Compressibility (1/GPa) = 0.01602644
#
# Stress axis : x y z
#
# Youngs Moduli (GPa) = 92.03894 84.70724 63.39520
#
# Poissons Ratio (x) = 0.27448 0.32425
# Poissons Ratio (y) = 0.29824 0.18092
# Poissons Ratio (z) = 0.47076 0.24174
#
# Static dielectric constant tensor:
#      x y z
#    x 1.699930 0.000000 0.000000 
#    y 0.000000 1.733700 0.000000 
#    z 0.000000 0.000000 1.614080 
# 
# From -- ./inp_files/24108.got.cif
#   From: 2010.05.17/outbox.cif.g08.bks.cpg/sg60_13_cif.got.tgz:24108.got - 2010.06.03 14:59:27.
