data_PCOD9455842
_publ_section_title
;
Structure prediction by ZEFSAII (Michael W. Deem and Ramdas Pophale) SiO2 
 PCOD9455842
Probable space group: P B C N
;
_chemical_formula_sum "Si O2"
_cell_formula_units_Z 48
_cell_length_a 29.005594
_cell_length_b 5.041989
_cell_length_c 17.102298
_cell_angle_alpha 90.000000
_cell_angle_beta 90.000000
_cell_angle_gamma 90.000000
_cell_volume 2501.140722
_symmetry_space_group_name_H-M "P B C N"
_symmetry_group_IT_number 60
_symmetry_cell_setting 'orthorhombic'
loop_
_space_group_symop_operation_xyz
x,y,z
1/2-x,1/2-y,1/2+z
1/2+x,1/2-y,-z
-x,y,1/2-z
-x,-y,-z
1/2+x,1/2+y,1/2-z
1/2-x,1/2+y,z
x,-y,1/2+z
loop_
_atom_site_type_symbol
_atom_site_label
_atom_site_fract_x
_atom_site_fract_y
_atom_site_fract_z
Si Si1 0.861632 0.562518 0.065434
Si Si2 0.778979 0.736805 0.771654
Si Si3 0.031614 0.606883 0.430538
Si Si4 0.138777 0.057006 0.331851
Si Si5 0.531942 0.397906 0.675218
Si Si6 0.278978 0.761073 0.040882
O O1 0.914889 0.611211 0.042931
O O2 0.857839 0.261684 0.095298
O O3 0.851666 0.762133 0.137471
O O4 0.825488 0.641987 0.999497
O O5 0.761095 0.446229 0.749694
O O6 0.825214 0.836652 0.730990
O O7 0.784451 0.738061 0.865420
O O8 0.027738 0.395488 0.360149
O O9 0.000000 0.500000 0.500000
O O10 0.020247 0.892575 0.393670
O O11 0.085815 0.062192 0.303915
O O12 0.500000 0.436476 0.750000
O O13 0.261099 0.470328 0.018536
#
# Coordination Sequence:
#
# PCOD9455842 Si02
#       6
#     8   8   8   8   8   8
#     4  10  21  36  55  80 108 139 179 222 265 318
#     4  10  21  36  53  77 108 140 177 219 263 315
#     4  10  21  38  58  83 113 144 183 230 277 331
#     4  10  21  36  55  80 108 139 178 222 265 317
#     4  10  21  38  58  83 113 144 183 229 277 332
#     4  10  21  36  53  77 109 142 179 222 266 317
#
# _framework density 19.191244000000001
#
# number of rings (size 3 to 8) (size 9 to 14) (size 15 to 20)
#    0.000    2.000    0.000    3.000    0.000    5.333 
#    0.000    5.000    0.000    0.000    0.000    0.000 
#    0.000    0.000    0.000    0.000    0.000    0.000 
#
# Total GULP energy -268041.294023 kJ/mol
# GULP energy per Si atom -5584.193625 kJ/mol
# Density = 1.914756 g / cm^3
# Si number density = 19.191244 Si / 1000 Ang^3
#
#
#
# Elastic Constant Matrix: (Units=GPa)
#
#
# Indices 1 2 3 4 5 6 
#
# 1 115.0746 13.3901 66.4982 0.0000 0.0000 0.0000
# 2 13.3901 67.5443 2.4245 0.0000 0.0000 0.0000
# 3 66.4982 2.4245 42.9454 0.0000 0.0000 0.0000
# 4 0.0000 0.0000 0.0000 23.4711 0.0000 0.0000
# 5 0.0000 0.0000 0.0000 0.0000 35.8073 0.0000
# 6 0.0000 0.0000 0.0000 0.0000 0.0000 23.8606
#
#
#
# Elastic Compliance Matrix: (Units=1/GPa)
#
#
# Indices 1 2 3 4 5 6 
#
# 1 0.093205 -0.013324 -0.143570 0.000000 0.000000 0.000000
# 2 -0.013324 0.016740 0.019686 0.000000 0.000000 0.000000
# 3 -0.143570 0.019686 0.244483 0.000000 0.000000 0.000000
# 4 0.000000 0.000000 0.000000 0.042606 0.000000 0.000000
# 5 0.000000 0.000000 0.000000 0.000000 0.027927 0.000000
# 6 0.000000 0.000000 0.000000 0.000000 0.000000 0.041910
#
#
# Mechanical properties :
#
#
# Convention : Reuss Voigt Hill
#
# Bulk Modulus (GPa) = 12.49807 43.35444 27.92625
# Shear Modulus (GPa) = 6.51077 26.17791 16.34434
#
# Velocity S-wave (km/s) = 1.84389 3.69732 2.92148
# Velocity P-wave (km/s) = 3.32562 6.39270 5.09541
#
# Compressibility (1/GPa) = 0.08001233
#
# Stress axis : x y z
#
# Youngs Moduli (GPa) = 10.72900 59.73775 4.09026
#
# Poissons Ratio (x) = 0.79594 0.58724
# Poissons Ratio (y) = 0.14295 -0.08052
# Poissons Ratio (z) = 1.54036 -1.17600
#
# Static dielectric constant tensor:
#      x y z
#    x 1.649150 0.000000 0.000000 
#    y 0.000000 1.661390 0.000000 
#    z 0.000000 0.000000 1.632660 
# 
# From -- ./inp_files/18037.got.cif
#   From: 2010.05.17/outbox.cif.g08.bks.cpg/sg60_10_cif.got.tgz:18037.got - 2010.06.03 14:59:27.
