data_PCOD9455589
_publ_section_title
;
Structure prediction by ZEFSAII (Michael W. Deem and Ramdas Pophale) SiO2 
 PCOD9455589
Probable space group: P B C N
;
_chemical_formula_sum "Si O2"
_cell_formula_units_Z 40
_cell_length_a 4.765728
_cell_length_b 15.047627
_cell_length_c 22.989394
_cell_angle_alpha 90.000000
_cell_angle_beta 90.000000
_cell_angle_gamma 90.000000
_cell_volume 1648.636052
_symmetry_space_group_name_H-M "P B C N"
_symmetry_group_IT_number 60
_symmetry_cell_setting 'orthorhombic'
loop_
_space_group_symop_operation_xyz
x,y,z
1/2-x,1/2-y,1/2+z
1/2+x,1/2-y,-z
-x,y,1/2-z
-x,-y,-z
1/2+x,1/2+y,1/2-z
1/2-x,1/2+y,z
x,-y,1/2+z
loop_
_atom_site_type_symbol
_atom_site_label
_atom_site_fract_x
_atom_site_fract_y
_atom_site_fract_z
Si Si1 0.685563 0.349078 0.549523
Si Si2 0.000000 0.424729 0.750000
Si Si3 0.551627 0.848676 0.056053
Si Si4 0.415072 0.398624 0.126608
Si Si5 0.000000 0.941379 0.250000
Si Si6 0.325778 0.902938 0.626062
O O1 0.851732 0.390360 0.494142
O O2 0.691977 0.243788 0.537912
O O3 0.375891 0.369302 0.573360
O O4 0.868748 0.379519 0.603532
O O5 0.247080 0.492712 0.768602
O O6 0.144628 0.376075 0.694563
O O7 0.314422 0.829439 0.104054
O O8 0.809368 0.901047 0.085761
O O9 0.471363 0.380966 0.193556
O O10 0.258149 0.493485 0.127348
#
# Coordination Sequence:
#
# PCOD9455589 Si02
#       6
#     8   4   8   8   4   8
#     4  12  25  43  63  90 133 176 210 261 332 386
#     4  10  20  40  65  94 131 164 202 268 340 382
#     4  12  25  43  63  90 133 176 211 262 333 388
#     4  11  23  41  68  97 124 165 220 269 318 388
#     4  10  20  40  65  94 131 164 202 268 342 382
#     4  11  23  41  68  97 124 165 219 266 316 386
#
# _framework density 24.262481999999999
#
# number of rings (size 3 to 8) (size 9 to 14) (size 15 to 20)
#    0.000    0.800    0.000   10.800    0.000    4.800 
#    0.000    6.000    0.000    0.000    0.000    0.000 
#    0.000    0.000    0.000    0.000    0.000    0.000 
#
# Total GULP energy -222959.151967 kJ/mol
# GULP energy per Si atom -5573.978799 kJ/mol
# Density = 2.420726 g / cm^3
# Si number density = 24.262482 Si / 1000 Ang^3
#
#
#
# Elastic Constant Matrix: (Units=GPa)
#
#
# Indices 1 2 3 4 5 6 
#
# 1 112.4690 9.8510 26.1135 0.0000 0.0000 0.0000
# 2 9.8510 29.0470 20.3792 0.0000 0.0000 0.0000
# 3 26.1135 20.3792 139.1027 0.0000 0.0000 0.0000
# 4 0.0000 0.0000 0.0000 188.3786 0.0000 0.0000
# 5 0.0000 0.0000 0.0000 0.0000 38.6021 0.0000
# 6 0.0000 0.0000 0.0000 0.0000 0.0000 41.2242
#
#
#
# Elastic Compliance Matrix: (Units=1/GPa)
#
#
# Indices 1 2 3 4 5 6 
#
# 1 0.009419 -0.002178 -0.001449 0.000000 0.000000 0.000000
# 2 -0.002178 0.038874 -0.005287 0.000000 0.000000 0.000000
# 3 -0.001449 -0.005287 0.008235 0.000000 0.000000 0.000000
# 4 0.000000 0.000000 0.000000 0.005308 0.000000 0.000000
# 5 0.000000 0.000000 0.000000 0.000000 0.025905 0.000000
# 6 0.000000 0.000000 0.000000 0.000000 0.000000 0.024258
#
#
# Mechanical properties :
#
#
# Convention : Reuss Voigt Hill
#
# Bulk Modulus (GPa) = 25.83838 43.70070 34.76954
# Shear Modulus (GPa) = 35.03197 68.59264 51.81230
#
# Velocity S-wave (km/s) = 3.80396 5.32282 4.62615
# Velocity P-wave (km/s) = 5.47413 7.47177 6.54956
#
# Compressibility (1/GPa) = 0.03870212
#
# Stress axis : x y z
#
# Youngs Moduli (GPa) = 106.17376 25.72387 121.42596
#
# Poissons Ratio (x) = 0.05601 0.17596
# Poissons Ratio (y) = 0.23120 0.64192
# Poissons Ratio (z) = 0.15386 0.13599
#
# Static dielectric constant tensor:
#      x y z
#    x 1.947170 0.000000 0.000000 
#    y 0.000000 1.922030 0.000000 
#    z 0.000000 0.000000 2.034210 
# 
# From -- ./inp_files/23552.got.cif
#   From: 2010.05.17/outbox.cif.g08.bks.cpg/sg60_12_cif.got.tgz:23552.got - 2010.06.03 14:59:27.
