data_PCOD9455757
_publ_section_title
;
Structure prediction by ZEFSAII (Michael W. Deem and Ramdas Pophale) SiO2 
 PCOD9455757
Probable space group: P B C N
;
_chemical_formula_sum "Si O2"
_cell_formula_units_Z 44
_cell_length_a 9.378321
_cell_length_b 13.965422
_cell_length_c 16.979270
_cell_angle_alpha 90.000000
_cell_angle_beta 90.000000
_cell_angle_gamma 90.000000
_cell_volume 2223.812523
_symmetry_space_group_name_H-M "P B C N"
_symmetry_group_IT_number 60
_symmetry_cell_setting 'orthorhombic'
loop_
_space_group_symop_operation_xyz
x,y,z
1/2-x,1/2-y,1/2+z
1/2+x,1/2-y,-z
-x,y,1/2-z
-x,-y,-z
1/2+x,1/2+y,1/2-z
1/2-x,1/2+y,z
x,-y,1/2+z
loop_
_atom_site_type_symbol
_atom_site_label
_atom_site_fract_x
_atom_site_fract_y
_atom_site_fract_z
Si Si1 0.315612 0.422183 0.022857
Si Si2 0.273960 0.286109 0.876471
Si Si3 0.402912 0.940367 0.152329
Si Si4 0.388004 0.585772 0.902158
Si Si5 0.000000 0.273413 0.250000
Si Si6 0.305852 0.970242 0.800669
O O1 0.167189 0.428027 0.068724
O O2 0.443298 0.403905 0.084594
O O3 0.315945 0.338546 0.957729
O O4 0.339462 0.522991 0.978072
O O5 0.193980 0.186363 0.892648
O O6 0.409242 0.276981 0.817897
O O7 0.177152 0.363048 0.830786
O O8 0.392675 0.842311 0.201816
O O9 0.568549 0.969409 0.156093
O O10 0.325790 0.018198 0.207769
O O11 0.340385 0.517977 0.829893
#
# Coordination Sequence:
#
# PCOD9455757 Si02
#       6
#     8   8   8   8   4   8
#     4  10  25  37  65  92 128 169 204 270 329 366
#     4  11  22  40  65  93 125 170 214 264 316 385
#     4  10  20  45  61  89 122 175 206 257 319 376
#     4  10  21  42  55  92 127 156 213 261 316 382
#     4  10  22  42  64  88 132 170 212 262 322 374
#     4   9  21  40  65  84 125 168 210 255 315 382
#
# _framework density 19.78584
#
# number of rings (size 3 to 8) (size 9 to 14) (size 15 to 20)
#    0.000    2.182    3.636    0.000    2.545    9.455 
#    6.545    0.000    0.000    0.000    0.000    0.000 
#    0.000    0.000    0.000    0.000    0.000    0.000 
#
# Total GULP energy -245209.681893 kJ/mol
# GULP energy per Si atom -5572.947316 kJ/mol
# Density = 1.974081 g / cm^3
# Si number density = 19.785840 Si / 1000 Ang^3
#
#
#
# Elastic Constant Matrix: (Units=GPa)
#
#
# Indices 1 2 3 4 5 6 
#
# 1 34.6149 20.8687 22.8521 0.0000 0.0000 0.0000
# 2 20.8687 109.5672 24.6925 0.0000 0.0000 0.0000
# 3 22.8521 24.6925 56.3341 0.0000 0.0000 0.0000
# 4 0.0000 0.0000 0.0000 44.1410 0.0000 0.0000
# 5 0.0000 0.0000 0.0000 0.0000 45.1365 0.0000
# 6 0.0000 0.0000 0.0000 0.0000 0.0000 15.7436
#
#
#
# Elastic Compliance Matrix: (Units=1/GPa)
#
#
# Indices 1 2 3 4 5 6 
#
# 1 0.041404 -0.004550 -0.014801 0.000000 0.000000 0.000000
# 2 -0.004550 0.010627 -0.002812 0.000000 0.000000 0.000000
# 3 -0.014801 -0.002812 0.024988 0.000000 0.000000 0.000000
# 4 0.000000 0.000000 0.000000 0.022655 0.000000 0.000000
# 5 0.000000 0.000000 0.000000 0.000000 0.022155 0.000000
# 6 0.000000 0.000000 0.000000 0.000000 0.000000 0.063518
#
#
# Mechanical properties :
#
#
# Convention : Reuss Voigt Hill
#
# Bulk Modulus (GPa) = 30.58874 37.48253 34.03563
# Shear Modulus (GPa) = 20.78384 29.81109 25.29747
#
# Velocity S-wave (km/s) = 3.24457 3.88582 3.57958
# Velocity P-wave (km/s) = 5.43413 6.25444 5.85866
#
# Compressibility (1/GPa) = 0.03269177
#
# Stress axis : x y z
#
# Youngs Moduli (GPa) = 24.15226 94.09733 40.01919
#
# Poissons Ratio (x) = 0.42818 0.59233
# Poissons Ratio (y) = 0.10990 0.11255
# Poissons Ratio (z) = 0.35748 0.26463
#
# Static dielectric constant tensor:
#      x y z
#    x 1.715760 0.000000 0.000000 
#    y 0.000000 1.731270 0.000000 
#    z 0.000000 0.000000 1.719560 
# 
# From -- ./inp_files/19200.got.cif
#   From: 2010.05.17/outbox.cif.g08.bks.cpg/sg60_10_cif.got.tgz:19200.got - 2010.06.03 14:59:27.
