data_PCOD9455403
_publ_section_title
;
Structure prediction by ZEFSAII (Michael W. Deem and Ramdas Pophale) SiO2 
 PCOD9455403
Probable space group: P B C N
;
_chemical_formula_sum "Si O2"
_cell_formula_units_Z 48
_cell_length_a 15.915109
_cell_length_b 13.971732
_cell_length_c 8.228640
_cell_angle_alpha 90.000000
_cell_angle_beta 90.000000
_cell_angle_gamma 90.000000
_cell_volume 1829.733866
_symmetry_space_group_name_H-M "P B C N"
_symmetry_group_IT_number 60
_symmetry_cell_setting 'orthorhombic'
loop_
_space_group_symop_operation_xyz
x,y,z
1/2-x,1/2-y,1/2+z
1/2+x,1/2-y,-z
-x,y,1/2-z
-x,-y,-z
1/2+x,1/2+y,1/2-z
1/2-x,1/2+y,z
x,-y,1/2+z
loop_
_atom_site_type_symbol
_atom_site_label
_atom_site_fract_x
_atom_site_fract_y
_atom_site_fract_z
Si Si1 0.441848 0.374629 0.115617
Si Si2 0.589764 0.203640 0.872152
Si Si3 0.742425 0.061030 0.570101
Si Si4 0.909352 0.910247 0.868549
Si Si5 0.444138 0.906393 0.451122
Si Si6 0.739242 0.638504 0.936465
O O1 0.500000 0.327598 0.250000
O O2 0.413042 0.479759 0.190867
O O3 0.355569 0.323660 0.065771
O O4 0.504667 0.399999 0.970728
O O5 0.591070 0.306183 0.784301
O O6 0.580012 0.119368 0.737666
O O7 0.509140 0.180686 0.984955
O O8 0.677341 0.198718 0.966171
O O9 0.823736 0.093425 0.470858
O O10 0.651668 0.082424 0.485435
O O11 0.748197 0.101814 0.751160
O O12 0.754253 0.946608 0.566163
O O13 0.500000 0.000000 0.500000
#
# Coordination Sequence:
#
# PCOD9455403 Si02
#       6
#     8   8   8   8   8   8
#     4  10  20  38  65  86 132 177 217 262 338 401
#     4  10  22  38  64  95 130 165 225 277 332 398
#     4  10  20  38  63  92 130 169 223 266 344 399
#     4  10  22  38  60  99 129 170 223 274 325 406
#     4  10  20  39  66  91 127 173 219 279 339 403
#     4  10  20  38  65  91 125 177 216 276 327 411
#
# _framework density 26.233325000000001
#
# number of rings (size 3 to 8) (size 9 to 14) (size 15 to 20)
#    0.000    2.000    3.333    0.000    2.333    1.333 
#    0.000    6.667    7.333    0.000    0.000    0.000 
#    0.000    0.000    0.000    0.000    0.000    0.000 
#
# Total GULP energy -267415.868419 kJ/mol
# GULP energy per Si atom -5571.163925 kJ/mol
# Density = 2.617362 g / cm^3
# Si number density = 26.233325 Si / 1000 Ang^3
#
#
#
# Elastic Constant Matrix: (Units=GPa)
#
#
# Indices 1 2 3 4 5 6 
#
# 1 274.7223 8.2143 21.2179 0.0000 0.0000 0.0000
# 2 8.2143 84.2619 21.6233 0.0000 0.0000 0.0000
# 3 21.2179 21.6233 42.2224 0.0000 0.0000 0.0000
# 4 0.0000 0.0000 0.0000 17.0573 0.0000 0.0000
# 5 0.0000 0.0000 0.0000 0.0000 30.7161 0.0000
# 6 0.0000 0.0000 0.0000 0.0000 0.0000 18.9665
#
#
#
# Elastic Compliance Matrix: (Units=1/GPa)
#
#
# Indices 1 2 3 4 5 6 
#
# 1 0.003788 0.000137 -0.001974 0.000000 0.000000 0.000000
# 2 0.000137 0.013668 -0.007069 0.000000 0.000000 0.000000
# 3 -0.001974 -0.007069 0.028296 0.000000 0.000000 0.000000
# 4 0.000000 0.000000 0.000000 0.058626 0.000000 0.000000
# 5 0.000000 0.000000 0.000000 0.000000 0.032556 0.000000
# 6 0.000000 0.000000 0.000000 0.000000 0.000000 0.052725
#
#
# Mechanical properties :
#
#
# Convention : Reuss Voigt Hill
#
# Bulk Modulus (GPa) = 35.78892 55.92419 45.85655
# Shear Modulus (GPa) = 23.06427 36.69137 29.87782
#
# Velocity S-wave (km/s) = 2.96834 3.74392 3.37846
# Velocity P-wave (km/s) = 5.04185 6.32878 5.72161
#
# Compressibility (1/GPa) = 0.02794161
#
# Stress axis : x y z
#
# Youngs Moduli (GPa) = 263.96359 73.16135 35.34024
#
# Poissons Ratio (x) = -0.01004 0.06976
# Poissons Ratio (y) = -0.03624 0.24982
# Poissons Ratio (z) = 0.52108 0.51718
#
# Static dielectric constant tensor:
#      x y z
#    x 2.180780 0.000000 0.000000 
#    y 0.000000 2.103670 0.000000 
#    z 0.000000 0.000000 2.047690 
# 
# From -- ./inp_files/11888.got.cif
#   From: 2010.05.17/outbox.cif.g08.bks.cpg/sg60_6_cif.got.tgz:11888.got - 2010.06.03 14:59:27.
