data_PCOD9455115
_publ_section_title
;
Structure prediction by ZEFSAII (Michael W. Deem and Ramdas Pophale) SiO2 
 PCOD9455115
Probable space group: P B C N
;
_chemical_formula_sum "Si O2"
_cell_formula_units_Z 48
_cell_length_a 11.546622
_cell_length_b 23.325465
_cell_length_c 8.856554
_cell_angle_alpha 90.000000
_cell_angle_beta 90.000000
_cell_angle_gamma 90.000000
_cell_volume 2385.338588
_symmetry_space_group_name_H-M "P B C N"
_symmetry_group_IT_number 60
_symmetry_cell_setting 'orthorhombic'
loop_
_space_group_symop_operation_xyz
x,y,z
1/2-x,1/2-y,1/2+z
1/2+x,1/2-y,-z
-x,y,1/2-z
-x,-y,-z
1/2+x,1/2+y,1/2-z
1/2-x,1/2+y,z
x,-y,1/2+z
loop_
_atom_site_type_symbol
_atom_site_label
_atom_site_fract_x
_atom_site_fract_y
_atom_site_fract_z
Si Si1 0.260139 0.512241 0.601215
Si Si2 0.335427 0.745773 0.601498
Si Si3 0.500000 0.831696 0.750000
Si Si4 0.362520 0.309742 0.776750
Si Si5 0.906906 0.950536 0.140666
Si Si6 0.500000 0.657244 0.750000
Si Si7 0.298264 0.914593 0.817717
O O1 0.300392 0.551563 0.741258
O O2 0.364631 0.483253 0.504742
O O3 0.202879 0.550639 0.473264
O O4 0.193315 0.459838 0.680221
O O5 0.434779 0.793498 0.625936
O O6 0.215490 0.774835 0.654650
O O7 0.331881 0.721262 0.434386
O O8 0.389426 0.694797 0.704906
O O9 0.402781 0.870842 0.821733
O O10 0.500000 0.307586 0.750000
O O11 0.315135 0.375001 0.790520
O O12 0.000000 0.981454 0.250000
O O13 0.038485 0.887619 0.381214
#
# Coordination Sequence:
#
# PCOD9455115 Si02
#       7
#     8   8   4   8   8   4   8
#     4  10  20  36  55  90 122 161 208 257 302 385
#     4  10  23  43  63  92 128 164 215 264 321 386
#     4   9  22  44  66  86 126 172 210 275 310 378
#     4  11  26  41  69  94 128 172 214 265 329 386
#     4   9  19  31  53  82 120 159 195 249 309 361
#     4   9  20  32  62  82 124 162 200 261 318 362
#     4  10  23  40  64  90 128 162 215 256 323 373
#
# _framework density 20.122928999999999
#
# number of rings (size 3 to 8) (size 9 to 14) (size 15 to 20)
#    0.500    1.667    0.000    1.500    9.333    4.667 
#    0.000    0.000    0.000    0.000    0.000    0.000 
#    0.000    0.000    0.000    0.000    0.000    0.000 
#
# Total GULP energy -267407.504148 kJ/mol
# GULP energy per Si atom -5570.989670 kJ/mol
# Density = 2.007713 g / cm^3
# Si number density = 20.122929 Si / 1000 Ang^3
#
#
#
# Elastic Constant Matrix: (Units=GPa)
#
#
# Indices 1 2 3 4 5 6 
#
# 1 76.5894 28.9460 9.3887 0.0000 0.0000 0.0000
# 2 28.9460 101.5642 29.7407 0.0000 0.0000 0.0000
# 3 9.3887 29.7407 83.5035 0.0000 0.0000 0.0000
# 4 0.0000 0.0000 0.0000 14.4936 0.0000 0.0000
# 5 0.0000 0.0000 0.0000 0.0000 13.6062 0.0000
# 6 0.0000 0.0000 0.0000 0.0000 0.0000 4.1783
#
#
#
# Elastic Compliance Matrix: (Units=1/GPa)
#
#
# Indices 1 2 3 4 5 6 
#
# 1 0.014635 -0.004119 -0.000179 0.000000 0.000000 0.000000
# 2 -0.004119 0.012152 -0.003865 0.000000 0.000000 0.000000
# 3 -0.000179 -0.003865 0.013372 0.000000 0.000000 0.000000
# 4 0.000000 0.000000 0.000000 0.068996 0.000000 0.000000
# 5 0.000000 0.000000 0.000000 0.000000 0.073496 0.000000
# 6 0.000000 0.000000 0.000000 0.000000 0.000000 0.239333
#
#
# Mechanical properties :
#
#
# Convention : Reuss Voigt Hill
#
# Bulk Modulus (GPa) = 41.95589 44.20088 43.07839
# Shear Modulus (GPa) = 11.20442 19.36106 15.28274
#
# Velocity S-wave (km/s) = 2.36222 3.10520 2.75884
# Velocity P-wave (km/s) = 5.32308 5.90504 5.62159
#
# Compressibility (1/GPa) = 0.02383455
#
# Stress axis : x y z
#
# Youngs Moduli (GPa) = 68.32857 82.29393 74.78248
#
# Poissons Ratio (x) = 0.33895 0.01335
# Poissons Ratio (y) = 0.28143 0.28902
# Poissons Ratio (z) = 0.01220 0.31805
#
# Static dielectric constant tensor:
#      x y z
#    x 1.767310 0.000000 0.000000 
#    y 0.000000 1.742980 0.000000 
#    z 0.000000 0.000000 1.667670 
# 
# From -- ./inp_files/5116.got.cif
#   From: 2010.05.17/outbox.cif.g08.bks.cpg/sg60_3_cif.got.tgz:5116.got - 2010.06.03 14:59:27.
