data_PCOD9455291
_publ_section_title
;
Structure prediction by ZEFSAII (Michael W. Deem and Ramdas Pophale) SiO2 
 PCOD9455291
Probable space group: P B C N
;
_chemical_formula_sum "Si O2"
_cell_formula_units_Z 44
_cell_length_a 8.736493
_cell_length_b 15.665085
_cell_length_c 14.475405
_cell_angle_alpha 90.000000
_cell_angle_beta 90.000000
_cell_angle_gamma 90.000000
_cell_volume 1981.073609
_symmetry_space_group_name_H-M "P B C N"
_symmetry_group_IT_number 60
_symmetry_cell_setting 'orthorhombic'
loop_
_space_group_symop_operation_xyz
x,y,z
1/2-x,1/2-y,1/2+z
1/2+x,1/2-y,-z
-x,y,1/2-z
-x,-y,-z
1/2+x,1/2+y,1/2-z
1/2-x,1/2+y,z
x,-y,1/2+z
loop_
_atom_site_type_symbol
_atom_site_label
_atom_site_fract_x
_atom_site_fract_y
_atom_site_fract_z
Si Si1 0.976539 0.450606 0.405922
Si Si2 0.500000 0.653681 0.250000
Si Si3 0.754014 0.032506 0.174132
Si Si4 0.126585 0.735182 0.909876
Si Si5 0.904561 0.144011 0.664440
Si Si6 0.665779 0.609851 0.971667
O O1 0.072782 0.511690 0.336686
O O2 0.057516 0.358821 0.418727
O O3 0.000000 0.500000 0.500000
O O4 0.797267 0.426251 0.403773
O O5 0.345119 0.596200 0.257025
O O6 0.484587 0.712486 0.340978
O O7 0.815649 0.939244 0.197721
O O8 0.810139 0.063530 0.071083
O O9 0.290539 0.718222 0.864344
O O10 0.166192 0.789811 0.000385
O O11 0.000000 0.176943 0.750000
O O12 0.005282 0.106505 0.580563
#
# Coordination Sequence:
#
# PCOD9455291 Si02
#       6
#     8   4   8   8   8   8
#     4   9  19  37  64  92 123 167 223 273 325 402
#     4  10  20  38  66  88 132 172 214 278 332 386
#     4   9  19  39  63  90 122 168 214 269 327 406
#     4  10  22  37  61  92 131 177 224 270 333 409
#     4  11  22  37  61  93 128 166 218 273 331 389
#     4  10  20  37  64  89 129 172 218 273 338 394
#
# _framework density 22.210179
#
# number of rings (size 3 to 8) (size 9 to 14) (size 15 to 20)
#    0.000    2.182    0.909    1.636    2.545    0.000 
#    0.000    0.000   16.000    0.000    0.000    0.000 
#    0.000    0.000    0.000    0.000    0.000    0.000 
#
# Total GULP energy -244946.729681 kJ/mol
# GULP energy per Si atom -5566.971129 kJ/mol
# Density = 2.215963 g / cm^3
# Si number density = 22.210179 Si / 1000 Ang^3
#
#
#
# Elastic Constant Matrix: (Units=GPa)
#
#
# Indices 1 2 3 4 5 6 
#
# 1 89.9455 29.9393 59.9142 0.0000 0.0000 0.0000
# 2 29.9393 89.4306 28.3960 0.0000 0.0000 0.0000
# 3 59.9142 28.3960 80.5722 0.0000 0.0000 0.0000
# 4 0.0000 0.0000 0.0000 24.0628 0.0000 0.0000
# 5 0.0000 0.0000 0.0000 0.0000 18.9373 0.0000
# 6 0.0000 0.0000 0.0000 0.0000 0.0000 -150.3222
#
#
#
# Elastic Compliance Matrix: (Units=1/GPa)
#
#
# Indices 1 2 3 4 5 6 
#
# 1 0.022516 -0.002502 -0.015862 0.000000 0.000000 0.000000
# 2 -0.002502 0.012869 -0.002675 0.000000 0.000000 0.000000
# 3 -0.015862 -0.002675 0.025149 0.000000 0.000000 0.000000
# 4 0.000000 0.000000 0.000000 0.041558 0.000000 0.000000
# 5 0.000000 0.000000 0.000000 0.000000 0.052806 0.000000
# 6 0.000000 0.000000 0.000000 0.000000 0.000000 -0.006652
#
#
# Mechanical properties :
#
#
# Convention : Reuss Voigt Hill
#
# Bulk Modulus (GPa) = 54.17946 55.16080 54.67013
# Shear Modulus (GPa) = 25.44864 -12.01783 6.71541
#
# Velocity S-wave (km/s) = 3.38865 -2.32867 1.74073
# Velocity P-wave (km/s) = 6.30536 4.20232 5.35803
#
# Compressibility (1/GPa) = 0.01845718
#
# Stress axis : x y z
#
# Youngs Moduli (GPa) = 44.41244 77.70776 39.76317
#
# Poissons Ratio (x) = 0.19439 0.63071
# Poissons Ratio (y) = 0.11110 0.10637
# Poissons Ratio (z) = 0.70445 0.20788
#
# Static dielectric constant tensor:
#      x y z
#    x 1.893540 0.000000 0.000000 
#    y 0.000000 1.787400 0.000000 
#    z 0.000000 0.000000 1.781070 
# 
# From -- ./inp_files/14907.got.cif
#   From: 2010.05.17/outbox.cif.g08.bks.cpg/sg60_8_cif.got.tgz:14907.got - 2010.06.03 14:59:27.
