data_PCOD9455684
_publ_section_title
;
Structure prediction by ZEFSAII (Michael W. Deem and Ramdas Pophale) SiO2 
 PCOD9455684
Probable space group: P B C N
;
_chemical_formula_sum "Si O2"
_cell_formula_units_Z 48
_cell_length_a 5.304320
_cell_length_b 15.405784
_cell_length_c 24.908931
_cell_angle_alpha 90.000000
_cell_angle_beta 90.000000
_cell_angle_gamma 90.000000
_cell_volume 2035.488300
_symmetry_space_group_name_H-M "P B C N"
_symmetry_group_IT_number 60
_symmetry_cell_setting 'orthorhombic'
loop_
_space_group_symop_operation_xyz
x,y,z
1/2-x,1/2-y,1/2+z
1/2+x,1/2-y,-z
-x,y,1/2-z
-x,-y,-z
1/2+x,1/2+y,1/2-z
1/2-x,1/2+y,z
x,-y,1/2+z
loop_
_atom_site_type_symbol
_atom_site_label
_atom_site_fract_x
_atom_site_fract_y
_atom_site_fract_z
Si Si1 0.634242 0.701602 0.694273
Si Si2 0.344005 0.573877 0.972366
Si Si3 0.051254 0.768932 0.525348
Si Si4 0.101533 0.462060 0.364161
Si Si5 0.281247 0.660526 0.611054
Si Si6 0.242159 0.889978 0.784825
O O1 0.500000 0.678979 0.750000
O O2 0.767007 0.618058 0.668132
O O3 0.409405 0.722806 0.653378
O O4 0.796734 0.788501 0.700373
O O5 0.148331 0.537356 0.928872
O O6 0.518239 0.631807 0.933317
O O7 0.500000 0.500000 0.000000
O O8 0.294653 0.640261 0.021335
O O9 0.253968 0.718569 0.486405
O O10 0.069119 0.714518 0.579861
O O11 0.197809 0.548422 0.335621
O O12 0.813966 0.428327 0.361462
O O13 0.500000 0.893100 0.750000
O O14 0.000000 0.919102 0.750000
#
# Coordination Sequence:
#
# PCOD9455684 Si02
#       6
#     8   8   8   8   8   8
#     4  10  25  45  70 101 140 185 235 293 364 434
#     4  10  23  42  62  96 139 180 233 292 351 416
#     4  10  20  42  63  92 133 178 230 280 338 417
#     4  11  24  43  72 103 139 189 240 295 368 438
#     4  10  23  41  69  98 134 190 233 286 362 422
#     4  11  28  47  72 109 146 186 243 306 368 439
#
# _framework density 23.581564
#
# number of rings (size 3 to 8) (size 9 to 14) (size 15 to 20)
#    0.000    1.667    1.667    0.500   11.667    3.333 
#    6.000    0.000    0.000    0.000    0.000    0.000 
#    0.000    0.000    0.000    0.000    0.000    0.000 
#
# Total GULP energy -267348.521910 kJ/mol
# GULP energy per Si atom -5569.760873 kJ/mol
# Density = 2.352789 g / cm^3
# Si number density = 23.581564 Si / 1000 Ang^3
#
#
#
# Elastic Constant Matrix: (Units=GPa)
#
#
# Indices 1 2 3 4 5 6 
#
# 1 86.0100 -5.2709 13.4730 0.0000 0.0000 0.0000
# 2 -5.2709 49.3677 24.0259 0.0000 0.0000 0.0000
# 3 13.4730 24.0259 71.0405 0.0000 0.0000 0.0000
# 4 0.0000 0.0000 0.0000 26.9107 0.0000 0.0000
# 5 0.0000 0.0000 0.0000 0.0000 23.7516 0.0000
# 6 0.0000 0.0000 0.0000 0.0000 0.0000 20.0668
#
#
#
# Elastic Compliance Matrix: (Units=1/GPa)
#
#
# Indices 1 2 3 4 5 6 
#
# 1 0.012328 0.002938 -0.003332 0.000000 0.000000 0.000000
# 2 0.002938 0.024947 -0.008994 0.000000 0.000000 0.000000
# 3 -0.003332 -0.008994 0.017750 0.000000 0.000000 0.000000
# 4 0.000000 0.000000 0.000000 0.037160 0.000000 0.000000
# 5 0.000000 0.000000 0.000000 0.000000 0.042102 0.000000
# 6 0.000000 0.000000 0.000000 0.000000 0.000000 0.049834
#
#
# Mechanical properties :
#
#
# Convention : Reuss Voigt Hill
#
# Bulk Modulus (GPa) = 27.58668 30.09712 28.84190
# Shear Modulus (GPa) = 23.25784 25.75850 24.50817
#
# Velocity S-wave (km/s) = 3.14390 3.30860 3.22731
# Velocity P-wave (km/s) = 4.99026 5.23321 5.11318
#
# Compressibility (1/GPa) = 0.03624938
#
# Stress axis : x y z
#
# Youngs Moduli (GPa) = 81.11308 40.08485 56.33741
#
# Poissons Ratio (x) = -0.11776 0.18770
# Poissons Ratio (y) = -0.23829 0.50671
# Poissons Ratio (z) = 0.27024 0.36053
#
# Static dielectric constant tensor:
#      x y z
#    x 1.952810 0.000000 0.000000 
#    y 0.000000 2.064820 0.000000 
#    z 0.000000 0.000000 1.892030 
# 
# From -- ./inp_files/24879.got.cif
#   From: 2010.05.17/outbox.cif.g08.bks.cpg/sg60_13_cif.got.tgz:24879.got - 2010.06.03 14:59:27.
