data_PCOD9455236
_publ_section_title
;
Structure prediction by ZEFSAII (Michael W. Deem and Ramdas Pophale) SiO2 
 PCOD9455236
Probable space group: P B C N
;
_chemical_formula_sum "Si O2"
_cell_formula_units_Z 60
_cell_length_a 12.637148
_cell_length_b 29.099920
_cell_length_c 8.904448
_cell_angle_alpha 90.000000
_cell_angle_beta 90.000000
_cell_angle_gamma 90.000000
_cell_volume 3274.521670
_symmetry_space_group_name_H-M "P B C N"
_symmetry_group_IT_number 60
_symmetry_cell_setting 'orthorhombic'
loop_
_space_group_symop_operation_xyz
x,y,z
1/2-x,1/2-y,1/2+z
1/2+x,1/2-y,-z
-x,y,1/2-z
-x,-y,-z
1/2+x,1/2+y,1/2-z
1/2-x,1/2+y,z
x,-y,1/2+z
loop_
_atom_site_type_symbol
_atom_site_label
_atom_site_fract_x
_atom_site_fract_y
_atom_site_fract_z
Si Si1 0.080149 0.063968 0.993075
Si Si2 0.000030 0.551178 0.569684
Si Si3 0.015881 0.843934 0.931137
Si Si4 0.109185 0.381684 0.847841
Si Si5 0.299659 0.108455 0.036015
Si Si6 0.500000 0.505402 0.250000
Si Si7 0.794027 0.796659 0.953108
Si Si8 0.240121 0.199715 0.402296
O O1 0.192804 0.086750 0.977563
O O2 0.074207 0.037605 0.150882
O O3 0.060035 0.027328 0.864820
O O4 0.995621 0.105414 0.998368
O O5 0.088000 0.580839 0.477452
O O6 0.000000 0.547796 0.750000
O O7 0.000000 0.500000 0.500000
O O8 0.896127 0.580843 0.532131
O O9 0.129772 0.821677 0.962813
O O10 0.000000 0.848817 0.750000
O O11 0.914276 0.813941 0.983539
O O12 0.190380 0.396867 0.716797
O O13 0.162190 0.336000 0.915865
O O14 0.000000 0.373816 0.750000
O O15 0.287973 0.162686 0.001763
O O16 0.780838 0.792865 0.774226
O O17 0.768080 0.748262 0.025772
#
# Coordination Sequence:
#
# PCOD9455236 Si02
#       8
#     8   8   8   8   8   4   8   8
#     4  10  20  39  55  85 115 148 190 233 290 339
#     4  11  23  40  59  86 117 153 199 245 290 351
#     4   9  18  37  59  76 115 150 183 229 283 344
#     4   9  20  38  60  84 116 152 193 240 293 347
#     4   9  20  40  60  79 119 156 187 241 295 346
#     4  10  22  34  58  84 114 146 190 238 276 346
#     4   9  20  36  58  84 114 148 191 235 290 348
#     4  10  20  37  59  86 110 155 190 232 292 344
#
# _framework density 18.323286
#
# number of rings (size 3 to 8) (size 9 to 14) (size 15 to 20)
#    0.000    2.400    0.667    2.000    0.000    6.400 
#    9.600    1.333    0.000    0.000    0.000    0.000 
#    0.000    0.000    0.000    0.000    0.000    0.000 
#
# Total GULP energy -334333.202181 kJ/mol
# GULP energy per Si atom -5572.220036 kJ/mol
# Density = 1.828158 g / cm^3
# Si number density = 18.323286 Si / 1000 Ang^3
#
#
#
# Elastic Constant Matrix: (Units=GPa)
#
#
# Indices 1 2 3 4 5 6 
#
# 1 56.6070 55.0688 14.4014 0.0000 0.0000 0.0000
# 2 55.0688 163.1360 56.4223 0.0000 0.0000 0.0000
# 3 14.4014 56.4223 65.6795 0.0000 0.0000 0.0000
# 4 0.0000 0.0000 0.0000 28.9089 0.0000 0.0000
# 5 0.0000 0.0000 0.0000 0.0000 13.3488 0.0000
# 6 0.0000 0.0000 0.0000 0.0000 0.0000 585.5742
#
#
#
# Elastic Compliance Matrix: (Units=1/GPa)
#
#
# Indices 1 2 3 4 5 6 
#
# 1 0.026631 -0.009916 0.002679 0.000000 0.000000 0.000000
# 2 -0.009916 0.012413 -0.008489 0.000000 0.000000 0.000000
# 3 0.002679 -0.008489 0.021931 0.000000 0.000000 0.000000
# 4 0.000000 0.000000 0.000000 0.034591 0.000000 0.000000
# 5 0.000000 0.000000 0.000000 0.000000 0.074913 0.000000
# 6 0.000000 0.000000 0.000000 0.000000 0.000000 0.001708
#
#
# Mechanical properties :
#
#
# Convention : Reuss Voigt Hill
#
# Bulk Modulus (GPa) = 33.87267 59.68972 46.78119
# Shear Modulus (GPa) = 23.42126 136.20170 79.81148
#
# Velocity S-wave (km/s) = 3.57910 8.63099 6.60696
# Velocity P-wave (km/s) = 5.96710 11.48790 9.15364
#
# Compressibility (1/GPa) = 0.02952232
#
# Stress axis : x y z
#
# Youngs Moduli (GPa) = 37.55045 80.55798 45.59776
#
# Poissons Ratio (x) = 0.79884 -0.12217
# Poissons Ratio (y) = 0.37236 0.38710
# Poissons Ratio (z) = -0.10061 0.68390
#
# Static dielectric constant tensor:
#      x y z
#    x 1.658750 0.000000 0.000000 
#    y 0.000000 1.619140 0.000000 
#    z 0.000000 0.000000 1.643180 
# 
# From -- ./inp_files/5229.got.cif
#   From: 2010.05.17/outbox.cif.g08.bks.cpg/sg60_3_cif.got.tgz:5229.got - 2010.06.03 14:59:27.
