data_PCOD9455316
_publ_section_title
;
Structure prediction by ZEFSAII (Michael W. Deem and Ramdas Pophale) SiO2 
 PCOD9455316
Probable space group: P B C N
;
_chemical_formula_sum "Si O2"
_cell_formula_units_Z 40
_cell_length_a 13.853161
_cell_length_b 17.628083
_cell_length_c 8.216515
_cell_angle_alpha 90.000000
_cell_angle_beta 90.000000
_cell_angle_gamma 90.000000
_cell_volume 2006.511350
_symmetry_space_group_name_H-M "P B C N"
_symmetry_group_IT_number 60
_symmetry_cell_setting 'orthorhombic'
loop_
_space_group_symop_operation_xyz
x,y,z
1/2-x,1/2-y,1/2+z
1/2+x,1/2-y,-z
-x,y,1/2-z
-x,-y,-z
1/2+x,1/2+y,1/2-z
1/2-x,1/2+y,z
x,-y,1/2+z
loop_
_atom_site_type_symbol
_atom_site_label
_atom_site_fract_x
_atom_site_fract_y
_atom_site_fract_z
Si Si1 0.185210 0.595284 0.477278
Si Si2 0.439088 0.755999 0.912225
Si Si3 0.602998 0.954486 0.840095
Si Si4 0.210209 0.814701 0.210787
Si Si5 0.375383 0.802322 0.464153
O O1 0.131023 0.675394 0.456051
O O2 0.185764 0.562708 0.294589
O O3 0.123883 0.534561 0.578152
O O4 0.279300 0.616220 0.583628
O O5 0.500000 0.777336 0.750000
O O6 0.373484 0.686209 0.849447
O O7 0.524436 0.755202 0.044337
O O8 0.500000 0.954976 0.750000
O O9 0.603794 0.887332 0.972990
O O10 0.311063 0.806314 0.304253
O O11 0.187061 0.741323 0.101272
#
# Coordination Sequence:
#
# PCOD9455316 Si02
#       5
#     8   8   8   8   8
#     4  12  22  35  55  84 122 157 192 231 293 366
#     4  10  20  38  56  83 120 155 193 246 289 339
#     4  12  22  36  53  89 126 157 191 233 311 368
#     4  11  21  37  58  82 118 160 204 240 284 358
#     4  11  20  39  58  84 124 153 201 243 299 350
#
# _framework density 19.935098
#
# number of rings (size 3 to 8) (size 9 to 14) (size 15 to 20)
#    0.000    0.800    8.000    1.800    2.800    0.000 
#    0.000    0.000    0.000    0.000    0.000   68.600 
#    0.000    0.000    0.000    0.000    0.000    0.000 
#
# Total GULP energy -222989.578644 kJ/mol
# GULP energy per Si atom -5574.739466 kJ/mol
# Density = 1.988972 g / cm^3
# Si number density = 19.935098 Si / 1000 Ang^3
#
#
#
# Elastic Constant Matrix: (Units=GPa)
#
#
# Indices 1 2 3 4 5 6 
#
# 1 58.8055 21.8889 21.6293 0.0000 0.0000 0.0000
# 2 21.8889 58.4468 9.8335 0.0000 0.0000 0.0000
# 3 21.6293 9.8335 69.3827 0.0000 0.0000 0.0000
# 4 0.0000 0.0000 0.0000 30.7590 0.0000 0.0000
# 5 0.0000 0.0000 0.0000 0.0000 42.2895 0.0000
# 6 0.0000 0.0000 0.0000 0.0000 0.0000 22.1985
#
#
#
# Elastic Compliance Matrix: (Units=1/GPa)
#
#
# Indices 1 2 3 4 5 6 
#
# 1 0.021809 -0.007195 -0.005779 0.000000 0.000000 0.000000
# 2 -0.007195 0.019901 -0.000578 0.000000 0.000000 0.000000
# 3 -0.005779 -0.000578 0.016296 0.000000 0.000000 0.000000
# 4 0.000000 0.000000 0.000000 0.032511 0.000000 0.000000
# 5 0.000000 0.000000 0.000000 0.000000 0.023647 0.000000
# 6 0.000000 0.000000 0.000000 0.000000 0.000000 0.045048
#
#
# Mechanical properties :
#
#
# Convention : Reuss Voigt Hill
#
# Bulk Modulus (GPa) = 32.35929 32.59313 32.47621
# Shear Modulus (GPa) = 25.43017 27.93496 26.68256
#
# Velocity S-wave (km/s) = 3.57550 3.74745 3.66248
# Velocity P-wave (km/s) = 5.77175 5.92534 5.84905
#
# Compressibility (1/GPa) = 0.03090302
#
# Stress axis : x y z
#
# Youngs Moduli (GPa) = 45.85244 50.24754 61.36402
#
# Poissons Ratio (x) = 0.36155 0.35462
# Poissons Ratio (y) = 0.32993 0.03544
# Poissons Ratio (z) = 0.26498 0.02902
#
# Static dielectric constant tensor:
#      x y z
#    x 1.789850 0.000000 0.000000 
#    y 0.000000 1.678570 0.000000 
#    z 0.000000 0.000000 1.817380 
# 
# From -- ./inp_files/5771.got.cif
#   From: 2010.05.17/outbox.cif.g08.bks.cpg/sg60_3_cif.got.tgz:5771.got - 2010.06.03 14:59:27.
