data_PCOD9455130
_publ_section_title
;
Structure prediction by ZEFSAII (Michael W. Deem and Ramdas Pophale) SiO2 
 PCOD9455130
Probable space group: P B C N
;
_chemical_formula_sum "Si O2"
_cell_formula_units_Z 32
_cell_length_a 7.455931
_cell_length_b 13.915926
_cell_length_c 14.140052
_cell_angle_alpha 90.000000
_cell_angle_beta 90.000000
_cell_angle_gamma 90.000000
_cell_volume 1467.117838
_symmetry_space_group_name_H-M "P B C N"
_symmetry_group_IT_number 60
_symmetry_cell_setting 'orthorhombic'
loop_
_space_group_symop_operation_xyz
x,y,z
1/2-x,1/2-y,1/2+z
1/2+x,1/2-y,-z
-x,y,1/2-z
-x,-y,-z
1/2+x,1/2+y,1/2-z
1/2-x,1/2+y,z
x,-y,1/2+z
loop_
_atom_site_type_symbol
_atom_site_label
_atom_site_fract_x
_atom_site_fract_y
_atom_site_fract_z
Si Si1 0.479575 0.126914 0.535629
Si Si2 0.818854 0.473251 0.628983
Si Si3 0.000000 0.693704 0.250000
Si Si4 0.221532 0.193136 0.110765
Si Si5 0.500000 0.446958 0.750000
O O1 0.326275 0.068577 0.477994
O O2 0.408000 0.229817 0.564668
O O3 0.653590 0.142487 0.468023
O O4 0.543683 0.061423 0.622602
O O5 0.889574 0.380140 0.684675
O O6 0.639260 0.502574 0.682890
O O7 0.138994 0.746025 0.182274
O O8 0.109532 0.118986 0.174871
#
# Coordination Sequence:
#
# PCOD9455130 Si02
#       5
#     8   8   4   8   4
#     4  10  20  36  58  83 113 152 193 232 279 340
#     4   9  19  36  58  81 114 152 189 233 286 339
#     4   8  18  37  58  83 116 148 180 234 294 340
#     4  10  20  36  58  83 115 150 187 234 284 335
#     4  10  20  37  58  83 116 148 186 240 288 332
#
# _framework density 21.811471999999998
#
# number of rings (size 3 to 8) (size 9 to 14) (size 15 to 20)
#    0.000    2.500    0.000    1.500    0.000    2.000 
#    0.000    7.500    0.000   13.500    0.000    0.000 
#    0.000    0.000    0.000    0.000    0.000    0.000 
#
# Total GULP energy -178308.755725 kJ/mol
# GULP energy per Si atom -5572.148616 kJ/mol
# Density = 2.176183 g / cm^3
# Si number density = 21.811472 Si / 1000 Ang^3
#
#
#
# Elastic Constant Matrix: (Units=GPa)
#
#
# Indices 1 2 3 4 5 6 
#
# 1 78.8815 13.0610 53.7108 0.0000 0.0000 0.0000
# 2 13.0610 45.7813 28.5854 0.0000 0.0000 0.0000
# 3 53.7108 28.5854 83.2783 0.0000 0.0000 0.0000
# 4 0.0000 0.0000 0.0000 48.4603 0.0000 0.0000
# 5 0.0000 0.0000 0.0000 0.0000 68.8516 0.0000
# 6 0.0000 0.0000 0.0000 0.0000 0.0000 17.7904
#
#
#
# Elastic Compliance Matrix: (Units=1/GPa)
#
#
# Indices 1 2 3 4 5 6 
#
# 1 0.023022 0.003440 -0.016029 0.000000 0.000000 0.000000
# 2 0.003440 0.028316 -0.011938 0.000000 0.000000 0.000000
# 3 -0.016029 -0.011938 0.026444 0.000000 0.000000 0.000000
# 4 0.000000 0.000000 0.000000 0.020635 0.000000 0.000000
# 5 0.000000 0.000000 0.000000 0.000000 0.014524 0.000000
# 6 0.000000 0.000000 0.000000 0.000000 0.000000 0.056210
#
#
# Mechanical properties :
#
#
# Convention : Reuss Voigt Hill
#
# Bulk Modulus (GPa) = 34.80994 44.29508 39.55251
# Shear Modulus (GPa) = 21.95102 34.52606 28.23854
#
# Velocity S-wave (km/s) = 3.17582 3.98292 3.60205
# Velocity P-wave (km/s) = 5.42604 6.44235 5.95591
#
# Compressibility (1/GPa) = 0.02872742
#
# Stress axis : x y z
#
# Youngs Moduli (GPa) = 43.43716 35.31626 37.81619
#
# Poissons Ratio (x) = -0.12150 0.60615
# Poissons Ratio (y) = -0.14944 0.45146
# Poissons Ratio (z) = 0.69625 0.42161
#
# Static dielectric constant tensor:
#      x y z
#    x 1.865790 0.000000 0.000000 
#    y 0.000000 1.760150 0.000000 
#    z 0.000000 0.000000 1.855770 
# 
# From -- ./inp_files/9545.got.cif
#   From: 2010.05.17/outbox.cif.g08.bks.cpg/sg60_5_cif.got.tgz:9545.got - 2010.06.03 14:59:27.
