data_PCOD9455590
_publ_section_title
;
Structure prediction by ZEFSAII (Michael W. Deem and Ramdas Pophale) SiO2 
 PCOD9455590
Probable space group: P B C N
;
_chemical_formula_sum "Si O2"
_cell_formula_units_Z 64
_cell_length_a 7.429247
_cell_length_b 23.936219
_cell_length_c 14.509243
_cell_angle_alpha 90.000000
_cell_angle_beta 90.000000
_cell_angle_gamma 90.000000
_cell_volume 2580.150871
_symmetry_space_group_name_H-M "P B C N"
_symmetry_group_IT_number 60
_symmetry_cell_setting 'orthorhombic'
loop_
_space_group_symop_operation_xyz
x,y,z
1/2-x,1/2-y,1/2+z
1/2+x,1/2-y,-z
-x,y,1/2-z
-x,-y,-z
1/2+x,1/2+y,1/2-z
1/2-x,1/2+y,z
x,-y,1/2+z
loop_
_atom_site_type_symbol
_atom_site_label
_atom_site_fract_x
_atom_site_fract_y
_atom_site_fract_z
Si Si1 0.804451 0.473275 0.968736
Si Si2 0.815650 0.416971 0.153121
Si Si3 0.336780 0.680634 0.578473
Si Si4 0.829899 0.608875 0.295113
Si Si5 0.746111 0.292666 0.112156
Si Si6 0.857339 0.170589 0.131705
Si Si7 0.758432 0.296221 0.902827
Si Si8 0.747839 0.066443 0.844478
O O1 0.795563 0.429771 0.883751
O O2 0.698038 0.525101 0.925635
O O3 0.738983 0.440050 0.057756
O O4 0.000000 0.500000 0.000000
O O5 0.788910 0.350402 0.162376
O O6 0.725900 0.449355 0.238276
O O7 0.030678 0.425932 0.150496
O O8 0.534132 0.707291 0.588950
O O9 0.287129 0.664189 0.473525
O O10 0.216426 0.731432 0.614637
O O11 0.333614 0.625846 0.637855
O O12 0.703171 0.626104 0.208386
O O13 0.890643 0.668854 0.338606
O O14 0.000000 0.579059 0.250000
O O15 0.802230 0.234326 0.157556
O O16 0.825211 0.297635 0.008190
O O17 0.072639 0.170987 0.117078
#
# Coordination Sequence:
#
# PCOD9455590 Si02
#       8
#     8   8   8   8   8   8   8   8
#     4  10  24  43  68  93 131 171 229 284 331 399
#     4  10  21  40  65  89 129 172 219 274 336 394
#     4  10  22  39  66  97 137 170 224 273 332 404
#     4  12  25  38  68 100 129 173 224 280 335 398
#     4  10  20  40  65  96 135 177 215 272 338 401
#     4  10  23  38  66  97 138 176 213 272 343 407
#     4  10  21  42  62  99 137 178 215 269 345 408
#     4  10  23  39  65  94 122 175 222 272 329 394
#
# _framework density 24.804751
#
# number of rings (size 3 to 8) (size 9 to 14) (size 15 to 20)
#    0.000    1.750    1.250    1.875    8.750    2.500 
#    0.000    0.625    5.500    0.000    0.000    0.000 
#    0.000    0.000    0.000    0.000    0.000    0.000 
#
# Total GULP energy -357421.617259 kJ/mol
# GULP energy per Si atom -5584.712770 kJ/mol
# Density = 2.474829 g / cm^3
# Si number density = 24.804751 Si / 1000 Ang^3
#
#
#
# Elastic Constant Matrix: (Units=GPa)
#
#
# Indices 1 2 3 4 5 6 
#
# 1 52.7549 9.4773 20.9738 0.0000 0.0000 0.0000
# 2 9.4773 92.2968 35.8371 0.0000 0.0000 0.0000
# 3 20.9738 35.8371 110.2775 0.0000 0.0000 0.0000
# 4 0.0000 0.0000 0.0000 23.9311 0.0000 0.0000
# 5 0.0000 0.0000 0.0000 0.0000 21.5046 0.0000
# 6 0.0000 0.0000 0.0000 0.0000 0.0000 10.3509
#
#
#
# Elastic Compliance Matrix: (Units=1/GPa)
#
#
# Indices 1 2 3 4 5 6 
#
# 1 0.020543 -0.000678 -0.003687 0.000000 0.000000 0.000000
# 2 -0.000678 0.012422 -0.003908 0.000000 0.000000 0.000000
# 3 -0.003687 -0.003908 0.011039 0.000000 0.000000 0.000000
# 4 0.000000 0.000000 0.000000 0.041787 0.000000 0.000000
# 5 0.000000 0.000000 0.000000 0.000000 0.046502 0.000000
# 6 0.000000 0.000000 0.000000 0.000000 0.000000 0.096610
#
#
# Mechanical properties :
#
#
# Convention : Reuss Voigt Hill
#
# Bulk Modulus (GPa) = 36.41807 43.10063 39.75935
# Shear Modulus (GPa) = 19.63867 23.76005 21.69936
#
# Velocity S-wave (km/s) = 2.81682 3.09833 2.96092
# Velocity P-wave (km/s) = 5.02922 5.49665 5.26812
#
# Compressibility (1/GPa) = 0.02745889
#
# Stress axis : x y z
#
# Youngs Moduli (GPa) = 48.67806 80.50549 90.58692
#
# Poissons Ratio (x) = 0.05458 0.33398
# Poissons Ratio (y) = 0.03300 0.35399
# Poissons Ratio (z) = 0.17947 0.31459
#
# Static dielectric constant tensor:
#      x y z
#    x 2.068490 0.000000 0.000000 
#    y 0.000000 1.973390 0.000000 
#    z 0.000000 0.000000 2.006400 
# 
# From -- ./inp_files/15421.got.cif
#   From: 2010.05.17/outbox.cif.g08.bks.cpg/sg60_8_cif.got.tgz:15421.got - 2010.06.03 14:59:27.
