data_PCOD9455584
_publ_section_title
;
Structure prediction by ZEFSAII (Michael W. Deem and Ramdas Pophale) SiO2 
 PCOD9455584
Probable space group: P B C N
;
_chemical_formula_sum "Si O2"
_cell_formula_units_Z 44
_cell_length_a 5.626953
_cell_length_b 13.226400
_cell_length_c 25.825206
_cell_angle_alpha 90.000000
_cell_angle_beta 90.000000
_cell_angle_gamma 90.000000
_cell_volume 1922.023684
_symmetry_space_group_name_H-M "P B C N"
_symmetry_group_IT_number 60
_symmetry_cell_setting 'orthorhombic'
loop_
_space_group_symop_operation_xyz
x,y,z
1/2-x,1/2-y,1/2+z
1/2+x,1/2-y,-z
-x,y,1/2-z
-x,-y,-z
1/2+x,1/2+y,1/2-z
1/2-x,1/2+y,z
x,-y,1/2+z
loop_
_atom_site_type_symbol
_atom_site_label
_atom_site_fract_x
_atom_site_fract_y
_atom_site_fract_z
Si Si1 0.559401 0.782355 0.025550
Si Si2 0.000000 0.443636 0.250000
Si Si3 0.938764 0.479624 0.422455
Si Si4 0.690162 0.506725 0.162321
Si Si5 0.327044 0.345835 0.164602
Si Si6 0.647220 0.343183 0.885000
O O1 0.507589 0.902225 0.032415
O O2 0.528426 0.725886 0.080930
O O3 0.827236 0.758504 0.006262
O O4 0.135806 0.516242 0.289920
O O5 0.172899 0.374139 0.214968
O O6 0.789748 0.409596 0.382500
O O7 0.782933 0.581043 0.424157
O O8 0.176649 0.509377 0.392244
O O9 0.583693 0.394821 0.170258
O O10 0.486786 0.589327 0.157370
O O11 0.321339 0.231526 0.145654
#
# Coordination Sequence:
#
# PCOD9455584 Si02
#       6
#     8   4   8   8   8   8
#     4  11  27  44  69 102 142 182 237 293 349 417
#     4  10  20  40  64  96 130 174 218 288 338 404
#     4   9  22  40  66  95 132 179 219 281 347 402
#     4  10  21  41  69  92 134 174 227 281 341 418
#     4   9  20  40  63  91 133 173 214 275 343 408
#     4  10  23  42  68  98 131 184 225 278 356 411
#
# _framework density 22.892537999999998
#
# number of rings (size 3 to 8) (size 9 to 14) (size 15 to 20)
#    0.000    2.182    0.000    0.545   10.182    4.364 
#    9.818    0.000    0.000    0.000    0.000    0.000 
#    0.000    0.000    0.000    0.000    0.000    0.000 
#
# Total GULP energy -245651.982422 kJ/mol
# GULP energy per Si atom -5582.999600 kJ/mol
# Density = 2.284043 g / cm^3
# Si number density = 22.892538 Si / 1000 Ang^3
#
#
#
# Elastic Constant Matrix: (Units=GPa)
#
#
# Indices 1 2 3 4 5 6 
#
# 1 58.5558 9.4911 3.8664 0.0000 0.0000 0.0000
# 2 9.4911 119.5446 15.8247 0.0000 0.0000 0.0000
# 3 3.8664 15.8247 54.8192 0.0000 0.0000 0.0000
# 4 0.0000 0.0000 0.0000 8.2551 0.0000 0.0000
# 5 0.0000 0.0000 0.0000 0.0000 22.3350 0.0000
# 6 0.0000 0.0000 0.0000 0.0000 0.0000 12.3206
#
#
#
# Elastic Compliance Matrix: (Units=1/GPa)
#
#
# Indices 1 2 3 4 5 6 
#
# 1 0.017339 -0.001263 -0.000858 0.000000 0.000000 0.000000
# 2 -0.001263 0.008789 -0.002448 0.000000 0.000000 0.000000
# 3 -0.000858 -0.002448 0.019009 0.000000 0.000000 0.000000
# 4 0.000000 0.000000 0.000000 0.121137 0.000000 0.000000
# 5 0.000000 0.000000 0.000000 0.000000 0.044773 0.000000
# 6 0.000000 0.000000 0.000000 0.000000 0.000000 0.081165
#
#
# Mechanical properties :
#
#
# Convention : Reuss Voigt Hill
#
# Bulk Modulus (GPa) = 27.77888 32.36490 30.07189
# Shear Modulus (GPa) = 15.95655 22.16463 19.06059
#
# Velocity S-wave (km/s) = 2.64298 3.11497 2.88863
# Velocity P-wave (km/s) = 4.63407 5.20633 4.92851
#
# Compressibility (1/GPa) = 0.03599857
#
# Stress axis : x y z
#
# Youngs Moduli (GPa) = 57.67304 113.77301 52.60656
#
# Poissons Ratio (x) = 0.14370 0.04515
# Poissons Ratio (y) = 0.07284 0.12879
# Poissons Ratio (z) = 0.04950 0.27854
#
# Static dielectric constant tensor:
#      x y z
#    x 1.912500 0.000000 0.000000 
#    y 0.000000 1.849960 0.000000 
#    z 0.000000 0.000000 1.883780 
# 
# From -- ./inp_files/24813.got.cif
#   From: 2010.05.17/outbox.cif.g08.bks.cpg/sg60_13_cif.got.tgz:24813.got - 2010.06.03 14:59:27.
