data_PCOD9455679
_publ_section_title
;
Structure prediction by ZEFSAII (Michael W. Deem and Ramdas Pophale) SiO2 
 PCOD9455679
Probable space group: P B C N
;
_chemical_formula_sum "Si O2"
_cell_formula_units_Z 32
_cell_length_a 12.650432
_cell_length_b 7.164613
_cell_length_c 12.418136
_cell_angle_alpha 90.000000
_cell_angle_beta 90.000000
_cell_angle_gamma 90.000000
_cell_volume 1125.523339
_symmetry_space_group_name_H-M "P B C N"
_symmetry_group_IT_number 60
_symmetry_cell_setting 'orthorhombic'
loop_
_space_group_symop_operation_xyz
x,y,z
1/2-x,1/2-y,1/2+z
1/2+x,1/2-y,-z
-x,y,1/2-z
-x,-y,-z
1/2+x,1/2+y,1/2-z
1/2-x,1/2+y,z
x,-y,1/2+z
loop_
_atom_site_type_symbol
_atom_site_label
_atom_site_fract_x
_atom_site_fract_y
_atom_site_fract_z
Si Si1 0.342315 0.751228 0.755827
Si Si2 0.391500 0.351162 0.718022
Si Si3 0.385585 0.025251 0.948281
Si Si4 0.159681 0.112613 0.535512
O O1 0.382175 0.545573 0.786442
O O2 0.378749 0.904883 0.838213
O O3 0.373584 0.758657 0.631302
O O4 0.216501 0.744255 0.737274
O O5 0.500000 0.256589 0.750000
O O6 0.389694 0.427278 0.592231
O O7 0.280771 0.946527 0.011487
O O8 0.500000 0.000000 0.000000
O O9 0.369586 0.249317 0.939010
#
# Coordination Sequence:
#
# PCOD9455679 Si02
#       4
#     8   8   8   8
#     4  10  22  42  63  94 130 170 223 274 326 411
#     4  10  20  42  62  86 130 176 206 273 336 386
#     4  12  24  42  70 100 133 181 223 283 345 409
#     4  10  22  44  60  98 138 164 226 278 328 417
#
# _framework density 28.431218999999999
#
# number of rings (size 3 to 8) (size 9 to 14) (size 15 to 20)
#    1.500    0.000    2.500    3.000    0.000    0.000 
#    9.000    2.500    0.000    0.000    0.000    0.000 
#    0.000    0.000    0.000    0.000    0.000    0.000 
#
# Total GULP energy -178618.076547 kJ/mol
# GULP energy per Si atom -5581.814892 kJ/mol
# Density = 2.836651 g / cm^3
# Si number density = 28.431219 Si / 1000 Ang^3
#
#
#
# Elastic Constant Matrix: (Units=GPa)
#
#
# Indices 1 2 3 4 5 6 
#
# 1 171.9174 45.5511 13.3486 0.0000 0.0000 0.0000
# 2 45.5511 121.7010 45.2543 0.0000 0.0000 0.0000
# 3 13.3486 45.2543 100.0098 0.0000 0.0000 0.0000
# 4 0.0000 0.0000 0.0000 47.0196 0.0000 0.0000
# 5 0.0000 0.0000 0.0000 0.0000 44.9399 0.0000
# 6 0.0000 0.0000 0.0000 0.0000 0.0000 36.6058
#
#
#
# Elastic Compliance Matrix: (Units=1/GPa)
#
#
# Indices 1 2 3 4 5 6 
#
# 1 0.006464 -0.002523 0.000279 0.000000 0.000000 0.000000
# 2 -0.002523 0.010864 -0.004579 0.000000 0.000000 0.000000
# 3 0.000279 -0.004579 0.012034 0.000000 0.000000 0.000000
# 4 0.000000 0.000000 0.000000 0.021268 0.000000 0.000000
# 5 0.000000 0.000000 0.000000 0.000000 0.022252 0.000000
# 6 0.000000 0.000000 0.000000 0.000000 0.000000 0.027318
#
#
# Mechanical properties :
#
#
# Convention : Reuss Voigt Hill
#
# Bulk Modulus (GPa) = 63.63364 66.88181 65.25772
# Shear Modulus (GPa) = 41.98725 45.01134 43.49929
#
# Velocity S-wave (km/s) = 3.84709 3.98322 3.91574
# Velocity P-wave (km/s) = 6.49335 6.68804 6.59141
#
# Compressibility (1/GPa) = 0.01571496
#
# Stress axis : x y z
#
# Youngs Moduli (GPa) = 154.71335 92.04785 83.09891
#
# Poissons Ratio (x) = 0.23223 -0.02318
# Poissons Ratio (y) = 0.39033 0.38052
# Poissons Ratio (z) = -0.04315 0.42150
#
# Static dielectric constant tensor:
#      x y z
#    x 2.200930 0.000000 0.000000 
#    y 0.000000 2.211000 0.000000 
#    z 0.000000 0.000000 2.479930 
# 
# From -- ./inp_files/15620.got.cif
#   From: 2010.05.17/outbox.cif.g08.bks.cpg/sg60_8_cif.got.tgz:15620.got - 2010.06.03 14:59:27.
