data_PCOD9455098
_publ_section_title
;
Structure prediction by ZEFSAII (Michael W. Deem and Ramdas Pophale) SiO2 
 PCOD9455098
Probable space group: P B C N
;
_chemical_formula_sum "Si O2"
_cell_formula_units_Z 60
_cell_length_a 15.290897
_cell_length_b 8.614392
_cell_length_c 18.948751
_cell_angle_alpha 90.000000
_cell_angle_beta 90.000000
_cell_angle_gamma 90.000000
_cell_volume 2495.963225
_symmetry_space_group_name_H-M "P B C N"
_symmetry_group_IT_number 60
_symmetry_cell_setting 'orthorhombic'
loop_
_space_group_symop_operation_xyz
x,y,z
1/2-x,1/2-y,1/2+z
1/2+x,1/2-y,-z
-x,y,1/2-z
-x,-y,-z
1/2+x,1/2+y,1/2-z
1/2-x,1/2+y,z
x,-y,1/2+z
loop_
_atom_site_type_symbol
_atom_site_label
_atom_site_fract_x
_atom_site_fract_y
_atom_site_fract_z
Si Si1 0.838531 0.465783 0.412520
Si Si2 0.722000 0.300405 0.817932
Si Si3 0.500000 0.799225 0.750000
Si Si4 0.460194 0.430084 0.084385
Si Si5 0.870096 0.078522 0.064023
Si Si6 0.481127 0.090139 0.398150
Si Si7 0.802232 0.431379 0.066050
Si Si8 0.357864 0.420117 0.230574
O O1 0.824805 0.296772 0.379355
O O2 0.792674 0.587118 0.357289
O O3 0.793119 0.500671 0.486729
O O4 0.940522 0.490575 0.431276
O O5 0.769651 0.175813 0.769512
O O6 0.661032 0.399949 0.766184
O O7 0.485265 0.903214 0.682757
O O8 0.574890 0.679939 0.725640
O O9 0.535560 0.555076 0.101101
O O10 0.507970 0.264283 0.072033
O O11 0.396493 0.407803 0.150475
O O12 0.401605 0.463726 0.015874
O O13 0.831026 0.251968 0.064979
O O14 0.794411 0.967553 0.095595
O O15 0.383962 0.024437 0.401051
#
# Coordination Sequence:
#
# PCOD9455098 Si02
#       8
#     8   8   4   8   8   8   8   8
#     4  11  20  36  62  99 128 160 206 270 316 378
#     4  10  20  35  66  96 123 155 212 262 311 381
#     4  10  22  46  64  82 128 170 212 272 316 376
#     4  10  21  38  60  91 126 169 204 251 317 381
#     4  11  23  37  60  93 135 167 204 247 321 393
#     4  11  23  41  64  88 126 172 216 260 326 373
#     4  12  23  38  60  96 132 174 204 261 318 392
#     4  10  20  39  64  89 118 162 209 264 310 358
#
# _framework density 24.038816000000001
#
# number of rings (size 3 to 8) (size 9 to 14) (size 15 to 20)
#    0.000    1.333    4.000    3.600    1.867    1.067 
#    0.000    4.667    0.000    0.000    0.000    0.000 
#    0.000    0.000    0.000    0.000    0.000    0.000 
#
# Total GULP energy -335150.070403 kJ/mol
# GULP energy per Si atom -5585.834507 kJ/mol
# Density = 2.398410 g / cm^3
# Si number density = 24.038816 Si / 1000 Ang^3
#
#
#
# Elastic Constant Matrix: (Units=GPa)
#
#
# Indices 1 2 3 4 5 6 
#
# 1 130.6814 51.8779 -11.3982 0.0000 0.0000 0.0000
# 2 51.8779 103.9922 -12.0450 0.0000 0.0000 0.0000
# 3 -11.3982 -12.0450 18.7622 0.0000 0.0000 0.0000
# 4 0.0000 0.0000 0.0000 14.7245 0.0000 0.0000
# 5 0.0000 0.0000 0.0000 0.0000 22.4728 0.0000
# 6 0.0000 0.0000 0.0000 0.0000 0.0000 47.0032
#
#
#
# Elastic Compliance Matrix: (Units=1/GPa)
#
#
# Indices 1 2 3 4 5 6 
#
# 1 0.009697 -0.004489 0.003009 0.000000 0.000000 0.000000
# 2 -0.004489 0.012467 0.005276 0.000000 0.000000 0.000000
# 3 0.003009 0.005276 0.058514 0.000000 0.000000 0.000000
# 4 0.000000 0.000000 0.000000 0.067914 0.000000 0.000000
# 5 0.000000 0.000000 0.000000 0.000000 0.044498 0.000000
# 6 0.000000 0.000000 0.000000 0.000000 0.000000 0.021275
#
#
# Mechanical properties :
#
#
# Convention : Reuss Voigt Hill
#
# Bulk Modulus (GPa) = 11.32880 34.47835 22.90357
# Shear Modulus (GPa) = 21.16898 31.84018 26.50458
#
# Velocity S-wave (km/s) = 2.97074 3.64336 3.32411
# Velocity P-wave (km/s) = 4.06079 5.66328 4.92761
#
# Compressibility (1/GPa) = 0.08827060
#
# Stress axis : x y z
#
# Youngs Moduli (GPa) = 103.12891 80.21490 17.08989
#
# Poissons Ratio (x) = 0.36006 -0.05143
# Poissons Ratio (y) = 0.46292 -0.09017
# Poissons Ratio (z) = -0.31032 -0.42324
#
# Static dielectric constant tensor:
#      x y z
#    x 1.944180 0.000000 0.000000 
#    y 0.000000 1.942320 0.000000 
#    z 0.000000 0.000000 2.120070 
# 
# From -- ./inp_files/24427.got.cif
#   From: 2010.05.17/outbox.cif.g08.bks.cpg/sg60_13_cif.got.tgz:24427.got - 2010.06.03 14:59:27.
