data_PCOD9455681
_publ_section_title
;
Structure prediction by ZEFSAII (Michael W. Deem and Ramdas Pophale) SiO2 
 PCOD9455681
Probable space group: P B C N
;
_chemical_formula_sum "Si O2"
_cell_formula_units_Z 48
_cell_length_a 12.033211
_cell_length_b 18.699243
_cell_length_c 9.200460
_cell_angle_alpha 90.000000
_cell_angle_beta 90.000000
_cell_angle_gamma 90.000000
_cell_volume 2070.213322
_symmetry_space_group_name_H-M "P B C N"
_symmetry_group_IT_number 60
_symmetry_cell_setting 'orthorhombic'
loop_
_space_group_symop_operation_xyz
x,y,z
1/2-x,1/2-y,1/2+z
1/2+x,1/2-y,-z
-x,y,1/2-z
-x,-y,-z
1/2+x,1/2+y,1/2-z
1/2-x,1/2+y,z
x,-y,1/2+z
loop_
_atom_site_type_symbol
_atom_site_label
_atom_site_fract_x
_atom_site_fract_y
_atom_site_fract_z
Si Si1 0.074827 0.024545 0.635133
Si Si2 0.712855 0.778126 0.594164
Si Si3 0.232644 0.912855 0.736738
Si Si4 0.184996 0.576557 0.534978
Si Si5 0.000000 0.715173 0.250000
Si Si6 0.000000 0.425638 0.250000
Si Si7 0.361487 0.146983 0.997382
O O1 0.189891 0.062375 0.590515
O O2 0.000000 0.067603 0.750000
O O3 0.120404 0.956153 0.724955
O O4 0.000000 0.000000 0.500000
O O5 0.776157 0.831031 0.707647
O O6 0.673872 0.836532 0.473947
O O7 0.604810 0.746792 0.675950
O O8 0.791173 0.717514 0.535621
O O9 0.281710 0.910183 0.575202
O O10 0.311655 0.944977 0.863886
O O11 0.087052 0.542896 0.630900
O O12 0.050940 0.665996 0.123410
O O13 0.081479 0.380754 0.353659
#
# Coordination Sequence:
#
# PCOD9455681 Si02
#       7
#     8   8   8   8   4   4   8
#     4  12  24  49  72  99 139 178 234 294 344 415
#     4   9  21  43  63  96 133 178 230 269 348 418
#     4   9  23  45  68  95 140 183 219 286 353 402
#     4  10  24  44  66  98 138 179 233 278 353 408
#     4  10  20  42  63  86 140 187 200 290 338 394
#     4  12  24  40  67 110 134 173 236 292 330 428
#     4  11  22  41  69  95 143 176 228 283 346 422
#
# _framework density 23.186017
#
# number of rings (size 3 to 8) (size 9 to 14) (size 15 to 20)
#    1.000    0.667    3.333    0.000    7.000    0.000 
#   12.000    6.667    0.000    0.000    0.000    0.000 
#    0.000    0.000    0.000    0.000    0.000    0.000 
#
# Total GULP energy -267731.797378 kJ/mol
# GULP energy per Si atom -5577.745779 kJ/mol
# Density = 2.313325 g / cm^3
# Si number density = 23.186017 Si / 1000 Ang^3
#
#
#
# Elastic Constant Matrix: (Units=GPa)
#
#
# Indices 1 2 3 4 5 6 
#
# 1 122.8113 40.0486 48.9416 0.0000 0.0000 0.0000
# 2 40.0486 60.6465 28.3915 0.0000 0.0000 0.0000
# 3 48.9416 28.3915 130.6251 0.0000 0.0000 0.0000
# 4 0.0000 0.0000 0.0000 15.7031 0.0000 0.0000
# 5 0.0000 0.0000 0.0000 0.0000 64.5164 0.0000
# 6 0.0000 0.0000 0.0000 0.0000 0.0000 9.2305
#
#
#
# Elastic Compliance Matrix: (Units=1/GPa)
#
#
# Indices 1 2 3 4 5 6 
#
# 1 0.011287 -0.006094 -0.002904 0.000000 0.000000 0.000000
# 2 -0.006094 0.021647 -0.002422 0.000000 0.000000 0.000000
# 3 -0.002904 -0.002422 0.009270 0.000000 0.000000 0.000000
# 4 0.000000 0.000000 0.000000 0.063682 0.000000 0.000000
# 5 0.000000 0.000000 0.000000 0.000000 0.015500 0.000000
# 6 0.000000 0.000000 0.000000 0.000000 0.000000 0.108337
#
#
# Mechanical properties :
#
#
# Convention : Reuss Voigt Hill
#
# Bulk Modulus (GPa) = 51.64245 60.98292 56.31269
# Shear Modulus (GPa) = 19.30369 31.00341 25.15355
#
# Velocity S-wave (km/s) = 2.88854 3.66069 3.29729
# Velocity P-wave (km/s) = 5.78328 6.65028 6.23187
#
# Compressibility (1/GPa) = 0.01936391
#
# Stress axis : x y z
#
# Youngs Moduli (GPa) = 88.59529 46.19587 107.87366
#
# Poissons Ratio (x) = 0.28152 0.31332
# Poissons Ratio (y) = 0.53990 0.26124
# Poissons Ratio (z) = 0.25732 0.11188
#
# Static dielectric constant tensor:
#      x y z
#    x 1.896300 0.000000 0.000000 
#    y 0.000000 1.872510 0.000000 
#    z 0.000000 0.000000 1.925050 
# 
# From -- ./inp_files/5108.got.cif
#   From: 2010.05.17/outbox.cif.g08.bks.cpg/sg60_3_cif.got.tgz:5108.got - 2010.06.03 14:59:27.
