data_PCOD9455770
_publ_section_title
;
Structure prediction by ZEFSAII (Michael W. Deem and Ramdas Pophale) SiO2 
 PCOD9455770
Probable space group: P B C N
;
_chemical_formula_sum "Si O2"
_cell_formula_units_Z 28
_cell_length_a 12.396644
_cell_length_b 5.339994
_cell_length_c 15.688859
_cell_angle_alpha 90.000000
_cell_angle_beta 90.000000
_cell_angle_gamma 90.000000
_cell_volume 1038.571160
_symmetry_space_group_name_H-M "P B C N"
_symmetry_group_IT_number 60
_symmetry_cell_setting 'orthorhombic'
loop_
_space_group_symop_operation_xyz
x,y,z
1/2-x,1/2-y,1/2+z
1/2+x,1/2-y,-z
-x,y,1/2-z
-x,-y,-z
1/2+x,1/2+y,1/2-z
1/2-x,1/2+y,z
x,-y,1/2+z
loop_
_atom_site_type_symbol
_atom_site_label
_atom_site_fract_x
_atom_site_fract_y
_atom_site_fract_z
Si Si1 0.853006 0.914019 0.967157
Si Si2 0.114219 0.588435 0.097367
Si Si3 0.500000 0.191148 0.750000
Si Si4 0.690945 0.482519 0.662320
O O1 0.744868 0.881092 0.909176
O O2 0.923594 0.132491 0.925127
O O3 0.904279 0.639868 0.968707
O O4 0.819702 0.011491 0.059801
O O5 0.061991 0.481670 0.182192
O O6 0.585055 0.370801 0.704052
O O7 0.721272 0.767077 0.685663
#
# Coordination Sequence:
#
# PCOD9455770 Si02
#       4
#     8   8   4   8
#     4  10  20  46  75  93 140 194 239 283 353 427
#     4  10  22  42  69 106 134 188 233 294 348 431
#     4  12  32  42  76 116 152 184 244 306 384 424
#     4  12  26  50  74 107 146 196 242 307 361 438
#
# _framework density 26.960114999999998
#
# number of rings (size 3 to 8) (size 9 to 14) (size 15 to 20)
#    0.000    1.143    5.714    0.000    8.000    6.857 
#    0.000    0.000    0.000    0.000    0.000    0.000 
#    0.000    0.000    0.000    0.000    0.000    0.000 
#
# Total GULP energy -156931.137127 kJ/mol
# GULP energy per Si atom -5604.683469 kJ/mol
# Density = 2.689875 g / cm^3
# Si number density = 26.960115 Si / 1000 Ang^3
#
#
#
# Elastic Constant Matrix: (Units=GPa)
#
#
# Indices 1 2 3 4 5 6 
#
# 1 102.6749 22.1795 48.3381 0.0000 0.0000 0.0000
# 2 22.1795 212.7472 4.5053 0.0000 0.0000 0.0000
# 3 48.3381 4.5053 43.0776 0.0000 0.0000 0.0000
# 4 0.0000 0.0000 0.0000 35.9741 0.0000 0.0000
# 5 0.0000 0.0000 0.0000 0.0000 55.5689 0.0000
# 6 0.0000 0.0000 0.0000 0.0000 0.0000 36.4858
#
#
#
# Elastic Compliance Matrix: (Units=1/GPa)
#
#
# Indices 1 2 3 4 5 6 
#
# 1 0.021253 -0.001714 -0.023669 0.000000 0.000000 0.000000
# 2 -0.001714 0.004849 0.001417 0.000000 0.000000 0.000000
# 3 -0.023669 0.001417 0.049625 0.000000 0.000000 0.000000
# 4 0.000000 0.000000 0.000000 0.027798 0.000000 0.000000
# 5 0.000000 0.000000 0.000000 0.000000 0.017996 0.000000
# 6 0.000000 0.000000 0.000000 0.000000 0.000000 0.027408
#
#
# Mechanical properties :
#
#
# Convention : Reuss Voigt Hill
#
# Bulk Modulus (GPa) = 35.97948 56.50507 46.24227
# Shear Modulus (GPa) = 24.25704 44.50420 34.38062
#
# Velocity S-wave (km/s) = 3.00282 4.06734 3.57492
# Velocity P-wave (km/s) = 5.03954 6.56216 5.85059
#
# Compressibility (1/GPa) = 0.02779362
#
# Stress axis : x y z
#
# Youngs Moduli (GPa) = 47.05271 206.22176 20.15123
#
# Poissons Ratio (x) = 0.35355 0.47695
# Poissons Ratio (y) = 0.08067 -0.02855
# Poissons Ratio (z) = 1.11368 -0.29214
#
# Static dielectric constant tensor:
#      x y z
#    x 2.205700 0.000000 0.000000 
#    y 0.000000 2.110530 0.000000 
#    z 0.000000 0.000000 2.043710 
# 
# From -- ./inp_files/16477.got.cif
#   From: 2010.05.17/outbox.cif.g08.bks.cpg/sg60_9_cif.got.tgz:16477.got - 2010.06.03 14:59:27.
