data_PCOD9455217
_publ_section_title
;
Structure prediction by ZEFSAII (Michael W. Deem and Ramdas Pophale) SiO2 
 PCOD9455217
Probable space group: P B C N
;
_chemical_formula_sum "Si O2"
_cell_formula_units_Z 32
_cell_length_a 5.323321
_cell_length_b 33.376524
_cell_length_c 8.563193
_cell_angle_alpha 90.000000
_cell_angle_beta 90.000000
_cell_angle_gamma 90.000000
_cell_volume 1521.456334
_symmetry_space_group_name_H-M "P B C N"
_symmetry_group_IT_number 60
_symmetry_cell_setting 'orthorhombic'
loop_
_space_group_symop_operation_xyz
x,y,z
1/2-x,1/2-y,1/2+z
1/2+x,1/2-y,-z
-x,y,1/2-z
-x,-y,-z
1/2+x,1/2+y,1/2-z
1/2-x,1/2+y,z
x,-y,1/2+z
loop_
_atom_site_type_symbol
_atom_site_label
_atom_site_fract_x
_atom_site_fract_y
_atom_site_fract_z
Si Si1 0.749467 0.261314 0.354565
Si Si2 0.522592 0.182721 0.435626
Si Si3 0.992868 0.407933 0.940902
Si Si4 0.502719 0.545152 0.060977
O O1 0.500000 0.265596 0.250000
O O2 0.726664 0.218480 0.442241
O O3 0.000000 0.261567 0.250000
O O4 0.788016 0.296782 0.478370
O O5 0.500000 0.177870 0.250000
O O6 0.549257 0.137761 0.496793
O O7 0.753141 0.433485 0.990928
O O8 0.000000 0.407599 0.750000
O O9 0.252941 0.429157 0.989258
O O10 0.500000 0.544366 0.250000
O O11 0.500000 0.500000 0.000000
#
# Coordination Sequence:
#
# PCOD9455217 Si02
#       4
#     8   8   8   8
#     4  11  24  39  59  90 126 160 201 256 305 347
#     4  10  21  39  62  85 116 161 206 240 289 354
#     4   9  20  35  58  85 109 144 194 240 275 340
#     4  10  20  37  58  82 110 141 182 234 292 349
#
# _framework density 21.032478999999999
#
# number of rings (size 3 to 8) (size 9 to 14) (size 15 to 20)
#    0.000    2.000    0.000    3.750    0.000   11.000 
#    0.000    3.750    0.000    1.500    0.000    0.000 
#    0.000    0.000    0.000    0.000    0.000    0.000 
#
# Total GULP energy -178478.724154 kJ/mol
# GULP energy per Si atom -5577.460130 kJ/mol
# Density = 2.098461 g / cm^3
# Si number density = 21.032479 Si / 1000 Ang^3
#
#
#
# Elastic Constant Matrix: (Units=GPa)
#
#
# Indices 1 2 3 4 5 6 
#
# 1 184.4536 86.0671 49.0642 0.0000 0.0000 0.0000
# 2 86.0671 218.3955 33.6043 0.0000 0.0000 0.0000
# 3 49.0642 33.6043 38.8027 0.0000 0.0000 0.0000
# 4 0.0000 0.0000 0.0000 14.2901 0.0000 0.0000
# 5 0.0000 0.0000 0.0000 0.0000 25.9157 0.0000
# 6 0.0000 0.0000 0.0000 0.0000 0.0000 30.5317
#
#
#
# Elastic Compliance Matrix: (Units=1/GPa)
#
#
# Indices 1 2 3 4 5 6 
#
# 1 0.008898 -0.002048 -0.009477 0.000000 0.000000 0.000000
# 2 -0.002048 0.005754 -0.002393 0.000000 0.000000 0.000000
# 3 -0.009477 -0.002393 0.039828 0.000000 0.000000 0.000000
# 4 0.000000 0.000000 0.000000 0.069979 0.000000 0.000000
# 5 0.000000 0.000000 0.000000 0.000000 0.038587 0.000000
# 6 0.000000 0.000000 0.000000 0.000000 0.000000 0.032753
#
#
# Mechanical properties :
#
#
# Convention : Reuss Voigt Hill
#
# Bulk Modulus (GPa) = 37.53455 86.56921 62.05188
# Shear Modulus (GPa) = 21.50377 32.34191 26.92284
#
# Velocity S-wave (km/s) = 3.20098 3.92562 3.58167
# Velocity P-wave (km/s) = 5.61662 7.86107 6.83165
#
# Compressibility (1/GPa) = 0.02664212
#
# Stress axis : x y z
#
# Youngs Moduli (GPa) = 112.38287 173.78136 25.10812
#
# Poissons Ratio (x) = 0.35597 0.23796
# Poissons Ratio (y) = 0.23020 0.06009
# Poissons Ratio (z) = 1.06509 0.41592
#
# Static dielectric constant tensor:
#      x y z
#    x 1.773030 0.000000 0.000000 
#    y 0.000000 1.738480 0.000000 
#    z 0.000000 0.000000 1.805050 
# 
# From -- ./inp_files/3046.got.cif
#   From: 2010.05.17/outbox.cif.g08.bks.cpg/sg60_2_cif.got.tgz:3046.got - 2010.06.03 14:59:27.
