data_PCOD9455206
_publ_section_title
;
Structure prediction by ZEFSAII (Michael W. Deem and Ramdas Pophale) SiO2 
 PCOD9455206
Probable space group: P B C N
;
_chemical_formula_sum "Si O2"
_cell_formula_units_Z 40
_cell_length_a 5.113939
_cell_length_b 28.276668
_cell_length_c 11.770383
_cell_angle_alpha 90.000000
_cell_angle_beta 90.000000
_cell_angle_gamma 90.000000
_cell_volume 1702.058061
_symmetry_space_group_name_H-M "P B C N"
_symmetry_group_IT_number 60
_symmetry_cell_setting 'orthorhombic'
loop_
_space_group_symop_operation_xyz
x,y,z
1/2-x,1/2-y,1/2+z
1/2+x,1/2-y,-z
-x,y,1/2-z
-x,-y,-z
1/2+x,1/2+y,1/2-z
1/2-x,1/2+y,z
x,-y,1/2+z
loop_
_atom_site_type_symbol
_atom_site_label
_atom_site_fract_x
_atom_site_fract_y
_atom_site_fract_z
Si Si1 0.472489 0.312652 0.473554
Si Si2 0.608112 0.972273 0.111379
Si Si3 0.470346 0.207337 0.382637
Si Si4 0.129472 0.911952 0.077034
Si Si5 0.746127 0.926663 0.682710
O O1 0.487843 0.263935 0.404018
O O2 0.192034 0.315941 0.536233
O O3 0.551925 0.358005 0.398761
O O4 0.687987 0.307712 0.572264
O O5 0.716435 0.016183 0.184508
O O6 0.361617 0.938635 0.144545
O O7 0.861707 0.941426 0.082484
O O8 0.500000 0.000000 0.000000
O O9 0.500000 0.198025 0.250000
O O10 0.230423 0.912182 0.947230
O O11 0.500000 0.907402 0.750000
O O12 0.000000 0.912245 0.750000
#
# Coordination Sequence:
#
# PCOD9455206 Si02
#       5
#     8   8   8   8   8
#     4  10  22  38  61  90 114 151 196 235 292 351
#     4  10  20  37  55  74 109 154 183 218 280 334
#     4  10  21  40  61  84 120 154 186 236 296 354
#     4  11  21  37  58  81 111 148 190 235 280 337
#     4  11  21  34  53  81 113 145 188 236 282 330
#
# _framework density 23.500962999999999
#
# number of rings (size 3 to 8) (size 9 to 14) (size 15 to 20)
#    0.000    1.600    0.000    7.800    0.000    2.400 
#    0.000    3.000    0.000    2.400    0.000    0.000 
#    0.000    0.000    0.000    0.000    0.000    0.000 
#
# Total GULP energy -223800.630227 kJ/mol
# GULP energy per Si atom -5595.015756 kJ/mol
# Density = 2.344747 g / cm^3
# Si number density = 23.500963 Si / 1000 Ang^3
#
#
#
# Elastic Constant Matrix: (Units=GPa)
#
#
# Indices 1 2 3 4 5 6 
#
# 1 149.7304 16.1875 14.2046 0.0000 0.0000 0.0000
# 2 16.1875 142.3535 4.3197 0.0000 0.0000 0.0000
# 3 14.2046 4.3197 61.8923 0.0000 0.0000 0.0000
# 4 0.0000 0.0000 0.0000 5.4061 0.0000 0.0000
# 5 0.0000 0.0000 0.0000 0.0000 33.4246 0.0000
# 6 0.0000 0.0000 0.0000 0.0000 0.0000 19.3056
#
#
#
# Elastic Compliance Matrix: (Units=1/GPa)
#
#
# Indices 1 2 3 4 5 6 
#
# 1 0.006904 -0.000739 -0.001533 0.000000 0.000000 0.000000
# 2 -0.000739 0.007119 -0.000327 0.000000 0.000000 0.000000
# 3 -0.001533 -0.000327 0.016532 0.000000 0.000000 0.000000
# 4 0.000000 0.000000 0.000000 0.184976 0.000000 0.000000
# 5 0.000000 0.000000 0.000000 0.000000 0.029918 0.000000
# 6 0.000000 0.000000 0.000000 0.000000 0.000000 0.051798
#
#
# Mechanical properties :
#
#
# Convention : Reuss Voigt Hill
#
# Bulk Modulus (GPa) = 39.43728 47.04441 43.24085
# Shear Modulus (GPa) = 16.08251 32.91156 24.49703
#
# Velocity S-wave (km/s) = 2.61882 3.74630 3.23210
# Velocity P-wave (km/s) = 5.09527 6.22692 5.68930
#
# Compressibility (1/GPa) = 0.02535672
#
# Stress axis : x y z
#
# Youngs Moduli (GPa) = 144.84472 140.47541 60.48962
#
# Poissons Ratio (x) = 0.10375 0.09273
# Poissons Ratio (y) = 0.10698 0.01980
# Poissons Ratio (z) = 0.22204 0.04598
#
# Static dielectric constant tensor:
#      x y z
#    x 1.834520 0.000000 0.000000 
#    y 0.000000 1.949700 0.000000 
#    z 0.000000 0.000000 1.907190 
# 
# From -- ./inp_files/9189.got.cif
#   From: 2010.05.17/outbox.cif.g08.bks.cpg/sg60_5_cif.got.tgz:9189.got - 2010.06.03 14:59:27.
