data_PCOD9455092
_publ_section_title
;
Structure prediction by ZEFSAII (Michael W. Deem and Ramdas Pophale) SiO2 
 PCOD9455092
Probable space group: P B C N
;
_chemical_formula_sum "Si O2"
_cell_formula_units_Z 56
_cell_length_a 10.303780
_cell_length_b 23.525827
_cell_length_c 11.702337
_cell_angle_alpha 90.000000
_cell_angle_beta 90.000000
_cell_angle_gamma 90.000000
_cell_volume 2836.704365
_symmetry_space_group_name_H-M "P B C N"
_symmetry_group_IT_number 60
_symmetry_cell_setting 'orthorhombic'
loop_
_space_group_symop_operation_xyz
x,y,z
1/2-x,1/2-y,1/2+z
1/2+x,1/2-y,-z
-x,y,1/2-z
-x,-y,-z
1/2+x,1/2+y,1/2-z
1/2-x,1/2+y,z
x,-y,1/2+z
loop_
_atom_site_type_symbol
_atom_site_label
_atom_site_fract_x
_atom_site_fract_y
_atom_site_fract_z
Si Si1 0.295834 0.498054 0.489516
Si Si2 0.002682 0.786864 0.475285
Si Si3 0.326753 0.090259 0.354110
Si Si4 0.516635 0.417360 0.387429
Si Si5 0.110522 0.406404 0.586355
Si Si6 0.729429 0.787852 0.922975
Si Si7 0.375458 0.320909 0.804841
O O1 0.243568 0.531617 0.380245
O O2 0.402986 0.452626 0.450646
O O3 0.356901 0.546082 0.573316
O O4 0.177336 0.462981 0.541502
O O5 0.990735 0.852312 0.433197
O O6 0.900626 0.748940 0.406243
O O7 0.941855 0.780845 0.602814
O O8 0.154258 0.770006 0.489969
O O9 0.363679 0.094732 0.221944
O O10 0.456192 0.095820 0.428745
O O11 0.222103 0.139188 0.372757
O O12 0.500000 0.417761 0.250000
O O13 0.181082 0.350351 0.539378
O O14 0.798083 0.793547 0.799437
O O15 0.500000 0.353903 0.750000
#
# Coordination Sequence:
#
# PCOD9455092 Si02
#       7
#     8   8   8   8   8   8   8
#     4  11  21  39  61  87 128 168 194 262 315 379
#     4  11  22  42  61  89 125 162 207 262 318 366
#     4  10  20  35  63  88 121 162 206 249 308 375
#     4  11  24  38  59  94 123 162 212 257 321 377
#     4  10  21  38  58  95 123 157 212 253 304 379
#     4  10  23  39  64  88 123 164 207 261 309 380
#     4   9  20  39  62  88 118 160 214 255 310 378
#
# _framework density 19.741216999999999
#
# number of rings (size 3 to 8) (size 9 to 14) (size 15 to 20)
#    0.000    1.714    2.857    1.286    2.000    1.714 
#    2.571    0.000    0.000    0.000    0.000    0.000 
#    0.000    0.000    0.000    0.000    0.000    0.000 
#
# Total GULP energy -312096.744311 kJ/mol
# GULP energy per Si atom -5573.156148 kJ/mol
# Density = 1.969629 g / cm^3
# Si number density = 19.741217 Si / 1000 Ang^3
#
#
#
# Elastic Constant Matrix: (Units=GPa)
#
#
# Indices 1 2 3 4 5 6 
#
# 1 124.7189 41.3601 11.7309 0.0000 0.0000 0.0000
# 2 41.3601 66.6168 8.9012 0.0000 0.0000 0.0000
# 3 11.7309 8.9012 35.0095 0.0000 0.0000 0.0000
# 4 0.0000 0.0000 0.0000 -0.9113 0.0000 0.0000
# 5 0.0000 0.0000 0.0000 0.0000 24.5221 0.0000
# 6 0.0000 0.0000 0.0000 0.0000 0.0000 69.3492
#
#
#
# Elastic Compliance Matrix: (Units=1/GPa)
#
#
# Indices 1 2 3 4 5 6 
#
# 1 0.010214 -0.006091 -0.001874 0.000000 0.000000 0.000000
# 2 -0.006091 0.019172 -0.002833 0.000000 0.000000 0.000000
# 3 -0.001874 -0.002833 0.029912 0.000000 0.000000 0.000000
# 4 0.000000 0.000000 0.000000 -1.097274 0.000000 0.000000
# 5 0.000000 0.000000 0.000000 0.000000 0.040779 0.000000
# 6 0.000000 0.000000 0.000000 0.000000 0.000000 0.014420
#
#
# Mechanical properties :
#
#
# Convention : Reuss Voigt Hill
#
# Bulk Modulus (GPa) = 26.52457 38.92550 32.72504
# Shear Modulus (GPa) = -5.27086 29.54886 12.13900
#
# Velocity S-wave (km/s) = -1.63578 3.87306 2.48242
# Velocity P-wave (km/s) = 3.14605 6.30567 4.98293
#
# Compressibility (1/GPa) = 0.03770090
#
# Stress axis : x y z
#
# Youngs Moduli (GPa) = 97.90161 52.16013 33.43143
#
# Poissons Ratio (x) = 0.31773 0.06265
# Poissons Ratio (y) = 0.59635 0.09472
# Poissons Ratio (z) = 0.18346 0.14779
#
# Static dielectric constant tensor:
#      x y z
#    x 1.761480 0.000000 0.000000 
#    y 0.000000 1.700370 0.000000 
#    z 0.000000 0.000000 1.709260 
# 
# From -- ./inp_files/11179.got.cif
#   From: 2010.05.17/outbox.cif.g08.bks.cpg/sg60_6_cif.got.tgz:11179.got - 2010.06.03 14:59:27.
