data_PCOD9455908
_publ_section_title
;
Structure prediction by ZEFSAII (Michael W. Deem and Ramdas Pophale) SiO2 
 PCOD9455908
Probable space group: P B C N
;
_chemical_formula_sum "Si O2"
_cell_formula_units_Z 64
_cell_length_a 9.123261
_cell_length_b 21.186426
_cell_length_c 15.674391
_cell_angle_alpha 90.000000
_cell_angle_beta 90.000000
_cell_angle_gamma 90.000000
_cell_volume 3029.691971
_symmetry_space_group_name_H-M "P B C N"
_symmetry_group_IT_number 60
_symmetry_cell_setting 'orthorhombic'
loop_
_space_group_symop_operation_xyz
x,y,z
1/2-x,1/2-y,1/2+z
1/2+x,1/2-y,-z
-x,y,1/2-z
-x,-y,-z
1/2+x,1/2+y,1/2-z
1/2-x,1/2+y,z
x,-y,1/2+z
loop_
_atom_site_type_symbol
_atom_site_label
_atom_site_fract_x
_atom_site_fract_y
_atom_site_fract_z
Si Si1 0.396564 0.142646 0.939208
Si Si2 0.865355 0.139395 0.188220
Si Si3 0.191547 0.246968 0.880950
Si Si4 0.237701 0.034644 0.017619
Si Si5 0.646732 0.931423 0.793823
Si Si6 0.208912 0.691958 0.571453
Si Si7 0.384214 0.204674 0.128275
Si Si8 0.419759 0.595238 0.499148
O O1 0.275334 0.180540 0.884598
O O2 0.560469 0.155282 0.906770
O O3 0.358441 0.070085 0.959853
O O4 0.389734 0.177522 0.031441
O O5 0.774117 0.203167 0.178250
O O6 0.770904 0.080039 0.222703
O O7 0.919708 0.125330 0.093854
O O8 0.000000 0.147772 0.250000
O O9 0.023168 0.251163 0.855007
O O10 0.193324 0.277611 0.976557
O O11 0.288053 0.040538 0.117453
O O12 0.086475 0.071559 0.992682
O O13 0.194300 0.962938 0.999888
O O14 0.500000 0.959538 0.750000
O O15 0.610377 0.859079 0.819147
O O16 0.242743 0.750883 0.632113
O O17 0.348939 0.645696 0.563482
#
# Coordination Sequence:
#
# PCOD9455908 Si02
#       8
#     8   8   8   8   8   8   8   8
#     4   9  18  30  50  79 107 137 177 227 279 329
#     4  11  21  34  55  85 114 146 187 244 298 352
#     4   9  17  30  49  76 109 140 173 217 282 345
#     4  10  21  37  57  80 112 153 199 246 284 352
#     4  11  21  36  55  85 115 146 188 242 306 354
#     4   9  18  30  50  79 107 137 178 229 279 331
#     4   9  17  30  50  75 109 141 170 217 281 347
#     4  10  21  37  56  82 111 151 201 243 289 345
#
# _framework density 21.124258999999999
#
# number of rings (size 3 to 8) (size 9 to 14) (size 15 to 20)
#    0.000    2.250    2.500    0.750    3.500    3.500 
#    0.000    0.000    0.000    1.500    0.000    0.000 
#    0.000    0.000    0.000    0.000    0.000    0.000 
#
# Total GULP energy -356826.525882 kJ/mol
# GULP energy per Si atom -5575.414467 kJ/mol
# Density = 2.107618 g / cm^3
# Si number density = 21.124259 Si / 1000 Ang^3
#
#
#
# Elastic Constant Matrix: (Units=GPa)
#
#
# Indices 1 2 3 4 5 6 
#
# 1 63.8816 14.1220 1.4249 0.0000 0.0000 0.0000
# 2 14.1220 53.5392 15.9033 0.0000 0.0000 0.0000
# 3 1.4249 15.9033 27.2460 0.0000 0.0000 0.0000
# 4 0.0000 0.0000 0.0000 -1.7013 0.0000 0.0000
# 5 0.0000 0.0000 0.0000 0.0000 20.9291 0.0000
# 6 0.0000 0.0000 0.0000 0.0000 0.0000 30.2698
#
#
#
# Elastic Compliance Matrix: (Units=1/GPa)
#
#
# Indices 1 2 3 4 5 6 
#
# 1 0.016718 -0.005020 0.002056 0.000000 0.000000 0.000000
# 2 -0.005020 0.024103 -0.013806 0.000000 0.000000 0.000000
# 3 0.002056 -0.013806 0.044654 0.000000 0.000000 0.000000
# 4 0.000000 0.000000 0.000000 -0.587771 0.000000 0.000000
# 5 0.000000 0.000000 0.000000 0.000000 0.047780 0.000000
# 6 0.000000 0.000000 0.000000 0.000000 0.000000 0.033036
#
#
# Mechanical properties :
#
#
# Convention : Reuss Voigt Hill
#
# Bulk Modulus (GPa) = 19.25536 23.06302 21.15919
# Shear Modulus (GPa) = -13.49067 17.44727 1.97830
#
# Velocity S-wave (km/s) = -2.52986 2.87703 0.96878
# Velocity P-wave (km/s) = 0.77554 4.68806 3.36001
#
# Compressibility (1/GPa) = 0.05193358
#
# Stress axis : x y z
#
# Youngs Moduli (GPa) = 59.81595 41.48832 22.39451
#
# Poissons Ratio (x) = 0.20829 -0.04604
# Poissons Ratio (y) = 0.30030 0.30919
# Poissons Ratio (z) = -0.12298 0.57280
#
# Static dielectric constant tensor:
#      x y z
#    x 1.814920 0.000000 0.000000 
#    y 0.000000 1.734020 0.000000 
#    z 0.000000 0.000000 1.788330 
# 
# From -- ./inp_files/19713.got.cif
#   From: 2010.05.17/outbox.cif.g08.bks.cpg/sg60_10_cif.got.tgz:19713.got - 2010.06.03 14:59:27.
