data_PCOD9455902
_publ_section_title
;
Structure prediction by ZEFSAII (Michael W. Deem and Ramdas Pophale) SiO2 
 PCOD9455902
Probable space group: P B C N
;
_chemical_formula_sum "Si O2"
_cell_formula_units_Z 48
_cell_length_a 16.046244
_cell_length_b 29.994235
_cell_length_c 5.022792
_cell_angle_alpha 90.000000
_cell_angle_beta 90.000000
_cell_angle_gamma 90.000000
_cell_volume 2417.443738
_symmetry_space_group_name_H-M "P B C N"
_symmetry_group_IT_number 60
_symmetry_cell_setting 'orthorhombic'
loop_
_space_group_symop_operation_xyz
x,y,z
1/2-x,1/2-y,1/2+z
1/2+x,1/2-y,-z
-x,y,1/2-z
-x,-y,-z
1/2+x,1/2+y,1/2-z
1/2-x,1/2+y,z
x,-y,1/2+z
loop_
_atom_site_type_symbol
_atom_site_label
_atom_site_fract_x
_atom_site_fract_y
_atom_site_fract_z
Si Si1 0.318108 0.468198 0.208620
Si Si2 0.703215 0.695888 0.979085
Si Si3 0.692931 0.889407 0.398329
Si Si4 0.920557 0.626069 0.406656
Si Si5 0.357331 0.265086 0.514994
Si Si6 0.500000 0.795754 0.250000
Si Si7 0.500000 0.467055 0.250000
O O1 0.312059 0.491409 0.496524
O O2 0.247578 0.433686 0.122785
O O3 0.409718 0.444459 0.218410
O O4 0.743559 0.651592 0.858673
O O5 0.634963 0.714860 0.776632
O O6 0.778780 0.731379 0.989173
O O7 0.664681 0.696280 0.272669
O O8 0.649837 0.876154 0.678776
O O9 0.621828 0.893666 0.171895
O O10 0.000000 0.605510 0.250000
O O11 0.955004 0.672753 0.529112
O O12 0.433069 0.235252 0.609471
O O13 0.500000 0.500000 0.500000
#
# Coordination Sequence:
#
# PCOD9455902 Si02
#       7
#     8   8   8   8   8   4   4
#     4  10  21  40  65  98 126 163 205 257 317 387
#     4  10  21  37  53  85 113 159 186 251 308 358
#     4  12  23  39  66  92 125 161 213 263 315 375
#     4  12  23  38  62  92 118 163 224 261 303 348
#     4  10  22  34  57  78 119 147 205 244 302 351
#     4  12  24  38  62  89 118 166 222 260 295 370
#     4   8  16  34  62  89 120 150 194 238 299 374
#
# _framework density 19.855685000000001
#
# number of rings (size 3 to 8) (size 9 to 14) (size 15 to 20)
#    0.000    1.333    3.333    2.000    7.000    0.000 
#    0.000    1.667    0.000   12.000    0.000    0.000 
#    0.000    0.000    0.000    0.000    0.000    0.000 
#
# Total GULP energy -267476.310800 kJ/mol
# GULP energy per Si atom -5572.423142 kJ/mol
# Density = 1.981049 g / cm^3
# Si number density = 19.855685 Si / 1000 Ang^3
#
#
#
# Elastic Constant Matrix: (Units=GPa)
#
#
# Indices 1 2 3 4 5 6 
#
# 1 81.6849 18.6378 11.6378 0.0000 0.0000 0.0000
# 2 18.6378 34.1128 0.7138 0.0000 0.0000 0.0000
# 3 11.6378 0.7138 83.2986 0.0000 0.0000 0.0000
# 4 0.0000 0.0000 0.0000 9.1169 0.0000 0.0000
# 5 0.0000 0.0000 0.0000 0.0000 31.1341 0.0000
# 6 0.0000 0.0000 0.0000 0.0000 0.0000 -21.6888
#
#
#
# Elastic Compliance Matrix: (Units=1/GPa)
#
#
# Indices 1 2 3 4 5 6 
#
# 1 0.014289 -0.007767 -0.001930 0.000000 0.000000 0.000000
# 2 -0.007767 0.033541 0.000798 0.000000 0.000000 0.000000
# 3 -0.001930 0.000798 0.012268 0.000000 0.000000 0.000000
# 4 0.000000 0.000000 0.000000 0.109686 0.000000 0.000000
# 5 0.000000 0.000000 0.000000 0.000000 0.032119 0.000000
# 6 0.000000 0.000000 0.000000 0.000000 0.000000 -0.046107
#
#
# Mechanical properties :
#
#
# Convention : Reuss Voigt Hill
#
# Bulk Modulus (GPa) = 23.64030 29.00834 26.32432
# Shear Modulus (GPa) = 26.63902 14.91956 20.77929
#
# Velocity S-wave (km/s) = 3.66680 2.74414 3.23850
# Velocity P-wave (km/s) = 5.46435 4.96807 5.22211
#
# Compressibility (1/GPa) = 0.04230065
#
# Stress axis : x y z
#
# Youngs Moduli (GPa) = 69.98295 29.81406 81.51432
#
# Poissons Ratio (x) = 0.23156 0.15731
# Poissons Ratio (y) = 0.54353 -0.06502
# Poissons Ratio (z) = 0.13505 -0.02378
#
# Static dielectric constant tensor:
#      x y z
#    x 1.795860 0.000000 0.000000 
#    y 0.000000 1.676030 0.000000 
#    z 0.000000 0.000000 1.711640 
# 
# From -- ./inp_files/1344.got.cif
#   From: 2010.05.17/outbox.cif.g08.bks.cpg/sg60_1_cif.got.tgz:1344.got - 2010.06.03 14:59:27.
