data_PCOD9455781
_publ_section_title
;
Structure prediction by ZEFSAII (Michael W. Deem and Ramdas Pophale) SiO2 
 PCOD9455781
Probable space group: P B C N
;
_chemical_formula_sum "Si O2"
_cell_formula_units_Z 52
_cell_length_a 28.600718
_cell_length_b 11.614628
_cell_length_c 8.384037
_cell_angle_alpha 90.000000
_cell_angle_beta 90.000000
_cell_angle_gamma 90.000000
_cell_volume 2785.065585
_symmetry_space_group_name_H-M "P B C N"
_symmetry_group_IT_number 60
_symmetry_cell_setting 'orthorhombic'
loop_
_space_group_symop_operation_xyz
x,y,z
1/2-x,1/2-y,1/2+z
1/2+x,1/2-y,-z
-x,y,1/2-z
-x,-y,-z
1/2+x,1/2+y,1/2-z
1/2-x,1/2+y,z
x,-y,1/2+z
loop_
_atom_site_type_symbol
_atom_site_label
_atom_site_fract_x
_atom_site_fract_y
_atom_site_fract_z
Si Si1 0.724454 0.327457 0.245967
Si Si2 0.500000 0.570414 0.750000
Si Si3 0.815210 0.600400 0.158411
Si Si4 0.211787 0.023980 0.448872
Si Si5 0.666048 0.141989 0.801648
Si Si6 0.377118 0.368328 0.781806
Si Si7 0.932645 0.042498 0.504570
O O1 0.694685 0.212010 0.266302
O O2 0.709197 0.420235 0.377734
O O3 0.712822 0.386355 0.075468
O O4 0.780476 0.315716 0.263080
O O5 0.529744 0.495089 0.873230
O O6 0.540600 0.622500 0.635177
O O7 0.762663 0.561936 0.112445
O O8 0.837642 0.488900 0.238942
O O9 0.839004 0.636527 0.992778
O O10 0.171025 0.077957 0.343881
O O11 0.630572 0.231508 0.721379
O O12 0.391299 0.404118 0.601497
O O13 0.413960 0.429540 0.901603
#
# Coordination Sequence:
#
# PCOD9455781 Si02
#       7
#     8   4   8   8   8   8   8
#     4  10  21  35  51  70  98 157 200 243 274 314
#     4   8  16  38  54  88 114 144 160 196 272 388
#     4  10  22  37  51  67 103 167 198 238 267 308
#     4  10  21  32  52  73 108 143 200 231 279 312
#     4  10  23  36  50  72 106 146 211 234 273 317
#     4  11  20  35  50  88 111 148 173 240 269 326
#     4   9  19  32  61  81 121 140 165 210 289 333
#
# _framework density 18.671016000000002
#
# number of rings (size 3 to 8) (size 9 to 14) (size 15 to 20)
#    0.000    2.154    1.538    0.923    6.462    2.462 
#    0.000    0.000    0.000    0.000    0.000    0.000 
#    0.000   61.538    0.000    0.000    0.000    0.000 
#
# Total GULP energy -289565.240400 kJ/mol
# GULP energy per Si atom -5568.562315 kJ/mol
# Density = 1.862852 g / cm^3
# Si number density = 18.671016 Si / 1000 Ang^3
#
#
#
# Elastic Constant Matrix: (Units=GPa)
#
#
# Indices 1 2 3 4 5 6 
#
# 1 40.8659 13.3906 26.2401 0.0000 0.0000 0.0000
# 2 13.3906 92.2928 37.1455 0.0000 0.0000 0.0000
# 3 26.2401 37.1455 84.9366 0.0000 0.0000 0.0000
# 4 0.0000 0.0000 0.0000 21.0585 0.0000 0.0000
# 5 0.0000 0.0000 0.0000 0.0000 26.5076 0.0000
# 6 0.0000 0.0000 0.0000 0.0000 0.0000 1.3244
#
#
#
# Elastic Compliance Matrix: (Units=1/GPa)
#
#
# Indices 1 2 3 4 5 6 
#
# 1 0.030571 -0.000770 -0.009108 0.000000 0.000000 0.000000
# 2 -0.000770 0.013169 -0.005521 0.000000 0.000000 0.000000
# 3 -0.009108 -0.005521 0.017002 0.000000 0.000000 0.000000
# 4 0.000000 0.000000 0.000000 0.047487 0.000000 0.000000
# 5 0.000000 0.000000 0.000000 0.000000 0.037725 0.000000
# 6 0.000000 0.000000 0.000000 0.000000 0.000000 0.755039
#
#
# Mechanical properties :
#
#
# Convention : Reuss Voigt Hill
#
# Bulk Modulus (GPa) = 33.39610 41.29418 37.34514
# Shear Modulus (GPa) = 5.30914 19.19937 12.25425
#
# Velocity S-wave (km/s) = 1.68810 3.21019 2.56466
# Velocity P-wave (km/s) = 4.66101 5.99209 5.36797
#
# Compressibility (1/GPa) = 0.02994361
#
# Stress axis : x y z
#
# Youngs Moduli (GPa) = 32.71117 75.93594 58.81696
#
# Poissons Ratio (x) = 0.05845 0.53569
# Poissons Ratio (y) = 0.02518 0.32475
# Poissons Ratio (z) = 0.29792 0.41927
#
# Static dielectric constant tensor:
#      x y z
#    x 1.679160 0.000000 0.000000 
#    y 0.000000 1.683530 0.000000 
#    z 0.000000 0.000000 1.747480 
# 
# From -- ./inp_files/8456.got.cif
#   From: 2010.05.17/outbox.cif.g08.bks.cpg/sg60_5_cif.got.tgz:8456.got - 2010.06.03 14:59:27.
