data_PCOD9455635
_publ_section_title
;
Structure prediction by ZEFSAII (Michael W. Deem and Ramdas Pophale) SiO2 
 PCOD9455635
Probable space group: P B C N
;
_chemical_formula_sum "Si O2"
_cell_formula_units_Z 36
_cell_length_a 9.379161
_cell_length_b 14.292894
_cell_length_c 12.977307
_cell_angle_alpha 90.000000
_cell_angle_beta 90.000000
_cell_angle_gamma 90.000000
_cell_volume 1739.677484
_symmetry_space_group_name_H-M "P B C N"
_symmetry_group_IT_number 60
_symmetry_cell_setting 'orthorhombic'
loop_
_space_group_symop_operation_xyz
x,y,z
1/2-x,1/2-y,1/2+z
1/2+x,1/2-y,-z
-x,y,1/2-z
-x,-y,-z
1/2+x,1/2+y,1/2-z
1/2-x,1/2+y,z
x,-y,1/2+z
loop_
_atom_site_type_symbol
_atom_site_label
_atom_site_fract_x
_atom_site_fract_y
_atom_site_fract_z
Si Si1 0.862945 0.163691 0.417516
Si Si2 0.585921 0.531271 0.145672
Si Si3 0.209320 0.170978 0.854449
Si Si4 0.841956 0.370500 0.739275
Si Si5 0.000000 0.304475 0.250000
O O1 0.796030 0.197794 0.524542
O O2 0.736370 0.120890 0.348925
O O3 0.986226 0.085720 0.435168
O O4 0.934687 0.241815 0.343608
O O5 0.500000 0.553869 0.250000
O O6 0.613287 0.421356 0.148904
O O7 0.739924 0.579850 0.156254
O O8 0.154838 0.261179 0.792426
O O9 0.364000 0.147284 0.804364
O O10 0.000000 0.408351 0.750000
#
# Coordination Sequence:
#
# PCOD9455635 Si02
#       5
#     8   8   8   8   4
#     4  10  20  42  63  86 130 164 204 262 324 373
#     4  10  20  41  61  90 128 163 207 266 313 382
#     4  11  22  37  69  88 123 170 217 250 329 384
#     4  10  22  38  59  91 125 158 206 267 308 375
#     4  10  22  44  58 100 132 162 208 286 306 378
#
# _framework density 20.693490000000001
#
# number of rings (size 3 to 8) (size 9 to 14) (size 15 to 20)
#    0.000    1.778    5.556    1.333    4.667    0.000 
#    0.000    5.556    0.000    0.000    0.000    0.000 
#    0.000    0.000    0.000    0.000    0.000    0.000 
#
# Total GULP energy -200540.459732 kJ/mol
# GULP energy per Si atom -5570.568326 kJ/mol
# Density = 2.064639 g / cm^3
# Si number density = 20.693490 Si / 1000 Ang^3
#
#
#
# Elastic Constant Matrix: (Units=GPa)
#
#
# Indices 1 2 3 4 5 6 
#
# 1 100.7105 10.0927 52.7954 0.0000 0.0000 0.0000
# 2 10.0927 72.2884 13.8735 0.0000 0.0000 0.0000
# 3 52.7954 13.8735 81.4187 0.0000 0.0000 0.0000
# 4 0.0000 0.0000 0.0000 8.3469 0.0000 0.0000
# 5 0.0000 0.0000 0.0000 0.0000 24.4018 0.0000
# 6 0.0000 0.0000 0.0000 0.0000 0.0000 64.0833
#
#
#
# Elastic Compliance Matrix: (Units=1/GPa)
#
#
# Indices 1 2 3 4 5 6 
#
# 1 0.015047 -0.000236 -0.009717 0.000000 0.000000 0.000000
# 2 -0.000236 0.014305 -0.002284 0.000000 0.000000 0.000000
# 3 -0.009717 -0.002284 0.018972 0.000000 0.000000 0.000000
# 4 0.000000 0.000000 0.000000 0.119805 0.000000 0.000000
# 5 0.000000 0.000000 0.000000 0.000000 0.040981 0.000000
# 6 0.000000 0.000000 0.000000 0.000000 0.000000 0.015605
#
#
# Mechanical properties :
#
#
# Convention : Reuss Voigt Hill
#
# Bulk Modulus (GPa) = 41.92971 45.32675 43.62823
# Shear Modulus (GPa) = 19.44473 31.21014 25.32744
#
# Velocity S-wave (km/s) = 3.06870 3.88778 3.50227
# Velocity P-wave (km/s) = 5.73255 6.48880 6.12237
#
# Compressibility (1/GPa) = 0.02384944
#
# Stress axis : x y z
#
# Youngs Moduli (GPa) = 66.45848 69.90635 52.70837
#
# Poissons Ratio (x) = 0.01650 0.51216
# Poissons Ratio (y) = 0.01568 0.12041
# Poissons Ratio (z) = 0.64577 0.15970
#
# Static dielectric constant tensor:
#      x y z
#    x 1.768640 0.000000 0.000000 
#    y 0.000000 1.764740 0.000000 
#    z 0.000000 0.000000 1.785070 
# 
# From -- ./inp_files/14578.got.cif
#   From: 2010.05.17/outbox.cif.g08.bks.cpg/sg60_8_cif.got.tgz:14578.got - 2010.06.03 14:59:27.
