data_PCOD9455157
_publ_section_title
;
Structure prediction by ZEFSAII (Michael W. Deem and Ramdas Pophale) SiO2 
 PCOD9455157
Probable space group: P B C N
;
_chemical_formula_sum "Si O2"
_cell_formula_units_Z 60
_cell_length_a 5.421709
_cell_length_b 26.963946
_cell_length_c 18.011683
_cell_angle_alpha 90.000000
_cell_angle_beta 90.000000
_cell_angle_gamma 90.000000
_cell_volume 2633.139982
_symmetry_space_group_name_H-M "P B C N"
_symmetry_group_IT_number 60
_symmetry_cell_setting 'orthorhombic'
loop_
_space_group_symop_operation_xyz
x,y,z
1/2-x,1/2-y,1/2+z
1/2+x,1/2-y,-z
-x,y,1/2-z
-x,-y,-z
1/2+x,1/2+y,1/2-z
1/2-x,1/2+y,z
x,-y,1/2+z
loop_
_atom_site_type_symbol
_atom_site_label
_atom_site_fract_x
_atom_site_fract_y
_atom_site_fract_z
Si Si1 0.000000 0.965241 0.750000
Si Si2 0.253230 0.714932 0.798826
Si Si3 0.667645 0.266487 0.542201
Si Si4 0.678920 0.924815 0.864847
Si Si5 0.916487 0.634102 0.034424
Si Si6 0.054085 0.058072 0.495816
Si Si7 0.739631 0.120313 0.601748
Si Si8 0.888014 0.520615 0.668779
O O1 0.208499 0.930162 0.716570
O O2 0.112155 0.000157 0.814314
O O3 0.500000 0.726946 0.750000
O O4 0.208530 0.748332 0.872937
O O5 0.293467 0.660061 0.834867
O O6 0.000000 0.715445 0.750000
O O7 0.401801 0.253046 0.507113
O O8 0.704012 0.325766 0.538089
O O9 0.534039 0.875006 0.885042
O O10 0.895800 0.924713 0.925111
O O11 0.529869 0.976548 0.871886
O O12 0.825769 0.578530 0.016003
O O13 0.099732 0.646638 0.966894
O O14 0.965207 0.090049 0.566197
O O15 0.000000 0.000000 0.500000
O O16 0.586952 0.074019 0.633331
O O17 0.000000 0.524712 0.750000
#
# Coordination Sequence:
#
# PCOD9455157 Si02
#       8
#     4   8   8   8   8   8   8   8
#     4  10  20  36  60  84 136 192 226 282 352 426
#     4  12  28  50  77 115 152 189 252 333 402 461
#     4  12  26  52  83 110 148 200 254 317 392 469
#     4  10  21  38  57  94 128 181 231 287 338 426
#     4  11  24  41  72  99 134 185 244 296 364 444
#     4  11  22  38  65 102 143 184 237 293 353 437
#     4  11  23  40  66 104 137 188 236 305 368 455
#     4  10  21  37  58  89 139 185 229 280 360 432
#
# _framework density 22.786484000000002
#
# number of rings (size 3 to 8) (size 9 to 14) (size 15 to 20)
#    0.000    1.067    1.333    5.200    4.667    3.200 
#    0.000    3.333    1.467    0.000    0.000    0.000 
#    0.000    0.000    0.000    0.000    0.000    0.000 
#
# Total GULP energy -334876.654593 kJ/mol
# GULP energy per Si atom -5581.277577 kJ/mol
# Density = 2.273462 g / cm^3
# Si number density = 22.786484 Si / 1000 Ang^3
#
#
#
# Elastic Constant Matrix: (Units=GPa)
#
#
# Indices 1 2 3 4 5 6 
#
# 1 73.3714 19.0794 34.0872 0.0000 0.0000 0.0000
# 2 19.0794 73.0773 41.9713 0.0000 0.0000 0.0000
# 3 34.0872 41.9713 113.0286 0.0000 0.0000 0.0000
# 4 0.0000 0.0000 0.0000 49.4004 0.0000 0.0000
# 5 0.0000 0.0000 0.0000 0.0000 41.6528 0.0000
# 6 0.0000 0.0000 0.0000 0.0000 0.0000 26.6651
#
#
#
# Elastic Compliance Matrix: (Units=1/GPa)
#
#
# Indices 1 2 3 4 5 6 
#
# 1 0.016032 -0.001791 -0.004170 0.000000 0.000000 0.000000
# 2 -0.001791 0.017594 -0.005993 0.000000 0.000000 0.000000
# 3 -0.004170 -0.005993 0.012330 0.000000 0.000000 0.000000
# 4 0.000000 0.000000 0.000000 0.020243 0.000000 0.000000
# 5 0.000000 0.000000 0.000000 0.000000 0.024008 0.000000
# 6 0.000000 0.000000 0.000000 0.000000 0.000000 0.037502
#
#
# Mechanical properties :
#
#
# Convention : Reuss Voigt Hill
#
# Bulk Modulus (GPa) = 45.35436 49.97256 47.66346
# Shear Modulus (GPa) = 31.45312 34.49962 32.97637
#
# Velocity S-wave (km/s) = 3.71933 3.89529 3.80832
# Velocity P-wave (km/s) = 6.19611 6.49688 6.34827
#
# Compressibility (1/GPa) = 0.02204860
#
# Stress axis : x y z
#
# Youngs Moduli (GPa) = 62.37414 56.83838 81.10060
#
# Poissons Ratio (x) = 0.10178 0.33819
# Poissons Ratio (y) = 0.11170 0.48604
# Poissons Ratio (z) = 0.26010 0.34064
#
# Static dielectric constant tensor:
#      x y z
#    x 2.095740 0.000000 0.000000 
#    y 0.000000 1.843640 0.000000 
#    z 0.000000 0.000000 2.012770 
# 
# From -- ./inp_files/18783.got.cif
#   From: 2010.05.17/outbox.cif.g08.bks.cpg/sg60_10_cif.got.tgz:18783.got - 2010.06.03 14:59:27.
