data_PCOD9455010
_publ_section_title
;
Structure prediction by ZEFSAII (Michael W. Deem and Ramdas Pophale) SiO2 
 PCOD9455010
Probable space group: P B C N
;
_chemical_formula_sum "Si O2"
_cell_formula_units_Z 48
_cell_length_a 7.840778
_cell_length_b 14.365910
_cell_length_c 21.684473
_cell_angle_alpha 90.000000
_cell_angle_beta 90.000000
_cell_angle_gamma 90.000000
_cell_volume 2442.537110
_symmetry_space_group_name_H-M "P B C N"
_symmetry_group_IT_number 60
_symmetry_cell_setting 'orthorhombic'
loop_
_space_group_symop_operation_xyz
x,y,z
1/2-x,1/2-y,1/2+z
1/2+x,1/2-y,-z
-x,y,1/2-z
-x,-y,-z
1/2+x,1/2+y,1/2-z
1/2-x,1/2+y,z
x,-y,1/2+z
loop_
_atom_site_type_symbol
_atom_site_label
_atom_site_fract_x
_atom_site_fract_y
_atom_site_fract_z
Si Si1 0.161785 0.566012 0.993243
Si Si2 0.571227 0.764531 0.682305
Si Si3 0.157084 0.114035 0.524045
Si Si4 0.750725 0.781738 0.907725
Si Si5 0.891075 0.866472 0.619718
Si Si6 0.859043 0.915745 0.117650
O O1 0.303960 0.494910 0.019772
O O2 0.181898 0.655760 0.035309
O O3 0.184374 0.585603 0.920821
O O4 0.000000 0.500000 0.000000
O O5 0.500000 0.784340 0.750000
O O6 0.407513 0.781118 0.638854
O O7 0.737041 0.822192 0.659336
O O8 0.624868 0.656281 0.672898
O O9 0.283906 0.180090 0.562381
O O10 0.151998 0.145320 0.453191
O O11 0.985413 0.121488 0.563649
O O12 0.921325 0.821148 0.875965
O O13 0.899144 0.977320 0.632913
#
# Coordination Sequence:
#
# PCOD9455010 Si02
#       6
#     8   8   8   8   8   8
#     4  11  20  32  60  99 133 155 202 258 328 407
#     4  11  27  46  60  90 128 170 235 275 303 381
#     4  10  20  34  59 100 131 154 199 254 329 411
#     4  11  22  38  64  94 127 171 209 261 331 389
#     4  11  21  41  69  92 129 173 208 264 339 393
#     4  10  20  42  63  92 131 168 200 268 340 387
#
# _framework density 19.651696999999999
#
# number of rings (size 3 to 8) (size 9 to 14) (size 15 to 20)
#    0.000    1.333    3.333    4.000    7.000    0.667 
#    3.000    0.000    0.000    0.000    0.000    0.000 
#    0.000    0.000    0.000    0.000    0.000    0.000 
#
# Total GULP energy -267632.367726 kJ/mol
# GULP energy per Si atom -5575.674328 kJ/mol
# Density = 1.960697 g / cm^3
# Si number density = 19.651697 Si / 1000 Ang^3
#
#
#
# Elastic Constant Matrix: (Units=GPa)
#
#
# Indices 1 2 3 4 5 6 
#
# 1 90.0822 36.6398 27.7709 0.0000 0.0000 0.0000
# 2 36.6398 109.6267 47.0107 0.0000 0.0000 0.0000
# 3 27.7709 47.0107 42.1920 0.0000 0.0000 0.0000
# 4 0.0000 0.0000 0.0000 15.5254 0.0000 0.0000
# 5 0.0000 0.0000 0.0000 0.0000 26.9219 0.0000
# 6 0.0000 0.0000 0.0000 0.0000 0.0000 27.4615
#
#
#
# Elastic Compliance Matrix: (Units=1/GPa)
#
#
# Indices 1 2 3 4 5 6 
#
# 1 0.014038 -0.001397 -0.007683 0.000000 0.000000 0.000000
# 2 -0.001397 0.017607 -0.018699 0.000000 0.000000 0.000000
# 3 -0.007683 -0.018699 0.049592 0.000000 0.000000 0.000000
# 4 0.000000 0.000000 0.000000 0.064411 0.000000 0.000000
# 5 0.000000 0.000000 0.000000 0.000000 0.037144 0.000000
# 6 0.000000 0.000000 0.000000 0.000000 0.000000 0.036415
#
#
# Mechanical properties :
#
#
# Convention : Reuss Voigt Hill
#
# Bulk Modulus (GPa) = 38.94099 51.63818 45.28958
# Shear Modulus (GPa) = 17.64761 22.68039 20.16400
#
# Velocity S-wave (km/s) = 2.99995 3.40092 3.20671
# Velocity P-wave (km/s) = 5.64431 6.46184 6.06686
#
# Compressibility (1/GPa) = 0.02567988
#
# Stress axis : x y z
#
# Youngs Moduli (GPa) = 71.23633 56.79493 20.16441
#
# Poissons Ratio (x) = 0.07934 0.15493
# Poissons Ratio (y) = 0.09952 0.37705
# Poissons Ratio (z) = 0.54732 1.06198
#
# Static dielectric constant tensor:
#      x y z
#    x 2.033760 0.000000 0.000000 
#    y 0.000000 1.715190 0.000000 
#    z 0.000000 0.000000 1.683560 
# 
# From -- ./inp_files/22070.got.cif
#   From: 2010.05.17/outbox.cif.g08.bks.cpg/sg60_12_cif.got.tgz:22070.got - 2010.06.03 14:59:27.
