data_PCOD9455826
_publ_section_title
;
Structure prediction by ZEFSAII (Michael W. Deem and Ramdas Pophale) SiO2 
 PCOD9455826
Probable space group: P B C N
;
_chemical_formula_sum "Si O2"
_cell_formula_units_Z 56
_cell_length_a 12.767516
_cell_length_b 13.714185
_cell_length_c 14.232401
_cell_angle_alpha 90.000000
_cell_angle_beta 90.000000
_cell_angle_gamma 90.000000
_cell_volume 2492.037573
_symmetry_space_group_name_H-M "P B C N"
_symmetry_group_IT_number 60
_symmetry_cell_setting 'orthorhombic'
loop_
_space_group_symop_operation_xyz
x,y,z
1/2-x,1/2-y,1/2+z
1/2+x,1/2-y,-z
-x,y,1/2-z
-x,-y,-z
1/2+x,1/2+y,1/2-z
1/2-x,1/2+y,z
x,-y,1/2+z
loop_
_atom_site_type_symbol
_atom_site_label
_atom_site_fract_x
_atom_site_fract_y
_atom_site_fract_z
Si Si1 0.101477 0.311624 0.808677
Si Si2 0.888258 0.336250 0.275441
Si Si3 0.604755 0.382532 0.962512
Si Si4 0.835857 0.688803 0.994680
Si Si5 0.166823 0.122573 0.254329
Si Si6 0.656613 0.594789 0.746317
Si Si7 0.885963 0.101813 0.968773
O O1 0.094020 0.341913 0.917590
O O2 0.209314 0.357965 0.768586
O O3 0.112849 0.193082 0.801230
O O4 0.000000 0.340130 0.750000
O O5 0.878932 0.326055 0.389293
O O6 0.882858 0.229146 0.224256
O O7 0.782989 0.393513 0.247533
O O8 0.000000 0.380981 0.250000
O O9 0.634487 0.387954 0.854198
O O10 0.612083 0.490161 0.000217
O O11 0.682093 0.304326 0.005009
O O12 0.487369 0.347982 0.986813
O O13 0.722888 0.642546 0.003758
O O14 0.132829 0.014950 0.291170
O O15 0.617161 0.604504 0.855049
#
# Coordination Sequence:
#
# PCOD9455826 Si02
#       7
#     8   8   8   8   8   8   8
#     4  11  23  37  54  81 120 162 196 233 288 349
#     4   9  19  37  61  88 113 147 196 246 296 343
#     4   9  18  35  62  88 113 150 191 242 297 345
#     4  10  21  35  57  87 118 150 194 246 289 341
#     4   9  20  37  58  85 115 150 193 241 291 348
#     4   9  19  37  59  84 117 152 190 240 293 351
#     4   9  18  36  61  88 115 146 196 248 292 343
#
# _framework density 22.471571000000001
#
# number of rings (size 3 to 8) (size 9 to 14) (size 15 to 20)
#    0.000    2.571    0.000    1.714    0.000    6.857 
#    0.000    1.429    0.000   18.000    0.000    0.000 
#    0.000    0.000    0.000    0.000    0.000    0.000 
#
# Total GULP energy -312372.481309 kJ/mol
# GULP energy per Si atom -5578.080023 kJ/mol
# Density = 2.242043 g / cm^3
# Si number density = 22.471571 Si / 1000 Ang^3
#
#
#
# Elastic Constant Matrix: (Units=GPa)
#
#
# Indices 1 2 3 4 5 6 
#
# 1 113.9873 16.6065 32.6603 0.0000 0.0000 0.0000
# 2 16.6065 58.5456 6.8465 0.0000 0.0000 0.0000
# 3 32.6603 6.8465 78.0108 0.0000 0.0000 0.0000
# 4 0.0000 0.0000 0.0000 7.6450 0.0000 0.0000
# 5 0.0000 0.0000 0.0000 0.0000 32.3465 0.0000
# 6 0.0000 0.0000 0.0000 0.0000 0.0000 13.2833
#
#
#
# Elastic Compliance Matrix: (Units=1/GPa)
#
#
# Indices 1 2 3 4 5 6 
#
# 1 0.010303 -0.002443 -0.004099 0.000000 0.000000 0.000000
# 2 -0.002443 0.017837 -0.000543 0.000000 0.000000 0.000000
# 3 -0.004099 -0.000543 0.014583 0.000000 0.000000 0.000000
# 4 0.000000 0.000000 0.000000 0.130805 0.000000 0.000000
# 5 0.000000 0.000000 0.000000 0.000000 0.030915 0.000000
# 6 0.000000 0.000000 0.000000 0.000000 0.000000 0.075282
#
#
# Mechanical properties :
#
#
# Convention : Reuss Voigt Hill
#
# Bulk Modulus (GPa) = 35.02245 40.30780 37.66512
# Shear Modulus (GPa) = 16.47919 23.61699 20.04809
#
# Velocity S-wave (km/s) = 2.71095 3.24539 2.99013
# Velocity P-wave (km/s) = 5.04163 5.65858 5.35899
#
# Compressibility (1/GPa) = 0.02855312
#
# Stress axis : x y z
#
# Youngs Moduli (GPa) = 97.05549 56.06271 68.57510
#
# Poissons Ratio (x) = 0.13697 0.28110
# Poissons Ratio (y) = 0.23712 0.03721
# Poissons Ratio (z) = 0.39785 0.03042
#
# Static dielectric constant tensor:
#      x y z
#    x 1.828210 0.000000 0.000000 
#    y 0.000000 1.871640 0.000000 
#    z 0.000000 0.000000 1.869580 
# 
# From -- ./inp_files/16159.got.cif
#   From: 2010.05.17/outbox.cif.g08.bks.cpg/sg60_9_cif.got.tgz:16159.got - 2010.06.03 14:59:27.
