data_PCOD9455961
_publ_section_title
;
Structure prediction by ZEFSAII (Michael W. Deem and Ramdas Pophale) SiO2 
 PCOD9455961
Probable space group: P B C N
;
_chemical_formula_sum "Si O2"
_cell_formula_units_Z 64
_cell_length_a 21.753946
_cell_length_b 9.596380
_cell_length_c 14.479401
_cell_angle_alpha 90.000000
_cell_angle_beta 90.000000
_cell_angle_gamma 90.000000
_cell_volume 3022.707189
_symmetry_space_group_name_H-M "P B C N"
_symmetry_group_IT_number 60
_symmetry_cell_setting 'orthorhombic'
loop_
_space_group_symop_operation_xyz
x,y,z
1/2-x,1/2-y,1/2+z
1/2+x,1/2-y,-z
-x,y,1/2-z
-x,-y,-z
1/2+x,1/2+y,1/2-z
1/2-x,1/2+y,z
x,-y,1/2+z
loop_
_atom_site_type_symbol
_atom_site_label
_atom_site_fract_x
_atom_site_fract_y
_atom_site_fract_z
Si Si1 0.881837 0.941998 0.742822
Si Si2 0.038620 0.118836 0.885733
Si Si3 0.323302 0.932764 0.074165
Si Si4 0.097107 0.965462 0.056767
Si Si5 0.149705 0.363424 0.286426
Si Si6 0.386854 0.127220 0.396204
Si Si7 0.296198 0.746079 0.580735
Si Si8 0.709751 0.324760 0.202403
O O1 0.879815 0.948777 0.853925
O O2 0.883896 0.784215 0.710991
O O3 0.937991 0.031323 0.702024
O O4 0.821634 0.022887 0.705688
O O5 0.054358 0.279983 0.872977
O O6 0.081968 0.060234 0.968842
O O7 0.968635 0.096955 0.913392
O O8 0.342189 0.912219 0.180379
O O9 0.267029 0.828367 0.053536
O O10 0.301213 0.091430 0.058373
O O11 0.377901 0.898937 0.004250
O O12 0.147024 0.844291 0.041262
O O13 0.116515 0.481955 0.343809
O O14 0.219225 0.338554 0.322417
O O15 0.329643 0.221277 0.360165
O O16 0.297256 0.731719 0.692672
#
# Coordination Sequence:
#
# PCOD9455961 Si02
#       8
#     8   8   8   8   8   8   8   8
#     4  10  21  37  65  87 119 162 207 248 299 370
#     4  10  23  42  65  91 114 162 213 253 297 367
#     4  11  25  38  61  94 128 163 202 245 321 372
#     4  10  22  42  69  84 120 161 212 250 303 358
#     4  11  22  38  59  91 129 158 198 258 313 367
#     4  11  23  38  61  92 129 159 204 255 307 364
#     4  10  23  40  62  90 123 163 199 253 302 373
#     4   9  20  37  57  88 124 165 197 244 309 369
#
# _framework density 21.173074
#
# number of rings (size 3 to 8) (size 9 to 14) (size 15 to 20)
#    0.000    1.750    1.250    1.875   14.000    1.000 
#    0.000    0.625    5.500    0.000    0.000    0.000 
#    0.000    0.000    0.000    0.000    0.000    0.000 
#
# Total GULP energy -357997.789553 kJ/mol
# GULP energy per Si atom -5593.715462 kJ/mol
# Density = 2.112488 g / cm^3
# Si number density = 21.173074 Si / 1000 Ang^3
#
#
#
# Elastic Constant Matrix: (Units=GPa)
#
#
# Indices 1 2 3 4 5 6 
#
# 1 28.3316 -2.4374 -12.4252 0.0000 0.0000 0.0000
# 2 -2.4374 112.6901 -1.8900 0.0000 0.0000 0.0000
# 3 -12.4252 -1.8900 46.6167 0.0000 0.0000 0.0000
# 4 0.0000 0.0000 0.0000 22.4780 0.0000 0.0000
# 5 0.0000 0.0000 0.0000 0.0000 17.3609 0.0000
# 6 0.0000 0.0000 0.0000 0.0000 0.0000 -2.2501
#
#
#
# Elastic Compliance Matrix: (Units=1/GPa)
#
#
# Indices 1 2 3 4 5 6 
#
# 1 0.040091 0.001047 0.010728 0.000000 0.000000 0.000000
# 2 0.001047 0.008907 0.000640 0.000000 0.000000 0.000000
# 3 0.010728 0.000640 0.024337 0.000000 0.000000 0.000000
# 4 0.000000 0.000000 0.000000 0.044488 0.000000 0.000000
# 5 0.000000 0.000000 0.000000 0.000000 0.057601 0.000000
# 6 0.000000 0.000000 0.000000 0.000000 0.000000 -0.444419
#
#
# Mechanical properties :
#
#
# Convention : Reuss Voigt Hill
#
# Bulk Modulus (GPa) = 10.18670 17.12591 13.65631
# Shear Modulus (GPa) = -19.14948 21.14383 0.99718
#
# Velocity S-wave (km/s) = -3.01063 3.16352 0.68701
# Velocity P-wave (km/s) = 2.69510 4.63141 2.66330
#
# Compressibility (1/GPa) = 0.09816719
#
# Stress axis : x y z
#
# Youngs Moduli (GPa) = 24.94300 112.26776 41.08962
#
# Poissons Ratio (x) = -0.11756 -0.44083
# Poissons Ratio (y) = -0.02612 -0.02631
# Poissons Ratio (z) = -0.26760 -0.07188
#
# Static dielectric constant tensor:
#      x y z
#    x 1.727720 0.000000 0.000000 
#    y 0.000000 1.737510 0.000000 
#    z 0.000000 0.000000 1.787310 
# 
# From -- ./inp_files/17929.got.cif
#   From: 2010.05.17/outbox.cif.g08.bks.cpg/sg60_9_cif.got.tgz:17929.got - 2010.06.03 14:59:27.
