data_PCOD9455874
_publ_section_title
;
Structure prediction by ZEFSAII (Michael W. Deem and Ramdas Pophale) SiO2 
 PCOD9455874
Probable space group: P B C N
;
_chemical_formula_sum "Si O2"
_cell_formula_units_Z 40
_cell_length_a 8.146041
_cell_length_b 15.187347
_cell_length_c 14.502943
_cell_angle_alpha 90.000000
_cell_angle_beta 90.000000
_cell_angle_gamma 90.000000
_cell_volume 1794.256993
_symmetry_space_group_name_H-M "P B C N"
_symmetry_group_IT_number 60
_symmetry_cell_setting 'orthorhombic'
loop_
_space_group_symop_operation_xyz
x,y,z
1/2-x,1/2-y,1/2+z
1/2+x,1/2-y,-z
-x,y,1/2-z
-x,-y,-z
1/2+x,1/2+y,1/2-z
1/2-x,1/2+y,z
x,-y,1/2+z
loop_
_atom_site_type_symbol
_atom_site_label
_atom_site_fract_x
_atom_site_fract_y
_atom_site_fract_z
Si Si1 0.331108 0.055934 0.197918
Si Si2 0.977684 0.568230 0.583832
Si Si3 0.946335 0.129165 0.958690
Si Si4 0.365962 0.512823 0.362530
Si Si5 0.206086 0.307747 0.531439
O O1 0.500000 0.083209 0.250000
O O2 0.175722 0.058057 0.265775
O O3 0.301696 0.124544 0.116155
O O4 0.379084 0.960389 0.153678
O O5 0.804542 0.540585 0.627713
O O6 0.939638 0.662324 0.539209
O O7 0.000000 0.500000 0.500000
O O8 0.824426 0.208431 0.937229
O O9 0.988178 0.056690 0.880687
O O10 0.121532 0.173305 0.982591
O O11 0.883204 0.078976 0.050736
#
# Coordination Sequence:
#
# PCOD9455874 Si02
#       5
#     8   8   8   8   8
#     4   9  18  35  64  87 122 157 204 259 312 366
#     4   8  16  32  59  89 113 158 200 242 311 375
#     4  10  22  37  63  88 123 166 210 250 310 382
#     4   9  19  38  61  85 123 164 204 254 310 380
#     4  10  21  36  60  89 123 161 207 257 309 368
#
# _framework density 22.293351000000001
#
# number of rings (size 3 to 8) (size 9 to 14) (size 15 to 20)
#    0.000    2.800    0.000    0.000    8.400    0.800 
#    0.000    2.000   13.200    0.000    0.000    0.000 
#    0.000    0.000    0.000    0.000    0.000    0.000 
#
# Total GULP energy -223099.938740 kJ/mol
# GULP energy per Si atom -5577.498468 kJ/mol
# Density = 2.224261 g / cm^3
# Si number density = 22.293351 Si / 1000 Ang^3
#
#
#
# Elastic Constant Matrix: (Units=GPa)
#
#
# Indices 1 2 3 4 5 6 
#
# 1 122.7673 19.7967 36.8975 0.0000 0.0000 0.0000
# 2 19.7967 92.0916 18.6460 0.0000 0.0000 0.0000
# 3 36.8975 18.6460 71.2472 0.0000 0.0000 0.0000
# 4 0.0000 0.0000 0.0000 11.2824 0.0000 0.0000
# 5 0.0000 0.0000 0.0000 0.0000 44.6974 0.0000
# 6 0.0000 0.0000 0.0000 0.0000 0.0000 23.9984
#
#
#
# Elastic Compliance Matrix: (Units=1/GPa)
#
#
# Indices 1 2 3 4 5 6 
#
# 1 0.009758 -0.001135 -0.004757 0.000000 0.000000 0.000000
# 2 -0.001135 0.011598 -0.002448 0.000000 0.000000 0.000000
# 3 -0.004757 -0.002448 0.017140 0.000000 0.000000 0.000000
# 4 0.000000 0.000000 0.000000 0.088634 0.000000 0.000000
# 5 0.000000 0.000000 0.000000 0.000000 0.022373 0.000000
# 6 0.000000 0.000000 0.000000 0.000000 0.000000 0.041669
#
#
# Mechanical properties :
#
#
# Convention : Reuss Voigt Hill
#
# Bulk Modulus (GPa) = 45.83371 48.53184 47.18277
# Shear Modulus (GPa) = 23.24258 30.04669 26.64464
#
# Velocity S-wave (km/s) = 3.23240 3.67520 3.46089
# Velocity P-wave (km/s) = 5.87667 6.31082 6.09761
#
# Compressibility (1/GPa) = 0.02181800
#
# Stress axis : x y z
#
# Youngs Moduli (GPa) = 102.47971 86.21984 58.34456
#
# Poissons Ratio (x) = 0.09782 0.27752
# Poissons Ratio (y) = 0.11627 0.14281
# Poissons Ratio (z) = 0.48745 0.21105
#
# Static dielectric constant tensor:
#      x y z
#    x 1.905980 0.000000 0.000000 
#    y 0.000000 1.805620 0.000000 
#    z 0.000000 0.000000 1.941200 
# 
# From -- ./inp_files/14631.got.cif
#   From: 2010.05.17/outbox.cif.g08.bks.cpg/sg60_8_cif.got.tgz:14631.got - 2010.06.03 14:59:27.
