data_PCOD9455049
_publ_section_title
;
Structure prediction by ZEFSAII (Michael W. Deem and Ramdas Pophale) SiO2 
 PCOD9455049
Probable space group: P B C N
;
_chemical_formula_sum "Si O2"
_cell_formula_units_Z 64
_cell_length_a 5.277345
_cell_length_b 18.560856
_cell_length_c 27.179473
_cell_angle_alpha 90.000000
_cell_angle_beta 90.000000
_cell_angle_gamma 90.000000
_cell_volume 2662.284843
_symmetry_space_group_name_H-M "P B C N"
_symmetry_group_IT_number 60
_symmetry_cell_setting 'orthorhombic'
loop_
_space_group_symop_operation_xyz
x,y,z
1/2-x,1/2-y,1/2+z
1/2+x,1/2-y,-z
-x,y,1/2-z
-x,-y,-z
1/2+x,1/2+y,1/2-z
1/2-x,1/2+y,z
x,-y,1/2+z
loop_
_atom_site_type_symbol
_atom_site_label
_atom_site_fract_x
_atom_site_fract_y
_atom_site_fract_z
Si Si1 0.788175 0.460810 0.443255
Si Si2 0.015389 0.379042 0.699046
Si Si3 0.239085 0.319896 0.281635
Si Si4 0.886281 0.734473 0.120392
Si Si5 0.621514 0.553837 0.365915
Si Si6 0.598780 0.693601 0.430967
Si Si7 0.279540 0.596360 0.981176
Si Si8 0.801053 0.021860 0.705078
O O1 0.833277 0.506246 0.393558
O O2 0.757139 0.524909 0.483933
O O3 0.522414 0.418951 0.447423
O O4 0.013973 0.405811 0.453163
O O5 0.899084 0.339478 0.652347
O O6 0.870080 0.452171 0.708764
O O7 0.000000 0.336030 0.750000
O O8 0.293269 0.401362 0.681825
O O9 0.500000 0.320426 0.250000
O O10 0.310480 0.287335 0.334978
O O11 0.163239 0.402362 0.293149
O O12 0.000000 0.288162 0.250000
O O13 0.664330 0.733442 0.080063
O O14 0.163590 0.734300 0.094785
O O15 0.551394 0.615672 0.404206
O O16 0.436264 0.492968 0.346626
O O17 0.671191 0.666440 0.485282
O O18 0.000000 0.022403 0.750000
#
# Coordination Sequence:
#
# PCOD9455049 Si02
#       8
#     8   8   8   8   8   8   8   8
#     4   9  18  29  49  76 114 149 175 224 278 345
#     4  11  21  34  55  81 114 152 186 240 289 340
#     4  11  25  42  58  81 116 156 201 243 284 344
#     4  11  22  37  58  84 114 148 195 236 289 338
#     4  10  21  33  52  84 116 147 193 235 284 340
#     4  10  20  35  57  85 115 147 184 241 286 350
#     4   9  17  31  49  77 113 147 177 216 292 342
#     4  11  22  37  57  78 114 155 195 236 288 337
#
# _framework density 24.039501000000001
#
# number of rings (size 3 to 8) (size 9 to 14) (size 15 to 20)
#    0.000    1.750    2.500    2.250    3.500    4.500 
#    0.000    0.000    0.000    0.000    0.000    3.500 
#    0.000    0.000    0.000    0.000    0.000    0.000 
#
# Total GULP energy -357049.907567 kJ/mol
# GULP energy per Si atom -5578.904806 kJ/mol
# Density = 2.398479 g / cm^3
# Si number density = 24.039501 Si / 1000 Ang^3
#
#
#
# Elastic Constant Matrix: (Units=GPa)
#
#
# Indices 1 2 3 4 5 6 
#
# 1 122.0842 8.8513 23.5831 0.0000 0.0000 0.0000
# 2 8.8513 65.8375 11.6940 0.0000 0.0000 0.0000
# 3 23.5831 11.6940 63.3718 0.0000 0.0000 0.0000
# 4 0.0000 0.0000 0.0000 24.3503 0.0000 0.0000
# 5 0.0000 0.0000 0.0000 0.0000 30.1700 0.0000
# 6 0.0000 0.0000 0.0000 0.0000 0.0000 12.9316
#
#
#
# Elastic Compliance Matrix: (Units=1/GPa)
#
#
# Indices 1 2 3 4 5 6 
#
# 1 0.008850 -0.000625 -0.003178 0.000000 0.000000 0.000000
# 2 -0.000625 0.015748 -0.002673 0.000000 0.000000 0.000000
# 3 -0.003178 -0.002673 0.017456 0.000000 0.000000 0.000000
# 4 0.000000 0.000000 0.000000 0.041067 0.000000 0.000000
# 5 0.000000 0.000000 0.000000 0.000000 0.033145 0.000000
# 6 0.000000 0.000000 0.000000 0.000000 0.000000 0.077330
#
#
# Mechanical properties :
#
#
# Convention : Reuss Voigt Hill
#
# Bulk Modulus (GPa) = 34.36360 37.72781 36.04571
# Shear Modulus (GPa) = 23.12136 27.30140 25.21138
#
# Velocity S-wave (km/s) = 3.10467 3.37365 3.24195
# Velocity P-wave (km/s) = 5.21321 5.55910 5.38893
#
# Compressibility (1/GPa) = 0.02910056
#
# Stress axis : x y z
#
# Youngs Moduli (GPa) = 112.99012 63.50095 57.28724
#
# Poissons Ratio (x) = 0.03971 0.18207
# Poissons Ratio (y) = 0.07066 0.15314
# Poissons Ratio (z) = 0.35910 0.16975
#
# Static dielectric constant tensor:
#      x y z
#    x 2.013000 0.000000 0.000000 
#    y 0.000000 1.927690 0.000000 
#    z 0.000000 0.000000 2.054840 
# 
# From -- ./inp_files/25057.got.cif
#   From: 2010.05.17/outbox.cif.g08.bks.cpg/sg60_13_cif.got.tgz:25057.got - 2010.06.03 14:59:27.
