data_PCOD9455328
_publ_section_title
;
Structure prediction by ZEFSAII (Michael W. Deem and Ramdas Pophale) SiO2 
 PCOD9455328
Probable space group: P B C N
;
_chemical_formula_sum "Si O2"
_cell_formula_units_Z 40
_cell_length_a 6.556962
_cell_length_b 16.874751
_cell_length_c 18.375014
_cell_angle_alpha 90.000000
_cell_angle_beta 90.000000
_cell_angle_gamma 90.000000
_cell_volume 2033.142031
_symmetry_space_group_name_H-M "P B C N"
_symmetry_group_IT_number 60
_symmetry_cell_setting 'orthorhombic'
loop_
_space_group_symop_operation_xyz
x,y,z
1/2-x,1/2-y,1/2+z
1/2+x,1/2-y,-z
-x,y,1/2-z
-x,-y,-z
1/2+x,1/2+y,1/2-z
1/2-x,1/2+y,z
x,-y,1/2+z
loop_
_atom_site_type_symbol
_atom_site_label
_atom_site_fract_x
_atom_site_fract_y
_atom_site_fract_z
Si Si1 0.863807 0.334963 0.429353
Si Si2 0.624499 0.724884 0.173901
Si Si3 0.389344 0.384841 0.946271
Si Si4 0.248955 0.436524 0.458318
Si Si5 0.027062 0.146929 0.829919
O O1 0.735182 0.322395 0.503103
O O2 0.690704 0.348434 0.368805
O O3 0.998121 0.268290 0.390617
O O4 0.020403 0.405049 0.450086
O O5 0.500000 0.727809 0.250000
O O6 0.639121 0.638339 0.137720
O O7 0.839806 0.771783 0.178951
O O8 0.291163 0.470509 0.962794
O O9 0.620703 0.393879 0.977074
O O10 0.347275 0.408620 0.382856
O O11 0.000000 0.113521 0.750000
#
# Coordination Sequence:
#
# PCOD9455328 Si02
#       5
#     8   8   8   8   8
#     4  10  21  37  63  85 119 161 201 247 299 368
#     4  11  23  37  59  90 125 158 201 251 310 361
#     4  10  22  38  61  89 121 150 202 258 305 367
#     4   9  21  39  60  89 114 158 205 250 308 368
#     4  10  20  38  59  83 120 162 204 244 298 369
#
# _framework density 19.673981999999999
#
# number of rings (size 3 to 8) (size 9 to 14) (size 15 to 20)
#    0.000    2.000    2.000    0.600    8.400    0.800 
#    0.000    0.000    4.400    0.000    0.000    0.000 
#    0.000    0.000    0.000    0.000    0.000    0.000 
#
# Total GULP energy -222706.476458 kJ/mol
# GULP energy per Si atom -5567.661911 kJ/mol
# Density = 1.962920 g / cm^3
# Si number density = 19.673982 Si / 1000 Ang^3
#
#
#
# Elastic Constant Matrix: (Units=GPa)
#
#
# Indices 1 2 3 4 5 6 
#
# 1 119.0414 14.1509 25.7366 0.0000 0.0000 0.0000
# 2 14.1509 25.9368 8.9858 0.0000 0.0000 0.0000
# 3 25.7366 8.9858 88.1788 0.0000 0.0000 0.0000
# 4 0.0000 0.0000 0.0000 13.9425 0.0000 0.0000
# 5 0.0000 0.0000 0.0000 0.0000 21.9147 0.0000
# 6 0.0000 0.0000 0.0000 0.0000 0.0000 7.4743
#
#
#
# Elastic Compliance Matrix: (Units=1/GPa)
#
#
# Indices 1 2 3 4 5 6 
#
# 1 0.009415 -0.004338 -0.002306 0.000000 0.000000 0.000000
# 2 -0.004338 0.041965 -0.003010 0.000000 0.000000 0.000000
# 3 -0.002306 -0.003010 0.012320 0.000000 0.000000 0.000000
# 4 0.000000 0.000000 0.000000 0.071723 0.000000 0.000000
# 5 0.000000 0.000000 0.000000 0.000000 0.045632 0.000000
# 6 0.000000 0.000000 0.000000 0.000000 0.000000 0.133792
#
#
# Mechanical properties :
#
#
# Convention : Reuss Voigt Hill
#
# Bulk Modulus (GPa) = 22.52657 36.76707 29.64682
# Shear Modulus (GPa) = 14.32864 20.95188 17.64026
#
# Velocity S-wave (km/s) = 2.70164 3.26690 2.99762
# Velocity P-wave (km/s) = 4.60506 5.74099 5.20411
#
# Compressibility (1/GPa) = 0.04439203
#
# Stress axis : x y z
#
# Youngs Moduli (GPa) = 106.21819 23.82953 81.16652
#
# Poissons Ratio (x) = 0.10336 0.18715
# Poissons Ratio (y) = 0.46074 0.24434
# Poissons Ratio (z) = 0.24492 0.07174
#
# Static dielectric constant tensor:
#      x y z
#    x 1.805170 0.000000 0.000000 
#    y 0.000000 1.772720 0.000000 
#    z 0.000000 0.000000 1.758020 
# 
# From -- ./inp_files/18507.got.cif
#   From: 2010.05.17/outbox.cif.g08.bks.cpg/sg60_10_cif.got.tgz:18507.got - 2010.06.03 14:59:27.
