data_PCOD9455753
_publ_section_title
;
Structure prediction by ZEFSAII (Michael W. Deem and Ramdas Pophale) SiO2 
 PCOD9455753
Probable space group: P B C N
;
_chemical_formula_sum "Si O2"
_cell_formula_units_Z 28
_cell_length_a 13.563862
_cell_length_b 5.408771
_cell_length_c 15.331774
_cell_angle_alpha 90.000000
_cell_angle_beta 90.000000
_cell_angle_gamma 90.000000
_cell_volume 1124.797561
_symmetry_space_group_name_H-M "P B C N"
_symmetry_group_IT_number 60
_symmetry_cell_setting 'orthorhombic'
loop_
_space_group_symop_operation_xyz
x,y,z
1/2-x,1/2-y,1/2+z
1/2+x,1/2-y,-z
-x,y,1/2-z
-x,-y,-z
1/2+x,1/2+y,1/2-z
1/2-x,1/2+y,z
x,-y,1/2+z
loop_
_atom_site_type_symbol
_atom_site_label
_atom_site_fract_x
_atom_site_fract_y
_atom_site_fract_z
Si Si1 0.693050 0.016840 0.817563
Si Si2 0.619434 0.992415 0.514917
Si Si3 0.000000 0.235001 0.250000
Si Si4 0.920947 0.007601 0.078842
O O1 0.768376 0.241953 0.797600
O O2 0.592704 0.091869 0.770123
O O3 0.670240 0.029681 0.921302
O O4 0.644319 0.252275 0.559024
O O5 0.500000 0.000000 0.500000
O O6 0.633751 0.751749 0.573886
O O7 0.022191 0.063225 0.332614
O O8 0.000000 0.000000 0.000000
#
# Coordination Sequence:
#
# PCOD9455753 Si02
#       4
#     8   8   4   8
#     4  12  28  47  74 115 153 203 260 324 389 455
#     4  10  20  44  71 100 140 188 251 305 389 445
#     4  12  26  48  82 102 172 198 260 338 380 470
#     4  10  21  40  75 108 130 205 248 299 395 447
#
# _framework density 24.893370999999998
#
# number of rings (size 3 to 8) (size 9 to 14) (size 15 to 20)
#    0.000    1.143    5.714    1.714    4.000    4.571 
#    0.000    8.571    0.000    0.000    0.000    0.000 
#    0.000    0.000    0.000    0.000    0.000    0.000 
#
# Total GULP energy -156915.532291 kJ/mol
# GULP energy per Si atom -5604.126153 kJ/mol
# Density = 2.483671 g / cm^3
# Si number density = 24.893371 Si / 1000 Ang^3
#
#
#
# Elastic Constant Matrix: (Units=GPa)
#
#
# Indices 1 2 3 4 5 6 
#
# 1 102.7957 16.7496 25.5769 0.0000 0.0000 0.0000
# 2 16.7496 205.1925 26.8730 0.0000 0.0000 0.0000
# 3 25.5769 26.8730 140.7414 0.0000 0.0000 0.0000
# 4 0.0000 0.0000 0.0000 29.2815 0.0000 0.0000
# 5 0.0000 0.0000 0.0000 0.0000 36.6800 0.0000
# 6 0.0000 0.0000 0.0000 0.0000 0.0000 4.4348
#
#
#
# Elastic Compliance Matrix: (Units=1/GPa)
#
#
# Indices 1 2 3 4 5 6 
#
# 1 0.010262 -0.000609 -0.001749 0.000000 0.000000 0.000000
# 2 -0.000609 0.005035 -0.000851 0.000000 0.000000 0.000000
# 3 -0.001749 -0.000851 0.007585 0.000000 0.000000 0.000000
# 4 0.000000 0.000000 0.000000 0.034151 0.000000 0.000000
# 5 0.000000 0.000000 0.000000 0.000000 0.027263 0.000000
# 6 0.000000 0.000000 0.000000 0.000000 0.000000 0.225487
#
#
# Mechanical properties :
#
#
# Convention : Reuss Voigt Hill
#
# Bulk Modulus (GPa) = 60.73071 65.23652 62.98362
# Shear Modulus (GPa) = 15.54298 39.38127 27.46212
#
# Velocity S-wave (km/s) = 2.50147 3.98175 3.32503
# Velocity P-wave (km/s) = 5.72647 6.88494 6.33225
#
# Compressibility (1/GPa) = 0.01646613
#
# Stress axis : x y z
#
# Youngs Moduli (GPa) = 97.44386 198.62685 131.83119
#
# Poissons Ratio (x) = 0.12090 0.23054
# Poissons Ratio (y) = 0.05931 0.11215
# Poissons Ratio (z) = 0.17040 0.16897
#
# Static dielectric constant tensor:
#      x y z
#    x 1.846330 0.000000 0.000000 
#    y 0.000000 2.032990 0.000000 
#    z 0.000000 0.000000 1.925110 
# 
# From -- ./inp_files/20327.got.cif
#   From: 2010.05.17/outbox.cif.g08.bks.cpg/sg60_11_cif.got.tgz:20327.got - 2010.06.03 14:59:27.
