data_PCOD9455233
_publ_section_title
;
Structure prediction by ZEFSAII (Michael W. Deem and Ramdas Pophale) SiO2 
 PCOD9455233
Probable space group: P B C N
;
_chemical_formula_sum "Si O2"
_cell_formula_units_Z 56
_cell_length_a 13.251988
_cell_length_b 15.481150
_cell_length_c 15.137466
_cell_angle_alpha 90.000000
_cell_angle_beta 90.000000
_cell_angle_gamma 90.000000
_cell_volume 3105.542187
_symmetry_space_group_name_H-M "P B C N"
_symmetry_group_IT_number 60
_symmetry_cell_setting 'orthorhombic'
loop_
_space_group_symop_operation_xyz
x,y,z
1/2-x,1/2-y,1/2+z
1/2+x,1/2-y,-z
-x,y,1/2-z
-x,-y,-z
1/2+x,1/2+y,1/2-z
1/2-x,1/2+y,z
x,-y,1/2+z
loop_
_atom_site_type_symbol
_atom_site_label
_atom_site_fract_x
_atom_site_fract_y
_atom_site_fract_z
Si Si1 0.054960 0.367043 0.518699
Si Si2 0.838551 0.459576 0.529225
Si Si3 0.102379 0.741379 0.196542
Si Si4 0.417625 0.435182 0.675371
Si Si5 0.057298 0.803826 0.912817
Si Si6 0.257203 0.626794 0.302823
Si Si7 0.648907 0.600241 0.920607
O O1 0.135425 0.440912 0.492251
O O2 0.081976 0.320111 0.611220
O O3 0.048364 0.294291 0.443109
O O4 0.945369 0.410548 0.526904
O O5 0.788921 0.438019 0.624341
O O6 0.759538 0.422038 0.458044
O O7 0.174857 0.690842 0.263358
O O8 0.148831 0.829864 0.158074
O O9 0.000000 0.759886 0.250000
O O10 0.500000 0.458161 0.750000
O O11 0.459328 0.347651 0.630724
O O12 0.310933 0.422496 0.722760
O O13 0.405722 0.512739 0.607868
O O14 0.151940 0.819860 0.848416
O O15 0.085406 0.857003 0.000549
#
# Coordination Sequence:
#
# PCOD9455233 Si02
#       7
#     8   8   8   8   8   8   8
#     4  10  21  39  60  82 115 161 195 240 292 352
#     4  10  21  39  58  83 119 152 202 237 288 357
#     4  11  21  37  59  85 118 152 197 243 299 348
#     4  10  20  37  59  83 119 150 188 245 297 339
#     4   9  21  38  59  84 115 153 196 238 289 354
#     4  10  21  37  58  86 117 151 190 248 290 344
#     4  10  21  36  57  89 114 154 196 237 292 361
#
# _framework density 18.032276
#
# number of rings (size 3 to 8) (size 9 to 14) (size 15 to 20)
#    0.000    2.000    1.429    1.714    2.000    1.143 
#    2.571    1.429    6.286    0.000    0.000    0.000 
#    0.000    0.000    0.000    0.000    0.000    0.000 
#
# Total GULP energy -312446.010301 kJ/mol
# GULP energy per Si atom -5579.393041 kJ/mol
# Density = 1.799123 g / cm^3
# Si number density = 18.032276 Si / 1000 Ang^3
#
#
#
# Elastic Constant Matrix: (Units=GPa)
#
#
# Indices 1 2 3 4 5 6 
#
# 1 79.9626 46.3112 31.5594 0.0000 0.0000 0.0000
# 2 46.3112 115.5145 49.0970 0.0000 0.0000 0.0000
# 3 31.5594 49.0970 75.1360 0.0000 0.0000 0.0000
# 4 0.0000 0.0000 0.0000 23.6173 0.0000 0.0000
# 5 0.0000 0.0000 0.0000 0.0000 20.4023 0.0000
# 6 0.0000 0.0000 0.0000 0.0000 0.0000 -26.3489
#
#
#
# Elastic Compliance Matrix: (Units=1/GPa)
#
#
# Indices 1 2 3 4 5 6 
#
# 1 0.017008 -0.005237 -0.003722 0.000000 0.000000 0.000000
# 2 -0.005237 0.013598 -0.006686 0.000000 0.000000 0.000000
# 3 -0.003722 -0.006686 0.019241 0.000000 0.000000 0.000000
# 4 0.000000 0.000000 0.000000 0.042342 0.000000 0.000000
# 5 0.000000 0.000000 0.000000 0.000000 0.049014 0.000000
# 6 0.000000 0.000000 0.000000 0.000000 0.000000 -0.037952
#
#
# Mechanical properties :
#
#
# Convention : Reuss Voigt Hill
#
# Bulk Modulus (GPa) = 53.88491 58.28315 56.08403
# Shear Modulus (GPa) = 35.53008 13.11053 24.32031
#
# Velocity S-wave (km/s) = 4.44369 2.69933 3.67646
# Velocity P-wave (km/s) = 7.50172 6.48898 7.01366
#
# Compressibility (1/GPa) = 0.01855807
#
# Stress axis : x y z
#
# Youngs Moduli (GPa) = 58.79704 73.53962 51.97127
#
# Poissons Ratio (x) = 0.38510 0.19343
# Poissons Ratio (y) = 0.30790 0.34748
# Poissons Ratio (z) = 0.21883 0.49169
#
# Static dielectric constant tensor:
#      x y z
#    x 1.603250 0.000000 0.000000 
#    y 0.000000 1.603300 0.000000 
#    z 0.000000 0.000000 1.625360 
# 
# From -- ./inp_files/16140.got.cif
#   From: 2010.05.17/outbox.cif.g08.bks.cpg/sg60_9_cif.got.tgz:16140.got - 2010.06.03 14:59:27.
