data_PCOD9455055
_publ_section_title
;
Structure prediction by ZEFSAII (Michael W. Deem and Ramdas Pophale) SiO2 
 PCOD9455055
Probable space group: P B C N
;
_chemical_formula_sum "Si O2"
_cell_formula_units_Z 64
_cell_length_a 31.264804
_cell_length_b 11.934652
_cell_length_c 8.159955
_cell_angle_alpha 90.000000
_cell_angle_beta 90.000000
_cell_angle_gamma 90.000000
_cell_volume 3044.761183
_symmetry_space_group_name_H-M "P B C N"
_symmetry_group_IT_number 60
_symmetry_cell_setting 'orthorhombic'
loop_
_space_group_symop_operation_xyz
x,y,z
1/2-x,1/2-y,1/2+z
1/2+x,1/2-y,-z
-x,y,1/2-z
-x,-y,-z
1/2+x,1/2+y,1/2-z
1/2-x,1/2+y,z
x,-y,1/2+z
loop_
_atom_site_type_symbol
_atom_site_label
_atom_site_fract_x
_atom_site_fract_y
_atom_site_fract_z
Si Si1 0.575607 0.005111 0.084382
Si Si2 0.301382 0.128339 0.466479
Si Si3 0.749772 0.494253 0.790125
Si Si4 0.598781 0.390260 0.917898
Si Si5 0.457253 0.839535 0.641777
Si Si6 0.114303 0.645351 0.684635
Si Si7 0.550850 0.400621 0.257651
Si Si8 0.805585 0.882115 0.039926
O O1 0.613032 0.919033 0.142362
O O2 0.573219 0.090979 0.235899
O O3 0.540639 0.912107 0.025012
O O4 0.578812 0.087492 0.930354
O O5 0.290168 0.047108 0.315833
O O6 0.343885 0.120326 0.576145
O O7 0.303279 0.254504 0.402736
O O8 0.264045 0.095580 0.593414
O O9 0.711374 0.535529 0.677374
O O10 0.729537 0.395186 0.896586
O O11 0.604255 0.276957 0.811171
O O12 0.577585 0.493807 0.823063
O O13 0.646999 0.412826 0.981041
O O14 0.569136 0.369490 0.078007
O O15 0.500000 0.839148 0.750000
O O16 0.444053 0.710038 0.628424
O O17 0.500000 0.426780 0.250000
#
# Coordination Sequence:
#
# PCOD9455055 Si02
#       8
#     8   8   8   8   8   8   8   8
#     4  10  20  38  59  86 119 150 197 242 299 360
#     4  10  20  35  58  82 120 149 193 235 282 342
#     4  10  20  36  57  87 113 155 188 236 287 345
#     4  11  23  41  60  87 118 158 198 250 292 360
#     4  10  21  38  61  86 117 150 194 246 304 359
#     4  10  21  37  59  87 118 159 194 246 294 350
#     4  11  24  42  62  86 119 155 202 248 301 359
#     4  10  21  37  59  83 117 149 194 237 288 342
#
# _framework density 21.019711999999998
#
# number of rings (size 3 to 8) (size 9 to 14) (size 15 to 20)
#    0.000    1.750    1.250    3.000    1.750    0.000 
#    0.000    0.625    8.250    0.000    0.000    0.000 
#    0.000    0.000    0.000    0.000    0.000    0.000 
#
# Total GULP energy -356351.685891 kJ/mol
# GULP energy per Si atom -5567.995092 kJ/mol
# Density = 2.097187 g / cm^3
# Si number density = 21.019712 Si / 1000 Ang^3
#
#
#
# Elastic Constant Matrix: (Units=GPa)
#
#
# Indices 1 2 3 4 5 6 
#
# 1 63.8546 20.9939 -8.5762 0.0000 0.0000 0.0000
# 2 20.9939 96.6536 3.3399 0.0000 0.0000 0.0000
# 3 -8.5762 3.3399 24.2691 0.0000 0.0000 0.0000
# 4 0.0000 0.0000 0.0000 48.6034 0.0000 0.0000
# 5 0.0000 0.0000 0.0000 0.0000 24.5404 0.0000
# 6 0.0000 0.0000 0.0000 0.0000 0.0000 23.9499
#
#
#
# Elastic Compliance Matrix: (Units=1/GPa)
#
#
# Indices 1 2 3 4 5 6 
#
# 1 0.017949 -0.004138 0.006912 0.000000 0.000000 0.000000
# 2 -0.004138 0.011349 -0.003024 0.000000 0.000000 0.000000
# 3 0.006912 -0.003024 0.044064 0.000000 0.000000 0.000000
# 4 0.000000 0.000000 0.000000 0.020575 0.000000 0.000000
# 5 0.000000 0.000000 0.000000 0.000000 0.040749 0.000000
# 6 0.000000 0.000000 0.000000 0.000000 0.000000 0.041754
#
#
# Mechanical properties :
#
#
# Convention : Reuss Voigt Hill
#
# Bulk Modulus (GPa) = 13.72426 24.03249 18.87838
# Shear Modulus (GPa) = 24.84765 30.68674 27.76720
#
# Velocity S-wave (km/s) = 3.44192 3.82501 3.63851
# Velocity P-wave (km/s) = 4.72643 5.56469 5.16260
#
# Compressibility (1/GPa) = 0.07286366
#
# Stress axis : x y z
#
# Youngs Moduli (GPa) = 55.71251 88.11009 22.69450
#
# Poissons Ratio (x) = 0.36456 -0.15687
# Poissons Ratio (y) = 0.23051 0.06863
# Poissons Ratio (z) = -0.38510 0.26645
#
# Static dielectric constant tensor:
#      x y z
#    x 1.794170 0.000000 0.000000 
#    y 0.000000 1.746320 0.000000 
#    z 0.000000 0.000000 1.804540 
# 
# From -- ./inp_files/8489.got.cif
#   From: 2010.05.17/outbox.cif.g08.bks.cpg/sg60_5_cif.got.tgz:8489.got - 2010.06.03 14:59:27.
