data_PCOD9455930
_publ_section_title
;
Structure prediction by ZEFSAII (Michael W. Deem and Ramdas Pophale) SiO2 
 PCOD9455930
Probable space group: P B C N
;
_chemical_formula_sum "Si O2"
_cell_formula_units_Z 60
_cell_length_a 20.107499
_cell_length_b 9.355412
_cell_length_c 13.001527
_cell_angle_alpha 90.000000
_cell_angle_beta 90.000000
_cell_angle_gamma 90.000000
_cell_volume 2445.768437
_symmetry_space_group_name_H-M "P B C N"
_symmetry_group_IT_number 60
_symmetry_cell_setting 'orthorhombic'
loop_
_space_group_symop_operation_xyz
x,y,z
1/2-x,1/2-y,1/2+z
1/2+x,1/2-y,-z
-x,y,1/2-z
-x,-y,-z
1/2+x,1/2+y,1/2-z
1/2-x,1/2+y,z
x,-y,1/2+z
loop_
_atom_site_type_symbol
_atom_site_label
_atom_site_fract_x
_atom_site_fract_y
_atom_site_fract_z
Si Si1 0.107393 0.033937 0.549524
Si Si2 0.205300 0.162063 0.913100
Si Si3 0.644558 0.194214 0.568239
Si Si4 0.459005 0.743737 0.068444
Si Si5 0.000000 0.554382 0.750000
Si Si6 0.595236 0.895358 0.613830
Si Si7 0.218848 0.995469 0.201759
Si Si8 0.172597 0.299155 0.191102
O O1 0.159153 0.938860 0.482570
O O2 0.044343 0.929720 0.570523
O O3 0.101572 0.182460 0.487495
O O4 0.149365 0.057614 0.653540
O O5 0.276692 0.208762 0.958946
O O6 0.159626 0.294202 0.876493
O O7 0.222857 0.062195 0.816820
O O8 0.644086 0.205467 0.693057
O O9 0.617842 0.035321 0.550105
O O10 0.497832 0.839302 0.151438
O O11 0.385169 0.776099 0.111586
O O12 0.458859 0.808136 0.953972
O O13 0.938454 0.450279 0.719831
O O14 0.284761 0.931387 0.154028
O O15 0.220495 0.163587 0.192760
#
# Coordination Sequence:
#
# PCOD9455930 Si02
#       8
#     8   8   8   8   4   8   8   8
#     4  10  22  38  61  95 135 173 219 268 336 415
#     4  10  22  39  60  98 142 174 217 268 340 408
#     4  11  21  37  63  96 135 175 213 267 345 409
#     4  10  24  44  66  94 129 175 227 286 337 397
#     4  12  24  48  72  94 132 180 240 298 336 388
#     4  11  25  41  71  99 132 179 228 285 334 410
#     4  10  22  34  58  94 137 176 211 259 326 413
#     4  10  21  37  58  91 135 176 215 264 334 393
#
# _framework density 24.532164999999999
#
# number of rings (size 3 to 8) (size 9 to 14) (size 15 to 20)
#    0.000    1.600    2.667    1.200   13.067    1.067 
#    0.000    0.667    0.000   13.600    0.000    0.000 
#    0.000    0.000    0.000    0.000    0.000    0.000 
#
# Total GULP energy -335244.626482 kJ/mol
# GULP energy per Si atom -5587.410441 kJ/mol
# Density = 2.447633 g / cm^3
# Si number density = 24.532165 Si / 1000 Ang^3
#
#
#
# Elastic Constant Matrix: (Units=GPa)
#
#
# Indices 1 2 3 4 5 6 
#
# 1 73.2097 31.5593 -9.6432 0.0000 0.0000 0.0000
# 2 31.5593 101.6642 -2.4288 0.0000 0.0000 0.0000
# 3 -9.6432 -2.4288 59.0025 0.0000 0.0000 0.0000
# 4 0.0000 0.0000 0.0000 41.1964 0.0000 0.0000
# 5 0.0000 0.0000 0.0000 0.0000 34.5441 0.0000
# 6 0.0000 0.0000 0.0000 0.0000 0.0000 24.5708
#
#
#
# Elastic Compliance Matrix: (Units=1/GPa)
#
#
# Indices 1 2 3 4 5 6 
#
# 1 0.016110 -0.004943 0.002430 0.000000 0.000000 0.000000
# 2 -0.004943 0.011363 -0.000340 0.000000 0.000000 0.000000
# 3 0.002430 -0.000340 0.017331 0.000000 0.000000 0.000000
# 4 0.000000 0.000000 0.000000 0.024274 0.000000 0.000000
# 5 0.000000 0.000000 0.000000 0.000000 0.028948 0.000000
# 6 0.000000 0.000000 0.000000 0.000000 0.000000 0.040699
#
#
# Mechanical properties :
#
#
# Convention : Reuss Voigt Hill
#
# Bulk Modulus (GPa) = 25.57732 30.31679 27.94706
# Shear Modulus (GPa) = 31.75304 34.35486 33.05395
#
# Velocity S-wave (km/s) = 3.60160 3.74625 3.67464
# Velocity P-wave (km/s) = 5.26726 5.57650 5.42408
#
# Compressibility (1/GPa) = 0.03909713
#
# Stress axis : x y z
#
# Youngs Moduli (GPa) = 62.07227 88.00783 57.69842
#
# Poissons Ratio (x) = 0.43502 -0.14018
# Poissons Ratio (y) = 0.30682 0.01962
# Poissons Ratio (z) = -0.15081 0.02993
#
# Static dielectric constant tensor:
#      x y z
#    x 2.047980 0.000000 0.000000 
#    y 0.000000 1.953320 0.000000 
#    z 0.000000 0.000000 1.994850 
# 
# From -- ./inp_files/18095.got.cif
#   From: 2010.05.17/outbox.cif.g08.bks.cpg/sg60_10_cif.got.tgz:18095.got - 2010.06.03 14:59:27.
