data_PCOD9455258
_publ_section_title
;
Structure prediction by ZEFSAII (Michael W. Deem and Ramdas Pophale) SiO2 
 PCOD9455258
Probable space group: P B C N
;
_chemical_formula_sum "Si O2"
_cell_formula_units_Z 60
_cell_length_a 27.640678
_cell_length_b 10.284142
_cell_length_c 9.752176
_cell_angle_alpha 90.000000
_cell_angle_beta 90.000000
_cell_angle_gamma 90.000000
_cell_volume 2772.159962
_symmetry_space_group_name_H-M "P B C N"
_symmetry_group_IT_number 60
_symmetry_cell_setting 'orthorhombic'
loop_
_space_group_symop_operation_xyz
x,y,z
1/2-x,1/2-y,1/2+z
1/2+x,1/2-y,-z
-x,y,1/2-z
-x,-y,-z
1/2+x,1/2+y,1/2-z
1/2-x,1/2+y,z
x,-y,1/2+z
loop_
_atom_site_type_symbol
_atom_site_label
_atom_site_fract_x
_atom_site_fract_y
_atom_site_fract_z
Si Si1 0.949088 0.182505 0.833034
Si Si2 0.205500 0.155357 0.079994
Si Si3 0.704755 0.346173 0.421569
Si Si4 0.500000 0.992726 0.250000
Si Si5 0.360149 0.641090 0.337810
Si Si6 0.449776 0.382624 0.664866
Si Si7 0.858326 0.163486 0.662173
Si Si8 0.480800 0.170903 0.487558
O O1 0.903545 0.223202 0.742034
O O2 0.000000 0.175988 0.750000
O O3 0.939454 0.032822 0.873781
O O4 0.964120 0.280645 0.954290
O O5 0.250987 0.248569 0.057773
O O6 0.162312 0.207494 0.982622
O O7 0.215272 0.000652 0.050788
O O8 0.184419 0.159288 0.233194
O O9 0.659270 0.307929 0.518292
O O10 0.686705 0.333155 0.266552
O O11 0.468881 0.083392 0.354562
O O12 0.524111 0.906195 0.369033
O O13 0.408701 0.681191 0.260001
O O14 0.370072 0.488191 0.357748
O O15 0.500000 0.378216 0.750000
O O16 0.453808 0.303878 0.523715
#
# Coordination Sequence:
#
# PCOD9455258 Si02
#       8
#     8   8   8   4   8   8   8   8
#     4  10  21  36  62  96 127 154 196 255 310 360
#     4  10  20  37  61  83 115 152 193 245 300 358
#     4  10  20  37  61  83 115 152 193 245 300 358
#     4  10  24  38  58  70 108 170 228 228 284 342
#     4   9  20  35  57  90 118 150 186 233 303 366
#     4  10  21  36  62  96 127 154 196 255 310 360
#     4   9  20  35  57  90 118 150 186 233 303 366
#     4  11  21  40  58  82 111 167 204 252 280 355
#
# _framework density 21.643771999999998
#
# number of rings (size 3 to 8) (size 9 to 14) (size 15 to 20)
#    0.000    2.133    1.333    1.200    3.733    0.000 
#    0.000    0.000   17.600    0.000    0.000    0.000 
#    0.000    0.000    0.000    0.000    0.000    0.000 
#
# Total GULP energy -334401.305001 kJ/mol
# GULP energy per Si atom -5573.355083 kJ/mol
# Density = 2.159451 g / cm^3
# Si number density = 21.643772 Si / 1000 Ang^3
#
#
#
# Elastic Constant Matrix: (Units=GPa)
#
#
# Indices 1 2 3 4 5 6 
#
# 1 82.5318 23.5971 10.0580 0.0000 0.0000 0.0000
# 2 23.5971 76.7345 23.2060 0.0000 0.0000 0.0000
# 3 10.0580 23.2060 119.5948 0.0000 0.0000 0.0000
# 4 0.0000 0.0000 0.0000 25.6348 0.0000 0.0000
# 5 0.0000 0.0000 0.0000 0.0000 31.6560 0.0000
# 6 0.0000 0.0000 0.0000 0.0000 0.0000 26.6574
#
#
#
# Elastic Compliance Matrix: (Units=1/GPa)
#
#
# Indices 1 2 3 4 5 6 
#
# 1 0.013298 -0.003985 -0.000345 0.000000 0.000000 0.000000
# 2 -0.003985 0.015039 -0.002583 0.000000 0.000000 0.000000
# 3 -0.000345 -0.002583 0.008892 0.000000 0.000000 0.000000
# 4 0.000000 0.000000 0.000000 0.039009 0.000000 0.000000
# 5 0.000000 0.000000 0.000000 0.000000 0.031590 0.000000
# 6 0.000000 0.000000 0.000000 0.000000 0.000000 0.037513
#
#
# Mechanical properties :
#
#
# Convention : Reuss Voigt Hill
#
# Bulk Modulus (GPa) = 42.73096 43.62037 43.17566
# Shear Modulus (GPa) = 29.94604 31.58965 30.76784
#
# Velocity S-wave (km/s) = 3.72369 3.82452 3.77444
# Velocity P-wave (km/s) = 6.18656 6.30080 6.24394
#
# Compressibility (1/GPa) = 0.02340224
#
# Stress axis : x y z
#
# Youngs Moduli (GPa) = 75.19953 66.49594 112.46339
#
# Poissons Ratio (x) = 0.26498 0.03882
# Poissons Ratio (y) = 0.29967 0.29048
# Poissons Ratio (z) = 0.02595 0.17175
#
# Static dielectric constant tensor:
#      x y z
#    x 1.827720 0.000000 0.000000 
#    y 0.000000 1.854730 0.000000 
#    z 0.000000 0.000000 1.865920 
# 
# From -- ./inp_files/8177.got.cif
#   From: 2010.05.17/outbox.cif.g08.bks.cpg/sg60_5_cif.got.tgz:8177.got - 2010.06.03 14:59:27.
