data_PCOD9455785
_publ_section_title
;
Structure prediction by ZEFSAII (Michael W. Deem and Ramdas Pophale) SiO2 
 PCOD9455785
Probable space group: P B C N
;
_chemical_formula_sum "Si O2"
_cell_formula_units_Z 48
_cell_length_a 25.381787
_cell_length_b 11.005168
_cell_length_c 8.399503
_cell_angle_alpha 90.000000
_cell_angle_beta 90.000000
_cell_angle_gamma 90.000000
_cell_volume 2346.240145
_symmetry_space_group_name_H-M "P B C N"
_symmetry_group_IT_number 60
_symmetry_cell_setting 'orthorhombic'
loop_
_space_group_symop_operation_xyz
x,y,z
1/2-x,1/2-y,1/2+z
1/2+x,1/2-y,-z
-x,y,1/2-z
-x,-y,-z
1/2+x,1/2+y,1/2-z
1/2-x,1/2+y,z
x,-y,1/2+z
loop_
_atom_site_type_symbol
_atom_site_label
_atom_site_fract_x
_atom_site_fract_y
_atom_site_fract_z
Si Si1 0.896744 0.126334 0.671478
Si Si2 0.787327 0.986455 0.061851
Si Si3 0.961835 0.070820 0.379364
Si Si4 0.227630 0.178034 0.224408
Si Si5 0.348816 0.845171 0.652497
Si Si6 0.825883 0.599668 0.695482
O O1 0.840267 0.068050 0.632951
O O2 0.925327 0.145053 0.500949
O O3 0.888126 0.250758 0.766630
O O4 0.927824 0.028515 0.780828
O O5 0.786243 0.938148 0.882922
O O6 0.732403 0.935875 0.131090
O O7 0.783726 0.129783 0.097042
O O8 0.000000 0.134746 0.250000
O O9 0.000000 0.000000 0.500000
O O10 0.289315 0.199664 0.197934
O O11 0.188834 0.288972 0.188709
O O12 0.355646 0.856109 0.462559
O O13 0.350509 0.982137 0.722748
#
# Coordination Sequence:
#
# PCOD9455785 Si02
#       6
#     8   8   8   8   8   8
#     4  11  20  38  61  90 121 145 205 238 307 373
#     4  10  21  32  55  84 116 166 202 244 287 322
#     4   9  21  40  63  92 117 138 175 259 333 363
#     4  10  21  35  51  77 127 167 212 243 280 323
#     4  10  23  36  53  83 114 180 205 245 281 336
#     4  10  22  37  51  76 135 167 211 236 277 327
#
# _framework density 20.458265000000001
#
# number of rings (size 3 to 8) (size 9 to 14) (size 15 to 20)
#    0.000    2.000    1.667    1.000    7.000    2.667 
#    0.000    0.000    0.000    0.000    0.000   15.167 
#    0.000    0.000    0.000    0.000    0.000    0.000 
#
# Total GULP energy -267825.010518 kJ/mol
# GULP energy per Si atom -5579.687719 kJ/mol
# Density = 2.041170 g / cm^3
# Si number density = 20.458265 Si / 1000 Ang^3
#
#
#
# Elastic Constant Matrix: (Units=GPa)
#
#
# Indices 1 2 3 4 5 6 
#
# 1 37.6227 -3.3265 11.8119 0.0000 0.0000 0.0000
# 2 -3.3265 53.6111 12.1359 0.0000 0.0000 0.0000
# 3 11.8119 12.1359 76.1599 0.0000 0.0000 0.0000
# 4 0.0000 0.0000 0.0000 31.1764 0.0000 0.0000
# 5 0.0000 0.0000 0.0000 0.0000 42.5589 0.0000
# 6 0.0000 0.0000 0.0000 0.0000 0.0000 11.5745
#
#
#
# Elastic Compliance Matrix: (Units=1/GPa)
#
#
# Indices 1 2 3 4 5 6 
#
# 1 0.028356 0.002858 -0.004853 0.000000 0.000000 0.000000
# 2 0.002858 0.019639 -0.003573 0.000000 0.000000 0.000000
# 3 -0.004853 -0.003573 0.014452 0.000000 0.000000 0.000000
# 4 0.000000 0.000000 0.000000 0.032075 0.000000 0.000000
# 5 0.000000 0.000000 0.000000 0.000000 0.023497 0.000000
# 6 0.000000 0.000000 0.000000 0.000000 0.000000 0.086397
#
#
# Mechanical properties :
#
#
# Convention : Reuss Voigt Hill
#
# Bulk Modulus (GPa) = 19.48876 23.18180 21.33528
# Shear Modulus (GPa) = 21.49092 26.84679 24.16885
#
# Velocity S-wave (km/s) = 3.24462 3.62646 3.44084
# Velocity P-wave (km/s) = 4.85629 5.37502 5.12222
#
# Compressibility (1/GPa) = 0.05131163
#
# Stress axis : x y z
#
# Youngs Moduli (GPa) = 35.26574 50.91925 69.19320
#
# Poissons Ratio (x) = -0.14553 0.33581
# Poissons Ratio (y) = -0.10079 0.24721
# Poissons Ratio (z) = 0.17115 0.18192
#
# Static dielectric constant tensor:
#      x y z
#    x 1.716340 0.000000 0.000000 
#    y 0.000000 1.786140 0.000000 
#    z 0.000000 0.000000 1.845730 
# 
# From -- ./inp_files/7843.got.cif
#   From: 2010.05.17/outbox.cif.g08.bks.cpg/sg60_4_cif.got.tgz:7843.got - 2010.06.03 14:59:27.
