data_PCOD9455668
_publ_section_title
;
Structure prediction by ZEFSAII (Michael W. Deem and Ramdas Pophale) SiO2 
 PCOD9455668
Probable space group: P B C N
;
_chemical_formula_sum "Si O2"
_cell_formula_units_Z 64
_cell_length_a 9.255701
_cell_length_b 17.735726
_cell_length_c 19.874804
_cell_angle_alpha 90.000000
_cell_angle_beta 90.000000
_cell_angle_gamma 90.000000
_cell_volume 3262.579791
_symmetry_space_group_name_H-M "P B C N"
_symmetry_group_IT_number 60
_symmetry_cell_setting 'orthorhombic'
loop_
_space_group_symop_operation_xyz
x,y,z
1/2-x,1/2-y,1/2+z
1/2+x,1/2-y,-z
-x,y,1/2-z
-x,-y,-z
1/2+x,1/2+y,1/2-z
1/2-x,1/2+y,z
x,-y,1/2+z
loop_
_atom_site_type_symbol
_atom_site_label
_atom_site_fract_x
_atom_site_fract_y
_atom_site_fract_z
Si Si1 0.358208 0.548688 0.506556
Si Si2 0.942498 0.706474 0.939660
Si Si3 0.158499 0.535781 0.754742
Si Si4 0.671974 0.941312 0.626142
Si Si5 0.384357 0.793792 0.305257
Si Si6 0.422907 0.218461 0.319698
Si Si7 0.618067 0.963887 0.398854
Si Si8 0.608486 0.282507 0.437839
O O1 0.500000 0.500000 0.500000
O O2 0.283902 0.560613 0.434554
O O3 0.241815 0.505073 0.552904
O O4 0.393892 0.629723 0.540087
O O5 0.922965 0.616409 0.931820
O O6 0.778960 0.738313 0.935091
O O7 0.043470 0.725240 0.876362
O O8 0.022371 0.734427 0.006297
O O9 0.239237 0.482068 0.807258
O O10 0.136046 0.616619 0.790597
O O11 0.189852 0.547095 0.675720
O O12 0.000000 0.498352 0.750000
O O13 0.619702 0.858000 0.642932
O O14 0.528134 0.988272 0.605656
O O15 0.500000 0.767041 0.250000
O O16 0.226057 0.760095 0.302738
O O17 0.500000 0.200688 0.250000
O O18 0.527737 0.267357 0.367587
#
# Coordination Sequence:
#
# PCOD9455668 Si02
#       8
#     8   8   8   8   8   8   8   8
#     4  11  26  42  62  97 134 172 221 274 342 395
#     4  11  20  40  65  93 130 173 218 274 335 384
#     4   9  18  37  69  94 120 156 221 271 312 383
#     4  11  22  44  65  98 129 172 218 275 327 406
#     4  11  20  39  67  98 123 170 218 272 332 394
#     4  12  26  41  66  99 135 174 223 277 340 402
#     4  10  20  41  70  92 121 173 225 264 322 403
#     4  11  26  42  62  97 138 174 227 281 329 403
#
# _framework density 19.616378999999998
#
# number of rings (size 3 to 8) (size 9 to 14) (size 15 to 20)
#    0.000    1.250    3.750    5.250    3.500    2.000 
#    0.000    4.375    0.000    0.000    0.000    0.000 
#    0.000    0.000    0.000    0.000    0.000    0.000 
#
# Total GULP energy -357158.312459 kJ/mol
# GULP energy per Si atom -5580.598632 kJ/mol
# Density = 1.957173 g / cm^3
# Si number density = 19.616379 Si / 1000 Ang^3
#
#
#
# Elastic Constant Matrix: (Units=GPa)
#
#
# Indices 1 2 3 4 5 6 
#
# 1 103.2340 32.0989 38.3591 0.0000 0.0000 0.0000
# 2 32.0989 72.2159 31.4125 0.0000 0.0000 0.0000
# 3 38.3591 31.4125 107.6376 0.0000 0.0000 0.0000
# 4 0.0000 0.0000 0.0000 28.2594 0.0000 0.0000
# 5 0.0000 0.0000 0.0000 0.0000 28.7888 0.0000
# 6 0.0000 0.0000 0.0000 0.0000 0.0000 15.5940
#
#
#
# Elastic Compliance Matrix: (Units=1/GPa)
#
#
# Indices 1 2 3 4 5 6 
#
# 1 0.012102 -0.004012 -0.003142 0.000000 0.000000 0.000000
# 2 -0.004012 0.017191 -0.003587 0.000000 0.000000 0.000000
# 3 -0.003142 -0.003587 0.011457 0.000000 0.000000 0.000000
# 4 0.000000 0.000000 0.000000 0.035387 0.000000 0.000000
# 5 0.000000 0.000000 0.000000 0.000000 0.034736 0.000000
# 6 0.000000 0.000000 0.000000 0.000000 0.000000 0.064127
#
#
# Mechanical properties :
#
#
# Convention : Reuss Voigt Hill
#
# Bulk Modulus (GPa) = 51.90152 54.09204 52.99678
# Shear Modulus (GPa) = 24.64218 26.60957 25.62587
#
# Velocity S-wave (km/s) = 3.54814 3.68706 3.61827
# Velocity P-wave (km/s) = 6.58038 6.76467 6.67316
#
# Compressibility (1/GPa) = 0.01926726
#
# Stress axis : x y z
#
# Youngs Moduli (GPa) = 82.63282 58.16957 87.28359
#
# Poissons Ratio (x) = 0.23340 0.27422
# Poissons Ratio (y) = 0.33156 0.31309
# Poissons Ratio (z) = 0.25961 0.20866
#
# Static dielectric constant tensor:
#      x y z
#    x 1.679610 0.000000 0.000000 
#    y 0.000000 1.695190 0.000000 
#    z 0.000000 0.000000 1.748270 
# 
# From -- ./inp_files/22376.got.cif
#   From: 2010.05.17/outbox.cif.g08.bks.cpg/sg60_12_cif.got.tgz:22376.got - 2010.06.03 14:59:27.
