data_PCOD9455386
_publ_section_title
;
Structure prediction by ZEFSAII (Michael W. Deem and Ramdas Pophale) SiO2 
 PCOD9455386
Probable space group: P B C N
;
_chemical_formula_sum "Si O2"
_cell_formula_units_Z 56
_cell_length_a 5.470537
_cell_length_b 22.854384
_cell_length_c 22.602967
_cell_angle_alpha 90.000000
_cell_angle_beta 90.000000
_cell_angle_gamma 90.000000
_cell_volume 2825.952976
_symmetry_space_group_name_H-M "P B C N"
_symmetry_group_IT_number 60
_symmetry_cell_setting 'orthorhombic'
loop_
_space_group_symop_operation_xyz
x,y,z
1/2-x,1/2-y,1/2+z
1/2+x,1/2-y,-z
-x,y,1/2-z
-x,-y,-z
1/2+x,1/2+y,1/2-z
1/2-x,1/2+y,z
x,-y,1/2+z
loop_
_atom_site_type_symbol
_atom_site_label
_atom_site_fract_x
_atom_site_fract_y
_atom_site_fract_z
Si Si1 0.275782 0.075132 0.523230
Si Si2 0.111993 0.125844 0.405158
Si Si3 0.271124 0.377190 0.417663
Si Si4 0.317053 0.750311 0.461757
Si Si5 0.906800 0.952167 0.190673
Si Si6 0.859320 0.434512 0.695390
Si Si7 0.249594 0.528957 0.102116
O O1 0.267278 0.090100 0.454346
O O2 0.527900 0.098029 0.550926
O O3 0.029257 0.105383 0.550536
O O4 0.265892 0.007260 0.541758
O O5 0.129132 0.192614 0.423426
O O6 0.193039 0.111765 0.338563
O O7 0.853248 0.093346 0.410007
O O8 0.241096 0.307534 0.422992
O O9 0.277088 0.405880 0.352458
O O10 0.568118 0.760158 0.499630
O O11 0.000000 0.920573 0.250000
O O12 0.763755 0.006786 0.219827
O O13 0.077653 0.988256 0.144165
O O14 0.000000 0.406871 0.750000
O O15 0.018189 0.461971 0.642815
#
# Coordination Sequence:
#
# PCOD9455386 Si02
#       7
#     8   8   8   8   8   8   8
#     4  11  22  40  62  97 135 161 208 272 337 384
#     4  11  25  37  62  95 130 174 214 272 325 397
#     4  11  22  40  65  96 125 168 220 267 313 391
#     4  12  24  44  66  90 131 176 221 262 324 398
#     4  10  20  38  62  94 126 169 213 268 326 386
#     4  11  22  39  63  90 129 170 217 259 332 398
#     4  10  22  37  61  95 131 163 211 269 329 398
#
# _framework density 19.816324999999999
#
# number of rings (size 3 to 8) (size 9 to 14) (size 15 to 20)
#    0.000    1.143    5.714    0.429    4.000    0.571 
#    0.000    0.714    0.000    0.000   11.143    0.000 
#    0.000    0.000    0.000    0.000    0.000    0.000 
#
# Total GULP energy -312255.284681 kJ/mol
# GULP energy per Si atom -5575.987226 kJ/mol
# Density = 1.977122 g / cm^3
# Si number density = 19.816325 Si / 1000 Ang^3
#
#
#
# Elastic Constant Matrix: (Units=GPa)
#
#
# Indices 1 2 3 4 5 6 
#
# 1 85.5719 24.5160 20.7857 0.0000 0.0000 0.0000
# 2 24.5160 118.9515 23.7914 0.0000 0.0000 0.0000
# 3 20.7857 23.7914 93.8855 0.0000 0.0000 0.0000
# 4 0.0000 0.0000 0.0000 77.0223 0.0000 0.0000
# 5 0.0000 0.0000 0.0000 0.0000 26.6307 0.0000
# 6 0.0000 0.0000 0.0000 0.0000 0.0000 249.3416
#
#
#
# Elastic Compliance Matrix: (Units=1/GPa)
#
#
# Indices 1 2 3 4 5 6 
#
# 1 0.012872 -0.002194 -0.002294 0.000000 0.000000 0.000000
# 2 -0.002194 0.009230 -0.001853 0.000000 0.000000 0.000000
# 3 -0.002294 -0.001853 0.011629 0.000000 0.000000 0.000000
# 4 0.000000 0.000000 0.000000 0.012983 0.000000 0.000000
# 5 0.000000 0.000000 0.000000 0.000000 0.037551 0.000000
# 6 0.000000 0.000000 0.000000 0.000000 0.000000 0.004011
#
#
# Mechanical properties :
#
#
# Convention : Reuss Voigt Hill
#
# Bulk Modulus (GPa) = 47.50995 48.51056 48.01025
# Shear Modulus (GPa) = 46.30805 85.88665 66.09735
#
# Velocity S-wave (km/s) = 4.83936 6.59056 5.78164
# Velocity P-wave (km/s) = 7.43324 9.08004 8.29760
#
# Compressibility (1/GPa) = 0.02104822
#
# Stress axis : x y z
#
# Youngs Moduli (GPa) = 77.68897 108.34660 85.99422
#
# Poissons Ratio (x) = 0.23773 0.19725
# Poissons Ratio (y) = 0.17046 0.15936
# Poissons Ratio (z) = 0.17820 0.20078
#
# Static dielectric constant tensor:
#      x y z
#    x 1.845050 0.000000 0.000000 
#    y 0.000000 1.680180 0.000000 
#    z 0.000000 0.000000 1.728470 
# 
# From -- ./inp_files/21731.got.cif
#   From: 2010.05.17/outbox.cif.g08.bks.cpg/sg60_11_cif.got.tgz:21731.got - 2010.06.03 14:59:27.
