data_PCOD9455327
_publ_section_title
;
Structure prediction by ZEFSAII (Michael W. Deem and Ramdas Pophale) SiO2 
 PCOD9455327
Probable space group: P B C N
;
_chemical_formula_sum "Si O2"
_cell_formula_units_Z 44
_cell_length_a 23.270410
_cell_length_b 5.256111
_cell_length_c 14.348078
_cell_angle_alpha 90.000000
_cell_angle_beta 90.000000
_cell_angle_gamma 90.000000
_cell_volume 1754.940079
_symmetry_space_group_name_H-M "P B C N"
_symmetry_group_IT_number 60
_symmetry_cell_setting 'orthorhombic'
loop_
_space_group_symop_operation_xyz
x,y,z
1/2-x,1/2-y,1/2+z
1/2+x,1/2-y,-z
-x,y,1/2-z
-x,-y,-z
1/2+x,1/2+y,1/2-z
1/2-x,1/2+y,z
x,-y,1/2+z
loop_
_atom_site_type_symbol
_atom_site_label
_atom_site_fract_x
_atom_site_fract_y
_atom_site_fract_z
Si Si1 0.335176 0.738719 0.591901
Si Si2 0.561472 0.639719 0.398834
Si Si3 0.500000 0.394636 0.250000
Si Si4 0.717744 0.481245 0.064972
Si Si5 0.610360 0.970089 0.750483
Si Si6 0.880096 0.623849 0.052492
O O1 0.397174 0.599051 0.581496
O O2 0.289451 0.545410 0.547182
O O3 0.335915 0.832103 0.698199
O O4 0.340335 0.980077 0.523002
O O5 0.504414 0.556422 0.345388
O O6 0.563241 0.799372 0.494354
O O7 0.593543 0.802959 0.319049
O O8 0.443769 0.221624 0.252147
O O9 0.757689 0.249354 0.098456
O O10 0.654272 0.374662 0.086602
O O11 0.615905 0.045284 0.643694
#
# Coordination Sequence:
#
# PCOD9455327 Si02
#       6
#     8   8   4   8   8   8
#     4   9  20  39  61  91 125 170 208 258 333 379
#     4   9  20  37  60  87 124 167 209 262 332 379
#     4  10  20  38  58  88 128 168 218 268 320 406
#     4  11  21  40  68  93 128 165 207 261 320 384
#     4  10  21  39  62  90 127 169 221 269 320 400
#     4  10  21  39  65  93 126 169 214 274 330 382
#
# _framework density 25.072082000000002
#
# number of rings (size 3 to 8) (size 9 to 14) (size 15 to 20)
#    0.000    2.182    1.818    0.545    0.000    6.545 
#    0.000   14.545    0.000    0.000    0.000    0.000 
#    0.000    0.000    0.000    0.000    0.000    0.000 
#
# Total GULP energy -245240.817629 kJ/mol
# GULP energy per Si atom -5573.654946 kJ/mol
# Density = 2.501502 g / cm^3
# Si number density = 25.072082 Si / 1000 Ang^3
#
#
#
# Elastic Constant Matrix: (Units=GPa)
#
#
# Indices 1 2 3 4 5 6 
#
# 1 37.7329 12.3153 11.2215 0.0000 0.0000 0.0000
# 2 12.3153 108.7511 18.1474 0.0000 0.0000 0.0000
# 3 11.2215 18.1474 128.4491 0.0000 0.0000 0.0000
# 4 0.0000 0.0000 0.0000 11.6441 0.0000 0.0000
# 5 0.0000 0.0000 0.0000 0.0000 16.2671 0.0000
# 6 0.0000 0.0000 0.0000 0.0000 0.0000 24.2257
#
#
#
# Elastic Compliance Matrix: (Units=1/GPa)
#
#
# Indices 1 2 3 4 5 6 
#
# 1 0.028036 -0.002833 -0.002049 0.000000 0.000000 0.000000
# 2 -0.002833 0.009704 -0.001123 0.000000 0.000000 0.000000
# 3 -0.002049 -0.001123 0.008123 0.000000 0.000000 0.000000
# 4 0.000000 0.000000 0.000000 0.085880 0.000000 0.000000
# 5 0.000000 0.000000 0.000000 0.000000 0.061474 0.000000
# 6 0.000000 0.000000 0.000000 0.000000 0.000000 0.041278
#
#
# Mechanical properties :
#
#
# Convention : Reuss Voigt Hill
#
# Bulk Modulus (GPa) = 29.54062 39.81127 34.67594
# Shear Modulus (GPa) = 19.39566 25.97733 22.68650
#
# Velocity S-wave (km/s) = 2.78438 3.22235 3.01134
# Velocity P-wave (km/s) = 4.70583 5.45508 5.09425
#
# Compressibility (1/GPa) = 0.03385170
#
# Stress axis : x y z
#
# Youngs Moduli (GPa) = 35.66839 103.05465 123.10860
#
# Poissons Ratio (x) = 0.29195 0.25225
# Poissons Ratio (y) = 0.10105 0.13831
# Poissons Ratio (z) = 0.07309 0.11578
#
# Static dielectric constant tensor:
#      x y z
#    x 2.083210 0.000000 0.000000 
#    y 0.000000 2.064540 0.000000 
#    z 0.000000 0.000000 2.088190 
# 
# From -- ./inp_files/18014.got.cif
#   From: 2010.05.17/outbox.cif.g08.bks.cpg/sg60_10_cif.got.tgz:18014.got - 2010.06.03 14:59:27.
