data_PCOD9455897
_publ_section_title
;
Structure prediction by ZEFSAII (Michael W. Deem and Ramdas Pophale) SiO2 
 PCOD9455897
Probable space group: P B C N
;
_chemical_formula_sum "Si O2"
_cell_formula_units_Z 32
_cell_length_a 13.048597
_cell_length_b 13.530228
_cell_length_c 8.919517
_cell_angle_alpha 90.000000
_cell_angle_beta 90.000000
_cell_angle_gamma 90.000000
_cell_volume 1574.745119
_symmetry_space_group_name_H-M "P B C N"
_symmetry_group_IT_number 60
_symmetry_cell_setting 'orthorhombic'
loop_
_space_group_symop_operation_xyz
x,y,z
1/2-x,1/2-y,1/2+z
1/2+x,1/2-y,-z
-x,y,1/2-z
-x,-y,-z
1/2+x,1/2+y,1/2-z
1/2-x,1/2+y,z
x,-y,1/2+z
loop_
_atom_site_type_symbol
_atom_site_label
_atom_site_fract_x
_atom_site_fract_y
_atom_site_fract_z
Si Si1 0.500000 0.783059 0.750000
Si Si2 0.191441 0.357859 0.088540
Si Si3 0.500000 0.865019 0.250000
Si Si4 0.137200 0.582580 0.028730
Si Si5 0.688234 0.298683 0.128207
O O1 0.425295 0.853396 0.651117
O O2 0.433311 0.713068 0.858013
O O3 0.088494 0.308338 0.159262
O O4 0.162859 0.472213 0.078763
O O5 0.277245 0.332694 0.208170
O O6 0.218142 0.311266 0.929024
O O7 0.434780 0.920755 0.379462
O O8 0.245107 0.633400 0.983103
#
# Coordination Sequence:
#
# PCOD9455897 Si02
#       5
#     4   8   4   8   8
#     4  12  23  44  68  99 136 178 219 282 334 397
#     4  11  23  40  64 100 132 171 216 279 332 391
#     4  10  21  36  66 101 122 164 221 282 332 381
#     4  11  24  40  67  98 134 172 225 275 339 395
#     4  11  25  40  64  98 136 172 218 274 332 398
#
# _framework density 20.32075
#
# number of rings (size 3 to 8) (size 9 to 14) (size 15 to 20)
#    0.000    1.000    5.000    1.500    7.000    0.000 
#    0.000    1.250    0.000    3.000    0.000    0.000 
#    0.000    0.000    0.000    0.000    0.000    0.000 
#
# Total GULP energy -178237.790421 kJ/mol
# GULP energy per Si atom -5569.930951 kJ/mol
# Density = 2.027450 g / cm^3
# Si number density = 20.320750 Si / 1000 Ang^3
#
#
#
# Elastic Constant Matrix: (Units=GPa)
#
#
# Indices 1 2 3 4 5 6 
#
# 1 72.4612 58.3581 34.0483 0.0000 0.0000 0.0000
# 2 58.3581 65.7683 34.2979 0.0000 0.0000 0.0000
# 3 34.0483 34.2979 105.5031 0.0000 0.0000 0.0000
# 4 0.0000 0.0000 0.0000 26.6760 0.0000 0.0000
# 5 0.0000 0.0000 0.0000 0.0000 50.2066 0.0000
# 6 0.0000 0.0000 0.0000 0.0000 0.0000 33.4492
#
#
#
# Elastic Compliance Matrix: (Units=1/GPa)
#
#
# Indices 1 2 3 4 5 6 
#
# 1 0.048711 -0.042175 -0.002010 0.000000 0.000000 0.000000
# 2 -0.042175 0.054824 -0.004212 0.000000 0.000000 0.000000
# 3 -0.002010 -0.004212 0.011496 0.000000 0.000000 0.000000
# 4 0.000000 0.000000 0.000000 0.037487 0.000000 0.000000
# 5 0.000000 0.000000 0.000000 0.000000 0.019918 0.000000
# 6 0.000000 0.000000 0.000000 0.000000 0.000000 0.029896
#
#
# Mechanical properties :
#
#
# Convention : Reuss Voigt Hill
#
# Bulk Modulus (GPa) = 54.82810 55.23791 55.03300
# Shear Modulus (GPa) = 16.38248 29.86825 23.12536
#
# Velocity S-wave (km/s) = 2.84244 3.83801 3.37711
# Velocity P-wave (km/s) = 6.14919 6.84707 6.50749
#
# Compressibility (1/GPa) = 0.01823882
#
# Stress axis : x y z
#
# Youngs Moduli (GPa) = 20.52926 18.24013 86.98504
#
# Poissons Ratio (x) = 0.76927 0.17481
# Poissons Ratio (y) = 0.86581 0.36638
# Poissons Ratio (z) = 0.04126 0.07683
#
# Static dielectric constant tensor:
#      x y z
#    x 1.766360 0.000000 0.000000 
#    y 0.000000 1.705550 0.000000 
#    z 0.000000 0.000000 1.813130 
# 
# From -- ./inp_files/4569.got.cif
#   From: 2010.05.17/outbox.cif.g08.bks.cpg/sg60_3_cif.got.tgz:4569.got - 2010.06.03 14:59:27.
