data_PCOD9455214
_publ_section_title
;
Structure prediction by ZEFSAII (Michael W. Deem and Ramdas Pophale) SiO2 
 PCOD9455214
Probable space group: P B C N
;
_chemical_formula_sum "Si O2"
_cell_formula_units_Z 60
_cell_length_a 12.332646
_cell_length_b 27.339517
_cell_length_c 8.578992
_cell_angle_alpha 90.000000
_cell_angle_beta 90.000000
_cell_angle_gamma 90.000000
_cell_volume 2892.566593
_symmetry_space_group_name_H-M "P B C N"
_symmetry_group_IT_number 60
_symmetry_cell_setting 'orthorhombic'
loop_
_space_group_symop_operation_xyz
x,y,z
1/2-x,1/2-y,1/2+z
1/2+x,1/2-y,-z
-x,y,1/2-z
-x,-y,-z
1/2+x,1/2+y,1/2-z
1/2-x,1/2+y,z
x,-y,1/2+z
loop_
_atom_site_type_symbol
_atom_site_label
_atom_site_fract_x
_atom_site_fract_y
_atom_site_fract_z
Si Si1 0.447241 0.665979 0.583336
Si Si2 0.119345 0.444984 0.110071
Si Si3 0.107430 0.274229 0.551467
Si Si4 0.361104 0.958857 0.444489
Si Si5 0.193769 0.657216 0.506123
Si Si6 0.890401 0.623406 0.316948
Si Si7 0.000000 0.831498 0.750000
Si Si8 0.826780 0.746743 0.792199
O O1 0.500000 0.651721 0.750000
O O2 0.464538 0.725230 0.564933
O O3 0.317351 0.658361 0.569752
O O4 0.488878 0.643023 0.419060
O O5 0.181490 0.451287 0.272584
O O6 0.131930 0.388364 0.077284
O O7 0.990802 0.455290 0.091193
O O8 0.167489 0.486964 0.000050
O O9 0.066979 0.327865 0.595611
O O10 0.156605 0.277290 0.377231
O O11 0.205259 0.262213 0.669776
O O12 0.336971 0.916133 0.568619
O O13 0.183941 0.643448 0.323479
O O14 0.144274 0.707899 0.571951
O O15 0.000000 0.598518 0.250000
O O16 0.898644 0.795062 0.777044
#
# Coordination Sequence:
#
# PCOD9455214 Si02
#       8
#     8   8   8   8   8   8   4   8
#     4  10  23  40  60  80 116 161 204 251 304 344
#     4  10  20  37  57  82 121 148 193 225 283 359
#     4  10  21  36  51  82 111 154 196 245 294 351
#     4  10  21  35  57  84 116 159 179 230 288 354
#     4  11  23  37  55  87 116 152 201 244 288 367
#     4  12  22  33  54  82 118 154 192 234 294 356
#     4  10  22  36  56  80 110 156 202 250 298 360
#     4  10  22  35  55  77 114 149 199 248 291 348
#
# _framework density 20.742822
#
# number of rings (size 3 to 8) (size 9 to 14) (size 15 to 20)
#    0.000    1.600    1.333    4.400   11.200    1.067 
#    2.400    0.000    0.000    0.000    0.000    3.733 
#    0.000    0.000    0.000    0.000    0.000    0.000 
#
# Total GULP energy -334284.707187 kJ/mol
# GULP energy per Si atom -5571.411786 kJ/mol
# Density = 2.069561 g / cm^3
# Si number density = 20.742822 Si / 1000 Ang^3
#
#
#
# Elastic Constant Matrix: (Units=GPa)
#
#
# Indices 1 2 3 4 5 6 
#
# 1 38.7939 -10.3513 19.2973 0.0000 0.0000 0.0000
# 2 -10.3513 42.4738 -8.3417 0.0000 0.0000 0.0000
# 3 19.2973 -8.3417 124.6893 0.0000 0.0000 0.0000
# 4 0.0000 0.0000 0.0000 13.4083 0.0000 0.0000
# 5 0.0000 0.0000 0.0000 0.0000 29.5359 0.0000
# 6 0.0000 0.0000 0.0000 0.0000 0.0000 12.4723
#
#
#
# Elastic Compliance Matrix: (Units=1/GPa)
#
#
# Indices 1 2 3 4 5 6 
#
# 1 0.029543 0.006386 -0.004145 0.000000 0.000000 0.000000
# 2 0.006386 0.025238 0.000700 0.000000 0.000000 0.000000
# 3 -0.004145 0.000700 0.008708 0.000000 0.000000 0.000000
# 4 0.000000 0.000000 0.000000 0.074581 0.000000 0.000000
# 5 0.000000 0.000000 0.000000 0.000000 0.033857 0.000000
# 6 0.000000 0.000000 0.000000 0.000000 0.000000 0.080177
#
#
# Mechanical properties :
#
#
# Convention : Reuss Voigt Hill
#
# Bulk Modulus (GPa) = 14.41522 23.01840 18.71681
# Shear Modulus (GPa) = 18.56349 24.77349 21.66849
#
# Velocity S-wave (km/s) = 2.99479 3.45964 3.23557
# Velocity P-wave (km/s) = 4.35005 5.20384 4.79598
#
# Compressibility (1/GPa) = 0.06937111
#
# Stress axis : x y z
#
# Youngs Moduli (GPa) = 33.84895 39.62317 114.83353
#
# Poissons Ratio (x) = -0.25303 0.47598
# Poissons Ratio (y) = -0.21616 -0.08040
# Poissons Ratio (z) = 0.14030 -0.02774
#
# Static dielectric constant tensor:
#      x y z
#    x 1.780260 0.000000 0.000000 
#    y 0.000000 1.748950 0.000000 
#    z 0.000000 0.000000 1.920520 
# 
# From -- ./inp_files/6370.got.cif
#   From: 2010.05.17/outbox.cif.g08.bks.cpg/sg60_4_cif.got.tgz:6370.got - 2010.06.03 14:59:27.
