data_PCOD9455829
_publ_section_title
;
Structure prediction by ZEFSAII (Michael W. Deem and Ramdas Pophale) SiO2 
 PCOD9455829
Probable space group: P B C N
;
_chemical_formula_sum "Si O2"
_cell_formula_units_Z 64
_cell_length_a 14.998358
_cell_length_b 24.807561
_cell_length_c 8.904364
_cell_angle_alpha 90.000000
_cell_angle_beta 90.000000
_cell_angle_gamma 90.000000
_cell_volume 3313.070586
_symmetry_space_group_name_H-M "P B C N"
_symmetry_group_IT_number 60
_symmetry_cell_setting 'orthorhombic'
loop_
_space_group_symop_operation_xyz
x,y,z
1/2-x,1/2-y,1/2+z
1/2+x,1/2-y,-z
-x,y,1/2-z
-x,-y,-z
1/2+x,1/2+y,1/2-z
1/2-x,1/2+y,z
x,-y,1/2+z
loop_
_atom_site_type_symbol
_atom_site_label
_atom_site_fract_x
_atom_site_fract_y
_atom_site_fract_z
Si Si1 0.296625 0.488242 0.434835
Si Si2 0.595834 0.660683 0.778565
Si Si3 0.838392 0.821099 0.950680
Si Si4 0.473772 0.776601 0.087323
Si Si5 0.659291 0.757483 0.913728
Si Si6 0.411930 0.456781 0.171959
Si Si7 0.256123 0.918002 0.708674
Si Si8 0.903147 0.662913 0.178218
O O1 0.332948 0.454604 0.294592
O O2 0.379470 0.507080 0.536882
O O3 0.264212 0.542036 0.347920
O O4 0.237379 0.454508 0.555102
O O5 0.500000 0.689633 0.750000
O O6 0.634448 0.655408 0.611925
O O7 0.662966 0.694320 0.881395
O O8 0.571542 0.605565 0.863341
O O9 0.914999 0.778427 0.902268
O O10 0.747258 0.786610 0.971702
O O11 0.815356 0.870856 0.837728
O O12 0.500000 0.796558 0.250000
O O13 0.569221 0.766805 0.007425
O O14 0.418924 0.821174 0.993750
O O15 0.640884 0.784178 0.751812
O O16 0.500000 0.479205 0.250000
O O17 0.342489 0.885663 0.764292
O O18 0.000000 0.655406 0.250000
#
# Coordination Sequence:
#
# PCOD9455829 Si02
#       8
#     8   8   8   8   8   8   8   8
#     4  10  21  40  57  85 116 145 204 253 300 343
#     4  11  19  37  59  82 116 159 203 235 292 353
#     4  11  22  38  59  87 122 161 202 240 297 359
#     4  11  23  37  57  94 125 154 199 245 286 361
#     4  10  21  37  60  82 119 166 193 236 295 360
#     4  10  21  35  59  80 113 155 192 240 294 349
#     4  10  22  41  63  88 115 159 199 256 303 352
#     4   9  19  41  62  82 119 158 191 237 305 363
#
# _framework density 19.317428
#
# number of rings (size 3 to 8) (size 9 to 14) (size 15 to 20)
#    0.000    1.750    3.750    0.750    1.750    2.000 
#    0.000    2.500    0.000    0.000    0.000    0.000 
#    0.000    0.000    0.000    0.000    0.000    0.000 
#
# Total GULP energy -356381.909890 kJ/mol
# GULP energy per Si atom -5568.467342 kJ/mol
# Density = 1.927346 g / cm^3
# Si number density = 19.317428 Si / 1000 Ang^3
#
#
#
# Elastic Constant Matrix: (Units=GPa)
#
#
# Indices 1 2 3 4 5 6 
#
# 1 65.2144 23.0716 17.5186 0.0000 0.0000 0.0000
# 2 23.0716 67.0985 16.2459 0.0000 0.0000 0.0000
# 3 17.5186 16.2459 85.1271 0.0000 0.0000 0.0000
# 4 0.0000 0.0000 0.0000 23.0060 0.0000 0.0000
# 5 0.0000 0.0000 0.0000 0.0000 24.4623 0.0000
# 6 0.0000 0.0000 0.0000 0.0000 0.0000 25.7741
#
#
#
# Elastic Compliance Matrix: (Units=1/GPa)
#
#
# Indices 1 2 3 4 5 6 
#
# 1 0.018009 -0.005552 -0.002647 0.000000 0.000000 0.000000
# 2 -0.005552 0.017337 -0.002166 0.000000 0.000000 0.000000
# 3 -0.002647 -0.002166 0.012705 0.000000 0.000000 0.000000
# 4 0.000000 0.000000 0.000000 0.043467 0.000000 0.000000
# 5 0.000000 0.000000 0.000000 0.000000 0.040879 0.000000
# 6 0.000000 0.000000 0.000000 0.000000 0.000000 0.038799
#
#
# Mechanical properties :
#
#
# Convention : Reuss Voigt Hill
#
# Bulk Modulus (GPa) = 36.60004 36.79023 36.69514
# Shear Modulus (GPa) = 24.87165 25.35540 25.11353
#
# Velocity S-wave (km/s) = 3.59210 3.62687 3.60953
# Velocity P-wave (km/s) = 6.01598 6.05189 6.03396
#
# Compressibility (1/GPa) = 0.02732237
#
# Stress axis : x y z
#
# Youngs Moduli (GPa) = 55.52767 57.68078 78.70800
#
# Poissons Ratio (x) = 0.32022 0.20831
# Poissons Ratio (y) = 0.30826 0.17049
# Poissons Ratio (z) = 0.14696 0.12494
#
# Static dielectric constant tensor:
#      x y z
#    x 1.702200 0.000000 0.000000 
#    y 0.000000 1.765360 0.000000 
#    z 0.000000 0.000000 1.699720 
# 
# From -- ./inp_files/6333.got.cif
#   From: 2010.05.17/outbox.cif.g08.bks.cpg/sg60_4_cif.got.tgz:6333.got - 2010.06.03 14:59:27.
