data_PCOD9455824
_publ_section_title
;
Structure prediction by ZEFSAII (Michael W. Deem and Ramdas Pophale) SiO2 
 PCOD9455824
Probable space group: P B C N
;
_chemical_formula_sum "Si O2"
_cell_formula_units_Z 28
_cell_length_a 13.023135
_cell_length_b 18.735527
_cell_length_c 5.214145
_cell_angle_alpha 90.000000
_cell_angle_beta 90.000000
_cell_angle_gamma 90.000000
_cell_volume 1272.226860
_symmetry_space_group_name_H-M "P B C N"
_symmetry_group_IT_number 60
_symmetry_cell_setting 'orthorhombic'
loop_
_space_group_symop_operation_xyz
x,y,z
1/2-x,1/2-y,1/2+z
1/2+x,1/2-y,-z
-x,y,1/2-z
-x,-y,-z
1/2+x,1/2+y,1/2-z
1/2-x,1/2+y,z
x,-y,1/2+z
loop_
_atom_site_type_symbol
_atom_site_label
_atom_site_fract_x
_atom_site_fract_y
_atom_site_fract_z
Si Si1 0.500000 0.949539 0.250000
Si Si2 0.183467 0.826227 0.757499
Si Si3 0.885980 0.971619 0.562636
Si Si4 0.178522 0.666975 0.755491
O O1 0.402913 0.896097 0.271046
O O2 0.500000 0.000000 0.500000
O O3 0.134749 0.747889 0.783078
O O4 0.235279 0.836934 0.479652
O O5 0.112134 0.891804 0.835196
O O6 0.271530 0.832163 0.973896
O O7 0.833650 0.017813 0.786878
O O8 0.000000 0.000000 0.500000
#
# Coordination Sequence:
#
# PCOD9455824 Si02
#       4
#     4   8   8   8
#     4  12  26  42  62  92 126 162 210 262 314 368
#     4  10  21  41  64  88 119 159 207 247 305 373
#     4  10  21  35  55  89 123 152 186 235 299 358
#     4  10  23  41  63  87 117 163 206 253 302 360
#
# _framework density 22.008652999999999
#
# number of rings (size 3 to 8) (size 9 to 14) (size 15 to 20)
#    0.000    1.714    0.000    3.429    0.000    9.143 
#    0.000    8.571    0.000    0.000    0.000    0.000 
#    0.000    0.000    0.000    0.000    0.000    0.000 
#
# Total GULP energy -156309.319921 kJ/mol
# GULP energy per Si atom -5582.475711 kJ/mol
# Density = 2.195856 g / cm^3
# Si number density = 22.008653 Si / 1000 Ang^3
#
#
#
# Elastic Constant Matrix: (Units=GPa)
#
#
# Indices 1 2 3 4 5 6 
#
# 1 54.5729 64.9209 7.6448 0.0000 0.0000 0.0000
# 2 64.9209 216.6197 44.0215 0.0000 0.0000 0.0000
# 3 7.6448 44.0215 153.2287 0.0000 0.0000 0.0000
# 4 0.0000 0.0000 0.0000 42.0306 0.0000 0.0000
# 5 0.0000 0.0000 0.0000 0.0000 21.2442 0.0000
# 6 0.0000 0.0000 0.0000 0.0000 0.0000 43.7935
#
#
#
# Elastic Compliance Matrix: (Units=1/GPa)
#
#
# Indices 1 2 3 4 5 6 
#
# 1 0.028651 -0.008811 0.001102 0.000000 0.000000 0.000000
# 2 -0.008811 0.007612 -0.001747 0.000000 0.000000 0.000000
# 3 0.001102 -0.001747 0.006973 0.000000 0.000000 0.000000
# 4 0.000000 0.000000 0.000000 0.023792 0.000000 0.000000
# 5 0.000000 0.000000 0.000000 0.000000 0.047072 0.000000
# 6 0.000000 0.000000 0.000000 0.000000 0.000000 0.022834
#
#
# Mechanical properties :
#
#
# Convention : Reuss Voigt Hill
#
# Bulk Modulus (GPa) = 41.11168 73.06619 57.08894
# Shear Modulus (GPa) = 30.49618 41.93592 36.21605
#
# Velocity S-wave (km/s) = 3.72646 4.36986 4.06092
# Velocity P-wave (km/s) = 6.10211 7.66367 6.92703
#
# Compressibility (1/GPa) = 0.02432399
#
# Stress axis : x y z
#
# Youngs Moduli (GPa) = 34.90275 131.37134 143.40598
#
# Poissons Ratio (x) = 1.15746 -0.15800
# Poissons Ratio (y) = 0.30751 0.25057
# Poissons Ratio (z) = -0.03846 0.22955
#
# Static dielectric constant tensor:
#      x y z
#    x 2.101440 0.000000 0.000000 
#    y 0.000000 1.858640 0.000000 
#    z 0.000000 0.000000 2.012460 
# 
# From -- ./inp_files/1020.got.cif
#   From: 2010.05.17/outbox.cif.g08.bks.cpg/sg60_1_cif.got.tgz:1020.got - 2010.06.03 14:59:27.
