data_PCOD9455556
_publ_section_title
;
Structure prediction by ZEFSAII (Michael W. Deem and Ramdas Pophale) SiO2 
 PCOD9455556
Probable space group: P B C N
;
_chemical_formula_sum "Si O2"
_cell_formula_units_Z 40
_cell_length_a 9.323495
_cell_length_b 13.365086
_cell_length_c 14.069341
_cell_angle_alpha 90.000000
_cell_angle_beta 90.000000
_cell_angle_gamma 90.000000
_cell_volume 1753.170909
_symmetry_space_group_name_H-M "P B C N"
_symmetry_group_IT_number 60
_symmetry_cell_setting 'orthorhombic'
loop_
_space_group_symop_operation_xyz
x,y,z
1/2-x,1/2-y,1/2+z
1/2+x,1/2-y,-z
-x,y,1/2-z
-x,-y,-z
1/2+x,1/2+y,1/2-z
1/2-x,1/2+y,z
x,-y,1/2+z
loop_
_atom_site_type_symbol
_atom_site_label
_atom_site_fract_x
_atom_site_fract_y
_atom_site_fract_z
Si Si1 0.603471 0.631747 0.839919
Si Si2 0.037041 0.069571 0.360241
Si Si3 0.388803 0.918300 0.095048
Si Si4 0.296068 0.053820 0.929253
Si Si5 0.427692 0.720415 0.985061
O O1 0.500000 0.638650 0.750000
O O2 0.554328 0.528540 0.890675
O O3 0.771765 0.615620 0.827136
O O4 0.556879 0.720608 0.908857
O O5 0.000000 0.087534 0.250000
O O6 0.989589 0.161440 0.424011
O O7 0.197927 0.030277 0.378470
O O8 0.553466 0.929626 0.123683
O O9 0.383289 0.828944 0.017842
O O10 0.340292 0.015197 0.034717
O O11 0.201084 0.154138 0.940662
#
# Coordination Sequence:
#
# PCOD9455556 Si02
#       5
#     8   8   8   8   8
#     4  10  20  40  64  88 125 174 209 257 329 381
#     4  10  20  40  62  85 122 177 212 249 326 386
#     4  11  21  37  66  95 123 159 217 268 312 373
#     4  10  21  38  64  92 126 160 208 270 315 370
#     4  11  20  40  65  89 127 175 213 250 324 385
#
# _framework density 22.815802000000001
#
# number of rings (size 3 to 8) (size 9 to 14) (size 15 to 20)
#    0.000    1.600    4.000    2.400    0.000    0.000 
#    3.600   11.000    0.000    0.000    0.000    0.000 
#    0.000    0.000    0.000    0.000    0.000    0.000 
#
# Total GULP energy -223427.194342 kJ/mol
# GULP energy per Si atom -5585.679859 kJ/mol
# Density = 2.276387 g / cm^3
# Si number density = 22.815802 Si / 1000 Ang^3
#
#
#
# Elastic Constant Matrix: (Units=GPa)
#
#
# Indices 1 2 3 4 5 6 
#
# 1 204.5353 3.1971 39.7913 0.0000 0.0000 0.0000
# 2 3.1971 48.3523 -6.6251 0.0000 0.0000 0.0000
# 3 39.7913 -6.6251 64.7395 0.0000 0.0000 0.0000
# 4 0.0000 0.0000 0.0000 12.7537 0.0000 0.0000
# 5 0.0000 0.0000 0.0000 0.0000 27.5394 0.0000
# 6 0.0000 0.0000 0.0000 0.0000 0.0000 19.7196
#
#
#
# Elastic Compliance Matrix: (Units=1/GPa)
#
#
# Indices 1 2 3 4 5 6 
#
# 1 0.005588 -0.000852 -0.003521 0.000000 0.000000 0.000000
# 2 -0.000852 0.021106 0.002683 0.000000 0.000000 0.000000
# 3 -0.003521 0.002683 0.017886 0.000000 0.000000 0.000000
# 4 0.000000 0.000000 0.000000 0.078409 0.000000 0.000000
# 5 0.000000 0.000000 0.000000 0.000000 0.036312 0.000000
# 6 0.000000 0.000000 0.000000 0.000000 0.000000 0.050711
#
#
# Mechanical properties :
#
#
# Convention : Reuss Voigt Hill
#
# Bulk Modulus (GPa) = 24.27260 43.37263 33.82261
# Shear Modulus (GPa) = 22.01453 30.75346 26.38400
#
# Velocity S-wave (km/s) = 3.10962 3.67536 3.40426
# Velocity P-wave (km/s) = 4.85331 6.08787 5.50531
#
# Compressibility (1/GPa) = 0.04119872
#
# Stress axis : x y z
#
# Youngs Moduli (GPa) = 178.96975 47.38089 55.91100
#
# Poissons Ratio (x) = 0.04037 0.19689
# Poissons Ratio (y) = 0.15248 -0.15004
# Poissons Ratio (z) = 0.63024 -0.12715
#
# Static dielectric constant tensor:
#      x y z
#    x 1.935700 0.000000 0.000000 
#    y 0.000000 1.831060 0.000000 
#    z 0.000000 0.000000 1.874040 
# 
# From -- ./inp_files/14629.got.cif
#   From: 2010.05.17/outbox.cif.g08.bks.cpg/sg60_8_cif.got.tgz:14629.got - 2010.06.03 14:59:27.
