data_PCOD9455558
_publ_section_title
;
Structure prediction by ZEFSAII (Michael W. Deem and Ramdas Pophale) SiO2 
 PCOD9455558
Probable space group: P B C N
;
_chemical_formula_sum "Si O2"
_cell_formula_units_Z 44
_cell_length_a 5.615061
_cell_length_b 12.947189
_cell_length_c 25.124794
_cell_angle_alpha 90.000000
_cell_angle_beta 90.000000
_cell_angle_gamma 90.000000
_cell_volume 1826.553831
_symmetry_space_group_name_H-M "P B C N"
_symmetry_group_IT_number 60
_symmetry_cell_setting 'orthorhombic'
loop_
_space_group_symop_operation_xyz
x,y,z
1/2-x,1/2-y,1/2+z
1/2+x,1/2-y,-z
-x,y,1/2-z
-x,-y,-z
1/2+x,1/2+y,1/2-z
1/2-x,1/2+y,z
x,-y,1/2+z
loop_
_atom_site_type_symbol
_atom_site_label
_atom_site_fract_x
_atom_site_fract_y
_atom_site_fract_z
Si Si1 0.209403 0.750827 0.892897
Si Si2 0.058412 0.535429 0.630872
Si Si3 0.254390 0.070717 0.455424
Si Si4 0.752198 0.785575 0.728687
Si Si5 0.000000 0.580213 0.750000
Si Si6 0.421784 0.386907 0.061338
O O1 0.062956 0.646363 0.882934
O O2 0.093999 0.839482 0.928826
O O3 0.249894 0.793313 0.834319
O O4 0.454443 0.719051 0.922565
O O5 0.955530 0.451993 0.589074
O O6 0.019739 0.521660 0.693764
O O7 0.329653 0.557141 0.614588
O O8 0.282435 0.110476 0.515980
O O9 0.129941 0.960004 0.460590
O O10 0.500000 0.821029 0.750000
O O11 0.785261 0.664274 0.745232
O O12 0.000000 0.835075 0.750000
#
# Coordination Sequence:
#
# PCOD9455558 Si02
#       6
#     8   8   8   8   4   8
#     4  10  22  37  61  92 122 167 221 259 330 392
#     4  10  20  40  62  89 128 164 212 264 326 395
#     4  10  23  40  57  97 122 162 217 270 323 396
#     4   9  18  36  60  91 127 167 216 271 323 391
#     4   8  18  34  62  88 122 170 210 258 336 388
#     4  10  22  40  63  84 130 165 205 276 328 390
#
# _framework density 24.089081
#
# number of rings (size 3 to 8) (size 9 to 14) (size 15 to 20)
#    0.545    1.818    0.000    1.636    2.545    1.455 
#    1.636    0.000    0.000    0.000    0.000    0.000 
#    0.000    0.000    0.000    0.000    0.000    0.000 
#
# Total GULP energy -245139.363162 kJ/mol
# GULP energy per Si atom -5571.349163 kJ/mol
# Density = 2.403425 g / cm^3
# Si number density = 24.089081 Si / 1000 Ang^3
#
#
#
# Elastic Constant Matrix: (Units=GPa)
#
#
# Indices 1 2 3 4 5 6 
#
# 1 60.8357 4.2854 27.9069 0.0000 0.0000 0.0000
# 2 4.2854 79.6754 41.9285 0.0000 0.0000 0.0000
# 3 27.9069 41.9285 175.7334 0.0000 0.0000 0.0000
# 4 0.0000 0.0000 0.0000 28.5632 0.0000 0.0000
# 5 0.0000 0.0000 0.0000 0.0000 19.3020 0.0000
# 6 0.0000 0.0000 0.0000 0.0000 0.0000 5.2279
#
#
#
# Elastic Compliance Matrix: (Units=1/GPa)
#
#
# Indices 1 2 3 4 5 6 
#
# 1 0.017755 0.000605 -0.002964 0.000000 0.000000 0.000000
# 2 0.000605 0.014374 -0.003525 0.000000 0.000000 0.000000
# 3 -0.002964 -0.003525 0.007002 0.000000 0.000000 0.000000
# 4 0.000000 0.000000 0.000000 0.035010 0.000000 0.000000
# 5 0.000000 0.000000 0.000000 0.000000 0.051808 0.000000
# 6 0.000000 0.000000 0.000000 0.000000 0.000000 0.191282
#
#
# Mechanical properties :
#
#
# Convention : Reuss Voigt Hill
#
# Bulk Modulus (GPa) = 36.54766 51.60957 44.07862
# Shear Modulus (GPa) = 14.78762 26.76019 20.77390
#
# Velocity S-wave (km/s) = 2.48033 3.33661 2.93981
# Velocity P-wave (km/s) = 4.83813 6.02619 5.46454
#
# Compressibility (1/GPa) = 0.02736153
#
# Stress axis : x y z
#
# Youngs Moduli (GPa) = 56.32315 69.57182 142.81152
#
# Poissons Ratio (x) = -0.04207 0.42326
# Poissons Ratio (y) = -0.03406 0.50348
# Poissons Ratio (z) = 0.16693 0.24527
#
# Static dielectric constant tensor:
#      x y z
#    x 2.057740 0.000000 0.000000 
#    y 0.000000 1.971010 0.000000 
#    z 0.000000 0.000000 1.939000 
# 
# From -- ./inp_files/24819.got.cif
#   From: 2010.05.17/outbox.cif.g08.bks.cpg/sg60_13_cif.got.tgz:24819.got - 2010.06.03 14:59:27.
