data_PCOD9455308
_publ_section_title
;
Structure prediction by ZEFSAII (Michael W. Deem and Ramdas Pophale) SiO2 
 PCOD9455308
Probable space group: P B C N
;
_chemical_formula_sum "Si O2"
_cell_formula_units_Z 48
_cell_length_a 8.845988
_cell_length_b 15.321988
_cell_length_c 18.037729
_cell_angle_alpha 90.000000
_cell_angle_beta 90.000000
_cell_angle_gamma 90.000000
_cell_volume 2444.799914
_symmetry_space_group_name_H-M "P B C N"
_symmetry_group_IT_number 60
_symmetry_cell_setting 'orthorhombic'
loop_
_space_group_symop_operation_xyz
x,y,z
1/2-x,1/2-y,1/2+z
1/2+x,1/2-y,-z
-x,y,1/2-z
-x,-y,-z
1/2+x,1/2+y,1/2-z
1/2-x,1/2+y,z
x,-y,1/2+z
loop_
_atom_site_type_symbol
_atom_site_label
_atom_site_fract_x
_atom_site_fract_y
_atom_site_fract_z
Si Si1 0.427835 0.419805 0.951915
Si Si2 0.819576 0.517762 0.648450
Si Si3 0.738011 0.846876 0.422885
Si Si4 0.063891 0.401040 0.486034
Si Si5 0.826196 0.499258 0.310847
Si Si6 0.278664 0.341138 0.619267
O O1 0.293877 0.453455 0.896364
O O2 0.555927 0.370854 0.906037
O O3 0.500000 0.500000 0.000000
O O4 0.363548 0.355451 0.014552
O O5 0.838930 0.594932 0.589211
O O6 0.773687 0.539785 0.732074
O O7 0.994902 0.491733 0.668326
O O8 0.581560 0.844079 0.468582
O O9 0.737082 0.935139 0.374283
O O10 0.742028 0.761532 0.372551
O O11 0.165095 0.370482 0.553385
O O12 0.000000 0.500000 0.500000
O O13 0.763707 0.597066 0.312837
#
# Coordination Sequence:
#
# PCOD9455308 Si02
#       6
#     8   8   8   8   8   8
#     4  12  20  37  61  92 118 150 203 254 293 335
#     4  10  20  37  67  81 113 164 199 234 302 353
#     4  11  22  38  60  88 120 156 199 239 294 360
#     4  11  17  39  63  82 111 157 203 237 287 355
#     4  10  21  41  61  81 122 164 192 234 298 374
#     4  12  22  36  62  89 120 153 194 252 299 341
#
# _framework density 19.633509
#
# number of rings (size 3 to 8) (size 9 to 14) (size 15 to 20)
#    0.000    1.000    8.333    1.000    0.000    0.667 
#    0.000    8.333    7.333    0.000    0.000    0.000 
#    0.000    0.000    0.000    0.000    0.000    0.000 
#
# Total GULP energy -267345.426375 kJ/mol
# GULP energy per Si atom -5569.696383 kJ/mol
# Density = 1.958882 g / cm^3
# Si number density = 19.633509 Si / 1000 Ang^3
#
#
#
# Elastic Constant Matrix: (Units=GPa)
#
#
# Indices 1 2 3 4 5 6 
#
# 1 16.7697 1.9848 -2.5612 0.0000 0.0000 0.0000
# 2 1.9848 56.8618 -19.7896 0.0000 0.0000 0.0000
# 3 -2.5612 -19.7896 66.3667 0.0000 0.0000 0.0000
# 4 0.0000 0.0000 0.0000 15.6573 0.0000 0.0000
# 5 0.0000 0.0000 0.0000 0.0000 17.2866 0.0000
# 6 0.0000 0.0000 0.0000 0.0000 0.0000 15.1221
#
#
#
# Elastic Compliance Matrix: (Units=1/GPa)
#
#
# Indices 1 2 3 4 5 6 
#
# 1 0.060090 -0.001440 0.001890 0.000000 0.000000 0.000000
# 2 -0.001440 0.019657 0.005806 0.000000 0.000000 0.000000
# 3 0.001890 0.005806 0.016872 0.000000 0.000000 0.000000
# 4 0.000000 0.000000 0.000000 0.063868 0.000000 0.000000
# 5 0.000000 0.000000 0.000000 0.000000 0.057848 0.000000
# 6 0.000000 0.000000 0.000000 0.000000 0.000000 0.066128
#
#
# Mechanical properties :
#
#
# Convention : Reuss Voigt Hill
#
# Bulk Modulus (GPa) = 9.16327 11.02958 10.09642
# Shear Modulus (GPa) = 16.21639 20.30413 18.26026
#
# Velocity S-wave (km/s) = 2.87706 3.21932 3.05299
# Velocity P-wave (km/s) = 3.96408 4.41006 4.19300
#
# Compressibility (1/GPa) = 0.10913133
#
# Stress axis : x y z
#
# Youngs Moduli (GPa) = 16.64163 50.87139 59.26981
#
# Poissons Ratio (x) = 0.07325 -0.11200
# Poissons Ratio (y) = 0.02396 -0.34412
# Poissons Ratio (z) = -0.03145 -0.29536
#
# Static dielectric constant tensor:
#      x y z
#    x 1.739050 0.000000 0.000000 
#    y 0.000000 1.715570 0.000000 
#    z 0.000000 0.000000 1.779710 
# 
# From -- ./inp_files/19277.got.cif
#   From: 2010.05.17/outbox.cif.g08.bks.cpg/sg60_10_cif.got.tgz:19277.got - 2010.06.03 14:59:27.
