data_PCOD9455863
_publ_section_title
;
Structure prediction by ZEFSAII (Michael W. Deem and Ramdas Pophale) SiO2 
 PCOD9455863
Probable space group: P B C N
;
_chemical_formula_sum "Si O2"
_cell_formula_units_Z 60
_cell_length_a 8.329267
_cell_length_b 9.273998
_cell_length_c 31.079915
_cell_angle_alpha 90.000000
_cell_angle_beta 90.000000
_cell_angle_gamma 90.000000
_cell_volume 2400.786853
_symmetry_space_group_name_H-M "P B C N"
_symmetry_group_IT_number 60
_symmetry_cell_setting 'orthorhombic'
loop_
_space_group_symop_operation_xyz
x,y,z
1/2-x,1/2-y,1/2+z
1/2+x,1/2-y,-z
-x,y,1/2-z
-x,-y,-z
1/2+x,1/2+y,1/2-z
1/2-x,1/2+y,z
x,-y,1/2+z
loop_
_atom_site_type_symbol
_atom_site_label
_atom_site_fract_x
_atom_site_fract_y
_atom_site_fract_z
Si Si1 0.324150 0.852383 0.531139
Si Si2 0.788012 0.708865 0.640496
Si Si3 0.785521 0.130531 0.276927
Si Si4 0.708910 0.123325 0.913072
Si Si5 0.000000 0.000000 0.500000
Si Si6 0.906537 0.755071 0.554685
Si Si7 0.119160 0.412396 0.178595
Si Si8 0.383223 0.517743 0.313648
O O1 0.339735 0.694525 0.554785
O O2 0.424715 0.844220 0.487713
O O3 0.351416 0.973877 0.566757
O O4 0.146875 0.889711 0.513367
O O5 0.775536 0.698974 0.588983
O O6 0.823078 0.875832 0.649171
O O7 0.645951 0.641185 0.668555
O O8 0.942979 0.626069 0.661110
O O9 0.824436 0.297438 0.285280
O O10 0.788212 0.073736 0.228526
O O11 0.935269 0.051180 0.300297
O O12 0.631813 0.070495 0.301634
O O13 0.566878 0.239712 0.916815
O O14 0.735258 0.103383 0.863022
O O15 0.116875 0.087413 0.464778
#
# Coordination Sequence:
#
# PCOD9455863 Si02
#       8
#     8   8   8   8   4   8   8   8
#     4  11  20  38  57  87 115 162 200 251 301 363
#     4  10  23  40  62  90 128 160 209 256 312 372
#     4  10  21  39  64  87 124 157 207 250 319 375
#     4  10  21  36  58  83 122 149 208 247 299 360
#     4  10  22  38  60  88 116 164 202 250 306 368
#     4  10  22  39  60  86 123 161 206 253 308 363
#     4  10  21  40  61  89 119 164 202 258 308 375
#     4  10  22  40  60  93 121 162 201 260 311 378
#
# _framework density 24.991806
#
# number of rings (size 3 to 8) (size 9 to 14) (size 15 to 20)
#    0.000    1.867    1.333    2.000    1.867    3.733 
#    0.000    0.000    0.000    0.000    0.000    0.000 
#    0.000    0.000    0.000    0.000    0.000    0.000 
#
# Total GULP energy -334017.910148 kJ/mol
# GULP energy per Si atom -5566.965169 kJ/mol
# Density = 2.493492 g / cm^3
# Si number density = 24.991806 Si / 1000 Ang^3
#
#
#
# Elastic Constant Matrix: (Units=GPa)
#
#
# Indices 1 2 3 4 5 6 
#
# 1 24.6042 1.7216 -7.2999 0.0000 0.0000 0.0000
# 2 1.7216 81.3996 33.0087 0.0000 0.0000 0.0000
# 3 -7.2999 33.0087 115.8204 0.0000 0.0000 0.0000
# 4 0.0000 0.0000 0.0000 39.4066 0.0000 0.0000
# 5 0.0000 0.0000 0.0000 0.0000 27.2024 0.0000
# 6 0.0000 0.0000 0.0000 0.0000 0.0000 29.9719
#
#
#
# Elastic Compliance Matrix: (Units=1/GPa)
#
#
# Indices 1 2 3 4 5 6 
#
# 1 0.041765 -0.002206 0.003261 0.000000 0.000000 0.000000
# 2 -0.002206 0.014007 -0.004131 0.000000 0.000000 0.000000
# 3 0.003261 -0.004131 0.010017 0.000000 0.000000 0.000000
# 4 0.000000 0.000000 0.000000 0.025376 0.000000 0.000000
# 5 0.000000 0.000000 0.000000 0.000000 0.036761 0.000000
# 6 0.000000 0.000000 0.000000 0.000000 0.000000 0.033365
#
#
# Mechanical properties :
#
#
# Convention : Reuss Voigt Hill
#
# Bulk Modulus (GPa) = 16.76791 30.74276 23.75533
# Shear Modulus (GPa) = 26.69199 32.27577 29.48388
#
# Velocity S-wave (km/s) = 3.27162 3.59758 3.43846
# Velocity P-wave (km/s) = 4.58206 5.43917 5.02891
#
# Compressibility (1/GPa) = 0.05963774
#
# Stress axis : x y z
#
# Youngs Moduli (GPa) = 23.94334 71.39342 99.83111
#
# Poissons Ratio (x) = 0.15747 -0.32555
# Poissons Ratio (y) = 0.05281 0.41240
# Poissons Ratio (z) = -0.07808 0.29492
#
# Static dielectric constant tensor:
#      x y z
#    x 1.942730 0.000000 0.000000 
#    y 0.000000 2.010850 0.000000 
#    z 0.000000 0.000000 1.999290 
# 
# From -- ./inp_files/26083.got.cif
#   From: 2010.05.17/outbox.cif.g08.bks.cpg/sg60_14_cif.got.tgz:26083.got - 2010.06.03 14:59:27.
