data_PCOD9455912
_publ_section_title
;
Structure prediction by ZEFSAII (Michael W. Deem and Ramdas Pophale) SiO2 
 PCOD9455912
Probable space group: P B C N
;
_chemical_formula_sum "Si O2"
_cell_formula_units_Z 64
_cell_length_a 20.738842
_cell_length_b 18.624924
_cell_length_c 8.197047
_cell_angle_alpha 90.000000
_cell_angle_beta 90.000000
_cell_angle_gamma 90.000000
_cell_volume 3166.186096
_symmetry_space_group_name_H-M "P B C N"
_symmetry_group_IT_number 60
_symmetry_cell_setting 'orthorhombic'
loop_
_space_group_symop_operation_xyz
x,y,z
1/2-x,1/2-y,1/2+z
1/2+x,1/2-y,-z
-x,y,1/2-z
-x,-y,-z
1/2+x,1/2+y,1/2-z
1/2-x,1/2+y,z
x,-y,1/2+z
loop_
_atom_site_type_symbol
_atom_site_label
_atom_site_fract_x
_atom_site_fract_y
_atom_site_fract_z
Si Si1 0.390661 0.459985 0.340788
Si Si2 0.252812 0.888397 0.973418
Si Si3 0.429121 0.399143 0.676480
Si Si4 0.242618 0.533864 0.814684
Si Si5 0.570026 0.256510 0.686801
Si Si6 0.695536 0.238658 0.213024
Si Si7 0.113490 0.159667 0.607110
Si Si8 0.189485 0.669115 0.929907
O O1 0.427559 0.432584 0.497945
O O2 0.395364 0.542817 0.293093
O O3 0.315172 0.445537 0.369318
O O4 0.411153 0.413774 0.183790
O O5 0.267140 0.935943 0.133033
O O6 0.181063 0.856392 0.009956
O O7 0.298542 0.822020 0.925779
O O8 0.259161 0.948495 0.832762
O O9 0.500000 0.394204 0.750000
O O10 0.402747 0.318125 0.690184
O O11 0.195990 0.583590 0.921170
O O12 0.500000 0.232754 0.750000
O O13 0.566138 0.300496 0.515570
O O14 0.622201 0.196174 0.645959
O O15 0.633162 0.288414 0.242369
O O16 0.754453 0.293012 0.177745
O O17 0.699945 0.198058 0.387077
#
# Coordination Sequence:
#
# PCOD9455912 Si02
#       8
#     8   8   8   8   8   8   8   8
#     4  11  21  34  55  78 115 153 197 251 292 346
#     4  11  20  35  54  87 127 151 192 242 301 374
#     4  11  23  37  54  78 112 164 208 239 287 350
#     4  11  22  34  54  91 118 156 198 241 316 357
#     4  10  22  39  57  80 114 157 202 240 285 354
#     4  11  19  35  56  84 122 153 187 249 302 360
#     4  10  21  37  56  89 118 153 200 247 297 361
#     4  11  21  35  58  85 118 151 196 236 305 354
#
# _framework density 20.213592999999999
#
# number of rings (size 3 to 8) (size 9 to 14) (size 15 to 20)
#    0.000    1.250    5.000    4.125    1.750    2.000 
#    0.000    0.000    0.000    0.000    0.000    7.875 
#    0.000    0.000    0.000    0.000    0.000    0.000 
#
# Total GULP energy -357238.484625 kJ/mol
# GULP energy per Si atom -5581.851322 kJ/mol
# Density = 2.016759 g / cm^3
# Si number density = 20.213593 Si / 1000 Ang^3
#
#
#
# Elastic Constant Matrix: (Units=GPa)
#
#
# Indices 1 2 3 4 5 6 
#
# 1 26.7572 18.2584 6.7759 0.0000 0.0000 0.0000
# 2 18.2584 92.4756 8.0102 0.0000 0.0000 0.0000
# 3 6.7759 8.0102 50.6851 0.0000 0.0000 0.0000
# 4 0.0000 0.0000 0.0000 37.6320 0.0000 0.0000
# 5 0.0000 0.0000 0.0000 0.0000 23.0537 0.0000
# 6 0.0000 0.0000 0.0000 0.0000 0.0000 23.0580
#
#
#
# Elastic Compliance Matrix: (Units=1/GPa)
#
#
# Indices 1 2 3 4 5 6 
#
# 1 0.044223 -0.008333 -0.004595 0.000000 0.000000 0.000000
# 2 -0.008333 0.012534 -0.000867 0.000000 0.000000 0.000000
# 3 -0.004595 -0.000867 0.020481 0.000000 0.000000 0.000000
# 4 0.000000 0.000000 0.000000 0.026573 0.000000 0.000000
# 5 0.000000 0.000000 0.000000 0.000000 0.043377 0.000000
# 6 0.000000 0.000000 0.000000 0.000000 0.000000 0.043369
#
#
# Mechanical properties :
#
#
# Convention : Reuss Voigt Hill
#
# Bulk Modulus (GPa) = 20.14192 26.22301 23.18247
# Shear Modulus (GPa) = 21.30408 25.87365 23.58887
#
# Velocity S-wave (km/s) = 3.24998 3.58161 3.41982
# Velocity P-wave (km/s) = 4.90605 5.48680 5.20453
#
# Compressibility (1/GPa) = 0.04964770
#
# Stress axis : x y z
#
# Youngs Moduli (GPa) = 22.61257 79.78245 48.82589
#
# Poissons Ratio (x) = 0.66486 0.22436
# Poissons Ratio (y) = 0.18844 0.04232
# Poissons Ratio (z) = 0.10391 0.06916
#
# Static dielectric constant tensor:
#      x y z
#    x 1.710820 0.000000 0.000000 
#    y 0.000000 1.777040 0.000000 
#    z 0.000000 0.000000 1.807050 
# 
# From -- ./inp_files/7629.got.cif
#   From: 2010.05.17/outbox.cif.g08.bks.cpg/sg60_4_cif.got.tgz:7629.got - 2010.06.03 14:59:27.
