data_PCOD9455695
_publ_section_title
;
Structure prediction by ZEFSAII (Michael W. Deem and Ramdas Pophale) SiO2 
 PCOD9455695
Probable space group: P B C N
;
_chemical_formula_sum "Si O2"
_cell_formula_units_Z 48
_cell_length_a 15.654151
_cell_length_b 9.194573
_cell_length_c 17.265240
_cell_angle_alpha 90.000000
_cell_angle_beta 90.000000
_cell_angle_gamma 90.000000
_cell_volume 2485.041831
_symmetry_space_group_name_H-M "P B C N"
_symmetry_group_IT_number 60
_symmetry_cell_setting 'orthorhombic'
loop_
_space_group_symop_operation_xyz
x,y,z
1/2-x,1/2-y,1/2+z
1/2+x,1/2-y,-z
-x,y,1/2-z
-x,-y,-z
1/2+x,1/2+y,1/2-z
1/2-x,1/2+y,z
x,-y,1/2+z
loop_
_atom_site_type_symbol
_atom_site_label
_atom_site_fract_x
_atom_site_fract_y
_atom_site_fract_z
Si Si1 0.753665 0.941171 0.205156
Si Si2 0.659139 0.809631 0.609881
Si Si3 0.830593 0.072147 0.869949
Si Si4 0.173583 0.757676 0.569407
Si Si5 0.586855 0.893011 0.296451
Si Si6 0.971462 0.709652 0.334418
O O1 0.716788 0.068516 0.151386
O O2 0.807800 0.980047 0.282316
O O3 0.811232 0.836351 0.153385
O O4 0.667881 0.867398 0.240701
O O5 0.670429 0.794604 0.518512
O O6 0.558751 0.836471 0.624365
O O7 0.826832 0.931189 0.923560
O O8 0.758400 0.187241 0.894105
O O9 0.918246 0.161900 0.872906
O O10 0.098543 0.697107 0.624975
O O11 0.500000 0.864029 0.250000
O O12 0.585080 0.064797 0.319597
O O13 0.000000 0.762679 0.250000
#
# Coordination Sequence:
#
# PCOD9455695 Si02
#       6
#     8   8   8   8   8   8
#     4  11  20  39  67  86 121 169 212 248 312 392
#     4  12  24  41  63  98 128 164 210 271 328 365
#     4  11  22  43  65  89 127 175 211 254 317 387
#     4  11  25  40  63  95 131 164 211 267 322 379
#     4  10  20  42  65  92 121 168 220 253 308 386
#     4  11  21  42  68  94 126 168 213 268 312 372
#
# _framework density 19.315572
#
# number of rings (size 3 to 8) (size 9 to 14) (size 15 to 20)
#    0.000    1.000    5.000    5.000    0.000    2.000 
#    6.000    0.000    0.000    0.000    0.000    0.000 
#    0.000    0.000    0.000    0.000    0.000    0.000 
#
# Total GULP energy -267999.279775 kJ/mol
# GULP energy per Si atom -5583.318329 kJ/mol
# Density = 1.927161 g / cm^3
# Si number density = 19.315572 Si / 1000 Ang^3
#
#
#
# Elastic Constant Matrix: (Units=GPa)
#
#
# Indices 1 2 3 4 5 6 
#
# 1 42.1313 12.4873 0.8833 0.0000 0.0000 0.0000
# 2 12.4873 41.4017 -5.5251 0.0000 0.0000 0.0000
# 3 0.8833 -5.5251 66.6974 0.0000 0.0000 0.0000
# 4 0.0000 0.0000 0.0000 0.9784 0.0000 0.0000
# 5 0.0000 0.0000 0.0000 0.0000 14.6315 0.0000
# 6 0.0000 0.0000 0.0000 0.0000 0.0000 22.4179
#
#
#
# Elastic Compliance Matrix: (Units=1/GPa)
#
#
# Indices 1 2 3 4 5 6 
#
# 1 0.026133 -0.008017 -0.001010 0.000000 0.000000 0.000000
# 2 -0.008017 0.026883 0.002333 0.000000 0.000000 0.000000
# 3 -0.001010 0.002333 0.015200 0.000000 0.000000 0.000000
# 4 0.000000 0.000000 0.000000 1.022120 0.000000 0.000000
# 5 0.000000 0.000000 0.000000 0.000000 0.068346 0.000000
# 6 0.000000 0.000000 0.000000 0.000000 0.000000 0.044607
#
#
# Mechanical properties :
#
#
# Convention : Reuss Voigt Hill
#
# Bulk Modulus (GPa) = 18.23901 18.43573 18.33737
# Shear Modulus (GPa) = 4.04874 17.09787 10.57331
#
# Velocity S-wave (km/s) = 1.44936 2.97844 2.34219
# Velocity P-wave (km/s) = 3.50200 4.62529 4.10228
#
# Compressibility (1/GPa) = 0.05482753
#
# Stress axis : x y z
#
# Youngs Moduli (GPa) = 38.26643 37.19838 65.79059
#
# Poissons Ratio (x) = 0.29821 0.06646
# Poissons Ratio (y) = 0.30677 -0.15350
# Poissons Ratio (z) = 0.03866 -0.08679
#
# Static dielectric constant tensor:
#      x y z
#    x 1.687130 0.000000 0.000000 
#    y 0.000000 1.680230 0.000000 
#    z 0.000000 0.000000 1.670040 
# 
# From -- ./inp_files/20498.got.cif
#   From: 2010.05.17/outbox.cif.g08.bks.cpg/sg60_11_cif.got.tgz:20498.got - 2010.06.03 14:59:27.
