data_PCOD9455937
_publ_section_title
;
Structure prediction by ZEFSAII (Michael W. Deem and Ramdas Pophale) SiO2 
 PCOD9455937
Probable space group: P B C N
;
_chemical_formula_sum "Si O2"
_cell_formula_units_Z 60
_cell_length_a 23.665365
_cell_length_b 5.858717
_cell_length_c 19.878012
_cell_angle_alpha 90.000000
_cell_angle_beta 90.000000
_cell_angle_gamma 90.000000
_cell_volume 2756.060050
_symmetry_space_group_name_H-M "P B C N"
_symmetry_group_IT_number 60
_symmetry_cell_setting 'orthorhombic'
loop_
_space_group_symop_operation_xyz
x,y,z
1/2-x,1/2-y,1/2+z
1/2+x,1/2-y,-z
-x,y,1/2-z
-x,-y,-z
1/2+x,1/2+y,1/2-z
1/2-x,1/2+y,z
x,-y,1/2+z
loop_
_atom_site_type_symbol
_atom_site_label
_atom_site_fract_x
_atom_site_fract_y
_atom_site_fract_z
Si Si1 0.261373 0.660370 0.398765
Si Si2 0.223955 0.376235 0.744903
Si Si3 0.000000 0.723783 0.250000
Si Si4 0.442373 0.717615 0.935736
Si Si5 0.379649 0.625458 0.704817
Si Si6 0.621988 0.571378 0.162033
Si Si7 0.436297 0.537141 0.078437
Si Si8 0.480358 0.112718 0.871490
O O1 0.253863 0.406470 0.430990
O O2 0.227994 0.638899 0.326729
O O3 0.327121 0.674537 0.379805
O O4 0.246880 0.629212 0.723693
O O5 0.159835 0.343631 0.717724
O O6 0.943866 0.857832 0.268287
O O7 0.989548 0.569963 0.185752
O O8 0.398852 0.658638 0.875819
O O9 0.506104 0.615388 0.925772
O O10 0.453112 0.987172 0.935834
O O11 0.419422 0.601138 0.003006
O O12 0.356571 0.451818 0.761620
O O13 0.388445 0.561051 0.627351
O O14 0.565832 0.717484 0.156800
O O15 0.461404 0.766730 0.111347
#
# Coordination Sequence:
#
# PCOD9455937 Si02
#       8
#     8   8   4   8   8   8   8   8
#     4  10  21  37  59  92 121 158 208 263 325 375
#     4  10  22  38  61  90 122 167 208 265 325 390
#     4  12  22  32  58  96 126 158 202 274 324 380
#     4  10  21  39  57  82 124 164 210 247 317 393
#     4  12  21  39  59  89 128 159 210 270 327 387
#     4  11  22  35  63  86 121 155 210 267 314 377
#     4  10  22  39  55  84 122 169 206 250 315 397
#     4  11  21  34  58  86 124 162 201 258 316 388
#
# _framework density 21.770206999999999
#
# number of rings (size 3 to 8) (size 9 to 14) (size 15 to 20)
#    0.000    1.333    5.333    2.000    5.600    1.067 
#    0.000    0.000    0.000    1.600    0.000    0.000 
#    0.000    0.000    0.000    0.000    0.000    0.000 
#
# Total GULP energy -334375.094176 kJ/mol
# GULP energy per Si atom -5572.918236 kJ/mol
# Density = 2.172066 g / cm^3
# Si number density = 21.770207 Si / 1000 Ang^3
#
#
#
# Elastic Constant Matrix: (Units=GPa)
#
#
# Indices 1 2 3 4 5 6 
#
# 1 59.4964 12.6512 4.3229 0.0000 0.0000 0.0000
# 2 12.6512 93.5587 3.9479 0.0000 0.0000 0.0000
# 3 4.3229 3.9479 55.1289 0.0000 0.0000 0.0000
# 4 0.0000 0.0000 0.0000 13.1389 0.0000 0.0000
# 5 0.0000 0.0000 0.0000 0.0000 10.4540 0.0000
# 6 0.0000 0.0000 0.0000 0.0000 0.0000 27.6688
#
#
#
# Elastic Compliance Matrix: (Units=1/GPa)
#
#
# Indices 1 2 3 4 5 6 
#
# 1 0.017384 -0.002300 -0.001198 0.000000 0.000000 0.000000
# 2 -0.002300 0.011025 -0.000609 0.000000 0.000000 0.000000
# 3 -0.001198 -0.000609 0.018277 0.000000 0.000000 0.000000
# 4 0.000000 0.000000 0.000000 0.076110 0.000000 0.000000
# 5 0.000000 0.000000 0.000000 0.000000 0.095657 0.000000
# 6 0.000000 0.000000 0.000000 0.000000 0.000000 0.036142
#
#
# Mechanical properties :
#
#
# Convention : Reuss Voigt Hill
#
# Bulk Modulus (GPa) = 25.99391 27.78091 26.88741
# Shear Modulus (GPa) = 18.14005 22.73649 20.43827
#
# Velocity S-wave (km/s) = 2.88974 3.23520 3.06734
# Velocity P-wave (km/s) = 4.80626 5.17146 4.99221
#
# Compressibility (1/GPa) = 0.03847055
#
# Stress axis : x y z
#
# Youngs Moduli (GPa) = 57.52449 90.70127 54.71384
#
# Poissons Ratio (x) = 0.20862 0.06557
# Poissons Ratio (y) = 0.13231 0.03333
# Poissons Ratio (z) = 0.06894 0.05525
#
# Static dielectric constant tensor:
#      x y z
#    x 1.743350 0.000000 0.000000 
#    y 0.000000 1.914230 0.000000 
#    z 0.000000 0.000000 1.859300 
# 
# From -- ./inp_files/23303.got.cif
#   From: 2010.05.17/outbox.cif.g08.bks.cpg/sg60_12_cif.got.tgz:23303.got - 2010.06.03 14:59:27.
