data_PCOD9455373
_publ_section_title
;
Structure prediction by ZEFSAII (Michael W. Deem and Ramdas Pophale) SiO2 
 PCOD9455373
Probable space group: P B C N
;
_chemical_formula_sum "Si O2"
_cell_formula_units_Z 40
_cell_length_a 11.812842
_cell_length_b 16.261618
_cell_length_c 9.753674
_cell_angle_alpha 90.000000
_cell_angle_beta 90.000000
_cell_angle_gamma 90.000000
_cell_volume 1873.641020
_symmetry_space_group_name_H-M "P B C N"
_symmetry_group_IT_number 60
_symmetry_cell_setting 'orthorhombic'
loop_
_space_group_symop_operation_xyz
x,y,z
1/2-x,1/2-y,1/2+z
1/2+x,1/2-y,-z
-x,y,1/2-z
-x,-y,-z
1/2+x,1/2+y,1/2-z
1/2-x,1/2+y,z
x,-y,1/2+z
loop_
_atom_site_type_symbol
_atom_site_label
_atom_site_fract_x
_atom_site_fract_y
_atom_site_fract_z
Si Si1 0.850057 0.321882 0.957457
Si Si2 0.932519 0.639827 0.880062
Si Si3 0.122521 0.955360 0.814198
Si Si4 0.715546 0.271874 0.716450
Si Si5 0.755447 0.505086 0.932446
O O1 0.828066 0.287175 0.805695
O O2 0.806506 0.415494 0.959973
O O3 0.777492 0.269410 0.067724
O O4 0.977267 0.323652 0.013726
O O5 0.861321 0.711445 0.807728
O O6 0.849982 0.574572 0.950587
O O7 0.000000 0.600022 0.750000
O O8 0.153460 0.859316 0.797946
O O9 0.212371 0.005907 0.723149
O O10 0.000000 0.969702 0.750000
O O11 0.148514 0.979613 0.969399
#
# Coordination Sequence:
#
# PCOD9455373 Si02
#       5
#     8   8   8   8   8
#     4  10  21  38  58  86 117 155 196 243 295 347
#     4  10  20  38  62  87 120 157 195 249 303 353
#     4  11  22  39  60  85 117 156 196 244 297 353
#     4  10  21  37  58  82 115 154 196 238 292 357
#     4  11  23  38  61  88 118 154 201 246 296 360
#
# _framework density 21.348807999999998
#
# number of rings (size 3 to 8) (size 9 to 14) (size 15 to 20)
#    0.000    1.600    0.000    6.600    0.000    0.000 
#    0.000   12.000    0.000    0.000    0.000    0.000 
#    0.000    0.000    0.000    0.000    0.000    0.000 
#
# Total GULP energy -223553.201319 kJ/mol
# GULP energy per Si atom -5588.830033 kJ/mol
# Density = 2.130022 g / cm^3
# Si number density = 21.348808 Si / 1000 Ang^3
#
#
#
# Elastic Constant Matrix: (Units=GPa)
#
#
# Indices 1 2 3 4 5 6 
#
# 1 39.8381 1.5474 7.2793 0.0000 0.0000 0.0000
# 2 1.5474 47.5282 11.5279 0.0000 0.0000 0.0000
# 3 7.2793 11.5279 60.7379 0.0000 0.0000 0.0000
# 4 0.0000 0.0000 0.0000 30.6272 0.0000 0.0000
# 5 0.0000 0.0000 0.0000 0.0000 35.2887 0.0000
# 6 0.0000 0.0000 0.0000 0.0000 0.0000 12.8684
#
#
#
# Elastic Compliance Matrix: (Units=1/GPa)
#
#
# Indices 1 2 3 4 5 6 
#
# 1 0.025664 -0.000094 -0.003058 0.000000 0.000000 0.000000
# 2 -0.000094 0.022056 -0.004175 0.000000 0.000000 0.000000
# 3 -0.003058 -0.004175 0.017623 0.000000 0.000000 0.000000
# 4 0.000000 0.000000 0.000000 0.032651 0.000000 0.000000
# 5 0.000000 0.000000 0.000000 0.000000 0.028338 0.000000
# 6 0.000000 0.000000 0.000000 0.000000 0.000000 0.077710
#
#
# Mechanical properties :
#
#
# Convention : Reuss Voigt Hill
#
# Bulk Modulus (GPa) = 19.72796 20.97927 20.35361
# Shear Modulus (GPa) = 21.22324 24.27351 22.74837
#
# Velocity S-wave (km/s) = 3.15638 3.37560 3.26783
# Velocity P-wave (km/s) = 4.74811 5.00411 4.87779
#
# Compressibility (1/GPa) = 0.05068948
#
# Stress axis : x y z
#
# Youngs Moduli (GPa) = 38.96508 45.33951 56.74384
#
# Poissons Ratio (x) = 0.00425 0.17352
# Poissons Ratio (y) = 0.00366 0.23690
# Poissons Ratio (z) = 0.11915 0.18929
#
# Static dielectric constant tensor:
#      x y z
#    x 1.774170 0.000000 0.000000 
#    y 0.000000 1.726990 0.000000 
#    z 0.000000 0.000000 1.772570 
# 
# From -- ./inp_files/4721.got.cif
#   From: 2010.05.17/outbox.cif.g08.bks.cpg/sg60_3_cif.got.tgz:4721.got - 2010.06.03 14:59:27.
