data_PCOD9455697
_publ_section_title
;
Structure prediction by ZEFSAII (Michael W. Deem and Ramdas Pophale) SiO2 
 PCOD9455697
Probable space group: P B C N
;
_chemical_formula_sum "Si O2"
_cell_formula_units_Z 36
_cell_length_a 9.255259
_cell_length_b 15.153488
_cell_length_c 13.067894
_cell_angle_alpha 90.000000
_cell_angle_beta 90.000000
_cell_angle_gamma 90.000000
_cell_volume 1832.765027
_symmetry_space_group_name_H-M "P B C N"
_symmetry_group_IT_number 60
_symmetry_cell_setting 'orthorhombic'
loop_
_space_group_symop_operation_xyz
x,y,z
1/2-x,1/2-y,1/2+z
1/2+x,1/2-y,-z
-x,y,1/2-z
-x,-y,-z
1/2+x,1/2+y,1/2-z
1/2-x,1/2+y,z
x,-y,1/2+z
loop_
_atom_site_type_symbol
_atom_site_label
_atom_site_fract_x
_atom_site_fract_y
_atom_site_fract_z
Si Si1 0.963101 0.012951 0.117930
Si Si2 0.843458 0.807188 0.700237
Si Si3 0.000000 0.469108 0.250000
Si Si4 0.768091 0.372967 0.108548
Si Si5 0.227011 0.585673 0.133173
O O1 0.869517 0.101932 0.136769
O O2 0.122260 0.034570 0.160874
O O3 0.875198 0.925075 0.145501
O O4 0.000000 0.000000 0.000000
O O5 0.777039 0.730764 0.630975
O O6 0.741012 0.827701 0.796661
O O7 0.000000 0.783610 0.750000
O O8 0.103086 0.413217 0.323766
O O9 0.096513 0.528615 0.175130
O O10 0.782293 0.393621 0.987212
#
# Coordination Sequence:
#
# PCOD9455697 Si02
#       5
#     8   8   4   8   8
#     4   9  20  43  68  90 126 172 214 260 331 389
#     4  10  20  42  65  94 136 163 216 275 320 389
#     4  12  22  42  66  92 132 168 216 280 324 378
#     4  11  22  42  69  93 125 179 214 267 340 379
#     4  10  23  43  63  96 129 170 217 269 321 402
#
# _framework density 19.642451999999999
#
# number of rings (size 3 to 8) (size 9 to 14) (size 15 to 20)
#    0.000    1.778    3.333    0.667    0.000    0.000 
#   20.000    0.000    0.000    0.000    0.000    0.000 
#    0.000    0.000    0.000    0.000    0.000    0.000 
#
# Total GULP energy -200668.383986 kJ/mol
# GULP energy per Si atom -5574.121777 kJ/mol
# Density = 1.959774 g / cm^3
# Si number density = 19.642452 Si / 1000 Ang^3
#
#
#
# Elastic Constant Matrix: (Units=GPa)
#
#
# Indices 1 2 3 4 5 6 
#
# 1 53.2277 22.2952 23.3011 0.0000 0.0000 0.0000
# 2 22.2952 90.0572 60.0570 0.0000 0.0000 0.0000
# 3 23.3011 60.0570 145.8387 0.0000 0.0000 0.0000
# 4 0.0000 0.0000 0.0000 29.4218 0.0000 0.0000
# 5 0.0000 0.0000 0.0000 0.0000 33.1798 0.0000
# 6 0.0000 0.0000 0.0000 0.0000 0.0000 21.6583
#
#
#
# Elastic Compliance Matrix: (Units=1/GPa)
#
#
# Indices 1 2 3 4 5 6 
#
# 1 0.021260 -0.004133 -0.001695 0.000000 0.000000 0.000000
# 2 -0.004133 0.016111 -0.005974 0.000000 0.000000 0.000000
# 3 -0.001695 -0.005974 0.009588 0.000000 0.000000 0.000000
# 4 0.000000 0.000000 0.000000 0.033988 0.000000 0.000000
# 5 0.000000 0.000000 0.000000 0.000000 0.030139 0.000000
# 6 0.000000 0.000000 0.000000 0.000000 0.000000 0.046172
#
#
# Mechanical properties :
#
#
# Convention : Reuss Voigt Hill
#
# Bulk Modulus (GPa) = 42.81719 55.60335 49.21027
# Shear Modulus (GPa) = 26.50432 29.08332 27.79382
#
# Velocity S-wave (km/s) = 3.67732 3.85208 3.76571
# Velocity P-wave (km/s) = 6.31473 6.93930 6.63437
#
# Compressibility (1/GPa) = 0.02335510
#
# Stress axis : x y z
#
# Youngs Moduli (GPa) = 47.03592 62.06753 104.29749
#
# Poissons Ratio (x) = 0.25653 0.17676
# Poissons Ratio (y) = 0.19441 0.62312
# Poissons Ratio (z) = 0.07972 0.37082
#
# Static dielectric constant tensor:
#      x y z
#    x 1.720210 0.000000 0.000000 
#    y 0.000000 1.712360 0.000000 
#    z 0.000000 0.000000 1.730700 
# 
# From -- ./inp_files/14544.got.cif
#   From: 2010.05.17/outbox.cif.g08.bks.cpg/sg60_8_cif.got.tgz:14544.got - 2010.06.03 14:59:27.
