data_PCOD9455700
_publ_section_title
;
Structure prediction by ZEFSAII (Michael W. Deem and Ramdas Pophale) SiO2 
 PCOD9455700
Probable space group: P B C N
;
_chemical_formula_sum "Si O2"
_cell_formula_units_Z 44
_cell_length_a 8.513560
_cell_length_b 13.895212
_cell_length_c 16.334614
_cell_angle_alpha 90.000000
_cell_angle_beta 90.000000
_cell_angle_gamma 90.000000
_cell_volume 1932.347611
_symmetry_space_group_name_H-M "P B C N"
_symmetry_group_IT_number 60
_symmetry_cell_setting 'orthorhombic'
loop_
_space_group_symop_operation_xyz
x,y,z
1/2-x,1/2-y,1/2+z
1/2+x,1/2-y,-z
-x,y,1/2-z
-x,-y,-z
1/2+x,1/2+y,1/2-z
1/2-x,1/2+y,z
x,-y,1/2+z
loop_
_atom_site_type_symbol
_atom_site_label
_atom_site_fract_x
_atom_site_fract_y
_atom_site_fract_z
Si Si1 0.559760 0.055362 0.667189
Si Si2 0.556077 0.323459 0.469426
Si Si3 0.249376 0.109842 0.379550
Si Si4 0.138190 0.273399 0.109437
Si Si5 0.000000 0.137375 0.250000
Si Si6 0.129247 0.821464 0.323026
O O1 0.500000 0.007206 0.750000
O O2 0.422770 0.120863 0.631068
O O3 0.704677 0.125988 0.691568
O O4 0.621530 0.971426 0.610670
O O5 0.655808 0.381965 0.535595
O O6 0.453483 0.256735 0.527884
O O7 0.680217 0.268291 0.412324
O O8 0.444607 0.372932 0.403340
O O9 0.322919 0.212823 0.351671
O O10 0.128368 0.082984 0.305411
O O11 0.089507 0.204081 0.183737
O O12 0.000000 0.823034 0.250000
#
# Coordination Sequence:
#
# PCOD9455700 Si02
#       6
#     8   8   8   8   4   8
#     4  12  24  42  66  99 135 174 225 273 330 397
#     4  11  22  42  68  97 132 175 219 276 328 398
#     4  11  24  41  66 101 131 170 223 271 335 389
#     4  11  20  42  67  94 130 174 220 269 331 391
#     4  10  20  42  66  90 130 174 210 278 324 386
#     4  12  24  44  69  95 131 180 225 271 341 401
#
# _framework density 22.770230999999999
#
# number of rings (size 3 to 8) (size 9 to 14) (size 15 to 20)
#    0.000    0.727    6.364    2.727    1.273    1.455 
#    0.000    0.000    0.000    0.000    0.000    0.000 
#    0.000    0.000    0.000    0.000    0.000    0.000 
#
# Total GULP energy -245949.668828 kJ/mol
# GULP energy per Si atom -5589.765201 kJ/mol
# Density = 2.271841 g / cm^3
# Si number density = 22.770231 Si / 1000 Ang^3
#
#
#
# Elastic Constant Matrix: (Units=GPa)
#
#
# Indices 1 2 3 4 5 6 
#
# 1 64.2368 -10.8564 28.7202 0.0000 0.0000 0.0000
# 2 -10.8564 46.5111 -1.1323 0.0000 0.0000 0.0000
# 3 28.7202 -1.1323 129.7009 0.0000 0.0000 0.0000
# 4 0.0000 0.0000 0.0000 5.3952 0.0000 0.0000
# 5 0.0000 0.0000 0.0000 0.0000 62.2774 0.0000
# 6 0.0000 0.0000 0.0000 0.0000 0.0000 10.1827
#
#
#
# Elastic Compliance Matrix: (Units=1/GPa)
#
#
# Indices 1 2 3 4 5 6 
#
# 1 0.018032 0.004113 -0.003957 0.000000 0.000000 0.000000
# 2 0.004113 0.022443 -0.000715 0.000000 0.000000 0.000000
# 3 -0.003957 -0.000715 0.008580 0.000000 0.000000 0.000000
# 4 0.000000 0.000000 0.000000 0.185349 0.000000 0.000000
# 5 0.000000 0.000000 0.000000 0.000000 0.016057 0.000000
# 6 0.000000 0.000000 0.000000 0.000000 0.000000 0.098206
#
#
# Mechanical properties :
#
#
# Convention : Reuss Voigt Hill
#
# Bulk Modulus (GPa) = 20.86108 30.43464 25.64786
# Shear Modulus (GPa) = 13.67001 30.48555 22.07778
#
# Velocity S-wave (km/s) = 2.45285 3.66298 3.11720
# Velocity P-wave (km/s) = 4.14770 5.59329 4.92383
#
# Compressibility (1/GPa) = 0.04793615
#
# Stress axis : x y z
#
# Youngs Moduli (GPa) = 55.45828 44.55775 116.55013
#
# Poissons Ratio (x) = -0.18324 0.46118
# Poissons Ratio (y) = -0.22807 0.08330
# Poissons Ratio (z) = 0.21944 0.03185
#
# Static dielectric constant tensor:
#      x y z
#    x 1.863280 0.000000 0.000000 
#    y 0.000000 1.827250 0.000000 
#    z 0.000000 0.000000 1.852590 
# 
# From -- ./inp_files/14890.got.cif
#   From: 2010.05.17/outbox.cif.g08.bks.cpg/sg60_8_cif.got.tgz:14890.got - 2010.06.03 14:59:27.
