data_PCOD9455566
_publ_section_title
;
Structure prediction by ZEFSAII (Michael W. Deem and Ramdas Pophale) SiO2 
 PCOD9455566
Probable space group: P B C N
;
_chemical_formula_sum "Si O2"
_cell_formula_units_Z 64
_cell_length_a 7.243504
_cell_length_b 30.194857
_cell_length_c 12.304606
_cell_angle_alpha 90.000000
_cell_angle_beta 90.000000
_cell_angle_gamma 90.000000
_cell_volume 2691.221188
_symmetry_space_group_name_H-M "P B C N"
_symmetry_group_IT_number 60
_symmetry_cell_setting 'orthorhombic'
loop_
_space_group_symop_operation_xyz
x,y,z
1/2-x,1/2-y,1/2+z
1/2+x,1/2-y,-z
-x,y,1/2-z
-x,-y,-z
1/2+x,1/2+y,1/2-z
1/2-x,1/2+y,z
x,-y,1/2+z
loop_
_atom_site_type_symbol
_atom_site_label
_atom_site_fract_x
_atom_site_fract_y
_atom_site_fract_z
Si Si1 0.879679 0.203894 0.516927
Si Si2 0.805371 0.056845 0.994648
Si Si3 0.709917 0.337294 0.227903
Si Si4 0.684329 0.934466 0.180077
Si Si5 0.276918 0.541760 0.037340
Si Si6 0.229482 0.344431 0.037440
Si Si7 0.530666 0.794948 0.880433
Si Si8 0.717617 0.967122 0.731132
O O1 0.748224 0.185361 0.613706
O O2 0.747746 0.204122 0.412037
O O3 0.066590 0.174666 0.506104
O O4 0.947441 0.251360 0.560189
O O5 0.761034 0.058366 0.122026
O O6 0.024350 0.049448 0.983881
O O7 0.750741 0.103119 0.945517
O O8 0.724223 0.010120 0.954304
O O9 0.500000 0.322778 0.250000
O O10 0.709649 0.389634 0.204766
O O11 0.815547 0.327005 0.340017
O O12 0.500000 0.932121 0.250000
O O13 0.777408 0.981685 0.210755
O O14 0.644256 0.936263 0.050436
O O15 0.293592 0.555831 0.161252
O O16 0.083855 0.333217 0.943537
O O17 0.500000 0.794913 0.750000
O O18 0.500000 0.968703 0.750000
#
# Coordination Sequence:
#
# PCOD9455566 Si02
#       8
#     8   8   8   8   8   8   8   8
#     4  11  25  49  77 105 136 179 228 280 350 422
#     4  10  22  40  65  92 129 178 230 284 340 407
#     4  10  22  42  70 100 135 171 228 293 339 406
#     4  10  22  36  59  95 127 173 230 286 341 394
#     4  10  20  40  63  87 129 182 233 279 343 404
#     4  11  24  46  70 107 142 180 232 290 348 414
#     4  12  27  50  75 108 143 183 224 281 351 426
#     4  10  22  38  57  89 130 179 226 280 340 407
#
# _framework density 23.781026000000001
#
# number of rings (size 3 to 8) (size 9 to 14) (size 15 to 20)
#    0.000    1.500    1.250    3.750    1.750    8.500 
#    9.000    0.000    0.000    0.000    0.000    0.000 
#    0.000    0.000    0.000    0.000    0.000    0.000 
#
# Total GULP energy -357800.836075 kJ/mol
# GULP energy per Si atom -5590.638064 kJ/mol
# Density = 2.372690 g / cm^3
# Si number density = 23.781026 Si / 1000 Ang^3
#
#
#
# Elastic Constant Matrix: (Units=GPa)
#
#
# Indices 1 2 3 4 5 6 
#
# 1 71.4673 9.3668 8.8746 0.0000 0.0000 0.0000
# 2 9.3668 67.3281 -1.0622 0.0000 0.0000 0.0000
# 3 8.8746 -1.0622 152.0450 0.0000 0.0000 0.0000
# 4 0.0000 0.0000 0.0000 23.8727 0.0000 0.0000
# 5 0.0000 0.0000 0.0000 0.0000 39.8771 0.0000
# 6 0.0000 0.0000 0.0000 0.0000 0.0000 30.7954
#
#
#
# Elastic Compliance Matrix: (Units=1/GPa)
#
#
# Indices 1 2 3 4 5 6 
#
# 1 0.014362 -0.002012 -0.000852 0.000000 0.000000 0.000000
# 2 -0.002012 0.015136 0.000223 0.000000 0.000000 0.000000
# 3 -0.000852 0.000223 0.006628 0.000000 0.000000 0.000000
# 4 0.000000 0.000000 0.000000 0.041889 0.000000 0.000000
# 5 0.000000 0.000000 0.000000 0.000000 0.025077 0.000000
# 6 0.000000 0.000000 0.000000 0.000000 0.000000 0.032472
#
#
# Mechanical properties :
#
#
# Convention : Reuss Voigt Hill
#
# Bulk Modulus (GPa) = 32.42036 36.13322 34.27679
# Shear Modulus (GPa) = 33.08467 37.15312 35.11889
#
# Velocity S-wave (km/s) = 3.73395 3.95688 3.84703
# Velocity P-wave (km/s) = 5.67911 6.00858 5.84617
#
# Compressibility (1/GPa) = 0.03084482
#
# Stress axis : x y z
#
# Youngs Moduli (GPa) = 69.62872 66.06762 150.86802
#
# Poissons Ratio (x) = 0.13290 0.12859
# Poissons Ratio (y) = 0.14006 -0.03367
# Poissons Ratio (z) = 0.05935 -0.01474
#
# Static dielectric constant tensor:
#      x y z
#    x 1.975190 0.000000 0.000000 
#    y 0.000000 1.892220 0.000000 
#    z 0.000000 0.000000 1.983020 
# 
# From -- ./inp_files/10366.got.cif
#   From: 2010.05.17/outbox.cif.g08.bks.cpg/sg60_6_cif.got.tgz:10366.got - 2010.06.03 14:59:27.
