data_PCOD9455620
_publ_section_title
;
Structure prediction by ZEFSAII (Michael W. Deem and Ramdas Pophale) SiO2 
 PCOD9455620
Probable space group: P B C N
;
_chemical_formula_sum "Si O2"
_cell_formula_units_Z 44
_cell_length_a 12.905236
_cell_length_b 7.756180
_cell_length_c 17.780540
_cell_angle_alpha 90.000000
_cell_angle_beta 90.000000
_cell_angle_gamma 90.000000
_cell_volume 1779.749079
_symmetry_space_group_name_H-M "P B C N"
_symmetry_group_IT_number 60
_symmetry_cell_setting 'orthorhombic'
loop_
_space_group_symop_operation_xyz
x,y,z
1/2-x,1/2-y,1/2+z
1/2+x,1/2-y,-z
-x,y,1/2-z
-x,-y,-z
1/2+x,1/2+y,1/2-z
1/2-x,1/2+y,z
x,-y,1/2+z
loop_
_atom_site_type_symbol
_atom_site_label
_atom_site_fract_x
_atom_site_fract_y
_atom_site_fract_z
Si Si1 0.891941 0.802124 0.017706
Si Si2 0.598403 0.250890 0.395193
Si Si3 0.823157 0.639423 0.874504
Si Si4 0.000000 0.698446 0.250000
Si Si5 0.803314 0.117214 0.100584
Si Si6 0.662601 0.913737 0.202600
O O1 0.866473 0.993389 0.046323
O O2 0.801130 0.686337 0.058381
O O3 0.006086 0.756669 0.045864
O O4 0.882696 0.769582 0.929129
O O5 0.705192 0.350824 0.402573
O O6 0.632404 0.051164 0.387078
O O7 0.550732 0.306741 0.315439
O O8 0.826645 0.670967 0.784910
O O9 0.082014 0.568954 0.288333
O O10 0.766852 0.001294 0.171486
O O11 0.863312 0.277282 0.137404
#
# Coordination Sequence:
#
# PCOD9455620 Si02
#       6
#     8   8   8   4   8   8
#     4  11  23  45  68 101 139 184 223 280 350 407
#     4  11  24  45  69  99 139 181 234 279 353 398
#     4  11  24  42  71  98 140 178 229 290 336 407
#     4  10  20  40  70  98 128 178 228 282 346 404
#     4  10  22  40  68  96 137 177 228 277 332 411
#     4  10  20  41  63  98 131 176 227 282 332 401
#
# _framework density 24.722587000000001
#
# number of rings (size 3 to 8) (size 9 to 14) (size 15 to 20)
#    0.000    1.455    1.818    3.818    2.545    0.000 
#   13.091    1.818    0.000    0.000    0.000    0.000 
#    0.000    0.000    0.000    0.000    0.000    0.000 
#
# Total GULP energy -246435.801741 kJ/mol
# GULP energy per Si atom -5600.813676 kJ/mol
# Density = 2.466632 g / cm^3
# Si number density = 24.722587 Si / 1000 Ang^3
#
#
#
# Elastic Constant Matrix: (Units=GPa)
#
#
# Indices 1 2 3 4 5 6 
#
# 1 91.2735 -0.7348 47.2019 0.0000 0.0000 0.0000
# 2 -0.7348 51.2687 30.0972 0.0000 0.0000 0.0000
# 3 47.2019 30.0972 136.9269 0.0000 0.0000 0.0000
# 4 0.0000 0.0000 0.0000 35.5800 0.0000 0.0000
# 5 0.0000 0.0000 0.0000 0.0000 32.0073 0.0000
# 6 0.0000 0.0000 0.0000 0.0000 0.0000 -42.0507
#
#
#
# Elastic Compliance Matrix: (Units=1/GPa)
#
#
# Indices 1 2 3 4 5 6 
#
# 1 0.013843 0.003444 -0.005529 0.000000 0.000000 0.000000
# 2 0.003444 0.023252 -0.006298 0.000000 0.000000 0.000000
# 3 -0.005529 -0.006298 0.010594 0.000000 0.000000 0.000000
# 4 0.000000 0.000000 0.000000 0.028106 0.000000 0.000000
# 5 0.000000 0.000000 0.000000 0.000000 0.031243 0.000000
# 6 0.000000 0.000000 0.000000 0.000000 0.000000 -0.023781
#
#
# Mechanical properties :
#
#
# Convention : Reuss Voigt Hill
#
# Bulk Modulus (GPa) = 32.33899 48.06642 40.20270
# Shear Modulus (GPa) = 45.31867 18.63430 31.97649
#
# Velocity S-wave (km/s) = 4.28610 2.74840 3.60031
# Velocity P-wave (km/s) = 6.13216 5.43656 5.79480
#
# Compressibility (1/GPa) = 0.03092242
#
# Stress axis : x y z
#
# Youngs Moduli (GPa) = 72.23770 43.00752 94.39701
#
# Poissons Ratio (x) = -0.14813 0.52193
# Poissons Ratio (y) = -0.24881 0.59453
# Poissons Ratio (z) = 0.39941 0.27087
#
# Static dielectric constant tensor:
#      x y z
#    x 1.952880 0.000000 0.000000 
#    y 0.000000 1.975160 0.000000 
#    z 0.000000 0.000000 1.992030 
# 
# From -- ./inp_files/20433.got.cif
#   From: 2010.05.17/outbox.cif.g08.bks.cpg/sg60_11_cif.got.tgz:20433.got - 2010.06.03 14:59:27.
