data_PCOD9455189
_publ_section_title
;
Structure prediction by ZEFSAII (Michael W. Deem and Ramdas Pophale) SiO2 
 PCOD9455189
Probable space group: P B C N
;
_chemical_formula_sum "Si O2"
_cell_formula_units_Z 60
_cell_length_a 15.113427
_cell_length_b 8.855732
_cell_length_c 22.970535
_cell_angle_alpha 90.000000
_cell_angle_beta 90.000000
_cell_angle_gamma 90.000000
_cell_volume 3074.386950
_symmetry_space_group_name_H-M "P B C N"
_symmetry_group_IT_number 60
_symmetry_cell_setting 'orthorhombic'
loop_
_space_group_symop_operation_xyz
x,y,z
1/2-x,1/2-y,1/2+z
1/2+x,1/2-y,-z
-x,y,1/2-z
-x,-y,-z
1/2+x,1/2+y,1/2-z
1/2-x,1/2+y,z
x,-y,1/2+z
loop_
_atom_site_type_symbol
_atom_site_label
_atom_site_fract_x
_atom_site_fract_y
_atom_site_fract_z
Si Si1 0.637974 0.800658 0.185170
Si Si2 0.364358 0.687699 0.907552
Si Si3 0.644640 0.617867 0.461689
Si Si4 0.748224 0.929177 0.643749
Si Si5 0.500000 0.050964 0.750000
Si Si6 0.968681 0.707407 0.570532
Si Si7 0.657416 0.259702 0.455906
Si Si8 0.978487 0.606277 0.374433
O O1 0.716894 0.684543 0.192354
O O2 0.583975 0.744269 0.128776
O O3 0.671660 0.965017 0.166631
O O4 0.580307 0.834229 0.240151
O O5 0.290115 0.821173 0.906633
O O6 0.321870 0.547011 0.875140
O O7 0.449303 0.761112 0.878667
O O8 0.384563 0.631796 0.971297
O O9 0.561611 0.702114 0.431465
O O10 0.654980 0.440953 0.446979
O O11 0.741202 0.699237 0.459115
O O12 0.520743 0.956415 0.808404
O O13 0.903786 0.726183 0.514181
O O14 0.991780 0.531456 0.582864
O O15 0.610450 0.173742 0.402142
#
# Coordination Sequence:
#
# PCOD9455189 Si02
#       8
#     8   8   8   8   4   8   8   8
#     4  10  21  39  67  89 129 155 214 268 319 374
#     4  11  20  37  62  96 131 163 206 266 315 389
#     4  12  25  37  63  96 135 171 209 253 332 401
#     4  10  20  36  64  97 119 159 213 268 315 371
#     4  10  22  46  62  90 122 176 216 276 316 384
#     4  11  22  39  63  94 126 169 206 261 329 385
#     4  12  25  41  61  97 133 172 211 269 327 406
#     4  11  24  41  67  86 131 175 217 266 331 384
#
# _framework density 19.516086000000001
#
# number of rings (size 3 to 8) (size 9 to 14) (size 15 to 20)
#    0.000    1.067    4.000    4.800    3.733    0.000 
#    0.000    4.667    0.000    0.000    0.000    0.000 
#    0.000    0.000    0.000    0.000    0.000    0.000 
#
# Total GULP energy -334553.405882 kJ/mol
# GULP energy per Si atom -5575.890098 kJ/mol
# Density = 1.947167 g / cm^3
# Si number density = 19.516086 Si / 1000 Ang^3
#
#
#
# Elastic Constant Matrix: (Units=GPa)
#
#
# Indices 1 2 3 4 5 6 
#
# 1 105.7301 36.5222 36.3808 0.0000 0.0000 0.0000
# 2 36.5222 100.0015 13.6013 0.0000 0.0000 0.0000
# 3 36.3808 13.6013 60.2651 0.0000 0.0000 0.0000
# 4 0.0000 0.0000 0.0000 14.4855 0.0000 0.0000
# 5 0.0000 0.0000 0.0000 0.0000 18.0881 0.0000
# 6 0.0000 0.0000 0.0000 0.0000 0.0000 36.9023
#
#
#
# Elastic Compliance Matrix: (Units=1/GPa)
#
#
# Indices 1 2 3 4 5 6 
#
# 1 0.013245 -0.003869 -0.007123 0.000000 0.000000 0.000000
# 2 -0.003869 0.011446 -0.000248 0.000000 0.000000 0.000000
# 3 -0.007123 -0.000248 0.020949 0.000000 0.000000 0.000000
# 4 0.000000 0.000000 0.000000 0.069034 0.000000 0.000000
# 5 0.000000 0.000000 0.000000 0.000000 0.055285 0.000000
# 6 0.000000 0.000000 0.000000 0.000000 0.000000 0.027099
#
#
# Mechanical properties :
#
#
# Convention : Reuss Voigt Hill
#
# Bulk Modulus (GPa) = 43.17379 48.77836 45.97607
# Shear Modulus (GPa) = 22.00139 25.86134 23.93136
#
# Velocity S-wave (km/s) = 3.36124 3.64418 3.50557
# Velocity P-wave (km/s) = 6.10197 6.53873 6.32412
#
# Compressibility (1/GPa) = 0.02316220
#
# Stress axis : x y z
#
# Youngs Moduli (GPa) = 75.49863 87.36326 47.73453
#
# Poissons Ratio (x) = 0.33798 0.34000
# Poissons Ratio (y) = 0.29208 0.01184
# Poissons Ratio (z) = 0.53776 0.02166
#
# Static dielectric constant tensor:
#      x y z
#    x 1.792660 0.000000 0.000000 
#    y 0.000000 1.695220 0.000000 
#    z 0.000000 0.000000 1.568820 
# 
# From -- ./inp_files/24396.got.cif
#   From: 2010.05.17/outbox.cif.g08.bks.cpg/sg60_13_cif.got.tgz:24396.got - 2010.06.03 14:59:27.
