data_PCOD9455231
_publ_section_title
;
Structure prediction by ZEFSAII (Michael W. Deem and Ramdas Pophale) SiO2 
 PCOD9455231
Probable space group: P B C N
;
_chemical_formula_sum "Si O2"
_cell_formula_units_Z 52
_cell_length_a 10.856763
_cell_length_b 29.733135
_cell_length_c 8.519289
_cell_angle_alpha 90.000000
_cell_angle_beta 90.000000
_cell_angle_gamma 90.000000
_cell_volume 2750.074197
_symmetry_space_group_name_H-M "P B C N"
_symmetry_group_IT_number 60
_symmetry_cell_setting 'orthorhombic'
loop_
_space_group_symop_operation_xyz
x,y,z
1/2-x,1/2-y,1/2+z
1/2+x,1/2-y,-z
-x,y,1/2-z
-x,-y,-z
1/2+x,1/2+y,1/2-z
1/2-x,1/2+y,z
x,-y,1/2+z
loop_
_atom_site_type_symbol
_atom_site_label
_atom_site_fract_x
_atom_site_fract_y
_atom_site_fract_z
Si Si1 0.000000 0.996974 0.250000
Si Si2 0.000000 0.636499 0.750000
Si Si3 0.208626 0.299528 0.165745
Si Si4 0.102287 0.244849 0.881747
Si Si5 0.037282 0.845515 0.075186
Si Si6 0.389673 0.435968 0.973617
Si Si7 0.390643 0.937622 0.041945
Si Si8 0.500000 0.989830 0.750000
O O1 0.098917 0.031200 0.325317
O O2 0.944427 0.965425 0.383915
O O3 0.879872 0.667468 0.737488
O O4 0.971438 0.603853 0.896047
O O5 0.272584 0.264347 0.284368
O O6 0.325331 0.325410 0.090911
O O7 0.129576 0.277596 0.025688
O O8 0.000000 0.258559 0.750000
O O9 0.052244 0.197088 0.950876
O O10 0.037467 0.888745 0.964003
O O11 0.000000 0.862038 0.250000
O O12 0.249306 0.424571 0.012724
O O13 0.399779 0.976546 0.174120
O O14 0.445823 0.959392 0.886388
#
# Coordination Sequence:
#
# PCOD9455231 Si02
#       8
#     4   4   8   8   8   8   8   4
#     4  10  24  32  63  82 118 154 199 244 290 356
#     4  11  22  34  59  90 118 158 197 244 306 365
#     4  10  21  40  60  86 117 159 197 246 303 363
#     4   9  22  41  63  88 118 158 198 246 303 364
#     4   9  19  39  61  81 118 152 190 243 290 355
#     4  11  19  40  54  89 114 155 196 244 294 350
#     4  10  20  37  59  82 121 155 202 247 302 360
#     4   9  20  38  56  84 114 162 200 246 294 363
#
# _framework density 18.908579
#
# number of rings (size 3 to 8) (size 9 to 14) (size 15 to 20)
#    0.000    2.462    2.308    0.923    4.308    0.000 
#    4.154    3.077    0.000    0.000    0.000    0.000 
#    0.000    0.000    0.000    0.000    0.000    0.000 
#
# Total GULP energy -289806.257808 kJ/mol
# GULP energy per Si atom -5573.197266 kJ/mol
# Density = 1.886554 g / cm^3
# Si number density = 18.908579 Si / 1000 Ang^3
#
#
#
# Elastic Constant Matrix: (Units=GPa)
#
#
# Indices 1 2 3 4 5 6 
#
# 1 69.8300 35.9302 32.0476 0.0000 0.0000 0.0000
# 2 35.9302 78.2028 37.2555 0.0000 0.0000 0.0000
# 3 32.0476 37.2555 51.8258 0.0000 0.0000 0.0000
# 4 0.0000 0.0000 0.0000 31.5535 0.0000 0.0000
# 5 0.0000 0.0000 0.0000 0.0000 17.2395 0.0000
# 6 0.0000 0.0000 0.0000 0.0000 0.0000 18.8706
#
#
#
# Elastic Compliance Matrix: (Units=1/GPa)
#
#
# Indices 1 2 3 4 5 6 
#
# 1 0.021377 -0.005360 -0.009366 0.000000 0.000000 0.000000
# 2 -0.005360 0.020791 -0.011632 0.000000 0.000000 0.000000
# 3 -0.009366 -0.011632 0.033448 0.000000 0.000000 0.000000
# 4 0.000000 0.000000 0.000000 0.031692 0.000000 0.000000
# 5 0.000000 0.000000 0.000000 0.000000 0.058006 0.000000
# 6 0.000000 0.000000 0.000000 0.000000 0.000000 0.052992
#
#
# Mechanical properties :
#
#
# Convention : Reuss Voigt Hill
#
# Bulk Modulus (GPa) = 43.66445 45.59172 44.62808
# Shear Modulus (GPa) = 17.94334 19.84108 18.89221
#
# Velocity S-wave (km/s) = 3.08385 3.24283 3.16434
# Velocity P-wave (km/s) = 5.98521 6.17942 6.08309
#
# Compressibility (1/GPa) = 0.02290192
#
# Stress axis : x y z
#
# Youngs Moduli (GPa) = 46.78031 48.09783 29.89675
#
# Poissons Ratio (x) = 0.25778 0.28001
# Poissons Ratio (y) = 0.25072 0.34775
# Poissons Ratio (z) = 0.43814 0.55945
#
# Static dielectric constant tensor:
#      x y z
#    x 1.651620 0.000000 0.000000 
#    y 0.000000 1.672060 0.000000 
#    z 0.000000 0.000000 1.651300 
# 
# From -- ./inp_files/5291.got.cif
#   From: 2010.05.17/outbox.cif.g08.bks.cpg/sg60_3_cif.got.tgz:5291.got - 2010.06.03 14:59:27.
