data_PCOD9455952
_publ_section_title
;
Structure prediction by ZEFSAII (Michael W. Deem and Ramdas Pophale) SiO2 
 PCOD9455952
Probable space group: P B C N
;
_chemical_formula_sum "Si O2"
_cell_formula_units_Z 40
_cell_length_a 8.367719
_cell_length_b 18.625563
_cell_length_c 10.542970
_cell_angle_alpha 90.000000
_cell_angle_beta 90.000000
_cell_angle_gamma 90.000000
_cell_volume 1643.158537
_symmetry_space_group_name_H-M "P B C N"
_symmetry_group_IT_number 60
_symmetry_cell_setting 'orthorhombic'
loop_
_space_group_symop_operation_xyz
x,y,z
1/2-x,1/2-y,1/2+z
1/2+x,1/2-y,-z
-x,y,1/2-z
-x,-y,-z
1/2+x,1/2+y,1/2-z
1/2-x,1/2+y,z
x,-y,1/2+z
loop_
_atom_site_type_symbol
_atom_site_label
_atom_site_fract_x
_atom_site_fract_y
_atom_site_fract_z
Si Si1 0.680319 0.908000 0.743265
Si Si2 0.093715 0.901994 0.115706
Si Si3 0.296791 0.485128 0.445839
Si Si4 0.683929 0.204060 0.016655
Si Si5 0.839826 0.652339 0.522341
O O1 0.500000 0.938632 0.750000
O O2 0.684061 0.843680 0.642318
O O3 0.700886 0.871497 0.878506
O O4 0.800754 0.964314 0.678071
O O5 0.178272 0.828213 0.075679
O O6 0.000000 0.899142 0.250000
O O7 0.948877 0.933515 0.030864
O O8 0.223533 0.963256 0.068714
O O9 0.164180 0.425422 0.413449
O O10 0.714311 0.285866 0.054304
O O11 0.510749 0.189159 0.958555
#
# Coordination Sequence:
#
# PCOD9455952 Si02
#       5
#     8   8   8   8   8
#     4   9  21  40  62  88 124 165 206 264 327 380
#     4  10  21  38  59  86 123 162 203 254 312 376
#     4  10  21  37  62  92 119 160 213 259 316 388
#     4  10  23  40  62  92 125 168 213 259 326 395
#     4  11  22  41  64  90 128 164 211 274 327 391
#
# _framework density 24.343357999999998
#
# number of rings (size 3 to 8) (size 9 to 14) (size 15 to 20)
#    0.000    2.000    0.000    2.400    0.000   12.800 
#    0.000    9.000    0.000    0.000    0.000    0.000 
#    0.000    0.000    0.000    0.000    0.000    0.000 
#
# Total GULP energy -222884.013879 kJ/mol
# GULP energy per Si atom -5572.100347 kJ/mol
# Density = 2.428795 g / cm^3
# Si number density = 24.343358 Si / 1000 Ang^3
#
#
#
# Elastic Constant Matrix: (Units=GPa)
#
#
# Indices 1 2 3 4 5 6 
#
# 1 82.4779 23.2812 27.7870 0.0000 0.0000 0.0000
# 2 23.2812 110.9999 18.0432 0.0000 0.0000 0.0000
# 3 27.7870 18.0432 57.5083 0.0000 0.0000 0.0000
# 4 0.0000 0.0000 0.0000 10.4395 0.0000 0.0000
# 5 0.0000 0.0000 0.0000 0.0000 28.1659 0.0000
# 6 0.0000 0.0000 0.0000 0.0000 0.0000 38.5465
#
#
#
# Elastic Compliance Matrix: (Units=1/GPa)
#
#
# Indices 1 2 3 4 5 6 
#
# 1 0.014917 -0.002062 -0.006561 0.000000 0.000000 0.000000
# 2 -0.002062 0.009778 -0.002071 0.000000 0.000000 0.000000
# 3 -0.006561 -0.002071 0.021209 0.000000 0.000000 0.000000
# 4 0.000000 0.000000 0.000000 0.095790 0.000000 0.000000
# 5 0.000000 0.000000 0.000000 0.000000 0.035504 0.000000
# 6 0.000000 0.000000 0.000000 0.000000 0.000000 0.025943
#
#
# Mechanical properties :
#
#
# Convention : Reuss Voigt Hill
#
# Bulk Modulus (GPa) = 40.79096 43.24545 42.01820
# Shear Modulus (GPa) = 21.48680 27.55535 24.52108
#
# Velocity S-wave (km/s) = 2.97417 3.36809 3.17724
# Velocity P-wave (km/s) = 5.34670 5.73835 5.54598
#
# Compressibility (1/GPa) = 0.02451523
#
# Stress axis : x y z
#
# Youngs Moduli (GPa) = 67.03839 102.26753 47.15059
#
# Poissons Ratio (x) = 0.21090 0.30933
# Poissons Ratio (y) = 0.13825 0.09767
# Poissons Ratio (z) = 0.43981 0.21185
#
# Static dielectric constant tensor:
#      x y z
#    x 1.975520 0.000000 0.000000 
#    y 0.000000 1.998160 0.000000 
#    z 0.000000 0.000000 1.977660 
# 
# From -- ./inp_files/9751.got.cif
#   From: 2010.05.17/outbox.cif.g08.bks.cpg/sg60_5_cif.got.tgz:9751.got - 2010.06.03 14:59:27.
