data_PCOD9455934
_publ_section_title
;
Structure prediction by ZEFSAII (Michael W. Deem and Ramdas Pophale) SiO2 
 PCOD9455934
Probable space group: P B C N
;
_chemical_formula_sum "Si O2"
_cell_formula_units_Z 60
_cell_length_a 17.132318
_cell_length_b 7.922914
_cell_length_c 16.979255
_cell_angle_alpha 90.000000
_cell_angle_beta 90.000000
_cell_angle_gamma 90.000000
_cell_volume 2304.728114
_symmetry_space_group_name_H-M "P B C N"
_symmetry_group_IT_number 60
_symmetry_cell_setting 'orthorhombic'
loop_
_space_group_symop_operation_xyz
x,y,z
1/2-x,1/2-y,1/2+z
1/2+x,1/2-y,-z
-x,y,1/2-z
-x,-y,-z
1/2+x,1/2+y,1/2-z
1/2-x,1/2+y,z
x,-y,1/2+z
loop_
_atom_site_type_symbol
_atom_site_label
_atom_site_fract_x
_atom_site_fract_y
_atom_site_fract_z
Si Si1 0.500000 0.923941 0.750000
Si Si2 0.555123 0.977324 0.922309
Si Si3 0.156482 0.054832 0.958786
Si Si4 0.003730 0.110249 0.580612
Si Si5 0.802978 0.369425 0.346219
Si Si6 0.296846 0.792765 0.386541
Si Si7 0.838689 0.386646 0.703955
Si Si8 0.860500 0.989068 0.856788
O O1 0.423365 0.819238 0.772227
O O2 0.519631 0.018139 0.833850
O O3 0.557848 0.774787 0.924465
O O4 0.639748 0.069953 0.918826
O O5 0.500000 0.000000 0.000000
O O6 0.240323 0.141276 0.954517
O O7 0.087546 0.157550 0.916000
O O8 0.158925 0.873809 0.914577
O O9 0.141694 0.042045 0.049939
O O10 0.046747 0.017378 0.652568
O O11 0.000000 0.000000 0.500000
O O12 0.816567 0.510767 0.281528
O O13 0.708733 0.373601 0.350514
O O14 0.834297 0.187413 0.319703
O O15 0.343525 0.956790 0.358450
O O16 0.230267 0.735586 0.323464
#
# Coordination Sequence:
#
# PCOD9455934 Si02
#       8
#     4   8   8   8   8   8   8   8
#     4  10  24  40  64  96 126 164 214 258 316 384
#     4  11  23  42  67  94 129 170 212 266 322 380
#     4  10  21  37  59  89 117 157 205 256 317 372
#     4  10  22  39  60  90 126 165 211 265 318 379
#     4  11  23  39  62  89 121 166 209 255 318 376
#     4  10  21  38  61  83 118 158 199 254 314 377
#     4  10  22  40  59  86 120 158 204 254 309 376
#     4  11  22  38  59  89 124 159 211 264 310 378
#
# _framework density 26.033438
#
# number of rings (size 3 to 8) (size 9 to 14) (size 15 to 20)
#    0.000    1.600    0.000    4.800    0.000    8.533 
#    0.000    1.333    0.000    2.400    0.000    0.000 
#    0.000    0.000    0.000    0.000    0.000    0.000 
#
# Total GULP energy -334440.585230 kJ/mol
# GULP energy per Si atom -5574.009754 kJ/mol
# Density = 2.597418 g / cm^3
# Si number density = 26.033438 Si / 1000 Ang^3
#
#
#
# Elastic Constant Matrix: (Units=GPa)
#
#
# Indices 1 2 3 4 5 6 
#
# 1 71.8273 -10.2336 11.0834 0.0000 0.0000 0.0000
# 2 -10.2336 81.0955 -13.2072 0.0000 0.0000 0.0000
# 3 11.0834 -13.2072 89.4883 0.0000 0.0000 0.0000
# 4 0.0000 0.0000 0.0000 28.1503 0.0000 0.0000
# 5 0.0000 0.0000 0.0000 0.0000 31.8231 0.0000
# 6 0.0000 0.0000 0.0000 0.0000 0.0000 34.3064
#
#
#
# Elastic Compliance Matrix: (Units=1/GPa)
#
#
# Indices 1 2 3 4 5 6 
#
# 1 0.014384 0.001563 -0.001551 0.000000 0.000000 0.000000
# 2 0.001563 0.012805 0.001696 0.000000 0.000000 0.000000
# 3 -0.001551 0.001696 0.011617 0.000000 0.000000 0.000000
# 4 0.000000 0.000000 0.000000 0.035524 0.000000 0.000000
# 5 0.000000 0.000000 0.000000 0.000000 0.031424 0.000000
# 6 0.000000 0.000000 0.000000 0.000000 0.000000 0.029149
#
#
# Mechanical properties :
#
#
# Convention : Reuss Voigt Hill
#
# Bulk Modulus (GPa) = 23.68448 24.18847 23.93648
# Shear Modulus (GPa) = 34.35004 35.84055 35.09530
#
# Velocity S-wave (km/s) = 3.63638 3.71443 3.67561
# Velocity P-wave (km/s) = 5.17189 5.26379 5.21804
#
# Compressibility (1/GPa) = 0.04222173
#
# Stress axis : x y z
#
# Youngs Moduli (GPa) = 69.52059 78.09705 86.08018
#
# Poissons Ratio (x) = -0.12203 0.13350
# Poissons Ratio (y) = -0.10863 -0.14601
# Poissons Ratio (z) = 0.10782 -0.13247
#
# Static dielectric constant tensor:
#      x y z
#    x 2.310380 0.000000 0.000000 
#    y 0.000000 2.129820 0.000000 
#    z 0.000000 0.000000 2.125900 
# 
# From -- ./inp_files/20883.got.cif
#   From: 2010.05.17/outbox.cif.g08.bks.cpg/sg60_11_cif.got.tgz:20883.got - 2010.06.03 14:59:27.
