data_PCOD9455111
_publ_section_title
;
Structure prediction by ZEFSAII (Michael W. Deem and Ramdas Pophale) SiO2 
 PCOD9455111
Probable space group: P B C N
;
_chemical_formula_sum "Si O2"
_cell_formula_units_Z 64
_cell_length_a 22.839638
_cell_length_b 9.643713
_cell_length_c 15.686142
_cell_angle_alpha 90.000000
_cell_angle_beta 90.000000
_cell_angle_gamma 90.000000
_cell_volume 3455.012600
_symmetry_space_group_name_H-M "P B C N"
_symmetry_group_IT_number 60
_symmetry_cell_setting 'orthorhombic'
loop_
_space_group_symop_operation_xyz
x,y,z
1/2-x,1/2-y,1/2+z
1/2+x,1/2-y,-z
-x,y,1/2-z
-x,-y,-z
1/2+x,1/2+y,1/2-z
1/2-x,1/2+y,z
x,-y,1/2+z
loop_
_atom_site_type_symbol
_atom_site_label
_atom_site_fract_x
_atom_site_fract_y
_atom_site_fract_z
Si Si1 0.551628 0.403765 0.091437
Si Si2 0.713354 0.427666 0.260836
Si Si3 0.202219 0.076404 0.553300
Si Si4 0.837943 0.389765 0.175941
Si Si5 0.110613 0.891132 0.779075
Si Si6 0.148875 0.292057 0.832571
Si Si7 0.075276 0.985037 0.093770
Si Si8 0.248308 0.816787 0.458828
O O1 0.571865 0.539234 0.146499
O O2 0.591928 0.283639 0.130145
O O3 0.482331 0.392595 0.106072
O O4 0.562134 0.419566 0.989686
O O5 0.719939 0.482018 0.355453
O O6 0.777382 0.395255 0.228420
O O7 0.675978 0.542770 0.210256
O O8 0.672215 0.291085 0.250794
O O9 0.132934 0.096120 0.563147
O O10 0.237785 0.214941 0.535951
O O11 0.218035 0.960501 0.484227
O O12 0.881490 0.272420 0.209577
O O13 0.861223 0.545773 0.177295
O O14 0.810994 0.346212 0.084626
O O15 0.089214 0.937829 0.684072
O O16 0.202963 0.262821 0.897209
#
# Coordination Sequence:
#
# PCOD9455111 Si02
#       8
#     8   8   8   8   8   8   8   8
#     4  10  20  39  64  83 118 152 213 260 292 355
#     4   9  21  33  53  80 118 156 196 240 298 371
#     4  11  22  35  56  86 118 151 193 248 298 356
#     4  11  21  34  55  84 121 157 193 244 308 372
#     4  10  21  37  60  85 119 161 207 247 306 365
#     4  10  20  36  54  84 116 160 192 243 310 355
#     4  10  21  37  62  90 110 158 211 252 292 356
#     4  11  21  35  55  85 123 155 193 237 305 373
#
# _framework density 18.523810999999998
#
# number of rings (size 3 to 8) (size 9 to 14) (size 15 to 20)
#    0.000    1.750    2.500    2.625    7.000    0.000 
#    0.000    0.000    0.000   17.250    0.000    0.000 
#    0.000    0.000    0.000    0.000    0.000    0.000 
#
# Total GULP energy -356655.539587 kJ/mol
# GULP energy per Si atom -5572.742806 kJ/mol
# Density = 1.848165 g / cm^3
# Si number density = 18.523811 Si / 1000 Ang^3
#
#
#
# Elastic Constant Matrix: (Units=GPa)
#
#
# Indices 1 2 3 4 5 6 
#
# 1 88.2645 34.3777 17.1876 0.0000 0.0000 0.0000
# 2 34.3777 111.3480 17.1499 0.0000 0.0000 0.0000
# 3 17.1876 17.1499 70.8739 0.0000 0.0000 0.0000
# 4 0.0000 0.0000 0.0000 14.0205 0.0000 0.0000
# 5 0.0000 0.0000 0.0000 0.0000 22.9298 0.0000
# 6 0.0000 0.0000 0.0000 0.0000 0.0000 7.6967
#
#
#
# Elastic Compliance Matrix: (Units=1/GPa)
#
#
# Indices 1 2 3 4 5 6 
#
# 1 0.013231 -0.003730 -0.002306 0.000000 0.000000 0.000000
# 2 -0.003730 0.010380 -0.001607 0.000000 0.000000 0.000000
# 3 -0.002306 -0.001607 0.015058 0.000000 0.000000 0.000000
# 4 0.000000 0.000000 0.000000 0.071324 0.000000 0.000000
# 5 0.000000 0.000000 0.000000 0.000000 0.043611 0.000000
# 6 0.000000 0.000000 0.000000 0.000000 0.000000 0.129926
#
#
# Mechanical properties :
#
#
# Convention : Reuss Voigt Hill
#
# Bulk Modulus (GPa) = 42.76685 45.32407 44.04546
# Shear Modulus (GPa) = 16.30728 22.38080 19.34404
#
# Velocity S-wave (km/s) = 2.97027 3.47971 3.23504
# Velocity P-wave (km/s) = 5.90771 6.37696 6.14681
#
# Compressibility (1/GPa) = 0.02338260
#
# Stress axis : x y z
#
# Youngs Moduli (GPa) = 75.57783 96.33947 66.41098
#
# Poissons Ratio (x) = 0.35933 0.15316
# Poissons Ratio (y) = 0.28190 0.10674
# Poissons Ratio (z) = 0.17430 0.15484
#
# Static dielectric constant tensor:
#      x y z
#    x 1.638420 0.000000 0.000000 
#    y 0.000000 1.660850 0.000000 
#    z 0.000000 0.000000 1.715300 
# 
# From -- ./inp_files/21167.got.cif
#   From: 2010.05.17/outbox.cif.g08.bks.cpg/sg60_11_cif.got.tgz:21167.got - 2010.06.03 14:59:27.
