data_PCOD9455486
_publ_section_title
;
Structure prediction by ZEFSAII (Michael W. Deem and Ramdas Pophale) SiO2 
 PCOD9455486
Probable space group: P B C N
;
_chemical_formula_sum "Si O2"
_cell_formula_units_Z 60
_cell_length_a 19.152839
_cell_length_b 12.882258
_cell_length_c 11.828674
_cell_angle_alpha 90.000000
_cell_angle_beta 90.000000
_cell_angle_gamma 90.000000
_cell_volume 2918.510186
_symmetry_space_group_name_H-M "P B C N"
_symmetry_group_IT_number 60
_symmetry_cell_setting 'orthorhombic'
loop_
_space_group_symop_operation_xyz
x,y,z
1/2-x,1/2-y,1/2+z
1/2+x,1/2-y,-z
-x,y,1/2-z
-x,-y,-z
1/2+x,1/2+y,1/2-z
1/2-x,1/2+y,z
x,-y,1/2+z
loop_
_atom_site_type_symbol
_atom_site_label
_atom_site_fract_x
_atom_site_fract_y
_atom_site_fract_z
Si Si1 0.377225 0.176008 0.168073
Si Si2 0.027612 0.784590 0.981722
Si Si3 0.888833 0.687296 0.073476
Si Si4 0.915407 0.988258 0.419234
Si Si5 0.803088 0.113023 0.554231
Si Si6 0.000000 0.864589 0.750000
Si Si7 0.678069 0.986972 0.442411
Si Si8 0.212768 0.861988 0.188227
O O1 0.418531 0.221532 0.060215
O O2 0.408528 0.193970 0.293293
O O3 0.304728 0.240449 0.178060
O O4 0.367103 0.055699 0.142514
O O5 0.031592 0.902481 0.030611
O O6 0.953790 0.729812 0.002286
O O7 0.038960 0.797241 0.846984
O O8 0.824907 0.766306 0.048146
O O9 0.866080 0.572034 0.037869
O O10 0.854699 0.919174 0.362854
O O11 0.872516 0.051732 0.514102
O O12 0.948687 0.062481 0.324102
O O13 0.784658 0.098993 0.684475
O O14 0.737279 0.065932 0.488493
O O15 0.719224 0.897977 0.376147
#
# Coordination Sequence:
#
# PCOD9455486 Si02
#       8
#     8   8   8   8   8   4   8   8
#     4  10  23  42  63  89 123 170 205 263 327 381
#     4  11  24  41  61  96 132 165 212 257 325 383
#     4  11  23  41  65  90 124 166 212 262 320 386
#     4  10  21  35  64  94 132 160 207 258 325 377
#     4  10  20  39  61  94 126 163 207 264 321 375
#     4  12  22  36  62 102 128 166 204 268 318 380
#     4  11  22  40  62  91 121 167 223 260 310 379
#     4   9  20  37  62  90 123 163 206 260 315 377
#
# _framework density 20.558434999999999
#
# number of rings (size 3 to 8) (size 9 to 14) (size 15 to 20)
#    0.000    1.600    1.333    3.200    5.600    0.533 
#    4.800    2.667    0.000    0.000    0.000    0.000 
#    0.000    0.000    0.000    0.000    0.000    0.000 
#
# Total GULP energy -334644.193038 kJ/mol
# GULP energy per Si atom -5577.403217 kJ/mol
# Density = 2.051164 g / cm^3
# Si number density = 20.558435 Si / 1000 Ang^3
#
#
#
# Elastic Constant Matrix: (Units=GPa)
#
#
# Indices 1 2 3 4 5 6 
#
# 1 41.0041 14.3416 26.2684 0.0000 0.0000 0.0000
# 2 14.3416 64.1721 28.2847 0.0000 0.0000 0.0000
# 3 26.2684 28.2847 128.5050 0.0000 0.0000 0.0000
# 4 0.0000 0.0000 0.0000 37.5043 0.0000 0.0000
# 5 0.0000 0.0000 0.0000 0.0000 25.8468 0.0000
# 6 0.0000 0.0000 0.0000 0.0000 0.0000 17.6359
#
#
#
# Elastic Compliance Matrix: (Units=1/GPa)
#
#
# Indices 1 2 3 4 5 6 
#
# 1 0.029095 -0.004298 -0.005001 0.000000 0.000000 0.000000
# 2 -0.004298 0.017892 -0.003060 0.000000 0.000000 0.000000
# 3 -0.005001 -0.003060 0.009478 0.000000 0.000000 0.000000
# 4 0.000000 0.000000 0.000000 0.026664 0.000000 0.000000
# 5 0.000000 0.000000 0.000000 0.000000 0.038690 0.000000
# 6 0.000000 0.000000 0.000000 0.000000 0.000000 0.056703
#
#
# Mechanical properties :
#
#
# Convention : Reuss Voigt Hill
#
# Bulk Modulus (GPa) = 31.49915 41.27452 36.38684
# Shear Modulus (GPa) = 23.38405 27.18316 25.28360
#
# Velocity S-wave (km/s) = 3.37626 3.64021 3.51071
# Velocity P-wave (km/s) = 5.52755 6.14723 5.84561
#
# Compressibility (1/GPa) = 0.03174689
#
# Stress axis : x y z
#
# Youngs Moduli (GPa) = 34.37001 55.89033 105.51176
#
# Poissons Ratio (x) = 0.24021 0.52772
# Poissons Ratio (y) = 0.14772 0.32282
# Poissons Ratio (z) = 0.17190 0.17100
#
# Static dielectric constant tensor:
#      x y z
#    x 1.751810 0.000000 0.000000 
#    y 0.000000 1.759510 0.000000 
#    z 0.000000 0.000000 1.730380 
# 
# From -- ./inp_files/12869.got.cif
#   From: 2010.05.17/outbox.cif.g08.bks.cpg/sg60_7_cif.got.tgz:12869.got - 2010.06.03 14:59:27.
