data_PCOD9455196
_publ_section_title
;
Structure prediction by ZEFSAII (Michael W. Deem and Ramdas Pophale) SiO2 
 PCOD9455196
Probable space group: P B C N
;
_chemical_formula_sum "Si O2"
_cell_formula_units_Z 44
_cell_length_a 11.323809
_cell_length_b 14.464837
_cell_length_c 12.983781
_cell_angle_alpha 90.000000
_cell_angle_beta 90.000000
_cell_angle_gamma 90.000000
_cell_volume 2126.705044
_symmetry_space_group_name_H-M "P B C N"
_symmetry_group_IT_number 60
_symmetry_cell_setting 'orthorhombic'
loop_
_space_group_symop_operation_xyz
x,y,z
1/2-x,1/2-y,1/2+z
1/2+x,1/2-y,-z
-x,y,1/2-z
-x,-y,-z
1/2+x,1/2+y,1/2-z
1/2-x,1/2+y,z
x,-y,1/2+z
loop_
_atom_site_type_symbol
_atom_site_label
_atom_site_fract_x
_atom_site_fract_y
_atom_site_fract_z
Si Si1 0.000000 0.475920 0.750000
Si Si2 0.214918 0.885708 0.847100
Si Si3 0.132886 0.251267 0.700830
Si Si4 0.261805 0.916205 0.303371
Si Si5 0.054438 0.405282 0.962158
Si Si6 0.884002 0.278565 0.043015
O O1 0.885164 0.540223 0.738033
O O2 0.996218 0.409201 0.848487
O O3 0.289380 0.831245 0.758859
O O4 0.308349 0.899721 0.940727
O O5 0.120258 0.813520 0.889202
O O6 0.184258 0.990855 0.819395
O O7 0.199124 0.155782 0.729802
O O8 0.140544 0.260669 0.577242
O O9 0.000000 0.240737 0.750000
O O10 0.297454 0.855143 0.404606
O O11 0.012043 0.325648 0.037024
O O12 0.000000 0.500000 0.000000
#
# Coordination Sequence:
#
# PCOD9455196 Si02
#       6
#     4   8   8   8   8   8
#     4  10  20  36  66  90 118 154 212 260 306 350
#     4  10  22  38  60  89 121 155 211 246 299 373
#     4  11  23  39  62  87 124 165 202 245 318 377
#     4  10  23  39  61  93 123 158 206 259 309 357
#     4  11  19  35  61  87 117 156 196 252 303 346
#     4  11  21  35  61  92 116 159 204 251 301 362
#
# _framework density 20.689281999999999
#
# number of rings (size 3 to 8) (size 9 to 14) (size 15 to 20)
#    0.000    1.455    5.455    2.182    3.818    1.455 
#    0.000    0.909   16.000    0.000    0.000    0.000 
#    0.000    0.000    0.000    0.000    0.000    0.000 
#
# Total GULP energy -245087.831721 kJ/mol
# GULP energy per Si atom -5570.177994 kJ/mol
# Density = 2.064219 g / cm^3
# Si number density = 20.689282 Si / 1000 Ang^3
#
#
#
# Elastic Constant Matrix: (Units=GPa)
#
#
# Indices 1 2 3 4 5 6 
#
# 1 21.7788 7.0193 0.7007 0.0000 0.0000 0.0000
# 2 7.0193 142.1067 13.8036 0.0000 0.0000 0.0000
# 3 0.7007 13.8036 47.0101 0.0000 0.0000 0.0000
# 4 0.0000 0.0000 0.0000 34.2541 0.0000 0.0000
# 5 0.0000 0.0000 0.0000 0.0000 22.5498 0.0000
# 6 0.0000 0.0000 0.0000 0.0000 0.0000 25.4003
#
#
#
# Elastic Compliance Matrix: (Units=1/GPa)
#
#
# Indices 1 2 3 4 5 6 
#
# 1 0.046659 -0.002303 -0.000019 0.000000 0.000000 0.000000
# 2 -0.002303 0.007357 -0.002126 0.000000 0.000000 0.000000
# 3 -0.000019 -0.002126 0.021897 0.000000 0.000000 0.000000
# 4 0.000000 0.000000 0.000000 0.029194 0.000000 0.000000
# 5 0.000000 0.000000 0.000000 0.000000 0.044346 0.000000
# 6 0.000000 0.000000 0.000000 0.000000 0.000000 0.039370
#
#
# Mechanical properties :
#
#
# Convention : Reuss Voigt Hill
#
# Bulk Modulus (GPa) = 14.92166 28.21587 21.56876
# Shear Modulus (GPa) = 22.72134 29.06564 25.89349
#
# Velocity S-wave (km/s) = 3.31753 3.75222 3.54155
# Velocity P-wave (km/s) = 4.68002 5.69559 5.21260
#
# Compressibility (1/GPa) = 0.06701667
#
# Stress axis : x y z
#
# Youngs Moduli (GPa) = 21.43204 135.92088 45.66931
#
# Poissons Ratio (x) = 0.31300 0.00088
# Poissons Ratio (y) = 0.04935 0.09709
# Poissons Ratio (z) = 0.00041 0.28896
#
# Static dielectric constant tensor:
#      x y z
#    x 1.788700 0.000000 0.000000 
#    y 0.000000 1.831640 0.000000 
#    z 0.000000 0.000000 2.109400 
# 
# From -- ./inp_files/15971.got.cif
#   From: 2010.05.17/outbox.cif.g08.bks.cpg/sg60_8_cif.got.tgz:15971.got - 2010.06.03 14:59:27.
