data_PCOD9455644
_publ_section_title
;
Structure prediction by ZEFSAII (Michael W. Deem and Ramdas Pophale) SiO2 
 PCOD9455644
Probable space group: P B C N
;
_chemical_formula_sum "Si O2"
_cell_formula_units_Z 48
_cell_length_a 11.406145
_cell_length_b 15.408261
_cell_length_c 13.700979
_cell_angle_alpha 90.000000
_cell_angle_beta 90.000000
_cell_angle_gamma 90.000000
_cell_volume 2407.931429
_symmetry_space_group_name_H-M "P B C N"
_symmetry_group_IT_number 60
_symmetry_cell_setting 'orthorhombic'
loop_
_space_group_symop_operation_xyz
x,y,z
1/2-x,1/2-y,1/2+z
1/2+x,1/2-y,-z
-x,y,1/2-z
-x,-y,-z
1/2+x,1/2+y,1/2-z
1/2-x,1/2+y,z
x,-y,1/2+z
loop_
_atom_site_type_symbol
_atom_site_label
_atom_site_fract_x
_atom_site_fract_y
_atom_site_fract_z
Si Si1 0.227368 0.868001 0.598882
Si Si2 0.633371 0.115004 0.207352
Si Si3 0.137069 0.479604 0.990743
Si Si4 0.020156 0.100744 0.985623
Si Si5 0.373960 0.685329 0.802675
Si Si6 0.724508 0.666193 0.901869
O O1 0.275208 0.893800 0.704842
O O2 0.088197 0.870033 0.582415
O O3 0.262143 0.768574 0.580988
O O4 0.289445 0.937932 0.528177
O O5 0.500000 0.106342 0.250000
O O6 0.657031 0.048566 0.120808
O O7 0.647786 0.214300 0.169196
O O8 0.176425 0.396888 0.055877
O O9 0.000000 0.500000 0.000000
O O10 0.107463 0.126688 0.897045
O O11 0.895835 0.140630 0.956633
O O12 0.000000 0.000000 0.000000
O O13 0.500000 0.686357 0.750000
O O14 0.288544 0.655251 0.715715
#
# Coordination Sequence:
#
# PCOD9455644 Si02
#       6
#     8   8   8   8   8   8
#     4  11  24  41  67  96 131 180 223 268 339 399
#     4  10  20  41  63  93 131 175 223 268 327 395
#     4  12  24  40  66 100 131 174 225 278 328 398
#     4  11  21  41  63 101 132 171 227 273 336 397
#     4   8  18  37  67  88 127 180 216 263 330 396
#     4  10  23  43  67  99 134 178 224 273 335 402
#
# _framework density 19.934121000000001
#
# number of rings (size 3 to 8) (size 9 to 14) (size 15 to 20)
#    0.000    1.667    3.333    2.000    2.333    1.333 
#    3.000    0.833    0.000    0.000    0.000    0.000 
#    0.000    0.000    0.000    0.000    0.000    0.000 
#
# Total GULP energy -267872.069160 kJ/mol
# GULP energy per Si atom -5580.668108 kJ/mol
# Density = 1.988875 g / cm^3
# Si number density = 19.934121 Si / 1000 Ang^3
#
#
#
# Elastic Constant Matrix: (Units=GPa)
#
#
# Indices 1 2 3 4 5 6 
#
# 1 55.8692 32.3530 45.7627 0.0000 0.0000 0.0000
# 2 32.3530 133.0770 77.6916 0.0000 0.0000 0.0000
# 3 45.7627 77.6916 103.1557 0.0000 0.0000 0.0000
# 4 0.0000 0.0000 0.0000 -30.5910 0.0000 0.0000
# 5 0.0000 0.0000 0.0000 0.0000 30.9454 0.0000
# 6 0.0000 0.0000 0.0000 0.0000 0.0000 34.3172
#
#
#
# Elastic Compliance Matrix: (Units=1/GPa)
#
#
# Indices 1 2 3 4 5 6 
#
# 1 0.028163 0.000798 -0.013095 0.000000 0.000000 0.000000
# 2 0.000798 0.013434 -0.010472 0.000000 0.000000 0.000000
# 3 -0.013095 -0.010472 0.023390 0.000000 0.000000 0.000000
# 4 0.000000 0.000000 0.000000 -0.032689 0.000000 0.000000
# 5 0.000000 0.000000 0.000000 0.000000 0.032315 0.000000
# 6 0.000000 0.000000 0.000000 0.000000 0.000000 0.029140
#
#
# Mechanical properties :
#
#
# Convention : Reuss Voigt Hill
#
# Bulk Modulus (GPa) = 51.41454 67.07960 59.24707
# Shear Modulus (GPa) = 34.29992 16.02065 25.16028
#
# Velocity S-wave (km/s) = 4.15259 2.83800 3.55656
# Velocity P-wave (km/s) = 6.98858 6.66803 6.83019
#
# Compressibility (1/GPa) = 0.01944975
#
# Stress axis : x y z
#
# Youngs Moduli (GPa) = 35.50777 74.43821 42.75298
#
# Poissons Ratio (x) = -0.05941 0.55985
# Poissons Ratio (y) = -0.02834 0.44770
# Poissons Ratio (z) = 0.46497 0.77950
#
# Static dielectric constant tensor:
#      x y z
#    x 1.694330 0.000000 0.000000 
#    y 0.000000 -1.820560 0.000000 
#    z 0.000000 0.000000 1.731220 
# 
# From -- ./inp_files/16086.got.cif
#   From: 2010.05.17/outbox.cif.g08.bks.cpg/sg60_9_cif.got.tgz:16086.got - 2010.06.03 14:59:27.
