data_PCOD9455242
_publ_section_title
;
Structure prediction by ZEFSAII (Michael W. Deem and Ramdas Pophale) SiO2 
 PCOD9455242
Probable space group: P B C N
;
_chemical_formula_sum "Si O2"
_cell_formula_units_Z 32
_cell_length_a 15.692105
_cell_length_b 9.577298
_cell_length_c 8.774298
_cell_angle_alpha 90.000000
_cell_angle_beta 90.000000
_cell_angle_gamma 90.000000
_cell_volume 1318.671398
_symmetry_space_group_name_H-M "P B C N"
_symmetry_group_IT_number 60
_symmetry_cell_setting 'orthorhombic'
loop_
_space_group_symop_operation_xyz
x,y,z
1/2-x,1/2-y,1/2+z
1/2+x,1/2-y,-z
-x,y,1/2-z
-x,-y,-z
1/2+x,1/2+y,1/2-z
1/2-x,1/2+y,z
x,-y,1/2+z
loop_
_atom_site_type_symbol
_atom_site_label
_atom_site_fract_x
_atom_site_fract_y
_atom_site_fract_z
Si Si1 0.867759 0.400318 0.365427
Si Si2 0.577526 0.797615 0.866836
Si Si3 0.579227 0.355175 0.686600
Si Si4 0.775728 0.601142 0.172756
O O1 0.922519 0.536645 0.409649
O O2 0.920404 0.269467 0.311640
O O3 0.815027 0.451545 0.218682
O O4 0.804442 0.366995 0.502379
O O5 0.500000 0.776121 0.750000
O O6 0.669478 0.794165 0.780577
O O7 0.571992 0.700780 0.014110
O O8 0.500000 0.445907 0.750000
O O9 0.675744 0.408968 0.697739
#
# Coordination Sequence:
#
# PCOD9455242 Si02
#       4
#     8   8   8   8
#     4  10  20  39  62  84 127 150 200 251 305 349
#     4  10  20  37  59  92 118 154 193 250 307 350
#     4  12  23  37  62  92 122 159 202 253 300 365
#     4  10  22  38  60  92 120 159 202 249 308 359
#
# _framework density 24.266848
#
# number of rings (size 3 to 8) (size 9 to 14) (size 15 to 20)
#    1.500    0.000    2.500    3.750    0.000    3.000 
#    0.000    1.250    0.000    1.500    0.000    0.000 
#    0.000    0.000    0.000    0.000    0.000    0.000 
#
# Total GULP energy -178629.338436 kJ/mol
# GULP energy per Si atom -5582.166826 kJ/mol
# Density = 2.421162 g / cm^3
# Si number density = 24.266848 Si / 1000 Ang^3
#
#
#
# Elastic Constant Matrix: (Units=GPa)
#
#
# Indices 1 2 3 4 5 6 
#
# 1 179.6164 8.8120 47.6657 0.0000 0.0000 0.0000
# 2 8.8120 28.0483 -0.8443 0.0000 0.0000 0.0000
# 3 47.6657 -0.8443 96.6976 0.0000 0.0000 0.0000
# 4 0.0000 0.0000 0.0000 17.0984 0.0000 0.0000
# 5 0.0000 0.0000 0.0000 0.0000 46.5550 0.0000
# 6 0.0000 0.0000 0.0000 0.0000 0.0000 62.2847
#
#
#
# Elastic Compliance Matrix: (Units=1/GPa)
#
#
# Indices 1 2 3 4 5 6 
#
# 1 0.006532 -0.002150 -0.003239 0.000000 0.000000 0.000000
# 2 -0.002150 0.036370 0.001377 0.000000 0.000000 0.000000
# 3 -0.003239 0.001377 0.011950 0.000000 0.000000 0.000000
# 4 0.000000 0.000000 0.000000 0.058485 0.000000 0.000000
# 5 0.000000 0.000000 0.000000 0.000000 0.021480 0.000000
# 6 0.000000 0.000000 0.000000 0.000000 0.000000 0.016055
#
#
# Mechanical properties :
#
#
# Convention : Reuss Voigt Hill
#
# Bulk Modulus (GPa) = 21.35409 46.18099 33.76754
# Shear Modulus (GPa) = 28.65249 41.76955 35.21102
#
# Velocity S-wave (km/s) = 3.43990 4.15331 3.81332
# Velocity P-wave (km/s) = 4.95943 6.48627 5.77355
#
# Compressibility (1/GPa) = 0.04682943
#
# Stress axis : x y z
#
# Youngs Moduli (GPa) = 153.08336 27.49546 83.68155
#
# Poissons Ratio (x) = 0.05911 0.27103
# Poissons Ratio (y) = 0.32910 -0.11525
# Poissons Ratio (z) = 0.49581 -0.03787
#
# Static dielectric constant tensor:
#      x y z
#    x 2.005780 0.000000 0.000000 
#    y 0.000000 1.972840 0.000000 
#    z 0.000000 0.000000 1.866690 
# 
# From -- ./inp_files/4496.got.cif
#   From: 2010.05.17/outbox.cif.g08.bks.cpg/sg60_3_cif.got.tgz:4496.got - 2010.06.03 14:59:27.
