data_PCOD9455514
_publ_section_title
;
Structure prediction by ZEFSAII (Michael W. Deem and Ramdas Pophale) SiO2 
 PCOD9455514
Probable space group: P B C N
;
_chemical_formula_sum "Si O2"
_cell_formula_units_Z 56
_cell_length_a 11.831810
_cell_length_b 14.528751
_cell_length_c 14.100632
_cell_angle_alpha 90.000000
_cell_angle_beta 90.000000
_cell_angle_gamma 90.000000
_cell_volume 2423.918683
_symmetry_space_group_name_H-M "P B C N"
_symmetry_group_IT_number 60
_symmetry_cell_setting 'orthorhombic'
loop_
_space_group_symop_operation_xyz
x,y,z
1/2-x,1/2-y,1/2+z
1/2+x,1/2-y,-z
-x,y,1/2-z
-x,-y,-z
1/2+x,1/2+y,1/2-z
1/2-x,1/2+y,z
x,-y,1/2+z
loop_
_atom_site_type_symbol
_atom_site_label
_atom_site_fract_x
_atom_site_fract_y
_atom_site_fract_z
Si Si1 0.016719 0.586559 0.638470
Si Si2 0.780732 0.384759 0.038985
Si Si3 0.797539 0.991284 0.702197
Si Si4 0.876953 0.724909 0.976880
Si Si5 0.956626 0.116536 0.076815
Si Si6 0.665428 0.524806 0.915791
Si Si7 0.562872 0.110897 0.161049
O O1 0.906050 0.619707 0.580326
O O2 0.012401 0.476284 0.628548
O O3 0.000000 0.606512 0.750000
O O4 0.124876 0.639638 0.596431
O O5 0.704215 0.426497 0.124982
O O6 0.729224 0.291120 0.997320
O O7 0.764857 0.464292 0.961468
O O8 0.885643 0.912595 0.669429
O O9 0.818057 0.034674 0.804296
O O10 0.677424 0.939667 0.695187
O O11 0.974712 0.789906 0.933184
O O12 0.911653 0.680016 0.076783
O O13 0.056265 0.041826 0.075269
O O14 0.870542 0.105572 0.987811
O O15 0.500000 0.155781 0.250000
#
# Coordination Sequence:
#
# PCOD9455514 Si02
#       7
#     8   8   8   8   8   8   8
#     4  10  23  46  67  88 129 175 217 260 321 394
#     4   9  22  41  60 101 127 159 224 258 323 388
#     4  10  20  39  65  90 130 172 218 258 315 395
#     4  11  23  40  65  93 134 161 206 280 316 382
#     4   9  20  36  59 100 126 162 208 261 334 379
#     4   9  18  37  67  90 130 169 203 265 324 382
#     4  10  24  43  60  91 122 175 222 256 315 385
#
# _framework density 23.103086000000001
#
# number of rings (size 3 to 8) (size 9 to 14) (size 15 to 20)
#    0.000    2.286    0.000    1.714    4.000    3.429 
#   15.429    0.000    0.000    0.000    0.000    0.000 
#    0.000    0.000    0.000    0.000    0.000    0.000 
#
# Total GULP energy -312914.590722 kJ/mol
# GULP energy per Si atom -5587.760549 kJ/mol
# Density = 2.305050 g / cm^3
# Si number density = 23.103086 Si / 1000 Ang^3
#
#
#
# Elastic Constant Matrix: (Units=GPa)
#
#
# Indices 1 2 3 4 5 6 
#
# 1 87.9519 7.8832 22.4338 0.0000 0.0000 0.0000
# 2 7.8832 69.8704 8.5122 0.0000 0.0000 0.0000
# 3 22.4338 8.5122 91.4522 0.0000 0.0000 0.0000
# 4 0.0000 0.0000 0.0000 5.2033 0.0000 0.0000
# 5 0.0000 0.0000 0.0000 0.0000 38.1099 0.0000
# 6 0.0000 0.0000 0.0000 0.0000 0.0000 30.5049
#
#
#
# Elastic Compliance Matrix: (Units=1/GPa)
#
#
# Indices 1 2 3 4 5 6 
#
# 1 0.012201 -0.001024 -0.002898 0.000000 0.000000 0.000000
# 2 -0.001024 0.014562 -0.001104 0.000000 0.000000 0.000000
# 3 -0.002898 -0.001104 0.011748 0.000000 0.000000 0.000000
# 4 0.000000 0.000000 0.000000 0.192186 0.000000 0.000000
# 5 0.000000 0.000000 0.000000 0.000000 0.026240 0.000000
# 6 0.000000 0.000000 0.000000 0.000000 0.000000 0.032782
#
#
# Mechanical properties :
#
#
# Convention : Reuss Voigt Hill
#
# Bulk Modulus (GPa) = 35.13684 36.32588 35.73136
# Shear Modulus (GPa) = 16.16781 28.79328 22.48055
#
# Velocity S-wave (km/s) = 2.64827 3.53412 3.12277
# Velocity P-wave (km/s) = 4.95911 5.69306 5.33871
#
# Compressibility (1/GPa) = 0.02846016
#
# Stress axis : x y z
#
# Youngs Moduli (GPa) = 81.96259 68.67074 85.11885
#
# Poissons Ratio (x) = 0.07029 0.24664
# Poissons Ratio (y) = 0.08389 0.09400
# Poissons Ratio (z) = 0.23750 0.07584
#
# Static dielectric constant tensor:
#      x y z
#    x 1.946140 0.000000 0.000000 
#    y 0.000000 1.867820 0.000000 
#    z 0.000000 0.000000 1.869030 
# 
# From -- ./inp_files/11987.got.cif
#   From: 2010.05.17/outbox.cif.g08.bks.cpg/sg60_6_cif.got.tgz:11987.got - 2010.06.03 14:59:27.
