data_PCOD9455913
_publ_section_title
;
Structure prediction by ZEFSAII (Michael W. Deem and Ramdas Pophale) SiO2 
 PCOD9455913
Probable space group: P B C N
;
_chemical_formula_sum "Si O2"
_cell_formula_units_Z 32
_cell_length_a 12.787590
_cell_length_b 12.450723
_cell_length_c 7.970112
_cell_angle_alpha 90.000000
_cell_angle_beta 90.000000
_cell_angle_gamma 90.000000
_cell_volume 1268.959317
_symmetry_space_group_name_H-M "P B C N"
_symmetry_group_IT_number 60
_symmetry_cell_setting 'orthorhombic'
loop_
_space_group_symop_operation_xyz
x,y,z
1/2-x,1/2-y,1/2+z
1/2+x,1/2-y,-z
-x,y,1/2-z
-x,-y,-z
1/2+x,1/2+y,1/2-z
1/2-x,1/2+y,z
x,-y,1/2+z
loop_
_atom_site_type_symbol
_atom_site_label
_atom_site_fract_x
_atom_site_fract_y
_atom_site_fract_z
Si Si1 0.605609 0.784230 0.845060
Si Si2 0.336980 0.653529 0.162933
Si Si3 0.392758 0.123516 0.781350
Si Si4 0.662752 0.566119 0.714977
O O1 0.500000 0.814910 0.750000
O O2 0.719069 0.818910 0.772295
O O3 0.611073 0.654066 0.836771
O O4 0.394043 0.767194 0.172669
O O5 0.391417 0.834925 0.471411
O O6 0.378488 0.554012 0.270268
O O7 0.341475 0.612417 0.972306
O O8 0.500000 0.061834 0.750000
O O9 0.286548 0.062218 0.739277
#
# Coordination Sequence:
#
# PCOD9455913 Si02
#       4
#     8   8   8   8
#     4  10  21  37  57  81 110 143 180 223 269 319
#     4  10  21  37  57  81 110 143 180 223 269 319
#     4  10  21  37  57  81 110 143 180 223 269 319
#     4  10  21  37  57  81 110 143 180 223 269 319
#
# _framework density 25.217513
#
# number of rings (size 3 to 8) (size 9 to 14) (size 15 to 20)
#    0.000    2.000    0.000    3.000    0.000    8.000 
#    0.000   10.000    0.000    0.000    0.000    0.000 
#    0.000    0.000    0.000    0.000    0.000    0.000 
#
# Total GULP energy -179113.192216 kJ/mol
# GULP energy per Si atom -5597.287257 kJ/mol
# Density = 2.516012 g / cm^3
# Si number density = 25.217513 Si / 1000 Ang^3
#
#
#
# Elastic Constant Matrix: (Units=GPa)
#
#
# Indices 1 2 3 4 5 6 
#
# 1 132.4544 -5.3621 -5.6223 0.0000 0.0000 0.0000
# 2 -5.3621 106.7843 -1.6837 0.0000 0.0000 0.0000
# 3 -5.6223 -1.6837 44.0340 0.0000 0.0000 0.0000
# 4 0.0000 0.0000 0.0000 11.6791 0.0000 0.0000
# 5 0.0000 0.0000 0.0000 0.0000 30.4887 0.0000
# 6 0.0000 0.0000 0.0000 0.0000 0.0000 -14.7140
#
#
#
# Elastic Compliance Matrix: (Units=1/GPa)
#
#
# Indices 1 2 3 4 5 6 
#
# 1 0.007608 0.000398 0.000987 0.000000 0.000000 0.000000
# 2 0.000398 0.009391 0.000410 0.000000 0.000000 0.000000
# 3 0.000987 0.000410 0.022851 0.000000 0.000000 0.000000
# 4 0.000000 0.000000 0.000000 0.085623 0.000000 0.000000
# 5 0.000000 0.000000 0.000000 0.000000 0.032799 0.000000
# 6 0.000000 0.000000 0.000000 0.000000 0.000000 -0.067963
#
#
# Mechanical properties :
#
#
# Convention : Reuss Voigt Hill
#
# Bulk Modulus (GPa) = 23.02124 28.65961 25.84042
# Shear Modulus (GPa) = 49.40667 25.22015 37.31341
#
# Velocity S-wave (km/s) = 4.43111 3.16587 3.85081
# Velocity P-wave (km/s) = 5.94378 4.97527 5.48096
#
# Compressibility (1/GPa) = 0.04343815
#
# Stress axis : x y z
#
# Youngs Moduli (GPa) = 131.44511 106.48379 43.76110
#
# Poissons Ratio (x) = -0.04234 -0.04317
# Poissons Ratio (y) = -0.05226 -0.01793
# Poissons Ratio (z) = -0.12968 -0.04364
#
# Static dielectric constant tensor:
#      x y z
#    x 2.016960 0.000000 0.000000 
#    y 0.000000 1.944510 0.000000 
#    z 0.000000 0.000000 1.947020 
# 
# From -- ./inp_files/4521.got.cif
#   From: 2010.05.17/outbox.cif.g08.bks.cpg/sg60_3_cif.got.tgz:4521.got - 2010.06.03 14:59:27.
