data_PCOD9455079
_publ_section_title
;
Structure prediction by ZEFSAII (Michael W. Deem and Ramdas Pophale) SiO2 
 PCOD9455079
Probable space group: P B C N
;
_chemical_formula_sum "Si O2"
_cell_formula_units_Z 56
_cell_length_a 24.924280
_cell_length_b 5.140492
_cell_length_c 18.025445
_cell_angle_alpha 90.000000
_cell_angle_beta 90.000000
_cell_angle_gamma 90.000000
_cell_volume 2309.475206
_symmetry_space_group_name_H-M "P B C N"
_symmetry_group_IT_number 60
_symmetry_cell_setting 'orthorhombic'
loop_
_space_group_symop_operation_xyz
x,y,z
1/2-x,1/2-y,1/2+z
1/2+x,1/2-y,-z
-x,y,1/2-z
-x,-y,-z
1/2+x,1/2+y,1/2-z
1/2-x,1/2+y,z
x,-y,1/2+z
loop_
_atom_site_type_symbol
_atom_site_label
_atom_site_fract_x
_atom_site_fract_y
_atom_site_fract_z
Si Si1 0.784139 0.390475 0.327956
Si Si2 0.390427 0.291972 0.848815
Si Si3 0.579781 0.232387 0.226998
Si Si4 0.524196 0.411876 0.362835
Si Si5 0.891959 0.744647 0.915348
Si Si6 0.719123 0.916650 0.148665
Si Si7 0.923772 0.759138 0.495217
O O1 0.759020 0.668432 0.348408
O O2 0.841137 0.323440 0.364776
O O3 0.789290 0.396077 0.238131
O O4 0.377764 0.557738 0.804544
O O5 0.336309 0.180777 0.884587
O O6 0.411595 0.062241 0.796169
O O7 0.430262 0.312656 0.918547
O O8 0.570345 0.265302 0.313785
O O9 0.528198 0.352197 0.184158
O O10 0.552095 0.694406 0.370780
O O11 0.522924 0.292590 0.444898
O O12 0.901600 0.521242 0.975105
O O13 0.886131 0.016154 0.959949
O O14 0.764036 0.705748 0.128767
#
# Coordination Sequence:
#
# PCOD9455079 Si02
#       7
#     8   8   8   8   8   8   8
#     4  10  20  35  60  93 117 153 212 262 312 370
#     4  12  25  43  63  97 125 173 209 263 313 392
#     4  11  25  39  68  96 130 162 225 256 319 377
#     4   9  25  41  65  95 129 171 207 270 316 370
#     4  10  21  40  61  83 127 167 198 260 317 372
#     4  10  22  39  62  88 122 161 205 260 316 372
#     4  10  24  40  64  89 133 164 210 248 325 375
#
# _framework density 24.247933
#
# number of rings (size 3 to 8) (size 9 to 14) (size 15 to 20)
#    0.857    0.857    0.000    3.429    6.000    3.429 
#    0.000    4.286    0.000    0.000    0.000    0.000 
#    0.000    0.000    0.000    0.000    0.000    0.000 
#
# Total GULP energy -312911.367896 kJ/mol
# GULP energy per Si atom -5587.702998 kJ/mol
# Density = 2.419274 g / cm^3
# Si number density = 24.247933 Si / 1000 Ang^3
#
#
#
# Elastic Constant Matrix: (Units=GPa)
#
#
# Indices 1 2 3 4 5 6 
#
# 1 62.8255 -5.4973 -8.8817 0.0000 0.0000 0.0000
# 2 -5.4973 105.4853 28.4564 0.0000 0.0000 0.0000
# 3 -8.8817 28.4564 58.6730 0.0000 0.0000 0.0000
# 4 0.0000 0.0000 0.0000 29.5347 0.0000 0.0000
# 5 0.0000 0.0000 0.0000 0.0000 27.9245 0.0000
# 6 0.0000 0.0000 0.0000 0.0000 0.0000 31.3701
#
#
#
# Elastic Compliance Matrix: (Units=1/GPa)
#
#
# Indices 1 2 3 4 5 6 
#
# 1 0.016269 0.000211 0.002360 0.000000 0.000000 0.000000
# 2 0.000211 0.010910 -0.005259 0.000000 0.000000 0.000000
# 3 0.002360 -0.005259 0.019952 0.000000 0.000000 0.000000
# 4 0.000000 0.000000 0.000000 0.033858 0.000000 0.000000
# 5 0.000000 0.000000 0.000000 0.000000 0.035811 0.000000
# 6 0.000000 0.000000 0.000000 0.000000 0.000000 0.031878
#
#
# Mechanical properties :
#
#
# Convention : Reuss Voigt Hill
#
# Bulk Modulus (GPa) = 23.94914 28.34873 26.14894
# Shear Modulus (GPa) = 29.76697 31.95963 30.86330
#
# Velocity S-wave (km/s) = 3.50753 3.63441 3.57153
# Velocity P-wave (km/s) = 5.12853 5.41558 5.27401
#
# Compressibility (1/GPa) = 0.04175515
#
# Stress axis : x y z
#
# Youngs Moduli (GPa) = 61.46562 91.66098 50.12112
#
# Poissons Ratio (x) = -0.01935 -0.11831
# Poissons Ratio (y) = -0.01298 0.26360
# Poissons Ratio (z) = -0.14508 0.48207
#
# Static dielectric constant tensor:
#      x y z
#    x 2.046330 0.000000 0.000000 
#    y 0.000000 1.940660 0.000000 
#    z 0.000000 0.000000 1.912250 
# 
# From -- ./inp_files/23289.got.cif
#   From: 2010.05.17/outbox.cif.g08.bks.cpg/sg60_12_cif.got.tgz:23289.got - 2010.06.03 14:59:27.
