data_PCOD9455417
_publ_section_title
;
Structure prediction by ZEFSAII (Michael W. Deem and Ramdas Pophale) SiO2 
 PCOD9455417
Probable space group: P B C N
;
_chemical_formula_sum "Si O2"
_cell_formula_units_Z 56
_cell_length_a 15.641536
_cell_length_b 14.100618
_cell_length_c 11.366222
_cell_angle_alpha 90.000000
_cell_angle_beta 90.000000
_cell_angle_gamma 90.000000
_cell_volume 2506.880777
_symmetry_space_group_name_H-M "P B C N"
_symmetry_group_IT_number 60
_symmetry_cell_setting 'orthorhombic'
loop_
_space_group_symop_operation_xyz
x,y,z
1/2-x,1/2-y,1/2+z
1/2+x,1/2-y,-z
-x,y,1/2-z
-x,-y,-z
1/2+x,1/2+y,1/2-z
1/2-x,1/2+y,z
x,-y,1/2+z
loop_
_atom_site_type_symbol
_atom_site_label
_atom_site_fract_x
_atom_site_fract_y
_atom_site_fract_z
Si Si1 0.299770 0.887916 0.342296
Si Si2 0.518473 0.452171 0.872792
Si Si3 0.582696 0.044357 0.062183
Si Si4 0.268468 0.859750 0.085012
Si Si5 0.884308 0.201561 0.064997
Si Si6 0.165415 0.846443 0.531224
Si Si7 0.979261 0.254597 0.621759
O O1 0.252623 0.892368 0.217698
O O2 0.342303 0.783879 0.357390
O O3 0.235854 0.897257 0.452043
O O4 0.372084 0.967178 0.355710
O O5 0.500000 0.504964 0.750000
O O6 0.500000 0.500000 0.000000
O O7 0.452835 0.363479 0.869691
O O8 0.615484 0.414727 0.880760
O O9 0.555213 0.138689 0.130294
O O10 0.651907 0.081874 0.967171
O O11 0.500000 0.000000 0.000000
O O12 0.188746 0.861879 0.996251
O O13 0.294147 0.747870 0.087553
O O14 0.937232 0.251752 0.960156
O O15 0.092798 0.806933 0.442707
O O16 0.000000 0.218767 0.750000
#
# Coordination Sequence:
#
# PCOD9455417 Si02
#       7
#     8   8   8   8   8   8   8
#     4  11  22  40  68  90 133 172 212 271 328 392
#     4  11  25  44  69  98 132 172 219 275 331 391
#     4  11  24  39  57  99 131 166 222 266 337 398
#     4  10  23  41  65  94 130 173 218 266 327 394
#     4  10  22  43  65  95 126 170 225 264 325 398
#     4   9  22  43  62  96 126 169 224 264 321 399
#     4  10  20  38  64  90 131 170 220 274 330 393
#
# _framework density 22.338517
#
# number of rings (size 3 to 8) (size 9 to 14) (size 15 to 20)
#    0.000    1.714    1.429    1.714    4.000    3.429 
#    0.000    1.429    0.000    0.000    0.000    0.000 
#    0.000    0.000    0.000    0.000    0.000    0.000 
#
# Total GULP energy -313189.723962 kJ/mol
# GULP energy per Si atom -5592.673642 kJ/mol
# Density = 2.228767 g / cm^3
# Si number density = 22.338517 Si / 1000 Ang^3
#
#
#
# Elastic Constant Matrix: (Units=GPa)
#
#
# Indices 1 2 3 4 5 6 
#
# 1 93.7172 24.6639 8.5232 0.0000 0.0000 0.0000
# 2 24.6639 87.5079 20.8909 0.0000 0.0000 0.0000
# 3 8.5232 20.8909 102.4494 0.0000 0.0000 0.0000
# 4 0.0000 0.0000 0.0000 0.2927 0.0000 0.0000
# 5 0.0000 0.0000 0.0000 0.0000 14.6411 0.0000
# 6 0.0000 0.0000 0.0000 0.0000 0.0000 40.3454
#
#
#
# Elastic Compliance Matrix: (Units=1/GPa)
#
#
# Indices 1 2 3 4 5 6 
#
# 1 0.011535 -0.003177 -0.000312 0.000000 0.000000 0.000000
# 2 -0.003177 0.012887 -0.002364 0.000000 0.000000 0.000000
# 3 -0.000312 -0.002364 0.010269 0.000000 0.000000 0.000000
# 4 0.000000 0.000000 0.000000 3.416216 0.000000 0.000000
# 5 0.000000 0.000000 0.000000 0.000000 0.068301 0.000000
# 6 0.000000 0.000000 0.000000 0.000000 0.000000 0.024786
#
#
# Mechanical properties :
#
#
# Convention : Reuss Voigt Hill
#
# Bulk Modulus (GPa) = 43.50360 43.53671 43.52016
# Shear Modulus (GPa) = 1.40317 26.36228 13.88272
#
# Velocity S-wave (km/s) = 0.79341 3.43902 2.49563
# Velocity P-wave (km/s) = 4.51180 5.94147 5.27529
#
# Compressibility (1/GPa) = 0.02298660
#
# Stress axis : x y z
#
# Youngs Moduli (GPa) = 86.69447 77.59682 97.38205
#
# Poissons Ratio (x) = 0.24649 0.03037
# Poissons Ratio (y) = 0.27539 0.23017
# Poissons Ratio (z) = 0.02704 0.18341
#
# Static dielectric constant tensor:
#      x y z
#    x 1.817120 0.000000 0.000000 
#    y 0.000000 1.862250 0.000000 
#    z 0.000000 0.000000 1.820620 
# 
# From -- ./inp_files/11978.got.cif
#   From: 2010.05.17/outbox.cif.g08.bks.cpg/sg60_6_cif.got.tgz:11978.got - 2010.06.03 14:59:27.
