data_PCOD9455662
_publ_section_title
;
Structure prediction by ZEFSAII (Michael W. Deem and Ramdas Pophale) SiO2 
 PCOD9455662
Probable space group: P B C N
;
_chemical_formula_sum "Si O2"
_cell_formula_units_Z 36
_cell_length_a 6.229315
_cell_length_b 12.481297
_cell_length_c 22.050717
_cell_angle_alpha 90.000000
_cell_angle_beta 90.000000
_cell_angle_gamma 90.000000
_cell_volume 1714.441717
_symmetry_space_group_name_H-M "P B C N"
_symmetry_group_IT_number 60
_symmetry_cell_setting 'orthorhombic'
loop_
_space_group_symop_operation_xyz
x,y,z
1/2-x,1/2-y,1/2+z
1/2+x,1/2-y,-z
-x,y,1/2-z
-x,-y,-z
1/2+x,1/2+y,1/2-z
1/2-x,1/2+y,z
x,-y,1/2+z
loop_
_atom_site_type_symbol
_atom_site_label
_atom_site_fract_x
_atom_site_fract_y
_atom_site_fract_z
Si Si1 0.641120 0.403079 0.975297
Si Si2 0.216070 0.467275 0.135053
Si Si3 0.500000 0.975205 0.250000
Si Si4 0.109985 0.290538 0.415263
Si Si5 0.112823 0.161659 0.808919
O O1 0.777411 0.453605 0.921200
O O2 0.492730 0.313239 0.945077
O O3 0.500000 0.500000 0.000000
O O4 0.774924 0.354389 0.030500
O O5 0.109304 0.528072 0.192039
O O6 0.444309 0.418811 0.157723
O O7 0.074107 0.365435 0.114134
O O8 0.691882 0.904537 0.221299
O O9 0.280880 0.267681 0.361688
O O10 0.000000 0.213693 0.750000
#
# Coordination Sequence:
#
# PCOD9455662 Si02
#       5
#     8   8   4   8   8
#     4  12  24  42  67  96 133 175 223 278 340 412
#     4  10  20  41  68  93 132 171 220 277 335 402
#     4   8  18  36  70  92 124 178 214 274 336 390
#     4  11  24  41  66  98 133 175 220 276 344 402
#     4   9  18  39  70  92 130 171 215 276 335 396
#
# _framework density 20.998089
#
# number of rings (size 3 to 8) (size 9 to 14) (size 15 to 20)
#    0.000    1.778    2.222    2.000    0.000    0.000 
#    0.000    0.000   58.667    0.000    0.000    0.000 
#    0.000    0.000    0.000    0.000    0.000    0.000 
#
# Total GULP energy -200926.523739 kJ/mol
# GULP energy per Si atom -5581.292326 kJ/mol
# Density = 2.095030 g / cm^3
# Si number density = 20.998089 Si / 1000 Ang^3
#
#
#
# Elastic Constant Matrix: (Units=GPa)
#
#
# Indices 1 2 3 4 5 6 
#
# 1 94.2120 23.7570 55.7689 0.0000 0.0000 0.0000
# 2 23.7570 64.1048 34.0465 0.0000 0.0000 0.0000
# 3 55.7689 34.0465 167.8311 0.0000 0.0000 0.0000
# 4 0.0000 0.0000 0.0000 3663.7449 0.0000 0.0000
# 5 0.0000 0.0000 0.0000 0.0000 65.3934 0.0000
# 6 0.0000 0.0000 0.0000 0.0000 0.0000 8.7295
#
#
#
# Elastic Compliance Matrix: (Units=1/GPa)
#
#
# Indices 1 2 3 4 5 6 
#
# 1 0.013704 -0.002981 -0.003949 0.000000 0.000000 0.000000
# 2 -0.002981 0.018132 -0.002688 0.000000 0.000000 0.000000
# 3 -0.003949 -0.002688 0.007816 0.000000 0.000000 0.000000
# 4 0.000000 0.000000 0.000000 0.000273 0.000000 0.000000
# 5 0.000000 0.000000 0.000000 0.000000 0.015292 0.000000
# 6 0.000000 0.000000 0.000000 0.000000 0.000000 0.114554
#
#
# Mechanical properties :
#
#
# Convention : Reuss Voigt Hill
#
# Bulk Modulus (GPa) = 48.98183 61.47697 55.22940
# Shear Modulus (GPa) = 25.53487 761.74527 393.64007
#
# Velocity S-wave (km/s) = 3.49098 19.06715 13.70663
# Velocity P-wave (km/s) = 6.29498 22.67339 16.63895
#
# Compressibility (1/GPa) = 0.02041574
#
# Stress axis : x y z
#
# Youngs Moduli (GPa) = 72.97335 55.15210 127.94701
#
# Poissons Ratio (x) = 0.16442 0.50524
# Poissons Ratio (y) = 0.21755 0.34387
# Poissons Ratio (z) = 0.28816 0.14823
#
# Static dielectric constant tensor:
#      x y z
#    x 1.782690 0.000000 0.000000 
#    y 0.000000 1.733960 0.000000 
#    z 0.000000 0.000000 1.857050 
# 
# From -- ./inp_files/21462.got.cif
#   From: 2010.05.17/outbox.cif.g08.bks.cpg/sg60_11_cif.got.tgz:21462.got - 2010.06.03 14:59:27.
