data_PCOD9455876
_publ_section_title
;
Structure prediction by ZEFSAII (Michael W. Deem and Ramdas Pophale) SiO2 
 PCOD9455876
Probable space group: P B C N
;
_chemical_formula_sum "Si O2"
_cell_formula_units_Z 32
_cell_length_a 5.475864
_cell_length_b 35.968603
_cell_length_c 7.850784
_cell_angle_alpha 90.000000
_cell_angle_beta 90.000000
_cell_angle_gamma 90.000000
_cell_volume 1546.283966
_symmetry_space_group_name_H-M "P B C N"
_symmetry_group_IT_number 60
_symmetry_cell_setting 'orthorhombic'
loop_
_space_group_symop_operation_xyz
x,y,z
1/2-x,1/2-y,1/2+z
1/2+x,1/2-y,-z
-x,y,1/2-z
-x,-y,-z
1/2+x,1/2+y,1/2-z
1/2-x,1/2+y,z
x,-y,1/2+z
loop_
_atom_site_type_symbol
_atom_site_label
_atom_site_fract_x
_atom_site_fract_y
_atom_site_fract_z
Si Si1 0.000000 0.903359 0.750000
Si Si2 0.803388 0.797416 0.897482
Si Si3 0.000000 0.492878 0.250000
Si Si4 0.171150 0.964416 0.497536
Si Si5 0.500000 0.729967 0.750000
Si Si6 0.000000 0.642583 0.250000
O O1 0.049790 0.929376 0.585492
O O2 0.255186 0.881439 0.781452
O O3 0.699549 0.757896 0.832310
O O4 0.589317 0.828252 0.894684
O O5 0.000000 0.807905 0.750000
O O6 0.904505 0.792940 0.087735
O O7 0.105154 0.522183 0.115205
O O8 0.212234 0.465160 0.311729
O O9 0.000000 0.000000 0.500000
#
# Coordination Sequence:
#
# PCOD9455876 Si02
#       6
#     4   8   4   8   4   4
#     4  12  24  44  74  93 136 200 230 277 387 421
#     4  11  22  43  71 115 146 184 243 291 356 412
#     4  10  21  36  61 102 130 151 220 316 349 394
#     4  11  21  38  66  99 126 171 229 306 345 417
#     4  11  22  38  79 111 144 186 236 306 346 401
#     4  11  27  46  68  98 150 199 232 279 350 472
#
# _framework density 20.694775
#
# number of rings (size 3 to 8) (size 9 to 14) (size 15 to 20)
#    0.000    1.000    6.250    0.750    3.500    0.000 
#    0.000    0.000   11.000    0.000    0.000    0.000 
#    0.000    0.000    0.000    0.000    0.000    0.000 
#
# Total GULP energy -178268.320743 kJ/mol
# GULP energy per Si atom -5570.885023 kJ/mol
# Density = 2.064767 g / cm^3
# Si number density = 20.694775 Si / 1000 Ang^3
#
#
#
# Elastic Constant Matrix: (Units=GPa)
#
#
# Indices 1 2 3 4 5 6 
#
# 1 121.1375 65.2044 38.2300 0.0000 0.0000 0.0000
# 2 65.2044 112.2757 41.7761 0.0000 0.0000 0.0000
# 3 38.2300 41.7761 100.6550 0.0000 0.0000 0.0000
# 4 0.0000 0.0000 0.0000 6.3952 0.0000 0.0000
# 5 0.0000 0.0000 0.0000 0.0000 48.3731 0.0000
# 6 0.0000 0.0000 0.0000 0.0000 0.0000 75.0318
#
#
#
# Elastic Compliance Matrix: (Units=1/GPa)
#
#
# Indices 1 2 3 4 5 6 
#
# 1 0.012349 -0.006418 -0.002027 0.000000 0.000000 0.000000
# 2 -0.006418 0.013868 -0.003319 0.000000 0.000000 0.000000
# 3 -0.002027 -0.003319 0.012082 0.000000 0.000000 0.000000
# 4 0.000000 0.000000 0.000000 0.156367 0.000000 0.000000
# 5 0.000000 0.000000 0.000000 0.000000 0.020673 0.000000
# 6 0.000000 0.000000 0.000000 0.000000 0.000000 0.013328
#
#
# Mechanical properties :
#
#
# Convention : Reuss Voigt Hill
#
# Bulk Modulus (GPa) = 67.68734 69.38770 68.53752
# Shear Modulus (GPa) = 19.44639 38.55054 28.99847
#
# Velocity S-wave (km/s) = 3.06874 4.32072 3.74738
# Velocity P-wave (km/s) = 6.73310 7.64809 7.20514
#
# Compressibility (1/GPa) = 0.01477381
#
# Stress axis : x y z
#
# Youngs Moduli (GPa) = 80.97738 72.10592 82.76756
#
# Poissons Ratio (x) = 0.46275 0.16775
# Poissons Ratio (y) = 0.51969 0.27466
# Poissons Ratio (z) = 0.16412 0.23928
#
# Static dielectric constant tensor:
#      x y z
#    x 1.812480 0.000000 0.000000 
#    y 0.000000 1.775460 0.000000 
#    z 0.000000 0.000000 1.861860 
# 
# From -- ./inp_files/3089.got.cif
#   From: 2010.05.17/outbox.cif.g08.bks.cpg/sg60_2_cif.got.tgz:3089.got - 2010.06.03 14:59:27.
