data_PCOD9455318
_publ_section_title
;
Structure prediction by ZEFSAII (Michael W. Deem and Ramdas Pophale) SiO2 
 PCOD9455318
Probable space group: P B C N
;
_chemical_formula_sum "Si O2"
_cell_formula_units_Z 52
_cell_length_a 21.896851
_cell_length_b 14.888463
_cell_length_c 7.518316
_cell_angle_alpha 90.000000
_cell_angle_beta 90.000000
_cell_angle_gamma 90.000000
_cell_volume 2451.049627
_symmetry_space_group_name_H-M "P B C N"
_symmetry_group_IT_number 60
_symmetry_cell_setting 'orthorhombic'
loop_
_space_group_symop_operation_xyz
x,y,z
1/2-x,1/2-y,1/2+z
1/2+x,1/2-y,-z
-x,y,1/2-z
-x,-y,-z
1/2+x,1/2+y,1/2-z
1/2-x,1/2+y,z
x,-y,1/2+z
loop_
_atom_site_type_symbol
_atom_site_label
_atom_site_fract_x
_atom_site_fract_y
_atom_site_fract_z
Si Si1 0.576434 0.092709 0.421657
Si Si2 0.308625 0.692009 0.840538
Si Si3 0.000000 0.964073 0.750000
Si Si4 0.500000 0.065324 0.750000
Si Si5 0.794652 0.432760 0.091903
Si Si6 0.000000 0.268569 0.750000
Si Si7 0.771802 0.371899 0.470161
Si Si8 0.439803 0.374856 0.461830
O O1 0.536591 0.115646 0.596985
O O2 0.646172 0.082318 0.472747
O O3 0.558255 0.168109 0.280211
O O4 0.548965 0.000046 0.346057
O O5 0.260867 0.632764 0.956241
O O6 0.288056 0.667343 0.636700
O O7 0.375422 0.657467 0.888782
O O8 0.298334 0.793822 0.905491
O O9 0.051122 0.899975 0.664911
O O10 0.038755 0.033026 0.869486
O O11 0.810421 0.401472 0.294119
O O12 0.769834 0.534773 0.078990
O O13 0.987903 0.202129 0.588181
#
# Coordination Sequence:
#
# PCOD9455318 Si02
#       8
#     8   8   4   4   8   4   8   8
#     4  10  20  38  57  88 126 157 217 238 316 379
#     4  10  26  42  65  98 128 173 211 273 325 390
#     4   9  22  44  64  95 116 168 220 271 316 391
#     4   9  20  34  56  83 116 172 194 253 280 370
#     4  10  24  40  66  92 126 176 205 271 318 389
#     4  10  24  36  62  92 122 172 194 272 310 371
#     4  10  25  40  63  96 127 166 217 255 334 376
#     4  10  22  42  66  89 127 159 218 268 326 380
#
# _framework density 21.215399999999999
#
# number of rings (size 3 to 8) (size 9 to 14) (size 15 to 20)
#    0.923    1.231    0.000    0.923    6.462    6.769 
#    0.000    0.000    0.000    0.000    0.000    0.000 
#    0.000    0.000    0.000    0.000    0.000    0.000 
#
# Total GULP energy -289634.316265 kJ/mol
# GULP energy per Si atom -5569.890697 kJ/mol
# Density = 2.116711 g / cm^3
# Si number density = 21.215400 Si / 1000 Ang^3
#
#
#
# Elastic Constant Matrix: (Units=GPa)
#
#
# Indices 1 2 3 4 5 6 
#
# 1 69.0535 26.2015 1.8670 0.0000 0.0000 0.0000
# 2 26.2015 133.4222 23.9395 0.0000 0.0000 0.0000
# 3 1.8670 23.9395 38.0120 0.0000 0.0000 0.0000
# 4 0.0000 0.0000 0.0000 33.1806 0.0000 0.0000
# 5 0.0000 0.0000 0.0000 0.0000 16.8487 0.0000
# 6 0.0000 0.0000 0.0000 0.0000 0.0000 19.7563
#
#
#
# Elastic Compliance Matrix: (Units=1/GPa)
#
#
# Indices 1 2 3 4 5 6 
#
# 1 0.015706 -0.003321 0.001320 0.000000 0.000000 0.000000
# 2 -0.003321 0.009152 -0.005601 0.000000 0.000000 0.000000
# 3 0.001320 -0.005601 0.029770 0.000000 0.000000 0.000000
# 4 0.000000 0.000000 0.000000 0.030138 0.000000 0.000000
# 5 0.000000 0.000000 0.000000 0.000000 0.059352 0.000000
# 6 0.000000 0.000000 0.000000 0.000000 0.000000 0.050617
#
#
# Mechanical properties :
#
#
# Convention : Reuss Voigt Hill
#
# Bulk Modulus (GPa) = 25.36488 38.27819 31.82153
# Shear Modulus (GPa) = 22.41350 26.52244 24.46797
#
# Velocity S-wave (km/s) = 3.25387 3.53958 3.39973
# Velocity P-wave (km/s) = 5.10869 5.89802 5.51749
#
# Compressibility (1/GPa) = 0.03942459
#
# Stress axis : x y z
#
# Youngs Moduli (GPa) = 63.66976 109.26381 33.59089
#
# Poissons Ratio (x) = 0.36289 -0.04435
# Poissons Ratio (y) = 0.21146 0.18814
# Poissons Ratio (z) = -0.08406 0.61196
#
# Static dielectric constant tensor:
#      x y z
#    x 1.747630 0.000000 0.000000 
#    y 0.000000 1.739520 0.000000 
#    z 0.000000 0.000000 2.140550 
# 
# From -- ./inp_files/7931.got.cif
#   From: 2010.05.17/outbox.cif.g08.bks.cpg/sg60_4_cif.got.tgz:7931.got - 2010.06.03 14:59:27.
