data_PCOD9455990
_publ_section_title
;
Structure prediction by ZEFSAII (Michael W. Deem and Ramdas Pophale) SiO2 
 PCOD9455990
Probable space group: P B C N
;
_chemical_formula_sum "Si O2"
_cell_formula_units_Z 60
_cell_length_a 20.300391
_cell_length_b 9.048466
_cell_length_c 14.550241
_cell_angle_alpha 90.000000
_cell_angle_beta 90.000000
_cell_angle_gamma 90.000000
_cell_volume 2672.695906
_symmetry_space_group_name_H-M "P B C N"
_symmetry_group_IT_number 60
_symmetry_cell_setting 'orthorhombic'
loop_
_space_group_symop_operation_xyz
x,y,z
1/2-x,1/2-y,1/2+z
1/2+x,1/2-y,-z
-x,y,1/2-z
-x,-y,-z
1/2+x,1/2+y,1/2-z
1/2-x,1/2+y,z
x,-y,1/2+z
loop_
_atom_site_type_symbol
_atom_site_label
_atom_site_fract_x
_atom_site_fract_y
_atom_site_fract_z
Si Si1 0.836305 0.670964 0.556357
Si Si2 0.514828 0.175669 0.602889
Si Si3 0.500000 0.401675 0.750000
Si Si4 0.665599 0.423777 0.981346
Si Si5 0.778688 0.372456 0.519677
Si Si6 0.513031 0.835003 0.611817
Si Si7 0.383950 0.615377 0.817603
Si Si8 0.120929 0.176963 0.626434
O O1 0.906307 0.707419 0.601448
O O2 0.821913 0.497465 0.568998
O O3 0.772248 0.770783 0.579167
O O4 0.847525 0.711521 0.447950
O O5 0.480095 0.291271 0.668275
O O6 0.489526 0.184594 0.498524
O O7 0.505931 0.006840 0.633153
O O8 0.439943 0.499672 0.786767
O O9 0.678847 0.250871 0.966186
O O10 0.731127 0.520514 0.960507
O O11 0.652345 0.438546 0.090649
O O12 0.612946 0.519882 0.925983
O O13 0.578574 0.762200 0.649440
O O14 0.450369 0.744750 0.647818
O O15 0.344509 0.650651 0.724283
#
# Coordination Sequence:
#
# PCOD9455990 Si02
#       8
#     8   8   4   8   8   8   8   8
#     4   9  18  38  61  88 117 156 207 251 316 363
#     4  10  23  38  61  91 127 168 207 250 305 382
#     4  12  24  34  56  92 132 162 206 248 300 370
#     4  10  22  39  65  86 124 153 212 255 312 372
#     4   9  18  39  66  87 111 162 198 270 317 353
#     4  10  21  41  60  83 131 172 199 243 307 367
#     4  12  23  38  61  93 125 171 200 250 308 372
#     4  10  21  38  57  88 124 162 203 245 298 375
#
# _framework density 22.449242999999999
#
# number of rings (size 3 to 8) (size 9 to 14) (size 15 to 20)
#    0.000    1.867    1.333    3.200    3.733    1.067 
#    0.000    5.333    0.000    0.000    0.000    0.000 
#    0.000    0.000    0.000    0.000    0.000    0.000 
#
# Total GULP energy -334740.466796 kJ/mol
# GULP energy per Si atom -5579.007780 kJ/mol
# Density = 2.239815 g / cm^3
# Si number density = 22.449243 Si / 1000 Ang^3
#
#
#
# Elastic Constant Matrix: (Units=GPa)
#
#
# Indices 1 2 3 4 5 6 
#
# 1 49.1651 32.0877 18.8399 0.0000 0.0000 0.0000
# 2 32.0877 165.8844 43.1583 0.0000 0.0000 0.0000
# 3 18.8399 43.1583 94.4580 0.0000 0.0000 0.0000
# 4 0.0000 0.0000 0.0000 27.7539 0.0000 0.0000
# 5 0.0000 0.0000 0.0000 0.0000 5.2146 0.0000
# 6 0.0000 0.0000 0.0000 0.0000 0.0000 47.8286
#
#
#
# Elastic Compliance Matrix: (Units=1/GPa)
#
#
# Indices 1 2 3 4 5 6 
#
# 1 0.024018 -0.003858 -0.003028 0.000000 0.000000 0.000000
# 2 -0.003858 0.007461 -0.002640 0.000000 0.000000 0.000000
# 3 -0.003028 -0.002640 0.012397 0.000000 0.000000 0.000000
# 4 0.000000 0.000000 0.000000 0.036031 0.000000 0.000000
# 5 0.000000 0.000000 0.000000 0.000000 0.191770 0.000000
# 6 0.000000 0.000000 0.000000 0.000000 0.000000 0.020908
#
#
# Mechanical properties :
#
#
# Convention : Reuss Voigt Hill
#
# Bulk Modulus (GPa) = 40.28187 55.29770 47.78978
# Shear Modulus (GPa) = 15.62937 30.52086 23.07511
#
# Velocity S-wave (km/s) = 2.64144 3.69121 3.20953
# Velocity P-wave (km/s) = 5.22355 6.54618 5.92190
#
# Compressibility (1/GPa) = 0.02482506
#
# Stress axis : x y z
#
# Youngs Moduli (GPa) = 41.63567 134.02408 80.66709
#
# Poissons Ratio (x) = 0.51709 0.24423
# Poissons Ratio (y) = 0.16064 0.21293
# Poissons Ratio (z) = 0.12606 0.35377
#
# Static dielectric constant tensor:
#      x y z
#    x 1.931600 0.000000 0.000000 
#    y 0.000000 1.855180 0.000000 
#    z 0.000000 0.000000 1.851170 
# 
# From -- ./inp_files/17901.got.cif
#   From: 2010.05.17/outbox.cif.g08.bks.cpg/sg60_9_cif.got.tgz:17901.got - 2010.06.03 14:59:27.
