data_PCOD9455704
_publ_section_title
;
Structure prediction by ZEFSAII (Michael W. Deem and Ramdas Pophale) SiO2 
 PCOD9455704
Probable space group: P B C N
;
_chemical_formula_sum "Si O2"
_cell_formula_units_Z 64
_cell_length_a 12.509455
_cell_length_b 8.036505
_cell_length_c 27.439745
_cell_angle_alpha 90.000000
_cell_angle_beta 90.000000
_cell_angle_gamma 90.000000
_cell_volume 2758.580612
_symmetry_space_group_name_H-M "P B C N"
_symmetry_group_IT_number 60
_symmetry_cell_setting 'orthorhombic'
loop_
_space_group_symop_operation_xyz
x,y,z
1/2-x,1/2-y,1/2+z
1/2+x,1/2-y,-z
-x,y,1/2-z
-x,-y,-z
1/2+x,1/2+y,1/2-z
1/2-x,1/2+y,z
x,-y,1/2+z
loop_
_atom_site_type_symbol
_atom_site_label
_atom_site_fract_x
_atom_site_fract_y
_atom_site_fract_z
Si Si1 0.523947 0.740050 0.968767
Si Si2 0.370435 0.448013 0.950713
Si Si3 0.893369 0.229309 0.860854
Si Si4 0.380194 0.748270 0.825500
Si Si5 0.045186 0.769235 0.861906
Si Si6 0.336427 0.107705 0.666510
Si Si7 0.331538 0.106640 0.782155
Si Si8 0.633067 0.045094 0.078943
O O1 0.428116 0.606479 0.973704
O O2 0.585225 0.705682 0.918199
O O3 0.461341 0.908409 0.957579
O O4 0.598648 0.707603 0.014788
O O5 0.418094 0.417439 0.896676
O O6 0.245432 0.473581 0.946714
O O7 0.785558 0.135841 0.847799
O O8 0.875468 0.425417 0.849896
O O9 0.998377 0.182955 0.829049
O O10 0.288762 0.631835 0.802982
O O11 0.353870 0.805246 0.881149
O O12 0.373826 0.922553 0.795822
O O13 0.098254 0.748192 0.809079
O O14 0.097399 0.611070 0.889515
O O15 0.918978 0.739473 0.857163
O O16 0.339635 0.124484 0.724654
#
# Coordination Sequence:
#
# PCOD9455704 Si02
#       8
#     8   8   8   8   8   8   8   8
#     4  10  24  45  64  98 135 170 222 282 337 402
#     4  11  23  40  70 101 128 173 228 280 337 403
#     4  11  26  47  65  93 141 183 218 278 341 402
#     4  10  22  42  69  95 130 170 228 280 325 395
#     4  11  23  40  68  98 132 173 227 281 326 402
#     4  12  25  44  65  95 139 185 215 270 346 405
#     4  11  22  40  71 100 129 174 226 279 337 394
#     4  10  20  42  66  94 131 175 218 278 339 389
#
# _framework density 23.200339
#
# number of rings (size 3 to 8) (size 9 to 14) (size 15 to 20)
#    0.000    1.250    5.000    1.875    7.000    3.000 
#    4.500    0.000    0.000    0.000    0.000    0.000 
#    0.000    0.000    0.000    0.000    0.000    0.000 
#
# Total GULP energy -358222.293670 kJ/mol
# GULP energy per Si atom -5597.223339 kJ/mol
# Density = 2.314753 g / cm^3
# Si number density = 23.200339 Si / 1000 Ang^3
#
#
#
# Elastic Constant Matrix: (Units=GPa)
#
#
# Indices 1 2 3 4 5 6 
#
# 1 137.8166 -7.4444 33.0441 0.0000 0.0000 0.0000
# 2 -7.4444 26.2258 -3.4596 0.0000 0.0000 0.0000
# 3 33.0441 -3.4596 103.8186 0.0000 0.0000 0.0000
# 4 0.0000 0.0000 0.0000 15.4441 0.0000 0.0000
# 5 0.0000 0.0000 0.0000 0.0000 28.1873 0.0000
# 6 0.0000 0.0000 0.0000 0.0000 0.0000 36.6172
#
#
#
# Elastic Compliance Matrix: (Units=1/GPa)
#
#
# Indices 1 2 3 4 5 6 
#
# 1 0.007952 0.001932 -0.002467 0.000000 0.000000 0.000000
# 2 0.001932 0.038768 0.000677 0.000000 0.000000 0.000000
# 3 -0.002467 0.000677 0.010440 0.000000 0.000000 0.000000
# 4 0.000000 0.000000 0.000000 0.064750 0.000000 0.000000
# 5 0.000000 0.000000 0.000000 0.000000 0.035477 0.000000
# 6 0.000000 0.000000 0.000000 0.000000 0.000000 0.027310
#
#
# Mechanical properties :
#
#
# Convention : Reuss Voigt Hill
#
# Bulk Modulus (GPa) = 17.40821 34.68235 26.04528
# Shear Modulus (GPa) = 24.56287 32.43113 28.49700
#
# Velocity S-wave (km/s) = 3.25734 3.74287 3.50851
# Velocity P-wave (km/s) = 4.65476 5.80175 5.25961
#
# Compressibility (1/GPa) = 0.05744415
#
# Stress axis : x y z
#
# Youngs Moduli (GPa) = 125.75801 25.79445 95.78708
#
# Poissons Ratio (x) = -0.04983 0.23627
# Poissons Ratio (y) = -0.24294 -0.06485
# Poissons Ratio (z) = 0.31019 -0.01746
#
# Static dielectric constant tensor:
#      x y z
#    x 1.852190 0.000000 0.000000 
#    y 0.000000 1.957900 0.000000 
#    z 0.000000 0.000000 1.858710 
# 
# From -- ./inp_files/26099.got.cif
#   From: 2010.05.17/outbox.cif.g08.bks.cpg/sg60_14_cif.got.tgz:26099.got - 2010.06.03 14:59:27.
