data_PCOD9455237
_publ_section_title
;
Structure prediction by ZEFSAII (Michael W. Deem and Ramdas Pophale) SiO2 
 PCOD9455237
Probable space group: P B C N
;
_chemical_formula_sum "Si O2"
_cell_formula_units_Z 48
_cell_length_a 8.021775
_cell_length_b 33.940923
_cell_length_c 7.491613
_cell_angle_alpha 90.000000
_cell_angle_beta 90.000000
_cell_angle_gamma 90.000000
_cell_volume 2039.714858
_symmetry_space_group_name_H-M "P B C N"
_symmetry_group_IT_number 60
_symmetry_cell_setting 'orthorhombic'
loop_
_space_group_symop_operation_xyz
x,y,z
1/2-x,1/2-y,1/2+z
1/2+x,1/2-y,-z
-x,y,1/2-z
-x,-y,-z
1/2+x,1/2+y,1/2-z
1/2-x,1/2+y,z
x,-y,1/2+z
loop_
_atom_site_type_symbol
_atom_site_label
_atom_site_fract_x
_atom_site_fract_y
_atom_site_fract_z
Si Si1 0.847962 0.687401 0.483418
Si Si2 0.466787 0.742126 0.957924
Si Si3 0.163595 0.172442 0.364151
Si Si4 0.492851 0.453789 0.536219
Si Si5 0.697957 0.904490 0.541713
Si Si6 0.323397 0.097588 0.021032
O O1 0.702785 0.718277 0.525585
O O2 0.812434 0.680939 0.272799
O O3 0.818163 0.642924 0.549343
O O4 0.009699 0.713429 0.532060
O O5 0.500000 0.744575 0.750000
O O6 0.597165 0.712321 0.050397
O O7 0.229811 0.139125 0.496636
O O8 0.000000 0.157134 0.250000
O O9 0.500000 0.448643 0.750000
O O10 0.500000 0.500000 0.500000
O O11 0.664100 0.434237 0.472110
O O12 0.329591 0.430447 0.466056
O O13 0.688000 0.903444 0.760381
O O14 0.512962 0.914428 0.477176
#
# Coordination Sequence:
#
# PCOD9455237 Si02
#       6
#     8   8   8   8   8   8
#     4  10  21  35  55  80 108 147 195 236 271 327
#     4  11  22  33  51  80 112 147 188 237 289 321
#     4   9  18  35  55  78 110 149 193 232 270 325
#     4  10  20  37  59  88 112 137 175 225 280 340
#     4   9  17  33  61  82 107 147 188 232 266 319
#     4   9  19  34  57  84 108 144 196 226 265 328
#
# _framework density 23.532699999999998
#
# number of rings (size 3 to 8) (size 9 to 14) (size 15 to 20)
#    0.000    2.333    0.000    4.500    7.000    0.667 
#    0.000    3.333    0.000    2.000    0.000    0.000 
#    0.000    0.000    0.000    0.000    0.000    0.000 
#
# Total GULP energy -267855.234030 kJ/mol
# GULP energy per Si atom -5580.317376 kJ/mol
# Density = 2.347914 g / cm^3
# Si number density = 23.532700 Si / 1000 Ang^3
#
#
#
# Elastic Constant Matrix: (Units=GPa)
#
#
# Indices 1 2 3 4 5 6 
#
# 1 207.3501 118.7523 -0.2551 0.0000 0.0000 0.0000
# 2 118.7523 195.2821 5.7098 0.0000 0.0000 0.0000
# 3 -0.2551 5.7098 46.8665 0.0000 0.0000 0.0000
# 4 0.0000 0.0000 0.0000 29.2552 0.0000 0.0000
# 5 0.0000 0.0000 0.0000 0.0000 4.8674 0.0000
# 6 0.0000 0.0000 0.0000 0.0000 0.0000 48.6400
#
#
#
# Elastic Compliance Matrix: (Units=1/GPa)
#
#
# Indices 1 2 3 4 5 6 
#
# 1 0.007416 -0.004527 0.000592 0.000000 0.000000 0.000000
# 2 -0.004527 0.007903 -0.000987 0.000000 0.000000 0.000000
# 3 0.000592 -0.000987 0.021461 0.000000 0.000000 0.000000
# 4 0.000000 0.000000 0.000000 0.034182 0.000000 0.000000
# 5 0.000000 0.000000 0.000000 0.000000 0.205450 0.000000
# 6 0.000000 0.000000 0.000000 0.000000 0.000000 0.020559
#
#
# Mechanical properties :
#
#
# Convention : Reuss Voigt Hill
#
# Bulk Modulus (GPa) = 37.12744 77.54584 57.33664
# Shear Modulus (GPa) = 15.83308 38.23862 27.03585
#
# Velocity S-wave (km/s) = 2.59668 4.03540 3.39317
# Velocity P-wave (km/s) = 4.98011 7.39841 6.30627
#
# Compressibility (1/GPa) = 0.02693425
#
# Stress axis : x y z
#
# Youngs Moduli (GPa) = 134.83860 126.53930 46.59680
#
# Poissons Ratio (x) = 0.57287 -0.02758
# Poissons Ratio (y) = 0.61044 0.04601
# Poissons Ratio (z) = -0.07981 0.12495
#
# Static dielectric constant tensor:
#      x y z
#    x 1.945350 0.000000 0.000000 
#    y 0.000000 1.928750 0.000000 
#    z 0.000000 0.000000 1.947790 
# 
# From -- ./inp_files/4210.got.cif
#   From: 2010.05.17/outbox.cif.g08.bks.cpg/sg60_3_cif.got.tgz:4210.got - 2010.06.03 14:59:27.
