data_PCOD9455936
_publ_section_title
;
Structure prediction by ZEFSAII (Michael W. Deem and Ramdas Pophale) SiO2 
 PCOD9455936
Probable space group: P B C N
;
_chemical_formula_sum "Si O2"
_cell_formula_units_Z 64
_cell_length_a 11.370741
_cell_length_b 16.335782
_cell_length_c 16.899643
_cell_angle_alpha 90.000000
_cell_angle_beta 90.000000
_cell_angle_gamma 90.000000
_cell_volume 3139.107777
_symmetry_space_group_name_H-M "P B C N"
_symmetry_group_IT_number 60
_symmetry_cell_setting 'orthorhombic'
loop_
_space_group_symop_operation_xyz
x,y,z
1/2-x,1/2-y,1/2+z
1/2+x,1/2-y,-z
-x,y,1/2-z
-x,-y,-z
1/2+x,1/2+y,1/2-z
1/2-x,1/2+y,z
x,-y,1/2+z
loop_
_atom_site_type_symbol
_atom_site_label
_atom_site_fract_x
_atom_site_fract_y
_atom_site_fract_z
Si Si1 0.697105 0.645539 0.414001
Si Si2 0.460018 0.926975 0.338832
Si Si3 0.304504 0.029025 0.567577
Si Si4 0.335022 0.760786 0.382654
Si Si5 0.155989 0.803145 0.063897
Si Si6 0.954155 0.122378 0.172941
Si Si7 0.760524 0.002704 0.114618
Si Si8 0.387674 0.661993 0.904605
O O1 0.754914 0.556819 0.397934
O O2 0.778912 0.724336 0.397736
O O3 0.571253 0.643760 0.373402
O O4 0.661103 0.654673 0.505889
O O5 0.500000 0.906815 0.250000
O O6 0.568409 0.954661 0.393904
O O7 0.397106 0.849237 0.380599
O O8 0.355235 0.993717 0.332268
O O9 0.228496 0.112693 0.577957
O O10 0.293784 0.011583 0.473414
O O11 0.353465 0.720124 0.469688
O O12 0.392656 0.709069 0.312681
O O13 0.196391 0.769577 0.367811
O O14 0.024259 0.818533 0.095017
O O15 0.851713 0.074595 0.129086
O O16 0.000000 0.076973 0.250000
O O17 0.845154 0.924490 0.129337
#
# Coordination Sequence:
#
# PCOD9455936 Si02
#       8
#     8   8   8   8   8   8   8   8
#     4  10  22  37  59  99 123 158 218 260 320 384
#     4  11  25  42  64  92 136 172 215 268 339 405
#     4  11  22  40  69  96 127 169 216 279 317 390
#     4  10  21  37  59  90 124 170 208 259 325 390
#     4  11  20  37  67  94 127 165 216 275 321 374
#     4  12  23  37  63  86 130 165 207 263 325 396
#     4  10  22  41  63  95 119 170 217 267 325 392
#     4   9  19  37  62  89 122 153 213 269 309 376
#
# _framework density 20.387957
#
# number of rings (size 3 to 8) (size 9 to 14) (size 15 to 20)
#    0.000    1.500    2.500    3.000    3.500    3.000 
#    0.000    0.000    0.000    0.000    0.000    0.000 
#    0.000    0.000    0.000    0.000    0.000    0.000 
#
# Total GULP energy -356550.611639 kJ/mol
# GULP energy per Si atom -5571.103307 kJ/mol
# Density = 2.034155 g / cm^3
# Si number density = 20.387957 Si / 1000 Ang^3
#
#
#
# Elastic Constant Matrix: (Units=GPa)
#
#
# Indices 1 2 3 4 5 6 
#
# 1 186.8558 79.5440 33.4199 0.0000 0.0000 0.0000
# 2 79.5440 110.7097 13.8271 0.0000 0.0000 0.0000
# 3 33.4199 13.8271 36.4593 0.0000 0.0000 0.0000
# 4 0.0000 0.0000 0.0000 7.5730 0.0000 0.0000
# 5 0.0000 0.0000 0.0000 0.0000 14.7442 0.0000
# 6 0.0000 0.0000 0.0000 0.0000 0.0000 28.2280
#
#
#
# Elastic Compliance Matrix: (Units=1/GPa)
#
#
# Indices 1 2 3 4 5 6 
#
# 1 0.008786 -0.005570 -0.005941 0.000000 0.000000 0.000000
# 2 -0.005570 0.013014 0.000171 0.000000 0.000000 0.000000
# 3 -0.005941 0.000171 0.032808 0.000000 0.000000 0.000000
# 4 0.000000 0.000000 0.000000 0.132049 0.000000 0.000000
# 5 0.000000 0.000000 0.000000 0.000000 0.067823 0.000000
# 6 0.000000 0.000000 0.000000 0.000000 0.000000 0.035426
#
#
# Mechanical properties :
#
#
# Convention : Reuss Voigt Hill
#
# Bulk Modulus (GPa) = 31.32150 65.28965 48.30557
# Shear Modulus (GPa) = 15.46894 23.92461 19.69678
#
# Velocity S-wave (km/s) = 2.75749 3.42931 3.11158
# Velocity P-wave (km/s) = 5.05316 6.91183 6.05425
#
# Compressibility (1/GPa) = 0.03192695
#
# Stress axis : x y z
#
# Youngs Moduli (GPa) = 113.82388 76.84273 30.47993
#
# Poissons Ratio (x) = 0.42804 0.18107
# Poissons Ratio (y) = 0.63404 -0.00520
# Poissons Ratio (z) = 0.67618 -0.01311
#
# Static dielectric constant tensor:
#      x y z
#    x 1.777890 0.000000 0.000000 
#    y 0.000000 1.785280 0.000000 
#    z 0.000000 0.000000 1.816070 
# 
# From -- ./inp_files/20184.got.cif
#   From: 2010.05.17/outbox.cif.g08.bks.cpg/sg60_11_cif.got.tgz:20184.got - 2010.06.03 14:59:27.
