data_PCOD9455077
_publ_section_title
;
Structure prediction by ZEFSAII (Michael W. Deem and Ramdas Pophale) SiO2 
 PCOD9455077
Probable space group: P B C N
;
_chemical_formula_sum "Si O2"
_cell_formula_units_Z 60
_cell_length_a 25.133291
_cell_length_b 5.287803
_cell_length_c 21.600688
_cell_angle_alpha 90.000000
_cell_angle_beta 90.000000
_cell_angle_gamma 90.000000
_cell_volume 2870.729093
_symmetry_space_group_name_H-M "P B C N"
_symmetry_group_IT_number 60
_symmetry_cell_setting 'orthorhombic'
loop_
_space_group_symop_operation_xyz
x,y,z
1/2-x,1/2-y,1/2+z
1/2+x,1/2-y,-z
-x,y,1/2-z
-x,-y,-z
1/2+x,1/2+y,1/2-z
1/2-x,1/2+y,z
x,-y,1/2+z
loop_
_atom_site_type_symbol
_atom_site_label
_atom_site_fract_x
_atom_site_fract_y
_atom_site_fract_z
Si Si1 0.474340 0.532826 0.602323
Si Si2 0.716894 0.485509 0.742472
Si Si3 0.946034 0.258803 0.180823
Si Si4 0.050388 0.734488 0.486058
Si Si5 0.779877 0.964213 0.593689
Si Si6 0.500000 0.150200 0.250000
Si Si7 0.389315 0.254242 0.944164
Si Si8 0.400835 0.473568 0.210189
O O1 0.517563 0.470789 0.655631
O O2 0.499536 0.755750 0.560492
O O3 0.470102 0.300188 0.554360
O O4 0.418363 0.538447 0.638496
O O5 0.758201 0.711409 0.757574
O O6 0.708461 0.470530 0.667795
O O7 0.661245 0.551399 0.775693
O O8 0.988311 0.476940 0.190725
O O9 0.904128 0.305534 0.127274
O O10 0.918335 0.211439 0.246757
O O11 0.088221 0.492095 0.479274
O O12 0.081214 0.990848 0.466032
O O13 0.733147 0.758555 0.580957
O O14 0.828417 0.839137 0.556794
O O15 0.442848 0.276547 0.238818
#
# Coordination Sequence:
#
# PCOD9455077 Si02
#       8
#     8   8   8   8   8   4   8   8
#     4  10  21  42  57  91 130 166 211 249 319 384
#     4  10  24  41  60  90 126 169 212 256 321 392
#     4  11  22  35  57  94 128 160 198 257 322 393
#     4  10  24  39  62  86 128 173 209 249 305 396
#     4  10  20  35  60  88 118 152 202 270 327 368
#     4  12  22  32  62  96 130 162 206 252 346 382
#     4  11  22  39  60  87 122 161 210 255 312 378
#     4  12  22  39  61  95 130 167 208 270 326 395
#
# _framework density 20.900614000000001
#
# number of rings (size 3 to 8) (size 9 to 14) (size 15 to 20)
#    0.000    1.333    4.000    1.600    3.733    6.933 
#    0.000    0.000    0.000    4.800    0.000    0.000 
#    0.000    0.000    0.000    0.000    0.000    0.000 
#
# Total GULP energy -334277.019287 kJ/mol
# GULP energy per Si atom -5571.283655 kJ/mol
# Density = 2.085304 g / cm^3
# Si number density = 20.900614 Si / 1000 Ang^3
#
#
#
# Elastic Constant Matrix: (Units=GPa)
#
#
# Indices 1 2 3 4 5 6 
#
# 1 104.5767 21.2103 25.8024 0.0000 0.0000 0.0000
# 2 21.2103 90.8201 16.6301 0.0000 0.0000 0.0000
# 3 25.8024 16.6301 56.8102 0.0000 0.0000 0.0000
# 4 0.0000 0.0000 0.0000 16.7484 0.0000 0.0000
# 5 0.0000 0.0000 0.0000 0.0000 27.6587 0.0000
# 6 0.0000 0.0000 0.0000 0.0000 0.0000 31.2771
#
#
#
# Elastic Compliance Matrix: (Units=1/GPa)
#
#
# Indices 1 2 3 4 5 6 
#
# 1 0.011027 -0.001752 -0.004495 0.000000 0.000000 0.000000
# 2 -0.001752 0.011913 -0.002691 0.000000 0.000000 0.000000
# 3 -0.004495 -0.002691 0.020432 0.000000 0.000000 0.000000
# 4 0.000000 0.000000 0.000000 0.059707 0.000000 0.000000
# 5 0.000000 0.000000 0.000000 0.000000 0.036155 0.000000
# 6 0.000000 0.000000 0.000000 0.000000 0.000000 0.031972
#
#
# Mechanical properties :
#
#
# Convention : Reuss Voigt Hill
#
# Bulk Modulus (GPa) = 39.22507 42.16585 40.69546
# Shear Modulus (GPa) = 25.30593 27.70777 26.50685
#
# Velocity S-wave (km/s) = 3.48339 3.64496 3.56509
# Velocity P-wave (km/s) = 5.91497 6.15894 6.03819
#
# Compressibility (1/GPa) = 0.02549390
#
# Stress axis : x y z
#
# Youngs Moduli (GPa) = 90.68759 83.94328 48.94262
#
# Poissons Ratio (x) = 0.14708 0.22001
# Poissons Ratio (y) = 0.15889 0.13173
# Poissons Ratio (z) = 0.40767 0.22593
#
# Static dielectric constant tensor:
#      x y z
#    x 1.777540 0.000000 0.000000 
#    y 0.000000 1.843180 0.000000 
#    z 0.000000 0.000000 1.799380 
# 
# From -- ./inp_files/23310.got.cif
#   From: 2010.05.17/outbox.cif.g08.bks.cpg/sg60_12_cif.got.tgz:23310.got - 2010.06.03 14:59:27.
