data_PCOD9455831
_publ_section_title
;
Structure prediction by ZEFSAII (Michael W. Deem and Ramdas Pophale) SiO2 
 PCOD9455831
Probable space group: P B C N
;
_chemical_formula_sum "Si O2"
_cell_formula_units_Z 40
_cell_length_a 22.800657
_cell_length_b 16.318371
_cell_length_c 5.012255
_cell_angle_alpha 90.000000
_cell_angle_beta 90.000000
_cell_angle_gamma 90.000000
_cell_volume 1864.907613
_symmetry_space_group_name_H-M "P B C N"
_symmetry_group_IT_number 60
_symmetry_cell_setting 'orthorhombic'
loop_
_space_group_symop_operation_xyz
x,y,z
1/2-x,1/2-y,1/2+z
1/2+x,1/2-y,-z
-x,y,1/2-z
-x,-y,-z
1/2+x,1/2+y,1/2-z
1/2-x,1/2+y,z
x,-y,1/2+z
loop_
_atom_site_type_symbol
_atom_site_label
_atom_site_fract_x
_atom_site_fract_y
_atom_site_fract_z
Si Si1 0.000000 0.322272 0.750000
Si Si2 0.500000 0.557667 0.750000
Si Si3 0.443251 0.320884 0.942275
Si Si4 0.657751 0.437710 0.688099
Si Si5 0.718708 0.054941 0.021218
Si Si6 0.088247 0.556722 0.508520
O O1 0.044547 0.267425 0.570799
O O2 0.039364 0.377860 0.940261
O O3 0.500000 0.500000 0.500000
O O4 0.447480 0.619536 0.700190
O O5 0.500000 0.333494 0.750000
O O6 0.386735 0.360859 0.805570
O O7 0.650914 0.506229 0.452074
O O8 0.722690 0.401380 0.622717
O O9 0.653767 0.091562 0.047365
O O10 0.721137 0.974860 0.215362
O O11 0.082586 0.519422 0.802645
#
# Coordination Sequence:
#
# PCOD9455831 Si02
#       6
#     4   4   8   8   8   8
#     4  11  26  38  58  87 126 154 196 241 306 360
#     4  11  20  34  54  77 106 152 206 235 266 320
#     4  11  25  37  53  81 128 160 190 235 290 344
#     4  10  21  35  60  85 114 155 201 237 276 335
#     4   8  16  34  59  88 109 136 187 250 291 332
#     4  10  21  40  68  89 110 144 198 254 307 354
#
# _framework density 21.448785999999998
#
# number of rings (size 3 to 8) (size 9 to 14) (size 15 to 20)
#    0.000    2.000    1.000    1.800    8.400    0.000 
#    0.000    0.000    4.400    0.000    0.000    0.000 
#    0.000    0.000    0.000    0.000    0.000    0.000 
#
# Total GULP energy -222796.325334 kJ/mol
# GULP energy per Si atom -5569.908133 kJ/mol
# Density = 2.139997 g / cm^3
# Si number density = 21.448786 Si / 1000 Ang^3
#
#
#
# Elastic Constant Matrix: (Units=GPa)
#
#
# Indices 1 2 3 4 5 6 
#
# 1 119.9399 38.8118 -5.1646 0.0000 0.0000 0.0000
# 2 38.8118 46.2674 -0.9316 0.0000 0.0000 0.0000
# 3 -5.1646 -0.9316 93.9039 0.0000 0.0000 0.0000
# 4 0.0000 0.0000 0.0000 5.7484 0.0000 0.0000
# 5 0.0000 0.0000 0.0000 0.0000 24.1725 0.0000
# 6 0.0000 0.0000 0.0000 0.0000 0.0000 13.6676
#
#
#
# Elastic Compliance Matrix: (Units=1/GPa)
#
#
# Indices 1 2 3 4 5 6 
#
# 1 0.011471 -0.009612 0.000536 0.000000 0.000000 0.000000
# 2 -0.009612 0.029672 -0.000234 0.000000 0.000000 0.000000
# 3 0.000536 -0.000234 0.010676 0.000000 0.000000 0.000000
# 4 0.000000 0.000000 0.000000 0.173963 0.000000 0.000000
# 5 0.000000 0.000000 0.000000 0.000000 0.041369 0.000000
# 6 0.000000 0.000000 0.000000 0.000000 0.000000 0.073166
#
#
# Mechanical properties :
#
#
# Convention : Reuss Voigt Hill
#
# Bulk Modulus (GPa) = 30.12232 36.17139 33.14685
# Shear Modulus (GPa) = 13.51341 23.87741 18.69541
#
# Velocity S-wave (km/s) = 2.51277 3.34013 2.95554
# Velocity P-wave (km/s) = 4.74268 5.63702 5.20908
#
# Compressibility (1/GPa) = 0.03319798
#
# Stress axis : x y z
#
# Youngs Moduli (GPa) = 87.17761 33.70233 93.66531
#
# Poissons Ratio (x) = 0.32393 -0.05016
# Poissons Ratio (y) = 0.83792 0.02194
# Poissons Ratio (z) = -0.04669 0.00789
#
# Static dielectric constant tensor:
#      x y z
#    x 1.895070 0.000000 0.000000 
#    y 0.000000 1.775820 0.000000 
#    z 0.000000 0.000000 1.850530 
# 
# From -- ./inp_files/2312.got.cif
#   From: 2010.05.17/outbox.cif.g08.bks.cpg/sg60_2_cif.got.tgz:2312.got - 2010.06.03 14:59:27.
