data_PCOD9455955
_publ_section_title
;
Structure prediction by ZEFSAII (Michael W. Deem and Ramdas Pophale) SiO2 
 PCOD9455955
Probable space group: P B C N
;
_chemical_formula_sum "Si O2"
_cell_formula_units_Z 32
_cell_length_a 16.972046
_cell_length_b 5.023461
_cell_length_c 17.600680
_cell_angle_alpha 90.000000
_cell_angle_beta 90.000000
_cell_angle_gamma 90.000000
_cell_volume 1500.606012
_symmetry_space_group_name_H-M "P B C N"
_symmetry_group_IT_number 60
_symmetry_cell_setting 'orthorhombic'
loop_
_space_group_symop_operation_xyz
x,y,z
1/2-x,1/2-y,1/2+z
1/2+x,1/2-y,-z
-x,y,1/2-z
-x,-y,-z
1/2+x,1/2+y,1/2-z
1/2-x,1/2+y,z
x,-y,1/2+z
loop_
_atom_site_type_symbol
_atom_site_label
_atom_site_fract_x
_atom_site_fract_y
_atom_site_fract_z
Si Si1 0.526900 0.918476 0.584234
Si Si2 0.033865 0.074829 0.169357
Si Si3 0.300842 0.738850 0.954140
Si Si4 0.201348 0.719252 0.636642
O O1 0.472927 0.676096 0.613364
O O2 0.616543 0.815768 0.582878
O O3 0.500000 0.000000 0.500000
O O4 0.515437 0.177471 0.636001
O O5 0.122443 0.181562 0.175707
O O6 0.000000 0.990287 0.250000
O O7 0.267929 0.448850 0.935161
O O8 0.312660 0.758393 0.045592
O O9 0.227723 0.421492 0.654676
#
# Coordination Sequence:
#
# PCOD9455955 Si02
#       4
#     8   8   8   8
#     4  12  24  42  69  96 128 170 223 272 325 383
#     4  12  26  44  65  98 136 174 217 269 331 393
#     4  10  21  37  62  98 128 161 215 275 321 373
#     4  10  21  38  64  93 126 168 217 263 318 392
#
# _framework density 21.324715999999999
#
# number of rings (size 3 to 8) (size 9 to 14) (size 15 to 20)
#    0.000    1.000    2.500    4.500    7.000    0.000 
#    0.000    7.500    0.000    0.000    0.000    0.000 
#    0.000    0.000    0.000    0.000    0.000    0.000 
#
# Total GULP energy -179131.215354 kJ/mol
# GULP energy per Si atom -5597.850480 kJ/mol
# Density = 2.127618 g / cm^3
# Si number density = 21.324716 Si / 1000 Ang^3
#
#
#
# Elastic Constant Matrix: (Units=GPa)
#
#
# Indices 1 2 3 4 5 6 
#
# 1 75.2479 -6.9912 28.6392 0.0000 0.0000 0.0000
# 2 -6.9912 86.4348 14.1946 0.0000 0.0000 0.0000
# 3 28.6392 14.1946 34.0798 0.0000 0.0000 0.0000
# 4 0.0000 0.0000 0.0000 15.4800 0.0000 0.0000
# 5 0.0000 0.0000 0.0000 0.0000 22.6164 0.0000
# 6 0.0000 0.0000 0.0000 0.0000 0.0000 33.3391
#
#
#
# Elastic Compliance Matrix: (Units=1/GPa)
#
#
# Indices 1 2 3 4 5 6 
#
# 1 0.021397 0.005027 -0.020075 0.000000 0.000000 0.000000
# 2 0.005027 0.013600 -0.009889 0.000000 0.000000 0.000000
# 3 -0.020075 -0.009889 0.050332 0.000000 0.000000 0.000000
# 4 0.000000 0.000000 0.000000 0.064599 0.000000 0.000000
# 5 0.000000 0.000000 0.000000 0.000000 0.044216 0.000000
# 6 0.000000 0.000000 0.000000 0.000000 0.000000 0.029995
#
#
# Mechanical properties :
#
#
# Convention : Reuss Voigt Hill
#
# Bulk Modulus (GPa) = 28.20465 29.71640 28.96052
# Shear Modulus (GPa) = 17.49279 24.94843 21.22061
#
# Velocity S-wave (km/s) = 2.86721 3.42414 3.15797
# Velocity P-wave (km/s) = 4.92099 5.44044 5.18722
#
# Compressibility (1/GPa) = 0.03545515
#
# Stress axis : x y z
#
# Youngs Moduli (GPa) = 46.73538 73.52870 19.86801
#
# Poissons Ratio (x) = -0.36966 0.39885
# Poissons Ratio (y) = -0.23496 0.19648
# Poissons Ratio (z) = 0.93822 0.72716
#
# Static dielectric constant tensor:
#      x y z
#    x 1.762630 0.000000 0.000000 
#    y 0.000000 1.785080 0.000000 
#    z 0.000000 0.000000 1.782210 
# 
# From -- ./inp_files/20337.got.cif
#   From: 2010.05.17/outbox.cif.g08.bks.cpg/sg60_11_cif.got.tgz:20337.got - 2010.06.03 14:59:27.
