data_PCOD9455165
_publ_section_title
;
Structure prediction by ZEFSAII (Michael W. Deem and Ramdas Pophale) SiO2 
 PCOD9455165
Probable space group: P B C N
;
_chemical_formula_sum "Si O2"
_cell_formula_units_Z 36
_cell_length_a 5.037622
_cell_length_b 13.623223
_cell_length_c 19.205161
_cell_angle_alpha 90.000000
_cell_angle_beta 90.000000
_cell_angle_gamma 90.000000
_cell_volume 1318.024232
_symmetry_space_group_name_H-M "P B C N"
_symmetry_group_IT_number 60
_symmetry_cell_setting 'orthorhombic'
loop_
_space_group_symop_operation_xyz
x,y,z
1/2-x,1/2-y,1/2+z
1/2+x,1/2-y,-z
-x,y,1/2-z
-x,-y,-z
1/2+x,1/2+y,1/2-z
1/2-x,1/2+y,z
x,-y,1/2+z
loop_
_atom_site_type_symbol
_atom_site_label
_atom_site_fract_x
_atom_site_fract_y
_atom_site_fract_z
Si Si1 0.000000 0.980622 0.750000
Si Si2 0.749201 0.058255 0.530646
Si Si3 0.345601 0.309635 0.582544
Si Si4 0.241655 0.829896 0.202934
Si Si5 0.153910 0.582233 0.362536
O O1 0.164831 0.055755 0.701609
O O2 0.218767 0.916262 0.787328
O O3 0.769331 0.166965 0.498072
O O4 0.500000 0.000000 0.500000
O O5 0.712948 0.029752 0.610834
O O6 0.000000 0.000000 0.500000
O O7 0.285459 0.210622 0.624868
O O8 0.645119 0.345663 0.595328
O O9 0.141157 0.382711 0.622955
O O10 0.500000 0.816041 0.250000
O O11 0.000000 0.786423 0.250000
#
# Coordination Sequence:
#
# PCOD9455165 Si02
#       5
#     4   8   8   8   8
#     4  10  26  34  56  78 130 140 184 228 290 340
#     4   8  16  33  54  82 106 132 177 238 277 318
#     4  10  20  36  61  80 107 144 195 230 274 335
#     4  10  23  38  52  77 118 152 183 224 284 334
#     4  10  21  34  60  86 107 142 187 236 283 323
#
# _framework density 27.313607999999999
#
# number of rings (size 3 to 8) (size 9 to 14) (size 15 to 20)
#    0.667    1.778    0.000    1.333    7.778    0.000 
#    0.000    0.000    4.889    0.000    0.000    0.000 
#    0.000    0.000    0.000    0.000    0.000    0.000 
#
# Total GULP energy -201227.930811 kJ/mol
# GULP energy per Si atom -5589.664745 kJ/mol
# Density = 2.725144 g / cm^3
# Si number density = 27.313608 Si / 1000 Ang^3
#
#
#
# Elastic Constant Matrix: (Units=GPa)
#
#
# Indices 1 2 3 4 5 6 
#
# 1 174.0002 24.4791 17.7945 0.0000 0.0000 0.0000
# 2 24.4791 96.7034 20.2698 0.0000 0.0000 0.0000
# 3 17.7945 20.2698 53.3380 0.0000 0.0000 0.0000
# 4 0.0000 0.0000 0.0000 31.2896 0.0000 0.0000
# 5 0.0000 0.0000 0.0000 0.0000 26.1421 0.0000
# 6 0.0000 0.0000 0.0000 0.0000 0.0000 24.3005
#
#
#
# Elastic Compliance Matrix: (Units=1/GPa)
#
#
# Indices 1 2 3 4 5 6 
#
# 1 0.006078 -0.001210 -0.001568 0.000000 0.000000 0.000000
# 2 -0.001210 0.011477 -0.003958 0.000000 0.000000 0.000000
# 3 -0.001568 -0.003958 0.020775 0.000000 0.000000 0.000000
# 4 0.000000 0.000000 0.000000 0.031959 0.000000 0.000000
# 5 0.000000 0.000000 0.000000 0.000000 0.038252 0.000000
# 6 0.000000 0.000000 0.000000 0.000000 0.000000 0.041151
#
#
# Mechanical properties :
#
#
# Convention : Reuss Voigt Hill
#
# Bulk Modulus (GPa) = 40.22708 49.90314 45.06511
# Shear Modulus (GPa) = 29.16294 33.77967 31.47130
#
# Velocity S-wave (km/s) = 3.27112 3.52054 3.39812
# Velocity P-wave (km/s) = 5.38766 5.90218 5.65077
#
# Compressibility (1/GPa) = 0.02485887
#
# Stress axis : x y z
#
# Youngs Moduli (GPa) = 164.53687 87.13270 48.13368
#
# Poissons Ratio (x) = 0.10542 0.07547
# Poissons Ratio (y) = 0.19906 0.19050
# Poissons Ratio (z) = 0.25797 0.34486
#
# Static dielectric constant tensor:
#      x y z
#    x 2.078220 0.000000 0.000000 
#    y 0.000000 2.174710 0.000000 
#    z 0.000000 0.000000 2.319300 
# 
# From -- ./inp_files/21470.got.cif
#   From: 2010.05.17/outbox.cif.g08.bks.cpg/sg60_11_cif.got.tgz:21470.got - 2010.06.03 14:59:27.
