data_PCOD9455221
_publ_section_title
;
Structure prediction by ZEFSAII (Michael W. Deem and Ramdas Pophale) SiO2 
 PCOD9455221
Probable space group: P B C N
;
_chemical_formula_sum "Si O2"
_cell_formula_units_Z 48
_cell_length_a 8.863180
_cell_length_b 9.052308
_cell_length_c 26.984227
_cell_angle_alpha 90.000000
_cell_angle_beta 90.000000
_cell_angle_gamma 90.000000
_cell_volume 2165.004848
_symmetry_space_group_name_H-M "P B C N"
_symmetry_group_IT_number 60
_symmetry_cell_setting 'orthorhombic'
loop_
_space_group_symop_operation_xyz
x,y,z
1/2-x,1/2-y,1/2+z
1/2+x,1/2-y,-z
-x,y,1/2-z
-x,-y,-z
1/2+x,1/2+y,1/2-z
1/2-x,1/2+y,z
x,-y,1/2+z
loop_
_atom_site_type_symbol
_atom_site_label
_atom_site_fract_x
_atom_site_fract_y
_atom_site_fract_z
Si Si1 0.311723 0.382459 0.345013
Si Si2 0.133927 0.415127 0.449379
Si Si3 0.115656 0.115167 0.476363
Si Si4 0.646382 0.082590 0.880567
Si Si5 0.554241 0.077300 0.194672
Si Si6 0.061121 0.088074 0.123575
O O1 0.245551 0.378936 0.401702
O O2 0.369725 0.222021 0.329387
O O3 0.175989 0.445209 0.311611
O O4 0.450234 0.498401 0.340338
O O5 0.124861 0.285941 0.490422
O O6 0.217147 0.551976 0.474156
O O7 0.972776 0.442310 0.424749
O O8 0.048832 0.129571 0.421246
O O9 0.000000 0.000000 0.500000
O O10 0.634171 0.253721 0.863433
O O11 0.588200 0.977496 0.836836
O O12 0.812521 0.028265 0.893674
O O13 0.500000 0.105294 0.250000
#
# Coordination Sequence:
#
# PCOD9455221 Si02
#       6
#     8   8   8   8   8   8
#     4  10  20  40  61  80 113 154 189 227 282 346
#     4   9  19  38  59  78 110 152 187 224 279 343
#     4  10  21  36  56  84 112 145 188 235 282 327
#     4  10  20  37  58  84 112 149 191 227 278 344
#     4  11  23  38  59  86 113 147 189 237 285 329
#     4  10  21  37  60  84 113 151 191 228 277 345
#
# _framework density 22.170853000000001
#
# number of rings (size 3 to 8) (size 9 to 14) (size 15 to 20)
#    0.000    2.000    0.000    6.000    0.000    6.667 
#    0.000    3.333    0.000    0.000    0.000    0.000 
#    0.000    0.000    0.000    0.000    0.000    0.000 
#
# Total GULP energy -267964.507149 kJ/mol
# GULP energy per Si atom -5582.593899 kJ/mol
# Density = 2.212039 g / cm^3
# Si number density = 22.170853 Si / 1000 Ang^3
#
#
#
# Elastic Constant Matrix: (Units=GPa)
#
#
# Indices 1 2 3 4 5 6 
#
# 1 95.8643 30.0628 -3.0119 0.0000 0.0000 0.0000
# 2 30.0628 88.4431 18.3565 0.0000 0.0000 0.0000
# 3 -3.0119 18.3565 33.7628 0.0000 0.0000 0.0000
# 4 0.0000 0.0000 0.0000 19.6032 0.0000 0.0000
# 5 0.0000 0.0000 0.0000 0.0000 23.5392 0.0000
# 6 0.0000 0.0000 0.0000 0.0000 0.0000 47.7612
#
#
#
# Elastic Compliance Matrix: (Units=1/GPa)
#
#
# Indices 1 2 3 4 5 6 
#
# 1 0.012079 -0.004880 0.003731 0.000000 0.000000 0.000000
# 2 -0.004880 0.014717 -0.008437 0.000000 0.000000 0.000000
# 3 0.003731 -0.008437 0.034538 0.000000 0.000000 0.000000
# 4 0.000000 0.000000 0.000000 0.051012 0.000000 0.000000
# 5 0.000000 0.000000 0.000000 0.000000 0.042482 0.000000
# 6 0.000000 0.000000 0.000000 0.000000 0.000000 0.020938
#
#
# Mechanical properties :
#
#
# Convention : Reuss Voigt Hill
#
# Bulk Modulus (GPa) = 23.71814 34.32056 29.01935
# Shear Modulus (GPa) = 23.92445 29.69158 26.80801
#
# Velocity S-wave (km/s) = 3.28852 3.66350 3.48106
# Velocity P-wave (km/s) = 5.01401 5.78002 5.41059
#
# Compressibility (1/GPa) = 0.04216183
#
# Stress axis : x y z
#
# Youngs Moduli (GPa) = 82.78818 67.95073 28.95357
#
# Poissons Ratio (x) = 0.33161 -0.10802
# Poissons Ratio (y) = 0.40402 0.24427
# Poissons Ratio (z) = -0.30887 0.57327
#
# Static dielectric constant tensor:
#      x y z
#    x 1.792090 0.000000 0.000000 
#    y 0.000000 1.904830 0.000000 
#    z 0.000000 0.000000 1.826520 
# 
# From -- ./inp_files/25927.got.cif
#   From: 2010.05.17/outbox.cif.g08.bks.cpg/sg60_13_cif.got.tgz:25927.got - 2010.06.03 14:59:27.
