data_PCOD9455882
_publ_section_title
;
Structure prediction by ZEFSAII (Michael W. Deem and Ramdas Pophale) SiO2 
 PCOD9455882
Probable space group: P B C N
;
_chemical_formula_sum "Si O2"
_cell_formula_units_Z 56
_cell_length_a 5.020733
_cell_length_b 26.173040
_cell_length_c 17.678926
_cell_angle_alpha 90.000000
_cell_angle_beta 90.000000
_cell_angle_gamma 90.000000
_cell_volume 2323.149579
_symmetry_space_group_name_H-M "P B C N"
_symmetry_group_IT_number 60
_symmetry_cell_setting 'orthorhombic'
loop_
_space_group_symop_operation_xyz
x,y,z
1/2-x,1/2-y,1/2+z
1/2+x,1/2-y,-z
-x,y,1/2-z
-x,-y,-z
1/2+x,1/2+y,1/2-z
1/2-x,1/2+y,z
x,-y,1/2+z
loop_
_atom_site_type_symbol
_atom_site_label
_atom_site_fract_x
_atom_site_fract_y
_atom_site_fract_z
Si Si1 0.394958 0.691024 0.055354
Si Si2 0.254400 0.530640 0.469955
Si Si3 0.774973 0.557448 0.202438
Si Si4 0.596723 0.373817 0.429153
Si Si5 0.112562 0.628554 0.828781
Si Si6 0.845538 0.744586 0.674600
Si Si7 0.108898 0.339736 0.868886
O O1 0.483544 0.743972 0.096362
O O2 0.098763 0.669955 0.064109
O O3 0.494861 0.677618 0.971959
O O4 0.348913 0.604404 0.879195
O O5 0.500000 0.500000 0.500000
O O6 0.269629 0.533229 0.379569
O O7 0.293087 0.585959 0.509018
O O8 0.000000 0.500000 0.500000
O O9 0.500000 0.563585 0.250000
O O10 0.930815 0.609970 0.178301
O O11 0.000000 0.527864 0.250000
O O12 0.846799 0.363820 0.376824
O O13 0.581262 0.344147 0.608670
O O14 0.000000 0.605994 0.750000
O O15 0.223108 0.685849 0.814062
O O16 0.601814 0.783923 0.668970
O O17 0.000000 0.760917 0.750000
#
# Coordination Sequence:
#
# PCOD9455882 Si02
#       7
#     8   8   8   8   8   8   8
#     4  10  22  37  63  97 138 178 233 275 345 402
#     4  12  27  50  78 106 135 182 224 287 364 433
#     4  12  25  43  72 109 149 177 223 284 358 429
#     4  12  25  47  72  98 138 176 238 294 358 432
#     4  11  26  45  70  97 138 195 244 291 333 397
#     4   9  22  39  60  97 141 188 240 277 327 393
#     4  10  21  36  62 101 139 182 223 276 340 410
#
# _framework density 24.105204000000001
#
# number of rings (size 3 to 8) (size 9 to 14) (size 15 to 20)
#    0.857    0.286    1.429    4.286    6.000    1.143 
#    0.000    7.143    0.000    0.000    0.000    0.000 
#    0.000    0.000    0.000    0.000    0.000    0.000 
#
# Total GULP energy -312237.144403 kJ/mol
# GULP energy per Si atom -5575.663293 kJ/mol
# Density = 2.405034 g / cm^3
# Si number density = 24.105204 Si / 1000 Ang^3
#
#
#
# Elastic Constant Matrix: (Units=GPa)
#
#
# Indices 1 2 3 4 5 6 
#
# 1 126.2073 13.7331 46.0179 0.0000 0.0000 0.0000
# 2 13.7331 52.3020 17.3666 0.0000 0.0000 0.0000
# 3 46.0179 17.3666 145.5943 0.0000 0.0000 0.0000
# 4 0.0000 0.0000 0.0000 -36.0015 0.0000 0.0000
# 5 0.0000 0.0000 0.0000 0.0000 56.5874 0.0000
# 6 0.0000 0.0000 0.0000 0.0000 0.0000 38.0838
#
#
#
# Elastic Compliance Matrix: (Units=1/GPa)
#
#
# Indices 1 2 3 4 5 6 
#
# 1 0.009065 -0.001488 -0.002688 0.000000 0.000000 0.000000
# 2 -0.001488 0.020152 -0.001934 0.000000 0.000000 0.000000
# 3 -0.002688 -0.001934 0.007949 0.000000 0.000000 0.000000
# 4 0.000000 0.000000 0.000000 -0.027777 0.000000 0.000000
# 5 0.000000 0.000000 0.000000 0.000000 0.017672 0.000000
# 6 0.000000 0.000000 0.000000 0.000000 0.000000 0.026258
#
#
# Mechanical properties :
#
#
# Convention : Reuss Voigt Hill
#
# Bulk Modulus (GPa) = 40.08338 53.14874 46.61606
# Shear Modulus (GPa) = 67.70126 28.19968 47.95047
#
# Velocity S-wave (km/s) = 5.30535 3.42403 4.46490
# Velocity P-wave (km/s) = 7.36163 6.14235 6.77946
#
# Compressibility (1/GPa) = 0.02494799
#
# Stress axis : x y z
#
# Youngs Moduli (GPa) = 110.30937 49.62182 125.80870
#
# Poissons Ratio (x) = 0.07383 0.33815
# Poissons Ratio (y) = 0.16412 0.24326
# Poissons Ratio (z) = 0.29649 0.09595
#
# Static dielectric constant tensor:
#      x y z
#    x 1.900260 0.000000 0.000000 
#    y 0.000000 2.032180 0.000000 
#    z 0.000000 0.000000 2.066580 
# 
# From -- ./inp_files/14085.got.cif
#   From: 2010.05.17/outbox.cif.g08.bks.cpg/sg60_8_cif.got.tgz:14085.got - 2010.06.03 14:59:27.
