data_PCOD9455180
_publ_section_title
;
Structure prediction by ZEFSAII (Michael W. Deem and Ramdas Pophale) SiO2 
 PCOD9455180
Probable space group: P B C N
;
_chemical_formula_sum "Si O2"
_cell_formula_units_Z 36
_cell_length_a 11.437008
_cell_length_b 19.491147
_cell_length_c 8.301982
_cell_angle_alpha 90.000000
_cell_angle_beta 90.000000
_cell_angle_gamma 90.000000
_cell_volume 1850.681183
_symmetry_space_group_name_H-M "P B C N"
_symmetry_group_IT_number 60
_symmetry_cell_setting 'orthorhombic'
loop_
_space_group_symop_operation_xyz
x,y,z
1/2-x,1/2-y,1/2+z
1/2+x,1/2-y,-z
-x,y,1/2-z
-x,-y,-z
1/2+x,1/2+y,1/2-z
1/2-x,1/2+y,z
x,-y,1/2+z
loop_
_atom_site_type_symbol
_atom_site_label
_atom_site_fract_x
_atom_site_fract_y
_atom_site_fract_z
Si Si1 0.500000 0.343587 0.750000
Si Si2 0.303462 0.435943 0.582611
Si Si3 0.685272 0.289501 0.505310
Si Si4 0.138336 0.667096 0.229847
Si Si5 0.639530 0.418005 0.279494
O O1 0.413609 0.392591 0.649906
O O2 0.578471 0.299007 0.630167
O O3 0.194151 0.405927 0.681969
O O4 0.297676 0.423027 0.392723
O O5 0.326320 0.515543 0.616642
O O6 0.801201 0.303174 0.609201
O O7 0.677311 0.217957 0.413892
O O8 0.671974 0.349345 0.373613
O O9 0.000000 0.665708 0.250000
O O10 0.500000 0.419288 0.250000
#
# Coordination Sequence:
#
# PCOD9455180 Si02
#       5
#     4   8   8   8   8
#     4  10  20  36  62  94 126 158 204 268 316 376
#     4  11  22  39  62  99 128 165 211 264 329 378
#     4  11  24  40  67  95 127 166 220 262 327 372
#     4  11  26  44  61  94 135 171 211 262 318 395
#     4  12  21  39  69 100 129 163 214 282 321 370
#
# _framework density 19.452296
#
# number of rings (size 3 to 8) (size 9 to 14) (size 15 to 20)
#    0.000    0.889    3.333    5.333    6.222    0.000 
#    0.000    4.444    0.000    0.000    0.000    0.000 
#    0.000    0.000    0.000    0.000    0.000    0.000 
#
# Total GULP energy -201433.221906 kJ/mol
# GULP energy per Si atom -5595.367275 kJ/mol
# Density = 1.940802 g / cm^3
# Si number density = 19.452296 Si / 1000 Ang^3
#
#
#
# Elastic Constant Matrix: (Units=GPa)
#
#
# Indices 1 2 3 4 5 6 
#
# 1 107.7448 -3.4019 17.0989 0.0000 0.0000 0.0000
# 2 -3.4019 44.0372 -7.3626 0.0000 0.0000 0.0000
# 3 17.0989 -7.3626 86.7281 0.0000 0.0000 0.0000
# 4 0.0000 0.0000 0.0000 1.6175 0.0000 0.0000
# 5 0.0000 0.0000 0.0000 0.0000 19.7270 0.0000
# 6 0.0000 0.0000 0.0000 0.0000 0.0000 3.6356
#
#
#
# Elastic Compliance Matrix: (Units=1/GPa)
#
#
# Indices 1 2 3 4 5 6 
#
# 1 0.009589 0.000431 -0.001854 0.000000 0.000000 0.000000
# 2 0.000431 0.023054 0.001872 0.000000 0.000000 0.000000
# 3 -0.001854 0.001872 0.012055 0.000000 0.000000 0.000000
# 4 0.000000 0.000000 0.000000 0.618245 0.000000 0.000000
# 5 0.000000 0.000000 0.000000 0.000000 0.050692 0.000000
# 6 0.000000 0.000000 0.000000 0.000000 0.000000 0.275058
#
#
# Mechanical properties :
#
#
# Convention : Reuss Voigt Hill
#
# Bulk Modulus (GPa) = 21.93162 27.90876 24.92019
# Shear Modulus (GPa) = 4.98508 20.47441 12.72974
#
# Velocity S-wave (km/s) = 1.60259 3.24781 2.56092
# Velocity P-wave (km/s) = 3.83711 5.33318 4.64576
#
# Compressibility (1/GPa) = 0.04559627
#
# Stress axis : x y z
#
# Youngs Moduli (GPa) = 104.28606 43.37573 82.95485
#
# Poissons Ratio (x) = -0.01869 0.15379
# Poissons Ratio (y) = -0.04493 -0.15531
# Poissons Ratio (z) = 0.19334 -0.08121
#
# Static dielectric constant tensor:
#      x y z
#    x 1.662030 0.000000 0.000000 
#    y 0.000000 1.650440 0.000000 
#    z 0.000000 0.000000 1.685930 
# 
# From -- ./inp_files/4871.got.cif
#   From: 2010.05.17/outbox.cif.g08.bks.cpg/sg60_3_cif.got.tgz:4871.got - 2010.06.03 14:59:27.
