data_PCOD9455872
_publ_section_title
;
Structure prediction by ZEFSAII (Michael W. Deem and Ramdas Pophale) SiO2 
 PCOD9455872
Probable space group: P B C N
;
_chemical_formula_sum "Si O2"
_cell_formula_units_Z 32
_cell_length_a 16.579256
_cell_length_b 20.196742
_cell_length_c 4.929463
_cell_angle_alpha 90.000000
_cell_angle_beta 90.000000
_cell_angle_gamma 90.000000
_cell_volume 1650.615680
_symmetry_space_group_name_H-M "P B C N"
_symmetry_group_IT_number 60
_symmetry_cell_setting 'orthorhombic'
loop_
_space_group_symop_operation_xyz
x,y,z
1/2-x,1/2-y,1/2+z
1/2+x,1/2-y,-z
-x,y,1/2-z
-x,-y,-z
1/2+x,1/2+y,1/2-z
1/2-x,1/2+y,z
x,-y,1/2+z
loop_
_atom_site_type_symbol
_atom_site_label
_atom_site_fract_x
_atom_site_fract_y
_atom_site_fract_z
Si Si1 0.652450 0.789810 0.047416
Si Si2 0.500000 0.734639 0.750000
Si Si3 0.500000 0.353868 0.750000
Si Si4 0.361680 0.548219 0.426780
Si Si5 0.736461 0.840358 0.551964
O O1 0.566124 0.776981 0.913111
O O2 0.701841 0.838289 0.852582
O O3 0.697824 0.718858 0.032545
O O4 0.665444 0.819648 0.345052
O O5 0.535823 0.690161 0.499683
O O6 0.565578 0.399249 0.599372
O O7 0.366406 0.491064 0.646969
O O8 0.282476 0.591365 0.490514
#
# Coordination Sequence:
#
# PCOD9455872 Si02
#       5
#     8   4   4   8   8
#     4  10  21  36  60  83 116 149 199 248 309 349
#     4  12  22  37  62  92 120 161 190 252 312 370
#     4  12  24  37  56  88 130 161 204 232 286 372
#     4  12  24  39  58  84 123 170 207 236 283 354
#     4  10  21  38  56  84 114 156 201 249 290 350
#
# _framework density 19.386704000000002
#
# number of rings (size 3 to 8) (size 9 to 14) (size 15 to 20)
#    0.000    1.000    2.500    5.250    7.000    0.000 
#    0.000    0.000    0.000    0.000    0.000   17.500 
#    0.000    0.000    0.000    0.000    0.000    0.000 
#
# Total GULP energy -178611.709400 kJ/mol
# GULP energy per Si atom -5581.615919 kJ/mol
# Density = 1.934258 g / cm^3
# Si number density = 19.386704 Si / 1000 Ang^3
#
#
#
# Elastic Constant Matrix: (Units=GPa)
#
#
# Indices 1 2 3 4 5 6 
#
# 1 56.5406 27.8344 6.3043 0.0000 0.0000 0.0000
# 2 27.8344 44.7469 10.3449 0.0000 0.0000 0.0000
# 3 6.3043 10.3449 128.0973 0.0000 0.0000 0.0000
# 4 0.0000 0.0000 0.0000 4.1327 0.0000 0.0000
# 5 0.0000 0.0000 0.0000 0.0000 31.0274 0.0000
# 6 0.0000 0.0000 0.0000 0.0000 0.0000 12.3315
#
#
#
# Elastic Compliance Matrix: (Units=1/GPa)
#
#
# Indices 1 2 3 4 5 6 
#
# 1 0.025493 -0.015864 0.000027 0.000000 0.000000 0.000000
# 2 -0.015864 0.032645 -0.001856 0.000000 0.000000 0.000000
# 3 0.000027 -0.001856 0.007955 0.000000 0.000000 0.000000
# 4 0.000000 0.000000 0.000000 0.241973 0.000000 0.000000
# 5 0.000000 0.000000 0.000000 0.000000 0.032230 0.000000
# 6 0.000000 0.000000 0.000000 0.000000 0.000000 0.081093
#
#
# Mechanical properties :
#
#
# Convention : Reuss Voigt Hill
#
# Bulk Modulus (GPa) = 32.56572 35.37245 33.96909
# Shear Modulus (GPa) = 10.70640 21.82505 16.26573
#
# Velocity S-wave (km/s) = 2.35256 3.35890 2.89972
# Velocity P-wave (km/s) = 4.92075 5.77306 5.36386
#
# Compressibility (1/GPa) = 0.03070713
#
# Stress axis : x y z
#
# Youngs Moduli (GPa) = 39.22627 30.63260 125.70521
#
# Poissons Ratio (x) = 0.48595 -0.00333
# Poissons Ratio (y) = 0.62228 0.23326
# Poissons Ratio (z) = -0.00104 0.05684
#
# Static dielectric constant tensor:
#      x y z
#    x 1.710200 0.000000 0.000000 
#    y 0.000000 1.659590 0.000000 
#    z 0.000000 0.000000 1.677090 
# 
# From -- ./inp_files/1050.got.cif
#   From: 2010.05.17/outbox.cif.g08.bks.cpg/sg60_1_cif.got.tgz:1050.got - 2010.06.03 14:59:27.
