data_PCOD9455107
_publ_section_title
;
Structure prediction by ZEFSAII (Michael W. Deem and Ramdas Pophale) SiO2 
 PCOD9455107
Probable space group: P B C N
;
_chemical_formula_sum "Si O2"
_cell_formula_units_Z 64
_cell_length_a 22.033949
_cell_length_b 9.175651
_cell_length_c 15.912977
_cell_angle_alpha 90.000000
_cell_angle_beta 90.000000
_cell_angle_gamma 90.000000
_cell_volume 3217.219272
_symmetry_space_group_name_H-M "P B C N"
_symmetry_group_IT_number 60
_symmetry_cell_setting 'orthorhombic'
loop_
_space_group_symop_operation_xyz
x,y,z
1/2-x,1/2-y,1/2+z
1/2+x,1/2-y,-z
-x,y,1/2-z
-x,-y,-z
1/2+x,1/2+y,1/2-z
1/2-x,1/2+y,z
x,-y,1/2+z
loop_
_atom_site_type_symbol
_atom_site_label
_atom_site_fract_x
_atom_site_fract_y
_atom_site_fract_z
Si Si1 0.895499 0.568076 0.505732
Si Si2 0.277002 0.188249 0.806639
Si Si3 0.154229 0.148540 0.447583
Si Si4 0.079019 0.392776 0.670792
Si Si5 0.843387 0.177451 0.576256
Si Si6 0.210151 0.409872 0.699566
Si Si7 0.447320 0.886229 0.854812
Si Si8 0.715896 0.097208 0.968971
O O1 0.890781 0.741833 0.505395
O O2 0.910952 0.510278 0.412509
O O3 0.941241 0.508009 0.573894
O O4 0.826574 0.512948 0.523543
O O5 0.327635 0.271524 0.860653
O O6 0.216053 0.176134 0.863637
O O7 0.259119 0.291913 0.727946
O O8 0.294929 0.028548 0.774321
O O9 0.217456 0.128318 0.497220
O O10 0.132648 0.985098 0.434817
O O11 0.146361 0.327051 0.682309
O O12 0.066872 0.454444 0.763627
O O13 0.014670 0.317689 0.650210
O O14 0.895731 0.271984 0.619745
O O15 0.821045 0.253059 0.488733
O O16 0.222246 0.510677 0.618331
#
# Coordination Sequence:
#
# PCOD9455107 Si02
#       8
#     8   8   8   8   8   8   8   8
#     4  10  21  37  59  84 116 155 200 244 296 350
#     4  11  21  35  55  84 118 149 185 231 298 355
#     4  11  21  34  54  81 117 152 187 233 298 354
#     4  10  21  37  61  88 108 157 204 243 288 349
#     4  10  20  36  53  81 111 156 187 233 292 350
#     4  11  22  35  56  87 116 144 188 241 291 352
#     4  10  20  39  63  80 115 151 207 250 286 344
#     4   9  21  33  53  78 115 149 186 232 291 355
#
# _framework density 19.892955000000001
#
# number of rings (size 3 to 8) (size 9 to 14) (size 15 to 20)
#    0.000    1.750    2.500    2.625    7.000    0.000 
#    0.000    0.625    0.000    7.500    0.000    0.000 
#    0.000    0.000    0.000    0.000    0.000    0.000 
#
# Total GULP energy -356278.060798 kJ/mol
# GULP energy per Si atom -5566.844700 kJ/mol
# Density = 1.984768 g / cm^3
# Si number density = 19.892955 Si / 1000 Ang^3
#
#
#
# Elastic Constant Matrix: (Units=GPa)
#
#
# Indices 1 2 3 4 5 6 
#
# 1 70.8730 10.4228 19.6007 0.0000 0.0000 0.0000
# 2 10.4228 100.3356 22.1647 0.0000 0.0000 0.0000
# 3 19.6007 22.1647 78.6580 0.0000 0.0000 0.0000
# 4 0.0000 0.0000 0.0000 16.6515 0.0000 0.0000
# 5 0.0000 0.0000 0.0000 0.0000 23.2435 0.0000
# 6 0.0000 0.0000 0.0000 0.0000 0.0000 9.1136
#
#
#
# Elastic Compliance Matrix: (Units=1/GPa)
#
#
# Indices 1 2 3 4 5 6 
#
# 1 0.015213 -0.000792 -0.003568 0.000000 0.000000 0.000000
# 2 -0.000792 0.010669 -0.002809 0.000000 0.000000 0.000000
# 3 -0.003568 -0.002809 0.014394 0.000000 0.000000 0.000000
# 4 0.000000 0.000000 0.000000 0.060055 0.000000 0.000000
# 5 0.000000 0.000000 0.000000 0.000000 0.043023 0.000000
# 6 0.000000 0.000000 0.000000 0.000000 0.000000 0.109726
#
#
# Mechanical properties :
#
#
# Convention : Reuss Voigt Hill
#
# Bulk Modulus (GPa) = 38.55305 39.36034 38.95670
# Shear Modulus (GPa) = 18.11181 22.98030 20.54606
#
# Velocity S-wave (km/s) = 3.02066 3.40251 3.21725
# Velocity P-wave (km/s) = 5.62034 5.93844 5.78158
#
# Compressibility (1/GPa) = 0.02593829
#
# Stress axis : x y z
#
# Youngs Moduli (GPa) = 65.73357 93.72616 69.47420
#
# Poissons Ratio (x) = 0.07425 0.24786
# Poissons Ratio (y) = 0.05207 0.19516
# Poissons Ratio (z) = 0.23452 0.26328
#
# Static dielectric constant tensor:
#      x y z
#    x 1.729430 0.000000 0.000000 
#    y 0.000000 1.715970 0.000000 
#    z 0.000000 0.000000 1.793770 
# 
# From -- ./inp_files/21052.got.cif
#   From: 2010.05.17/outbox.cif.g08.bks.cpg/sg60_11_cif.got.tgz:21052.got - 2010.06.03 14:59:27.
