data_PCOD9455239
_publ_section_title
;
Structure prediction by ZEFSAII (Michael W. Deem and Ramdas Pophale) SiO2 
 PCOD9455239
Probable space group: P B C N
;
_chemical_formula_sum "Si O2"
_cell_formula_units_Z 32
_cell_length_a 11.141469
_cell_length_b 7.968806
_cell_length_c 14.777267
_cell_angle_alpha 90.000000
_cell_angle_beta 90.000000
_cell_angle_gamma 90.000000
_cell_volume 1311.987903
_symmetry_space_group_name_H-M "P B C N"
_symmetry_group_IT_number 60
_symmetry_cell_setting 'orthorhombic'
loop_
_space_group_symop_operation_xyz
x,y,z
1/2-x,1/2-y,1/2+z
1/2+x,1/2-y,-z
-x,y,1/2-z
-x,-y,-z
1/2+x,1/2+y,1/2-z
1/2-x,1/2+y,z
x,-y,1/2+z
loop_
_atom_site_type_symbol
_atom_site_label
_atom_site_fract_x
_atom_site_fract_y
_atom_site_fract_z
Si Si1 0.618343 0.493294 0.374268
Si Si2 0.056553 0.221547 0.967159
Si Si3 0.583071 0.928788 0.106789
Si Si4 0.654960 0.835858 0.293365
O O1 0.498880 0.385032 0.386055
O O2 0.630425 0.597062 0.468668
O O3 0.618198 0.642681 0.302344
O O4 0.726343 0.372917 0.349025
O O5 0.116523 0.392704 0.934948
O O6 0.945241 0.291289 0.029793
O O7 0.668987 0.879035 0.188362
O O8 0.452467 0.939269 0.157846
#
# Coordination Sequence:
#
# PCOD9455239 Si02
#       4
#     8   8   8   8
#     4  10  20  37  61  90 123 162 206 251 303 371
#     4   9  19  39  65  87 120 162 205 257 306 359
#     4   9  19  39  63  87 121 162 202 257 314 362
#     4  10  20  37  59  88 124 159 203 254 311 369
#
# _framework density 24.390469
#
# number of rings (size 3 to 8) (size 9 to 14) (size 15 to 20)
#    0.000    2.500    0.000    1.500    0.000    0.000 
#    0.000   45.000    0.000    3.000    0.000    0.000 
#    0.000    0.000    0.000    0.000    0.000    0.000 
#
# Total GULP energy -178901.147360 kJ/mol
# GULP energy per Si atom -5590.660855 kJ/mol
# Density = 2.433495 g / cm^3
# Si number density = 24.390469 Si / 1000 Ang^3
#
#
#
# Elastic Constant Matrix: (Units=GPa)
#
#
# Indices 1 2 3 4 5 6 
#
# 1 51.2135 14.9014 23.0027 0.0000 0.0000 0.0000
# 2 14.9014 127.5902 49.0246 0.0000 0.0000 0.0000
# 3 23.0027 49.0246 77.8757 0.0000 0.0000 0.0000
# 4 0.0000 0.0000 0.0000 6.7429 0.0000 0.0000
# 5 0.0000 0.0000 0.0000 0.0000 32.8133 0.0000
# 6 0.0000 0.0000 0.0000 0.0000 0.0000 15.9038
#
#
#
# Elastic Compliance Matrix: (Units=1/GPa)
#
#
# Indices 1 2 3 4 5 6 
#
# 1 0.022514 -0.000098 -0.006588 0.000000 0.000000 0.000000
# 2 -0.000098 0.010339 -0.006480 0.000000 0.000000 0.000000
# 3 -0.006588 -0.006480 0.018866 0.000000 0.000000 0.000000
# 4 0.000000 0.000000 0.000000 0.148304 0.000000 0.000000
# 5 0.000000 0.000000 0.000000 0.000000 0.030475 0.000000
# 6 0.000000 0.000000 0.000000 0.000000 0.000000 0.062878
#
#
# Mechanical properties :
#
#
# Convention : Reuss Voigt Hill
#
# Bulk Modulus (GPa) = 39.39050 47.83742 43.61396
# Shear Modulus (GPa) = 15.23599 22.40871 18.82235
#
# Velocity S-wave (km/s) = 2.50205 3.03438 2.78098
# Velocity P-wave (km/s) = 4.95298 5.65087 5.31340
#
# Compressibility (1/GPa) = 0.02538683
#
# Stress axis : x y z
#
# Youngs Moduli (GPa) = 44.41714 96.72409 53.00524
#
# Poissons Ratio (x) = 0.00947 0.34922
# Poissons Ratio (y) = 0.00435 0.34345
# Poissons Ratio (z) = 0.29264 0.62673
#
# Static dielectric constant tensor:
#      x y z
#    x 1.998620 0.000000 0.000000 
#    y 0.000000 1.903220 0.000000 
#    z 0.000000 0.000000 1.987400 
# 
# From -- ./inp_files/15572.got.cif
#   From: 2010.05.17/outbox.cif.g08.bks.cpg/sg60_8_cif.got.tgz:15572.got - 2010.06.03 14:59:27.
