data_PCOD9455809
_publ_section_title
;
Structure prediction by ZEFSAII (Michael W. Deem and Ramdas Pophale) SiO2 
 PCOD9455809
Probable space group: P B C N
;
_chemical_formula_sum "Si O2"
_cell_formula_units_Z 52
_cell_length_a 19.796802
_cell_length_b 21.104236
_cell_length_c 5.514850
_cell_angle_alpha 90.000000
_cell_angle_beta 90.000000
_cell_angle_gamma 90.000000
_cell_volume 2304.084374
_symmetry_space_group_name_H-M "P B C N"
_symmetry_group_IT_number 60
_symmetry_cell_setting 'orthorhombic'
loop_
_space_group_symop_operation_xyz
x,y,z
1/2-x,1/2-y,1/2+z
1/2+x,1/2-y,-z
-x,y,1/2-z
-x,-y,-z
1/2+x,1/2+y,1/2-z
1/2-x,1/2+y,z
x,-y,1/2+z
loop_
_atom_site_type_symbol
_atom_site_label
_atom_site_fract_x
_atom_site_fract_y
_atom_site_fract_z
Si Si1 0.000000 0.460102 0.750000
Si Si2 0.351835 0.039950 0.214923
Si Si3 0.571642 0.781846 0.320578
Si Si4 0.193771 0.334428 0.891576
Si Si5 0.663596 0.712650 0.927807
Si Si6 0.437926 0.655142 0.912172
Si Si7 0.923364 0.023941 0.442947
O O1 0.927081 0.428344 0.765989
O O2 0.000000 0.500000 0.500000
O O3 0.303204 0.098562 0.258998
O O4 0.345645 0.006329 0.951714
O O5 0.500000 0.814152 0.250000
O O6 0.630223 0.828197 0.420949
O O7 0.547257 0.726548 0.503424
O O8 0.611205 0.736971 0.129887
O O9 0.266237 0.317811 0.997504
O O10 0.179770 0.277509 0.709128
O O11 0.627250 0.663723 0.751985
O O12 0.500000 0.632792 0.750000
O O13 0.425592 0.599452 0.103217
O O14 0.891668 0.990673 0.207695
O O15 0.000000 0.000000 0.500000
#
# Coordination Sequence:
#
# PCOD9455809 Si02
#       7
#     4   8   8   8   8   8   8
#     4   8  16  36  60  94 128 168 216 268 348 398
#     4  10  23  43  72 102 139 184 228 290 347 427
#     4  11  24  40  69 100 132 172 233 299 342 411
#     4  11  25  45  70  98 141 181 237 278 364 431
#     4  11  24  43  67  99 132 187 225 290 356 410
#     4  11  22  38  63  94 134 174 233 292 344 405
#     4  10  21  34  59  90 129 185 230 278 348 409
#
# _framework density 22.568617
#
# number of rings (size 3 to 8) (size 9 to 14) (size 15 to 20)
#    0.000    1.538    4.615    0.000    6.462    1.231 
#    5.538    1.538    0.000    0.000    0.000    0.000 
#    0.000    0.000    0.000    0.000    0.000    0.000 
#
# Total GULP energy -289994.175763 kJ/mol
# GULP energy per Si atom -5576.811072 kJ/mol
# Density = 2.251725 g / cm^3
# Si number density = 22.568617 Si / 1000 Ang^3
#
#
#
# Elastic Constant Matrix: (Units=GPa)
#
#
# Indices 1 2 3 4 5 6 
#
# 1 103.4421 20.5738 27.8457 0.0000 0.0000 0.0000
# 2 20.5738 55.8015 0.3360 0.0000 0.0000 0.0000
# 3 27.8457 0.3360 74.5571 0.0000 0.0000 0.0000
# 4 0.0000 0.0000 0.0000 -69.7206 0.0000 0.0000
# 5 0.0000 0.0000 0.0000 0.0000 28.7231 0.0000
# 6 0.0000 0.0000 0.0000 0.0000 0.0000 13.4652
#
#
#
# Elastic Compliance Matrix: (Units=1/GPa)
#
#
# Indices 1 2 3 4 5 6 
#
# 1 0.011689 -0.004284 -0.004346 0.000000 0.000000 0.000000
# 2 -0.004284 0.019491 0.001512 0.000000 0.000000 0.000000
# 3 -0.004346 0.001512 0.015029 0.000000 0.000000 0.000000
# 4 0.000000 0.000000 0.000000 -0.014343 0.000000 0.000000
# 5 0.000000 0.000000 0.000000 0.000000 0.034815 0.000000
# 6 0.000000 0.000000 0.000000 0.000000 0.000000 0.074266
#
#
# Mechanical properties :
#
#
# Convention : Reuss Voigt Hill
#
# Bulk Modulus (GPa) = 31.27623 36.81241 34.04432
# Shear Modulus (GPa) = 30.14941 6.82989 18.48965
#
# Velocity S-wave (km/s) = 3.65896 1.74151 2.86538
# Velocity P-wave (km/s) = 5.63374 4.51559 5.10537
#
# Compressibility (1/GPa) = 0.03197317
#
# Stress axis : x y z
#
# Youngs Moduli (GPa) = 85.54879 51.30593 66.53790
#
# Poissons Ratio (x) = 0.21977 0.28920
# Poissons Ratio (y) = 0.36646 -0.10061
# Poissons Ratio (z) = 0.37183 -0.07758
#
# Static dielectric constant tensor:
#      x y z
#    x 4.106140 0.000000 0.000000 
#    y 0.000000 1.795180 0.000000 
#    z 0.000000 0.000000 1.989170 
# 
# From -- ./inp_files/2090.got.cif
#   From: 2010.05.17/outbox.cif.g08.bks.cpg/sg60_2_cif.got.tgz:2090.got - 2010.06.03 14:59:27.
