data_PCOD9455429
_publ_section_title
;
Structure prediction by ZEFSAII (Michael W. Deem and Ramdas Pophale) SiO2 
 PCOD9455429
Probable space group: P B C N
;
_chemical_formula_sum "Si O2"
_cell_formula_units_Z 52
_cell_length_a 9.305906
_cell_length_b 27.146425
_cell_length_c 10.491622
_cell_angle_alpha 90.000000
_cell_angle_beta 90.000000
_cell_angle_gamma 90.000000
_cell_volume 2650.415365
_symmetry_space_group_name_H-M "P B C N"
_symmetry_group_IT_number 60
_symmetry_cell_setting 'orthorhombic'
loop_
_space_group_symop_operation_xyz
x,y,z
1/2-x,1/2-y,1/2+z
1/2+x,1/2-y,-z
-x,y,1/2-z
-x,-y,-z
1/2+x,1/2+y,1/2-z
1/2-x,1/2+y,z
x,-y,1/2+z
loop_
_atom_site_type_symbol
_atom_site_label
_atom_site_fract_x
_atom_site_fract_y
_atom_site_fract_z
Si Si1 0.293688 0.370591 0.473494
Si Si2 0.402203 0.945768 0.128232
Si Si3 0.096608 0.441260 0.626631
Si Si4 0.500000 0.364335 0.250000
Si Si5 0.526422 0.306524 0.601814
Si Si6 0.531529 0.196730 0.601202
Si Si7 0.265157 0.647875 0.563224
O O1 0.231142 0.408586 0.578354
O O2 0.402213 0.390201 0.361453
O O3 0.383370 0.326951 0.537843
O O4 0.154234 0.343488 0.417498
O O5 0.500000 0.931323 0.250000
O O6 0.275658 0.906947 0.106990
O O7 0.356900 0.002185 0.151728
O O8 0.494023 0.943254 0.998037
O O9 0.000000 0.425165 0.750000
O O10 0.620814 0.334194 0.329132
O O11 0.500000 0.304498 0.750000
O O12 0.567469 0.251719 0.554750
O O13 0.648378 0.345800 0.566386
O O14 0.500000 0.200126 0.750000
O O15 0.381557 0.177260 0.546522
#
# Coordination Sequence:
#
# PCOD9455429 Si02
#       7
#     8   8   8   4   8   8   8
#     4  11  21  39  62  86 125 159 206 254 320 373
#     4  10  20  38  65  94 118 157 211 262 303 371
#     4  10  22  37  63  97 124 153 209 266 315 371
#     4  10  22  36  58  92 116 160 206 258 304 372
#     4  10  25  38  54  85 130 159 198 248 310 379
#     4  11  20  38  64  87 113 159 213 254 298 359
#     4  11  20  38  64  86 120 155 204 253 310 352
#
# _framework density 19.619565000000001
#
# number of rings (size 3 to 8) (size 9 to 14) (size 15 to 20)
#    0.000    1.538    3.077    2.308    2.154    0.000 
#    0.000    3.077    6.769    0.000    0.000    0.000 
#    0.000    0.000    0.000    0.000    0.000    0.000 
#
# Total GULP energy -289619.947042 kJ/mol
# GULP energy per Si atom -5569.614366 kJ/mol
# Density = 1.957491 g / cm^3
# Si number density = 19.619565 Si / 1000 Ang^3
#
#
#
# Elastic Constant Matrix: (Units=GPa)
#
#
# Indices 1 2 3 4 5 6 
#
# 1 110.1786 41.9207 37.7718 0.0000 0.0000 0.0000
# 2 41.9207 104.5009 31.0093 0.0000 0.0000 0.0000
# 3 37.7718 31.0093 93.2212 0.0000 0.0000 0.0000
# 4 0.0000 0.0000 0.0000 23.0978 0.0000 0.0000
# 5 0.0000 0.0000 0.0000 0.0000 38.4937 0.0000
# 6 0.0000 0.0000 0.0000 0.0000 0.0000 14.6375
#
#
#
# Elastic Compliance Matrix: (Units=1/GPa)
#
#
# Indices 1 2 3 4 5 6 
#
# 1 0.011665 -0.003636 -0.003517 0.000000 0.000000 0.000000
# 2 -0.003636 0.011751 -0.002436 0.000000 0.000000 0.000000
# 3 -0.003517 -0.002436 0.012962 0.000000 0.000000 0.000000
# 4 0.000000 0.000000 0.000000 0.043294 0.000000 0.000000
# 5 0.000000 0.000000 0.000000 0.000000 0.025978 0.000000
# 6 0.000000 0.000000 0.000000 0.000000 0.000000 0.068318
#
#
# Mechanical properties :
#
#
# Convention : Reuss Voigt Hill
#
# Bulk Modulus (GPa) = 58.13561 58.81158 58.47359
# Shear Modulus (GPa) = 25.14088 28.39240 26.76664
#
# Velocity S-wave (km/s) = 3.58357 3.80827 3.69763
# Velocity P-wave (km/s) = 6.84240 7.02697 6.93530
#
# Compressibility (1/GPa) = 0.01720116
#
# Stress axis : x y z
#
# Youngs Moduli (GPa) = 85.72419 85.10238 77.14607
#
# Poissons Ratio (x) = 0.30942 0.27133
# Poissons Ratio (y) = 0.31168 0.18789
# Poissons Ratio (z) = 0.30150 0.20727
#
# Static dielectric constant tensor:
#      x y z
#    x 1.595790 0.000000 0.000000 
#    y 0.000000 1.716950 0.000000 
#    z 0.000000 0.000000 1.729680 
# 
# From -- ./inp_files/10242.got.cif
#   From: 2010.05.17/outbox.cif.g08.bks.cpg/sg60_6_cif.got.tgz:10242.got - 2010.06.03 14:59:27.
