data_PCOD9455282
_publ_section_title
;
Structure prediction by ZEFSAII (Michael W. Deem and Ramdas Pophale) SiO2 
 PCOD9455282
Probable space group: P B C N
;
_chemical_formula_sum "Si O2"
_cell_formula_units_Z 48
_cell_length_a 11.692772
_cell_length_b 16.715695
_cell_length_c 10.839024
_cell_angle_alpha 90.000000
_cell_angle_beta 90.000000
_cell_angle_gamma 90.000000
_cell_volume 2118.517703
_symmetry_space_group_name_H-M "P B C N"
_symmetry_group_IT_number 60
_symmetry_cell_setting 'orthorhombic'
loop_
_space_group_symop_operation_xyz
x,y,z
1/2-x,1/2-y,1/2+z
1/2+x,1/2-y,-z
-x,y,1/2-z
-x,-y,-z
1/2+x,1/2+y,1/2-z
1/2-x,1/2+y,z
x,-y,1/2+z
loop_
_atom_site_type_symbol
_atom_site_label
_atom_site_fract_x
_atom_site_fract_y
_atom_site_fract_z
Si Si1 0.353687 0.233303 0.835963
Si Si2 0.743309 0.801942 0.437577
Si Si3 0.000000 0.402479 0.250000
Si Si4 0.000000 0.130876 0.250000
Si Si5 0.377086 0.028070 0.550935
Si Si6 0.968016 0.110095 0.890390
Si Si7 0.350880 0.553143 0.055447
O O1 0.311910 0.229196 0.691695
O O2 0.436506 0.156374 0.846011
O O3 0.435662 0.310636 0.844029
O O4 0.260570 0.245616 0.942806
O O5 0.674839 0.883141 0.480755
O O6 0.873523 0.821560 0.395849
O O7 0.097945 0.457746 0.195256
O O8 0.899007 0.081115 0.312710
O O9 0.500000 0.000000 0.500000
O O10 0.282167 0.960299 0.535635
O O11 0.000000 0.093027 0.750000
O O12 0.902238 0.036093 0.954982
O O13 0.087941 0.111908 0.960516
#
# Coordination Sequence:
#
# PCOD9455282 Si02
#       7
#     8   8   4   4   8   8   8
#     4  10  22  41  66  92 136 182 228 274 330 420
#     4  10  22  42  66  99 133 183 230 278 344 414
#     4   9  22  44  60  90 138 181 218 276 356 407
#     4  11  20  38  66  94 130 173 220 274 338 393
#     4  10  23  41  66  97 133 175 224 287 354 419
#     4  10  20  37  62  98 133 165 219 284 344 400
#     4  10  21  36  64  99 132 166 218 285 343 405
#
# _framework density 22.657350999999998
#
# number of rings (size 3 to 8) (size 9 to 14) (size 15 to 20)
#    0.000    2.000    2.500    0.000    0.000    8.000 
#    3.000    0.000    0.000    0.000    0.000    0.000 
#    0.000    0.000    0.000    0.000    0.000    0.000 
#
# Total GULP energy -267358.143505 kJ/mol
# GULP energy per Si atom -5569.961323 kJ/mol
# Density = 2.260578 g / cm^3
# Si number density = 22.657351 Si / 1000 Ang^3
#
#
#
# Elastic Constant Matrix: (Units=GPa)
#
#
# Indices 1 2 3 4 5 6 
#
# 1 178.4747 58.2959 55.4584 0.0000 0.0000 0.0000
# 2 58.2959 63.3175 21.1951 0.0000 0.0000 0.0000
# 3 55.4584 21.1951 85.1441 0.0000 0.0000 0.0000
# 4 0.0000 0.0000 0.0000 -4.5550 0.0000 0.0000
# 5 0.0000 0.0000 0.0000 0.0000 37.7259 0.0000
# 6 0.0000 0.0000 0.0000 0.0000 0.0000 108.8377
#
#
#
# Elastic Compliance Matrix: (Units=1/GPa)
#
#
# Indices 1 2 3 4 5 6 
#
# 1 0.009238 -0.007081 -0.004254 0.000000 0.000000 0.000000
# 2 -0.007081 0.022657 -0.001028 0.000000 0.000000 0.000000
# 3 -0.004254 -0.001028 0.014772 0.000000 0.000000 0.000000
# 4 0.000000 0.000000 0.000000 -0.219537 0.000000 0.000000
# 5 0.000000 0.000000 0.000000 0.000000 0.026507 0.000000
# 6 0.000000 0.000000 0.000000 0.000000 0.000000 0.009188
#
#
# Mechanical properties :
#
#
# Convention : Reuss Voigt Hill
#
# Bulk Modulus (GPa) = 45.57871 66.31503 55.94687
# Shear Modulus (GPa) = -47.55789 41.20083 -3.17853
#
# Velocity S-wave (km/s) = -4.58646 4.26893 -1.18571
# Velocity P-wave (km/s) = 2.80843 7.32329 4.78243
#
# Compressibility (1/GPa) = 0.02194007
#
# Stress axis : x y z
#
# Youngs Moduli (GPa) = 108.24855 44.13632 67.69687
#
# Poissons Ratio (x) = 0.31254 0.28801
# Poissons Ratio (y) = 0.76653 0.06958
# Poissons Ratio (z) = 0.46053 0.04536
#
# Static dielectric constant tensor:
#      x y z
#    x 1.933290 0.000000 0.000000 
#    y 0.000000 1.891600 0.000000 
#    z 0.000000 0.000000 1.914500 
# 
# From -- ./inp_files/11048.got.cif
#   From: 2010.05.17/outbox.cif.g08.bks.cpg/sg60_6_cif.got.tgz:11048.got - 2010.06.03 14:59:27.
