data_PCOD9455437
_publ_section_title
;
Structure prediction by ZEFSAII (Michael W. Deem and Ramdas Pophale) SiO2 
 PCOD9455437
Probable space group: P B C N
;
_chemical_formula_sum "Si O2"
_cell_formula_units_Z 60
_cell_length_a 9.050925
_cell_length_b 28.624151
_cell_length_c 11.076129
_cell_angle_alpha 90.000000
_cell_angle_beta 90.000000
_cell_angle_gamma 90.000000
_cell_volume 2869.548607
_symmetry_space_group_name_H-M "P B C N"
_symmetry_group_IT_number 60
_symmetry_cell_setting 'orthorhombic'
loop_
_space_group_symop_operation_xyz
x,y,z
1/2-x,1/2-y,1/2+z
1/2+x,1/2-y,-z
-x,y,1/2-z
-x,-y,-z
1/2+x,1/2+y,1/2-z
1/2-x,1/2+y,z
x,-y,1/2+z
loop_
_atom_site_type_symbol
_atom_site_label
_atom_site_fract_x
_atom_site_fract_y
_atom_site_fract_z
Si Si1 0.272106 0.624041 0.741807
Si Si2 0.660193 0.015999 0.538634
Si Si3 0.884113 0.661966 0.077375
Si Si4 0.713741 0.182330 0.333838
Si Si5 0.844795 0.100683 0.478700
Si Si6 0.500000 0.935476 0.250000
Si Si7 0.829778 0.079292 0.997592
Si Si8 0.148563 0.718061 0.668164
O O1 0.114827 0.601880 0.697336
O O2 0.365813 0.598384 0.638500
O O3 0.255250 0.679699 0.731141
O O4 0.314685 0.613409 0.879575
O O5 0.724713 0.059378 0.463291
O O6 0.615226 0.033649 0.673081
O O7 0.500000 0.000000 0.500000
O O8 0.768517 0.972698 0.517063
O O9 0.792313 0.682247 0.189230
O O10 0.054073 0.663548 0.120446
O O11 0.796707 0.613762 0.050532
O O12 0.886541 0.693463 0.958637
O O13 0.821074 0.145417 0.395745
O O14 0.765204 0.234535 0.362655
O O15 0.007330 0.082336 0.447486
O O16 0.000000 0.724739 0.750000
#
# Coordination Sequence:
#
# PCOD9455437 Si02
#       8
#     8   8   8   8   8   4   8   8
#     4  10  21  42  67  99 134 175 233 291 347 416
#     4  11  22  40  69  98 136 182 237 286 354 432
#     4  10  26  47  65  98 141 181 232 287 340 427
#     4  11  26  45  66  98 138 183 228 284 359 413
#     4  11  25  41  69 100 142 178 231 298 358 413
#     4  10  20  38  66 100 124 180 230 284 346 416
#     4  11  23  43  67 101 139 179 234 291 356 415
#     4  11  24  40  76  99 135 179 237 289 348 416
#
# _framework density 20.909212
#
# number of rings (size 3 to 8) (size 9 to 14) (size 15 to 20)
#    0.000    1.333    2.000    2.400    9.333    3.200 
#    4.800    0.000    0.000    0.000    0.000    0.000 
#    0.000    0.000    0.000    0.000    0.000    0.000 
#
# Total GULP energy -334031.831560 kJ/mol
# GULP energy per Si atom -5567.197193 kJ/mol
# Density = 2.086162 g / cm^3
# Si number density = 20.909212 Si / 1000 Ang^3
#
#
#
# Elastic Constant Matrix: (Units=GPa)
#
#
# Indices 1 2 3 4 5 6 
#
# 1 85.0617 53.1981 18.6871 0.0000 0.0000 0.0000
# 2 53.1981 153.4024 24.3485 0.0000 0.0000 0.0000
# 3 18.6871 24.3485 54.9937 0.0000 0.0000 0.0000
# 4 0.0000 0.0000 0.0000 146.8766 0.0000 0.0000
# 5 0.0000 0.0000 0.0000 0.0000 13.2758 0.0000
# 6 0.0000 0.0000 0.0000 0.0000 0.0000 25.0867
#
#
#
# Elastic Compliance Matrix: (Units=1/GPa)
#
#
# Indices 1 2 3 4 5 6 
#
# 1 0.015489 -0.004879 -0.003103 0.000000 0.000000 0.000000
# 2 -0.004879 0.008548 -0.002127 0.000000 0.000000 0.000000
# 3 -0.003103 -0.002127 0.020180 0.000000 0.000000 0.000000
# 4 0.000000 0.000000 0.000000 0.006808 0.000000 0.000000
# 5 0.000000 0.000000 0.000000 0.000000 0.075325 0.000000
# 6 0.000000 0.000000 0.000000 0.000000 0.000000 0.039862
#
#
# Mechanical properties :
#
#
# Convention : Reuss Voigt Hill
#
# Bulk Modulus (GPa) = 41.66729 53.99169 47.82949
# Shear Modulus (GPa) = 25.71610 50.19609 37.95610
#
# Velocity S-wave (km/s) = 3.51079 4.90498 4.26523
# Velocity P-wave (km/s) = 6.03367 7.61291 6.86883
#
# Compressibility (1/GPa) = 0.02399964
#
# Stress axis : x y z
#
# Youngs Moduli (GPa) = 64.56108 116.98175 49.55383
#
# Poissons Ratio (x) = 0.57075 0.15377
# Poissons Ratio (y) = 0.31499 0.10540
# Poissons Ratio (z) = 0.20034 0.24881
#
# Static dielectric constant tensor:
#      x y z
#    x 1.399340 0.000000 0.000000 
#    y 0.000000 2.199810 0.000000 
#    z 0.000000 0.000000 1.541740 
# 
# From -- ./inp_files/10317.got.cif
#   From: 2010.05.17/outbox.cif.g08.bks.cpg/sg60_6_cif.got.tgz:10317.got - 2010.06.03 14:59:27.
