data_PCOD9455358
_publ_section_title
;
Structure prediction by ZEFSAII (Michael W. Deem and Ramdas Pophale) SiO2 
 PCOD9455358
Probable space group: P B C N
;
_chemical_formula_sum "Si O2"
_cell_formula_units_Z 24
_cell_length_a 11.673763
_cell_length_b 5.048539
_cell_length_c 15.088936
_cell_angle_alpha 90.000000
_cell_angle_beta 90.000000
_cell_angle_gamma 90.000000
_cell_volume 889.273200
_symmetry_space_group_name_H-M "P B C N"
_symmetry_group_IT_number 60
_symmetry_cell_setting 'orthorhombic'
loop_
_space_group_symop_operation_xyz
x,y,z
1/2-x,1/2-y,1/2+z
1/2+x,1/2-y,-z
-x,y,1/2-z
-x,-y,-z
1/2+x,1/2+y,1/2-z
1/2-x,1/2+y,z
x,-y,1/2+z
loop_
_atom_site_type_symbol
_atom_site_label
_atom_site_fract_x
_atom_site_fract_y
_atom_site_fract_z
Si Si1 0.535457 0.380825 0.093490
Si Si2 0.113787 0.397386 0.313126
Si Si3 0.299304 0.882367 0.641518
O O1 0.604803 0.108490 0.106874
O O2 0.413511 0.291746 0.135401
O O3 0.603538 0.609311 0.144444
O O4 0.500000 0.500000 0.000000
O O5 0.206189 0.509880 0.243019
O O6 0.000000 0.402350 0.250000
O O7 0.207593 0.676677 0.599815
#
# Coordination Sequence:
#
# PCOD9455358 Si02
#       3
#     8   8   8
#     4  11  22  39  62  89 124 167 209 257 325 399
#     4  10  20  38  61  84 115 165 214 249 308 396
#     4  11  22  39  62  91 123 162 215 274 319 369
#
# _framework density 26.988330000000001
#
# number of rings (size 3 to 8) (size 9 to 14) (size 15 to 20)
#    0.000    1.333    0.000   10.000    0.000    0.000 
#    0.000   10.000    0.000    0.000    0.000    0.000 
#    0.000    0.000    0.000    0.000    0.000    0.000 
#
# Total GULP energy -133805.851815 kJ/mol
# GULP energy per Si atom -5575.243826 kJ/mol
# Density = 2.692690 g / cm^3
# Si number density = 26.988330 Si / 1000 Ang^3
#
#
#
# Elastic Constant Matrix: (Units=GPa)
#
#
# Indices 1 2 3 4 5 6 
#
# 1 42.9432 60.6570 37.7670 0.0000 0.0000 0.0000
# 2 60.6570 251.3281 -14.0594 0.0000 0.0000 0.0000
# 3 37.7670 -14.0594 48.0239 0.0000 0.0000 0.0000
# 4 0.0000 0.0000 0.0000 14.5712 0.0000 0.0000
# 5 0.0000 0.0000 0.0000 0.0000 21.3777 0.0000
# 6 0.0000 0.0000 0.0000 0.0000 0.0000 35.5111
#
#
#
# Elastic Compliance Matrix: (Units=1/GPa)
#
#
# Indices 1 2 3 4 5 6 
#
# 1 -0.132257 0.038366 0.115242 0.000000 0.000000 0.000000
# 2 0.038366 -0.007085 -0.032246 0.000000 0.000000 0.000000
# 3 0.115242 -0.032246 -0.079246 0.000000 0.000000 0.000000
# 4 0.000000 0.000000 0.000000 0.068628 0.000000 0.000000
# 5 0.000000 0.000000 0.000000 0.000000 0.046778 0.000000
# 6 0.000000 0.000000 0.000000 0.000000 0.000000 0.028160
#
#
# Mechanical properties :
#
#
# Convention : Reuss Voigt Hill
#
# Bulk Modulus (GPa) = 41.43126 56.78050 49.10588
# Shear Modulus (GPa) = -16.14468 31.48737 7.67134
#
# Velocity S-wave (km/s) = -2.44849 3.41941 1.68779
# Velocity P-wave (km/s) = 2.71872 6.05594 4.69392
#
# Compressibility (1/GPa) = 0.02413637
#
# Stress axis : x y z
#
# Youngs Moduli (GPa) = -7.56105 -141.15234 -12.61892
#
# Poissons Ratio (x) = 5.41549 1.45423
# Poissons Ratio (y) = 0.29009 -0.40691
# Poissons Ratio (z) = 0.87135 -4.55162
#
# Static dielectric constant tensor:
#      x y z
#    x 2.365640 0.000000 0.000000 
#    y 0.000000 1.824320 0.000000 
#    z 0.000000 0.000000 2.483170 
# 
# From -- ./inp_files/16455.got.cif
#   From: 2010.05.17/outbox.cif.g08.bks.cpg/sg60_9_cif.got.tgz:16455.got - 2010.06.03 14:59:27.
