data_PCOD9455980
_publ_section_title
;
Structure prediction by ZEFSAII (Michael W. Deem and Ramdas Pophale) SiO2 
 PCOD9455980
Probable space group: P B C N
;
_chemical_formula_sum "Si O2"
_cell_formula_units_Z 60
_cell_length_a 21.547344
_cell_length_b 15.471535
_cell_length_c 8.727310
_cell_angle_alpha 90.000000
_cell_angle_beta 90.000000
_cell_angle_gamma 90.000000
_cell_volume 2909.427584
_symmetry_space_group_name_H-M "P B C N"
_symmetry_group_IT_number 60
_symmetry_cell_setting 'orthorhombic'
loop_
_space_group_symop_operation_xyz
x,y,z
1/2-x,1/2-y,1/2+z
1/2+x,1/2-y,-z
-x,y,1/2-z
-x,-y,-z
1/2+x,1/2+y,1/2-z
1/2-x,1/2+y,z
x,-y,1/2+z
loop_
_atom_site_type_symbol
_atom_site_label
_atom_site_fract_x
_atom_site_fract_y
_atom_site_fract_z
Si Si1 0.116171 0.769956 0.078569
Si Si2 0.272625 0.356533 0.976757
Si Si3 0.306114 0.279337 0.651882
Si Si4 0.431007 0.781943 0.243983
Si Si5 0.797475 0.384989 0.943721
Si Si6 0.823428 0.513542 0.155663
Si Si7 0.451118 0.920370 0.994688
Si Si8 0.000000 0.718209 0.250000
O O1 0.165314 0.695854 0.126480
O O2 0.059059 0.772892 0.193869
O O3 0.159175 0.854455 0.053876
O O4 0.091195 0.730480 0.918364
O O5 0.284951 0.297586 0.826053
O O6 0.237808 0.441220 0.918230
O O7 0.224391 0.306400 0.083590
O O8 0.379661 0.269518 0.646708
O O9 0.274065 0.358395 0.561756
O O10 0.500000 0.744835 0.250000
O O11 0.437635 0.875825 0.160371
O O12 0.817246 0.462839 0.832556
O O13 0.818368 0.413731 0.110992
O O14 0.887452 0.549998 0.086862
O O15 0.479983 0.845132 0.888540
O O16 0.500000 0.000000 0.000000
#
# Coordination Sequence:
#
# PCOD9455980 Si02
#       8
#     8   8   8   8   8   8   8   4
#     4  10  21  38  55  79 108 145 186 232 265 323
#     4   9  19  35  57  76 104 138 188 235 272 311
#     4   9  19  37  54  78 103 141 182 233 265 318
#     4  11  22  36  55  78 106 146 187 216 269 328
#     4  10  22  35  55  77 110 140 188 225 273 318
#     4  11  22  36  52  81 108 150 179 227 274 323
#     4  12  26  34  50  75 119 153 180 211 264 330
#     4  12  22  38  50  76 112 150 180 220 264 330
#
# _framework density 20.622612
#
# number of rings (size 3 to 8) (size 9 to 14) (size 15 to 20)
#    0.000    1.600    4.000    0.800    2.800    1.067 
#    0.000    0.000    0.000    0.000    1.733    2.800 
#    0.000    0.000    0.000    0.000    0.000    0.000 
#
# Total GULP energy -334677.675534 kJ/mol
# GULP energy per Si atom -5577.961259 kJ/mol
# Density = 2.057567 g / cm^3
# Si number density = 20.622612 Si / 1000 Ang^3
#
#
#
# Elastic Constant Matrix: (Units=GPa)
#
#
# Indices 1 2 3 4 5 6 
#
# 1 145.9281 23.7687 18.1281 0.0000 0.0000 0.0000
# 2 23.7687 15.5890 1.4918 0.0000 0.0000 0.0000
# 3 18.1281 1.4918 37.7521 0.0000 0.0000 0.0000
# 4 0.0000 0.0000 0.0000 20.7786 0.0000 0.0000
# 5 0.0000 0.0000 0.0000 0.0000 33.4918 0.0000
# 6 0.0000 0.0000 0.0000 0.0000 0.0000 34.3444
#
#
#
# Elastic Compliance Matrix: (Units=1/GPa)
#
#
# Indices 1 2 3 4 5 6 
#
# 1 0.009708 -0.014411 -0.004092 0.000000 0.000000 0.000000
# 2 -0.014411 0.085782 0.003530 0.000000 0.000000 0.000000
# 3 -0.004092 0.003530 0.028314 0.000000 0.000000 0.000000
# 4 0.000000 0.000000 0.000000 0.048126 0.000000 0.000000
# 5 0.000000 0.000000 0.000000 0.000000 0.029858 0.000000
# 6 0.000000 0.000000 0.000000 0.000000 0.000000 0.029117
#
#
# Mechanical properties :
#
#
# Convention : Reuss Voigt Hill
#
# Bulk Modulus (GPa) = 10.65430 31.78293 21.21861
# Shear Modulus (GPa) = 17.11518 28.11499 22.61509
#
# Velocity S-wave (km/s) = 2.88396 3.69631 3.31511
# Velocity P-wave (km/s) = 4.03326 5.80190 4.99646
#
# Compressibility (1/GPa) = 0.09385884
#
# Stress axis : x y z
#
# Youngs Moduli (GPa) = 103.00484 11.65743 35.31793
#
# Poissons Ratio (x) = 0.16799 0.14453
# Poissons Ratio (y) = 1.48437 -0.12468
# Poissons Ratio (z) = 0.42153 -0.04115
#
# Static dielectric constant tensor:
#      x y z
#    x 1.786400 0.000000 0.000000 
#    y 0.000000 1.755930 0.000000 
#    z 0.000000 0.000000 1.804660 
# 
# From -- ./inp_files/7563.got.cif
#   From: 2010.05.17/outbox.cif.g08.bks.cpg/sg60_4_cif.got.tgz:7563.got - 2010.06.03 14:59:27.
