data_PCOD9455557
_publ_section_title
;
Structure prediction by ZEFSAII (Michael W. Deem and Ramdas Pophale) SiO2 
 PCOD9455557
Probable space group: P B C N
;
_chemical_formula_sum "Si O2"
_cell_formula_units_Z 40
_cell_length_a 8.962231
_cell_length_b 10.300955
_cell_length_c 21.881207
_cell_angle_alpha 90.000000
_cell_angle_beta 90.000000
_cell_angle_gamma 90.000000
_cell_volume 2020.062926
_symmetry_space_group_name_H-M "P B C N"
_symmetry_group_IT_number 60
_symmetry_cell_setting 'orthorhombic'
loop_
_space_group_symop_operation_xyz
x,y,z
1/2-x,1/2-y,1/2+z
1/2+x,1/2-y,-z
-x,y,1/2-z
-x,-y,-z
1/2+x,1/2+y,1/2-z
1/2-x,1/2+y,z
x,-y,1/2+z
loop_
_atom_site_type_symbol
_atom_site_label
_atom_site_fract_x
_atom_site_fract_y
_atom_site_fract_z
Si Si1 0.274830 0.222428 0.033001
Si Si2 0.658929 0.525571 0.901061
Si Si3 0.585650 0.276488 0.081301
Si Si4 0.677490 0.425461 0.260804
Si Si5 0.847728 0.342121 0.712948
O O1 0.249317 0.366039 0.060818
O O2 0.450752 0.202941 0.045942
O O3 0.183548 0.113942 0.069865
O O4 0.225722 0.216201 0.963077
O O5 0.490274 0.582555 0.906328
O O6 0.705118 0.532733 0.830479
O O7 0.616716 0.207166 0.145124
O O8 0.500000 0.422788 0.250000
O O9 0.730264 0.279245 0.247363
O O10 0.751020 0.529266 0.216369
O O11 0.000000 0.368148 0.750000
#
# Coordination Sequence:
#
# PCOD9455557 Si02
#       5
#     8   8   8   8   8
#     4  10  22  37  63  87 125 167 203 257 319 366
#     4  10  20  40  62  87 125 163 204 260 316 366
#     4  10  22  40  63  89 129 161 209 261 310 376
#     4  11  21  40  66  89 121 165 209 259 317 374
#     4  11  22  42  63  92 128 161 207 267 315 375
#
# _framework density 19.801362999999998
#
# number of rings (size 3 to 8) (size 9 to 14) (size 15 to 20)
#    1.200    0.400    4.000    3.000    0.000    4.800 
#    0.000    4.000    0.000    0.000    0.000    0.000 
#    0.000    0.000    0.000    0.000    0.000    0.000 
#
# Total GULP energy -223062.726123 kJ/mol
# GULP energy per Si atom -5576.568153 kJ/mol
# Density = 1.975629 g / cm^3
# Si number density = 19.801363 Si / 1000 Ang^3
#
#
#
# Elastic Constant Matrix: (Units=GPa)
#
#
# Indices 1 2 3 4 5 6 
#
# 1 16.6783 4.0508 11.4069 0.0000 0.0000 0.0000
# 2 4.0508 41.2619 -20.3956 0.0000 0.0000 0.0000
# 3 11.4069 -20.3956 91.7673 0.0000 0.0000 0.0000
# 4 0.0000 0.0000 0.0000 16.3848 0.0000 0.0000
# 5 0.0000 0.0000 0.0000 0.0000 23.8585 0.0000
# 6 0.0000 0.0000 0.0000 0.0000 0.0000 10.8525
#
#
#
# Elastic Compliance Matrix: (Units=1/GPa)
#
#
# Indices 1 2 3 4 5 6 
#
# 1 0.071026 -0.012736 -0.011659 0.000000 0.000000 0.000000
# 2 -0.012736 0.029510 0.008142 0.000000 0.000000 0.000000
# 3 -0.011659 0.008142 0.014156 0.000000 0.000000 0.000000
# 4 0.000000 0.000000 0.000000 0.061032 0.000000 0.000000
# 5 0.000000 0.000000 0.000000 0.000000 0.041914 0.000000
# 6 0.000000 0.000000 0.000000 0.000000 0.000000 0.092144
#
#
# Mechanical properties :
#
#
# Convention : Reuss Voigt Hill
#
# Bulk Modulus (GPa) = 12.16765 15.53686 13.85225
# Shear Modulus (GPa) = 13.52505 20.52886 17.02695
#
# Velocity S-wave (km/s) = 2.61633 3.22334 2.93557
# Velocity P-wave (km/s) = 3.90962 4.66011 4.30126
#
# Compressibility (1/GPa) = 0.08218516
#
# Stress axis : x y z
#
# Youngs Moduli (GPa) = 14.07938 33.88650 70.64148
#
# Poissons Ratio (x) = 0.43158 0.82363
# Poissons Ratio (y) = 0.17932 -0.57516
# Poissons Ratio (z) = 0.16416 -0.27590
#
# Static dielectric constant tensor:
#      x y z
#    x 1.705590 0.000000 0.000000 
#    y 0.000000 1.687110 0.000000 
#    z 0.000000 0.000000 1.692220 
# 
# From -- ./inp_files/22000.got.cif
#   From: 2010.05.17/outbox.cif.g08.bks.cpg/sg60_11_cif.got.tgz:22000.got - 2010.06.03 14:59:27.
