data_PCOD9455455
_publ_section_title
;
Structure prediction by ZEFSAII (Michael W. Deem and Ramdas Pophale) SiO2 
 PCOD9455455
Probable space group: P B C N
;
_chemical_formula_sum "Si O2"
_cell_formula_units_Z 60
_cell_length_a 8.639111
_cell_length_b 13.690282
_cell_length_c 24.591067
_cell_angle_alpha 90.000000
_cell_angle_beta 90.000000
_cell_angle_gamma 90.000000
_cell_volume 2908.431377
_symmetry_space_group_name_H-M "P B C N"
_symmetry_group_IT_number 60
_symmetry_cell_setting 'orthorhombic'
loop_
_space_group_symop_operation_xyz
x,y,z
1/2-x,1/2-y,1/2+z
1/2+x,1/2-y,-z
-x,y,1/2-z
-x,-y,-z
1/2+x,1/2+y,1/2-z
1/2-x,1/2+y,z
x,-y,1/2+z
loop_
_atom_site_type_symbol
_atom_site_label
_atom_site_fract_x
_atom_site_fract_y
_atom_site_fract_z
Si Si1 0.141883 0.063163 0.019968
Si Si2 0.500000 0.670056 0.250000
Si Si3 0.224552 0.296240 0.172785
Si Si4 0.673470 0.001233 0.375837
Si Si5 0.190239 0.918498 0.847763
Si Si6 0.987247 0.332801 0.813453
Si Si7 0.005506 0.779347 0.579874
Si Si8 0.349334 0.073307 0.917077
O O1 0.083278 0.175393 0.026246
O O2 0.201433 0.024745 0.078279
O O3 0.273348 0.051225 0.974781
O O4 0.000000 0.000000 0.000000
O O5 0.623794 0.742609 0.279934
O O6 0.410473 0.601683 0.293462
O O7 0.206609 0.411770 0.164772
O O8 0.404960 0.270782 0.178584
O O9 0.146978 0.253560 0.118121
O O10 0.515458 0.976146 0.407742
O O11 0.637516 0.094614 0.339642
O O12 0.347799 0.855951 0.839593
O O13 0.089499 0.868690 0.894596
O O14 0.243353 0.025927 0.868756
O O15 0.000000 0.353393 0.750000
O O16 0.888835 0.688180 0.581436
#
# Coordination Sequence:
#
# PCOD9455455 Si02
#       8
#     8   4   8   8   8   8   8   8
#     4  12  23  42  69  98 132 177 231 277 342 403
#     4  10  20  38  70  94 142 180 222 276 342 400
#     4  10  21  41  65  94 131 174 221 272 340 400
#     4  10  24  42  66  95 137 175 218 285 339 406
#     4  10  21  41  65  95 136 176 219 282 330 407
#     4  11  21  40  65  95 126 172 224 272 335 405
#     4  10  22  42  64  94 134 173 217 285 335 398
#     4  10  23  43  67  99 133 179 226 269 354 403
#
# _framework density 20.629676
#
# number of rings (size 3 to 8) (size 9 to 14) (size 15 to 20)
#    0.000    1.600    4.000    0.400    0.933    3.200 
#    4.800    0.000    2.933    0.000    0.000    0.000 
#    0.000    0.000    0.000    0.000    0.000    0.000 
#
# Total GULP energy -334611.722858 kJ/mol
# GULP energy per Si atom -5576.862048 kJ/mol
# Density = 2.058272 g / cm^3
# Si number density = 20.629676 Si / 1000 Ang^3
#
#
#
# Elastic Constant Matrix: (Units=GPa)
#
#
# Indices 1 2 3 4 5 6 
#
# 1 67.4903 28.5900 24.3629 0.0000 0.0000 0.0000
# 2 28.5900 69.1678 20.0895 0.0000 0.0000 0.0000
# 3 24.3629 20.0895 69.0951 0.0000 0.0000 0.0000
# 4 0.0000 0.0000 0.0000 9.8600 0.0000 0.0000
# 5 0.0000 0.0000 0.0000 0.0000 36.8100 0.0000
# 6 0.0000 0.0000 0.0000 0.0000 0.0000 27.7541
#
#
#
# Elastic Compliance Matrix: (Units=1/GPa)
#
#
# Indices 1 2 3 4 5 6 
#
# 1 0.019381 -0.006582 -0.004920 0.000000 0.000000 0.000000
# 2 -0.006582 0.018026 -0.002920 0.000000 0.000000 0.000000
# 3 -0.004920 -0.002920 0.017057 0.000000 0.000000 0.000000
# 4 0.000000 0.000000 0.000000 0.101420 0.000000 0.000000
# 5 0.000000 0.000000 0.000000 0.000000 0.027166 0.000000
# 6 0.000000 0.000000 0.000000 0.000000 0.000000 0.036031
#
#
# Mechanical properties :
#
#
# Convention : Reuss Voigt Hill
#
# Bulk Modulus (GPa) = 39.03296 39.09312 39.06304
# Shear Modulus (GPa) = 19.49569 23.73219 21.61394
#
# Velocity S-wave (km/s) = 3.07747 3.39542 3.24035
# Velocity P-wave (km/s) = 5.62047 5.86199 5.74250
#
# Compressibility (1/GPa) = 0.02561937
#
# Stress axis : x y z
#
# Youngs Moduli (GPa) = 51.59610 55.47394 58.62787
#
# Poissons Ratio (x) = 0.36514 0.28845
# Poissons Ratio (y) = 0.33961 0.17122
# Poissons Ratio (z) = 0.25386 0.16200
#
# Static dielectric constant tensor:
#      x y z
#    x 1.769700 0.000000 0.000000 
#    y 0.000000 1.752630 0.000000 
#    z 0.000000 0.000000 1.726430 
# 
# From -- ./inp_files/25215.got.cif
#   From: 2010.05.17/outbox.cif.g08.bks.cpg/sg60_13_cif.got.tgz:25215.got - 2010.06.03 14:59:27.
