data_PCOD9455870
_publ_section_title
;
Structure prediction by ZEFSAII (Michael W. Deem and Ramdas Pophale) SiO2 
 PCOD9455870
Probable space group: P B C N
;
_chemical_formula_sum "Si O2"
_cell_formula_units_Z 48
_cell_length_a 8.380316
_cell_length_b 10.459512
_cell_length_c 27.698584
_cell_angle_alpha 90.000000
_cell_angle_beta 90.000000
_cell_angle_gamma 90.000000
_cell_volume 2427.892119
_symmetry_space_group_name_H-M "P B C N"
_symmetry_group_IT_number 60
_symmetry_cell_setting 'orthorhombic'
loop_
_space_group_symop_operation_xyz
x,y,z
1/2-x,1/2-y,1/2+z
1/2+x,1/2-y,-z
-x,y,1/2-z
-x,-y,-z
1/2+x,1/2+y,1/2-z
1/2-x,1/2+y,z
x,-y,1/2+z
loop_
_atom_site_type_symbol
_atom_site_label
_atom_site_fract_x
_atom_site_fract_y
_atom_site_fract_z
Si Si1 0.543670 0.137820 0.142066
Si Si2 0.370470 0.129976 0.643190
Si Si3 0.670069 0.249710 0.441377
Si Si4 0.438594 0.617232 0.696476
Si Si5 0.414042 0.618272 0.362260
Si Si6 0.999664 0.872733 0.970179
O O1 0.468906 0.191752 0.092080
O O2 0.472727 0.236720 0.180932
O O3 0.731801 0.144785 0.150565
O O4 0.486120 0.991343 0.141978
O O5 0.259167 0.145984 0.594442
O O6 0.249441 0.104315 0.686966
O O7 0.468562 0.262037 0.648929
O O8 0.588703 0.280133 0.492551
O O9 0.820629 0.163030 0.455228
O O10 0.500000 0.593750 0.750000
O O11 0.522758 0.511768 0.662030
O O12 0.411352 0.607674 0.420056
O O13 0.000000 0.000000 0.000000
#
# Coordination Sequence:
#
# PCOD9455870 Si02
#       6
#     8   8   8   8   8   8
#     4  11  22  41  63  90 125 164 208 256 309 367
#     4  10  22  43  65  90 126 166 206 255 308 366
#     4  10  21  36  59  90 125 166 209 254 302 357
#     4  11  24  43  66  92 120 158 204 258 317 375
#     4  11  24  41  63  93 128 166 205 254 309 369
#     4  11  21  36  58  87 123 166 209 251 299 360
#
# _framework density 19.770235
#
# number of rings (size 3 to 8) (size 9 to 14) (size 15 to 20)
#    0.000    1.333    0.000    8.000    0.000    5.333 
#    0.000    8.333    0.000    0.000    0.000    0.000 
#    0.000    0.000    0.000    0.000    0.000    0.000 
#
# Total GULP energy -267664.725305 kJ/mol
# GULP energy per Si atom -5576.348444 kJ/mol
# Density = 1.972524 g / cm^3
# Si number density = 19.770235 Si / 1000 Ang^3
#
#
#
# Elastic Constant Matrix: (Units=GPa)
#
#
# Indices 1 2 3 4 5 6 
#
# 1 73.6003 7.2109 22.6559 0.0000 0.0000 0.0000
# 2 7.2109 71.9841 22.8358 0.0000 0.0000 0.0000
# 3 22.6559 22.8358 88.4658 0.0000 0.0000 0.0000
# 4 0.0000 0.0000 0.0000 -3.9420 0.0000 0.0000
# 5 0.0000 0.0000 0.0000 0.0000 19.0661 0.0000
# 6 0.0000 0.0000 0.0000 0.0000 0.0000 25.5439
#
#
#
# Elastic Compliance Matrix: (Units=1/GPa)
#
#
# Indices 1 2 3 4 5 6 
#
# 1 0.014756 -0.000304 -0.003700 0.000000 0.000000 0.000000
# 2 -0.000304 0.015137 -0.003829 0.000000 0.000000 0.000000
# 3 -0.003700 -0.003829 0.013240 0.000000 0.000000 0.000000
# 4 0.000000 0.000000 0.000000 -0.253680 0.000000 0.000000
# 5 0.000000 0.000000 0.000000 0.000000 0.052449 0.000000
# 6 0.000000 0.000000 0.000000 0.000000 0.000000 0.039148
#
#
# Mechanical properties :
#
#
# Convention : Reuss Voigt Hill
#
# Bulk Modulus (GPa) = 36.41028 37.71728 37.06378
# Shear Modulus (GPa) = -53.12038 20.22343 -16.44847
#
# Velocity S-wave (km/s) = -5.18914 3.20179 -2.88754
# Velocity P-wave (km/s) = 4.17687 5.72606 2.76962
#
# Compressibility (1/GPa) = 0.02746477
#
# Stress axis : x y z
#
# Youngs Moduli (GPa) = 67.77005 66.06208 75.52887
#
# Poissons Ratio (x) = 0.02010 0.27949
# Poissons Ratio (y) = 0.02062 0.28924
# Poissons Ratio (z) = 0.25078 0.25298
#
# Static dielectric constant tensor:
#      x y z
#    x 1.687280 0.000000 0.000000 
#    y 0.000000 1.807610 0.000000 
#    z 0.000000 0.000000 3.024420 
# 
# From -- ./inp_files/25922.got.cif
#   From: 2010.05.17/outbox.cif.g08.bks.cpg/sg60_13_cif.got.tgz:25922.got - 2010.06.03 14:59:27.
