data_PCOD9455084
_publ_section_title
;
Structure prediction by ZEFSAII (Michael W. Deem and Ramdas Pophale) SiO2 
 PCOD9455084
Probable space group: P B C N
;
_chemical_formula_sum "Si O2"
_cell_formula_units_Z 52
_cell_length_a 8.486396
_cell_length_b 18.866537
_cell_length_c 17.800606
_cell_angle_alpha 90.000000
_cell_angle_beta 90.000000
_cell_angle_gamma 90.000000
_cell_volume 2850.035520
_symmetry_space_group_name_H-M "P B C N"
_symmetry_group_IT_number 60
_symmetry_cell_setting 'orthorhombic'
loop_
_space_group_symop_operation_xyz
x,y,z
1/2-x,1/2-y,1/2+z
1/2+x,1/2-y,-z
-x,y,1/2-z
-x,-y,-z
1/2+x,1/2+y,1/2-z
1/2-x,1/2+y,z
x,-y,1/2+z
loop_
_atom_site_type_symbol
_atom_site_label
_atom_site_fract_x
_atom_site_fract_y
_atom_site_fract_z
Si Si1 0.618207 0.693794 0.043435
Si Si2 0.859823 0.806118 0.075601
Si Si3 0.601033 0.925775 0.093113
Si Si4 0.389588 0.911665 0.951684
Si Si5 0.041887 0.310194 0.665811
Si Si6 0.398839 0.736452 0.181802
Si Si7 0.500000 0.124108 0.750000
O O1 0.746760 0.754287 0.027599
O O2 0.722348 0.625674 0.061462
O O3 0.511538 0.725231 0.110361
O O4 0.509852 0.676202 0.973745
O O5 0.752493 0.874034 0.090984
O O6 0.928295 0.756687 0.142876
O O7 0.553198 0.922348 0.180133
O O8 0.628410 0.005650 0.065809
O O9 0.464683 0.899644 0.034748
O O10 0.505397 0.871684 0.893890
O O11 0.226009 0.291601 0.665576
O O12 0.000000 0.332368 0.750000
O O13 0.500000 0.701538 0.250000
O O14 0.383161 0.817867 0.211086
#
# Coordination Sequence:
#
# PCOD9455084 Si02
#       7
#     8   8   8   8   8   8   4
#     4  11  20  36  58  92 117 157 201 254 299 349
#     4  11  21  35  62  87 123 153 208 252 298 358
#     4  11  22  44  58  88 118 166 202 244 301 361
#     4  10  25  39  62  85 125 160 205 242 299 367
#     4  11  22  37  61  95 120 158 202 252 301 352
#     4  10  20  35  61  88 122 150 197 254 298 345
#     4  10  22  36  64  84 118 154 194 252 292 356
#
# _framework density 18.245386
#
# number of rings (size 3 to 8) (size 9 to 14) (size 15 to 20)
#    0.462    0.923    1.538    6.462    3.231    0.615 
#    0.000    0.000    0.000    2.769    0.000    0.000 
#    0.000    0.000    0.000    0.000    0.000    0.000 
#
# Total GULP energy -289756.387075 kJ/mol
# GULP energy per Si atom -5572.238213 kJ/mol
# Density = 1.820386 g / cm^3
# Si number density = 18.245386 Si / 1000 Ang^3
#
#
#
# Elastic Constant Matrix: (Units=GPa)
#
#
# Indices 1 2 3 4 5 6 
#
# 1 86.9990 25.7149 16.1469 0.0000 0.0000 0.0000
# 2 25.7149 76.1721 18.7021 0.0000 0.0000 0.0000
# 3 16.1469 18.7021 100.4317 0.0000 0.0000 0.0000
# 4 0.0000 0.0000 0.0000 -0.6407 0.0000 0.0000
# 5 0.0000 0.0000 0.0000 0.0000 25.7182 0.0000
# 6 0.0000 0.0000 0.0000 0.0000 0.0000 9.2875
#
#
#
# Elastic Compliance Matrix: (Units=1/GPa)
#
#
# Indices 1 2 3 4 5 6 
#
# 1 0.012935 -0.004041 -0.001327 0.000000 0.000000 0.000000
# 2 -0.004041 0.015020 -0.002147 0.000000 0.000000 0.000000
# 3 -0.001327 -0.002147 0.010570 0.000000 0.000000 0.000000
# 4 0.000000 0.000000 0.000000 -1.560737 0.000000 0.000000
# 5 0.000000 0.000000 0.000000 0.000000 0.038883 0.000000
# 6 0.000000 0.000000 0.000000 0.000000 0.000000 0.107672
#
#
# Mechanical properties :
#
#
# Convention : Reuss Voigt Hill
#
# Bulk Modulus (GPa) = 42.56349 42.74784 42.65566
# Shear Modulus (GPa) = -3.69605 20.40892 8.35643
#
# Velocity S-wave (km/s) = -1.42483 3.34815 2.14242
# Velocity P-wave (km/s) = 4.54666 6.19895 5.43595
#
# Compressibility (1/GPa) = 0.02349432
#
# Stress axis : x y z
#
# Youngs Moduli (GPa) = 77.30897 66.57993 94.60531
#
# Poissons Ratio (x) = 0.26904 0.12556
# Poissons Ratio (y) = 0.31240 0.20314
# Poissons Ratio (z) = 0.10260 0.14296
#
# Static dielectric constant tensor:
#      x y z
#    x 1.630460 0.000000 0.000000 
#    y 0.000000 1.632560 0.000000 
#    z 0.000000 0.000000 1.656830 
# 
# From -- ./inp_files/19501.got.cif
#   From: 2010.05.17/outbox.cif.g08.bks.cpg/sg60_10_cif.got.tgz:19501.got - 2010.06.03 14:59:27.
