data_PCOD9455678
_publ_section_title
;
Structure prediction by ZEFSAII (Michael W. Deem and Ramdas Pophale) SiO2 
 PCOD9455678
Probable space group: P B C N
;
_chemical_formula_sum "Si O2"
_cell_formula_units_Z 60
_cell_length_a 27.457056
_cell_length_b 10.396246
_cell_length_c 8.919312
_cell_angle_alpha 90.000000
_cell_angle_beta 90.000000
_cell_angle_gamma 90.000000
_cell_volume 2546.020363
_symmetry_space_group_name_H-M "P B C N"
_symmetry_group_IT_number 60
_symmetry_cell_setting 'orthorhombic'
loop_
_space_group_symop_operation_xyz
x,y,z
1/2-x,1/2-y,1/2+z
1/2+x,1/2-y,-z
-x,y,1/2-z
-x,-y,-z
1/2+x,1/2+y,1/2-z
1/2-x,1/2+y,z
x,-y,1/2+z
loop_
_atom_site_type_symbol
_atom_site_label
_atom_site_fract_x
_atom_site_fract_y
_atom_site_fract_z
Si Si1 0.500000 0.298836 0.750000
Si Si2 0.922488 0.240657 0.488467
Si Si3 0.057652 0.559311 0.254181
Si Si4 0.055623 0.960164 0.965736
Si Si5 0.270118 0.927347 0.339246
Si Si6 0.383052 0.248086 0.087761
Si Si7 0.275710 0.182941 0.179451
Si Si8 0.628607 0.163872 0.725194
O O1 0.526140 0.240710 0.896559
O O2 0.545789 0.380107 0.685399
O O3 0.925292 0.342152 0.619396
O O4 0.876556 0.267679 0.382891
O O5 0.918412 0.096136 0.548034
O O6 0.080011 0.421020 0.282841
O O7 0.000000 0.555629 0.250000
O O8 0.082514 0.623500 0.109087
O O9 0.081464 0.872217 0.091994
O O10 0.000000 0.000000 0.000000
O O11 0.248560 0.817504 0.229517
O O12 0.265222 0.877509 0.511968
O O13 0.326918 0.931389 0.293373
O O14 0.256100 0.073530 0.296053
O O15 0.365981 0.256547 0.915232
O O16 0.333745 0.219927 0.179061
#
# Coordination Sequence:
#
# PCOD9455678 Si02
#       8
#     4   8   8   8   8   8   8   8
#     4  10  20  42  60  92 138 186 238 298 350 420
#     4  11  25  38  66  93 134 191 238 298 351 425
#     4  12  26  38  65 104 144 195 246 287 354 436
#     4  10  22  38  66  91 139 187 238 294 359 411
#     4  11  25  48  78 114 144 197 244 316 390 464
#     4  11  24  45  68 103 145 186 242 302 365 445
#     4  11  25  48  83 108 155 193 253 318 394 468
#     4  11  25  45  67  97 144 187 236 296 367 438
#
# _framework density 23.566189999999999
#
# number of rings (size 3 to 8) (size 9 to 14) (size 15 to 20)
#    0.000    1.067    2.667    3.200    7.467    3.200 
#    0.000    1.333    0.000    0.000    0.000    0.000 
#    0.000    0.000    0.000    0.000    0.000    0.000 
#
# Total GULP energy -334730.525605 kJ/mol
# GULP energy per Si atom -5578.842093 kJ/mol
# Density = 2.351255 g / cm^3
# Si number density = 23.566190 Si / 1000 Ang^3
#
#
#
# Elastic Constant Matrix: (Units=GPa)
#
#
# Indices 1 2 3 4 5 6 
#
# 1 35.2845 -4.7324 19.2689 0.0000 0.0000 0.0000
# 2 -4.7324 78.8503 20.8185 0.0000 0.0000 0.0000
# 3 19.2689 20.8185 70.1694 0.0000 0.0000 0.0000
# 4 0.0000 0.0000 0.0000 38.0092 0.0000 0.0000
# 5 0.0000 0.0000 0.0000 0.0000 24.1252 0.0000
# 6 0.0000 0.0000 0.0000 0.0000 0.0000 33.2519
#
#
#
# Elastic Compliance Matrix: (Units=1/GPa)
#
#
# Indices 1 2 3 4 5 6 
#
# 1 0.035099 0.005047 -0.011136 0.000000 0.000000 0.000000
# 2 0.005047 0.014486 -0.005684 0.000000 0.000000 0.000000
# 3 -0.011136 -0.005684 0.018995 0.000000 0.000000 0.000000
# 4 0.000000 0.000000 0.000000 0.026309 0.000000 0.000000
# 5 0.000000 0.000000 0.000000 0.000000 0.041451 0.000000
# 6 0.000000 0.000000 0.000000 0.000000 0.000000 0.030074
#
#
# Mechanical properties :
#
#
# Convention : Reuss Voigt Hill
#
# Bulk Modulus (GPa) = 22.20496 28.33493 25.26995
# Shear Modulus (GPa) = 24.39374 29.00719 26.70047
#
# Velocity S-wave (km/s) = 3.22081 3.51220 3.36966
# Velocity P-wave (km/s) = 4.82435 5.33826 5.08780
#
# Compressibility (1/GPa) = 0.04503498
#
# Stress axis : x y z
#
# Youngs Moduli (GPa) = 28.49075 69.03333 52.64430
#
# Poissons Ratio (x) = -0.34839 0.58623
# Poissons Ratio (y) = -0.14378 0.29921
# Poissons Ratio (z) = 0.31726 0.39236
#
# Static dielectric constant tensor:
#      x y z
#    x 1.926130 0.000000 0.000000 
#    y 0.000000 1.999710 0.000000 
#    z 0.000000 0.000000 2.009440 
# 
# From -- ./inp_files/8483.got.cif
#   From: 2010.05.17/outbox.cif.g08.bks.cpg/sg60_5_cif.got.tgz:8483.got - 2010.06.03 14:59:27.
