data_PCOD9455777
_publ_section_title
;
Structure prediction by ZEFSAII (Michael W. Deem and Ramdas Pophale) SiO2 
 PCOD9455777
Probable space group: P B C N
;
_chemical_formula_sum "Si O2"
_cell_formula_units_Z 48
_cell_length_a 24.521955
_cell_length_b 20.729821
_cell_length_c 5.150233
_cell_angle_alpha 90.000000
_cell_angle_beta 90.000000
_cell_angle_gamma 90.000000
_cell_volume 2618.047491
_symmetry_space_group_name_H-M "P B C N"
_symmetry_group_IT_number 60
_symmetry_cell_setting 'orthorhombic'
loop_
_space_group_symop_operation_xyz
x,y,z
1/2-x,1/2-y,1/2+z
1/2+x,1/2-y,-z
-x,y,1/2-z
-x,-y,-z
1/2+x,1/2+y,1/2-z
1/2-x,1/2+y,z
x,-y,1/2+z
loop_
_atom_site_type_symbol
_atom_site_label
_atom_site_fract_x
_atom_site_fract_y
_atom_site_fract_z
Si Si1 0.940577 0.230852 0.302261
Si Si2 0.059211 0.145515 0.700622
Si Si3 0.217440 0.170685 0.791011
Si Si4 0.395382 0.474934 0.449188
Si Si5 0.726478 0.474181 0.411515
Si Si6 0.677026 0.259736 0.706751
O O1 0.939955 0.204266 0.594747
O O2 0.883599 0.266564 0.255685
O O3 0.000000 0.261427 0.250000
O O4 0.937118 0.172064 0.090743
O O5 0.101876 0.093434 0.806105
O O6 0.000000 0.114010 0.750000
O O7 0.224471 0.097000 0.706137
O O8 0.181273 0.206077 0.572078
O O9 0.276321 0.205750 0.781051
O O10 0.191954 0.187052 0.072054
O O11 0.421242 0.477119 0.735377
O O12 0.334204 0.498553 0.518702
O O13 0.752946 0.520395 0.195259
#
# Coordination Sequence:
#
# PCOD9455777 Si02
#       6
#     8   8   8   8   8   8
#     4  10  21  34  52  72  94 130 167 210 252 286
#     4  10  21  34  46  65  94 127 172 212 238 278
#     4  10  21  36  51  80  97 127 173 201 267 292
#     4  10  21  30  43  64  85 129 163 201 247 271
#     4  10  21  32  48  72  98 128 161 205 244 308
#     4  10  21  34  57  71 100 131 160 225 243 308
#
# _framework density 18.334275000000002
#
# number of rings (size 3 to 8) (size 9 to 14) (size 15 to 20)
#    0.000    2.000    0.000    3.000   14.000    0.667 
#    0.000    0.000    0.000    0.000    0.000    0.000 
#    0.000    1.333    0.000    0.000    0.000    4.000 
#
# Total GULP energy -267543.646411 kJ/mol
# GULP energy per Si atom -5573.825967 kJ/mol
# Density = 1.829255 g / cm^3
# Si number density = 18.334275 Si / 1000 Ang^3
#
#
#
# Elastic Constant Matrix: (Units=GPa)
#
#
# Indices 1 2 3 4 5 6 
#
# 1 77.6381 2.9695 -5.7657 0.0000 0.0000 0.0000
# 2 2.9695 34.9991 2.9972 0.0000 0.0000 0.0000
# 3 -5.7657 2.9972 122.3904 0.0000 0.0000 0.0000
# 4 0.0000 0.0000 0.0000 17.4487 0.0000 0.0000
# 5 0.0000 0.0000 0.0000 0.0000 18.0487 0.0000
# 6 0.0000 0.0000 0.0000 0.0000 0.0000 16.7300
#
#
#
# Elastic Compliance Matrix: (Units=1/GPa)
#
#
# Indices 1 2 3 4 5 6 
#
# 1 0.012972 -0.001155 0.000639 0.000000 0.000000 0.000000
# 2 -0.001155 0.028735 -0.000758 0.000000 0.000000 0.000000
# 3 0.000639 -0.000758 0.008219 0.000000 0.000000 0.000000
# 4 0.000000 0.000000 0.000000 0.057311 0.000000 0.000000
# 5 0.000000 0.000000 0.000000 0.000000 0.055406 0.000000
# 6 0.000000 0.000000 0.000000 0.000000 0.000000 0.059773
#
#
# Mechanical properties :
#
#
# Convention : Reuss Voigt Hill
#
# Bulk Modulus (GPa) = 21.10679 26.15886 23.63282
# Shear Modulus (GPa) = 20.76786 26.10059 23.43422
#
# Velocity S-wave (km/s) = 3.36926 3.77715 3.57902
# Velocity P-wave (km/s) = 5.16460 5.77245 5.47696
#
# Compressibility (1/GPa) = 0.04737812
#
# Stress axis : x y z
#
# Youngs Moduli (GPa) = 77.08945 34.80062 121.66547
#
# Poissons Ratio (x) = 0.04021 -0.07779
# Poissons Ratio (y) = 0.08907 0.09224
# Poissons Ratio (z) = -0.04929 0.02638
#
# Static dielectric constant tensor:
#      x y z
#    x 1.745720 0.000000 0.000000 
#    y 0.000000 1.641700 0.000000 
#    z 0.000000 0.000000 1.778020 
# 
# From -- ./inp_files/2365.got.cif
#   From: 2010.05.17/outbox.cif.g08.bks.cpg/sg60_2_cif.got.tgz:2365.got - 2010.06.03 14:59:27.
