data_PCOD9455368
_publ_section_title
;
Structure prediction by ZEFSAII (Michael W. Deem and Ramdas Pophale) SiO2 
 PCOD9455368
Probable space group: P B C N
;
_chemical_formula_sum "Si O2"
_cell_formula_units_Z 48
_cell_length_a 9.926492
_cell_length_b 10.368895
_cell_length_c 21.801167
_cell_angle_alpha 90.000000
_cell_angle_beta 90.000000
_cell_angle_gamma 90.000000
_cell_volume 2243.923337
_symmetry_space_group_name_H-M "P B C N"
_symmetry_group_IT_number 60
_symmetry_cell_setting 'orthorhombic'
loop_
_space_group_symop_operation_xyz
x,y,z
1/2-x,1/2-y,1/2+z
1/2+x,1/2-y,-z
-x,y,1/2-z
-x,-y,-z
1/2+x,1/2+y,1/2-z
1/2-x,1/2+y,z
x,-y,1/2+z
loop_
_atom_site_type_symbol
_atom_site_label
_atom_site_fract_x
_atom_site_fract_y
_atom_site_fract_z
Si Si1 0.874853 0.180527 0.172462
Si Si2 0.194834 0.806092 0.693359
Si Si3 0.281708 0.943587 0.117093
Si Si4 0.922488 0.384434 0.065926
Si Si5 0.943234 0.165919 0.975064
Si Si6 0.344250 0.487057 0.422911
O O1 0.785504 0.191766 0.233408
O O2 0.860008 0.292037 0.120406
O O3 0.033683 0.184498 0.186032
O O4 0.849450 0.039148 0.145060
O O5 0.235172 0.667133 0.668133
O O6 0.256522 0.919134 0.650339
O O7 0.431367 0.929194 0.088537
O O8 0.172501 0.898670 0.066382
O O9 0.809816 0.492435 0.057309
O O10 0.926496 0.308398 0.001458
O O11 0.083918 0.146326 0.940064
O O12 0.937049 0.085823 0.038581
#
# Coordination Sequence:
#
# PCOD9455368 Si02
#       6
#     8   8   8   8   8   8
#     4   9  20  41  62  82 122 174 207 243 320 379
#     4  10  22  41  65  88 123 170 207 257 306 379
#     4  11  23  41  64  94 125 164 209 258 318 366
#     4  10  22  37  62  93 124 159 207 269 310 361
#     4  10  21  38  62  88 125 167 207 251 315 382
#     4  10  20  38  62  85 121 166 211 247 312 381
#
# _framework density 21.391105
#
# number of rings (size 3 to 8) (size 9 to 14) (size 15 to 20)
#    0.000    2.000    1.667    1.000    7.000    0.667 
#    6.000    0.000    0.000    0.000    0.000    0.000 
#    0.000    0.000    0.000    0.000    0.000    0.000 
#
# Total GULP energy -267562.956942 kJ/mol
# GULP energy per Si atom -5574.228270 kJ/mol
# Density = 2.134242 g / cm^3
# Si number density = 21.391105 Si / 1000 Ang^3
#
#
#
# Elastic Constant Matrix: (Units=GPa)
#
#
# Indices 1 2 3 4 5 6 
#
# 1 79.9047 -5.8103 15.3504 0.0000 0.0000 0.0000
# 2 -5.8103 41.6822 4.8657 0.0000 0.0000 0.0000
# 3 15.3504 4.8657 84.1896 0.0000 0.0000 0.0000
# 4 0.0000 0.0000 0.0000 20.3000 0.0000 0.0000
# 5 0.0000 0.0000 0.0000 0.0000 9.7573 0.0000
# 6 0.0000 0.0000 0.0000 0.0000 0.0000 20.5942
#
#
#
# Elastic Compliance Matrix: (Units=1/GPa)
#
#
# Indices 1 2 3 4 5 6 
#
# 1 0.013154 0.002128 -0.002521 0.000000 0.000000 0.000000
# 2 0.002128 0.024498 -0.001804 0.000000 0.000000 0.000000
# 3 -0.002521 -0.001804 0.012442 0.000000 0.000000 0.000000
# 4 0.000000 0.000000 0.000000 0.049261 0.000000 0.000000
# 5 0.000000 0.000000 0.000000 0.000000 0.102487 0.000000
# 6 0.000000 0.000000 0.000000 0.000000 0.000000 0.048557
#
#
# Mechanical properties :
#
#
# Convention : Reuss Voigt Hill
#
# Bulk Modulus (GPa) = 21.88201 26.06534 23.97368
# Shear Modulus (GPa) = 18.51663 22.88835 20.70249
#
# Velocity S-wave (km/s) = 2.94534 3.27462 3.11434
# Velocity P-wave (km/s) = 4.67102 5.14870 4.91567
#
# Compressibility (1/GPa) = 0.04569964
#
# Stress axis : x y z
#
# Youngs Moduli (GPa) = 76.02238 40.81920 80.37340
#
# Poissons Ratio (x) = -0.08686 0.20265
# Poissons Ratio (y) = -0.16177 0.14498
# Poissons Ratio (z) = 0.19168 0.07363
#
# Static dielectric constant tensor:
#      x y z
#    x 1.840360 0.000000 0.000000 
#    y 0.000000 1.879770 0.000000 
#    z 0.000000 0.000000 1.852780 
# 
# From -- ./inp_files/23924.got.cif
#   From: 2010.05.17/outbox.cif.g08.bks.cpg/sg60_12_cif.got.tgz:23924.got - 2010.06.03 14:59:27.
