data_PCOD9455895
_publ_section_title
;
Structure prediction by ZEFSAII (Michael W. Deem and Ramdas Pophale) SiO2 
 PCOD9455895
Probable space group: P B C N
;
_chemical_formula_sum "Si O2"
_cell_formula_units_Z 32
_cell_length_a 5.277353
_cell_length_b 18.640120
_cell_length_c 14.260330
_cell_angle_alpha 90.000000
_cell_angle_beta 90.000000
_cell_angle_gamma 90.000000
_cell_volume 1402.795695
_symmetry_space_group_name_H-M "P B C N"
_symmetry_group_IT_number 60
_symmetry_cell_setting 'orthorhombic'
loop_
_space_group_symop_operation_xyz
x,y,z
1/2-x,1/2-y,1/2+z
1/2+x,1/2-y,-z
-x,y,1/2-z
-x,-y,-z
1/2+x,1/2+y,1/2-z
1/2-x,1/2+y,z
x,-y,1/2+z
loop_
_atom_site_type_symbol
_atom_site_label
_atom_site_fract_x
_atom_site_fract_y
_atom_site_fract_z
Si Si1 0.942994 0.282613 0.043874
Si Si2 0.500000 0.584761 0.750000
Si Si3 0.700471 0.925982 0.942880
Si Si4 0.500000 0.178921 0.750000
Si Si5 0.801247 0.031840 0.104952
O O1 0.939348 0.277711 0.155913
O O2 0.716427 0.238057 0.996678
O O3 0.883733 0.364439 0.013832
O O4 0.252112 0.632016 0.726479
O O5 0.595869 0.532340 0.668158
O O6 0.474766 0.938500 0.869678
O O7 0.974395 0.910394 0.898849
O O8 0.749973 0.998984 0.001358
#
# Coordination Sequence:
#
# PCOD9455895 Si02
#       5
#     8   4   8   4   8
#     4  12  26  46  69  97 136 190 234 282 336 401
#     4  12  22  40  67 106 131 168 226 290 338 418
#     4  10  21  40  60  95 127 171 209 270 338 404
#     4  12  26  44  69 100 133 176 246 282 328 420
#     4  10  21  36  65  95 132 158 208 277 347 393
#
# _framework density 22.811592000000001
#
# number of rings (size 3 to 8) (size 9 to 14) (size 15 to 20)
#    0.000    1.000    2.500    4.500    7.000    0.000 
#    0.000    7.500    0.000    0.000    0.000    0.000 
#    0.000    0.000    0.000    0.000    0.000    0.000 
#
# Total GULP energy -178794.602426 kJ/mol
# GULP energy per Si atom -5587.331326 kJ/mol
# Density = 2.275967 g / cm^3
# Si number density = 22.811592 Si / 1000 Ang^3
#
#
#
# Elastic Constant Matrix: (Units=GPa)
#
#
# Indices 1 2 3 4 5 6 
#
# 1 189.1944 14.3714 42.1648 0.0000 0.0000 0.0000
# 2 14.3714 35.8445 21.0425 0.0000 0.0000 0.0000
# 3 42.1648 21.0425 111.1871 0.0000 0.0000 0.0000
# 4 0.0000 0.0000 0.0000 43.2557 0.0000 0.0000
# 5 0.0000 0.0000 0.0000 0.0000 27.5128 0.0000
# 6 0.0000 0.0000 0.0000 0.0000 0.0000 30.7026
#
#
#
# Elastic Compliance Matrix: (Units=1/GPa)
#
#
# Indices 1 2 3 4 5 6 
#
# 1 0.005817 -0.001167 -0.001985 0.000000 0.000000 0.000000
# 2 -0.001167 0.031619 -0.005542 0.000000 0.000000 0.000000
# 3 -0.001985 -0.005542 0.010795 0.000000 0.000000 0.000000
# 4 0.000000 0.000000 0.000000 0.023118 0.000000 0.000000
# 5 0.000000 0.000000 0.000000 0.000000 0.036347 0.000000
# 6 0.000000 0.000000 0.000000 0.000000 0.000000 0.032571
#
#
# Mechanical properties :
#
#
# Convention : Reuss Voigt Hill
#
# Bulk Modulus (GPa) = 32.42065 54.59815 43.50940
# Shear Modulus (GPa) = 29.77343 37.53737 33.65540
#
# Velocity S-wave (km/s) = 3.61666 4.06093 3.84521
# Velocity P-wave (km/s) = 5.62881 6.78045 6.23129
#
# Compressibility (1/GPa) = 0.03084454
#
# Stress axis : x y z
#
# Youngs Moduli (GPa) = 171.92238 31.62627 92.63245
#
# Poissons Ratio (x) = 0.03690 0.18387
# Poissons Ratio (y) = 0.20060 0.51333
# Poissons Ratio (z) = 0.34126 0.17526
#
# Static dielectric constant tensor:
#      x y z
#    x 1.983010 0.000000 0.000000 
#    y 0.000000 1.851290 0.000000 
#    z 0.000000 0.000000 1.811870 
# 
# From -- ./inp_files/13596.got.cif
#   From: 2010.05.17/outbox.cif.g08.bks.cpg/sg60_7_cif.got.tgz:13596.got - 2010.06.03 14:59:27.
