data_PCOD9455029
_publ_section_title
;
Structure prediction by ZEFSAII (Michael W. Deem and Ramdas Pophale) SiO2 
 PCOD9455029
Probable space group: P B C N
;
_chemical_formula_sum "Si O2"
_cell_formula_units_Z 52
_cell_length_a 11.222315
_cell_length_b 26.452591
_cell_length_c 9.196142
_cell_angle_alpha 90.000000
_cell_angle_beta 90.000000
_cell_angle_gamma 90.000000
_cell_volume 2729.960357
_symmetry_space_group_name_H-M "P B C N"
_symmetry_group_IT_number 60
_symmetry_cell_setting 'orthorhombic'
loop_
_space_group_symop_operation_xyz
x,y,z
1/2-x,1/2-y,1/2+z
1/2+x,1/2-y,-z
-x,y,1/2-z
-x,-y,-z
1/2+x,1/2+y,1/2-z
1/2-x,1/2+y,z
x,-y,1/2+z
loop_
_atom_site_type_symbol
_atom_site_label
_atom_site_fract_x
_atom_site_fract_y
_atom_site_fract_z
Si Si1 0.500000 0.278876 0.250000
Si Si2 0.821380 0.364029 0.489479
Si Si3 0.000000 0.018979 0.750000
Si Si4 0.500000 0.636457 0.250000
Si Si5 0.068305 0.684573 0.059562
Si Si6 0.620519 0.439709 0.538175
Si Si7 0.770080 0.194217 0.239693
Si Si8 0.743295 0.810323 0.213105
O O1 0.521088 0.239493 0.384897
O O2 0.386422 0.312136 0.293839
O O3 0.753755 0.415727 0.533925
O O4 0.746685 0.319238 0.570836
O O5 0.802535 0.353086 0.320592
O O6 0.959186 0.352427 0.524611
O O7 0.074438 0.047796 0.624189
O O8 0.092659 0.985741 0.849419
O O9 0.460208 0.603205 0.386540
O O10 0.389301 0.669917 0.204046
O O11 0.154028 0.668127 0.191010
O O12 0.161031 0.688743 0.928197
O O13 0.773167 0.253111 0.271976
#
# Coordination Sequence:
#
# PCOD9455029 Si02
#       8
#     4   8   4   4   8   8   8   8
#     4  10  22  37  52  75 116 160 227 246 285 332
#     4  11  21  37  51  85 117 150 202 247 296 356
#     4   9  18  41  66  92 114 152 188 256 337 375
#     4   9  20  32  56  93 116 154 201 242 294 351
#     4  11  21  36  52  75 111 164 208 247 297 334
#     4   9  20  37  63  91 120 142 193 255 310 375
#     4  10  20  35  52  75 120 167 206 238 284 341
#     4  11  23  34  53  77 116 167 209 255 278 329
#
# _framework density 19.047896999999999
#
# number of rings (size 3 to 8) (size 9 to 14) (size 15 to 20)
#    0.000    1.846    3.077    2.308    2.154    4.308 
#    0.000    0.000    0.000    0.000    0.000   62.462 
#    0.000    0.000    0.000    0.000    0.000    0.000 
#
# Total GULP energy -289577.172663 kJ/mol
# GULP energy per Si atom -5568.791782 kJ/mol
# Density = 1.900454 g / cm^3
# Si number density = 19.047897 Si / 1000 Ang^3
#
#
#
# Elastic Constant Matrix: (Units=GPa)
#
#
# Indices 1 2 3 4 5 6 
#
# 1 130.5336 32.4304 44.5098 0.0000 0.0000 0.0000
# 2 32.4304 40.7285 19.4964 0.0000 0.0000 0.0000
# 3 44.5098 19.4964 105.2838 0.0000 0.0000 0.0000
# 4 0.0000 0.0000 0.0000 9.8610 0.0000 0.0000
# 5 0.0000 0.0000 0.0000 0.0000 31.2831 0.0000
# 6 0.0000 0.0000 0.0000 0.0000 0.0000 98.0458
#
#
#
# Elastic Compliance Matrix: (Units=1/GPa)
#
#
# Indices 1 2 3 4 5 6 
#
# 1 0.010422 -0.006791 -0.003148 0.000000 0.000000 0.000000
# 2 -0.006791 0.031367 -0.002937 0.000000 0.000000 0.000000
# 3 -0.003148 -0.002937 0.011373 0.000000 0.000000 0.000000
# 4 0.000000 0.000000 0.000000 0.101409 0.000000 0.000000
# 5 0.000000 0.000000 0.000000 0.000000 0.031966 0.000000
# 6 0.000000 0.000000 0.000000 0.000000 0.000000 0.010199
#
#
# Mechanical properties :
#
#
# Convention : Reuss Voigt Hill
#
# Bulk Modulus (GPa) = 36.48644 52.15766 44.32205
# Shear Modulus (GPa) = 21.58659 39.84528 30.71593
#
# Velocity S-wave (km/s) = 3.37007 4.57863 4.02003
# Velocity P-wave (km/s) = 5.86002 7.44269 6.69827
#
# Compressibility (1/GPa) = 0.02740745
#
# Stress axis : x y z
#
# Youngs Moduli (GPa) = 95.95437 31.88112 87.92733
#
# Poissons Ratio (x) = 0.21651 0.27682
# Poissons Ratio (y) = 0.65165 0.25827
# Poissons Ratio (z) = 0.30209 0.09365
#
# Static dielectric constant tensor:
#      x y z
#    x 1.726650 0.000000 0.000000 
#    y 0.000000 1.654370 0.000000 
#    z 0.000000 0.000000 1.913940 
# 
# From -- ./inp_files/5226.got.cif
#   From: 2010.05.17/outbox.cif.g08.bks.cpg/sg60_3_cif.got.tgz:5226.got - 2010.06.03 14:59:27.
