data_PCOD9455646
_publ_section_title
;
Structure prediction by ZEFSAII (Michael W. Deem and Ramdas Pophale) SiO2 
 PCOD9455646
Probable space group: P B C N
;
_chemical_formula_sum "Si O2"
_cell_formula_units_Z 40
_cell_length_a 9.163284
_cell_length_b 13.479310
_cell_length_c 15.470560
_cell_angle_alpha 90.000000
_cell_angle_beta 90.000000
_cell_angle_gamma 90.000000
_cell_volume 1910.842284
_symmetry_space_group_name_H-M "P B C N"
_symmetry_group_IT_number 60
_symmetry_cell_setting 'orthorhombic'
loop_
_space_group_symop_operation_xyz
x,y,z
1/2-x,1/2-y,1/2+z
1/2+x,1/2-y,-z
-x,y,1/2-z
-x,-y,-z
1/2+x,1/2+y,1/2-z
1/2-x,1/2+y,z
x,-y,1/2+z
loop_
_atom_site_type_symbol
_atom_site_label
_atom_site_fract_x
_atom_site_fract_y
_atom_site_fract_z
Si Si1 0.336366 0.893414 0.272147
Si Si2 0.080200 0.072532 0.659128
Si Si3 0.779076 0.564936 0.445798
Si Si4 0.669898 0.706657 0.577588
Si Si5 0.606462 0.064617 0.107832
O O1 0.500000 0.870224 0.250000
O O2 0.227359 0.875361 0.193306
O O3 0.286743 0.826677 0.351447
O O4 0.333597 0.007411 0.307839
O O5 0.000000 0.046351 0.750000
O O6 0.973931 0.142489 0.603611
O O7 0.141919 0.981526 0.603997
O O8 0.731617 0.670347 0.485678
O O9 0.823954 0.496996 0.528262
O O10 0.929451 0.562024 0.391880
O O11 0.644661 0.822017 0.590670
#
# Coordination Sequence:
#
# PCOD9455646 Si02
#       5
#     8   8   8   8   8
#     4  10  20  41  64  86 130 165 205 254 315 381
#     4  10  21  40  63  90 129 160 200 262 310 368
#     4  10  21  41  64  90 126 164 206 258 312 373
#     4  10  23  39  63  97 120 161 216 263 304 373
#     4  10  22  40  66  90 123 169 208 253 317 374
#
# _framework density 20.933176
#
# number of rings (size 3 to 8) (size 9 to 14) (size 15 to 20)
#    0.000    2.000    2.000    0.600    2.800    2.400 
#    0.000    5.000    0.000    0.000    0.000    0.000 
#    0.000    0.000    0.000    0.000    0.000    0.000 
#
# Total GULP energy -223240.180606 kJ/mol
# GULP energy per Si atom -5581.004515 kJ/mol
# Density = 2.088553 g / cm^3
# Si number density = 20.933176 Si / 1000 Ang^3
#
#
#
# Elastic Constant Matrix: (Units=GPa)
#
#
# Indices 1 2 3 4 5 6 
#
# 1 110.2574 21.0167 5.0250 0.0000 0.0000 0.0000
# 2 21.0167 93.7322 1.3582 0.0000 0.0000 0.0000
# 3 5.0250 1.3582 26.8164 0.0000 0.0000 0.0000
# 4 0.0000 0.0000 0.0000 7.5779 0.0000 0.0000
# 5 0.0000 0.0000 0.0000 0.0000 0.6324 0.0000
# 6 0.0000 0.0000 0.0000 0.0000 0.0000 16.2770
#
#
#
# Elastic Compliance Matrix: (Units=1/GPa)
#
#
# Indices 1 2 3 4 5 6 
#
# 1 0.009550 -0.002117 -0.001682 0.000000 0.000000 0.000000
# 2 -0.002117 0.011146 -0.000168 0.000000 0.000000 0.000000
# 3 -0.001682 -0.000168 0.037614 0.000000 0.000000 0.000000
# 4 0.000000 0.000000 0.000000 0.131963 0.000000 0.000000
# 5 0.000000 0.000000 0.000000 0.000000 1.581286 0.000000
# 6 0.000000 0.000000 0.000000 0.000000 0.000000 0.061436
#
#
# Mechanical properties :
#
#
# Convention : Reuss Voigt Hill
#
# Bulk Modulus (GPa) = 19.85075 31.73399 25.79237
# Shear Modulus (GPa) = 2.69147 18.45786 10.57466
#
# Velocity S-wave (km/s) = 1.13514 2.97265 2.25002
# Velocity P-wave (km/s) = 3.34986 5.19373 4.37014
#
# Compressibility (1/GPa) = 0.05037593
#
# Stress axis : x y z
#
# Youngs Moduli (GPa) = 104.71351 89.72001 26.58560
#
# Poissons Ratio (x) = 0.18993 0.04472
# Poissons Ratio (y) = 0.22167 0.00446
# Poissons Ratio (z) = 0.17616 0.01506
#
# Static dielectric constant tensor:
#      x y z
#    x 1.767080 0.000000 0.000000 
#    y 0.000000 1.731770 0.000000 
#    z 0.000000 0.000000 1.774260 
# 
# From -- ./inp_files/14652.got.cif
#   From: 2010.05.17/outbox.cif.g08.bks.cpg/sg60_8_cif.got.tgz:14652.got - 2010.06.03 14:59:27.
