data_PCOD9455954
_publ_section_title
;
Structure prediction by ZEFSAII (Michael W. Deem and Ramdas Pophale) SiO2 
 PCOD9455954
Probable space group: P B C N
;
_chemical_formula_sum "Si O2"
_cell_formula_units_Z 56
_cell_length_a 21.592380
_cell_length_b 9.714897
_cell_length_c 13.590492
_cell_angle_alpha 90.000000
_cell_angle_beta 90.000000
_cell_angle_gamma 90.000000
_cell_volume 2850.846897
_symmetry_space_group_name_H-M "P B C N"
_symmetry_group_IT_number 60
_symmetry_cell_setting 'orthorhombic'
loop_
_space_group_symop_operation_xyz
x,y,z
1/2-x,1/2-y,1/2+z
1/2+x,1/2-y,-z
-x,y,1/2-z
-x,-y,-z
1/2+x,1/2+y,1/2-z
1/2-x,1/2+y,z
x,-y,1/2+z
loop_
_atom_site_type_symbol
_atom_site_label
_atom_site_fract_x
_atom_site_fract_y
_atom_site_fract_z
Si Si1 0.428872 0.170507 0.780446
Si Si2 0.752261 0.797214 0.440359
Si Si3 0.223253 0.670555 0.266060
Si Si4 0.068375 0.529940 0.461299
Si Si5 0.347549 0.024634 0.628042
Si Si6 0.156434 0.883766 0.892255
Si Si7 0.853936 0.807736 0.060523
O O1 0.500000 0.196575 0.750000
O O2 0.389089 0.140698 0.681812
O O3 0.395985 0.290813 0.842170
O O4 0.426743 0.039094 0.854261
O O5 0.765213 0.766768 0.327448
O O6 0.711564 0.935061 0.437675
O O7 0.810358 0.815176 0.511927
O O8 0.699243 0.691704 0.476702
O O9 0.179937 0.555413 0.219581
O O10 0.285765 0.611855 0.314983
O O11 0.185004 0.750799 0.347560
O O12 0.109384 0.456538 0.546080
O O13 0.093683 0.689370 0.458577
O O14 0.000000 0.500000 0.500000
O O15 0.129664 0.034259 0.918588
#
# Coordination Sequence:
#
# PCOD9455954 Si02
#       7
#     8   8   8   8   8   8   8
#     4  12  24  44  67  92 130 182 224 268 323 397
#     4  10  21  37  62  95 135 169 208 265 341 401
#     4  11  20  36  64  95 132 166 208 269 336 388
#     4  11  23  43  67  90 124 174 234 273 315 392
#     4  11  21  38  65  95 122 170 219 267 322 392
#     4  11  24  40  63  99 139 167 215 273 337 395
#     4  10  23  38  61  96 130 167 216 275 328 391
#
# _framework density 19.643286
#
# number of rings (size 3 to 8) (size 9 to 14) (size 15 to 20)
#    0.000    1.143    4.286    2.571    2.000    0.000 
#    0.000    2.857    0.000    0.000    0.000    0.000 
#    0.000    0.000    0.000    0.000    0.000    0.000 
#
# Total GULP energy -312017.739421 kJ/mol
# GULP energy per Si atom -5571.745347 kJ/mol
# Density = 1.959858 g / cm^3
# Si number density = 19.643286 Si / 1000 Ang^3
#
#
#
# Elastic Constant Matrix: (Units=GPa)
#
#
# Indices 1 2 3 4 5 6 
#
# 1 108.7055 51.8215 30.3147 0.0000 0.0000 0.0000
# 2 51.8215 71.9306 -0.5704 0.0000 0.0000 0.0000
# 3 30.3147 -0.5704 77.1154 0.0000 0.0000 0.0000
# 4 0.0000 0.0000 0.0000 25.1757 0.0000 0.0000
# 5 0.0000 0.0000 0.0000 0.0000 41.5373 0.0000
# 6 0.0000 0.0000 0.0000 0.0000 0.0000 19.2845
#
#
#
# Elastic Compliance Matrix: (Units=1/GPa)
#
#
# Indices 1 2 3 4 5 6 
#
# 1 0.016912 -0.012238 -0.006739 0.000000 0.000000 0.000000
# 2 -0.012238 0.022758 0.004979 0.000000 0.000000 0.000000
# 3 -0.006739 0.004979 0.015654 0.000000 0.000000 0.000000
# 4 0.000000 0.000000 0.000000 0.039721 0.000000 0.000000
# 5 0.000000 0.000000 0.000000 0.000000 0.024075 0.000000
# 6 0.000000 0.000000 0.000000 0.000000 0.000000 0.051855
#
#
# Mechanical properties :
#
#
# Convention : Reuss Voigt Hill
#
# Bulk Modulus (GPa) = 36.59102 46.76476 41.67789
# Shear Modulus (GPa) = 24.02925 28.94521 26.48723
#
# Velocity S-wave (km/s) = 3.50134 3.84284 3.67606
# Velocity P-wave (km/s) = 5.91726 6.59913 6.26748
#
# Compressibility (1/GPa) = 0.02732911
#
# Stress axis : x y z
#
# Youngs Moduli (GPa) = 59.12837 43.94001 63.88333
#
# Poissons Ratio (x) = 0.53773 0.43050
# Poissons Ratio (y) = 0.72360 -0.31808
# Poissons Ratio (z) = 0.39846 -0.21878
#
# Static dielectric constant tensor:
#      x y z
#    x 1.712310 0.000000 0.000000 
#    y 0.000000 1.739340 0.000000 
#    z 0.000000 0.000000 1.339280 
# 
# From -- ./inp_files/17740.got.cif
#   From: 2010.05.17/outbox.cif.g08.bks.cpg/sg60_9_cif.got.tgz:17740.got - 2010.06.03 14:59:27.
