data_PCOD9455726
_publ_section_title
;
Structure prediction by ZEFSAII (Michael W. Deem and Ramdas Pophale) SiO2 
 PCOD9455726
Probable space group: P B C N
;
_chemical_formula_sum "Si O2"
_cell_formula_units_Z 40
_cell_length_a 9.759470
_cell_length_b 19.655745
_cell_length_c 9.286696
_cell_angle_alpha 90.000000
_cell_angle_beta 90.000000
_cell_angle_gamma 90.000000
_cell_volume 1781.463677
_symmetry_space_group_name_H-M "P B C N"
_symmetry_group_IT_number 60
_symmetry_cell_setting 'orthorhombic'
loop_
_space_group_symop_operation_xyz
x,y,z
1/2-x,1/2-y,1/2+z
1/2+x,1/2-y,-z
-x,y,1/2-z
-x,-y,-z
1/2+x,1/2+y,1/2-z
1/2-x,1/2+y,z
x,-y,1/2+z
loop_
_atom_site_type_symbol
_atom_site_label
_atom_site_fract_x
_atom_site_fract_y
_atom_site_fract_z
Si Si1 0.500000 0.353259 0.750000
Si Si2 0.142281 0.384637 0.005959
Si Si3 0.606608 0.696361 0.953441
Si Si4 0.500000 0.812352 0.750000
Si Si5 0.500000 0.960201 0.250000
Si Si6 0.000000 0.917021 0.250000
Si Si7 0.782787 0.967300 0.702736
O O1 0.552673 0.306887 0.617400
O O2 0.371274 0.405974 0.724557
O O3 0.251539 0.442929 0.960831
O O4 0.090462 0.358624 0.852566
O O5 0.233886 0.323168 0.064883
O O6 0.024944 0.412598 0.110090
O O7 0.577532 0.763704 0.863086
O O8 0.526787 0.634097 0.880057
O O9 0.365848 0.007021 0.247138
O O10 0.124275 0.966192 0.288563
#
# Coordination Sequence:
#
# PCOD9455726 Si02
#       7
#     4   8   8   4   4   4   8
#     4   9  22  40  70 102 128 174 229 272 352 397
#     4  11  25  43  65 102 133 185 227 273 348 399
#     4  10  23  46  70  98 127 185 232 286 326 397
#     4  11  27  47  64  94 139 178 240 280 326 401
#     4  12  23  41  65 103 143 183 210 282 350 408
#     4  10  20  42  73 101 134 177 223 278 340 406
#     4  10  22  38  68 102 145 166 218 278 346 417
#
# _framework density 22.453448000000002
#
# number of rings (size 3 to 8) (size 9 to 14) (size 15 to 20)
#    0.000    1.600    2.000    1.200    2.800    8.000 
#    3.600    0.000    0.000    0.000    0.000    0.000 
#    0.000    0.000    0.000    0.000    0.000    0.000 
#
# Total GULP energy -223203.469005 kJ/mol
# GULP energy per Si atom -5580.086725 kJ/mol
# Density = 2.240234 g / cm^3
# Si number density = 22.453448 Si / 1000 Ang^3
#
#
#
# Elastic Constant Matrix: (Units=GPa)
#
#
# Indices 1 2 3 4 5 6 
#
# 1 125.4840 39.2741 26.7943 0.0000 0.0000 0.0000
# 2 39.2741 90.3131 51.8232 0.0000 0.0000 0.0000
# 3 26.7943 51.8232 104.0987 0.0000 0.0000 0.0000
# 4 0.0000 0.0000 0.0000 28.1493 0.0000 0.0000
# 5 0.0000 0.0000 0.0000 0.0000 39.1426 0.0000
# 6 0.0000 0.0000 0.0000 0.0000 0.0000 53.7691
#
#
#
# Elastic Compliance Matrix: (Units=1/GPa)
#
#
# Indices 1 2 3 4 5 6 
#
# 1 0.009245 -0.003717 -0.000529 0.000000 0.000000 0.000000
# 2 -0.003717 0.016995 -0.007504 0.000000 0.000000 0.000000
# 3 -0.000529 -0.007504 0.013478 0.000000 0.000000 0.000000
# 4 0.000000 0.000000 0.000000 0.035525 0.000000 0.000000
# 5 0.000000 0.000000 0.000000 0.000000 0.025548 0.000000
# 6 0.000000 0.000000 0.000000 0.000000 0.000000 0.018598
#
#
# Mechanical properties :
#
#
# Convention : Reuss Voigt Hill
#
# Bulk Modulus (GPa) = 61.65835 61.74211 61.70023
# Shear Modulus (GPa) = 33.71664 37.67913 35.69789
#
# Velocity S-wave (km/s) = 3.87928 4.10091 3.99163
# Velocity P-wave (km/s) = 6.89821 7.06971 6.98448
#
# Compressibility (1/GPa) = 0.01621840
#
# Stress axis : x y z
#
# Youngs Moduli (GPa) = 108.16116 58.84205 74.19441
#
# Poissons Ratio (x) = 0.21870 0.03928
# Poissons Ratio (y) = 0.40201 0.55674
# Poissons Ratio (z) = 0.05726 0.44154
#
# Static dielectric constant tensor:
#      x y z
#    x 1.898180 0.000000 0.000000 
#    y 0.000000 1.862670 0.000000 
#    z 0.000000 0.000000 1.867490 
# 
# From -- ./inp_files/3933.got.cif
#   From: 2010.05.17/outbox.cif.g08.bks.cpg/sg60_2_cif.got.tgz:3933.got - 2010.06.03 14:59:27.
