data_PCOD9455447
_publ_section_title
;
Structure prediction by ZEFSAII (Michael W. Deem and Ramdas Pophale) SiO2 
 PCOD9455447
Probable space group: P B C N
;
_chemical_formula_sum "Si O2"
_cell_formula_units_Z 40
_cell_length_a 9.264146
_cell_length_b 9.720985
_cell_length_c 17.551673
_cell_angle_alpha 90.000000
_cell_angle_beta 90.000000
_cell_angle_gamma 90.000000
_cell_volume 1580.644421
_symmetry_space_group_name_H-M "P B C N"
_symmetry_group_IT_number 60
_symmetry_cell_setting 'orthorhombic'
loop_
_space_group_symop_operation_xyz
x,y,z
1/2-x,1/2-y,1/2+z
1/2+x,1/2-y,-z
-x,y,1/2-z
-x,-y,-z
1/2+x,1/2+y,1/2-z
1/2-x,1/2+y,z
x,-y,1/2+z
loop_
_atom_site_type_symbol
_atom_site_label
_atom_site_fract_x
_atom_site_fract_y
_atom_site_fract_z
Si Si1 0.577967 0.033723 0.667819
Si Si2 0.389514 0.399768 0.646381
Si Si3 0.906907 0.330418 0.468320
Si Si4 0.394837 0.384949 0.035855
Si Si5 0.711012 0.690012 0.190323
O O1 0.500000 0.051090 0.750000
O O2 0.480612 0.071934 0.594980
O O3 0.704475 0.148831 0.672292
O O4 0.646458 0.884769 0.663456
O O5 0.340146 0.297466 0.579896
O O6 0.371508 0.557145 0.621323
O O7 0.307809 0.352420 0.721521
O O8 0.559823 0.366672 0.655937
O O9 0.762424 0.393457 0.502985
O O10 0.026421 0.259065 0.520893
O O11 0.500000 0.500000 0.000000
#
# Coordination Sequence:
#
# PCOD9455447 Si02
#       5
#     8   8   8   8   8
#     4  11  21  41  64  94 135 172 231 284 346 405
#     4   9  19  39  61  89 131 174 217 275 339 395
#     4  10  21  40  66  93 133 176 219 281 329 406
#     4  10  22  40  65  92 131 170 222 270 337 402
#     4  10  20  38  67  94 131 175 224 286 342 405
#
# _framework density 25.306135000000001
#
# number of rings (size 3 to 8) (size 9 to 14) (size 15 to 20)
#    0.000    2.000    4.000    1.200    2.800    0.000 
#    3.600    8.000    0.000    0.000    0.000    0.000 
#    0.000    0.000    0.000    0.000    0.000    0.000 
#
# Total GULP energy -223763.447437 kJ/mol
# GULP energy per Si atom -5594.086186 kJ/mol
# Density = 2.524854 g / cm^3
# Si number density = 25.306135 Si / 1000 Ang^3
#
#
#
# Elastic Constant Matrix: (Units=GPa)
#
#
# Indices 1 2 3 4 5 6 
#
# 1 101.8396 40.5293 12.0646 0.0000 0.0000 0.0000
# 2 40.5293 66.6523 15.3436 0.0000 0.0000 0.0000
# 3 12.0646 15.3436 71.0545 0.0000 0.0000 0.0000
# 4 0.0000 0.0000 0.0000 30.5045 0.0000 0.0000
# 5 0.0000 0.0000 0.0000 0.0000 20.0794 0.0000
# 6 0.0000 0.0000 0.0000 0.0000 0.0000 46.9371
#
#
#
# Elastic Compliance Matrix: (Units=1/GPa)
#
#
# Indices 1 2 3 4 5 6 
#
# 1 0.012973 -0.007767 -0.000525 0.000000 0.000000 0.000000
# 2 -0.007767 0.020439 -0.003095 0.000000 0.000000 0.000000
# 3 -0.000525 -0.003095 0.014831 0.000000 0.000000 0.000000
# 4 0.000000 0.000000 0.000000 0.032782 0.000000 0.000000
# 5 0.000000 0.000000 0.000000 0.000000 0.049802 0.000000
# 6 0.000000 0.000000 0.000000 0.000000 0.000000 0.021305
#
#
# Mechanical properties :
#
#
# Convention : Reuss Voigt Hill
#
# Bulk Modulus (GPa) = 39.26541 41.71348 40.48945
# Shear Modulus (GPa) = 27.26332 30.94480 29.10406
#
# Velocity S-wave (km/s) = 3.28585 3.50068 3.39496
# Velocity P-wave (km/s) = 5.47225 5.73227 5.60377
#
# Compressibility (1/GPa) = 0.02546771
#
# Stress axis : x y z
#
# Youngs Moduli (GPa) = 77.08420 48.92656 67.42546
#
# Poissons Ratio (x) = 0.38003 0.03542
# Poissons Ratio (y) = 0.59875 0.20866
# Poissons Ratio (z) = 0.04050 0.15141
#
# Static dielectric constant tensor:
#      x y z
#    x 2.042110 0.000000 0.000000 
#    y 0.000000 2.065400 0.000000 
#    z 0.000000 0.000000 2.112290 
# 
# From -- ./inp_files/21997.got.cif
#   From: 2010.05.17/outbox.cif.g08.bks.cpg/sg60_11_cif.got.tgz:21997.got - 2010.06.03 14:59:27.
