data_PCOD9455527
_publ_section_title
;
Structure prediction by ZEFSAII (Michael W. Deem and Ramdas Pophale) SiO2 
 PCOD9455527
Probable space group: P B C N
;
_chemical_formula_sum "Si O2"
_cell_formula_units_Z 56
_cell_length_a 8.472213
_cell_length_b 18.646912
_cell_length_c 16.092979
_cell_angle_alpha 90.000000
_cell_angle_beta 90.000000
_cell_angle_gamma 90.000000
_cell_volume 2542.378643
_symmetry_space_group_name_H-M "P B C N"
_symmetry_group_IT_number 60
_symmetry_cell_setting 'orthorhombic'
loop_
_space_group_symop_operation_xyz
x,y,z
1/2-x,1/2-y,1/2+z
1/2+x,1/2-y,-z
-x,y,1/2-z
-x,-y,-z
1/2+x,1/2+y,1/2-z
1/2-x,1/2+y,z
x,-y,1/2+z
loop_
_atom_site_type_symbol
_atom_site_label
_atom_site_fract_x
_atom_site_fract_y
_atom_site_fract_z
Si Si1 0.527601 0.302348 0.063886
Si Si2 0.194850 0.312733 0.312262
Si Si3 0.829502 0.471142 0.256131
Si Si4 0.467039 0.692745 0.128866
Si Si5 0.634705 0.795763 0.808222
Si Si6 0.864009 0.047409 0.113212
Si Si7 0.334438 0.549454 0.570971
O O1 0.694081 0.317265 0.107234
O O2 0.447611 0.234801 0.109216
O O3 0.415214 0.371823 0.074955
O O4 0.557111 0.290851 0.967498
O O5 0.159159 0.391544 0.281763
O O6 0.044242 0.263698 0.332456
O O7 0.304358 0.272703 0.244737
O O8 0.710924 0.511916 0.194285
O O9 0.781697 0.462405 0.352151
O O10 0.000000 0.506156 0.250000
O O11 0.300742 0.667801 0.168334
O O12 0.594563 0.629404 0.133747
O O13 0.500000 0.830350 0.750000
O O14 0.772677 0.041915 0.024210
O O15 0.027206 0.007742 0.089793
#
# Coordination Sequence:
#
# PCOD9455527 Si02
#       7
#     8   8   8   8   8   8   8
#     4  10  20  39  66  96 129 177 227 278 328 402
#     4  11  22  38  65 101 131 175 228 277 329 408
#     4  12  24  41  71 101 135 184 236 284 335 416
#     4  11  23  41  63  98 141 174 217 283 352 402
#     4  10  21  37  63  97 127 171 219 277 326 406
#     4  10  24  43  70  97 134 185 227 286 350 416
#     4  10  21  43  70  98 130 180 240 275 338 415
#
# _framework density 22.026617000000002
#
# number of rings (size 3 to 8) (size 9 to 14) (size 15 to 20)
#    0.000    1.429    2.857    2.571    0.000    2.857 
#    0.000    5.714    0.000    0.000    0.000    0.000 
#    0.000    0.000    0.000    0.000    0.000    0.000 
#
# Total GULP energy -313021.588817 kJ/mol
# GULP energy per Si atom -5589.671229 kJ/mol
# Density = 2.197648 g / cm^3
# Si number density = 22.026617 Si / 1000 Ang^3
#
#
#
# Elastic Constant Matrix: (Units=GPa)
#
#
# Indices 1 2 3 4 5 6 
#
# 1 73.9670 1.3860 43.6179 0.0000 0.0000 0.0000
# 2 1.3860 72.0022 29.6833 0.0000 0.0000 0.0000
# 3 43.6179 29.6833 155.1907 0.0000 0.0000 0.0000
# 4 0.0000 0.0000 0.0000 112.0277 0.0000 0.0000
# 5 0.0000 0.0000 0.0000 0.0000 10.9167 0.0000
# 6 0.0000 0.0000 0.0000 0.0000 0.0000 -28.6936
#
#
#
# Elastic Compliance Matrix: (Units=1/GPa)
#
#
# Indices 1 2 3 4 5 6 
#
# 1 0.016399 0.001720 -0.004938 0.000000 0.000000 0.000000
# 2 0.001720 0.015258 -0.003402 0.000000 0.000000 0.000000
# 3 -0.004938 -0.003402 0.008482 0.000000 0.000000 0.000000
# 4 0.000000 0.000000 0.000000 0.008926 0.000000 0.000000
# 5 0.000000 0.000000 0.000000 0.000000 0.091603 0.000000
# 6 0.000000 0.000000 0.000000 0.000000 0.000000 -0.034851
#
#
# Mechanical properties :
#
#
# Convention : Reuss Voigt Hill
#
# Bulk Modulus (GPa) = 37.17526 50.05936 43.61731
# Shear Modulus (GPa) = 39.05514 33.94835 36.50174
#
# Velocity S-wave (km/s) = 4.21537 3.93012 4.07525
# Velocity P-wave (km/s) = 6.37233 6.58564 6.47986
#
# Compressibility (1/GPa) = 0.02689961
#
# Stress axis : x y z
#
# Youngs Moduli (GPa) = 60.97803 65.54039 117.89286
#
# Poissons Ratio (x) = -0.11274 0.58218
# Poissons Ratio (y) = -0.10489 0.40105
# Poissons Ratio (z) = 0.30112 0.22296
#
# Static dielectric constant tensor:
#      x y z
#    x 1.852850 0.000000 0.000000 
#    y 0.000000 1.787290 0.000000 
#    z 0.000000 0.000000 1.833600 
# 
# From -- ./inp_files/15254.got.cif
#   From: 2010.05.17/outbox.cif.g08.bks.cpg/sg60_8_cif.got.tgz:15254.got - 2010.06.03 14:59:27.
