data_PCOD9455128
_publ_section_title
;
Structure prediction by ZEFSAII (Michael W. Deem and Ramdas Pophale) SiO2 
 PCOD9455128
Probable space group: P B C N
;
_chemical_formula_sum "Si O2"
_cell_formula_units_Z 64
_cell_length_a 19.079190
_cell_length_b 12.817205
_cell_length_c 12.428439
_cell_angle_alpha 90.000000
_cell_angle_beta 90.000000
_cell_angle_gamma 90.000000
_cell_volume 3039.273956
_symmetry_space_group_name_H-M "P B C N"
_symmetry_group_IT_number 60
_symmetry_cell_setting 'orthorhombic'
loop_
_space_group_symop_operation_xyz
x,y,z
1/2-x,1/2-y,1/2+z
1/2+x,1/2-y,-z
-x,y,1/2-z
-x,-y,-z
1/2+x,1/2+y,1/2-z
1/2-x,1/2+y,z
x,-y,1/2+z
loop_
_atom_site_type_symbol
_atom_site_label
_atom_site_fract_x
_atom_site_fract_y
_atom_site_fract_z
Si Si1 0.332565 0.515202 0.935952
Si Si2 0.832433 0.548205 0.373827
Si Si3 0.801593 0.366502 0.105025
Si Si4 0.881784 0.854246 0.863028
Si Si5 0.573604 0.452283 0.258085
Si Si6 0.420683 0.128202 0.709471
Si Si7 0.793470 0.880395 0.387877
Si Si8 0.748433 0.804952 0.746681
O O1 0.258519 0.545027 0.881659
O O2 0.397855 0.519128 0.858312
O O3 0.347866 0.603974 0.026784
O O4 0.323653 0.404420 0.994576
O O5 0.830045 0.615309 0.484185
O O6 0.898591 0.473164 0.359343
O O7 0.765871 0.469633 0.378388
O O8 0.817421 0.621463 0.270479
O O9 0.865122 0.371302 0.190467
O O10 0.758129 0.262612 0.139618
O O11 0.936980 0.942679 0.828414
O O12 0.909423 0.736808 0.855404
O O13 0.820620 0.863466 0.772686
O O14 0.500000 0.394436 0.250000
O O15 0.638291 0.392925 0.313076
O O16 0.500000 0.123201 0.750000
O O17 0.756306 0.777397 0.346342
#
# Coordination Sequence:
#
# PCOD9455128 Si02
#       8
#     8   8   8   8   8   8   8   8
#     4  10  20  39  62  92 121 165 212 264 332 370
#     4  11  21  41  62  93 128 164 222 274 320 387
#     4  10  21  38  65  93 120 165 217 266 329 367
#     4  10  21  38  63  92 125 160 217 271 311 383
#     4  11  21  37  58  90 132 166 203 256 326 393
#     4  11  24  44  65  93 138 176 215 264 324 407
#     4  10  20  36  57  90 120 155 209 271 308 371
#     4  11  19  38  61  94 123 153 215 282 313 376
#
# _framework density 21.057659000000001
#
# number of rings (size 3 to 8) (size 9 to 14) (size 15 to 20)
#    0.000    1.500    7.500    0.375    0.000    4.500 
#    4.500    1.875    0.000    0.000    0.000    0.000 
#    0.000    0.000    0.000    0.000    0.000    0.000 
#
# Total GULP energy -356826.148179 kJ/mol
# GULP energy per Si atom -5575.408565 kJ/mol
# Density = 2.100973 g / cm^3
# Si number density = 21.057659 Si / 1000 Ang^3
#
#
#
# Elastic Constant Matrix: (Units=GPa)
#
#
# Indices 1 2 3 4 5 6 
#
# 1 97.0190 0.6608 26.3022 0.0000 0.0000 0.0000
# 2 0.6608 58.7241 26.9473 0.0000 0.0000 0.0000
# 3 26.3022 26.9473 84.3795 0.0000 0.0000 0.0000
# 4 0.0000 0.0000 0.0000 41.6388 0.0000 0.0000
# 5 0.0000 0.0000 0.0000 0.0000 24.7071 0.0000
# 6 0.0000 0.0000 0.0000 0.0000 0.0000 20.6778
#
#
#
# Elastic Compliance Matrix: (Units=1/GPa)
#
#
# Indices 1 2 3 4 5 6 
#
# 1 0.011412 0.001762 -0.004120 0.000000 0.000000 0.000000
# 2 0.001762 0.020225 -0.007008 0.000000 0.000000 0.000000
# 3 -0.004120 -0.007008 0.015374 0.000000 0.000000 0.000000
# 4 0.000000 0.000000 0.000000 0.024016 0.000000 0.000000
# 5 0.000000 0.000000 0.000000 0.000000 0.040474 0.000000
# 6 0.000000 0.000000 0.000000 0.000000 0.000000 0.048361
#
#
# Mechanical properties :
#
#
# Convention : Reuss Voigt Hill
#
# Bulk Modulus (GPa) = 35.36264 38.66035 37.01150
# Shear Modulus (GPa) = 26.59280 29.81888 28.20584
#
# Velocity S-wave (km/s) = 3.55752 3.76714 3.66383
# Velocity P-wave (km/s) = 5.80554 6.10908 5.95925
#
# Compressibility (1/GPa) = 0.02827843
#
# Stress axis : x y z
#
# Youngs Moduli (GPa) = 87.62521 49.44390 65.04619
#
# Poissons Ratio (x) = -0.08713 0.26800
# Poissons Ratio (y) = -0.15442 0.45586
# Poissons Ratio (z) = 0.36103 0.34652
#
# Static dielectric constant tensor:
#      x y z
#    x 1.733050 0.000000 0.000000 
#    y 0.000000 1.810660 0.000000 
#    z 0.000000 0.000000 1.822180 
# 
# From -- ./inp_files/12557.got.cif
#   From: 2010.05.17/outbox.cif.g08.bks.cpg/sg60_7_cif.got.tgz:12557.got - 2010.06.03 14:59:27.
