data_PCOD9455997
_publ_section_title
;
Structure prediction by ZEFSAII (Michael W. Deem and Ramdas Pophale) SiO2 
 PCOD9455997
Probable space group: P B C N
;
_chemical_formula_sum "Si O2"
_cell_formula_units_Z 56
_cell_length_a 20.636520
_cell_length_b 15.086940
_cell_length_c 7.780297
_cell_angle_alpha 90.000000
_cell_angle_beta 90.000000
_cell_angle_gamma 90.000000
_cell_volume 2422.332754
_symmetry_space_group_name_H-M "P B C N"
_symmetry_group_IT_number 60
_symmetry_cell_setting 'orthorhombic'
loop_
_space_group_symop_operation_xyz
x,y,z
1/2-x,1/2-y,1/2+z
1/2+x,1/2-y,-z
-x,y,1/2-z
-x,-y,-z
1/2+x,1/2+y,1/2-z
1/2-x,1/2+y,z
x,-y,1/2+z
loop_
_atom_site_type_symbol
_atom_site_label
_atom_site_fract_x
_atom_site_fract_y
_atom_site_fract_z
Si Si1 0.173780 0.638648 0.931347
Si Si2 0.817227 0.549768 0.191328
Si Si3 0.036756 0.915334 0.924103
Si Si4 0.672719 0.469133 0.726381
Si Si5 0.048408 0.274323 0.533705
Si Si6 0.088112 0.312910 0.922147
Si Si7 0.819047 0.145580 0.573678
O O1 0.166262 0.553819 0.809362
O O2 0.245138 0.680316 0.905957
O O3 0.177379 0.594401 0.121548
O O4 0.111840 0.702278 0.921700
O O5 0.741681 0.553702 0.139374
O O6 0.864925 0.603334 0.067714
O O7 0.109602 0.938693 0.873980
O O8 0.000000 0.888942 0.750000
O O9 0.036585 0.830375 0.044413
O O10 0.000000 0.000000 0.000000
O O11 0.668834 0.576573 0.729593
O O12 0.674583 0.418036 0.907272
O O13 0.066097 0.308029 0.722921
O O14 0.979538 0.315094 0.476164
O O15 0.130765 0.224788 0.948402
#
# Coordination Sequence:
#
# PCOD9455997 Si02
#       7
#     8   8   8   8   8   8   8
#     4   9  20  42  62  92 121 161 204 258 311 366
#     4   9  20  40  63  88 117 158 206 252 312 363
#     4  12  26  40  62  89 126 166 203 250 306 365
#     4  10  21  38  58  86 120 155 205 247 299 370
#     4  10  23  40  61  89 126 159 208 253 307 375
#     4  10  21  39  63  88 121 164 204 251 314 369
#     4  10  21  38  63  89 123 160 204 251 306 368
#
# _framework density 23.118210999999999
#
# number of rings (size 3 to 8) (size 9 to 14) (size 15 to 20)
#    0.000    2.000    0.000    2.571    8.000    0.571 
#    5.143    0.000    0.000    0.000    0.000    0.000 
#    0.000    0.000    0.000    0.000    0.000    0.000 
#
# Total GULP energy -313006.236964 kJ/mol
# GULP energy per Si atom -5589.397089 kJ/mol
# Density = 2.306559 g / cm^3
# Si number density = 23.118211 Si / 1000 Ang^3
#
#
#
# Elastic Constant Matrix: (Units=GPa)
#
#
# Indices 1 2 3 4 5 6 
#
# 1 168.2838 52.1538 39.7237 0.0000 0.0000 0.0000
# 2 52.1538 45.0820 8.6733 0.0000 0.0000 0.0000
# 3 39.7237 8.6733 35.9821 0.0000 0.0000 0.0000
# 4 0.0000 0.0000 0.0000 17.7910 0.0000 0.0000
# 5 0.0000 0.0000 0.0000 0.0000 24.7626 0.0000
# 6 0.0000 0.0000 0.0000 0.0000 0.0000 40.9531
#
#
#
# Elastic Compliance Matrix: (Units=1/GPa)
#
#
# Indices 1 2 3 4 5 6 
#
# 1 0.012157 -0.012040 -0.010519 0.000000 0.000000 0.000000
# 2 -0.012040 0.035185 0.004811 0.000000 0.000000 0.000000
# 3 -0.010519 0.004811 0.038244 0.000000 0.000000 0.000000
# 4 0.000000 0.000000 0.000000 0.056208 0.000000 0.000000
# 5 0.000000 0.000000 0.000000 0.000000 0.040383 0.000000
# 6 0.000000 0.000000 0.000000 0.000000 0.000000 0.024418
#
#
# Mechanical properties :
#
#
# Convention : Reuss Voigt Hill
#
# Bulk Modulus (GPa) = 19.96389 50.04994 35.00691
# Shear Modulus (GPa) = 19.32083 26.62114 22.97099
#
# Velocity S-wave (km/s) = 2.89405 3.39709 3.15561
# Velocity P-wave (km/s) = 4.45216 6.08963 5.33410
#
# Compressibility (1/GPa) = 0.05009045
#
# Stress axis : x y z
#
# Youngs Moduli (GPa) = 82.25952 28.42133 26.14762
#
# Poissons Ratio (x) = 0.34219 0.27504
# Poissons Ratio (y) = 0.99040 -0.12579
# Poissons Ratio (z) = 0.86526 -0.13673
#
# Static dielectric constant tensor:
#      x y z
#    x 1.864650 0.000000 0.000000 
#    y 0.000000 1.849280 0.000000 
#    z 0.000000 0.000000 1.924350 
# 
# From -- ./inp_files/7403.got.cif
#   From: 2010.05.17/outbox.cif.g08.bks.cpg/sg60_4_cif.got.tgz:7403.got - 2010.06.03 14:59:27.
