data_PCOD9455568
_publ_section_title
;
Structure prediction by ZEFSAII (Michael W. Deem and Ramdas Pophale) SiO2 
 PCOD9455568
Probable space group: P B C N
;
_chemical_formula_sum "Si O2"
_cell_formula_units_Z 60
_cell_length_a 17.333678
_cell_length_b 13.373953
_cell_length_c 12.702738
_cell_angle_alpha 90.000000
_cell_angle_beta 90.000000
_cell_angle_gamma 90.000000
_cell_volume 2944.746118
_symmetry_space_group_name_H-M "P B C N"
_symmetry_group_IT_number 60
_symmetry_cell_setting 'orthorhombic'
loop_
_space_group_symop_operation_xyz
x,y,z
1/2-x,1/2-y,1/2+z
1/2+x,1/2-y,-z
-x,y,1/2-z
-x,-y,-z
1/2+x,1/2+y,1/2-z
1/2-x,1/2+y,z
x,-y,1/2+z
loop_
_atom_site_type_symbol
_atom_site_label
_atom_site_fract_x
_atom_site_fract_y
_atom_site_fract_z
Si Si1 0.790607 0.488723 0.429649
Si Si2 0.731199 0.378722 0.615933
Si Si3 0.874695 0.418907 0.752446
Si Si4 0.000000 0.910272 0.750000
Si Si5 0.431328 0.952681 0.432764
Si Si6 0.427483 0.289690 0.173354
Si Si7 0.657970 0.521280 0.776644
Si Si8 0.573150 0.722613 0.073565
O O1 0.765974 0.395057 0.499951
O O2 0.844676 0.491740 0.327239
O O3 0.846370 0.547252 0.510999
O O4 0.710385 0.520054 0.373250
O O5 0.802931 0.364254 0.693559
O O6 0.694191 0.480788 0.666870
O O7 0.662000 0.300387 0.606998
O O8 0.924623 0.473345 0.665537
O O9 0.912519 0.328821 0.815763
O O10 0.022379 0.843881 0.849581
O O11 0.073366 0.975420 0.718881
O O12 0.447517 0.837841 0.409594
O O13 0.500000 0.000000 0.500000
O O14 0.500000 0.311161 0.250000
O O15 0.356537 0.360414 0.210674
O O16 0.438870 0.307441 0.048731
#
# Coordination Sequence:
#
# PCOD9455568 Si02
#       8
#     8   8   8   4   8   8   8   8
#     4  10  20  40  63  91 128 176 214 278 339 400
#     4   9  21  40  64  95 131 170 218 278 339 401
#     4  10  23  39  63  95 131 171 227 270 343 407
#     4  10  24  44  66 102 136 180 220 278 352 410
#     4  11  24  43  64  91 130 179 224 283 341 400
#     4  12  23  40  66 100 132 176 226 283 333 413
#     4  10  21  40  66  97 133 173 220 277 345 401
#     4  11  23  44  68  97 137 173 231 277 334 419
#
# _framework density 20.375271000000001
#
# number of rings (size 3 to 8) (size 9 to 14) (size 15 to 20)
#    0.000    1.600    3.333    0.800    0.000    5.867 
#    0.000    5.333    0.000    0.000    0.000    0.000 
#    0.000    0.000    0.000    0.000    0.000    0.000 
#
# Total GULP energy -334150.694286 kJ/mol
# GULP energy per Si atom -5569.178238 kJ/mol
# Density = 2.032890 g / cm^3
# Si number density = 20.375271 Si / 1000 Ang^3
#
#
#
# Elastic Constant Matrix: (Units=GPa)
#
#
# Indices 1 2 3 4 5 6 
#
# 1 59.7075 13.7177 23.8332 0.0000 0.0000 0.0000
# 2 13.7177 85.1558 23.8096 0.0000 0.0000 0.0000
# 3 23.8332 23.8096 104.1132 0.0000 0.0000 0.0000
# 4 0.0000 0.0000 0.0000 17.9709 0.0000 0.0000
# 5 0.0000 0.0000 0.0000 0.0000 28.2115 0.0000
# 6 0.0000 0.0000 0.0000 0.0000 0.0000 14.2506
#
#
#
# Elastic Compliance Matrix: (Units=1/GPa)
#
#
# Indices 1 2 3 4 5 6 
#
# 1 0.018729 -0.001942 -0.003843 0.000000 0.000000 0.000000
# 2 -0.001942 0.012747 -0.002470 0.000000 0.000000 0.000000
# 3 -0.003843 -0.002470 0.011050 0.000000 0.000000 0.000000
# 4 0.000000 0.000000 0.000000 0.055645 0.000000 0.000000
# 5 0.000000 0.000000 0.000000 0.000000 0.035446 0.000000
# 6 0.000000 0.000000 0.000000 0.000000 0.000000 0.070172
#
#
# Mechanical properties :
#
#
# Convention : Reuss Voigt Hill
#
# Bulk Modulus (GPa) = 38.44201 41.29972 39.87086
# Shear Modulus (GPa) = 21.83670 24.59434 23.21552
#
# Velocity S-wave (km/s) = 3.27727 3.47806 3.37916
# Velocity P-wave (km/s) = 5.76443 6.03678 5.90218
#
# Compressibility (1/GPa) = 0.02601321
#
# Stress axis : x y z
#
# Youngs Moduli (GPa) = 53.39422 78.45094 90.50072
#
# Poissons Ratio (x) = 0.15239 0.34780
# Poissons Ratio (y) = 0.10372 0.22357
# Poissons Ratio (z) = 0.20520 0.19381
#
# Static dielectric constant tensor:
#      x y z
#    x 1.758870 0.000000 0.000000 
#    y 0.000000 1.697580 0.000000 
#    z 0.000000 0.000000 1.734320 
# 
# From -- ./inp_files/12508.got.cif
#   From: 2010.05.17/outbox.cif.g08.bks.cpg/sg60_7_cif.got.tgz:12508.got - 2010.06.03 14:59:27.
