data_PCOD9455465
_publ_section_title
;
Structure prediction by ZEFSAII (Michael W. Deem and Ramdas Pophale) SiO2 
 PCOD9455465
Probable space group: P B C N
;
_chemical_formula_sum "Si O2"
_cell_formula_units_Z 48
_cell_length_a 25.133766
_cell_length_b 9.381862
_cell_length_c 9.002707
_cell_angle_alpha 90.000000
_cell_angle_beta 90.000000
_cell_angle_gamma 90.000000
_cell_volume 2122.852032
_symmetry_space_group_name_H-M "P B C N"
_symmetry_group_IT_number 60
_symmetry_cell_setting 'orthorhombic'
loop_
_space_group_symop_operation_xyz
x,y,z
1/2-x,1/2-y,1/2+z
1/2+x,1/2-y,-z
-x,y,1/2-z
-x,-y,-z
1/2+x,1/2+y,1/2-z
1/2-x,1/2+y,z
x,-y,1/2+z
loop_
_atom_site_type_symbol
_atom_site_label
_atom_site_fract_x
_atom_site_fract_y
_atom_site_fract_z
Si Si1 0.979910 0.766342 0.408583
Si Si2 0.208274 0.662861 0.044327
Si Si3 0.738446 0.889325 0.288942
Si Si4 0.549183 0.563207 0.365000
Si Si5 0.120738 0.683876 0.637610
Si Si6 0.405581 0.050815 0.937181
O O1 0.955833 0.638566 0.503150
O O2 0.000000 0.714460 0.250000
O O3 0.025972 0.856632 0.490545
O O4 0.938156 0.897306 0.386284
O O5 0.215141 0.816959 0.116628
O O6 0.231123 0.553684 0.167464
O O7 0.147617 0.622279 0.007065
O O8 0.238593 0.639657 0.887052
O O9 0.684029 0.818451 0.352878
O O10 0.500000 0.572859 0.250000
O O11 0.597982 0.662425 0.320866
O O12 0.099269 0.612807 0.486555
O O13 0.099155 0.574801 0.762568
#
# Coordination Sequence:
#
# PCOD9455465 Si02
#       6
#     8   8   8   8   8   8
#     4  10  22  37  56  83 113 151 192 232 282 332
#     4  10  21  39  61  85 117 151 190 239 286 345
#     4  10  21  39  60  87 116 150 191 236 290 343
#     4  10  20  39  58  78 114 150 188 236 278 328
#     4  10  22  38  59  84 114 148 187 234 281 335
#     4  10  22  39  57  84 116 148 188 232 280 336
#
# _framework density 22.611090999999998
#
# number of rings (size 3 to 8) (size 9 to 14) (size 15 to 20)
#    0.000    2.000    1.667    1.000    2.333    4.000 
#    0.000    0.000    0.000    0.000    0.000    0.000 
#    0.000    0.000    0.000    0.000    0.000    0.000 
#
# Total GULP energy -268120.172000 kJ/mol
# GULP energy per Si atom -5585.836917 kJ/mol
# Density = 2.255963 g / cm^3
# Si number density = 22.611091 Si / 1000 Ang^3
#
#
#
# Elastic Constant Matrix: (Units=GPa)
#
#
# Indices 1 2 3 4 5 6 
#
# 1 18.9149 14.4215 -5.2604 0.0000 0.0000 0.0000
# 2 14.4215 47.1628 -26.5628 0.0000 0.0000 0.0000
# 3 -5.2604 -26.5628 72.0862 0.0000 0.0000 0.0000
# 4 0.0000 0.0000 0.0000 20.2948 0.0000 0.0000
# 5 0.0000 0.0000 0.0000 0.0000 17.8773 0.0000
# 6 0.0000 0.0000 0.0000 0.0000 0.0000 29.2024
#
#
#
# Elastic Compliance Matrix: (Units=1/GPa)
#
#
# Indices 1 2 3 4 5 6 
#
# 1 0.069630 -0.023256 -0.003489 0.000000 0.000000 0.000000
# 2 -0.023256 0.034524 0.011024 0.000000 0.000000 0.000000
# 3 -0.003489 0.011024 0.017680 0.000000 0.000000 0.000000
# 4 0.000000 0.000000 0.000000 0.049274 0.000000 0.000000
# 5 0.000000 0.000000 0.000000 0.000000 0.055937 0.000000
# 6 0.000000 0.000000 0.000000 0.000000 0.000000 0.034244
#
#
# Mechanical properties :
#
#
# Convention : Reuss Voigt Hill
#
# Bulk Modulus (GPa) = 11.06283 11.48449 11.27366
# Shear Modulus (GPa) = 15.48661 23.84595 19.66628
#
# Velocity S-wave (km/s) = 2.61992 3.25100 2.95237
# Velocity P-wave (km/s) = 3.74904 4.37975 4.07661
#
# Compressibility (1/GPa) = 0.09039278
#
# Stress axis : x y z
#
# Youngs Moduli (GPa) = 14.36165 28.96566 56.56081
#
# Poissons Ratio (x) = 0.67363 0.19732
# Poissons Ratio (y) = 0.33400 -0.62355
# Poissons Ratio (z) = 0.05010 -0.31933
#
# Static dielectric constant tensor:
#      x y z
#    x 1.873500 0.000000 0.000000 
#    y 0.000000 1.853740 0.000000 
#    z 0.000000 0.000000 1.871060 
# 
# From -- ./inp_files/8379.got.cif
#   From: 2010.05.17/outbox.cif.g08.bks.cpg/sg60_5_cif.got.tgz:8379.got - 2010.06.03 14:59:27.
