data_PCOD9455786
_publ_section_title
;
Structure prediction by ZEFSAII (Michael W. Deem and Ramdas Pophale) SiO2 
 PCOD9455786
Probable space group: P B C N
;
_chemical_formula_sum "Si O2"
_cell_formula_units_Z 64
_cell_length_a 10.037189
_cell_length_b 16.295517
_cell_length_c 19.743912
_cell_angle_alpha 90.000000
_cell_angle_beta 90.000000
_cell_angle_gamma 90.000000
_cell_volume 3229.337623
_symmetry_space_group_name_H-M "P B C N"
_symmetry_group_IT_number 60
_symmetry_cell_setting 'orthorhombic'
loop_
_space_group_symop_operation_xyz
x,y,z
1/2-x,1/2-y,1/2+z
1/2+x,1/2-y,-z
-x,y,1/2-z
-x,-y,-z
1/2+x,1/2+y,1/2-z
1/2-x,1/2+y,z
x,-y,1/2+z
loop_
_atom_site_type_symbol
_atom_site_label
_atom_site_fract_x
_atom_site_fract_y
_atom_site_fract_z
Si Si1 0.428741 0.599421 0.044600
Si Si2 0.711254 0.216982 0.494904
Si Si3 0.719418 0.784190 0.641422
Si Si4 0.815258 0.481571 0.443889
Si Si5 0.477261 0.108936 0.441888
Si Si6 0.391091 0.628606 0.576958
Si Si7 0.588513 0.568707 0.182529
Si Si8 0.393427 0.620099 0.810335
O O1 0.298572 0.544304 0.032311
O O2 0.489708 0.579125 0.117783
O O3 0.357744 0.686365 0.028448
O O4 0.548665 0.591409 0.992229
O O5 0.717315 0.251500 0.570870
O O6 0.588475 0.154185 0.487309
O O7 0.670702 0.285919 0.442044
O O8 0.586663 0.831627 0.613958
O O9 0.807640 0.856234 0.674999
O O10 0.697907 0.702216 0.687163
O O11 0.866814 0.427404 0.506969
O O12 0.729683 0.425061 0.393837
O O13 0.939277 0.531199 0.413773
O O14 0.517671 0.632836 0.623385
O O15 0.500000 0.576168 0.250000
O O16 0.652488 0.475961 0.184239
O O17 0.500000 0.624266 0.750000
#
# Coordination Sequence:
#
# PCOD9455786 Si02
#       8
#     8   8   8   8   8   8   8   8
#     4  11  21  36  64  94 124 170 220 272 340 387
#     4  11  21  34  61  99 133 157 221 281 331 400
#     4  12  23  42  69  95 136 176 218 283 338 401
#     4  10  21  32  56  88 134 158 209 277 333 392
#     4  10  21  35  54 100 128 163 210 275 346 389
#     4  12  20  35  62  92 125 168 215 279 334 390
#     4  11  26  45  68  97 134 179 230 268 328 407
#     4  11  26  45  64  96 134 180 228 270 332 403
#
# _framework density 19.818306
#
# number of rings (size 3 to 8) (size 9 to 14) (size 15 to 20)
#    0.000    1.000    6.250    0.375    1.750    2.000 
#    0.000    0.000    0.000    0.750    0.000    0.000 
#    0.000    0.000    0.000    0.000    0.000    0.000 
#
# Total GULP energy -356406.531355 kJ/mol
# GULP energy per Si atom -5568.852052 kJ/mol
# Density = 1.977320 g / cm^3
# Si number density = 19.818306 Si / 1000 Ang^3
#
#
#
# Elastic Constant Matrix: (Units=GPa)
#
#
# Indices 1 2 3 4 5 6 
#
# 1 84.7801 48.2997 10.7767 0.0000 0.0000 0.0000
# 2 48.2997 133.8577 28.7549 0.0000 0.0000 0.0000
# 3 10.7767 28.7549 59.9569 0.0000 0.0000 0.0000
# 4 0.0000 0.0000 0.0000 24.3280 0.0000 0.0000
# 5 0.0000 0.0000 0.0000 0.0000 11.7226 0.0000
# 6 0.0000 0.0000 0.0000 0.0000 0.0000 62.9771
#
#
#
# Elastic Compliance Matrix: (Units=1/GPa)
#
#
# Indices 1 2 3 4 5 6 
#
# 1 0.014848 -0.005334 -0.000111 0.000000 0.000000 0.000000
# 2 -0.005334 0.010245 -0.003955 0.000000 0.000000 0.000000
# 3 -0.000111 -0.003955 0.018595 0.000000 0.000000 0.000000
# 4 0.000000 0.000000 0.000000 0.041105 0.000000 0.000000
# 5 0.000000 0.000000 0.000000 0.000000 0.085305 0.000000
# 6 0.000000 0.000000 0.000000 0.000000 0.000000 0.015879
#
#
# Mechanical properties :
#
#
# Convention : Reuss Voigt Hill
#
# Bulk Modulus (GPa) = 40.17743 50.47304 45.32523
# Shear Modulus (GPa) = 23.46631 32.52312 27.99471
#
# Velocity S-wave (km/s) = 3.44477 4.05540 3.76249
# Velocity P-wave (km/s) = 6.01156 6.88851 6.46492
#
# Compressibility (1/GPa) = 0.02488960
#
# Stress axis : x y z
#
# Youngs Moduli (GPa) = 67.34922 97.61133 53.77749
#
# Poissons Ratio (x) = 0.52064 0.00596
# Poissons Ratio (y) = 0.35923 0.21267
# Poissons Ratio (z) = 0.00746 0.38601
#
# Static dielectric constant tensor:
#      x y z
#    x 1.680890 0.000000 0.000000 
#    y 0.000000 1.935950 0.000000 
#    z 0.000000 0.000000 1.604960 
# 
# From -- ./inp_files/20188.got.cif
#   From: 2010.05.17/outbox.cif.g08.bks.cpg/sg60_11_cif.got.tgz:20188.got - 2010.06.03 14:59:27.
