data_PCOD9455819
_publ_section_title
;
Structure prediction by ZEFSAII (Michael W. Deem and Ramdas Pophale) SiO2 
 PCOD9455819
Probable space group: P B C N
;
_chemical_formula_sum "Si O2"
_cell_formula_units_Z 40
_cell_length_a 13.362232
_cell_length_b 8.588674
_cell_length_c 17.907867
_cell_angle_alpha 90.000000
_cell_angle_beta 90.000000
_cell_angle_gamma 90.000000
_cell_volume 2055.175844
_symmetry_space_group_name_H-M "P B C N"
_symmetry_group_IT_number 60
_symmetry_cell_setting 'orthorhombic'
loop_
_space_group_symop_operation_xyz
x,y,z
1/2-x,1/2-y,1/2+z
1/2+x,1/2-y,-z
-x,y,1/2-z
-x,-y,-z
1/2+x,1/2+y,1/2-z
1/2-x,1/2+y,z
x,-y,1/2+z
loop_
_atom_site_type_symbol
_atom_site_label
_atom_site_fract_x
_atom_site_fract_y
_atom_site_fract_z
Si Si1 0.559722 0.548143 0.677910
Si Si2 0.868095 0.390747 0.098713
Si Si3 0.120753 0.741007 0.751570
Si Si4 0.427739 0.704842 0.096805
Si Si5 0.829515 0.257622 0.558352
O O1 0.500000 0.613156 0.750000
O O2 0.631641 0.411981 0.711351
O O3 0.480008 0.453655 0.626446
O O4 0.618209 0.669142 0.627542
O O5 0.843412 0.381964 0.187744
O O6 0.788431 0.275187 0.061459
O O7 0.852947 0.560918 0.066466
O O8 0.980138 0.326332 0.088416
O O9 0.145891 0.740445 0.664407
O O10 0.000000 0.721419 0.750000
O O11 0.373168 0.691999 0.018693
#
# Coordination Sequence:
#
# PCOD9455819 Si02
#       5
#     8   8   8   8   8
#     4   8  17  33  55  78 104 140 174 211 268 321
#     4  10  21  35  53  79 108 143 181 220 270 322
#     4   7  15  36  56  71 100 136 171 212 263 316
#     4   9  19  38  59  78 106 142 180 226 269 312
#     4  12  21  34  56  82 111 141 180 227 268 315
#
# _framework density 19.463054
#
# number of rings (size 3 to 8) (size 9 to 14) (size 15 to 20)
#    0.000    3.600    0.000    3.600    0.000    2.400 
#    0.000    8.000    0.000    0.000    0.000    0.000 
#    0.000    0.000    0.000    0.000    0.000    0.000 
#
# Total GULP energy -222777.213251 kJ/mol
# GULP energy per Si atom -5569.430331 kJ/mol
# Density = 1.941875 g / cm^3
# Si number density = 19.463054 Si / 1000 Ang^3
#
#
#
# Elastic Constant Matrix: (Units=GPa)
#
#
# Indices 1 2 3 4 5 6 
#
# 1 34.6174 4.4808 28.6304 0.0000 0.0000 0.0000
# 2 4.4808 9.1401 3.2810 0.0000 0.0000 0.0000
# 3 28.6304 3.2810 105.9045 0.0000 0.0000 0.0000
# 4 0.0000 0.0000 0.0000 21.7056 0.0000 0.0000
# 5 0.0000 0.0000 0.0000 0.0000 15.5268 0.0000
# 6 0.0000 0.0000 0.0000 0.0000 0.0000 -4.8944
#
#
#
# Elastic Compliance Matrix: (Units=1/GPa)
#
#
# Indices 1 2 3 4 5 6 
#
# 1 0.039295 -0.015624 -0.010139 0.000000 0.000000 0.000000
# 2 -0.015624 0.116850 0.000604 0.000000 0.000000 0.000000
# 3 -0.010139 0.000604 0.012165 0.000000 0.000000 0.000000
# 4 0.000000 0.000000 0.000000 0.046071 0.000000 0.000000
# 5 0.000000 0.000000 0.000000 0.000000 0.064405 0.000000
# 6 0.000000 0.000000 0.000000 0.000000 0.000000 -0.204316
#
#
# Mechanical properties :
#
#
# Convention : Reuss Voigt Hill
#
# Bulk Modulus (GPa) = 8.47522 24.71629 16.59576
# Shear Modulus (GPa) = 30.46571 14.01894 22.24232
#
# Velocity S-wave (km/s) = 3.96069 2.68672 3.38420
# Velocity P-wave (km/s) = 5.02793 4.72772 4.88013
#
# Compressibility (1/GPa) = 0.11799100
#
# Stress axis : x y z
#
# Youngs Moduli (GPa) = 25.44845 8.55796 82.20447
#
# Poissons Ratio (x) = 0.13371 0.83348
# Poissons Ratio (y) = 0.39761 -0.04963
# Poissons Ratio (z) = 0.25802 -0.00517
#
# Static dielectric constant tensor:
#      x y z
#    x 1.692990 0.000000 0.000000 
#    y 0.000000 1.677890 0.000000 
#    z 0.000000 0.000000 1.743120 
# 
# From -- ./inp_files/20402.got.cif
#   From: 2010.05.17/outbox.cif.g08.bks.cpg/sg60_11_cif.got.tgz:20402.got - 2010.06.03 14:59:27.
