data_PCOD9455677
_publ_section_title
;
Structure prediction by ZEFSAII (Michael W. Deem and Ramdas Pophale) SiO2 
 PCOD9455677
Probable space group: P B C N
;
_chemical_formula_sum "Si O2"
_cell_formula_units_Z 60
_cell_length_a 27.734767
_cell_length_b 4.904584
_cell_length_c 20.378396
_cell_angle_alpha 90.000000
_cell_angle_beta 90.000000
_cell_angle_gamma 90.000000
_cell_volume 2772.022149
_symmetry_space_group_name_H-M "P B C N"
_symmetry_group_IT_number 60
_symmetry_cell_setting 'orthorhombic'
loop_
_space_group_symop_operation_xyz
x,y,z
1/2-x,1/2-y,1/2+z
1/2+x,1/2-y,-z
-x,y,1/2-z
-x,-y,-z
1/2+x,1/2+y,1/2-z
1/2-x,1/2+y,z
x,-y,1/2+z
loop_
_atom_site_type_symbol
_atom_site_label
_atom_site_fract_x
_atom_site_fract_y
_atom_site_fract_z
Si Si1 0.921852 0.195407 0.342894
Si Si2 0.003713 0.251791 0.047751
Si Si3 0.717432 0.407997 0.421313
Si Si4 0.782583 0.154502 0.071521
Si Si5 0.500000 0.054201 0.750000
Si Si6 0.359764 0.794883 0.684318
Si Si7 0.361895 0.424564 0.329791
Si Si8 0.925579 0.560764 0.650708
O O1 0.876815 0.395069 0.327288
O O2 0.945971 0.244849 0.413181
O O3 0.965105 0.266044 0.294222
O O4 0.906276 0.885848 0.334134
O O5 0.958854 0.295091 0.096906
O O6 0.000000 0.500000 0.000000
O O7 0.000000 0.000000 0.000000
O O8 0.735110 0.717683 0.414704
O O9 0.699039 0.375981 0.496356
O O10 0.680960 0.305000 0.366079
O O11 0.735109 0.964130 0.078393
O O12 0.819454 0.048276 0.125842
O O13 0.462806 0.911601 0.799055
O O14 0.347778 0.713546 0.759778
O O15 0.396096 0.687505 0.317811
O O16 0.389280 0.180653 0.368489
#
# Coordination Sequence:
#
# PCOD9455677 Si02
#       8
#     8   8   8   8   4   8   8   8
#     4  11  24  39  64  91 127 170 209 267 320 386
#     4  11  24  43  60  89 128 169 217 261 317 383
#     4  10  23  43  65  90 126 172 214 261 330 397
#     4  10  23  43  65  90 126 172 214 261 330 397
#     4  10  20  42  60  86 124 168 208 244 312 386
#     4  12  23  40  64 100 128 161 221 271 327 390
#     4  12  23  40  64 100 128 161 221 271 327 390
#     4  11  24  39  64  91 127 170 209 267 320 386
#
# _framework density 21.644846999999999
#
# number of rings (size 3 to 8) (size 9 to 14) (size 15 to 20)
#    0.000    1.067    2.667    3.200    0.000    8.533 
#    0.000    0.000    0.000    0.000    0.000    0.000 
#    0.000    0.000    0.000    0.000    0.000    0.000 
#
# Total GULP energy -335155.181997 kJ/mol
# GULP energy per Si atom -5585.919700 kJ/mol
# Density = 2.159558 g / cm^3
# Si number density = 21.644847 Si / 1000 Ang^3
#
#
#
# Elastic Constant Matrix: (Units=GPa)
#
#
# Indices 1 2 3 4 5 6 
#
# 1 58.1159 -2.5988 49.7537 0.0000 0.0000 0.0000
# 2 -2.5988 89.4451 14.5760 0.0000 0.0000 0.0000
# 3 49.7537 14.5760 131.9893 0.0000 0.0000 0.0000
# 4 0.0000 0.0000 0.0000 26.6778 0.0000 0.0000
# 5 0.0000 0.0000 0.0000 0.0000 39.4338 0.0000
# 6 0.0000 0.0000 0.0000 0.0000 0.0000 6.3259
#
#
#
# Elastic Compliance Matrix: (Units=1/GPa)
#
#
# Indices 1 2 3 4 5 6 
#
# 1 0.025896 0.002386 -0.010025 0.000000 0.000000 0.000000
# 2 0.002386 0.011605 -0.002181 0.000000 0.000000 0.000000
# 3 -0.010025 -0.002181 0.011596 0.000000 0.000000 0.000000
# 4 0.000000 0.000000 0.000000 0.037484 0.000000 0.000000
# 5 0.000000 0.000000 0.000000 0.000000 0.025359 0.000000
# 6 0.000000 0.000000 0.000000 0.000000 0.000000 0.158079
#
#
# Mechanical properties :
#
#
# Convention : Reuss Voigt Hill
#
# Bulk Modulus (GPa) = 33.94752 44.77913 39.36332
# Shear Modulus (GPa) = 16.69565 29.00879 22.85222
#
# Velocity S-wave (km/s) = 2.78032 3.66487 3.25280
# Velocity P-wave (km/s) = 5.10146 6.21622 5.68622
#
# Compressibility (1/GPa) = 0.02945723
#
# Stress axis : x y z
#
# Youngs Moduli (GPa) = 38.61538 86.17131 86.23466
#
# Poissons Ratio (x) = -0.20562 0.86452
# Poissons Ratio (y) = -0.09214 0.18808
# Poissons Ratio (z) = 0.38713 0.18794
#
# Static dielectric constant tensor:
#      x y z
#    x 1.794170 0.000000 0.000000 
#    y 0.000000 1.713590 0.000000 
#    z 0.000000 0.000000 1.808540 
# 
# From -- ./inp_files/21239.got.cif
#   From: 2010.05.17/outbox.cif.g08.bks.cpg/sg60_11_cif.got.tgz:21239.got - 2010.06.03 14:59:27.
