data_PCOD9455720
_publ_section_title
;
Structure prediction by ZEFSAII (Michael W. Deem and Ramdas Pophale) SiO2 
 PCOD9455720
Probable space group: P B C N
;
_chemical_formula_sum "Si O2"
_cell_formula_units_Z 44
_cell_length_a 7.262487
_cell_length_b 9.479930
_cell_length_c 22.606231
_cell_angle_alpha 90.000000
_cell_angle_beta 90.000000
_cell_angle_gamma 90.000000
_cell_volume 1556.390817
_symmetry_space_group_name_H-M "P B C N"
_symmetry_group_IT_number 60
_symmetry_cell_setting 'orthorhombic'
loop_
_space_group_symop_operation_xyz
x,y,z
1/2-x,1/2-y,1/2+z
1/2+x,1/2-y,-z
-x,y,1/2-z
-x,-y,-z
1/2+x,1/2+y,1/2-z
1/2-x,1/2+y,z
x,-y,1/2+z
loop_
_atom_site_type_symbol
_atom_site_label
_atom_site_fract_x
_atom_site_fract_y
_atom_site_fract_z
Si Si1 0.543549 0.749917 0.336932
Si Si2 0.522606 0.353618 0.132374
Si Si3 0.066258 0.415005 0.684127
Si Si4 0.206572 0.030087 0.975090
Si Si5 0.500000 0.543412 0.250000
Si Si6 0.311117 0.793885 0.047714
O O1 0.727536 0.652930 0.322848
O O2 0.406757 0.667233 0.293360
O O3 0.527684 0.744708 0.407978
O O4 0.555539 0.916261 0.323256
O O5 0.547371 0.186328 0.140923
O O6 0.678317 0.426551 0.092749
O O7 0.495169 0.427243 0.195782
O O8 0.335164 0.362073 0.093514
O O9 0.000000 0.390689 0.750000
O O10 0.269060 0.160028 0.015205
O O11 0.333867 0.902633 0.994861
O O12 0.000000 0.000000 0.000000
#
# Coordination Sequence:
#
# PCOD9455720 Si02
#       6
#     8   8   8   8   4   8
#     4  11  22  39  69  98 137 188 231 285 363 435
#     4  10  22  41  67  98 141 183 227 303 350 429
#     4  11  22  42  62  99 138 184 227 279 366 432
#     4  10  21  42  68  96 131 180 244 288 347 422
#     4  12  22  42  70 106 144 184 238 294 378 436
#     4  10  20  42  69  96 134 189 231 290 363 408
#
# _framework density 28.270534999999999
#
# number of rings (size 3 to 8) (size 9 to 14) (size 15 to 20)
#    0.000    1.455    1.818    6.545    0.000    0.000 
#    3.273   10.000    0.000    0.000    0.000    0.000 
#    0.000    0.000    0.000    0.000    0.000    0.000 
#
# Total GULP energy -245428.078501 kJ/mol
# GULP energy per Si atom -5577.910875 kJ/mol
# Density = 2.820619 g / cm^3
# Si number density = 28.270535 Si / 1000 Ang^3
#
#
#
# Elastic Constant Matrix: (Units=GPa)
#
#
# Indices 1 2 3 4 5 6 
#
# 1 94.5011 23.2952 42.6643 0.0000 0.0000 0.0000
# 2 23.2952 235.4826 71.4207 0.0000 0.0000 0.0000
# 3 42.6643 71.4207 235.4795 0.0000 0.0000 0.0000
# 4 0.0000 0.0000 0.0000 59.3324 0.0000 0.0000
# 5 0.0000 0.0000 0.0000 0.0000 22.6021 0.0000
# 6 0.0000 0.0000 0.0000 0.0000 0.0000 11.1948
#
#
#
# Elastic Compliance Matrix: (Units=1/GPa)
#
#
# Indices 1 2 3 4 5 6 
#
# 1 0.011592 -0.000561 -0.001930 0.000000 0.000000 0.000000
# 2 -0.000561 0.004704 -0.001325 0.000000 0.000000 0.000000
# 3 -0.001930 -0.001325 0.004998 0.000000 0.000000 0.000000
# 4 0.000000 0.000000 0.000000 0.016854 0.000000 0.000000
# 5 0.000000 0.000000 0.000000 0.000000 0.044244 0.000000
# 6 0.000000 0.000000 0.000000 0.000000 0.000000 0.089327
#
#
# Mechanical properties :
#
#
# Convention : Reuss Voigt Hill
#
# Bulk Modulus (GPa) = 73.20011 93.35819 83.27915
# Shear Modulus (GPa) = 27.18795 47.16474 37.17635
#
# Velocity S-wave (km/s) = 3.10450 4.08896 3.63026
# Velocity P-wave (km/s) = 6.22893 7.44228 6.86247
#
# Compressibility (1/GPa) = 0.01366118
#
# Stress axis : x y z
#
# Youngs Moduli (GPa) = 86.26971 212.58506 200.07254
#
# Poissons Ratio (x) = 0.11934 0.38612
# Poissons Ratio (y) = 0.04843 0.26510
# Poissons Ratio (z) = 0.16649 0.28168
#
# Static dielectric constant tensor:
#      x y z
#    x 2.764820 0.000000 0.000000 
#    y 0.000000 2.210010 0.000000 
#    z 0.000000 0.000000 2.451400 
# 
# From -- ./inp_files/24198.got.cif
#   From: 2010.05.17/outbox.cif.g08.bks.cpg/sg60_13_cif.got.tgz:24198.got - 2010.06.03 14:59:27.
