data_PCOD9455943
_publ_section_title
;
Structure prediction by ZEFSAII (Michael W. Deem and Ramdas Pophale) SiO2 
 PCOD9455943
Probable space group: P B C N
;
_chemical_formula_sum "Si O2"
_cell_formula_units_Z 52
_cell_length_a 14.765051
_cell_length_b 19.962594
_cell_length_c 8.551706
_cell_angle_alpha 90.000000
_cell_angle_beta 90.000000
_cell_angle_gamma 90.000000
_cell_volume 2520.604385
_symmetry_space_group_name_H-M "P B C N"
_symmetry_group_IT_number 60
_symmetry_cell_setting 'orthorhombic'
loop_
_space_group_symop_operation_xyz
x,y,z
1/2-x,1/2-y,1/2+z
1/2+x,1/2-y,-z
-x,y,1/2-z
-x,-y,-z
1/2+x,1/2+y,1/2-z
1/2-x,1/2+y,z
x,-y,1/2+z
loop_
_atom_site_type_symbol
_atom_site_label
_atom_site_fract_x
_atom_site_fract_y
_atom_site_fract_z
Si Si1 0.457927 0.566717 0.925171
Si Si2 0.913769 0.833841 0.524796
Si Si3 0.247262 0.427979 0.350016
Si Si4 0.000000 0.769565 0.250000
Si Si5 0.818734 0.284037 0.184344
Si Si6 0.352349 0.795838 0.945870
Si Si7 0.260052 0.073401 0.476150
O O1 0.500000 0.568074 0.750000
O O2 0.492051 0.627087 0.036310
O O3 0.350799 0.573802 0.910485
O O4 0.500000 0.500000 0.000000
O O5 0.922414 0.811317 0.342171
O O6 0.893990 0.765833 0.614947
O O7 0.835863 0.888765 0.561919
O O8 0.192316 0.359347 0.385343
O O9 0.245348 0.431330 0.162811
O O10 0.217862 0.500326 0.412233
O O11 0.947771 0.727623 0.119715
O O12 0.725452 0.246543 0.141134
O O13 0.835582 0.287023 0.369383
O O14 0.334139 0.873946 0.917612
#
# Coordination Sequence:
#
# PCOD9455943 Si02
#       7
#     8   8   8   4   8   8   8
#     4  12  21  37  59  91 132 165 198 255 315 373
#     4  11  21  39  58  89 128 165 205 253 312 376
#     4  11  20  38  59  88 121 164 199 256 306 375
#     4  12  22  40  66  86 128 164 204 274 324 358
#     4  10  23  40  62  89 124 166 216 253 310 387
#     4  10  22  41  62  90 122 165 211 263 313 377
#     4  10  21  37  61  86 122 160 209 248 307 378
#
# _framework density 20.629973
#
# number of rings (size 3 to 8) (size 9 to 14) (size 15 to 20)
#    0.000    1.231    3.846    3.692    0.000    4.308 
#    5.538    0.000    0.000    8.308    0.000    0.000 
#    0.000    0.000    0.000    0.000    0.000    0.000 
#
# Total GULP energy -289984.024178 kJ/mol
# GULP energy per Si atom -5576.615850 kJ/mol
# Density = 2.058302 g / cm^3
# Si number density = 20.629973 Si / 1000 Ang^3
#
#
#
# Elastic Constant Matrix: (Units=GPa)
#
#
# Indices 1 2 3 4 5 6 
#
# 1 45.7732 46.7382 28.1969 0.0000 0.0000 0.0000
# 2 46.7382 203.0534 53.5464 0.0000 0.0000 0.0000
# 3 28.1969 53.5464 53.2422 0.0000 0.0000 0.0000
# 4 0.0000 0.0000 0.0000 35.6423 0.0000 0.0000
# 5 0.0000 0.0000 0.0000 0.0000 29.9026 0.0000
# 6 0.0000 0.0000 0.0000 0.0000 0.0000 31.6424
#
#
#
# Elastic Compliance Matrix: (Units=1/GPa)
#
#
# Indices 1 2 3 4 5 6 
#
# 1 0.034995 -0.004311 -0.014197 0.000000 0.000000 0.000000
# 2 -0.004311 0.007233 -0.004992 0.000000 0.000000 0.000000
# 3 -0.014197 -0.004992 0.031321 0.000000 0.000000 0.000000
# 4 0.000000 0.000000 0.000000 0.028057 0.000000 0.000000
# 5 0.000000 0.000000 0.000000 0.000000 0.033442 0.000000
# 6 0.000000 0.000000 0.000000 0.000000 0.000000 0.031603
#
#
# Mechanical properties :
#
#
# Convention : Reuss Voigt Hill
#
# Bulk Modulus (GPa) = 37.66613 62.11464 49.89039
# Shear Modulus (GPa) = 22.47186 31.00994 26.74090
#
# Velocity S-wave (km/s) = 3.30401 3.88125 3.60421
# Velocity P-wave (km/s) = 5.73174 7.08941 6.44642
#
# Compressibility (1/GPa) = 0.02654905
#
# Stress axis : x y z
#
# Youngs Moduli (GPa) = 28.57590 138.24681 31.92733
#
# Poissons Ratio (x) = 0.59598 0.45328
# Poissons Ratio (y) = 0.12319 0.15937
# Poissons Ratio (z) = 0.40570 0.69008
#
# Static dielectric constant tensor:
#      x y z
#    x 1.742010 0.000000 0.000000 
#    y 0.000000 1.808480 0.000000 
#    z 0.000000 0.000000 1.759100 
# 
# From -- ./inp_files/6856.got.cif
#   From: 2010.05.17/outbox.cif.g08.bks.cpg/sg60_4_cif.got.tgz:6856.got - 2010.06.03 14:59:27.
