data_PCOD9455622
_publ_section_title
;
Structure prediction by ZEFSAII (Michael W. Deem and Ramdas Pophale) SiO2 
 PCOD9455622
Probable space group: P B C N
;
_chemical_formula_sum "Si O2"
_cell_formula_units_Z 32
_cell_length_a 15.592175
_cell_length_b 9.311235
_cell_length_c 8.538588
_cell_angle_alpha 90.000000
_cell_angle_beta 90.000000
_cell_angle_gamma 90.000000
_cell_volume 1239.652746
_symmetry_space_group_name_H-M "P B C N"
_symmetry_group_IT_number 60
_symmetry_cell_setting 'orthorhombic'
loop_
_space_group_symop_operation_xyz
x,y,z
1/2-x,1/2-y,1/2+z
1/2+x,1/2-y,-z
-x,y,1/2-z
-x,-y,-z
1/2+x,1/2+y,1/2-z
1/2-x,1/2+y,z
x,-y,1/2+z
loop_
_atom_site_type_symbol
_atom_site_label
_atom_site_fract_x
_atom_site_fract_y
_atom_site_fract_z
Si Si1 0.334987 0.100736 0.014230
Si Si2 0.416079 0.557582 0.857872
Si Si3 0.013656 0.245011 0.430582
Si Si4 0.246061 0.646441 0.687755
O O1 0.435680 0.136394 0.030642
O O2 0.315626 0.145693 0.836802
O O3 0.279282 0.202232 0.126513
O O4 0.301332 0.943285 0.052907
O O5 0.500000 0.575250 0.750000
O O6 0.425874 0.398437 0.927968
O O7 0.331304 0.571292 0.757407
O O8 0.428014 0.680847 0.989056
O O9 0.000000 0.286208 0.250000
#
# Coordination Sequence:
#
# PCOD9455622 Si02
#       4
#     8   8   8   8
#     4  12  26  47  70 110 144 195 244 317 369 450
#     4  10  20  40  71 104 137 187 250 299 349 450
#     4  10  22  40  70 104 140 186 247 301 365 437
#     4  12  26  44  74 104 148 190 250 306 379 438
#
# _framework density 25.813680999999999
#
# number of rings (size 3 to 8) (size 9 to 14) (size 15 to 20)
#    0.000    1.000    2.500    4.500   10.500    0.000 
#    0.000    1.250    0.000    0.000    0.000    0.000 
#    0.000    0.000    0.000    0.000    0.000    0.000 
#
# Total GULP energy -179361.283674 kJ/mol
# GULP energy per Si atom -5605.040115 kJ/mol
# Density = 2.575493 g / cm^3
# Si number density = 25.813681 Si / 1000 Ang^3
#
#
#
# Elastic Constant Matrix: (Units=GPa)
#
#
# Indices 1 2 3 4 5 6 
#
# 1 108.4449 48.0362 11.0983 0.0000 0.0000 0.0000
# 2 48.0362 64.9040 4.7104 0.0000 0.0000 0.0000
# 3 11.0983 4.7104 92.0069 0.0000 0.0000 0.0000
# 4 0.0000 0.0000 0.0000 23.6872 0.0000 0.0000
# 5 0.0000 0.0000 0.0000 0.0000 45.5403 0.0000
# 6 0.0000 0.0000 0.0000 0.0000 0.0000 40.3562
#
#
#
# Elastic Compliance Matrix: (Units=1/GPa)
#
#
# Indices 1 2 3 4 5 6 
#
# 1 0.013839 -0.010159 -0.001149 0.000000 0.000000 0.000000
# 2 -0.010159 0.022922 0.000052 0.000000 0.000000 0.000000
# 3 -0.001149 0.000052 0.011005 0.000000 0.000000 0.000000
# 4 0.000000 0.000000 0.000000 0.042217 0.000000 0.000000
# 5 0.000000 0.000000 0.000000 0.000000 0.021959 0.000000
# 6 0.000000 0.000000 0.000000 0.000000 0.000000 0.024779
#
#
# Mechanical properties :
#
#
# Convention : Reuss Voigt Hill
#
# Bulk Modulus (GPa) = 39.59856 43.67171 41.63513
# Shear Modulus (GPa) = 29.82390 35.35080 32.58735
#
# Velocity S-wave (km/s) = 3.40274 3.70464 3.55689
# Velocity P-wave (km/s) = 5.55082 5.93750 5.74741
#
# Compressibility (1/GPa) = 0.02525345
#
# Stress axis : x y z
#
# Youngs Moduli (GPa) = 72.26060 43.62563 90.87014
#
# Poissons Ratio (x) = 0.44319 0.10443
# Poissons Ratio (y) = 0.73408 -0.00471
# Poissons Ratio (z) = 0.08304 -0.00226
#
# Static dielectric constant tensor:
#      x y z
#    x 2.041200 0.000000 0.000000 
#    y 0.000000 2.017850 0.000000 
#    z 0.000000 0.000000 2.051800 
# 
# From -- ./inp_files/5457.got.cif
#   From: 2010.05.17/outbox.cif.g08.bks.cpg/sg60_3_cif.got.tgz:5457.got - 2010.06.03 14:59:27.
