data_PCOD9455525
_publ_section_title
;
Structure prediction by ZEFSAII (Michael W. Deem and Ramdas Pophale) SiO2 
 PCOD9455525
Probable space group: P B C N
;
_chemical_formula_sum "Si O2"
_cell_formula_units_Z 24
_cell_length_a 7.979186
_cell_length_b 14.737488
_cell_length_c 7.504639
_cell_angle_alpha 90.000000
_cell_angle_beta 90.000000
_cell_angle_gamma 90.000000
_cell_volume 882.494199
_symmetry_space_group_name_H-M "P B C N"
_symmetry_group_IT_number 60
_symmetry_cell_setting 'orthorhombic'
loop_
_space_group_symop_operation_xyz
x,y,z
1/2-x,1/2-y,1/2+z
1/2+x,1/2-y,-z
-x,y,1/2-z
-x,-y,-z
1/2+x,1/2+y,1/2-z
1/2-x,1/2+y,z
x,-y,1/2+z
loop_
_atom_site_type_symbol
_atom_site_label
_atom_site_fract_x
_atom_site_fract_y
_atom_site_fract_z
Si Si1 0.831541 0.439519 0.040509
Si Si2 0.808229 0.887625 0.421976
Si Si3 0.492836 0.233313 0.532210
O O1 0.788361 0.409051 0.239453
O O2 0.873886 0.341956 0.957204
O O3 0.688021 0.512137 0.001067
O O4 0.000000 0.500000 0.000000
O O5 0.680396 0.816821 0.516072
O O6 0.977068 0.830161 0.441335
O O7 0.500000 0.245552 0.750000
#
# Coordination Sequence:
#
# PCOD9455525 Si02
#       3
#     8   8   8
#     4   9  19  38  64  90 122 169 218 262 326 406
#     4  10  20  39  66  92 124 171 219 274 330 393
#     4   9  20  39  60  90 126 166 217 270 324 391
#
# _framework density 27.195647000000001
#
# number of rings (size 3 to 8) (size 9 to 14) (size 15 to 20)
#    0.000    2.667    0.000    3.000    0.000    5.333 
#    0.000   20.000    0.000    0.000    0.000    0.000 
#    0.000    0.000    0.000    0.000    0.000    0.000 
#
# Total GULP energy -133760.691411 kJ/mol
# GULP energy per Si atom -5573.362142 kJ/mol
# Density = 2.713375 g / cm^3
# Si number density = 27.195647 Si / 1000 Ang^3
#
#
#
# Elastic Constant Matrix: (Units=GPa)
#
#
# Indices 1 2 3 4 5 6 
#
# 1 111.3578 56.7557 22.1026 0.0000 0.0000 0.0000
# 2 56.7557 223.3445 34.8303 0.0000 0.0000 0.0000
# 3 22.1026 34.8303 110.3237 0.0000 0.0000 0.0000
# 4 0.0000 0.0000 0.0000 25.6517 0.0000 0.0000
# 5 0.0000 0.0000 0.0000 0.0000 18.1327 0.0000
# 6 0.0000 0.0000 0.0000 0.0000 0.0000 74.8743
#
#
#
# Elastic Compliance Matrix: (Units=1/GPa)
#
#
# Indices 1 2 3 4 5 6 
#
# 1 0.010497 -0.002461 -0.001326 0.000000 0.000000 0.000000
# 2 -0.002461 0.005286 -0.001176 0.000000 0.000000 0.000000
# 3 -0.001326 -0.001176 0.009701 0.000000 0.000000 0.000000
# 4 0.000000 0.000000 0.000000 0.038984 0.000000 0.000000
# 5 0.000000 0.000000 0.000000 0.000000 0.055149 0.000000
# 6 0.000000 0.000000 0.000000 0.000000 0.000000 0.013356
#
#
# Mechanical properties :
#
#
# Convention : Reuss Voigt Hill
#
# Bulk Modulus (GPa) = 64.27139 74.71150 69.49145
# Shear Modulus (GPa) = 33.76434 45.82089 39.79261
#
# Velocity S-wave (km/s) = 3.52736 4.10916 3.82933
# Velocity P-wave (km/s) = 6.34618 7.07425 6.72009
#
# Compressibility (1/GPa) = 0.01555902
#
# Stress axis : x y z
#
# Youngs Moduli (GPa) = 95.26106 189.17582 103.08038
#
# Poissons Ratio (x) = 0.46552 0.13671
# Poissons Ratio (y) = 0.23442 0.12121
# Poissons Ratio (z) = 0.12634 0.22245
#
# Static dielectric constant tensor:
#      x y z
#    x 2.367770 0.000000 0.000000 
#    y 0.000000 2.139540 0.000000 
#    z 0.000000 0.000000 2.159380 
# 
# From -- ./inp_files/3367.got.cif
#   From: 2010.05.17/outbox.cif.g08.bks.cpg/sg60_2_cif.got.tgz:3367.got - 2010.06.03 14:59:27.
