data_PCOD9455253
_publ_section_title
;
Structure prediction by ZEFSAII (Michael W. Deem and Ramdas Pophale) SiO2 
 PCOD9455253
Probable space group: P B C N
;
_chemical_formula_sum "Si O2"
_cell_formula_units_Z 56
_cell_length_a 17.731984
_cell_length_b 14.149304
_cell_length_c 11.498988
_cell_angle_alpha 90.000000
_cell_angle_beta 90.000000
_cell_angle_gamma 90.000000
_cell_volume 2885.041264
_symmetry_space_group_name_H-M "P B C N"
_symmetry_group_IT_number 60
_symmetry_cell_setting 'orthorhombic'
loop_
_space_group_symop_operation_xyz
x,y,z
1/2-x,1/2-y,1/2+z
1/2+x,1/2-y,-z
-x,y,1/2-z
-x,-y,-z
1/2+x,1/2+y,1/2-z
1/2-x,1/2+y,z
x,-y,1/2+z
loop_
_atom_site_type_symbol
_atom_site_label
_atom_site_fract_x
_atom_site_fract_y
_atom_site_fract_z
Si Si1 0.717728 0.377576 0.025240
Si Si2 0.022666 0.558933 0.616754
Si Si3 0.948980 0.234750 0.102958
Si Si4 0.708807 0.688882 0.055097
Si Si5 0.297947 0.047185 0.601353
Si Si6 0.319261 0.488683 0.788533
Si Si7 0.906311 0.144626 0.343218
O O1 0.755205 0.288821 0.087185
O O2 0.664636 0.438530 0.109378
O O3 0.778459 0.453324 0.976040
O O4 0.666604 0.338181 0.921112
O O5 0.113662 0.563067 0.615798
O O6 0.000000 0.526627 0.750000
O O7 0.000000 0.500000 0.500000
O O8 0.982863 0.660793 0.598370
O O9 0.877645 0.212687 0.022145
O O10 0.917578 0.215129 0.233913
O O11 0.016868 0.160534 0.086943
O O12 0.705753 0.610915 0.156001
O O13 0.757566 0.636475 0.957880
O O14 0.251742 0.028254 0.718680
O O15 0.389583 0.459514 0.708404
#
# Coordination Sequence:
#
# PCOD9455253 Si02
#       7
#     8   8   8   8   8   8   8
#     4  10  20  37  60  90 125 160 223 271 330 398
#     4  12  26  41  68  97 137 177 221 280 345 400
#     4  10  20  39  63  89 121 170 223 256 336 414
#     4  10  21  35  63  87 121 167 217 271 327 395
#     4  10  23  40  60  92 128 168 217 271 337 397
#     4   9  21  36  58  91 122 161 216 272 326 396
#     4   9  18  37  58  85 115 164 210 264 326 402
#
# _framework density 19.410467000000001
#
# number of rings (size 3 to 8) (size 9 to 14) (size 15 to 20)
#    0.000    2.000    1.429    1.714    6.000    2.286 
#    0.000   19.286    0.000    0.000    0.000    0.000 
#    0.000    0.000    0.000    0.000    0.000    0.000 
#
# Total GULP energy -311864.292799 kJ/mol
# GULP energy per Si atom -5569.005229 kJ/mol
# Density = 1.936629 g / cm^3
# Si number density = 19.410467 Si / 1000 Ang^3
#
#
#
# Elastic Constant Matrix: (Units=GPa)
#
#
# Indices 1 2 3 4 5 6 
#
# 1 120.7933 59.3115 43.2090 0.0000 0.0000 0.0000
# 2 59.3115 107.0545 37.7033 0.0000 0.0000 0.0000
# 3 43.2090 37.7033 58.1522 0.0000 0.0000 0.0000
# 4 0.0000 0.0000 0.0000 10.2728 0.0000 0.0000
# 5 0.0000 0.0000 0.0000 0.0000 24.9990 0.0000
# 6 0.0000 0.0000 0.0000 0.0000 0.0000 24.9048
#
#
#
# Elastic Compliance Matrix: (Units=1/GPa)
#
#
# Indices 1 2 3 4 5 6 
#
# 1 0.013016 -0.004931 -0.006474 0.000000 0.000000 0.000000
# 2 -0.004931 0.013973 -0.005396 0.000000 0.000000 0.000000
# 3 -0.006474 -0.005396 0.025505 0.000000 0.000000 0.000000
# 4 0.000000 0.000000 0.000000 0.097344 0.000000 0.000000
# 5 0.000000 0.000000 0.000000 0.000000 0.040002 0.000000
# 6 0.000000 0.000000 0.000000 0.000000 0.000000 0.040153
#
#
# Mechanical properties :
#
#
# Convention : Reuss Voigt Hill
#
# Bulk Modulus (GPa) = 52.93130 62.93863 57.93497
# Shear Modulus (GPa) = 18.52597 21.75374 20.13985
#
# Velocity S-wave (km/s) = 3.09274 3.35135 3.22464
# Velocity P-wave (km/s) = 6.33104 6.88991 6.61638
#
# Compressibility (1/GPa) = 0.01889241
#
# Stress axis : x y z
#
# Youngs Moduli (GPa) = 76.83078 71.56511 39.20795
#
# Poissons Ratio (x) = 0.35289 0.25383
# Poissons Ratio (y) = 0.37885 0.21156
# Poissons Ratio (z) = 0.49740 0.38615
#
# Static dielectric constant tensor:
#      x y z
#    x 1.707100 0.000000 0.000000 
#    y 0.000000 1.680870 0.000000 
#    z 0.000000 0.000000 1.783290 
# 
# From -- ./inp_files/11940.got.cif
#   From: 2010.05.17/outbox.cif.g08.bks.cpg/sg60_6_cif.got.tgz:11940.got - 2010.06.03 14:59:27.
