data_PCOD9455470
_publ_section_title
;
Structure prediction by ZEFSAII (Michael W. Deem and Ramdas Pophale) SiO2 
 PCOD9455470
Probable space group: P B C N
;
_chemical_formula_sum "Si O2"
_cell_formula_units_Z 64
_cell_length_a 9.425861
_cell_length_b 22.784791
_cell_length_c 14.077080
_cell_angle_alpha 90.000000
_cell_angle_beta 90.000000
_cell_angle_gamma 90.000000
_cell_volume 3023.282005
_symmetry_space_group_name_H-M "P B C N"
_symmetry_group_IT_number 60
_symmetry_cell_setting 'orthorhombic'
loop_
_space_group_symop_operation_xyz
x,y,z
1/2-x,1/2-y,1/2+z
1/2+x,1/2-y,-z
-x,y,1/2-z
-x,-y,-z
1/2+x,1/2+y,1/2-z
1/2-x,1/2+y,z
x,-y,1/2+z
loop_
_atom_site_type_symbol
_atom_site_label
_atom_site_fract_x
_atom_site_fract_y
_atom_site_fract_z
Si Si1 0.345252 0.197026 0.786718
Si Si2 0.534991 0.328838 0.997658
Si Si3 0.855498 0.291868 0.791439
Si Si4 0.372486 0.395768 0.313648
Si Si5 0.804102 0.993883 0.583192
Si Si6 0.341381 0.925760 0.771896
Si Si7 0.378875 0.446354 0.607475
Si Si8 0.309250 0.237701 0.996833
O O1 0.500000 0.184528 0.750000
O O2 0.281430 0.256205 0.742255
O O3 0.230862 0.148068 0.759680
O O4 0.348026 0.203490 0.900687
O O5 0.556411 0.360884 0.098360
O O6 0.640092 0.272542 0.994804
O O7 0.590358 0.378357 0.923842
O O8 0.377933 0.302290 0.986756
O O9 0.845098 0.356415 0.747898
O O10 0.000000 0.263787 0.750000
O O11 0.866222 0.289853 0.905103
O O12 0.500000 0.418195 0.250000
O O13 0.279226 0.447881 0.355411
O O14 0.801096 0.016270 0.475360
O O15 0.701547 0.943786 0.621740
O O16 0.964207 0.973700 0.608247
O O17 0.500000 0.948137 0.750000
O O18 0.217980 0.948461 0.700642
#
# Coordination Sequence:
#
# PCOD9455470 Si02
#       8
#     8   8   8   8   8   8   8   8
#     4  11  24  36  61  96 124 167 216 268 328 389
#     4  10  21  35  60  87 124 168 204 263 320 388
#     4  11  23  41  62  90 130 174 214 262 330 411
#     4  10  20  39  60  84 121 169 208 262 319 385
#     4  10  23  41  71  93 126 175 225 278 330 396
#     4  11  24  40  67  98 131 175 215 280 345 390
#     4  10  21  43  64  98 130 168 229 277 331 397
#     4  11  21  39  58  88 129 167 205 264 328 378
#
# _framework density 21.169046999999999
#
# number of rings (size 3 to 8) (size 9 to 14) (size 15 to 20)
#    0.000    1.500    1.250    4.500    1.750    1.000 
#    0.000    0.000    8.250    0.000    0.000    0.000 
#    0.000    0.000    0.000    0.000    0.000    0.000 
#
# Total GULP energy -357310.559923 kJ/mol
# GULP energy per Si atom -5582.977499 kJ/mol
# Density = 2.112087 g / cm^3
# Si number density = 21.169047 Si / 1000 Ang^3
#
#
#
# Elastic Constant Matrix: (Units=GPa)
#
#
# Indices 1 2 3 4 5 6 
#
# 1 23.0430 8.5880 9.5498 0.0000 0.0000 0.0000
# 2 8.5880 50.4979 16.1367 0.0000 0.0000 0.0000
# 3 9.5498 16.1367 62.2386 0.0000 0.0000 0.0000
# 4 0.0000 0.0000 0.0000 21.9458 0.0000 0.0000
# 5 0.0000 0.0000 0.0000 0.0000 23.2927 0.0000
# 6 0.0000 0.0000 0.0000 0.0000 0.0000 3.1039
#
#
#
# Elastic Compliance Matrix: (Units=1/GPa)
#
#
# Indices 1 2 3 4 5 6 
#
# 1 0.048144 -0.006353 -0.005740 0.000000 0.000000 0.000000
# 2 -0.006353 0.022430 -0.004841 0.000000 0.000000 0.000000
# 3 -0.005740 -0.004841 0.018203 0.000000 0.000000 0.000000
# 4 0.000000 0.000000 0.000000 0.045567 0.000000 0.000000
# 5 0.000000 0.000000 0.000000 0.000000 0.042932 0.000000
# 6 0.000000 0.000000 0.000000 0.000000 0.000000 0.322178
#
#
# Mechanical properties :
#
#
# Convention : Reuss Voigt Hill
#
# Bulk Modulus (GPa) = 18.21197 22.70318 20.45757
# Shear Modulus (GPa) = 9.06413 16.43548 12.74980
#
# Velocity S-wave (km/s) = 2.07149 2.78940 2.45681
# Velocity P-wave (km/s) = 3.78725 4.59591 4.21103
#
# Compressibility (1/GPa) = 0.05490894
#
# Stress axis : x y z
#
# Youngs Moduli (GPa) = 20.77111 44.58284 54.93615
#
# Poissons Ratio (x) = 0.28326 0.31533
# Poissons Ratio (y) = 0.13197 0.26592
# Poissons Ratio (z) = 0.11922 0.21581
#
# Static dielectric constant tensor:
#      x y z
#    x 1.756250 0.000000 0.000000 
#    y 0.000000 1.797150 0.000000 
#    z 0.000000 0.000000 1.772910 
# 
# From -- ./inp_files/15392.got.cif
#   From: 2010.05.17/outbox.cif.g08.bks.cpg/sg60_8_cif.got.tgz:15392.got - 2010.06.03 14:59:27.
