data_PCOD9455321
_publ_section_title
;
Structure prediction by ZEFSAII (Michael W. Deem and Ramdas Pophale) SiO2 
 PCOD9455321
Probable space group: P B C N
;
_chemical_formula_sum "Si O2"
_cell_formula_units_Z 40
_cell_length_a 8.580104
_cell_length_b 13.569250
_cell_length_c 14.855028
_cell_angle_alpha 90.000000
_cell_angle_beta 90.000000
_cell_angle_gamma 90.000000
_cell_volume 1729.505194
_symmetry_space_group_name_H-M "P B C N"
_symmetry_group_IT_number 60
_symmetry_cell_setting 'orthorhombic'
loop_
_space_group_symop_operation_xyz
x,y,z
1/2-x,1/2-y,1/2+z
1/2+x,1/2-y,-z
-x,y,1/2-z
-x,-y,-z
1/2+x,1/2+y,1/2-z
1/2-x,1/2+y,z
x,-y,1/2+z
loop_
_atom_site_type_symbol
_atom_site_label
_atom_site_fract_x
_atom_site_fract_y
_atom_site_fract_z
Si Si1 0.706070 0.195125 0.159840
Si Si2 0.254425 0.992205 0.771059
Si Si3 0.066022 0.861556 0.622206
Si Si4 0.069936 0.119979 0.921612
Si Si5 0.250954 0.675026 0.667009
O O1 0.643926 0.270245 0.086538
O O2 0.684936 0.259535 0.249933
O O3 0.886106 0.165869 0.141573
O O4 0.636740 0.086983 0.178306
O O5 0.151492 0.047953 0.848388
O O6 0.327389 0.080377 0.713115
O O7 0.151281 0.928568 0.698235
O O8 0.085831 0.910679 0.524977
O O9 0.142987 0.753547 0.619528
O O10 0.891742 0.136178 0.892939
#
# Coordination Sequence:
#
# PCOD9455321 Si02
#       5
#     8   8   8   8   8
#     4  10  20  38  58  82 117 153 192 238 289 343
#     4  10  21  38  61  86 113 154 199 240 287 342
#     4  11  22  37  60  88 117 153 196 240 288 344
#     4  11  22  37  60  88 117 153 196 240 288 344
#     4  10  20  38  58  82 117 153 192 238 289 343
#
# _framework density 23.128001999999999
#
# number of rings (size 3 to 8) (size 9 to 14) (size 15 to 20)
#    0.000    1.600    0.000    8.400    0.000    4.800 
#    0.000   16.000    0.000   12.000    0.000    0.000 
#    0.000    0.000    0.000    0.000    0.000    0.000 
#
# Total GULP energy -223250.281170 kJ/mol
# GULP energy per Si atom -5581.257029 kJ/mol
# Density = 2.307536 g / cm^3
# Si number density = 23.128002 Si / 1000 Ang^3
#
#
#
# Elastic Constant Matrix: (Units=GPa)
#
#
# Indices 1 2 3 4 5 6 
#
# 1 45.5884 30.0223 21.6613 0.0000 0.0000 0.0000
# 2 30.0223 181.0737 45.0457 0.0000 0.0000 0.0000
# 3 21.6613 45.0457 165.4212 0.0000 0.0000 0.0000
# 4 0.0000 0.0000 0.0000 26.0351 0.0000 0.0000
# 5 0.0000 0.0000 0.0000 0.0000 18.9413 0.0000
# 6 0.0000 0.0000 0.0000 0.0000 0.0000 33.6838
#
#
#
# Elastic Compliance Matrix: (Units=1/GPa)
#
#
# Indices 1 2 3 4 5 6 
#
# 1 0.025442 -0.003636 -0.002342 0.000000 0.000000 0.000000
# 2 -0.003636 0.006444 -0.001279 0.000000 0.000000 0.000000
# 3 -0.002342 -0.001279 0.006700 0.000000 0.000000 0.000000
# 4 0.000000 0.000000 0.000000 0.038410 0.000000 0.000000
# 5 0.000000 0.000000 0.000000 0.000000 0.052795 0.000000
# 6 0.000000 0.000000 0.000000 0.000000 0.000000 0.029688
#
#
# Mechanical properties :
#
#
# Convention : Reuss Voigt Hill
#
# Bulk Modulus (GPa) = 41.53856 65.06022 53.29939
# Shear Modulus (GPa) = 27.47030 35.42229 31.44629
#
# Velocity S-wave (km/s) = 3.45011 3.91778 3.69136
# Velocity P-wave (km/s) = 5.81982 6.97545 6.42368
#
# Compressibility (1/GPa) = 0.02407402
#
# Stress axis : x y z
#
# Youngs Moduli (GPa) = 39.30446 155.19501 149.25513
#
# Poissons Ratio (x) = 0.56427 0.34948
# Poissons Ratio (y) = 0.14291 0.19083
# Poissons Ratio (z) = 0.09203 0.19842
#
# Static dielectric constant tensor:
#      x y z
#    x 1.891170 0.000000 0.000000 
#    y 0.000000 1.954920 0.000000 
#    z 0.000000 0.000000 1.949510 
# 
# From -- ./inp_files/14691.got.cif
#   From: 2010.05.17/outbox.cif.g08.bks.cpg/sg60_8_cif.got.tgz:14691.got - 2010.06.03 14:59:27.
