data_PCOD9455418
_publ_section_title
;
Structure prediction by ZEFSAII (Michael W. Deem and Ramdas Pophale) SiO2 
 PCOD9455418
Probable space group: P B C N
;
_chemical_formula_sum "Si O2"
_cell_formula_units_Z 32
_cell_length_a 14.917649
_cell_length_b 13.592729
_cell_length_c 5.642817
_cell_angle_alpha 90.000000
_cell_angle_beta 90.000000
_cell_angle_gamma 90.000000
_cell_volume 1144.202807
_symmetry_space_group_name_H-M "P B C N"
_symmetry_group_IT_number 60
_symmetry_cell_setting 'orthorhombic'
loop_
_space_group_symop_operation_xyz
x,y,z
1/2-x,1/2-y,1/2+z
1/2+x,1/2-y,-z
-x,y,1/2-z
-x,-y,-z
1/2+x,1/2+y,1/2-z
1/2-x,1/2+y,z
x,-y,1/2+z
loop_
_atom_site_type_symbol
_atom_site_label
_atom_site_fract_x
_atom_site_fract_y
_atom_site_fract_z
Si Si1 0.627900 0.038640 0.317575
Si Si2 0.329571 0.221746 0.949983
Si Si3 0.500000 0.606120 0.750000
Si Si4 0.695736 0.587842 0.797039
Si Si5 0.000000 0.225503 0.250000
O O1 0.630061 0.156644 0.336004
O O2 0.590662 0.001463 0.068588
O O3 0.729319 0.993624 0.326571
O O4 0.312214 0.336200 0.985390
O O5 0.238756 0.165850 0.886556
O O6 0.407621 0.213738 0.754987
O O7 0.404135 0.551364 0.757855
O O8 0.499521 0.666669 0.501215
#
# Coordination Sequence:
#
# PCOD9455418 Si02
#       5
#     8   8   4   8   4
#     4  10  22  38  58  90 124 160 204 246 304 368
#     4  10  20  38  64  91 124 163 204 256 309 367
#     4  10  22  38  62  94 122 160 210 256 308 362
#     4  10  20  38  64  91 124 163 204 256 309 367
#     4  10  22  38  62  94 122 160 210 256 308 362
#
# _framework density 27.967071000000001
#
# number of rings (size 3 to 8) (size 9 to 14) (size 15 to 20)
#    0.000    2.000    0.000    3.000    0.000   12.000 
#    0.000   10.000    0.000    6.000    0.000    0.000 
#    0.000    0.000    0.000    0.000    0.000    0.000 
#
# Total GULP energy -178828.710885 kJ/mol
# GULP energy per Si atom -5588.397215 kJ/mol
# Density = 2.790342 g / cm^3
# Si number density = 27.967071 Si / 1000 Ang^3
#
#
#
# Elastic Constant Matrix: (Units=GPa)
#
#
# Indices 1 2 3 4 5 6 
#
# 1 180.9778 35.6071 55.7452 0.0000 0.0000 0.0000
# 2 35.6071 110.7887 44.4019 0.0000 0.0000 0.0000
# 3 55.7452 44.4019 187.7711 0.0000 0.0000 0.0000
# 4 0.0000 0.0000 0.0000 75.2941 0.0000 0.0000
# 5 0.0000 0.0000 0.0000 0.0000 27.0138 0.0000
# 6 0.0000 0.0000 0.0000 0.0000 0.0000 3.9006
#
#
#
# Elastic Compliance Matrix: (Units=1/GPa)
#
#
# Indices 1 2 3 4 5 6 
#
# 1 0.006273 -0.001403 -0.001531 0.000000 0.000000 0.000000
# 2 -0.001403 0.010285 -0.002016 0.000000 0.000000 0.000000
# 3 -0.001531 -0.002016 0.006257 0.000000 0.000000 0.000000
# 4 0.000000 0.000000 0.000000 0.013281 0.000000 0.000000
# 5 0.000000 0.000000 0.000000 0.000000 0.037018 0.000000
# 6 0.000000 0.000000 0.000000 0.000000 0.000000 0.256368
#
#
# Mechanical properties :
#
#
# Convention : Reuss Voigt Hill
#
# Bulk Modulus (GPa) = 77.41941 83.44956 80.43448
# Shear Modulus (GPa) = 14.54819 44.16061 29.35440
#
# Velocity S-wave (km/s) = 2.28324 3.97800 3.24328
# Velocity P-wave (km/s) = 5.89011 7.14161 6.54584
#
# Compressibility (1/GPa) = 0.01291666
#
# Stress axis : x y z
#
# Youngs Moduli (GPa) = 159.41390 97.23072 159.82935
#
# Poissons Ratio (x) = 0.13638 0.24464
# Poissons Ratio (y) = 0.22360 0.32215
# Poissons Ratio (z) = 0.24400 0.19598
#
# Static dielectric constant tensor:
#      x y z
#    x 2.194390 0.000000 0.000000 
#    y 0.000000 2.128350 0.000000 
#    z 0.000000 0.000000 2.380380 
# 
# From -- ./inp_files/1085.got.cif
#   From: 2010.05.17/outbox.cif.g08.bks.cpg/sg60_1_cif.got.tgz:1085.got - 2010.06.03 14:59:27.
