data_PCOD9455307
_publ_section_title
;
Structure prediction by ZEFSAII (Michael W. Deem and Ramdas Pophale) SiO2 
 PCOD9455307
Probable space group: P B C N
;
_chemical_formula_sum "Si O2"
_cell_formula_units_Z 64
_cell_length_a 14.897434
_cell_length_b 15.214647
_cell_length_c 11.614658
_cell_angle_alpha 90.000000
_cell_angle_beta 90.000000
_cell_angle_gamma 90.000000
_cell_volume 2632.569085
_symmetry_space_group_name_H-M "P B C N"
_symmetry_group_IT_number 60
_symmetry_cell_setting 'orthorhombic'
loop_
_space_group_symop_operation_xyz
x,y,z
1/2-x,1/2-y,1/2+z
1/2+x,1/2-y,-z
-x,y,1/2-z
-x,-y,-z
1/2+x,1/2+y,1/2-z
1/2-x,1/2+y,z
x,-y,1/2+z
loop_
_atom_site_type_symbol
_atom_site_label
_atom_site_fract_x
_atom_site_fract_y
_atom_site_fract_z
Si Si1 0.833671 0.907583 0.259063
Si Si2 0.351052 0.842242 0.219876
Si Si3 0.404275 0.386149 0.989327
Si Si4 0.765213 0.903075 0.684368
Si Si5 0.755315 0.693192 0.407630
Si Si6 0.095941 0.901887 0.470470
Si Si7 0.390007 0.065578 0.499208
Si Si8 0.428380 0.140702 0.959733
O O1 0.742872 0.861623 0.217894
O O2 0.859948 0.874771 0.385232
O O3 0.808503 0.010468 0.244190
O O4 0.908101 0.885644 0.165733
O O5 0.316175 0.769825 0.127554
O O6 0.371432 0.924931 0.136108
O O7 0.420946 0.833399 0.324500
O O8 0.405762 0.492942 0.983324
O O9 0.346760 0.355561 0.880970
O O10 0.507248 0.358729 0.977178
O O11 0.721222 0.847617 0.784202
O O12 0.694771 0.916369 0.581846
O O13 0.689059 0.629200 0.477265
O O14 0.850737 0.694837 0.474057
O O15 0.471422 0.136441 0.485764
O O16 0.409416 0.964300 0.468642
#
# Coordination Sequence:
#
# PCOD9455307 Si02
#       8
#     8   8   8   8   8   8   8   8
#     4  11  19  39  68  94 127 178 239 285 340 413
#     4  12  25  44  72  99 140 186 227 289 370 433
#     4  10  20  37  66  99 128 174 236 282 341 406
#     4  11  22  39  69  96 133 180 230 289 354 420
#     4  12  26  44  67  98 151 183 224 289 372 434
#     4  10  21  38  63  97 134 176 227 285 337 419
#     4  11  24  45  77 105 136 184 254 303 354 424
#     4  11  25  48  74 106 139 186 245 310 356 429
#
# _framework density 24.310855
#
# number of rings (size 3 to 8) (size 9 to 14) (size 15 to 20)
#    0.000    1.000    5.000    2.250    1.750    1.000 
#    6.750    0.000    2.750    0.000    0.000    0.000 
#    0.000    0.000    0.000    0.000    0.000    0.000 
#
# Total GULP energy -357065.533410 kJ/mol
# GULP energy per Si atom -5579.148960 kJ/mol
# Density = 2.425552 g / cm^3
# Si number density = 24.310855 Si / 1000 Ang^3
#
#
#
# Elastic Constant Matrix: (Units=GPa)
#
#
# Indices 1 2 3 4 5 6 
#
# 1 103.4568 8.6439 35.8481 0.0000 0.0000 0.0000
# 2 8.6439 70.2397 16.4538 0.0000 0.0000 0.0000
# 3 35.8481 16.4538 127.9711 0.0000 0.0000 0.0000
# 4 0.0000 0.0000 0.0000 13.9069 0.0000 0.0000
# 5 0.0000 0.0000 0.0000 0.0000 28.0973 0.0000
# 6 0.0000 0.0000 0.0000 0.0000 0.0000 16.6322
#
#
#
# Elastic Compliance Matrix: (Units=1/GPa)
#
#
# Indices 1 2 3 4 5 6 
#
# 1 0.010732 -0.000636 -0.002925 0.000000 0.000000 0.000000
# 2 -0.000636 0.014717 -0.001714 0.000000 0.000000 0.000000
# 3 -0.002925 -0.001714 0.008854 0.000000 0.000000 0.000000
# 4 0.000000 0.000000 0.000000 0.071907 0.000000 0.000000
# 5 0.000000 0.000000 0.000000 0.000000 0.035591 0.000000
# 6 0.000000 0.000000 0.000000 0.000000 0.000000 0.060124
#
#
# Mechanical properties :
#
#
# Convention : Reuss Voigt Hill
#
# Bulk Modulus (GPa) = 42.09795 47.06211 44.58003
# Shear Modulus (GPa) = 22.68686 27.77540 25.23113
#
# Velocity S-wave (km/s) = 3.05814 3.38377 3.22507
# Velocity P-wave (km/s) = 5.46112 5.88787 5.67850
#
# Compressibility (1/GPa) = 0.02375413
#
# Stress axis : x y z
#
# Youngs Moduli (GPa) = 93.17583 67.94991 112.94405
#
# Poissons Ratio (x) = 0.04319 0.33033
# Poissons Ratio (y) = 0.05923 0.19360
# Poissons Ratio (z) = 0.27251 0.11647
#
# Static dielectric constant tensor:
#      x y z
#    x 1.987700 0.000000 0.000000 
#    y 0.000000 2.042740 0.000000 
#    z 0.000000 0.000000 1.905830 
# 
# From -- ./inp_files/12135.got.cif
#   From: 2010.05.17/outbox.cif.g08.bks.cpg/sg60_7_cif.got.tgz:12135.got - 2010.06.03 14:59:27.
