data_PCOD9455475
_publ_section_title
;
Structure prediction by ZEFSAII (Michael W. Deem and Ramdas Pophale) SiO2 
 PCOD9455475
Probable space group: P B C N
;
_chemical_formula_sum "Si O2"
_cell_formula_units_Z 48
_cell_length_a 15.717339
_cell_length_b 9.646426
_cell_length_c 14.213986
_cell_angle_alpha 90.000000
_cell_angle_beta 90.000000
_cell_angle_gamma 90.000000
_cell_volume 2155.069799
_symmetry_space_group_name_H-M "P B C N"
_symmetry_group_IT_number 60
_symmetry_cell_setting 'orthorhombic'
loop_
_space_group_symop_operation_xyz
x,y,z
1/2-x,1/2-y,1/2+z
1/2+x,1/2-y,-z
-x,y,1/2-z
-x,-y,-z
1/2+x,1/2+y,1/2-z
1/2-x,1/2+y,z
x,-y,1/2+z
loop_
_atom_site_type_symbol
_atom_site_label
_atom_site_fract_x
_atom_site_fract_y
_atom_site_fract_z
Si Si1 0.208654 0.650863 0.680286
Si Si2 0.698598 0.250204 0.137231
Si Si3 0.585053 0.386240 0.792021
Si Si4 0.604152 0.353537 0.410411
Si Si5 0.835483 0.041081 0.093506
Si Si6 0.414039 0.100191 0.209962
O O1 0.234825 0.680153 0.788954
O O2 0.146502 0.778283 0.656386
O O3 0.296120 0.645728 0.622522
O O4 0.155964 0.509535 0.677053
O O5 0.746058 0.123007 0.087979
O O6 0.670827 0.377873 0.072542
O O7 0.625870 0.189708 0.204543
O O8 0.500000 0.319396 0.750000
O O9 0.562641 0.517435 0.856255
O O10 0.634567 0.445374 0.701016
O O11 0.603260 0.381516 0.520731
O O12 0.567834 0.209331 0.373200
O O13 0.500000 0.034589 0.250000
#
# Coordination Sequence:
#
# PCOD9455475 Si02
#       6
#     8   8   8   8   8   8
#     4  10  20  40  62  85 118 160 203 241 293 358
#     4  10  20  39  60  87 115 161 196 249 292 351
#     4  11  23  42  62  89 126 160 195 248 311 359
#     4  11  23  38  64  91 117 158 209 250 289 358
#     4  11  23  38  64  89 123 156 209 247 298 350
#     4  11  21  39  61  89 123 157 198 250 302 355
#
# _framework density 22.273060000000001
#
# number of rings (size 3 to 8) (size 9 to 14) (size 15 to 20)
#    0.000    1.333    5.000    3.000    4.667    0.667 
#    0.000    0.000    0.000    4.000    0.000    0.000 
#    0.000    0.000    0.000    0.000    0.000    0.000 
#
# Total GULP energy -268294.101519 kJ/mol
# GULP energy per Si atom -5589.460448 kJ/mol
# Density = 2.222237 g / cm^3
# Si number density = 22.273060 Si / 1000 Ang^3
#
#
#
# Elastic Constant Matrix: (Units=GPa)
#
#
# Indices 1 2 3 4 5 6 
#
# 1 38.4253 9.5548 -21.5140 0.0000 0.0000 0.0000
# 2 9.5548 80.6441 -3.1295 0.0000 0.0000 0.0000
# 3 -21.5140 -3.1295 50.7661 0.0000 0.0000 0.0000
# 4 0.0000 0.0000 0.0000 7.5108 0.0000 0.0000
# 5 0.0000 0.0000 0.0000 0.0000 10.5432 0.0000
# 6 0.0000 0.0000 0.0000 0.0000 0.0000 12.5712
#
#
#
# Elastic Compliance Matrix: (Units=1/GPa)
#
#
# Indices 1 2 3 4 5 6 
#
# 1 0.035129 -0.003593 0.014666 0.000000 0.000000 0.000000
# 2 -0.003593 0.012797 -0.000734 0.000000 0.000000 0.000000
# 3 0.014666 -0.000734 0.025868 0.000000 0.000000 0.000000
# 4 0.000000 0.000000 0.000000 0.133142 0.000000 0.000000
# 5 0.000000 0.000000 0.000000 0.000000 0.094848 0.000000
# 6 0.000000 0.000000 0.000000 0.000000 0.000000 0.079547
#
#
# Mechanical properties :
#
#
# Convention : Reuss Voigt Hill
#
# Bulk Modulus (GPa) = 10.58506 15.51756 13.05131
# Shear Modulus (GPa) = 12.75041 18.45332 15.60187
#
# Velocity S-wave (km/s) = 2.39521 2.88150 2.64953
# Velocity P-wave (km/s) = 3.52308 4.24886 3.90288
#
# Compressibility (1/GPa) = 0.09447275
#
# Stress axis : x y z
#
# Youngs Moduli (GPa) = 28.46636 78.14089 38.65761
#
# Poissons Ratio (x) = 0.28076 -0.56694
# Poissons Ratio (y) = 0.10228 0.02837
# Poissons Ratio (z) = -0.41748 0.05734
#
# Static dielectric constant tensor:
#      x y z
#    x 1.855180 0.000000 0.000000 
#    y 0.000000 1.822500 0.000000 
#    z 0.000000 0.000000 1.823660 
# 
# From -- ./inp_files/17304.got.cif
#   From: 2010.05.17/outbox.cif.g08.bks.cpg/sg60_9_cif.got.tgz:17304.got - 2010.06.03 14:59:27.
