data_PCOD9455269
_publ_section_title
;
Structure prediction by ZEFSAII (Michael W. Deem and Ramdas Pophale) SiO2 
 PCOD9455269
Probable space group: P B C N
;
_chemical_formula_sum "Si O2"
_cell_formula_units_Z 44
_cell_length_a 14.796625
_cell_length_b 17.797287
_cell_length_c 8.034005
_cell_angle_alpha 90.000000
_cell_angle_beta 90.000000
_cell_angle_gamma 90.000000
_cell_volume 2115.673123
_symmetry_space_group_name_H-M "P B C N"
_symmetry_group_IT_number 60
_symmetry_cell_setting 'orthorhombic'
loop_
_space_group_symop_operation_xyz
x,y,z
1/2-x,1/2-y,1/2+z
1/2+x,1/2-y,-z
-x,y,1/2-z
-x,-y,-z
1/2+x,1/2+y,1/2-z
1/2-x,1/2+y,z
x,-y,1/2+z
loop_
_atom_site_type_symbol
_atom_site_label
_atom_site_fract_x
_atom_site_fract_y
_atom_site_fract_z
Si Si1 0.851317 0.545267 0.215017
Si Si2 0.898897 0.305496 0.068531
Si Si3 0.500000 0.064724 0.750000
Si Si4 0.500000 0.685408 0.250000
Si Si5 0.500000 0.833339 0.750000
Si Si6 0.038134 0.920248 0.435343
Si Si7 0.250796 0.415467 0.479787
O O1 0.920808 0.489482 0.313169
O O2 0.920422 0.613067 0.171968
O O3 0.801469 0.488464 0.091716
O O4 0.771308 0.579336 0.325217
O O5 0.955500 0.379953 0.118441
O O6 0.797783 0.337502 0.071030
O O7 0.918001 0.241314 0.201948
O O8 0.944717 0.287275 0.890072
O O9 0.515400 0.637123 0.415182
O O10 0.146567 0.921071 0.427681
O O11 0.000000 0.904514 0.250000
O O12 0.000000 0.000000 0.500000
#
# Coordination Sequence:
#
# PCOD9455269 Si02
#       7
#     8   8   4   4   4   8   8
#     4   9  16  28  56  93 134 165 208 258 316 383
#     4   9  19  37  60  92 132 168 211 257 333 405
#     4   8  14  28  52  88 134 172 196 248 324 394
#     4  11  26  47  67  90 129 174 206 276 337 404
#     4   9  16  29  57  98 135 174 202 250 325 406
#     4  12  26  48  72  93 123 171 228 282 336 384
#     4  10  20  37  61  97 126 167 218 272 320 388
#
# _framework density 20.797163999999999
#
# number of rings (size 3 to 8) (size 9 to 14) (size 15 to 20)
#    0.000    2.182    0.909    2.182    1.273    4.364 
#    3.273    0.000    0.000    0.000    0.000    0.000 
#    0.000    0.000    0.000    0.000    0.000    0.000 
#
# Total GULP energy -244977.805570 kJ/mol
# GULP energy per Si atom -5567.677399 kJ/mol
# Density = 2.074983 g / cm^3
# Si number density = 20.797164 Si / 1000 Ang^3
#
#
#
# Elastic Constant Matrix: (Units=GPa)
#
#
# Indices 1 2 3 4 5 6 
#
# 1 150.6556 32.5129 58.2753 0.0000 0.0000 0.0000
# 2 32.5129 92.0769 51.4896 0.0000 0.0000 0.0000
# 3 58.2753 51.4896 102.3776 0.0000 0.0000 0.0000
# 4 0.0000 0.0000 0.0000 34.4916 0.0000 0.0000
# 5 0.0000 0.0000 0.0000 0.0000 27.6368 0.0000
# 6 0.0000 0.0000 0.0000 0.0000 0.0000 1.6607
#
#
#
# Elastic Compliance Matrix: (Units=1/GPa)
#
#
# Indices 1 2 3 4 5 6 
#
# 1 0.008523 -0.000413 -0.004644 0.000000 0.000000 0.000000
# 2 -0.000413 0.015130 -0.007375 0.000000 0.000000 0.000000
# 3 -0.004644 -0.007375 0.016120 0.000000 0.000000 0.000000
# 4 0.000000 0.000000 0.000000 0.028993 0.000000 0.000000
# 5 0.000000 0.000000 0.000000 0.000000 0.036184 0.000000
# 6 0.000000 0.000000 0.000000 0.000000 0.000000 0.602157
#
#
# Mechanical properties :
#
#
# Convention : Reuss Voigt Hill
#
# Bulk Modulus (GPa) = 67.06506 69.96285 68.51396
# Shear Modulus (GPa) = 6.78482 26.27997 16.53240
#
# Velocity S-wave (km/s) = 1.80816 3.55862 2.82252
# Velocity P-wave (km/s) = 6.05611 7.11327 6.60587
#
# Compressibility (1/GPa) = 0.01491089
#
# Stress axis : x y z
#
# Youngs Moduli (GPa) = 117.32899 66.09344 62.03409
#
# Poissons Ratio (x) = 0.02727 0.28808
# Poissons Ratio (y) = 0.04841 0.45748
# Poissons Ratio (z) = 0.54487 0.48741
#
# Static dielectric constant tensor:
#      x y z
#    x 1.738380 0.000000 0.000000 
#    y 0.000000 1.759620 0.000000 
#    z 0.000000 0.000000 1.874500 
# 
# From -- ./inp_files/5871.got.cif
#   From: 2010.05.17/outbox.cif.g08.bks.cpg/sg60_3_cif.got.tgz:5871.got - 2010.06.03 14:59:27.
