data_PCOD9455125
_publ_section_title
;
Structure prediction by ZEFSAII (Michael W. Deem and Ramdas Pophale) SiO2 
 PCOD9455125
Probable space group: P B C N
;
_chemical_formula_sum "Si O2"
_cell_formula_units_Z 60
_cell_length_a 28.041791
_cell_length_b 5.917686
_cell_length_c 17.419809
_cell_angle_alpha 90.000000
_cell_angle_beta 90.000000
_cell_angle_gamma 90.000000
_cell_volume 2890.686899
_symmetry_space_group_name_H-M "P B C N"
_symmetry_group_IT_number 60
_symmetry_cell_setting 'orthorhombic'
loop_
_space_group_symop_operation_xyz
x,y,z
1/2-x,1/2-y,1/2+z
1/2+x,1/2-y,-z
-x,y,1/2-z
-x,-y,-z
1/2+x,1/2+y,1/2-z
1/2-x,1/2+y,z
x,-y,1/2+z
loop_
_atom_site_type_symbol
_atom_site_label
_atom_site_fract_x
_atom_site_fract_y
_atom_site_fract_z
Si Si1 0.232633 0.030777 0.695563
Si Si2 0.040568 0.038036 0.108820
Si Si3 0.267983 0.545073 0.879299
Si Si4 0.903244 0.528878 0.183809
Si Si5 0.374382 0.407380 0.870355
Si Si6 0.000000 0.681455 0.750000
Si Si7 0.624298 0.615993 0.791552
Si Si8 0.446693 0.667228 0.949272
O O1 0.249222 0.282681 0.666681
O O2 0.175683 0.029653 0.685728
O O3 0.242449 0.039018 0.787544
O O4 0.016019 0.167702 0.178468
O O5 0.086222 0.913458 0.142450
O O6 0.054400 0.206123 0.039635
O O7 0.001137 0.868146 0.075246
O O8 0.250738 0.795320 0.908147
O O9 0.325510 0.532931 0.888343
O O10 0.867112 0.353481 0.145452
O O11 0.953526 0.454402 0.221718
O O12 0.874558 0.636855 0.254637
O O13 0.920546 0.671222 0.110234
O O14 0.392659 0.484059 0.785644
O O15 0.416075 0.440059 0.931922
#
# Coordination Sequence:
#
# PCOD9455125 Si02
#       8
#     8   8   8   8   8   4   8   8
#     4   9  19  32  55  86 124 153 198 261 324 371
#     4  11  21  41  57  85 120 161 199 252 305 376
#     4   9  19  31  54  86 117 156 200 255 314 367
#     4  11  21  35  58  86 114 159 200 252 305 365
#     4  10  20  36  57  83 119 151 198 253 299 364
#     4  12  20  36  62  84 120 156 210 254 304 368
#     4  10  21  35  59  84 116 155 203 252 308 367
#     4  10  23  39  57  80 124 159 199 245 312 370
#
# _framework density 20.756312999999999
#
# number of rings (size 3 to 8) (size 9 to 14) (size 15 to 20)
#    0.000    1.867    2.667    1.600   11.200    0.533 
#    2.400    0.000    0.000    1.600    0.000    0.000 
#    0.000    0.000    0.000    0.000    0.000    0.000 
#
# Total GULP energy -334003.003764 kJ/mol
# GULP energy per Si atom -5566.716729 kJ/mol
# Density = 2.070907 g / cm^3
# Si number density = 20.756313 Si / 1000 Ang^3
#
#
#
# Elastic Constant Matrix: (Units=GPa)
#
#
# Indices 1 2 3 4 5 6 
#
# 1 68.1530 21.9208 32.5410 0.0000 0.0000 0.0000
# 2 21.9208 73.9307 15.5579 0.0000 0.0000 0.0000
# 3 32.5410 15.5579 80.5207 0.0000 0.0000 0.0000
# 4 0.0000 0.0000 0.0000 77.1735 0.0000 0.0000
# 5 0.0000 0.0000 0.0000 0.0000 3.1525 0.0000
# 6 0.0000 0.0000 0.0000 0.0000 0.0000 45.0195
#
#
#
# Elastic Compliance Matrix: (Units=1/GPa)
#
#
# Indices 1 2 3 4 5 6 
#
# 1 0.019396 -0.004275 -0.007013 0.000000 0.000000 0.000000
# 2 -0.004275 0.015042 -0.001179 0.000000 0.000000 0.000000
# 3 -0.007013 -0.001179 0.015481 0.000000 0.000000 0.000000
# 4 0.000000 0.000000 0.000000 0.012958 0.000000 0.000000
# 5 0.000000 0.000000 0.000000 0.000000 0.317211 0.000000
# 6 0.000000 0.000000 0.000000 0.000000 0.000000 0.022213
#
#
# Mechanical properties :
#
#
# Convention : Reuss Voigt Hill
#
# Bulk Modulus (GPa) = 40.02230 40.29377 40.15803
# Shear Modulus (GPa) = 11.47941 35.24140 23.36040
#
# Velocity S-wave (km/s) = 2.35427 4.12498 3.35843
# Velocity P-wave (km/s) = 5.16855 6.49171 5.86755
#
# Compressibility (1/GPa) = 0.02498607
#
# Stress axis : x y z
#
# Youngs Moduli (GPa) = 51.55624 66.48116 64.59584
#
# Poissons Ratio (x) = 0.28423 0.45298
# Poissons Ratio (y) = 0.22042 0.07613
# Poissons Ratio (z) = 0.36154 0.07835
#
# Static dielectric constant tensor:
#      x y z
#    x 1.746310 0.000000 0.000000 
#    y 0.000000 2.021660 0.000000 
#    z 0.000000 0.000000 1.716740 
# 
# From -- ./inp_files/21281.got.cif
#   From: 2010.05.17/outbox.cif.g08.bks.cpg/sg60_11_cif.got.tgz:21281.got - 2010.06.03 14:59:27.
