data_PCOD9455530
_publ_section_title
;
Structure prediction by ZEFSAII (Michael W. Deem and Ramdas Pophale) SiO2 
 PCOD9455530
Probable space group: P B C N
;
_chemical_formula_sum "Si O2"
_cell_formula_units_Z 28
_cell_length_a 7.537042
_cell_length_b 14.106225
_cell_length_c 10.039241
_cell_angle_alpha 90.000000
_cell_angle_beta 90.000000
_cell_angle_gamma 90.000000
_cell_volume 1067.364175
_symmetry_space_group_name_H-M "P B C N"
_symmetry_group_IT_number 60
_symmetry_cell_setting 'orthorhombic'
loop_
_space_group_symop_operation_xyz
x,y,z
1/2-x,1/2-y,1/2+z
1/2+x,1/2-y,-z
-x,y,1/2-z
-x,-y,-z
1/2+x,1/2+y,1/2-z
1/2-x,1/2+y,z
x,-y,1/2+z
loop_
_atom_site_type_symbol
_atom_site_label
_atom_site_fract_x
_atom_site_fract_y
_atom_site_fract_z
Si Si1 0.500000 0.604094 0.750000
Si Si2 0.527820 0.313236 0.955108
Si Si3 0.743255 0.964659 0.636905
Si Si4 0.104848 0.370954 0.549037
O O1 0.476240 0.665437 0.884237
O O2 0.326894 0.533794 0.749915
O O3 0.462156 0.206197 0.942300
O O4 0.398295 0.392510 0.899513
O O5 0.720854 0.322645 0.888563
O O6 0.564250 0.903046 0.632583
O O7 0.692742 0.039137 0.521814
#
# Coordination Sequence:
#
# PCOD9455530 Si02
#       4
#     4   8   8   8
#     4  10  22  40  64  96 128 168 226 268 322 408
#     4  11  21  43  64  93 131 176 221 274 334 399
#     4  10  22  43  62  92 133 173 217 274 337 387
#     4  10  20  39  67  89 128 179 212 267 336 393
#
# _framework density 26.232848000000001
#
# number of rings (size 3 to 8) (size 9 to 14) (size 15 to 20)
#    0.000    1.714    2.857    3.429    0.000    0.000 
#   10.286   17.143    0.000    0.000    0.000    0.000 
#    0.000    0.000    0.000    0.000    0.000    0.000 
#
# Total GULP energy -156443.367340 kJ/mol
# GULP energy per Si atom -5587.263119 kJ/mol
# Density = 2.617314 g / cm^3
# Si number density = 26.232848 Si / 1000 Ang^3
#
#
#
# Elastic Constant Matrix: (Units=GPa)
#
#
# Indices 1 2 3 4 5 6 
#
# 1 205.2027 28.7504 11.2997 0.0000 0.0000 0.0000
# 2 28.7504 90.2405 2.5466 0.0000 0.0000 0.0000
# 3 11.2997 2.5466 70.0444 0.0000 0.0000 0.0000
# 4 0.0000 0.0000 0.0000 36.3967 0.0000 0.0000
# 5 0.0000 0.0000 0.0000 0.0000 18.5338 0.0000
# 6 0.0000 0.0000 0.0000 0.0000 0.0000 76.4076
#
#
#
# Elastic Compliance Matrix: (Units=1/GPa)
#
#
# Indices 1 2 3 4 5 6 
#
# 1 0.005142 -0.001617 -0.000771 0.000000 0.000000 0.000000
# 2 -0.001617 0.011601 -0.000161 0.000000 0.000000 0.000000
# 3 -0.000771 -0.000161 0.014407 0.000000 0.000000 0.000000
# 4 0.000000 0.000000 0.000000 0.027475 0.000000 0.000000
# 5 0.000000 0.000000 0.000000 0.000000 0.053956 0.000000
# 6 0.000000 0.000000 0.000000 0.000000 0.000000 0.013088
#
#
# Mechanical properties :
#
#
# Convention : Reuss Voigt Hill
#
# Bulk Modulus (GPa) = 38.38257 50.07566 44.22912
# Shear Modulus (GPa) = 35.85529 47.79368 41.82449
#
# Velocity S-wave (km/s) = 3.70105 4.27301 3.99727
# Velocity P-wave (km/s) = 5.73820 6.59357 6.18070
#
# Compressibility (1/GPa) = 0.02605349
#
# Stress axis : x y z
#
# Youngs Moduli (GPa) = 194.47074 86.19900 69.41140
#
# Poissons Ratio (x) = 0.13934 0.05350
# Poissons Ratio (y) = 0.31437 0.01117
# Poissons Ratio (z) = 0.14989 0.01388
#
# Static dielectric constant tensor:
#      x y z
#    x 2.050570 0.000000 0.000000 
#    y 0.000000 2.068300 0.000000 
#    z 0.000000 0.000000 1.039700 
# 
# From -- ./inp_files/14470.got.cif
#   From: 2010.05.17/outbox.cif.g08.bks.cpg/sg60_8_cif.got.tgz:14470.got - 2010.06.03 14:59:27.
