data_PCOD9455745
_publ_section_title
;
Structure prediction by ZEFSAII (Michael W. Deem and Ramdas Pophale) SiO2 
 PCOD9455745
Probable space group: P B C N
;
_chemical_formula_sum "Si O2"
_cell_formula_units_Z 32
_cell_length_a 7.243325
_cell_length_b 31.144563
_cell_length_c 5.789985
_cell_angle_alpha 90.000000
_cell_angle_beta 90.000000
_cell_angle_gamma 90.000000
_cell_volume 1306.163827
_symmetry_space_group_name_H-M "P B C N"
_symmetry_group_IT_number 60
_symmetry_cell_setting 'orthorhombic'
loop_
_space_group_symop_operation_xyz
x,y,z
1/2-x,1/2-y,1/2+z
1/2+x,1/2-y,-z
-x,y,1/2-z
-x,-y,-z
1/2+x,1/2+y,1/2-z
1/2-x,1/2+y,z
x,-y,1/2+z
loop_
_atom_site_type_symbol
_atom_site_label
_atom_site_fract_x
_atom_site_fract_y
_atom_site_fract_z
Si Si1 0.701084 0.391984 0.867847
Si Si2 0.000000 0.263292 0.250000
Si Si3 0.792685 0.512861 0.280669
Si Si4 0.273254 0.807135 0.893619
Si Si5 0.500000 0.349968 0.250000
O O1 0.500000 0.397131 0.750000
O O2 0.801092 0.436469 0.830700
O O3 0.790587 0.350152 0.754623
O O4 0.652235 0.379839 0.129280
O O5 0.820573 0.233002 0.234005
O O6 0.955124 0.292638 0.470468
O O7 0.710022 0.493733 0.521169
O O8 0.000000 0.494489 0.250000
O O9 0.111192 0.820317 0.074393
#
# Coordination Sequence:
#
# PCOD9455745 Si02
#       5
#     8   4   8   8   4
#     4  10  23  42  67  99 135 179 230 285 360 422
#     4  12  24  44  68  95 140 182 237 290 356 418
#     4  10  24  45  68 100 140 181 233 295 354 434
#     4  11  24  43  64 100 136 183 229 291 348 426
#     4  10  20  44  64  95 138 180 229 292 346 430
#
# _framework density 24.499226
#
# number of rings (size 3 to 8) (size 9 to 14) (size 15 to 20)
#    0.000    1.500    3.750    1.500    7.000    3.000 
#    2.250    0.000    0.000    0.000    0.000    0.000 
#    0.000    0.000    0.000    0.000    0.000    0.000 
#
# Total GULP energy -178921.310793 kJ/mol
# GULP energy per Si atom -5591.290962 kJ/mol
# Density = 2.444346 g / cm^3
# Si number density = 24.499226 Si / 1000 Ang^3
#
#
#
# Elastic Constant Matrix: (Units=GPa)
#
#
# Indices 1 2 3 4 5 6 
#
# 1 78.3197 19.0740 9.2385 0.0000 0.0000 0.0000
# 2 19.0740 162.5198 71.0671 0.0000 0.0000 0.0000
# 3 9.2385 71.0671 141.5256 0.0000 0.0000 0.0000
# 4 0.0000 0.0000 0.0000 32.1465 0.0000 0.0000
# 5 0.0000 0.0000 0.0000 0.0000 33.7010 0.0000
# 6 0.0000 0.0000 0.0000 0.0000 0.0000 33.9436
#
#
#
# Elastic Compliance Matrix: (Units=1/GPa)
#
#
# Indices 1 2 3 4 5 6 
#
# 1 0.013145 -0.001496 -0.000107 0.000000 0.000000 0.000000
# 2 -0.001496 0.008055 -0.003947 0.000000 0.000000 0.000000
# 3 -0.000107 -0.003947 0.009055 0.000000 0.000000 0.000000
# 4 0.000000 0.000000 0.000000 0.031108 0.000000 0.000000
# 5 0.000000 0.000000 0.000000 0.000000 0.029673 0.000000
# 6 0.000000 0.000000 0.000000 0.000000 0.000000 0.029461
#
#
# Mechanical properties :
#
#
# Convention : Reuss Voigt Hill
#
# Bulk Modulus (GPa) = 52.20615 64.56938 58.38777
# Shear Modulus (GPa) = 36.23709 38.82392 37.53050
#
# Velocity S-wave (km/s) = 3.85009 3.98515 3.91820
# Velocity P-wave (km/s) = 6.41248 6.89841 6.65988
#
# Compressibility (1/GPa) = 0.01915483
#
# Stress axis : x y z
#
# Youngs Moduli (GPa) = 76.07382 124.15231 110.43860
#
# Poissons Ratio (x) = 0.18574 0.01180
# Poissons Ratio (y) = 0.11381 0.43590
# Poissons Ratio (z) = 0.00813 0.49003
#
# Static dielectric constant tensor:
#      x y z
#    x 1.956200 0.000000 0.000000 
#    y 0.000000 1.858780 0.000000 
#    z 0.000000 0.000000 2.078980 
# 
# From -- ./inp_files/409.got.cif
#   From: 2010.05.17/outbox.cif.g08.bks.cpg/sg60_1_cif.got.tgz:409.got - 2010.06.03 14:59:27.
