data_PCOD9455120
_publ_section_title
;
Structure prediction by ZEFSAII (Michael W. Deem and Ramdas Pophale) SiO2 
 PCOD9455120
Probable space group: P B C N
;
_chemical_formula_sum "Si O2"
_cell_formula_units_Z 40
_cell_length_a 8.573164
_cell_length_b 23.106194
_cell_length_c 9.955794
_cell_angle_alpha 90.000000
_cell_angle_beta 90.000000
_cell_angle_gamma 90.000000
_cell_volume 1972.174998
_symmetry_space_group_name_H-M "P B C N"
_symmetry_group_IT_number 60
_symmetry_cell_setting 'orthorhombic'
loop_
_space_group_symop_operation_xyz
x,y,z
1/2-x,1/2-y,1/2+z
1/2+x,1/2-y,-z
-x,y,1/2-z
-x,-y,-z
1/2+x,1/2+y,1/2-z
1/2-x,1/2+y,z
x,-y,1/2+z
loop_
_atom_site_type_symbol
_atom_site_label
_atom_site_fract_x
_atom_site_fract_y
_atom_site_fract_z
Si Si1 0.840162 0.327633 0.487582
Si Si2 0.179298 0.153595 0.226141
Si Si3 0.097338 0.742273 0.112014
Si Si4 0.176777 0.021804 0.269014
Si Si5 0.856262 0.540121 0.956257
O O1 0.774791 0.336366 0.637610
O O2 0.693534 0.300852 0.409519
O O3 0.893552 0.391604 0.445822
O O4 0.978229 0.280513 0.498543
O O5 0.271905 0.192064 0.120917
O O6 0.184181 0.085225 0.199318
O O7 0.000000 0.170078 0.250000
O O8 0.000000 0.746607 0.250000
O O9 0.229067 0.030694 0.423427
O O10 0.000000 0.000933 0.250000
O O11 0.290998 0.981151 0.185775
O O12 0.000000 0.500000 0.000000
#
# Coordination Sequence:
#
# PCOD9455120 Si02
#       5
#     8   8   8   8   8
#     4  10  21  36  57  82 114 149 188 235 285 338
#     4   9  18  35  58  80 108 149 191 233 286 343
#     4  10  20  36  56  82 112 147 188 234 285 342
#     4  10  21  38  60  85 116 154 194 237 287 344
#     4  11  22  39  60  87 118 153 194 239 288 343
#
# _framework density 20.282174000000001
#
# number of rings (size 3 to 8) (size 9 to 14) (size 15 to 20)
#    0.000    2.000    0.000    3.600    0.000    4.000 
#    0.000   16.000    0.000    0.000    0.000    0.000 
#    0.000    0.000    0.000    0.000    0.000    0.000 
#
# Total GULP energy -223150.061231 kJ/mol
# GULP energy per Si atom -5578.751531 kJ/mol
# Density = 2.023601 g / cm^3
# Si number density = 20.282174 Si / 1000 Ang^3
#
#
#
# Elastic Constant Matrix: (Units=GPa)
#
#
# Indices 1 2 3 4 5 6 
#
# 1 89.3053 46.7537 -3.1805 0.0000 0.0000 0.0000
# 2 46.7537 99.5199 14.3242 0.0000 0.0000 0.0000
# 3 -3.1805 14.3242 27.7793 0.0000 0.0000 0.0000
# 4 0.0000 0.0000 0.0000 -13.1587 0.0000 0.0000
# 5 0.0000 0.0000 0.0000 0.0000 24.9120 0.0000
# 6 0.0000 0.0000 0.0000 0.0000 0.0000 33.8897
#
#
#
# Elastic Compliance Matrix: (Units=1/GPa)
#
#
# Indices 1 2 3 4 5 6 
#
# 1 0.015743 -0.008269 0.006066 0.000000 0.000000 0.000000
# 2 -0.008269 0.015197 -0.008783 0.000000 0.000000 0.000000
# 3 0.006066 -0.008783 0.041221 0.000000 0.000000 0.000000
# 4 0.000000 0.000000 0.000000 -0.075995 0.000000 0.000000
# 5 0.000000 0.000000 0.000000 0.000000 0.040141 0.000000
# 6 0.000000 0.000000 0.000000 0.000000 0.000000 0.029508
#
#
# Mechanical properties :
#
#
# Convention : Reuss Voigt Hill
#
# Bulk Modulus (GPa) = 19.92442 36.93325 28.42883
# Shear Modulus (GPa) = 47.83979 19.70906 33.77443
#
# Velocity S-wave (km/s) = 4.86193 3.12066 4.08515
# Velocity P-wave (km/s) = 6.43138 5.58873 6.02481
#
# Compressibility (1/GPa) = 0.05018966
#
# Stress axis : x y z
#
# Youngs Moduli (GPa) = 63.52218 65.80237 24.25927
#
# Poissons Ratio (x) = 0.54411 -0.14716
# Poissons Ratio (y) = 0.52525 0.21307
# Poissons Ratio (z) = -0.38533 0.57794
#
# Static dielectric constant tensor:
#      x y z
#    x 4.836350 0.000000 0.000000 
#    y 0.000000 1.731960 0.000000 
#    z 0.000000 0.000000 1.783690 
# 
# From -- ./inp_files/3785.got.cif
#   From: 2010.05.17/outbox.cif.g08.bks.cpg/sg60_2_cif.got.tgz:3785.got - 2010.06.03 14:59:27.
