data_PCOD9455548
_publ_section_title
;
Structure prediction by ZEFSAII (Michael W. Deem and Ramdas Pophale) SiO2 
 PCOD9455548
Probable space group: P B C N
;
_chemical_formula_sum "Si O2"
_cell_formula_units_Z 60
_cell_length_a 25.907794
_cell_length_b 13.275091
_cell_length_c 9.842951
_cell_angle_alpha 90.000000
_cell_angle_beta 90.000000
_cell_angle_gamma 90.000000
_cell_volume 3385.269630
_symmetry_space_group_name_H-M "P B C N"
_symmetry_group_IT_number 60
_symmetry_cell_setting 'orthorhombic'
loop_
_space_group_symop_operation_xyz
x,y,z
1/2-x,1/2-y,1/2+z
1/2+x,1/2-y,-z
-x,y,1/2-z
-x,-y,-z
1/2+x,1/2+y,1/2-z
1/2-x,1/2+y,z
x,-y,1/2+z
loop_
_atom_site_type_symbol
_atom_site_label
_atom_site_fract_x
_atom_site_fract_y
_atom_site_fract_z
Si Si1 0.336655 0.178597 0.982640
Si Si2 0.306236 0.720346 0.733664
Si Si3 0.704804 0.494967 0.690064
Si Si4 0.732743 0.996253 0.942270
Si Si5 0.000000 0.486643 0.250000
Si Si6 0.070341 0.470279 0.495863
Si Si7 0.853934 0.653279 0.029676
Si Si8 0.683360 0.720748 0.288826
O O1 0.330336 0.270158 0.084930
O O2 0.285215 0.112240 0.005493
O O3 0.382627 0.104560 0.018895
O O4 0.341531 0.214905 0.830942
O O5 0.315019 0.608154 0.790024
O O6 0.244893 0.748868 0.721144
O O7 0.335975 0.802326 0.826085
O O8 0.717780 0.477056 0.533006
O O9 0.756961 0.496565 0.782730
O O10 0.677625 0.397373 0.754107
O O11 0.689694 0.075866 0.979672
O O12 0.041405 0.438487 0.355689
O O13 0.965159 0.537135 0.369379
O O14 0.094091 0.584466 0.475944
O O15 0.845393 0.745644 0.925402
#
# Coordination Sequence:
#
# PCOD9455548 Si02
#       8
#     8   8   8   8   4   8   8   8
#     4  11  21  34  51  74 105 143 184 211 270 318
#     4  12  21  33  47  71 105 151 195 231 246 295
#     4  12  22  29  46  66 100 144 196 224 247 268
#     4  11  18  31  46  67  94 138 188 221 243 298
#     4  10  20  40  60  90 112 124 164 222 302 346
#     4  10  22  37  62  84 112 138 164 226 281 355
#     4  11  21  34  51  74 105 143 184 211 270 318
#     4  12  21  33  47  71 105 151 195 231 246 295
#
# _framework density 17.723846999999999
#
# number of rings (size 3 to 8) (size 9 to 14) (size 15 to 20)
#    0.000    0.800    5.333    4.000    0.000    4.267 
#    0.000    0.000    0.000    0.000    0.000    0.000 
#    0.000   74.667    0.000    0.000    0.000    0.000 
#
# Total GULP energy -334223.108098 kJ/mol
# GULP energy per Si atom -5570.385135 kJ/mol
# Density = 1.768351 g / cm^3
# Si number density = 17.723847 Si / 1000 Ang^3
#
#
#
# Elastic Constant Matrix: (Units=GPa)
#
#
# Indices 1 2 3 4 5 6 
#
# 1 41.1161 20.6796 17.5215 0.0000 0.0000 0.0000
# 2 20.6796 81.5112 -3.2680 0.0000 0.0000 0.0000
# 3 17.5215 -3.2680 78.7104 0.0000 0.0000 0.0000
# 4 0.0000 0.0000 0.0000 26.4367 0.0000 0.0000
# 5 0.0000 0.0000 0.0000 0.0000 23.9690 0.0000
# 6 0.0000 0.0000 0.0000 0.0000 0.0000 2.6434
#
#
#
# Elastic Compliance Matrix: (Units=1/GPa)
#
#
# Indices 1 2 3 4 5 6 
#
# 1 0.031661 -0.008329 -0.007394 0.000000 0.000000 0.000000
# 2 -0.008329 0.014480 0.002455 0.000000 0.000000 0.000000
# 3 -0.007394 0.002455 0.014453 0.000000 0.000000 0.000000
# 4 0.000000 0.000000 0.000000 0.037826 0.000000 0.000000
# 5 0.000000 0.000000 0.000000 0.000000 0.041721 0.000000
# 6 0.000000 0.000000 0.000000 0.000000 0.000000 0.378303
#
#
# Mechanical properties :
#
#
# Convention : Reuss Voigt Hill
#
# Bulk Modulus (GPa) = 29.36109 30.13375 29.74742
# Shear Modulus (GPa) = 8.98744 21.70345 15.34544
#
# Velocity S-wave (km/s) = 2.25429 3.50313 2.94565
# Velocity P-wave (km/s) = 4.83504 5.77938 5.32817
#
# Compressibility (1/GPa) = 0.03405868
#
# Stress axis : x y z
#
# Youngs Moduli (GPa) = 31.58421 69.06179 69.19141
#
# Poissons Ratio (x) = 0.57522 0.51159
# Poissons Ratio (y) = 0.26307 -0.16988
# Poissons Ratio (z) = 0.23353 -0.16957
#
# Static dielectric constant tensor:
#      x y z
#    x 1.623460 0.000000 0.000000 
#    y 0.000000 1.644880 0.000000 
#    z 0.000000 0.000000 1.635330 
# 
# From -- ./inp_files/7932.got.cif
#   From: 2010.05.17/outbox.cif.g08.bks.cpg/sg60_4_cif.got.tgz:7932.got - 2010.06.03 14:59:27.
