data_PCOD9455711
_publ_section_title
;
Structure prediction by ZEFSAII (Michael W. Deem and Ramdas Pophale) SiO2 
 PCOD9455711
Probable space group: P B C N
;
_chemical_formula_sum "Si O2"
_cell_formula_units_Z 44
_cell_length_a 15.589162
_cell_length_b 10.016160
_cell_length_c 13.155496
_cell_angle_alpha 90.000000
_cell_angle_beta 90.000000
_cell_angle_gamma 90.000000
_cell_volume 2054.145727
_symmetry_space_group_name_H-M "P B C N"
_symmetry_group_IT_number 60
_symmetry_cell_setting 'orthorhombic'
loop_
_space_group_symop_operation_xyz
x,y,z
1/2-x,1/2-y,1/2+z
1/2+x,1/2-y,-z
-x,y,1/2-z
-x,-y,-z
1/2+x,1/2+y,1/2-z
1/2-x,1/2+y,z
x,-y,1/2+z
loop_
_atom_site_type_symbol
_atom_site_label
_atom_site_fract_x
_atom_site_fract_y
_atom_site_fract_z
Si Si1 0.727021 0.012168 0.873240
Si Si2 0.487273 0.346168 0.525444
Si Si3 0.917129 0.586947 0.484454
Si Si4 0.500000 0.252607 0.750000
Si Si5 0.300248 0.274133 0.495007
Si Si6 0.818995 0.625199 0.672730
O O1 0.726100 0.149380 0.935931
O O2 0.737472 0.048370 0.755708
O O3 0.783698 0.903654 0.931797
O O4 0.631609 0.949522 0.882749
O O5 0.500000 0.500000 0.500000
O O6 0.562552 0.243530 0.493198
O O7 0.481682 0.331850 0.647102
O O8 0.401393 0.285022 0.475987
O O9 0.856057 0.542986 0.577720
O O10 0.000000 0.500000 0.500000
O O11 0.407850 0.179142 0.774915
O O12 0.244137 0.277437 0.391689
#
# Coordination Sequence:
#
# PCOD9455711 Si02
#       6
#     8   8   8   4   8   8
#     4  11  23  42  63  99 130 174 226 277 342 416
#     4  11  24  42  69  97 138 175 226 282 346 412
#     4  10  20  42  68  90 123 177 225 272 328 406
#     4  10  20  44  72  90 132 190 218 276 354 408
#     4  11  25  40  67 101 135 174 225 286 342 409
#     4  10  22  41  70  94 133 178 224 280 344 403
#
# _framework density 21.420096000000001
#
# number of rings (size 3 to 8) (size 9 to 14) (size 15 to 20)
#    0.000    1.455    3.636    1.091    7.636    4.364 
#    0.000    1.818    0.000    0.000    0.000    0.000 
#    0.000    0.000    0.000    0.000    0.000    0.000 
#
# Total GULP energy -245217.070963 kJ/mol
# GULP energy per Si atom -5573.115249 kJ/mol
# Density = 2.137134 g / cm^3
# Si number density = 21.420096 Si / 1000 Ang^3
#
#
#
# Elastic Constant Matrix: (Units=GPa)
#
#
# Indices 1 2 3 4 5 6 
#
# 1 65.3840 1.8266 21.3704 0.0000 0.0000 0.0000
# 2 1.8266 118.6716 43.7412 0.0000 0.0000 0.0000
# 3 21.3704 43.7412 98.9999 0.0000 0.0000 0.0000
# 4 0.0000 0.0000 0.0000 35.1798 0.0000 0.0000
# 5 0.0000 0.0000 0.0000 0.0000 40.7994 0.0000
# 6 0.0000 0.0000 0.0000 0.0000 0.0000 28.3453
#
#
#
# Elastic Compliance Matrix: (Units=1/GPa)
#
#
# Indices 1 2 3 4 5 6 
#
# 1 0.016615 0.001274 -0.004149 0.000000 0.000000 0.000000
# 2 0.001274 0.010164 -0.004765 0.000000 0.000000 0.000000
# 3 -0.004149 -0.004765 0.013102 0.000000 0.000000 0.000000
# 4 0.000000 0.000000 0.000000 0.028425 0.000000 0.000000
# 5 0.000000 0.000000 0.000000 0.000000 0.024510 0.000000
# 6 0.000000 0.000000 0.000000 0.000000 0.000000 0.035279
#
#
# Mechanical properties :
#
#
# Convention : Reuss Voigt Hill
#
# Bulk Modulus (GPa) = 40.65306 46.32575 43.48940
# Shear Modulus (GPa) = 32.98652 35.27272 34.12962
#
# Velocity S-wave (km/s) = 3.92852 4.06237 3.99600
# Velocity P-wave (km/s) = 6.29268 6.60893 6.45274
#
# Compressibility (1/GPa) = 0.02459839
#
# Stress axis : x y z
#
# Youngs Moduli (GPa) = 60.18713 98.39103 76.32286
#
# Poissons Ratio (x) = -0.12531 0.31668
# Poissons Ratio (y) = -0.07666 0.36372
# Poissons Ratio (z) = 0.24973 0.46888
#
# Static dielectric constant tensor:
#      x y z
#    x 1.908600 0.000000 0.000000 
#    y 0.000000 1.783770 0.000000 
#    z 0.000000 0.000000 1.782250 
# 
# From -- ./inp_files/17260.got.cif
#   From: 2010.05.17/outbox.cif.g08.bks.cpg/sg60_9_cif.got.tgz:17260.got - 2010.06.03 14:59:27.
