data_PCOD9455960
_publ_section_title
;
Structure prediction by ZEFSAII (Michael W. Deem and Ramdas Pophale) SiO2 
 PCOD9455960
Probable space group: P B C N
;
_chemical_formula_sum "Si O2"
_cell_formula_units_Z 60
_cell_length_a 16.935701
_cell_length_b 8.911782
_cell_length_c 17.255128
_cell_angle_alpha 90.000000
_cell_angle_beta 90.000000
_cell_angle_gamma 90.000000
_cell_volume 2604.269454
_symmetry_space_group_name_H-M "P B C N"
_symmetry_group_IT_number 60
_symmetry_cell_setting 'orthorhombic'
loop_
_space_group_symop_operation_xyz
x,y,z
1/2-x,1/2-y,1/2+z
1/2+x,1/2-y,-z
-x,y,1/2-z
-x,-y,-z
1/2+x,1/2+y,1/2-z
1/2-x,1/2+y,z
x,-y,1/2+z
loop_
_atom_site_type_symbol
_atom_site_label
_atom_site_fract_x
_atom_site_fract_y
_atom_site_fract_z
Si Si1 0.796469 0.176988 0.432634
Si Si2 0.700494 0.323254 0.616555
Si Si3 0.922969 0.964116 0.049090
Si Si4 0.918507 0.769106 0.205213
Si Si5 0.325511 0.029646 0.501974
Si Si6 0.000000 0.753860 0.750000
Si Si7 0.601126 0.050256 0.638078
Si Si8 0.343675 0.454233 0.726833
O O1 0.860834 0.112192 0.491966
O O2 0.819957 0.351692 0.427907
O O3 0.804287 0.090338 0.352688
O O4 0.712783 0.125473 0.468830
O O5 0.619294 0.386327 0.579738
O O6 0.769195 0.378322 0.559567
O O7 0.681074 0.150603 0.634047
O O8 0.705968 0.397750 0.700280
O O9 0.932473 0.859596 0.124645
O O10 0.000000 0.000000 0.000000
O O11 0.891067 0.602491 0.185829
O O12 0.000000 0.758500 0.250000
O O13 0.861279 0.871546 0.257317
O O14 0.404466 0.998291 0.452814
O O15 0.033478 0.648592 0.819619
O O16 0.072742 0.862745 0.727854
#
# Coordination Sequence:
#
# PCOD9455960 Si02
#       8
#     8   8   8   8   8   4   8   8
#     4  11  23  42  65  92 128 172 219 275 327 395
#     4   9  22  41  66  90 125 180 213 266 329 388
#     4  10  21  37  64  92 123 172 217 261 329 392
#     4  11  20  37  62  95 127 165 215 266 325 403
#     4  11  22  45  64  89 132 175 226 264 327 399
#     4  10  22  42  66 102 134 170 214 274 342 380
#     4  11  21  39  68  94 131 167 219 276 325 398
#     4  10  22  42  66  95 132 169 221 272 327 402
#
# _framework density 23.039090999999999
#
# number of rings (size 3 to 8) (size 9 to 14) (size 15 to 20)
#    0.000    1.600    4.000    0.800    3.733    0.000 
#    7.200    2.667    0.000    0.000    0.000    0.000 
#    0.000    0.000    0.000    0.000    0.000    0.000 
#
# Total GULP energy -335181.086659 kJ/mol
# GULP energy per Si atom -5586.351444 kJ/mol
# Density = 2.298665 g / cm^3
# Si number density = 23.039091 Si / 1000 Ang^3
#
#
#
# Elastic Constant Matrix: (Units=GPa)
#
#
# Indices 1 2 3 4 5 6 
#
# 1 51.4388 10.2567 31.6493 0.0000 0.0000 0.0000
# 2 10.2567 120.9898 -2.0016 0.0000 0.0000 0.0000
# 3 31.6493 -2.0016 81.3798 0.0000 0.0000 0.0000
# 4 0.0000 0.0000 0.0000 8.5328 0.0000 0.0000
# 5 0.0000 0.0000 0.0000 0.0000 38.4982 0.0000
# 6 0.0000 0.0000 0.0000 0.0000 0.0000 26.4858
#
#
#
# Elastic Compliance Matrix: (Units=1/GPa)
#
#
# Indices 1 2 3 4 5 6 
#
# 1 0.026231 -0.002393 -0.010260 0.000000 0.000000 0.000000
# 2 -0.002393 0.008487 0.001140 0.000000 0.000000 0.000000
# 3 -0.010260 0.001140 0.016306 0.000000 0.000000 0.000000
# 4 0.000000 0.000000 0.000000 0.117195 0.000000 0.000000
# 5 0.000000 0.000000 0.000000 0.000000 0.025975 0.000000
# 6 0.000000 0.000000 0.000000 0.000000 0.000000 0.037756
#
#
# Mechanical properties :
#
#
# Convention : Reuss Voigt Hill
#
# Bulk Modulus (GPa) = 35.71955 37.06858 36.39407
# Shear Modulus (GPa) = 18.91713 28.96362 23.94038
#
# Velocity S-wave (km/s) = 2.86857 3.54948 3.22704
# Velocity P-wave (km/s) = 5.14870 5.73784 5.45123
#
# Compressibility (1/GPa) = 0.02799587
#
# Stress axis : x y z
#
# Youngs Moduli (GPa) = 38.12324 117.82851 61.32572
#
# Poissons Ratio (x) = 0.28201 0.62921
# Poissons Ratio (y) = 0.09124 -0.06988
# Poissons Ratio (z) = 0.39115 -0.13427
#
# Static dielectric constant tensor:
#      x y z
#    x 1.861050 0.000000 0.000000 
#    y 0.000000 1.912570 0.000000 
#    z 0.000000 0.000000 1.890710 
# 
# From -- ./inp_files/20881.got.cif
#   From: 2010.05.17/outbox.cif.g08.bks.cpg/sg60_11_cif.got.tgz:20881.got - 2010.06.03 14:59:27.
