data_PCOD9455591
_publ_section_title
;
Structure prediction by ZEFSAII (Michael W. Deem and Ramdas Pophale) SiO2 
 PCOD9455591
Probable space group: P B C N
;
_chemical_formula_sum "Si O2"
_cell_formula_units_Z 60
_cell_length_a 11.527591
_cell_length_b 8.329536
_cell_length_c 28.164309
_cell_angle_alpha 90.000000
_cell_angle_beta 90.000000
_cell_angle_gamma 90.000000
_cell_volume 2704.322424
_symmetry_space_group_name_H-M "P B C N"
_symmetry_group_IT_number 60
_symmetry_cell_setting 'orthorhombic'
loop_
_space_group_symop_operation_xyz
x,y,z
1/2-x,1/2-y,1/2+z
1/2+x,1/2-y,-z
-x,y,1/2-z
-x,-y,-z
1/2+x,1/2+y,1/2-z
1/2-x,1/2+y,z
x,-y,1/2+z
loop_
_atom_site_type_symbol
_atom_site_label
_atom_site_fract_x
_atom_site_fract_y
_atom_site_fract_z
Si Si1 0.828133 0.300151 0.663472
Si Si2 0.204796 0.658740 0.119538
Si Si3 0.136018 0.625391 0.683863
Si Si4 0.680613 0.940239 0.097377
Si Si5 0.611855 0.364655 0.547285
Si Si6 0.189630 0.960744 0.268024
Si Si7 0.000000 0.793977 0.750000
Si Si8 0.877954 0.050766 0.937134
O O1 0.887606 0.420292 0.625810
O O2 0.743786 0.184976 0.632906
O O3 0.755247 0.424304 0.695093
O O4 0.878996 0.176478 0.702268
O O5 0.308096 0.745586 0.148556
O O6 0.141603 0.541296 0.156134
O O7 0.267157 0.556430 0.077984
O O8 0.125442 0.798496 0.098273
O O9 0.219878 0.609135 0.730078
O O10 0.011530 0.680076 0.704148
O O11 0.612532 0.821470 0.062622
O O12 0.781301 0.036537 0.069813
O O13 0.624134 0.385904 0.490905
O O14 0.494273 0.446218 0.566052
O O15 0.104262 0.083396 0.242977
#
# Coordination Sequence:
#
# PCOD9455591 Si02
#       8
#     8   8   8   8   8   8   4   8
#     4   9  19  36  60  84 131 153 204 267 311 376
#     4  10  22  43  66  93 134 167 223 280 321 389
#     4  11  22  43  63  93 128 171 223 274 318 398
#     4   9  19  36  61  93 129 166 198 271 328 391
#     4  10  20  40  65  97 132 170 217 262 344 398
#     4  11  20  41  61  90 127 168 222 265 314 387
#     4  12  24  38  74  86 126 186 206 270 334 364
#     4  10  22  40  68  94 127 175 219 273 326 400
#
# _framework density 22.186705
#
# number of rings (size 3 to 8) (size 9 to 14) (size 15 to 20)
#    0.000    1.867    2.667    0.800    0.000    3.200 
#    2.400    5.333    0.000   14.400    0.000    0.000 
#    0.000    0.000    0.000    0.000    0.000    0.000 
#
# Total GULP energy -334849.975592 kJ/mol
# GULP energy per Si atom -5580.832927 kJ/mol
# Density = 2.213621 g / cm^3
# Si number density = 22.186705 Si / 1000 Ang^3
#
#
#
# Elastic Constant Matrix: (Units=GPa)
#
#
# Indices 1 2 3 4 5 6 
#
# 1 33.0004 19.6524 17.5456 0.0000 0.0000 0.0000
# 2 19.6524 131.9321 44.1913 0.0000 0.0000 0.0000
# 3 17.5456 44.1913 76.3786 0.0000 0.0000 0.0000
# 4 0.0000 0.0000 0.0000 46.3693 0.0000 0.0000
# 5 0.0000 0.0000 0.0000 0.0000 23.0597 0.0000
# 6 0.0000 0.0000 0.0000 0.0000 0.0000 7.1695
#
#
#
# Elastic Compliance Matrix: (Units=1/GPa)
#
#
# Indices 1 2 3 4 5 6 
#
# 1 0.035560 -0.003176 -0.006331 0.000000 0.000000 0.000000
# 2 -0.003176 0.009685 -0.004874 0.000000 0.000000 0.000000
# 3 -0.006331 -0.004874 0.017367 0.000000 0.000000 0.000000
# 4 0.000000 0.000000 0.000000 0.021566 0.000000 0.000000
# 5 0.000000 0.000000 0.000000 0.000000 0.043366 0.000000
# 6 0.000000 0.000000 0.000000 0.000000 0.000000 0.139480
#
#
# Mechanical properties :
#
#
# Convention : Reuss Voigt Hill
#
# Bulk Modulus (GPa) = 29.54238 44.89885 37.22062
# Shear Modulus (GPa) = 16.28287 25.98115 21.13201
#
# Velocity S-wave (km/s) = 2.71200 3.42573 3.08955
# Velocity P-wave (km/s) = 4.81153 5.99402 5.43503
#
# Compressibility (1/GPa) = 0.03384968
#
# Stress axis : x y z
#
# Youngs Moduli (GPa) = 28.12124 103.24797 57.58006
#
# Poissons Ratio (x) = 0.32796 0.36454
# Poissons Ratio (y) = 0.08932 0.28065
# Poissons Ratio (z) = 0.17804 0.50324
#
# Static dielectric constant tensor:
#      x y z
#    x 1.811620 0.000000 0.000000 
#    y 0.000000 1.808740 0.000000 
#    z 0.000000 0.000000 1.830330 
# 
# From -- ./inp_files/25333.got.cif
#   From: 2010.05.17/outbox.cif.g08.bks.cpg/sg60_13_cif.got.tgz:25333.got - 2010.06.03 14:59:27.
