data_PCOD9455929
_publ_section_title
;
Structure prediction by ZEFSAII (Michael W. Deem and Ramdas Pophale) SiO2 
 PCOD9455929
Probable space group: P B C N
;
_chemical_formula_sum "Si O2"
_cell_formula_units_Z 60
_cell_length_a 19.518947
_cell_length_b 5.661578
_cell_length_c 23.030300
_cell_angle_alpha 90.000000
_cell_angle_beta 90.000000
_cell_angle_gamma 90.000000
_cell_volume 2545.033335
_symmetry_space_group_name_H-M "P B C N"
_symmetry_group_IT_number 60
_symmetry_cell_setting 'orthorhombic'
loop_
_space_group_symop_operation_xyz
x,y,z
1/2-x,1/2-y,1/2+z
1/2+x,1/2-y,-z
-x,y,1/2-z
-x,-y,-z
1/2+x,1/2+y,1/2-z
1/2-x,1/2+y,z
x,-y,1/2+z
loop_
_atom_site_type_symbol
_atom_site_label
_atom_site_fract_x
_atom_site_fract_y
_atom_site_fract_z
Si Si1 0.520032 0.253124 0.947996
Si Si2 0.132953 0.622769 0.463006
Si Si3 0.288978 0.532980 0.341755
Si Si4 0.864603 0.117474 0.047662
Si Si5 0.287966 0.525132 0.704625
Si Si6 0.043602 0.592511 0.354503
Si Si7 0.566056 0.505316 0.843937
Si Si8 0.000000 0.330461 0.250000
O O1 0.446615 0.369836 0.963694
O O2 0.567075 0.430124 0.911248
O O3 0.501799 0.068377 0.897306
O O4 0.563537 0.137068 0.998799
O O5 0.164771 0.367117 0.473265
O O6 0.109224 0.623751 0.395415
O O7 0.166971 0.874241 0.475628
O O8 0.254853 0.274646 0.354468
O O9 0.353286 0.591607 0.383064
O O10 0.302563 0.502875 0.273656
O O11 0.259226 0.258179 0.691445
O O12 0.358958 0.586245 0.673314
O O13 0.051591 0.476058 0.291621
O O14 0.997897 0.818472 0.341920
O O15 0.545639 0.314540 0.795067
#
# Coordination Sequence:
#
# PCOD9455929 Si02
#       8
#     8   8   8   8   8   8   8   4
#     4  10  23  38  60 103 126 170 208 265 329 393
#     4  11  23  38  63  98 133 166 211 249 337 398
#     4  10  22  42  62  89 122 167 220 267 313 381
#     4  11  21  37  64  94 124 167 205 267 324 384
#     4  10  25  44  65  89 123 177 223 262 313 380
#     4  10  21  37  58  91 133 171 197 259 320 395
#     4  11  23  39  65  91 133 166 215 270 321 392
#     4  10  24  36  54 102 134 164 200 262 346 378
#
# _framework density 23.575329
#
# number of rings (size 3 to 8) (size 9 to 14) (size 15 to 20)
#    0.000    1.600    1.333    3.200   11.200    1.067 
#    0.000    0.000    0.000    4.800    0.000    0.000 
#    0.000    0.000    0.000    0.000    0.000    0.000 
#
# Total GULP energy -334476.489424 kJ/mol
# GULP energy per Si atom -5574.608157 kJ/mol
# Density = 2.352167 g / cm^3
# Si number density = 23.575329 Si / 1000 Ang^3
#
#
#
# Elastic Constant Matrix: (Units=GPa)
#
#
# Indices 1 2 3 4 5 6 
#
# 1 62.8908 7.7708 10.1286 0.0000 0.0000 0.0000
# 2 7.7708 172.0268 18.1134 0.0000 0.0000 0.0000
# 3 10.1286 18.1134 74.8435 0.0000 0.0000 0.0000
# 4 0.0000 0.0000 0.0000 16.4259 0.0000 0.0000
# 5 0.0000 0.0000 0.0000 0.0000 29.8967 0.0000
# 6 0.0000 0.0000 0.0000 0.0000 0.0000 7.8289
#
#
#
# Elastic Compliance Matrix: (Units=1/GPa)
#
#
# Indices 1 2 3 4 5 6 
#
# 1 0.016300 -0.000517 -0.002081 0.000000 0.000000 0.000000
# 2 -0.000517 0.005981 -0.001378 0.000000 0.000000 0.000000
# 3 -0.002081 -0.001378 0.013976 0.000000 0.000000 0.000000
# 4 0.000000 0.000000 0.000000 0.060879 0.000000 0.000000
# 5 0.000000 0.000000 0.000000 0.000000 0.033448 0.000000
# 6 0.000000 0.000000 0.000000 0.000000 0.000000 0.127733
#
#
# Mechanical properties :
#
#
# Convention : Reuss Voigt Hill
#
# Bulk Modulus (GPa) = 35.32785 42.42073 38.87429
# Shear Modulus (GPa) = 18.13539 29.08019 23.60779
#
# Velocity S-wave (km/s) = 2.77655 3.51593 3.16789
# Velocity P-wave (km/s) = 5.02957 5.87496 5.46863
#
# Compressibility (1/GPa) = 0.02830628
#
# Stress axis : x y z
#
# Youngs Moduli (GPa) = 61.35126 167.18310 71.55025
#
# Poissons Ratio (x) = 0.08647 0.14887
# Poissons Ratio (y) = 0.03173 0.09857
# Poissons Ratio (z) = 0.12765 0.23032
#
# Static dielectric constant tensor:
#      x y z
#    x 1.916900 0.000000 0.000000 
#    y 0.000000 2.083760 0.000000 
#    z 0.000000 0.000000 1.889620 
# 
# From -- ./inp_files/24610.got.cif
#   From: 2010.05.17/outbox.cif.g08.bks.cpg/sg60_13_cif.got.tgz:24610.got - 2010.06.03 14:59:27.
