data_PCOD9455201
_publ_section_title
;
Structure prediction by ZEFSAII (Michael W. Deem and Ramdas Pophale) SiO2 
 PCOD9455201
Probable space group: P B C N
;
_chemical_formula_sum "Si O2"
_cell_formula_units_Z 36
_cell_length_a 18.949523
_cell_length_b 5.628019
_cell_length_c 14.401202
_cell_angle_alpha 90.000000
_cell_angle_beta 90.000000
_cell_angle_gamma 90.000000
_cell_volume 1535.863358
_symmetry_space_group_name_H-M "P B C N"
_symmetry_group_IT_number 60
_symmetry_cell_setting 'orthorhombic'
loop_
_space_group_symop_operation_xyz
x,y,z
1/2-x,1/2-y,1/2+z
1/2+x,1/2-y,-z
-x,y,1/2-z
-x,-y,-z
1/2+x,1/2+y,1/2-z
1/2-x,1/2+y,z
x,-y,1/2+z
loop_
_atom_site_type_symbol
_atom_site_label
_atom_site_fract_x
_atom_site_fract_y
_atom_site_fract_z
Si Si1 0.128111 0.028650 0.321645
Si Si2 0.000000 0.729215 0.250000
Si Si3 0.590426 0.698392 0.481135
Si Si4 0.213895 0.955502 0.652158
Si Si5 0.041142 0.609597 0.902171
O O1 0.069793 0.881695 0.264899
O O2 0.121896 0.930023 0.426760
O O3 0.198853 0.032481 0.262871
O O4 0.098286 0.293059 0.330876
O O5 0.994747 0.571715 0.342339
O O6 0.642423 0.621203 0.400259
O O7 0.510457 0.684668 0.439388
O O8 0.582344 0.971272 0.517231
O O9 0.263046 0.726176 0.628236
#
# Coordination Sequence:
#
# PCOD9455201 Si02
#       5
#     8   4   8   8   8
#     4  11  24  43  71 102 143 184 243 297 367 438
#     4  10  20  36  70 108 144 180 224 302 372 448
#     4  10  24  43  73 105 144 186 246 302 377 430
#     4  12  31  49  72 101 146 201 250 297 351 432
#     4  10  21  40  74 110 144 180 231 316 379 442
#
# _framework density 23.439582999999999
#
# number of rings (size 3 to 8) (size 9 to 14) (size 15 to 20)
#    0.000    1.333    0.000    4.000   12.444    3.556 
#    0.000    0.000    0.000    0.000    0.000    0.000 
#    0.000    0.000    0.000    0.000    0.000    0.000 
#
# Total GULP energy -200678.099622 kJ/mol
# GULP energy per Si atom -5574.391656 kJ/mol
# Density = 2.338623 g / cm^3
# Si number density = 23.439583 Si / 1000 Ang^3
#
#
#
# Elastic Constant Matrix: (Units=GPa)
#
#
# Indices 1 2 3 4 5 6 
#
# 1 29.7317 23.6322 13.0106 0.0000 0.0000 0.0000
# 2 23.6322 56.8095 32.6453 0.0000 0.0000 0.0000
# 3 13.0106 32.6453 90.5030 0.0000 0.0000 0.0000
# 4 0.0000 0.0000 0.0000 27.8484 0.0000 0.0000
# 5 0.0000 0.0000 0.0000 0.0000 36.3965 0.0000
# 6 0.0000 0.0000 0.0000 0.0000 0.0000 11.4552
#
#
#
# Elastic Compliance Matrix: (Units=1/GPa)
#
#
# Indices 1 2 3 4 5 6 
#
# 1 0.050260 -0.021137 0.000399 0.000000 0.000000 0.000000
# 2 -0.021137 0.031095 -0.008178 0.000000 0.000000 0.000000
# 3 0.000399 -0.008178 0.013942 0.000000 0.000000 0.000000
# 4 0.000000 0.000000 0.000000 0.035909 0.000000 0.000000
# 5 0.000000 0.000000 0.000000 0.000000 0.027475 0.000000
# 6 0.000000 0.000000 0.000000 0.000000 0.000000 0.087297
#
#
# Mechanical properties :
#
#
# Convention : Reuss Voigt Hill
#
# Bulk Modulus (GPa) = 26.69124 35.06895 30.88009
# Shear Modulus (GPa) = 15.80795 22.32377 19.06586
#
# Velocity S-wave (km/s) = 2.59976 3.08944 2.85512
# Velocity P-wave (km/s) = 4.51925 5.26499 4.90631
#
# Compressibility (1/GPa) = 0.03746548
#
# Stress axis : x y z
#
# Youngs Moduli (GPa) = 19.89645 32.15992 71.72719
#
# Poissons Ratio (x) = 0.67976 -0.02862
# Poissons Ratio (y) = 0.42055 0.58655
# Poissons Ratio (z) = -0.00794 0.26299
#
# Static dielectric constant tensor:
#      x y z
#    x 1.891970 0.000000 0.000000 
#    y 0.000000 1.972890 0.000000 
#    z 0.000000 0.000000 3.019590 
# 
# From -- ./inp_files/17585.got.cif
#   From: 2010.05.17/outbox.cif.g08.bks.cpg/sg60_9_cif.got.tgz:17585.got - 2010.06.03 14:59:27.
