data_PCOD9455732
_publ_section_title
;
Structure prediction by ZEFSAII (Michael W. Deem and Ramdas Pophale) SiO2 
 PCOD9455732
Probable space group: P B C N
;
_chemical_formula_sum "Si O2"
_cell_formula_units_Z 40
_cell_length_a 12.972623
_cell_length_b 16.072520
_cell_length_c 8.700652
_cell_angle_alpha 90.000000
_cell_angle_beta 90.000000
_cell_angle_gamma 90.000000
_cell_volume 1814.109805
_symmetry_space_group_name_H-M "P B C N"
_symmetry_group_IT_number 60
_symmetry_cell_setting 'orthorhombic'
loop_
_space_group_symop_operation_xyz
x,y,z
1/2-x,1/2-y,1/2+z
1/2+x,1/2-y,-z
-x,y,1/2-z
-x,-y,-z
1/2+x,1/2+y,1/2-z
1/2-x,1/2+y,z
x,-y,1/2+z
loop_
_atom_site_type_symbol
_atom_site_label
_atom_site_fract_x
_atom_site_fract_y
_atom_site_fract_z
Si Si1 0.500000 0.715156 0.250000
Si Si2 0.420958 0.575956 0.018464
Si Si3 0.077421 0.302896 0.514757
Si Si4 0.593919 0.068224 0.005183
Si Si5 0.500000 0.670897 0.750000
Si Si6 0.293884 0.050429 0.175907
O O1 0.457808 0.653175 0.121626
O O2 0.413560 0.768525 0.341221
O O3 0.320252 0.546856 0.109443
O O4 0.500000 0.500000 0.000000
O O5 0.420621 0.614964 0.848146
O O6 0.153431 0.374337 0.576739
O O7 0.964123 0.345266 0.509405
O O8 0.067471 0.229300 0.637777
O O9 0.672008 0.065280 0.149005
O O10 0.500000 0.000000 0.000000
O O11 0.656873 0.039586 0.858757
#
# Coordination Sequence:
#
# PCOD9455732 Si02
#       6
#     4   8   8   8   4   8
#     4  10  25  42  67  94 132 176 214 284 341 392
#     4  11  26  45  65  90 133 180 235 273 326 414
#     4  10  20  43  66  98 134 159 219 282 349 406
#     4  10  21  39  68 103 131 168 213 282 344 408
#     4  10  21  44  65  84 132 182 206 292 337 384
#     4  11  24  39  70  98 132 181 223 274 345 416
#
# _framework density 22.049379999999999
#
# number of rings (size 3 to 8) (size 9 to 14) (size 15 to 20)
#    0.000    1.600    2.000    2.400   11.200    1.600 
#    0.000    0.000    0.000    0.000    0.000    0.000 
#    0.000    0.000    0.000    0.000    0.000    0.000 
#
# Total GULP energy -222894.189840 kJ/mol
# GULP energy per Si atom -5572.354746 kJ/mol
# Density = 2.199919 g / cm^3
# Si number density = 22.049380 Si / 1000 Ang^3
#
#
#
# Elastic Constant Matrix: (Units=GPa)
#
#
# Indices 1 2 3 4 5 6 
#
# 1 65.0019 12.6196 0.4603 0.0000 0.0000 0.0000
# 2 12.6196 84.5400 31.4760 0.0000 0.0000 0.0000
# 3 0.4603 31.4760 87.3173 0.0000 0.0000 0.0000
# 4 0.0000 0.0000 0.0000 49.2576 0.0000 0.0000
# 5 0.0000 0.0000 0.0000 0.0000 30.7488 0.0000
# 6 0.0000 0.0000 0.0000 0.0000 0.0000 20.6425
#
#
#
# Elastic Compliance Matrix: (Units=1/GPa)
#
#
# Indices 1 2 3 4 5 6 
#
# 1 0.015903 -0.002706 0.000892 0.000000 0.000000 0.000000
# 2 -0.002706 0.014123 -0.005077 0.000000 0.000000 0.000000
# 3 0.000892 -0.005077 0.013278 0.000000 0.000000 0.000000
# 4 0.000000 0.000000 0.000000 0.020301 0.000000 0.000000
# 5 0.000000 0.000000 0.000000 0.000000 0.032522 0.000000
# 6 0.000000 0.000000 0.000000 0.000000 0.000000 0.048444
#
#
# Mechanical properties :
#
#
# Convention : Reuss Voigt Hill
#
# Bulk Modulus (GPa) = 33.87329 36.21900 35.04614
# Shear Modulus (GPa) = 29.72775 32.95001 31.33888
#
# Velocity S-wave (km/s) = 3.67582 3.86991 3.77411
# Velocity P-wave (km/s) = 5.78025 6.03574 5.90938
#
# Compressibility (1/GPa) = 0.02952179
#
# Stress axis : x y z
#
# Youngs Moduli (GPa) = 62.88053 70.80755 75.31360
#
# Poissons Ratio (x) = 0.19160 -0.06715
# Poissons Ratio (y) = 0.17015 0.38234
# Poissons Ratio (z) = -0.05606 0.35947
#
# Static dielectric constant tensor:
#      x y z
#    x 1.913960 0.000000 0.000000 
#    y 0.000000 1.872910 0.000000 
#    z 0.000000 0.000000 1.859360 
# 
# From -- ./inp_files/5707.got.cif
#   From: 2010.05.17/outbox.cif.g08.bks.cpg/sg60_3_cif.got.tgz:5707.got - 2010.06.03 14:59:27.
