data_PCOD9455277
_publ_section_title
;
Structure prediction by ZEFSAII (Michael W. Deem and Ramdas Pophale) SiO2 
 PCOD9455277
Probable space group: P B C N
;
_chemical_formula_sum "Si O2"
_cell_formula_units_Z 64
_cell_length_a 12.818960
_cell_length_b 26.100849
_cell_length_c 8.495150
_cell_angle_alpha 90.000000
_cell_angle_beta 90.000000
_cell_angle_gamma 90.000000
_cell_volume 2842.356043
_symmetry_space_group_name_H-M "P B C N"
_symmetry_group_IT_number 60
_symmetry_cell_setting 'orthorhombic'
loop_
_space_group_symop_operation_xyz
x,y,z
1/2-x,1/2-y,1/2+z
1/2+x,1/2-y,-z
-x,y,1/2-z
-x,-y,-z
1/2+x,1/2+y,1/2-z
1/2-x,1/2+y,z
x,-y,1/2+z
loop_
_atom_site_type_symbol
_atom_site_label
_atom_site_fract_x
_atom_site_fract_y
_atom_site_fract_z
Si Si1 0.609040 0.056546 0.814396
Si Si2 0.673329 0.837398 0.149924
Si Si3 0.923125 0.025694 0.622904
Si Si4 0.672285 0.809814 0.791274
Si Si5 0.894175 0.595960 0.162441
Si Si6 0.277726 0.534712 0.160490
Si Si7 0.612713 0.693764 0.809873
Si Si8 0.109516 0.219319 0.323224
O O1 0.500000 0.034159 0.750000
O O2 0.629532 0.108995 0.716607
O O3 0.702842 0.015603 0.826962
O O4 0.597300 0.072529 0.993338
O O5 0.791110 0.833780 0.221272
O O6 0.623246 0.781411 0.191205
O O7 0.656606 0.835092 0.961857
O O8 0.870236 0.980549 0.722975
O O9 0.000000 0.945631 0.250000
O O10 0.829095 0.047499 0.510279
O O11 0.000000 0.000000 0.500000
O O12 0.621673 0.843441 0.655019
O O13 0.625347 0.753780 0.771346
O O14 0.795364 0.803943 0.772801
O O15 0.794537 0.577150 0.261136
O O16 0.000000 0.584505 0.250000
O O17 0.500000 0.675974 0.750000
O O18 0.619454 0.696512 0.000031
O O19 0.000000 0.204846 0.250000
#
# Coordination Sequence:
#
# PCOD9455277 Si02
#       8
#     8   8   8   8   8   8   8   8
#     4  12  26  41  63  94 131 170 213 263 325 383
#     4  10  22  39  62  89 125 165 209 262 319 385
#     4   9  20  42  70  94 120 161 212 261 319 374
#     4  10  22  39  62  89 125 166 208 265 317 382
#     4  12  26  41  63  94 131 169 213 265 323 382
#     4  11  23  42  69  96 129 167 215 267 313 386
#     4  10  20  37  62  90 122 162 211 260 320 381
#     4  10  20  37  62  90 122 162 209 262 320 380
#
# _framework density 22.516532000000002
#
# number of rings (size 3 to 8) (size 9 to 14) (size 15 to 20)
#    0.000    1.500    1.250    3.375    3.500    6.000 
#    0.000    3.750    2.750    0.000    0.000    0.000 
#    0.000    0.000    0.000    0.000    0.000    0.000 
#
# Total GULP energy -357273.083754 kJ/mol
# GULP energy per Si atom -5582.391934 kJ/mol
# Density = 2.246528 g / cm^3
# Si number density = 22.516532 Si / 1000 Ang^3
#
#
#
# Elastic Constant Matrix: (Units=GPa)
#
#
# Indices 1 2 3 4 5 6 
#
# 1 125.1758 14.0206 32.7151 0.0000 0.0000 0.0000
# 2 14.0206 59.2080 23.0354 0.0000 0.0000 0.0000
# 3 32.7151 23.0354 55.7244 0.0000 0.0000 0.0000
# 4 0.0000 0.0000 0.0000 41.8251 0.0000 0.0000
# 5 0.0000 0.0000 0.0000 0.0000 48.4409 0.0000
# 6 0.0000 0.0000 0.0000 0.0000 0.0000 12.6015
#
#
#
# Elastic Compliance Matrix: (Units=1/GPa)
#
#
# Indices 1 2 3 4 5 6 
#
# 1 0.009437 -0.000094 -0.005501 0.000000 0.000000 0.000000
# 2 -0.000094 0.020128 -0.008265 0.000000 0.000000 0.000000
# 3 -0.005501 -0.008265 0.024592 0.000000 0.000000 0.000000
# 4 0.000000 0.000000 0.000000 0.023909 0.000000 0.000000
# 5 0.000000 0.000000 0.000000 0.000000 0.020644 0.000000
# 6 0.000000 0.000000 0.000000 0.000000 0.000000 0.079356
#
#
# Mechanical properties :
#
#
# Convention : Reuss Voigt Hill
#
# Bulk Modulus (GPa) = 37.82855 42.18339 40.00597
# Shear Modulus (GPa) = 23.29937 31.92930 27.61434
#
# Velocity S-wave (km/s) = 3.22027 3.76977 3.50580
# Velocity P-wave (km/s) = 5.53748 6.14193 5.84752
#
# Compressibility (1/GPa) = 0.02643506
#
# Stress axis : x y z
#
# Youngs Moduli (GPa) = 105.96417 49.68325 40.66389
#
# Poissons Ratio (x) = 0.00469 0.22371
# Poissons Ratio (y) = 0.01000 0.33608
# Poissons Ratio (z) = 0.58295 0.41063
#
# Static dielectric constant tensor:
#      x y z
#    x 1.877320 0.000000 0.000000 
#    y 0.000000 1.853570 0.000000 
#    z 0.000000 0.000000 1.842640 
# 
# From -- ./inp_files/5340.got.cif
#   From: 2010.05.17/outbox.cif.g08.bks.cpg/sg60_3_cif.got.tgz:5340.got - 2010.06.03 14:59:27.
