data_PCOD9455935
_publ_section_title
;
Structure prediction by ZEFSAII (Michael W. Deem and Ramdas Pophale) SiO2 
 PCOD9455935
Probable space group: P B C N
;
_chemical_formula_sum "Si O2"
_cell_formula_units_Z 32
_cell_length_a 17.197383
_cell_length_b 17.277567
_cell_length_c 4.918841
_cell_angle_alpha 90.000000
_cell_angle_beta 90.000000
_cell_angle_gamma 90.000000
_cell_volume 1461.529998
_symmetry_space_group_name_H-M "P B C N"
_symmetry_group_IT_number 60
_symmetry_cell_setting 'orthorhombic'
loop_
_space_group_symop_operation_xyz
x,y,z
1/2-x,1/2-y,1/2+z
1/2+x,1/2-y,-z
-x,y,1/2-z
-x,-y,-z
1/2+x,1/2+y,1/2-z
1/2-x,1/2+y,z
x,-y,1/2+z
loop_
_atom_site_type_symbol
_atom_site_label
_atom_site_fract_x
_atom_site_fract_y
_atom_site_fract_z
Si Si1 0.722057 0.296605 0.300140
Si Si2 0.227790 0.454002 0.494466
Si Si3 0.446099 0.273397 0.986893
Si Si4 0.553403 0.904642 0.013670
O O1 0.774773 0.268223 0.556925
O O2 0.746188 0.374490 0.144410
O O3 0.636825 0.307288 0.429752
O O4 0.253183 0.475992 0.796718
O O5 0.134332 0.447731 0.514403
O O6 0.500000 0.272992 0.250000
O O7 0.500000 0.308290 0.750000
O O8 0.427231 0.184399 0.905583
O O9 0.500000 0.938324 0.250000
O O10 0.500000 0.898884 0.750000
#
# Coordination Sequence:
#
# PCOD9455935 Si02
#       4
#     8   8   8   8
#     4  12  24  42  70  95 125 174 223 271 320 383
#     4  12  26  41  61  95 136 174 214 266 326 385
#     4  10  21  38  64  96 123 160 216 277 319 370
#     4  10  21  37  59  89 127 171 209 249 308 390
#
# _framework density 21.894860999999999
#
# number of rings (size 3 to 8) (size 9 to 14) (size 15 to 20)
#    0.000    1.000    2.500    4.500    7.000    3.000 
#    0.000    0.000    0.000    4.500    0.000    0.000 
#    0.000    0.000    0.000    0.000    0.000    0.000 
#
# Total GULP energy -178907.252953 kJ/mol
# GULP energy per Si atom -5590.851655 kJ/mol
# Density = 2.184503 g / cm^3
# Si number density = 21.894861 Si / 1000 Ang^3
#
#
#
# Elastic Constant Matrix: (Units=GPa)
#
#
# Indices 1 2 3 4 5 6 
#
# 1 105.8059 24.0371 29.6995 0.0000 0.0000 0.0000
# 2 24.0371 59.0227 8.2376 0.0000 0.0000 0.0000
# 3 29.6995 8.2376 111.2808 0.0000 0.0000 0.0000
# 4 0.0000 0.0000 0.0000 64.7044 0.0000 0.0000
# 5 0.0000 0.0000 0.0000 0.0000 41.9924 0.0000
# 6 0.0000 0.0000 0.0000 0.0000 0.0000 -19.7391
#
#
#
# Elastic Compliance Matrix: (Units=1/GPa)
#
#
# Indices 1 2 3 4 5 6 
#
# 1 0.011146 -0.004167 -0.002666 0.000000 0.000000 0.000000
# 2 -0.004167 0.018678 -0.000270 0.000000 0.000000 0.000000
# 3 -0.002666 -0.000270 0.009718 0.000000 0.000000 0.000000
# 4 0.000000 0.000000 0.000000 0.015455 0.000000 0.000000
# 5 0.000000 0.000000 0.000000 0.000000 0.023814 0.000000
# 6 0.000000 0.000000 0.000000 0.000000 0.000000 -0.050661
#
#
# Mechanical properties :
#
#
# Convention : Reuss Voigt Hill
#
# Bulk Modulus (GPa) = 39.47304 44.45088 41.96196
# Shear Modulus (GPa) = 98.42028 31.66720 65.04374
#
# Velocity S-wave (km/s) = 6.71185 3.80719 5.45635
# Velocity P-wave (km/s) = 8.83928 6.29860 7.67480
#
# Compressibility (1/GPa) = 0.02533375
#
# Stress axis : x y z
#
# Youngs Moduli (GPa) = 89.71472 53.54032 102.90268
#
# Poissons Ratio (x) = 0.22312 0.27438
# Poissons Ratio (y) = 0.37387 0.02783
# Poissons Ratio (z) = 0.23921 0.01448
#
# Static dielectric constant tensor:
#      x y z
#    x 1.746180 0.000000 0.000000 
#    y 0.000000 1.854220 0.000000 
#    z 0.000000 0.000000 1.876850 
# 
# From -- ./inp_files/1036.got.cif
#   From: 2010.05.17/outbox.cif.g08.bks.cpg/sg60_1_cif.got.tgz:1036.got - 2010.06.03 14:59:27.
