data_PCOD9455007
_publ_section_title
;
Structure prediction by ZEFSAII (Michael W. Deem and Ramdas Pophale) SiO2 
 PCOD9455007
Probable space group: P B C N
;
_chemical_formula_sum "Si O2"
_cell_formula_units_Z 52
_cell_length_a 18.405170
_cell_length_b 7.707696
_cell_length_c 13.434761
_cell_angle_alpha 90.000000
_cell_angle_beta 90.000000
_cell_angle_gamma 90.000000
_cell_volume 1905.874746
_symmetry_space_group_name_H-M "P B C N"
_symmetry_group_IT_number 60
_symmetry_cell_setting 'orthorhombic'
loop_
_space_group_symop_operation_xyz
x,y,z
1/2-x,1/2-y,1/2+z
1/2+x,1/2-y,-z
-x,y,1/2-z
-x,-y,-z
1/2+x,1/2+y,1/2-z
1/2-x,1/2+y,z
x,-y,1/2+z
loop_
_atom_site_type_symbol
_atom_site_label
_atom_site_fract_x
_atom_site_fract_y
_atom_site_fract_z
Si Si1 0.780958 0.399885 0.104082
Si Si2 0.568545 0.768856 0.064248
Si Si3 0.159705 0.727819 0.279762
Si Si4 0.042345 0.317106 0.916385
Si Si5 0.369864 0.738461 0.119885
Si Si6 0.500000 0.289566 0.750000
Si Si7 0.754542 0.536478 0.381122
O O1 0.845958 0.263562 0.084105
O O2 0.819405 0.570246 0.144542
O O3 0.718958 0.364023 0.183177
O O4 0.747177 0.425500 0.997423
O O5 0.530170 0.642169 0.144139
O O6 0.542976 0.970422 0.088499
O O7 0.536685 0.750421 0.953299
O O8 0.077344 0.755600 0.314803
O O9 0.185687 0.657252 0.174371
O O10 0.091754 0.258469 0.012629
O O11 0.426328 0.795586 0.205391
O O12 0.330208 0.558588 0.150649
O O13 0.299419 0.859280 0.122110
#
# Coordination Sequence:
#
# PCOD9455007 Si02
#       7
#     8   8   8   8   8   4   8
#     4  11  21  38  54  87 118 148 197 248 297 357
#     4   9  17  31  52  76 115 144 190 239 291 342
#     4  11  21  34  56  80 114 148 191 241 298 355
#     4   9  17  33  49  78 110 147 178 243 287 340
#     4  11  21  37  61  88 121 155 205 254 305 366
#     4  10  20  34  58  92 116 164 208 248 302 376
#     4  12  21  37  59  90 117 162 199 252 312 365
#
# _framework density 27.284061000000001
#
# number of rings (size 3 to 8) (size 9 to 14) (size 15 to 20)
#    0.000    1.538    4.615    3.692    0.000    0.000 
#    0.000    0.000    0.000    1.846    8.000    0.000 
#    0.000    0.000    0.000    0.000    0.000    0.000 
#
# Total GULP energy -290046.079996 kJ/mol
# GULP energy per Si atom -5577.809231 kJ/mol
# Density = 2.722196 g / cm^3
# Si number density = 27.284061 Si / 1000 Ang^3
#
#
#
# Elastic Constant Matrix: (Units=GPa)
#
#
# Indices 1 2 3 4 5 6 
#
# 1 108.8889 16.0967 17.4831 0.0000 0.0000 0.0000
# 2 16.0967 32.7327 -1.2151 0.0000 0.0000 0.0000
# 3 17.4831 -1.2151 90.1652 0.0000 0.0000 0.0000
# 4 0.0000 0.0000 0.0000 275.4672 0.0000 0.0000
# 5 0.0000 0.0000 0.0000 0.0000 51.4022 0.0000
# 6 0.0000 0.0000 0.0000 0.0000 0.0000 24.1081
#
#
#
# Elastic Compliance Matrix: (Units=1/GPa)
#
#
# Indices 1 2 3 4 5 6 
#
# 1 0.010273 -0.005128 -0.002061 0.000000 0.000000 0.000000
# 2 -0.005128 0.033126 0.001441 0.000000 0.000000 0.000000
# 3 -0.002061 0.001441 0.011510 0.000000 0.000000 0.000000
# 4 0.000000 0.000000 0.000000 0.003630 0.000000 0.000000
# 5 0.000000 0.000000 0.000000 0.000000 0.019454 0.000000
# 6 0.000000 0.000000 0.000000 0.000000 0.000000 0.041480
#
#
# Mechanical properties :
#
#
# Convention : Reuss Voigt Hill
#
# Bulk Modulus (GPa) = 23.03541 32.94624 27.99082
# Shear Modulus (GPa) = 34.37841 83.49031 58.93436
#
# Velocity S-wave (km/s) = 3.55352 5.53776 4.65265
# Velocity P-wave (km/s) = 5.02970 7.27946 6.25653
#
# Compressibility (1/GPa) = 0.04341143
#
# Stress axis : x y z
#
# Youngs Moduli (GPa) = 97.34562 30.18794 86.88253
#
# Poissons Ratio (x) = 0.15481 0.17906
# Poissons Ratio (y) = 0.49921 -0.12518
# Poissons Ratio (z) = 0.20063 -0.04349
#
# Static dielectric constant tensor:
#      x y z
#    x 2.309690 0.000000 0.000000 
#    y 0.000000 2.300380 0.000000 
#    z 0.000000 0.000000 2.084160 
# 
# From -- ./inp_files/17441.got.cif
#   From: 2010.05.17/outbox.cif.g08.bks.cpg/sg60_9_cif.got.tgz:17441.got - 2010.06.03 14:59:27.
