data_PCOD9455498
_publ_section_title
;
Structure prediction by ZEFSAII (Michael W. Deem and Ramdas Pophale) SiO2 
 PCOD9455498
Probable space group: P B C N
;
_chemical_formula_sum "Si O2"
_cell_formula_units_Z 48
_cell_length_a 15.228500
_cell_length_b 16.441841
_cell_length_c 8.886081
_cell_angle_alpha 90.000000
_cell_angle_beta 90.000000
_cell_angle_gamma 90.000000
_cell_volume 2224.937621
_symmetry_space_group_name_H-M "P B C N"
_symmetry_group_IT_number 60
_symmetry_cell_setting 'orthorhombic'
loop_
_space_group_symop_operation_xyz
x,y,z
1/2-x,1/2-y,1/2+z
1/2+x,1/2-y,-z
-x,y,1/2-z
-x,-y,-z
1/2+x,1/2+y,1/2-z
1/2-x,1/2+y,z
x,-y,1/2+z
loop_
_atom_site_type_symbol
_atom_site_label
_atom_site_fract_x
_atom_site_fract_y
_atom_site_fract_z
Si Si1 0.874050 0.819181 0.145730
Si Si2 0.246084 0.037189 0.293925
Si Si3 0.907031 0.648837 0.294253
Si Si4 0.820782 0.735549 0.566049
Si Si5 0.093497 0.852897 0.688138
Si Si6 0.701734 0.597682 0.889299
O O1 0.907075 0.734365 0.208289
O O2 0.769605 0.806343 0.115294
O O3 0.880417 0.887582 0.275823
O O4 0.917543 0.833778 0.986503
O O5 0.329540 0.094333 0.272755
O O6 0.167322 0.078543 0.201138
O O7 0.208818 0.041934 0.462640
O O8 0.266887 0.949791 0.223298
O O9 0.880601 0.675132 0.465103
O O10 0.000000 0.609899 0.250000
O O11 0.870678 0.778056 0.706888
O O12 0.789786 0.811635 0.459224
O O13 0.000000 0.879167 0.750000
#
# Coordination Sequence:
#
# PCOD9455498 Si02
#       6
#     8   8   8   8   8   8
#     4  11  19  40  65  90 123 163 216 262 308 370
#     4  11  22  41  59  90 129 164 212 251 324 388
#     4  11  22  38  63  92 128 167 211 263 314 373
#     4  10  20  39  62  92 121 164 215 257 315 363
#     4  11  21  36  62  94 127 161 206 261 314 379
#     4  10  22  38  66  86 122 173 202 258 321 371
#
# _framework density 21.573637999999999
#
# number of rings (size 3 to 8) (size 9 to 14) (size 15 to 20)
#    0.000    1.333    5.000    3.000    0.000    0.000 
#    0.000   11.667    0.000    0.000    0.000    0.000 
#    0.000    0.000    0.000    0.000    0.000    0.000 
#
# Total GULP energy -267494.254123 kJ/mol
# GULP energy per Si atom -5572.796961 kJ/mol
# Density = 2.152454 g / cm^3
# Si number density = 21.573638 Si / 1000 Ang^3
#
#
#
# Elastic Constant Matrix: (Units=GPa)
#
#
# Indices 1 2 3 4 5 6 
#
# 1 53.3595 -13.1517 -32.1767 0.0000 0.0000 0.0000
# 2 -13.1517 27.8942 14.7001 0.0000 0.0000 0.0000
# 3 -32.1767 14.7001 98.5542 0.0000 0.0000 0.0000
# 4 0.0000 0.0000 0.0000 117.7122 0.0000 0.0000
# 5 0.0000 0.0000 0.0000 0.0000 -13.3113 0.0000
# 6 0.0000 0.0000 0.0000 0.0000 0.0000 -11.2869
#
#
#
# Elastic Compliance Matrix: (Units=1/GPa)
#
#
# Indices 1 2 3 4 5 6 
#
# 1 0.024913 0.008096 0.006926 0.000000 0.000000 0.000000
# 2 0.008096 0.041539 -0.003553 0.000000 0.000000 0.000000
# 3 0.006926 -0.003553 0.012938 0.000000 0.000000 0.000000
# 4 0.000000 0.000000 0.000000 0.008495 0.000000 0.000000
# 5 0.000000 0.000000 0.000000 0.000000 -0.075124 0.000000
# 6 0.000000 0.000000 0.000000 0.000000 0.000000 -0.088598
#
#
# Mechanical properties :
#
#
# Convention : Reuss Voigt Hill
#
# Bulk Modulus (GPa) = 9.77240 13.17234 11.47237
# Shear Modulus (GPa) = -77.31984 32.65187 -22.33399
#
# Velocity S-wave (km/s) = -5.99314 3.89460 -3.22101
# Velocity P-wave (km/s) = 6.58413 5.13254 2.91615
#
# Compressibility (1/GPa) = 0.10232904
#
# Stress axis : x y z
#
# Youngs Moduli (GPa) = 40.13986 24.07374 77.29225
#
# Poissons Ratio (x) = -0.19490 -0.53534
# Poissons Ratio (y) = -0.32497 0.27459
# Poissons Ratio (z) = -0.27802 0.08552
#
# Static dielectric constant tensor:
#      x y z
#    x 1.777200 0.000000 0.000000 
#    y 0.000000 1.858610 0.000000 
#    z 0.000000 0.000000 1.852980 
# 
# From -- ./inp_files/5945.got.cif
#   From: 2010.05.17/outbox.cif.g08.bks.cpg/sg60_3_cif.got.tgz:5945.got - 2010.06.03 14:59:27.
