data_PCOD9455703
_publ_section_title
;
Structure prediction by ZEFSAII (Michael W. Deem and Ramdas Pophale) SiO2 
 PCOD9455703
Probable space group: P B C N
;
_chemical_formula_sum "Si O2"
_cell_formula_units_Z 56
_cell_length_a 8.941393
_cell_length_b 14.752078
_cell_length_c 19.008563
_cell_angle_alpha 90.000000
_cell_angle_beta 90.000000
_cell_angle_gamma 90.000000
_cell_volume 2507.307907
_symmetry_space_group_name_H-M "P B C N"
_symmetry_group_IT_number 60
_symmetry_cell_setting 'orthorhombic'
loop_
_space_group_symop_operation_xyz
x,y,z
1/2-x,1/2-y,1/2+z
1/2+x,1/2-y,-z
-x,y,1/2-z
-x,-y,-z
1/2+x,1/2+y,1/2-z
1/2-x,1/2+y,z
x,-y,1/2+z
loop_
_atom_site_type_symbol
_atom_site_label
_atom_site_fract_x
_atom_site_fract_y
_atom_site_fract_z
Si Si1 0.231180 0.722269 0.919292
Si Si2 0.030247 0.073883 0.910146
Si Si3 0.778165 0.125581 0.808430
Si Si4 0.219640 0.073251 0.472895
Si Si5 0.475824 0.073124 0.579185
Si Si6 0.821847 0.706450 0.233164
Si Si7 0.351097 0.993291 0.797016
O O1 0.368877 0.656576 0.938929
O O2 0.267285 0.746679 0.838430
O O3 0.083494 0.660840 0.931459
O O4 0.225887 0.819859 0.956218
O O5 0.940791 0.101027 0.839689
O O6 0.897993 0.057289 0.964648
O O7 0.139586 0.986450 0.911049
O O8 0.653104 0.097897 0.864374
O O9 0.758002 0.232494 0.795372
O O10 0.748858 0.073388 0.734993
O O11 0.377566 0.047935 0.510320
O O12 0.579307 0.003748 0.624862
O O13 0.779096 0.602412 0.223058
O O14 0.000000 0.708324 0.250000
O O15 0.500000 0.997760 0.750000
#
# Coordination Sequence:
#
# PCOD9455703 Si02
#       7
#     8   8   8   8   8   8   8
#     4  12  23  38  64  96 128 169 220 276 331 402
#     4  10  23  44  65  90 134 172 221 277 335 402
#     4  10  20  42  66  92 130 174 213 279 339 397
#     4  10  24  44  63  94 129 180 225 273 335 404
#     4  10  22  41  65  91 134 174 223 280 332 407
#     4  11  22  38  63  96 128 164 216 270 337 399
#     4   9  20  38  61  94 129 170 222 273 336 406
#
# _framework density 22.334712
#
# number of rings (size 3 to 8) (size 9 to 14) (size 15 to 20)
#    0.000    1.714    2.857    0.857    2.000    1.714 
#    2.571    4.286    0.000    0.000    0.000    0.000 
#    0.000    0.000    0.000    0.000    0.000    0.000 
#
# Total GULP energy -312204.763854 kJ/mol
# GULP energy per Si atom -5575.085069 kJ/mol
# Density = 2.228388 g / cm^3
# Si number density = 22.334712 Si / 1000 Ang^3
#
#
#
# Elastic Constant Matrix: (Units=GPa)
#
#
# Indices 1 2 3 4 5 6 
#
# 1 145.0587 43.6071 34.4047 0.0000 0.0000 0.0000
# 2 43.6071 122.2445 23.5928 0.0000 0.0000 0.0000
# 3 34.4047 23.5928 98.6232 0.0000 0.0000 0.0000
# 4 0.0000 0.0000 0.0000 33.4122 0.0000 0.0000
# 5 0.0000 0.0000 0.0000 0.0000 24.8592 0.0000
# 6 0.0000 0.0000 0.0000 0.0000 0.0000 36.1724
#
#
#
# Elastic Compliance Matrix: (Units=1/GPa)
#
#
# Indices 1 2 3 4 5 6 
#
# 1 0.008175 -0.002480 -0.002259 0.000000 0.000000 0.000000
# 2 -0.002480 0.009329 -0.001366 0.000000 0.000000 0.000000
# 3 -0.002259 -0.001366 0.011254 0.000000 0.000000 0.000000
# 4 0.000000 0.000000 0.000000 0.029929 0.000000 0.000000
# 5 0.000000 0.000000 0.000000 0.000000 0.040227 0.000000
# 6 0.000000 0.000000 0.000000 0.000000 0.000000 0.027645
#
#
# Mechanical properties :
#
#
# Convention : Reuss Voigt Hill
#
# Bulk Modulus (GPa) = 60.43113 63.23728 61.83421
# Shear Modulus (GPa) = 34.65345 36.51021 35.58183
#
# Velocity S-wave (km/s) = 3.94325 4.04751 3.99572
# Velocity P-wave (km/s) = 6.91723 7.08647 7.00236
#
# Compressibility (1/GPa) = 0.01654776
#
# Stress axis : x y z
#
# Youngs Moduli (GPa) = 122.32333 107.19473 88.85446
#
# Poissons Ratio (x) = 0.26588 0.20068
# Poissons Ratio (y) = 0.30340 0.12141
# Poissons Ratio (z) = 0.27627 0.14647
#
# Static dielectric constant tensor:
#      x y z
#    x 1.823850 0.000000 0.000000 
#    y 0.000000 1.868350 0.000000 
#    z 0.000000 0.000000 1.890740 
# 
# From -- ./inp_files/22201.got.cif
#   From: 2010.05.17/outbox.cif.g08.bks.cpg/sg60_12_cif.got.tgz:22201.got - 2010.06.03 14:59:27.
