data_PCOD9455171
_publ_section_title
;
Structure prediction by ZEFSAII (Michael W. Deem and Ramdas Pophale) SiO2 
 PCOD9455171
Probable space group: P B C N
;
_chemical_formula_sum "Si O2"
_cell_formula_units_Z 64
_cell_length_a 23.407711
_cell_length_b 11.632161
_cell_length_c 13.344223
_cell_angle_alpha 90.000000
_cell_angle_beta 90.000000
_cell_angle_gamma 90.000000
_cell_volume 3633.395236
_symmetry_space_group_name_H-M "P B C N"
_symmetry_group_IT_number 60
_symmetry_cell_setting 'orthorhombic'
loop_
_space_group_symop_operation_xyz
x,y,z
1/2-x,1/2-y,1/2+z
1/2+x,1/2-y,-z
-x,y,1/2-z
-x,-y,-z
1/2+x,1/2+y,1/2-z
1/2-x,1/2+y,z
x,-y,1/2+z
loop_
_atom_site_type_symbol
_atom_site_label
_atom_site_fract_x
_atom_site_fract_y
_atom_site_fract_z
Si Si1 0.893479 0.983691 0.773086
Si Si2 0.689698 0.094223 0.165318
Si Si3 0.128515 0.173099 0.868086
Si Si4 0.037438 0.106010 0.034073
Si Si5 0.283550 0.655034 0.175263
Si Si6 0.751643 0.092364 0.550573
Si Si7 0.046511 0.216635 0.336361
Si Si8 0.160545 0.653809 0.796909
O O1 0.928566 0.943834 0.870008
O O2 0.829243 0.943157 0.795855
O O3 0.922363 0.905824 0.686116
O O4 0.893169 0.114199 0.734881
O O5 0.646261 0.193943 0.135867
O O6 0.732344 0.147086 0.246456
O O7 0.661324 0.982768 0.217201
O O8 0.725416 0.034902 0.073355
O O9 0.081871 0.150123 0.952864
O O10 0.186643 0.105447 0.897909
O O11 0.992287 0.203791 0.066182
O O12 0.000000 0.000000 0.000000
O O13 0.261025 0.632520 0.063295
O O14 0.317344 0.773379 0.201317
O O15 0.706405 0.170684 0.612481
O O16 0.098532 0.304296 0.330554
O O17 0.000000 0.239590 0.250000
#
# Coordination Sequence:
#
# PCOD9455171 Si02
#       8
#     8   8   8   8   8   8   8   8
#     4  10  20  36  61  89 115 156 206 257 307 366
#     4  10  22  40  55  93 131 157 198 258 314 393
#     4  12  21  40  62  88 129 160 198 267 319 376
#     4  11  22  38  63  88 117 161 218 258 313 364
#     4  11  19  38  62  90 118 168 202 249 324 368
#     4  10  22  38  61  91 122 167 207 254 313 394
#     4   9  19  38  61  83 112 157 213 258 298 360
#     4   9  21  41  60  87 130 155 209 262 306 384
#
# _framework density 17.614377999999999
#
# number of rings (size 3 to 8) (size 9 to 14) (size 15 to 20)
#    0.750    1.000    5.000    0.000    0.000    1.000 
#    2.250    0.625    2.750    0.000    0.000    0.000 
#    0.000    0.000    0.000    0.000    0.000    0.000 
#
# Total GULP energy -356269.843661 kJ/mol
# GULP energy per Si atom -5566.716307 kJ/mol
# Density = 1.757429 g / cm^3
# Si number density = 17.614378 Si / 1000 Ang^3
#
#
#
# Elastic Constant Matrix: (Units=GPa)
#
#
# Indices 1 2 3 4 5 6 
#
# 1 55.6468 0.3871 1.3181 0.0000 0.0000 0.0000
# 2 0.3871 88.7544 13.2061 0.0000 0.0000 0.0000
# 3 1.3181 13.2061 60.5362 0.0000 0.0000 0.0000
# 4 0.0000 0.0000 0.0000 13.6652 0.0000 0.0000
# 5 0.0000 0.0000 0.0000 0.0000 24.4807 0.0000
# 6 0.0000 0.0000 0.0000 0.0000 0.0000 25.5680
#
#
#
# Elastic Compliance Matrix: (Units=1/GPa)
#
#
# Indices 1 2 3 4 5 6 
#
# 1 0.017980 -0.000021 -0.000387 0.000000 0.000000 0.000000
# 2 -0.000021 0.011645 -0.002540 0.000000 0.000000 0.000000
# 3 -0.000387 -0.002540 0.017082 0.000000 0.000000 0.000000
# 4 0.000000 0.000000 0.000000 0.073179 0.000000 0.000000
# 5 0.000000 0.000000 0.000000 0.000000 0.040849 0.000000
# 6 0.000000 0.000000 0.000000 0.000000 0.000000 0.039111
#
#
# Mechanical properties :
#
#
# Convention : Reuss Voigt Hill
#
# Bulk Modulus (GPa) = 24.50324 26.08446 25.29385
# Shear Modulus (GPa) = 22.79525 25.41119 24.10322
#
# Velocity S-wave (km/s) = 3.60130 3.80233 3.70318
# Velocity P-wave (km/s) = 5.58870 5.84104 5.71626
#
# Compressibility (1/GPa) = 0.04081093
#
# Stress axis : x y z
#
# Youngs Moduli (GPa) = 55.61801 85.87329 58.54268
#
# Poissons Ratio (x) = 0.00179 0.02265
# Poissons Ratio (y) = 0.00116 0.14869
# Poissons Ratio (z) = 0.02152 0.21811
#
# Static dielectric constant tensor:
#      x y z
#    x 1.501660 0.000000 0.000000 
#    y 0.000000 1.664380 0.000000 
#    z 0.000000 0.000000 5.189330 
# 
# From -- ./inp_files/13145.got.cif
#   From: 2010.05.17/outbox.cif.g08.bks.cpg/sg60_7_cif.got.tgz:13145.got - 2010.06.03 14:59:27.
