data_PCOD9455083
_publ_section_title
;
Structure prediction by ZEFSAII (Michael W. Deem and Ramdas Pophale) SiO2 
 PCOD9455083
Probable space group: P B C N
;
_chemical_formula_sum "Si O2"
_cell_formula_units_Z 48
_cell_length_a 11.069338
_cell_length_b 14.451411
_cell_length_c 13.587051
_cell_angle_alpha 90.000000
_cell_angle_beta 90.000000
_cell_angle_gamma 90.000000
_cell_volume 2173.487300
_symmetry_space_group_name_H-M "P B C N"
_symmetry_group_IT_number 60
_symmetry_cell_setting 'orthorhombic'
loop_
_space_group_symop_operation_xyz
x,y,z
1/2-x,1/2-y,1/2+z
1/2+x,1/2-y,-z
-x,y,1/2-z
-x,-y,-z
1/2+x,1/2+y,1/2-z
1/2-x,1/2+y,z
x,-y,1/2+z
loop_
_atom_site_type_symbol
_atom_site_label
_atom_site_fract_x
_atom_site_fract_y
_atom_site_fract_z
Si Si1 0.841966 0.319128 0.186396
Si Si2 0.631560 0.606819 0.211122
Si Si3 0.239137 0.464812 0.613367
Si Si4 0.148090 0.799326 0.480419
Si Si5 0.583897 0.588404 0.988986
Si Si6 0.590509 0.881762 0.397818
O O1 0.869572 0.216174 0.224450
O O2 0.852293 0.374783 0.287506
O O3 0.950531 0.354486 0.116975
O O4 0.720429 0.311201 0.121770
O O5 0.500000 0.571654 0.250000
O O6 0.738374 0.564094 0.274668
O O7 0.645185 0.595087 0.095198
O O8 0.289010 0.376139 0.552228
O O9 0.324250 0.553940 0.591763
O O10 0.113800 0.509834 0.578620
O O11 0.147415 0.697622 0.530590
O O12 0.007042 0.827832 0.469280
O O13 0.500000 0.500000 0.000000
#
# Coordination Sequence:
#
# PCOD9455083 Si02
#       6
#     8   8   8   8   8   8
#     4  11  22  41  66  87 127 173 209 253 326 391
#     4  12  18  40  65  88 128 162 212 266 318 373
#     4  11  24  37  67  97 125 160 218 271 315 386
#     4  11  22  41  64  91 130 165 217 261 322 384
#     4  10  20  35  60  98 115 159 210 268 315 362
#     4  11  23  41  63  95 125 170 210 258 326 387
#
# _framework density 22.084325
#
# number of rings (size 3 to 8) (size 9 to 14) (size 15 to 20)
#    0.000    1.000    8.333    1.000    4.667    0.667 
#    0.000    0.000    0.000    0.000    0.000    0.000 
#    0.000    0.000    0.000    0.000    0.000    0.000 
#
# Total GULP energy -267606.375143 kJ/mol
# GULP energy per Si atom -5575.132815 kJ/mol
# Density = 2.203406 g / cm^3
# Si number density = 22.084325 Si / 1000 Ang^3
#
#
#
# Elastic Constant Matrix: (Units=GPa)
#
#
# Indices 1 2 3 4 5 6 
#
# 1 41.4333 4.5296 35.3215 0.0000 0.0000 0.0000
# 2 4.5296 61.1635 -7.8821 0.0000 0.0000 0.0000
# 3 35.3215 -7.8821 74.3171 0.0000 0.0000 0.0000
# 4 0.0000 0.0000 0.0000 -9.9522 0.0000 0.0000
# 5 0.0000 0.0000 0.0000 0.0000 39.8487 0.0000
# 6 0.0000 0.0000 0.0000 0.0000 0.0000 31.9868
#
#
#
# Elastic Compliance Matrix: (Units=1/GPa)
#
#
# Indices 1 2 3 4 5 6 
#
# 1 0.042534 -0.005835 -0.020835 0.000000 0.000000 0.000000
# 2 -0.005835 0.017377 0.004616 0.000000 0.000000 0.000000
# 3 -0.020835 0.004616 0.023848 0.000000 0.000000 0.000000
# 4 0.000000 0.000000 0.000000 -0.100480 0.000000 0.000000
# 5 0.000000 0.000000 0.000000 0.000000 0.025095 0.000000
# 6 0.000000 0.000000 0.000000 0.000000 0.000000 0.031263
#
#
# Mechanical properties :
#
#
# Convention : Reuss Voigt Hill
#
# Bulk Modulus (GPa) = 25.21937 26.76132 25.99035
# Shear Modulus (GPa) = 51.56738 22.03965 36.80351
#
# Velocity S-wave (km/s) = 4.83745 3.16250 4.08671
# Velocity P-wave (km/s) = 6.53036 5.04771 5.83631
#
# Compressibility (1/GPa) = 0.03965206
#
# Stress axis : x y z
#
# Youngs Moduli (GPa) = 23.51037 57.54859 41.93272
#
# Poissons Ratio (x) = 0.33579 0.87365
# Poissons Ratio (y) = 0.13718 -0.19357
# Poissons Ratio (z) = 0.48983 -0.26565
#
# Static dielectric constant tensor:
#      x y z
#    x 2.303650 0.000000 0.000000 
#    y 0.000000 1.689870 0.000000 
#    z 0.000000 0.000000 1.794810 
# 
# From -- ./inp_files/16090.got.cif
#   From: 2010.05.17/outbox.cif.g08.bks.cpg/sg60_9_cif.got.tgz:16090.got - 2010.06.03 14:59:27.
