data_PCOD9455489
_publ_section_title
;
Structure prediction by ZEFSAII (Michael W. Deem and Ramdas Pophale) SiO2 
 PCOD9455489
Probable space group: P B C N
;
_chemical_formula_sum "Si O2"
_cell_formula_units_Z 48
_cell_length_a 8.674961
_cell_length_b 30.264347
_cell_length_c 9.293507
_cell_angle_alpha 90.000000
_cell_angle_beta 90.000000
_cell_angle_gamma 90.000000
_cell_volume 2439.936193
_symmetry_space_group_name_H-M "P B C N"
_symmetry_group_IT_number 60
_symmetry_cell_setting 'orthorhombic'
loop_
_space_group_symop_operation_xyz
x,y,z
1/2-x,1/2-y,1/2+z
1/2+x,1/2-y,-z
-x,y,1/2-z
-x,-y,-z
1/2+x,1/2+y,1/2-z
1/2-x,1/2+y,z
x,-y,1/2+z
loop_
_atom_site_type_symbol
_atom_site_label
_atom_site_fract_x
_atom_site_fract_y
_atom_site_fract_z
Si Si1 0.080977 0.227753 0.893516
Si Si2 0.821899 0.632726 0.902054
Si Si3 0.774156 0.112046 0.576659
Si Si4 0.521586 0.954972 0.083114
Si Si5 0.035032 0.150569 0.417056
Si Si6 0.090309 0.695338 0.963349
O O1 0.000000 0.208935 0.750000
O O2 0.995340 0.274059 0.920874
O O3 0.268146 0.223826 0.891132
O O4 0.027931 0.197679 0.027543
O O5 0.743216 0.625188 0.745413
O O6 0.907087 0.586785 0.941538
O O7 0.708936 0.646151 0.029869
O O8 0.944375 0.672479 0.884879
O O9 0.689156 0.066084 0.556381
O O10 0.681869 0.150863 0.491225
O O11 0.943144 0.114785 0.513581
O O12 0.500000 0.965138 0.250000
O O13 0.500000 0.000000 0.000000
O O14 0.000000 0.144793 0.250000
#
# Coordination Sequence:
#
# PCOD9455489 Si02
#       6
#     8   8   8   8   8   8
#     4  11  24  39  57  83 119 158 196 242 292 347
#     4  10  20  39  62  82 114 155 193 235 292 357
#     4   9  20  38  60  83 114 153 191 232 291 356
#     4   9  19  36  61  90 116 149 189 234 289 354
#     4  11  23  37  57  86 115 149 195 247 295 341
#     4  10  21  35  59  86 109 148 201 242 279 337
#
# _framework density 19.672644999999999
#
# number of rings (size 3 to 8) (size 9 to 14) (size 15 to 20)
#    0.000    2.000    0.000    5.000    0.000    9.333 
#    0.000    5.833    0.000    0.000    0.000    0.000 
#    0.000    0.000    0.000    0.000    0.000    0.000 
#
# Total GULP energy -267267.800053 kJ/mol
# GULP energy per Si atom -5568.079168 kJ/mol
# Density = 1.962787 g / cm^3
# Si number density = 19.672645 Si / 1000 Ang^3
#
#
#
# Elastic Constant Matrix: (Units=GPa)
#
#
# Indices 1 2 3 4 5 6 
#
# 1 121.8719 27.0187 59.7914 0.0000 0.0000 0.0000
# 2 27.0187 80.0947 28.1676 0.0000 0.0000 0.0000
# 3 59.7914 28.1676 72.5710 0.0000 0.0000 0.0000
# 4 0.0000 0.0000 0.0000 17.8986 0.0000 0.0000
# 5 0.0000 0.0000 0.0000 0.0000 23.7718 0.0000
# 6 0.0000 0.0000 0.0000 0.0000 0.0000 12.4355
#
#
#
# Elastic Compliance Matrix: (Units=1/GPa)
#
#
# Indices 1 2 3 4 5 6 
#
# 1 0.013812 -0.000761 -0.011085 0.000000 0.000000 0.000000
# 2 -0.000761 0.014501 -0.005001 0.000000 0.000000 0.000000
# 3 -0.011085 -0.005001 0.024853 0.000000 0.000000 0.000000
# 4 0.000000 0.000000 0.000000 0.055870 0.000000 0.000000
# 5 0.000000 0.000000 0.000000 0.000000 0.042067 0.000000
# 6 0.000000 0.000000 0.000000 0.000000 0.000000 0.080415
#
#
# Mechanical properties :
#
#
# Convention : Reuss Voigt Hill
#
# Bulk Modulus (GPa) = 51.35411 56.05478 53.70444
# Shear Modulus (GPa) = 18.40247 21.45851 19.93049
#
# Velocity S-wave (km/s) = 3.06181 3.30628 3.18639
# Velocity P-wave (km/s) = 6.21776 6.56741 6.39498
#
# Compressibility (1/GPa) = 0.01947264
#
# Stress axis : x y z
#
# Youngs Moduli (GPa) = 72.39952 68.96168 40.23611
#
# Poissons Ratio (x) = 0.05249 0.44600
# Poissons Ratio (y) = 0.05511 0.20123
# Poissons Ratio (z) = 0.80251 0.34489
#
# Static dielectric constant tensor:
#      x y z
#    x 1.647470 0.000000 0.000000 
#    y 0.000000 1.696210 0.000000 
#    z 0.000000 0.000000 1.701530 
# 
# From -- ./inp_files/4202.got.cif
#   From: 2010.05.17/outbox.cif.g08.bks.cpg/sg60_3_cif.got.tgz:4202.got - 2010.06.03 14:59:27.
