data_PCOD9455319
_publ_section_title
;
Structure prediction by ZEFSAII (Michael W. Deem and Ramdas Pophale) SiO2 
 PCOD9455319
Probable space group: P B C N
;
_chemical_formula_sum "Si O2"
_cell_formula_units_Z 36
_cell_length_a 14.995809
_cell_length_b 25.590385
_cell_length_c 4.799933
_cell_angle_alpha 90.000000
_cell_angle_beta 90.000000
_cell_angle_gamma 90.000000
_cell_volume 1841.967212
_symmetry_space_group_name_H-M "P B C N"
_symmetry_group_IT_number 60
_symmetry_cell_setting 'orthorhombic'
loop_
_space_group_symop_operation_xyz
x,y,z
1/2-x,1/2-y,1/2+z
1/2+x,1/2-y,-z
-x,y,1/2-z
-x,-y,-z
1/2+x,1/2+y,1/2-z
1/2-x,1/2+y,z
x,-y,1/2+z
loop_
_atom_site_type_symbol
_atom_site_label
_atom_site_fract_x
_atom_site_fract_y
_atom_site_fract_z
Si Si1 0.000000 0.666504 0.250000
Si Si2 0.377119 0.817170 0.274243
Si Si3 0.604328 0.465007 0.282909
Si Si4 0.318179 0.356667 0.364000
Si Si5 0.098881 0.196951 0.372892
O O1 0.072092 0.688353 0.477150
O O2 0.931016 0.648083 0.495044
O O3 0.278587 0.839576 0.257083
O O4 0.375668 0.757807 0.385049
O O5 0.500000 0.450168 0.250000
O O6 0.618698 0.483174 0.597696
O O7 0.664222 0.417686 0.179946
O O8 0.335323 0.335865 0.673788
O O9 0.390949 0.327111 0.175708
O O10 0.000000 0.192379 0.250000
#
# Coordination Sequence:
#
# PCOD9455319 Si02
#       5
#     4   8   8   8   8
#     4  10  20  38  58  76 114 164 192 228 286 338
#     4  11  22  38  58  81 120 157 198 231 284 341
#     4  10  21  39  60  82 117 149 185 234 292 343
#     4  12  24  37  58  92 111 155 201 242 275 339
#     4  12  22  35  56  82 128 154 191 229 281 346
#
# _framework density 19.544321
#
# number of rings (size 3 to 8) (size 9 to 14) (size 15 to 20)
#    0.000    0.889    2.222    7.333    0.000    1.778 
#    0.000    0.000    0.000    0.000    0.000   15.556 
#    0.000    0.000    0.000    0.000    0.000    0.000 
#
# Total GULP energy -200614.267207 kJ/mol
# GULP energy per Si atom -5572.618534 kJ/mol
# Density = 1.949984 g / cm^3
# Si number density = 19.544321 Si / 1000 Ang^3
#
#
#
# Elastic Constant Matrix: (Units=GPa)
#
#
# Indices 1 2 3 4 5 6 
#
# 1 96.4733 43.7034 10.1730 0.0000 0.0000 0.0000
# 2 43.7034 46.0729 4.1438 0.0000 0.0000 0.0000
# 3 10.1730 4.1438 98.1751 0.0000 0.0000 0.0000
# 4 0.0000 0.0000 0.0000 33.7572 0.0000 0.0000
# 5 0.0000 0.0000 0.0000 0.0000 23.4102 0.0000
# 6 0.0000 0.0000 0.0000 0.0000 0.0000 -14.6719
#
#
#
# Elastic Compliance Matrix: (Units=1/GPa)
#
#
# Indices 1 2 3 4 5 6 
#
# 1 0.018309 -0.017262 -0.001169 0.000000 0.000000 0.000000
# 2 -0.017262 0.038062 0.000182 0.000000 0.000000 0.000000
# 3 -0.001169 0.000182 0.010299 0.000000 0.000000 0.000000
# 4 0.000000 0.000000 0.000000 0.029623 0.000000 0.000000
# 5 0.000000 0.000000 0.000000 0.000000 0.042716 0.000000
# 6 0.000000 0.000000 0.000000 0.000000 0.000000 -0.068157
#
#
# Mechanical properties :
#
#
# Convention : Reuss Voigt Hill
#
# Bulk Modulus (GPa) = 33.14140 39.64019 36.39080
# Shear Modulus (GPa) = 42.58678 20.67917 31.63297
#
# Velocity S-wave (km/s) = 4.67302 3.25632 4.02745
# Velocity P-wave (km/s) = 6.79044 5.87064 6.34722
#
# Compressibility (1/GPa) = 0.03017374
#
# Stress axis : x y z
#
# Youngs Moduli (GPa) = 54.61908 26.27259 97.09409
#
# Poissons Ratio (x) = 0.45352 0.11346
# Poissons Ratio (y) = 0.94283 -0.01769
# Poissons Ratio (z) = 0.06383 -0.00479
#
# Static dielectric constant tensor:
#      x y z
#    x 1.706580 0.000000 0.000000 
#    y 0.000000 1.648300 0.000000 
#    z 0.000000 0.000000 1.638680 
# 
# From -- ./inp_files/1129.got.cif
#   From: 2010.05.17/outbox.cif.g08.bks.cpg/sg60_1_cif.got.tgz:1129.got - 2010.06.03 14:59:27.
