data_PCOD9455959
_publ_section_title
;
Structure prediction by ZEFSAII (Michael W. Deem and Ramdas Pophale) SiO2 
 PCOD9455959
Probable space group: P B C N
;
_chemical_formula_sum "Si O2"
_cell_formula_units_Z 64
_cell_length_a 17.618112
_cell_length_b 20.522253
_cell_length_c 7.440518
_cell_angle_alpha 90.000000
_cell_angle_beta 90.000000
_cell_angle_gamma 90.000000
_cell_volume 2690.218628
_symmetry_space_group_name_H-M "P B C N"
_symmetry_group_IT_number 60
_symmetry_cell_setting 'orthorhombic'
loop_
_space_group_symop_operation_xyz
x,y,z
1/2-x,1/2-y,1/2+z
1/2+x,1/2-y,-z
-x,y,1/2-z
-x,-y,-z
1/2+x,1/2+y,1/2-z
1/2-x,1/2+y,z
x,-y,1/2+z
loop_
_atom_site_type_symbol
_atom_site_label
_atom_site_fract_x
_atom_site_fract_y
_atom_site_fract_z
Si Si1 0.780725 0.532491 0.425546
Si Si2 0.420731 0.824956 0.294230
Si Si3 0.813226 0.699301 0.982744
Si Si4 0.572607 0.559095 0.630358
Si Si5 0.123143 0.923219 0.755680
Si Si6 0.452234 0.938841 0.578779
Si Si7 0.730564 0.595806 0.788526
Si Si8 0.680026 0.709230 0.206066
O O1 0.708607 0.558965 0.313125
O O2 0.866940 0.540282 0.359305
O O3 0.775696 0.570873 0.613208
O O4 0.759071 0.455986 0.437901
O O5 0.500000 0.790528 0.250000
O O6 0.615167 0.840521 0.404592
O O7 0.439482 0.884999 0.422923
O O8 0.360014 0.773771 0.375739
O O9 0.749090 0.667441 0.853577
O O10 0.827715 0.772891 0.917472
O O11 0.768977 0.698000 0.167109
O O12 0.500000 0.571001 0.750000
O O13 0.573317 0.581783 0.425246
O O14 0.591007 0.481525 0.625817
O O15 0.644269 0.588155 0.734558
O O16 0.132671 0.853740 0.845082
O O17 0.500000 0.914027 0.750000
O O18 0.500000 0.000000 0.500000
#
# Coordination Sequence:
#
# PCOD9455959 Si02
#       8
#     8   8   8   8   8   8   8   8
#     4  10  21  38  60  97 130 168 228 280 338 428
#     4  10  25  48  64  98 144 181 235 302 353 429
#     4  10  24  44  70  91 138 177 245 284 359 427
#     4  10  22  40  63 101 138 170 222 292 358 439
#     4  10  23  40  70  96 133 179 230 282 375 414
#     4  12  25  39  68 101 141 185 233 288 367 423
#     4  10  21  37  64  90 132 172 219 289 337 420
#     4  10  25  44  74  96 130 191 234 295 358 430
#
# _framework density 23.789888000000001
#
# number of rings (size 3 to 8) (size 9 to 14) (size 15 to 20)
#    0.750    1.000    1.250    1.500   14.000    1.500 
#    2.250    0.000    0.000    0.000    0.000    0.000 
#    0.000    0.000    0.000    0.000    0.000    0.000 
#
# Total GULP energy -357055.151410 kJ/mol
# GULP energy per Si atom -5578.986741 kJ/mol
# Density = 2.373574 g / cm^3
# Si number density = 23.789888 Si / 1000 Ang^3
#
#
#
# Elastic Constant Matrix: (Units=GPa)
#
#
# Indices 1 2 3 4 5 6 
#
# 1 137.2752 9.8441 20.1476 0.0000 0.0000 0.0000
# 2 9.8441 82.8707 4.7423 0.0000 0.0000 0.0000
# 3 20.1476 4.7423 67.2239 0.0000 0.0000 0.0000
# 4 0.0000 0.0000 0.0000 23.2815 0.0000 0.0000
# 5 0.0000 0.0000 0.0000 0.0000 38.1058 0.0000
# 6 0.0000 0.0000 0.0000 0.0000 0.0000 20.9337
#
#
#
# Elastic Compliance Matrix: (Units=1/GPa)
#
#
# Indices 1 2 3 4 5 6 
#
# 1 0.007670 -0.000783 -0.002244 0.000000 0.000000 0.000000
# 2 -0.000783 0.012196 -0.000626 0.000000 0.000000 0.000000
# 3 -0.002244 -0.000626 0.015592 0.000000 0.000000 0.000000
# 4 0.000000 0.000000 0.000000 0.042953 0.000000 0.000000
# 5 0.000000 0.000000 0.000000 0.000000 0.026243 0.000000
# 6 0.000000 0.000000 0.000000 0.000000 0.000000 0.047770
#
#
# Mechanical properties :
#
#
# Convention : Reuss Voigt Hill
#
# Bulk Modulus (GPa) = 35.51901 39.64865 37.58383
# Shear Modulus (GPa) = 29.56621 33.30657 31.43639
#
# Velocity S-wave (km/s) = 3.52917 3.74576 3.63908
# Velocity P-wave (km/s) = 5.61867 5.95063 5.78703
#
# Compressibility (1/GPa) = 0.02815394
#
# Stress axis : x y z
#
# Youngs Moduli (GPa) = 130.37718 81.99560 64.13453
#
# Poissons Ratio (x) = 0.06418 0.14389
# Poissons Ratio (y) = 0.10205 0.04013
# Poissons Ratio (z) = 0.29251 0.05131
#
# Static dielectric constant tensor:
#      x y z
#    x 1.964390 0.000000 0.000000 
#    y 0.000000 1.926280 0.000000 
#    z 0.000000 0.000000 1.994300 
# 
# From -- ./inp_files/7006.got.cif
#   From: 2010.05.17/outbox.cif.g08.bks.cpg/sg60_4_cif.got.tgz:7006.got - 2010.06.03 14:59:27.
