data_PCOD9455820
_publ_section_title
;
Structure prediction by ZEFSAII (Michael W. Deem and Ramdas Pophale) SiO2 
 PCOD9455820
Probable space group: P B C N
;
_chemical_formula_sum "Si O2"
_cell_formula_units_Z 56
_cell_length_a 14.385302
_cell_length_b 14.225913
_cell_length_c 13.799055
_cell_angle_alpha 90.000000
_cell_angle_beta 90.000000
_cell_angle_gamma 90.000000
_cell_volume 2823.894567
_symmetry_space_group_name_H-M "P B C N"
_symmetry_group_IT_number 60
_symmetry_cell_setting 'orthorhombic'
loop_
_space_group_symop_operation_xyz
x,y,z
1/2-x,1/2-y,1/2+z
1/2+x,1/2-y,-z
-x,y,1/2-z
-x,-y,-z
1/2+x,1/2+y,1/2-z
1/2-x,1/2+y,z
x,-y,1/2+z
loop_
_atom_site_type_symbol
_atom_site_label
_atom_site_fract_x
_atom_site_fract_y
_atom_site_fract_z
Si Si1 0.500000 0.260065 0.750000
Si Si2 0.649909 0.749309 0.384594
Si Si3 0.350091 0.250691 0.384594
Si Si4 0.651049 0.161283 0.615720
Si Si5 0.897774 0.462716 0.616195
Si Si6 0.500000 0.260065 0.250000
Si Si7 0.348951 0.838717 0.615720
Si Si8 0.897774 0.462716 0.383805
O O1 0.423450 0.308042 0.680783
O O2 0.563598 0.203000 0.672964
O O3 0.632465 0.739519 0.500000
O O4 0.755244 0.718769 0.366303
O O5 0.633580 0.858785 0.354530
O O6 0.244756 0.281231 0.366303
O O7 0.366420 0.141215 0.354530
O O8 0.423450 0.308042 0.319217
O O9 0.630764 0.165190 0.500000
O O10 0.665689 0.051730 0.642073
O O11 0.900021 0.456392 0.500000
O O12 1.000000 0.500000 0.645469
O O13 0.563598 0.203001 0.327036
O O14 0.334311 0.948270 0.642073
#
# Coordination Sequence:
#
# PCOD9455820 Si02
#       8
#     4   8   8   8   8   4   8   8
#     4  12  20  33  54  81 106 142 178 219 260 327
#     4  10  21  35  53  80 112 140 173 221 268 311
#     4  10  21  35  53  80 112 140 173 221 268 311
#     4  10  21  35  53  80 112 140 173 221 268 311
#     4   9  16  32  56  80 101 135 180 218 261 315
#     4  12  20  33  54  81 106 142 178 219 260 327
#     4  10  21  35  53  80 112 140 173 221 268 311
#     4   9  16  32  56  80 101 135 180 218 261 315
#
# _framework density 19.830769
#
# number of rings (size 3 to 8) (size 9 to 14) (size 15 to 20)
#    0.000    2.000    2.857    1.714    0.000    2.286 
#    0.000    0.000    0.000    3.429    0.000   10.000 
#    0.000    0.000    0.000    0.000    0.000    0.000 
#
# Total GULP energy -312138.344213 kJ/mol
# GULP energy per Si atom -5573.899004 kJ/mol
# Density = 1.978563 g / cm^3
# Si number density = 19.830769 Si / 1000 Ang^3
#
#
#
# Elastic Constant Matrix: (Units=GPa)
#
#
# Indices 1 2 3 4 5 6 
#
# 1 134.9687 50.0075 41.4077 0.0000 0.0000 0.0000
# 2 50.0075 65.5789 8.3756 0.0000 0.0000 0.0000
# 3 41.4077 8.3756 105.5656 0.0000 0.0000 0.0000
# 4 0.0000 0.0000 0.0000 12.7339 0.0000 0.0000
# 5 0.0000 0.0000 0.0000 0.0000 36.9336 0.0000
# 6 0.0000 0.0000 0.0000 0.0000 0.0000 27.4755
#
#
#
# Elastic Compliance Matrix: (Units=1/GPa)
#
#
# Indices 1 2 3 4 5 6 
#
# 1 0.011751 -0.008458 -0.003938 0.000000 0.000000 0.000000
# 2 -0.008458 0.021492 0.001612 0.000000 0.000000 0.000000
# 3 -0.003938 0.001612 0.010890 0.000000 0.000000 0.000000
# 4 0.000000 0.000000 0.000000 0.078530 0.000000 0.000000
# 5 0.000000 0.000000 0.000000 0.000000 0.027076 0.000000
# 6 0.000000 0.000000 0.000000 0.000000 0.000000 0.036396
#
#
# Mechanical properties :
#
#
# Convention : Reuss Voigt Hill
#
# Bulk Modulus (GPa) = 44.31522 56.18831 50.25177
# Shear Modulus (GPa) = 23.23154 29.18344 26.20749
#
# Velocity S-wave (km/s) = 3.42642 3.84034 3.63927
# Velocity P-wave (km/s) = 6.16839 6.93251 6.56158
#
# Compressibility (1/GPa) = 0.02256561
#
# Stress axis : x y z
#
# Youngs Moduli (GPa) = 85.09831 46.52795 91.83041
#
# Poissons Ratio (x) = 0.39353 0.36165
# Poissons Ratio (y) = 0.71975 -0.14806
# Poissons Ratio (z) = 0.33514 -0.07502
#
# Static dielectric constant tensor:
#      x y z
#    x 1.703060 0.000000 0.000000 
#    y 0.000000 1.704940 0.000000 
#    z 0.000000 0.000000 1.780510 
# 
# From -- ./inp_files/16984.got.cif
#   From: 2010.05.17/outbox.cif.g08.bks.cpg/sg60_9_cif.got.tgz:16984.got - 2010.06.03 14:59:27.
