data_PCOD9455382
_publ_section_title
;
Structure prediction by ZEFSAII (Michael W. Deem and Ramdas Pophale) SiO2 
 PCOD9455382
Probable space group: P B C N
;
_chemical_formula_sum "Si O2"
_cell_formula_units_Z 40
_cell_length_a 7.174701
_cell_length_b 25.935942
_cell_length_c 8.379470
_cell_angle_alpha 90.000000
_cell_angle_beta 90.000000
_cell_angle_gamma 90.000000
_cell_volume 1559.273807
_symmetry_space_group_name_H-M "P B C N"
_symmetry_group_IT_number 60
_symmetry_cell_setting 'orthorhombic'
loop_
_space_group_symop_operation_xyz
x,y,z
1/2-x,1/2-y,1/2+z
1/2+x,1/2-y,-z
-x,y,1/2-z
-x,-y,-z
1/2+x,1/2+y,1/2-z
1/2-x,1/2+y,z
x,-y,1/2+z
loop_
_atom_site_type_symbol
_atom_site_label
_atom_site_fract_x
_atom_site_fract_y
_atom_site_fract_z
Si Si1 0.029590 0.219402 0.069100
Si Si2 0.071345 0.113710 0.436622
Si Si3 0.812643 0.424169 0.045057
Si Si4 0.056636 0.324951 0.572794
Si Si5 0.723083 0.477172 0.717903
O O1 0.227026 0.191279 0.067744
O O2 0.000000 0.237271 0.250000
O O3 0.885183 0.173170 0.023136
O O4 0.034740 0.269907 0.963130
O O5 0.215255 0.066647 0.421338
O O6 0.000000 0.118032 0.250000
O O7 0.902170 0.096044 0.547616
O O8 0.946750 0.374508 0.043588
O O9 0.816574 0.451538 0.871392
O O10 0.818794 0.470242 0.168406
O O11 0.000000 0.341892 0.750000
O O12 0.500000 0.487287 0.750000
#
# Coordination Sequence:
#
# PCOD9455382 Si02
#       5
#     8   8   8   8   8
#     4  10  20  38  62  91 120 158 207 252 305 370
#     4   7  13  27  51  80 112 148 191 241 287 337
#     4   9  18  32  53  82 116 157 200 244 295 348
#     4  11  23  41  62  87 122 160 200 258 321 372
#     4   9  15  30  55  84 122 165 206 245 286 353
#
# _framework density 25.652965999999999
#
# number of rings (size 3 to 8) (size 9 to 14) (size 15 to 20)
#    0.000    3.200    0.000    4.800    0.000    0.000 
#    0.000   17.000    0.000    0.000    0.000    0.000 
#    0.000    0.000    0.000    0.400    0.000    0.000 
#
# Total GULP energy -223403.901410 kJ/mol
# GULP energy per Si atom -5585.097535 kJ/mol
# Density = 2.559458 g / cm^3
# Si number density = 25.652966 Si / 1000 Ang^3
#
#
#
# Elastic Constant Matrix: (Units=GPa)
#
#
# Indices 1 2 3 4 5 6 
#
# 1 53.1534 47.4175 9.4599 0.0000 0.0000 0.0000
# 2 47.4175 217.3753 43.4465 0.0000 0.0000 0.0000
# 3 9.4599 43.4465 26.5647 0.0000 0.0000 0.0000
# 4 0.0000 0.0000 0.0000 27.4461 0.0000 0.0000
# 5 0.0000 0.0000 0.0000 0.0000 21.3845 0.0000
# 6 0.0000 0.0000 0.0000 0.0000 0.0000 0.2238
#
#
#
# Elastic Compliance Matrix: (Units=1/GPa)
#
#
# Indices 1 2 3 4 5 6 
#
# 1 0.023359 -0.005100 0.000023 0.000000 0.000000 0.000000
# 2 -0.005100 0.007948 -0.011183 0.000000 0.000000 0.000000
# 3 0.000023 -0.011183 0.055925 0.000000 0.000000 0.000000
# 4 0.000000 0.000000 0.000000 0.036435 0.000000 0.000000
# 5 0.000000 0.000000 0.000000 0.000000 0.046763 0.000000
# 6 0.000000 0.000000 0.000000 0.000000 0.000000 4.467925
#
#
# Mechanical properties :
#
#
# Convention : Reuss Voigt Hill
#
# Bulk Modulus (GPa) = 18.27751 55.30458 36.79105
# Shear Modulus (GPa) = 1.06630 22.92886 11.99758
#
# Velocity S-wave (km/s) = 0.64542 2.99291 2.16496
# Velocity P-wave (km/s) = 2.77413 5.79214 4.54118
#
# Compressibility (1/GPa) = 0.05471204
#
# Stress axis : x y z
#
# Youngs Moduli (GPa) = 42.80988 125.81974 17.88114
#
# Poissons Ratio (x) = 0.64168 -0.00041
# Poissons Ratio (y) = 0.21833 0.19996
# Poissons Ratio (z) = -0.00097 1.40699
#
# Static dielectric constant tensor:
#      x y z
#    x 2.208610 0.000000 0.000000 
#    y 0.000000 2.087720 0.000000 
#    z 0.000000 0.000000 2.671670 
# 
# From -- ./inp_files/3992.got.cif
#   From: 2010.05.17/outbox.cif.g08.bks.cpg/sg60_2_cif.got.tgz:3992.got - 2010.06.03 14:59:27.
