data_PCOD9455627
_publ_section_title
;
Structure prediction by ZEFSAII (Michael W. Deem and Ramdas Pophale) SiO2 
 PCOD9455627
Probable space group: P B C N
;
_chemical_formula_sum "Si O2"
_cell_formula_units_Z 48
_cell_length_a 13.956514
_cell_length_b 9.099243
_cell_length_c 16.557474
_cell_angle_alpha 90.000000
_cell_angle_beta 90.000000
_cell_angle_gamma 90.000000
_cell_volume 2102.695090
_symmetry_space_group_name_H-M "P B C N"
_symmetry_group_IT_number 60
_symmetry_cell_setting 'orthorhombic'
loop_
_space_group_symop_operation_xyz
x,y,z
1/2-x,1/2-y,1/2+z
1/2+x,1/2-y,-z
-x,y,1/2-z
-x,-y,-z
1/2+x,1/2+y,1/2-z
1/2-x,1/2+y,z
x,-y,1/2+z
loop_
_atom_site_type_symbol
_atom_site_label
_atom_site_fract_x
_atom_site_fract_y
_atom_site_fract_z
Si Si1 0.852361 0.315458 0.120165
Si Si2 0.567057 0.631209 0.970576
Si Si3 0.032532 0.574604 0.416905
Si Si4 0.000000 0.412757 0.750000
Si Si5 0.335380 0.462571 0.667648
Si Si6 0.802010 0.251920 0.739801
Si Si7 0.000000 0.798072 0.750000
O O1 0.866408 0.487093 0.097249
O O2 0.752781 0.259531 0.155144
O O3 0.921162 0.287742 0.198045
O O4 0.885728 0.216879 0.045459
O O5 0.499089 0.754596 0.926893
O O6 0.648178 0.553698 0.914660
O O7 0.500000 0.500000 0.000000
O O8 0.973254 0.521109 0.337485
O O9 0.000000 0.500000 0.500000
O O10 0.906192 0.320031 0.729082
O O11 0.256256 0.338811 0.689259
O O12 0.312405 0.585428 0.733100
O O13 0.438688 0.393636 0.687589
#
# Coordination Sequence:
#
# PCOD9455627 Si02
#       7
#     8   8   8   4   8   8   4
#     4  10  22  43  69 108 140 192 245 310 374 456
#     4  11  22  44  72 109 148 196 236 306 392 462
#     4  10  23  42  73 107 146 189 256 307 388 460
#     4  12  22  46  74 102 146 204 256 318 382 446
#     4  11  23  44  66 106 142 188 244 300 371 454
#     4  11  25  43  70 102 144 194 255 308 370 452
#     4  10  20  40  74  96 140 186 246 296 376 448
#
# _framework density 22.827846000000001
#
# number of rings (size 3 to 8) (size 9 to 14) (size 15 to 20)
#    0.000    1.333    3.333    2.000    0.000    1.333 
#    3.000    3.333    0.000    0.000    0.000    0.000 
#    0.000    0.000    0.000    0.000    0.000    0.000 
#
# Total GULP energy -267422.458608 kJ/mol
# GULP energy per Si atom -5571.301221 kJ/mol
# Density = 2.277589 g / cm^3
# Si number density = 22.827846 Si / 1000 Ang^3
#
#
#
# Elastic Constant Matrix: (Units=GPa)
#
#
# Indices 1 2 3 4 5 6 
#
# 1 100.3823 20.9534 26.9768 0.0000 0.0000 0.0000
# 2 20.9534 91.8534 22.9082 0.0000 0.0000 0.0000
# 3 26.9768 22.9082 134.2102 0.0000 0.0000 0.0000
# 4 0.0000 0.0000 0.0000 30.9262 0.0000 0.0000
# 5 0.0000 0.0000 0.0000 0.0000 34.8089 0.0000
# 6 0.0000 0.0000 0.0000 0.0000 0.0000 -32.9980
#
#
#
# Elastic Compliance Matrix: (Units=1/GPa)
#
#
# Indices 1 2 3 4 5 6 
#
# 1 0.010879 -0.002022 -0.001842 0.000000 0.000000 0.000000
# 2 -0.002022 0.011747 -0.001599 0.000000 0.000000 0.000000
# 3 -0.001842 -0.001599 0.008094 0.000000 0.000000 0.000000
# 4 0.000000 0.000000 0.000000 0.032335 0.000000 0.000000
# 5 0.000000 0.000000 0.000000 0.000000 0.028728 0.000000
# 6 0.000000 0.000000 0.000000 0.000000 0.000000 -0.030305
#
#
# Mechanical properties :
#
#
# Convention : Reuss Voigt Hill
#
# Bulk Modulus (GPa) = 50.51798 52.01364 51.26581
# Shear Modulus (GPa) = 63.28979 23.58791 43.43885
#
# Velocity S-wave (km/s) = 5.27115 3.21798 4.36694
# Velocity P-wave (km/s) = 7.69576 6.05325 6.92338
#
# Compressibility (1/GPa) = 0.01979493
#
# Stress axis : x y z
#
# Youngs Moduli (GPa) = 91.92059 85.12855 123.54816
#
# Poissons Ratio (x) = 0.17217 0.22752
# Poissons Ratio (y) = 0.18590 0.19750
# Poissons Ratio (z) = 0.16927 0.13608
#
# Static dielectric constant tensor:
#      x y z
#    x 1.827180 0.000000 0.000000 
#    y 0.000000 1.927710 0.000000 
#    z 0.000000 0.000000 2.020610 
# 
# From -- ./inp_files/20546.got.cif
#   From: 2010.05.17/outbox.cif.g08.bks.cpg/sg60_11_cif.got.tgz:20546.got - 2010.06.03 14:59:27.
