data_PCOD9455472
_publ_section_title
;
Structure prediction by ZEFSAII (Michael W. Deem and Ramdas Pophale) SiO2 
 PCOD9455472
Probable space group: P B C N
;
_chemical_formula_sum "Si O2"
_cell_formula_units_Z 56
_cell_length_a 24.207781
_cell_length_b 20.167441
_cell_length_c 5.452790
_cell_angle_alpha 90.000000
_cell_angle_beta 90.000000
_cell_angle_gamma 90.000000
_cell_volume 2662.101126
_symmetry_space_group_name_H-M "P B C N"
_symmetry_group_IT_number 60
_symmetry_cell_setting 'orthorhombic'
loop_
_space_group_symop_operation_xyz
x,y,z
1/2-x,1/2-y,1/2+z
1/2+x,1/2-y,-z
-x,y,1/2-z
-x,-y,-z
1/2+x,1/2+y,1/2-z
1/2-x,1/2+y,z
x,-y,1/2+z
loop_
_atom_site_type_symbol
_atom_site_label
_atom_site_fract_x
_atom_site_fract_y
_atom_site_fract_z
Si Si1 0.243127 0.292364 0.152099
Si Si2 0.370668 0.786086 0.934433
Si Si3 0.442161 0.709186 0.304691
Si Si4 0.447830 0.841280 0.588842
Si Si5 0.937671 0.475362 0.069235
Si Si6 0.062428 0.042991 0.781748
Si Si7 0.853089 0.152605 0.868060
O O1 0.244336 0.258985 0.424095
O O2 0.286877 0.352622 0.110573
O O3 0.179241 0.309458 0.102612
O O4 0.393714 0.840974 0.755577
O O5 0.353116 0.723043 0.771219
O O6 0.420696 0.754745 0.086216
O O7 0.500000 0.673216 0.250000
O O8 0.455131 0.765672 0.504999
O O9 0.390641 0.664794 0.389966
O O10 0.500000 0.861191 0.750000
O O11 0.440651 0.896607 0.383326
O O12 0.911294 0.490212 0.804022
O O13 0.000000 0.500000 0.000000
O O14 0.111280 0.097113 0.769975
O O15 0.000000 0.072423 0.750000
O O16 0.066838 0.995634 0.540745
#
# Coordination Sequence:
#
# PCOD9455472 Si02
#       7
#     8   8   8   8   8   8   8
#     4  10  20  39  60  86 118 153 203 236 290 363
#     4  10  22  36  55  88 122 155 194 250 306 364
#     4  11  22  31  56  86 123 153 183 246 308 372
#     4  11  21  33  50  81 117 153 191 244 302 355
#     4  10  21  33  52  74 100 153 202 233 267 341
#     4  10  24  41  62  92 124 161 207 256 306 378
#     4  10  23  38  61  87 119 163 198 249 307 371
#
# _framework density 21.036017000000001
#
# number of rings (size 3 to 8) (size 9 to 14) (size 15 to 20)
#    0.000    1.714    4.286    0.000    8.000    0.571 
#    0.000    0.000    0.000    1.714    0.000    0.000 
#    0.000    0.000    0.000    0.000    0.000    0.000 
#
# Total GULP energy -311949.611502 kJ/mol
# GULP energy per Si atom -5570.528777 kJ/mol
# Density = 2.098814 g / cm^3
# Si number density = 21.036017 Si / 1000 Ang^3
#
#
#
# Elastic Constant Matrix: (Units=GPa)
#
#
# Indices 1 2 3 4 5 6 
#
# 1 84.3831 1.7442 2.8903 0.0000 0.0000 0.0000
# 2 1.7442 36.2342 3.7631 0.0000 0.0000 0.0000
# 3 2.8903 3.7631 90.8623 0.0000 0.0000 0.0000
# 4 0.0000 0.0000 0.0000 0.7651 0.0000 0.0000
# 5 0.0000 0.0000 0.0000 0.0000 26.3961 0.0000
# 6 0.0000 0.0000 0.0000 0.0000 0.0000 20.3403
#
#
#
# Elastic Compliance Matrix: (Units=1/GPa)
#
#
# Indices 1 2 3 4 5 6 
#
# 1 0.011874 -0.000535 -0.000356 0.000000 0.000000 0.000000
# 2 -0.000535 0.027742 -0.001132 0.000000 0.000000 0.000000
# 3 -0.000356 -0.001132 0.011064 0.000000 0.000000 0.000000
# 4 0.000000 0.000000 0.000000 1.307096 0.000000 0.000000
# 5 0.000000 0.000000 0.000000 0.000000 0.037884 0.000000
# 6 0.000000 0.000000 0.000000 0.000000 0.000000 0.049164
#
#
# Mechanical properties :
#
#
# Convention : Reuss Voigt Hill
#
# Bulk Modulus (GPa) = 21.44310 25.36387 23.40348
# Shear Modulus (GPa) = 3.41434 23.03909 13.22672
#
# Velocity S-wave (km/s) = 1.27539 3.31300 2.51024
# Velocity P-wave (km/s) = 3.51916 5.16896 4.42169
#
# Compressibility (1/GPa) = 0.04663506
#
# Stress axis : x y z
#
# Youngs Moduli (GPa) = 84.21806 36.04707 90.38438
#
# Poissons Ratio (x) = 0.01927 0.03214
# Poissons Ratio (y) = 0.04503 0.10231
# Poissons Ratio (z) = 0.02995 0.04080
#
# Static dielectric constant tensor:
#      x y z
#    x 1.863860 0.000000 0.000000 
#    y 0.000000 1.773450 0.000000 
#    z 0.000000 0.000000 1.870240 
# 
# From -- ./inp_files/2391.got.cif
#   From: 2010.05.17/outbox.cif.g08.bks.cpg/sg60_2_cif.got.tgz:2391.got - 2010.06.03 14:59:27.
