data_PCOD9455408
_publ_section_title
;
Structure prediction by ZEFSAII (Michael W. Deem and Ramdas Pophale) SiO2 
 PCOD9455408
Probable space group: P B C N
;
_chemical_formula_sum "Si O2"
_cell_formula_units_Z 60
_cell_length_a 18.235325
_cell_length_b 30.186441
_cell_length_c 4.835079
_cell_angle_alpha 90.000000
_cell_angle_beta 90.000000
_cell_angle_gamma 90.000000
_cell_volume 2661.515470
_symmetry_space_group_name_H-M "P B C N"
_symmetry_group_IT_number 60
_symmetry_cell_setting 'orthorhombic'
loop_
_space_group_symop_operation_xyz
x,y,z
1/2-x,1/2-y,1/2+z
1/2+x,1/2-y,-z
-x,y,1/2-z
-x,-y,-z
1/2+x,1/2+y,1/2-z
1/2-x,1/2+y,z
x,-y,1/2+z
loop_
_atom_site_type_symbol
_atom_site_label
_atom_site_fract_x
_atom_site_fract_y
_atom_site_fract_z
Si Si1 0.333913 0.529983 0.187392
Si Si2 0.705774 0.742880 0.017061
Si Si3 0.888434 0.823557 0.141421
Si Si4 0.415440 0.618810 0.341684
Si Si5 0.000000 0.245934 0.750000
Si Si6 0.837749 0.470869 0.756853
Si Si7 0.080787 0.696948 0.881542
Si Si8 0.552367 0.100764 0.502252
O O1 0.347034 0.486816 0.378023
O O2 0.381963 0.570609 0.289747
O O3 0.247443 0.541784 0.211096
O O4 0.757521 0.727923 0.271032
O O5 0.649659 0.773605 0.196332
O O6 0.668012 0.704588 0.830557
O O7 0.911234 0.863144 0.347768
O O8 0.955399 0.789871 0.067381
O O9 0.870158 0.847274 0.855654
O O10 0.500000 0.619387 0.250000
O O11 0.064145 0.279884 0.673723
O O12 0.849965 0.484945 0.441307
O O13 0.892330 0.434337 0.873395
O O14 0.000000 0.704670 0.750000
O O15 0.092446 0.644840 0.886855
O O16 0.500000 0.115677 0.250000
O O17 0.500000 0.083785 0.750000
#
# Coordination Sequence:
#
# PCOD9455408 Si02
#       8
#     8   8   8   8   4   8   8   8
#     4  10  23  43  66  90 126 174 211 249 329 404
#     4  11  26  43  63  94 132 174 228 277 333 392
#     4  11  24  38  65  91 130 168 215 267 333 381
#     4  12  23  41  64 102 128 159 220 276 323 384
#     4  10  20  38  64  86 120 174 212 252 308 402
#     4  10  22  41  63  88 123 168 205 253 323 396
#     4  10  24  40  67  90 129 175 221 263 332 392
#     4  11  23  39  61  96 122 157 214 267 320 379
#
# _framework density 22.543545999999999
#
# number of rings (size 3 to 8) (size 9 to 14) (size 15 to 20)
#    0.000    1.333    2.000    2.400    7.467    4.267 
#    0.000    0.000    0.000    0.000    0.000    0.000 
#    0.000    0.000    0.000    0.000    0.000    0.000 
#
# Total GULP energy -334565.600332 kJ/mol
# GULP energy per Si atom -5576.093339 kJ/mol
# Density = 2.249224 g / cm^3
# Si number density = 22.543546 Si / 1000 Ang^3
#
#
#
# Elastic Constant Matrix: (Units=GPa)
#
#
# Indices 1 2 3 4 5 6 
#
# 1 57.8883 43.7590 16.0177 0.0000 0.0000 0.0000
# 2 43.7590 80.7600 -3.9280 0.0000 0.0000 0.0000
# 3 16.0177 -3.9280 90.0250 0.0000 0.0000 0.0000
# 4 0.0000 0.0000 0.0000 22.8669 0.0000 0.0000
# 5 0.0000 0.0000 0.0000 0.0000 33.2317 0.0000
# 6 0.0000 0.0000 0.0000 0.0000 0.0000 22.7577
#
#
#
# Elastic Compliance Matrix: (Units=1/GPa)
#
#
# Indices 1 2 3 4 5 6 
#
# 1 0.032773 -0.018080 -0.006620 0.000000 0.000000 0.000000
# 2 -0.018080 0.022383 0.004193 0.000000 0.000000 0.000000
# 3 -0.006620 0.004193 0.012469 0.000000 0.000000 0.000000
# 4 0.000000 0.000000 0.000000 0.043731 0.000000 0.000000
# 5 0.000000 0.000000 0.000000 0.000000 0.030092 0.000000
# 6 0.000000 0.000000 0.000000 0.000000 0.000000 0.043941
#
#
# Mechanical properties :
#
#
# Convention : Reuss Voigt Hill
#
# Bulk Modulus (GPa) = 37.57705 37.81897 37.69801
# Shear Modulus (GPa) = 21.25191 27.29291 24.27241
#
# Velocity S-wave (km/s) = 3.07368 3.48325 3.28486
# Velocity P-wave (km/s) = 5.41309 5.74367 5.58083
#
# Compressibility (1/GPa) = 0.02661199
#
# Stress axis : x y z
#
# Youngs Moduli (GPa) = 30.51252 44.67724 80.19968
#
# Poissons Ratio (x) = 0.80776 0.53093
# Poissons Ratio (y) = 0.55166 -0.33632
# Poissons Ratio (z) = 0.20200 -0.18735
#
# Static dielectric constant tensor:
#      x y z
#    x 2.013030 0.000000 0.000000 
#    y 0.000000 1.802440 0.000000 
#    z 0.000000 0.000000 1.926350 
# 
# From -- ./inp_files/1848.got.cif
#   From: 2010.05.17/outbox.cif.g08.bks.cpg/sg60_1_cif.got.tgz:1848.got - 2010.06.03 14:59:27.
