data_PCOD9455480
_publ_section_title
;
Structure prediction by ZEFSAII (Michael W. Deem and Ramdas Pophale) SiO2 
 PCOD9455480
Probable space group: P B C N
;
_chemical_formula_sum "Si O2"
_cell_formula_units_Z 28
_cell_length_a 5.635571
_cell_length_b 28.748698
_cell_length_c 7.198033
_cell_angle_alpha 90.000000
_cell_angle_beta 90.000000
_cell_angle_gamma 90.000000
_cell_volume 1166.191683
_symmetry_space_group_name_H-M "P B C N"
_symmetry_group_IT_number 60
_symmetry_cell_setting 'orthorhombic'
loop_
_space_group_symop_operation_xyz
x,y,z
1/2-x,1/2-y,1/2+z
1/2+x,1/2-y,-z
-x,y,1/2-z
-x,-y,-z
1/2+x,1/2+y,1/2-z
1/2-x,1/2+y,z
x,-y,1/2+z
loop_
_atom_site_type_symbol
_atom_site_label
_atom_site_fract_x
_atom_site_fract_y
_atom_site_fract_z
Si Si1 0.012669 0.401294 0.476022
Si Si2 0.597124 0.199471 0.955257
Si Si3 0.000000 0.778250 0.250000
Si Si4 0.990976 0.944808 0.470022
O O1 0.025188 0.346650 0.525475
O O2 0.762428 0.424189 0.537956
O O3 0.000000 0.402784 0.250000
O O4 0.257200 0.424702 0.540699
O O5 0.500000 0.213669 0.750000
O O6 0.861436 0.187999 0.889041
O O7 0.601934 0.241294 0.099246
O O8 0.000000 0.935834 0.250000
O O9 0.000000 0.000000 0.500000
#
# Coordination Sequence:
#
# PCOD9455480 Si02
#       4
#     8   8   4   8
#     4   9  21  37  63  87 124 167 207 262 331 395
#     4  11  24  41  65  95 134 172 225 278 335 397
#     4  12  24  42  66  98 128 180 228 278 338 402
#     4  10  20  39  61  89 119 162 207 260 331 396
#
# _framework density 24.009775000000001
#
# number of rings (size 3 to 8) (size 9 to 14) (size 15 to 20)
#    0.000    1.714    2.857    0.857   10.000    0.000 
#    5.143    0.000    0.000    0.000    0.000    0.000 
#    0.000    0.000    0.000    0.000    0.000    0.000 
#
# Total GULP energy -156054.087900 kJ/mol
# GULP energy per Si atom -5573.360282 kJ/mol
# Density = 2.395513 g / cm^3
# Si number density = 24.009775 Si / 1000 Ang^3
#
#
#
# Elastic Constant Matrix: (Units=GPa)
#
#
# Indices 1 2 3 4 5 6 
#
# 1 160.3339 68.0658 18.4520 0.0000 0.0000 0.0000
# 2 68.0658 103.8513 6.5506 0.0000 0.0000 0.0000
# 3 18.4520 6.5506 105.2671 0.0000 0.0000 0.0000
# 4 0.0000 0.0000 0.0000 18.1168 0.0000 0.0000
# 5 0.0000 0.0000 0.0000 0.0000 -1.3512 0.0000
# 6 0.0000 0.0000 0.0000 0.0000 0.0000 38.1370
#
#
#
# Elastic Compliance Matrix: (Units=1/GPa)
#
#
# Indices 1 2 3 4 5 6 
#
# 1 0.008787 -0.005684 -0.001186 0.000000 0.000000 0.000000
# 2 -0.005684 0.013344 0.000166 0.000000 0.000000 0.000000
# 3 -0.001186 0.000166 0.009697 0.000000 0.000000 0.000000
# 4 0.000000 0.000000 0.000000 0.055197 0.000000 0.000000
# 5 0.000000 0.000000 0.000000 0.000000 -0.740106 0.000000
# 6 0.000000 0.000000 0.000000 0.000000 0.000000 0.026221
#
#
# Mechanical properties :
#
#
# Convention : Reuss Voigt Hill
#
# Bulk Modulus (GPa) = 54.29214 61.73214 58.01214
# Shear Modulus (GPa) = -8.23301 29.40612 10.58656
#
# Velocity S-wave (km/s) = -1.85377 3.50345 2.10210
# Velocity P-wave (km/s) = 4.25202 6.49096 5.48690
#
# Compressibility (1/GPa) = 0.01841887
#
# Stress axis : x y z
#
# Youngs Moduli (GPa) = 113.81054 74.93969 103.12161
#
# Poissons Ratio (x) = 0.42596 0.12235
# Poissons Ratio (y) = 0.64690 -0.01711
# Poissons Ratio (z) = 0.13503 -0.01244
#
# Static dielectric constant tensor:
#      x y z
#    x 2.724470 0.000000 0.000000 
#    y 0.000000 1.848200 0.000000 
#    z 0.000000 0.000000 1.804220 
# 
# From -- ./inp_files/2957.got.cif
#   From: 2010.05.17/outbox.cif.g08.bks.cpg/sg60_2_cif.got.tgz:2957.got - 2010.06.03 14:59:27.
