data_PCOD9455485
_publ_section_title
;
Structure prediction by ZEFSAII (Michael W. Deem and Ramdas Pophale) SiO2 
 PCOD9455485
Probable space group: P B C N
;
_chemical_formula_sum "Si O2"
_cell_formula_units_Z 56
_cell_length_a 10.531036
_cell_length_b 12.270303
_cell_length_c 20.278638
_cell_angle_alpha 90.000000
_cell_angle_beta 90.000000
_cell_angle_gamma 90.000000
_cell_volume 2620.385377
_symmetry_space_group_name_H-M "P B C N"
_symmetry_group_IT_number 60
_symmetry_cell_setting 'orthorhombic'
loop_
_space_group_symop_operation_xyz
x,y,z
1/2-x,1/2-y,1/2+z
1/2+x,1/2-y,-z
-x,y,1/2-z
-x,-y,-z
1/2+x,1/2+y,1/2-z
1/2-x,1/2+y,z
x,-y,1/2+z
loop_
_atom_site_type_symbol
_atom_site_label
_atom_site_fract_x
_atom_site_fract_y
_atom_site_fract_z
Si Si1 0.986422 0.305466 0.321058
Si Si2 0.181556 0.989819 0.485081
Si Si3 0.917114 0.455178 0.814605
Si Si4 0.740860 0.817117 0.107346
Si Si5 0.101158 0.368129 0.923301
Si Si6 0.283686 0.668966 0.109436
Si Si7 0.402511 0.716868 0.517268
O O1 0.902604 0.414524 0.312171
O O2 0.915051 0.224639 0.370117
O O3 0.000000 0.251080 0.250000
O O4 0.127068 0.342833 0.343447
O O5 0.313143 0.053547 0.467349
O O6 0.087291 0.090551 0.498882
O O7 0.170694 0.915287 0.419011
O O8 0.196704 0.918489 0.550844
O O9 0.788172 0.389398 0.829365
O O10 0.000000 0.423908 0.750000
O O11 0.999680 0.431883 0.880359
O O12 0.818164 0.708879 0.126058
O O13 0.667513 0.777357 0.042022
O O14 0.031248 0.280919 0.969545
O O15 0.187963 0.761017 0.080262
#
# Coordination Sequence:
#
# PCOD9455485 Si02
#       7
#     8   8   8   8   8   8   8
#     4  11  24  42  63  90 123 168 210 254 302 370
#     4  10  20  39  61  94 125 159 196 261 319 368
#     4  10  22  40  66  85 120 168 208 252 300 369
#     4  10  22  35  61  90 124 158 201 258 303 371
#     4  10  21  39  60  93 124 160 209 248 316 364
#     4  10  22  38  64  90 122 159 211 248 311 367
#     4   9  21  35  62  91 120 161 195 259 307 373
#
# _framework density 21.370902999999998
#
# number of rings (size 3 to 8) (size 9 to 14) (size 15 to 20)
#    0.000    2.000    1.429    0.857   10.000    2.286 
#    2.571    0.000    0.000    1.714    0.000    0.000 
#    0.000    0.000    0.000    0.000    0.000    0.000 
#
# Total GULP energy -312547.527285 kJ/mol
# GULP energy per Si atom -5581.205844 kJ/mol
# Density = 2.132226 g / cm^3
# Si number density = 21.370903 Si / 1000 Ang^3
#
#
#
# Elastic Constant Matrix: (Units=GPa)
#
#
# Indices 1 2 3 4 5 6 
#
# 1 38.1737 14.8424 5.9836 0.0000 0.0000 0.0000
# 2 14.8424 90.2236 25.0956 0.0000 0.0000 0.0000
# 3 5.9836 25.0956 69.4291 0.0000 0.0000 0.0000
# 4 0.0000 0.0000 0.0000 25.5307 0.0000 0.0000
# 5 0.0000 0.0000 0.0000 0.0000 26.7364 0.0000
# 6 0.0000 0.0000 0.0000 0.0000 0.0000 32.6439
#
#
#
# Elastic Compliance Matrix: (Units=1/GPa)
#
#
# Indices 1 2 3 4 5 6 
#
# 1 0.028029 -0.004379 -0.000833 0.000000 0.000000 0.000000
# 2 -0.004379 0.013007 -0.004324 0.000000 0.000000 0.000000
# 3 -0.000833 -0.004324 0.016038 0.000000 0.000000 0.000000
# 4 0.000000 0.000000 0.000000 0.039169 0.000000 0.000000
# 5 0.000000 0.000000 0.000000 0.000000 0.037402 0.000000
# 6 0.000000 0.000000 0.000000 0.000000 0.000000 0.030634
#
#
# Mechanical properties :
#
#
# Convention : Reuss Voigt Hill
#
# Bulk Modulus (GPa) = 26.31452 32.18553 29.25002
# Shear Modulus (GPa) = 25.50792 27.10919 26.30856
#
# Velocity S-wave (km/s) = 3.45857 3.56548 3.51243
# Velocity P-wave (km/s) = 5.31874 5.66068 5.49237
#
# Compressibility (1/GPa) = 0.03800184
#
# Stress axis : x y z
#
# Youngs Moduli (GPa) = 35.67690 76.88329 62.35249
#
# Poissons Ratio (x) = 0.33670 0.05192
# Poissons Ratio (y) = 0.15624 0.26961
# Poissons Ratio (z) = 0.02971 0.33244
#
# Static dielectric constant tensor:
#      x y z
#    x 1.853010 0.000000 0.000000 
#    y 0.000000 1.817770 0.000000 
#    z 0.000000 0.000000 1.762590 
# 
# From -- ./inp_files/22610.got.cif
#   From: 2010.05.17/outbox.cif.g08.bks.cpg/sg60_12_cif.got.tgz:22610.got - 2010.06.03 14:59:27.
