data_PCOD9455890
_publ_section_title
;
Structure prediction by ZEFSAII (Michael W. Deem and Ramdas Pophale) SiO2 
 PCOD9455890
Probable space group: P B C N
;
_chemical_formula_sum "Si O2"
_cell_formula_units_Z 60
_cell_length_a 6.377977
_cell_length_b 19.446929
_cell_length_c 27.149064
_cell_angle_alpha 90.000000
_cell_angle_beta 90.000000
_cell_angle_gamma 90.000000
_cell_volume 3367.354495
_symmetry_space_group_name_H-M "P B C N"
_symmetry_group_IT_number 60
_symmetry_cell_setting 'orthorhombic'
loop_
_space_group_symop_operation_xyz
x,y,z
1/2-x,1/2-y,1/2+z
1/2+x,1/2-y,-z
-x,y,1/2-z
-x,-y,-z
1/2+x,1/2+y,1/2-z
1/2-x,1/2+y,z
x,-y,1/2+z
loop_
_atom_site_type_symbol
_atom_site_label
_atom_site_fract_x
_atom_site_fract_y
_atom_site_fract_z
Si Si1 0.891739 0.971802 0.881466
Si Si2 0.219526 0.853903 0.845335
Si Si3 0.157719 0.560387 0.016305
Si Si4 0.388586 0.933095 0.703095
Si Si5 0.781576 0.261404 0.072949
Si Si6 0.026454 0.896976 0.433352
Si Si7 0.000000 0.848424 0.750000
Si Si8 0.135731 0.322212 0.019437
O O1 0.067602 0.915290 0.865836
O O2 0.766104 0.949500 0.930866
O O3 0.722266 0.978164 0.838103
O O4 0.990394 0.045640 0.892500
O O5 0.436470 0.886330 0.824685
O O6 0.249984 0.798917 0.888263
O O7 0.102611 0.816828 0.799112
O O8 0.337532 0.566593 0.975588
O O9 0.000000 0.500000 0.000000
O O10 0.026809 0.630605 0.010874
O O11 0.500000 0.967885 0.750000
O O12 0.196179 0.890984 0.727607
O O13 0.646493 0.328885 0.084392
O O14 0.019959 0.285615 0.064932
O O15 0.721408 0.233137 0.018869
O O16 0.814294 0.871021 0.458893
#
# Coordination Sequence:
#
# PCOD9455890 Si02
#       8
#     8   8   8   8   8   8   4   8
#     4  11  22  34  59  89 117 154 198 247 302 361
#     4  10  21  36  64  91 117 151 201 250 309 356
#     4  11  23  35  56  82 118 158 200 244 294 345
#     4   9  19  37  62  94 116 141 191 257 311 352
#     4  11  23  36  56  82 118 170 197 241 296 359
#     4  11  24  37  51  84 122 159 202 244 290 363
#     4   8  18  38  58  98 112 140 192 262 296 358
#     4  11  22  37  52  78 122 160 206 245 288 351
#
# _framework density 17.818141000000001
#
# number of rings (size 3 to 8) (size 9 to 14) (size 15 to 20)
#    0.000    1.600    2.667    2.000    5.600    2.133 
#    0.000    0.000    0.000    0.000   74.533    0.000 
#    0.000    0.000    0.000    0.000    0.000    0.000 
#
# Total GULP energy -334515.299669 kJ/mol
# GULP energy per Si atom -5575.254994 kJ/mol
# Density = 1.777759 g / cm^3
# Si number density = 17.818141 Si / 1000 Ang^3
#
#
#
# Elastic Constant Matrix: (Units=GPa)
#
#
# Indices 1 2 3 4 5 6 
#
# 1 101.0335 33.4967 48.5782 0.0000 0.0000 0.0000
# 2 33.4967 86.3764 50.4714 0.0000 0.0000 0.0000
# 3 48.5782 50.4714 102.8152 0.0000 0.0000 0.0000
# 4 0.0000 0.0000 0.0000 13.7539 0.0000 0.0000
# 5 0.0000 0.0000 0.0000 0.0000 33.4394 0.0000
# 6 0.0000 0.0000 0.0000 0.0000 0.0000 26.5516
#
#
#
# Elastic Compliance Matrix: (Units=1/GPa)
#
#
# Indices 1 2 3 4 5 6 
#
# 1 0.013060 -0.002046 -0.005166 0.000000 0.000000 0.000000
# 2 -0.002046 0.016554 -0.007160 0.000000 0.000000 0.000000
# 3 -0.005166 -0.007160 0.015682 0.000000 0.000000 0.000000
# 4 0.000000 0.000000 0.000000 0.072707 0.000000 0.000000
# 5 0.000000 0.000000 0.000000 0.000000 0.029905 0.000000
# 6 0.000000 0.000000 0.000000 0.000000 0.000000 0.037663
#
#
# Mechanical properties :
#
#
# Convention : Reuss Voigt Hill
#
# Bulk Modulus (GPa) = 60.41480 61.70197 61.05839
# Shear Modulus (GPa) = 22.74473 25.26090 24.00281
#
# Velocity S-wave (km/s) = 3.57668 3.76933 3.67427
# Velocity P-wave (km/s) = 7.14400 7.32446 7.23479
#
# Compressibility (1/GPa) = 0.01655223
#
# Stress axis : x y z
#
# Youngs Moduli (GPa) = 76.56958 60.40759 63.76811
#
# Poissons Ratio (x) = 0.12359 0.32944
# Poissons Ratio (y) = 0.15665 0.45656
# Poissons Ratio (z) = 0.39558 0.43250
#
# Static dielectric constant tensor:
#      x y z
#    x 1.662870 0.000000 0.000000 
#    y 0.000000 1.596110 0.000000 
#    z 0.000000 0.000000 1.614040 
# 
# From -- ./inp_files/23721.got.cif
#   From: 2010.05.17/outbox.cif.g08.bks.cpg/sg60_12_cif.got.tgz:23721.got - 2010.06.03 14:59:27.
