data_PCOD9455855
_publ_section_title
;
Structure prediction by ZEFSAII (Michael W. Deem and Ramdas Pophale) SiO2 
 PCOD9455855
Probable space group: P B C N
;
_chemical_formula_sum "Si O2"
_cell_formula_units_Z 48
_cell_length_a 6.449699
_cell_length_b 13.160634
_cell_length_c 20.794364
_cell_angle_alpha 90.000000
_cell_angle_beta 90.000000
_cell_angle_gamma 90.000000
_cell_volume 1765.069866
_symmetry_space_group_name_H-M "P B C N"
_symmetry_group_IT_number 60
_symmetry_cell_setting 'orthorhombic'
loop_
_space_group_symop_operation_xyz
x,y,z
1/2-x,1/2-y,1/2+z
1/2+x,1/2-y,-z
-x,y,1/2-z
-x,-y,-z
1/2+x,1/2+y,1/2-z
1/2-x,1/2+y,z
x,-y,1/2+z
loop_
_atom_site_type_symbol
_atom_site_label
_atom_site_fract_x
_atom_site_fract_y
_atom_site_fract_z
Si Si1 0.500000 0.782664 0.250000
Si Si2 0.744795 0.860121 0.361215
Si Si3 0.000831 0.192639 0.076432
Si Si4 0.261988 0.610446 0.306224
Si Si5 0.266988 0.123379 0.973135
Si Si6 0.500000 0.568784 0.750000
Si Si7 0.508294 0.041139 0.408830
O O1 0.552330 0.848393 0.311402
O O2 0.305180 0.708345 0.262518
O O3 0.701198 0.763202 0.406086
O O4 0.940532 0.870242 0.314421
O O5 0.699198 0.964108 0.398405
O O6 0.936451 0.128046 0.138049
O O7 0.817700 0.272195 0.062560
O O8 0.055380 0.131375 0.012310
O O9 0.314284 0.508800 0.267451
O O10 0.048863 0.601252 0.344639
O O11 0.311319 0.030453 0.925807
O O12 0.440470 0.106398 0.028743
#
# Coordination Sequence:
#
# PCOD9455855 Si02
#       7
#     4   8   8   8   8   4   8
#     4   9  20  38  54  79 112 144 184 229 276 334
#     4  10  21  37  56  80 113 145 185 234 278 331
#     4  10  21  37  56  82 114 146 184 232 278 336
#     4  10  21  36  56  80 110 145 185 228 278 334
#     4  10  21  36  56  82 111 145 186 229 280 334
#     4  11  22  36  56  83 108 144 188 227 278 336
#     4  10  21  37  57  81 110 147 186 231 281 333
#
# _framework density 27.194392000000001
#
# number of rings (size 3 to 8) (size 9 to 14) (size 15 to 20)
#    0.000    2.000    0.000    3.000    0.000    3.333 
#    0.000    0.000    0.000    0.000    0.000    0.000 
#    0.000    0.000    0.000    0.000    0.000    0.000 
#
# Total GULP energy -268760.179874 kJ/mol
# GULP energy per Si atom -5599.170414 kJ/mol
# Density = 2.713250 g / cm^3
# Si number density = 27.194392 Si / 1000 Ang^3
#
#
#
# Elastic Constant Matrix: (Units=GPa)
#
#
# Indices 1 2 3 4 5 6 
#
# 1 44.6722 29.4857 17.1655 0.0000 0.0000 0.0000
# 2 29.4857 63.8054 23.9101 0.0000 0.0000 0.0000
# 3 17.1655 23.9101 84.7616 0.0000 0.0000 0.0000
# 4 0.0000 0.0000 0.0000 32.0158 0.0000 0.0000
# 5 0.0000 0.0000 0.0000 0.0000 73.4352 0.0000
# 6 0.0000 0.0000 0.0000 0.0000 0.0000 24.5670
#
#
#
# Elastic Compliance Matrix: (Units=1/GPa)
#
#
# Indices 1 2 3 4 5 6 
#
# 1 0.032730 -0.014136 -0.002641 0.000000 0.000000 0.000000
# 2 -0.014136 0.023630 -0.003803 0.000000 0.000000 0.000000
# 3 -0.002641 -0.003803 0.013405 0.000000 0.000000 0.000000
# 4 0.000000 0.000000 0.000000 0.031235 0.000000 0.000000
# 5 0.000000 0.000000 0.000000 0.000000 0.013617 0.000000
# 6 0.000000 0.000000 0.000000 0.000000 0.000000 0.040705
#
#
# Mechanical properties :
#
#
# Convention : Reuss Voigt Hill
#
# Bulk Modulus (GPa) = 34.95698 37.15133 36.05416
# Shear Modulus (GPa) = 24.26976 34.18212 29.22594
#
# Velocity S-wave (km/s) = 2.99064 3.54920 3.28183
# Velocity P-wave (km/s) = 4.98072 5.52149 5.25806
#
# Compressibility (1/GPa) = 0.02860659
#
# Stress axis : x y z
#
# Youngs Moduli (GPa) = 30.55273 42.31881 74.59674
#
# Poissons Ratio (x) = 0.59820 0.19700
# Poissons Ratio (y) = 0.43188 0.28370
# Poissons Ratio (z) = 0.08069 0.16094
#
# Static dielectric constant tensor:
#      x y z
#    x 2.130690 0.000000 0.000000 
#    y 0.000000 2.063780 0.000000 
#    z 0.000000 0.000000 1.992540 
# 
# From -- ./inp_files/23952.got.cif
#   From: 2010.05.17/outbox.cif.g08.bks.cpg/sg60_12_cif.got.tgz:23952.got - 2010.06.03 14:59:27.
