data_PCOD9455187
_publ_section_title
;
Structure prediction by ZEFSAII (Michael W. Deem and Ramdas Pophale) SiO2 
 PCOD9455187
Probable space group: P B C N
;
_chemical_formula_sum "Si O2"
_cell_formula_units_Z 48
_cell_length_a 27.178459
_cell_length_b 7.343539
_cell_length_c 7.992627
_cell_angle_alpha 90.000000
_cell_angle_beta 90.000000
_cell_angle_gamma 90.000000
_cell_volume 1595.217041
_symmetry_space_group_name_H-M "P B C N"
_symmetry_group_IT_number 60
_symmetry_cell_setting 'orthorhombic'
loop_
_space_group_symop_operation_xyz
x,y,z
1/2-x,1/2-y,1/2+z
1/2+x,1/2-y,-z
-x,y,1/2-z
-x,-y,-z
1/2+x,1/2+y,1/2-z
1/2-x,1/2+y,z
x,-y,1/2+z
loop_
_atom_site_type_symbol
_atom_site_label
_atom_site_fract_x
_atom_site_fract_y
_atom_site_fract_z
Si Si1 0.313911 0.255972 0.733515
Si Si2 0.500000 0.591923 0.750000
Si Si3 0.401182 0.171888 0.553556
Si Si4 0.000000 0.500000 0.000000
Si Si5 0.862616 0.281083 0.817986
Si Si6 0.438084 0.700502 0.450826
Si Si7 0.721923 0.114839 0.127087
O O1 0.371567 0.292348 0.693045
O O2 0.278881 0.399797 0.824369
O O3 0.291059 0.203000 0.550979
O O4 0.303999 0.080751 0.851099
O O5 0.469596 0.721807 0.628046
O O6 0.537039 0.462103 0.649005
O O7 0.459425 0.157202 0.558321
O O8 0.385391 0.232794 0.368259
O O9 0.378443 0.978135 0.609671
O O10 0.954041 0.400947 0.109086
O O11 0.885459 0.159484 0.965048
O O12 0.805377 0.274563 0.776212
#
# Coordination Sequence:
#
# PCOD9455187 Si02
#       7
#     8   4   8   4   8   8   8
#     4  10  20  37  58  85 118 156 198 250 308 369
#     4  10  22  38  54  78 120 156 180 240 310 360
#     4   9  19  33  57  88 117 144 193 257 304 349
#     4  10  20  36  64  90 110 152 206 252 296 364
#     4   9  19  36  57  83 114 150 193 244 296 360
#     4  10  21  38  57  81 114 151 194 239 298 361
#     4  10  20  37  60  85 116 153 197 248 305 362
#
# _framework density 30.089950000000002
#
# number of rings (size 3 to 8) (size 9 to 14) (size 15 to 20)
#    0.000    2.333    0.000    2.000    0.000    9.333 
#    0.000    8.333    0.000    0.000    0.000    0.000 
#    0.000    0.000    0.000    0.000    0.000    0.000 
#
# Total GULP energy -267811.442077 kJ/mol
# GULP energy per Si atom -5579.405043 kJ/mol
# Density = 3.002146 g / cm^3
# Si number density = 30.089950 Si / 1000 Ang^3
#
#
#
# Elastic Constant Matrix: (Units=GPa)
#
#
# Indices 1 2 3 4 5 6 
#
# 1 124.6612 5.9069 -9.3127 0.0000 0.0000 0.0000
# 2 5.9069 67.8749 10.0354 0.0000 0.0000 0.0000
# 3 -9.3127 10.0354 173.4742 0.0000 0.0000 0.0000
# 4 0.0000 0.0000 0.0000 -891.0918 0.0000 0.0000
# 5 0.0000 0.0000 0.0000 0.0000 38.3752 0.0000
# 6 0.0000 0.0000 0.0000 0.0000 0.0000 24.9318
#
#
#
# Elastic Compliance Matrix: (Units=1/GPa)
#
#
# Indices 1 2 3 4 5 6 
#
# 1 0.008094 -0.000775 0.000479 0.000000 0.000000 0.000000
# 2 -0.000775 0.014934 -0.000906 0.000000 0.000000 0.000000
# 3 0.000479 -0.000906 0.005843 0.000000 0.000000 0.000000
# 4 0.000000 0.000000 0.000000 -0.001122 0.000000 0.000000
# 5 0.000000 0.000000 0.000000 0.000000 0.026059 0.000000
# 6 0.000000 0.000000 0.000000 0.000000 0.000000 0.040109
#
#
# Mechanical properties :
#
#
# Convention : Reuss Voigt Hill
#
# Bulk Modulus (GPa) = 37.78096 42.14105 39.96100
# Shear Modulus (GPa) = 47.55440 -141.59825 -47.02192
#
# Velocity S-wave (km/s) = 3.97975 -6.86735 -3.95740
# Velocity P-wave (km/s) = 5.80527 6.98893 2.75173
#
# Compressibility (1/GPa) = 0.02646836
#
# Stress axis : x y z
#
# Youngs Moduli (GPa) = 123.54393 66.95970 171.15468
#
# Poissons Ratio (x) = 0.05191 -0.08205
# Poissons Ratio (y) = 0.09578 0.15499
# Poissons Ratio (z) = -0.05922 0.06064
#
# Static dielectric constant tensor:
#      x y z
#    x 2.020870 0.000000 0.000000 
#    y 0.000000 1.263820 0.000000 
#    z 0.000000 0.000000 2.252460 
# 
# From -- ./inp_files/8422.got.cif
#   From: 2010.05.17/outbox.cif.g08.bks.cpg/sg60_5_cif.got.tgz:8422.got - 2010.06.03 14:59:27.
