data_PCOD9455518
_publ_section_title
;
Structure prediction by ZEFSAII (Michael W. Deem and Ramdas Pophale) SiO2 
 PCOD9455518
Probable space group: P B C N
;
_chemical_formula_sum "Si O2"
_cell_formula_units_Z 48
_cell_length_a 8.296821
_cell_length_b 22.479013
_cell_length_c 11.883109
_cell_angle_alpha 90.000000
_cell_angle_beta 90.000000
_cell_angle_gamma 90.000000
_cell_volume 2216.251486
_symmetry_space_group_name_H-M "P B C N"
_symmetry_group_IT_number 60
_symmetry_cell_setting 'orthorhombic'
loop_
_space_group_symop_operation_xyz
x,y,z
1/2-x,1/2-y,1/2+z
1/2+x,1/2-y,-z
-x,y,1/2-z
-x,-y,-z
1/2+x,1/2+y,1/2-z
1/2-x,1/2+y,z
x,-y,1/2+z
loop_
_atom_site_type_symbol
_atom_site_label
_atom_site_fract_x
_atom_site_fract_y
_atom_site_fract_z
Si Si1 0.838901 0.978251 0.325227
Si Si2 0.186081 0.833493 0.772179
Si Si3 0.823471 0.787919 0.279073
Si Si4 0.735345 0.603286 0.439690
Si Si5 0.653565 0.896154 0.179300
Si Si6 0.876758 0.864684 0.486856
O O1 0.705002 0.958647 0.234359
O O2 0.847412 0.924586 0.415486
O O3 0.000000 0.983386 0.250000
O O4 0.805402 0.037871 0.393439
O O5 0.202016 0.762761 0.759790
O O6 0.288736 0.860312 0.669862
O O7 0.000000 0.850893 0.750000
O O8 0.218559 0.858451 0.896084
O O9 0.790810 0.848267 0.210130
O O10 0.826290 0.809347 0.408109
O O11 0.000000 0.764941 0.250000
O O12 0.855648 0.601066 0.545306
O O13 0.567534 0.632775 0.483832
O O14 0.500000 0.875268 0.250000
#
# Coordination Sequence:
#
# PCOD9455518 Si02
#       6
#     8   8   8   8   8   8
#     4  11  21  39  71  96 124 173 217 268 327 405
#     4  10  24  38  61  98 127 166 213 280 336 391
#     4  11  22  43  65  89 124 174 224 271 329 405
#     4  11  22  40  66  96 130 166 224 271 328 406
#     4  11  24  42  63  92 130 174 216 271 343 395
#     4  10  20  39  65  95 127 164 217 271 324 393
#
# _framework density 21.658190999999999
#
# number of rings (size 3 to 8) (size 9 to 14) (size 15 to 20)
#    0.000    1.333    3.333    3.500    4.667    0.667 
#    6.000    0.833    0.000    0.000    0.000    0.000 
#    0.000    0.000    0.000    0.000    0.000    0.000 
#
# Total GULP energy -267948.859819 kJ/mol
# GULP energy per Si atom -5582.267913 kJ/mol
# Density = 2.160890 g / cm^3
# Si number density = 21.658191 Si / 1000 Ang^3
#
#
#
# Elastic Constant Matrix: (Units=GPa)
#
#
# Indices 1 2 3 4 5 6 
#
# 1 25.6604 -1.2086 21.9612 0.0000 0.0000 0.0000
# 2 -1.2086 67.8899 56.0563 0.0000 0.0000 0.0000
# 3 21.9612 56.0563 203.1980 0.0000 0.0000 0.0000
# 4 0.0000 0.0000 0.0000 25.6289 0.0000 0.0000
# 5 0.0000 0.0000 0.0000 0.0000 26.6836 0.0000
# 6 0.0000 0.0000 0.0000 0.0000 0.0000 10.8937
#
#
#
# Elastic Compliance Matrix: (Units=1/GPa)
#
#
# Indices 1 2 3 4 5 6 
#
# 1 0.044884 0.006222 -0.006567 0.000000 0.000000 0.000000
# 2 0.006222 0.019937 -0.006172 0.000000 0.000000 0.000000
# 3 -0.006567 -0.006172 0.007334 0.000000 0.000000 0.000000
# 4 0.000000 0.000000 0.000000 0.039018 0.000000 0.000000
# 5 0.000000 0.000000 0.000000 0.000000 0.037476 0.000000
# 6 0.000000 0.000000 0.000000 0.000000 0.000000 0.091796
#
#
# Mechanical properties :
#
#
# Convention : Reuss Voigt Hill
#
# Bulk Modulus (GPa) = 16.91508 50.04068 33.47788
# Shear Modulus (GPa) = 18.30236 27.30385 22.80311
#
# Velocity S-wave (km/s) = 2.91014 3.55444 3.24831
# Velocity P-wave (km/s) = 4.37251 6.32458 5.43687
#
# Compressibility (1/GPa) = 0.05911884
#
# Stress axis : x y z
#
# Youngs Moduli (GPa) = 22.27954 50.15784 136.35317
#
# Poissons Ratio (x) = -0.31206 0.89548
# Poissons Ratio (y) = -0.13862 0.84164
# Poissons Ratio (z) = 0.14632 0.30960
#
# Static dielectric constant tensor:
#      x y z
#    x 1.864380 0.000000 0.000000 
#    y 0.000000 1.765410 0.000000 
#    z 0.000000 0.000000 1.842550 
# 
# From -- ./inp_files/10138.got.cif
#   From: 2010.05.17/outbox.cif.g08.bks.cpg/sg60_6_cif.got.tgz:10138.got - 2010.06.03 14:59:27.
