data_PCOD9455163
_publ_section_title
;
Structure prediction by ZEFSAII (Michael W. Deem and Ramdas Pophale) SiO2 
 PCOD9455163
Probable space group: P B C N
;
_chemical_formula_sum "Si O2"
_cell_formula_units_Z 44
_cell_length_a 24.648723
_cell_length_b 5.262522
_cell_length_c 13.694101
_cell_angle_alpha 90.000000
_cell_angle_beta 90.000000
_cell_angle_gamma 90.000000
_cell_volume 1776.322739
_symmetry_space_group_name_H-M "P B C N"
_symmetry_group_IT_number 60
_symmetry_cell_setting 'orthorhombic'
loop_
_space_group_symop_operation_xyz
x,y,z
1/2-x,1/2-y,1/2+z
1/2+x,1/2-y,-z
-x,y,1/2-z
-x,-y,-z
1/2+x,1/2+y,1/2-z
1/2-x,1/2+y,z
x,-y,1/2+z
loop_
_atom_site_type_symbol
_atom_site_label
_atom_site_fract_x
_atom_site_fract_y
_atom_site_fract_z
Si Si1 0.274769 0.372327 0.445352
Si Si2 0.732423 0.020211 0.773973
Si Si3 0.066484 0.792089 0.904189
Si Si4 0.000000 0.552527 0.750000
Si Si5 0.894928 0.280791 0.495782
Si Si6 0.113737 0.418072 0.223187
O O1 0.266357 0.656701 0.484467
O O2 0.257788 0.412355 0.331628
O O3 0.334880 0.266294 0.460164
O O4 0.733242 0.298443 0.822061
O O5 0.669984 0.937369 0.770907
O O6 0.081913 0.554205 0.972259
O O7 0.110075 0.774519 0.814876
O O8 0.011653 0.725565 0.845209
O O9 0.068860 0.054990 0.959992
O O10 0.942051 0.418740 0.763859
O O11 0.889939 0.280049 0.379744
#
# Coordination Sequence:
#
# PCOD9455163 Si02
#       6
#     8   8   8   4   8   8
#     4  10  20  36  60  96 129 178 219 275 344 400
#     4  10  20  37  64  92 133 177 217 282 340 400
#     4  10  24  46  66 102 140 175 231 288 340 407
#     4   8  24  50  68 106 136 190 224 300 348 408
#     4  12  24  42  75  97 139 185 230 286 350 416
#     4  10  24  46  69 107 138 186 235 284 352 420
#
# _framework density 24.770275999999999
#
# number of rings (size 3 to 8) (size 9 to 14) (size 15 to 20)
#    1.091    0.727    0.000    5.455    0.000    6.545 
#    0.000    0.000    0.000    0.000    0.000    0.000 
#    0.000    0.000    0.000    0.000    0.000    0.000 
#
# Total GULP energy -245639.019069 kJ/mol
# GULP energy per Si atom -5582.704979 kJ/mol
# Density = 2.471390 g / cm^3
# Si number density = 24.770276 Si / 1000 Ang^3
#
#
#
# Elastic Constant Matrix: (Units=GPa)
#
#
# Indices 1 2 3 4 5 6 
#
# 1 148.4556 12.3765 -22.9204 0.0000 0.0000 0.0000
# 2 12.3765 112.0004 38.3563 0.0000 0.0000 0.0000
# 3 -22.9204 38.3563 104.6499 0.0000 0.0000 0.0000
# 4 0.0000 0.0000 0.0000 14.8267 0.0000 0.0000
# 5 0.0000 0.0000 0.0000 0.0000 24.6440 0.0000
# 6 0.0000 0.0000 0.0000 0.0000 0.0000 -6.3769
#
#
#
# Elastic Compliance Matrix: (Units=1/GPa)
#
#
# Indices 1 2 3 4 5 6 
#
# 1 0.007193 -0.001526 0.002135 0.000000 0.000000 0.000000
# 2 -0.001526 0.010534 -0.004195 0.000000 0.000000 0.000000
# 3 0.002135 -0.004195 0.011561 0.000000 0.000000 0.000000
# 4 0.000000 0.000000 0.000000 0.067446 0.000000 0.000000
# 5 0.000000 0.000000 0.000000 0.000000 0.040578 0.000000
# 6 0.000000 0.000000 0.000000 0.000000 0.000000 -0.156817
#
#
# Mechanical properties :
#
#
# Convention : Reuss Voigt Hill
#
# Bulk Modulus (GPa) = 45.21860 46.74785 45.98323
# Shear Modulus (GPa) = -1007.76383 29.10500 -489.32942
#
# Velocity S-wave (km/s) = -20.19226 3.43154 -14.07039
# Velocity P-wave (km/s) = 22.92033 5.88338 15.66409
#
# Compressibility (1/GPa) = 0.02211479
#
# Stress axis : x y z
#
# Youngs Moduli (GPa) = 139.02794 94.93234 86.49946
#
# Poissons Ratio (x) = 0.14485 -0.18464
# Poissons Ratio (y) = 0.21214 0.36287
# Poissons Ratio (z) = -0.29677 0.39825
#
# Static dielectric constant tensor:
#      x y z
#    x 2.007890 0.000000 0.000000 
#    y 0.000000 1.999980 0.000000 
#    z 0.000000 0.000000 2.048990 
# 
# From -- ./inp_files/18015.got.cif
#   From: 2010.05.17/outbox.cif.g08.bks.cpg/sg60_10_cif.got.tgz:18015.got - 2010.06.03 14:59:27.
