data_PCOD9455534
_publ_section_title
;
Structure prediction by ZEFSAII (Michael W. Deem and Ramdas Pophale) SiO2 
 PCOD9455534
Probable space group: P B C N
;
_chemical_formula_sum "Si O2"
_cell_formula_units_Z 48
_cell_length_a 11.914002
_cell_length_b 15.758122
_cell_length_c 12.250495
_cell_angle_alpha 90.000000
_cell_angle_beta 90.000000
_cell_angle_gamma 90.000000
_cell_volume 2299.936071
_symmetry_space_group_name_H-M "P B C N"
_symmetry_group_IT_number 60
_symmetry_cell_setting 'orthorhombic'
loop_
_space_group_symop_operation_xyz
x,y,z
1/2-x,1/2-y,1/2+z
1/2+x,1/2-y,-z
-x,y,1/2-z
-x,-y,-z
1/2+x,1/2+y,1/2-z
1/2-x,1/2+y,z
x,-y,1/2+z
loop_
_atom_site_type_symbol
_atom_site_label
_atom_site_fract_x
_atom_site_fract_y
_atom_site_fract_z
Si Si1 0.603119 0.548115 0.630507
Si Si2 0.245760 0.883411 0.549555
Si Si3 0.118754 0.863335 0.776427
Si Si4 0.882604 0.143788 0.857753
Si Si5 0.782107 0.305854 0.535969
Si Si6 0.023823 0.337336 0.629180
O O1 0.694229 0.551802 0.535974
O O2 0.588045 0.452361 0.667707
O O3 0.485120 0.588729 0.593593
O O4 0.636318 0.604935 0.737222
O O5 0.185085 0.884649 0.666145
O O6 0.216408 0.792084 0.498039
O O7 0.378319 0.887938 0.568585
O O8 0.200753 0.815267 0.859302
O O9 0.000000 0.818714 0.750000
O O10 0.926354 0.241322 0.854590
O O11 0.775103 0.144646 0.935323
O O12 0.907081 0.333584 0.565728
O O13 0.000000 0.371558 0.750000
#
# Coordination Sequence:
#
# PCOD9455534 Si02
#       6
#     8   8   8   8   8   8
#     4  11  22  43  66  98 133 173 212 281 347 382
#     4  11  25  41  67  98 134 174 226 270 332 400
#     4  12  26  40  68 105 128 165 227 283 330 396
#     4  10  20  39  68  93 134 170 216 275 343 378
#     4  11  24  40  66  98 133 174 226 273 328 396
#     4  11  19  42  65  93 131 181 219 264 331 399
#
# _framework density 20.870142999999999
#
# number of rings (size 3 to 8) (size 9 to 14) (size 15 to 20)
#    0.000    1.000    6.667    1.000    7.000    1.333 
#    0.000    1.667    3.667    0.000    0.000    0.000 
#    0.000    0.000    0.000    0.000    0.000    0.000 
#
# Total GULP energy -268548.197322 kJ/mol
# GULP energy per Si atom -5594.754111 kJ/mol
# Density = 2.082264 g / cm^3
# Si number density = 20.870143 Si / 1000 Ang^3
#
#
#
# Elastic Constant Matrix: (Units=GPa)
#
#
# Indices 1 2 3 4 5 6 
#
# 1 138.7778 -13.6003 47.6271 0.0000 0.0000 0.0000
# 2 -13.6003 32.4276 -0.5090 0.0000 0.0000 0.0000
# 3 47.6271 -0.5090 93.7318 0.0000 0.0000 0.0000
# 4 0.0000 0.0000 0.0000 29.1966 0.0000 0.0000
# 5 0.0000 0.0000 0.0000 0.0000 48.1657 0.0000
# 6 0.0000 0.0000 0.0000 0.0000 0.0000 14.3990
#
#
#
# Elastic Compliance Matrix: (Units=1/GPa)
#
#
# Indices 1 2 3 4 5 6 
#
# 1 0.009167 0.003772 -0.004637 0.000000 0.000000 0.000000
# 2 0.003772 0.032393 -0.001741 0.000000 0.000000 0.000000
# 3 -0.004637 -0.001741 0.013016 0.000000 0.000000 0.000000
# 4 0.000000 0.000000 0.000000 0.034251 0.000000 0.000000
# 5 0.000000 0.000000 0.000000 0.000000 0.020762 0.000000
# 6 0.000000 0.000000 0.000000 0.000000 0.000000 0.069449
#
#
# Mechanical properties :
#
#
# Convention : Reuss Voigt Hill
#
# Bulk Modulus (GPa) = 20.25824 36.88587 28.57205
# Shear Modulus (GPa) = 24.91241 33.78023 29.34632
#
# Velocity S-wave (km/s) = 3.45872 4.02754 3.75392
# Velocity P-wave (km/s) = 5.06737 6.27219 5.70170
#
# Compressibility (1/GPa) = 0.04936264
#
# Stress axis : x y z
#
# Youngs Moduli (GPa) = 109.08779 30.87134 76.83047
#
# Poissons Ratio (x) = -0.11644 0.35630
# Poissons Ratio (y) = -0.41146 0.13374
# Poissons Ratio (z) = 0.50589 0.05374
#
# Static dielectric constant tensor:
#      x y z
#    x 1.752710 0.000000 0.000000 
#    y 0.000000 1.744360 0.000000 
#    z 0.000000 0.000000 1.768620 
# 
# From -- ./inp_files/11018.got.cif
#   From: 2010.05.17/outbox.cif.g08.bks.cpg/sg60_6_cif.got.tgz:11018.got - 2010.06.03 14:59:27.
