data_PCOD9455846
_publ_section_title
;
Structure prediction by ZEFSAII (Michael W. Deem and Ramdas Pophale) SiO2 
 PCOD9455846
Probable space group: P B C N
;
_chemical_formula_sum "Si O2"
_cell_formula_units_Z 48
_cell_length_a 8.676756
_cell_length_b 10.587498
_cell_length_c 22.622128
_cell_angle_alpha 90.000000
_cell_angle_beta 90.000000
_cell_angle_gamma 90.000000
_cell_volume 2078.184883
_symmetry_space_group_name_H-M "P B C N"
_symmetry_group_IT_number 60
_symmetry_cell_setting 'orthorhombic'
loop_
_space_group_symop_operation_xyz
x,y,z
1/2-x,1/2-y,1/2+z
1/2+x,1/2-y,-z
-x,y,1/2-z
-x,-y,-z
1/2+x,1/2+y,1/2-z
1/2-x,1/2+y,z
x,-y,1/2+z
loop_
_atom_site_type_symbol
_atom_site_label
_atom_site_fract_x
_atom_site_fract_y
_atom_site_fract_z
Si Si1 0.628878 0.045497 0.301328
Si Si2 0.370764 0.672859 0.699100
Si Si3 0.259749 0.593813 0.511530
Si Si4 0.400603 0.337206 0.523545
Si Si5 0.865440 0.454810 0.612965
Si Si6 0.642751 0.674815 0.616768
O O1 0.500000 0.040732 0.250000
O O2 0.698113 0.186363 0.300878
O O3 0.535566 0.028513 0.362332
O O4 0.749650 0.936148 0.292803
O O5 0.500000 0.668415 0.750000
O O6 0.471159 0.654249 0.640124
O O7 0.321181 0.467679 0.544068
O O8 0.414085 0.647920 0.477408
O O9 0.175009 0.707167 0.546513
O O10 0.146915 0.550720 0.458058
O O11 0.362212 0.330395 0.453763
O O12 0.757691 0.566019 0.636386
O O13 0.812292 0.316428 0.635410
#
# Coordination Sequence:
#
# PCOD9455846 Si02
#       6
#     8   8   8   8   8   8
#     4  10  21  36  55  80 107 137 175 214 259 319
#     4  10  21  36  54  78 108 137 171 217 262 312
#     4   9  18  34  53  75 104 138 176 220 266 315
#     4   9  18  34  53  76 106 139 178 222 269 318
#     4   9  18  34  54  76 104 137 174 214 261 314
#     4   9  18  34  53  76 105 136 174 219 262 310
#
# _framework density 23.097078
#
# number of rings (size 3 to 8) (size 9 to 14) (size 15 to 20)
#    0.000    2.667    0.000    1.000    0.000    2.667 
#    0.000   20.000    0.000    0.000    0.000    0.000 
#    0.000    0.000    0.000    0.000    0.000    0.000 
#
# Total GULP energy -268285.784786 kJ/mol
# GULP energy per Si atom -5589.287183 kJ/mol
# Density = 2.304451 g / cm^3
# Si number density = 23.097078 Si / 1000 Ang^3
#
#
#
# Elastic Constant Matrix: (Units=GPa)
#
#
# Indices 1 2 3 4 5 6 
#
# 1 81.9724 87.4343 21.3042 0.0000 0.0000 0.0000
# 2 87.4343 197.7804 30.7516 0.0000 0.0000 0.0000
# 3 21.3042 30.7516 25.1595 0.0000 0.0000 0.0000
# 4 0.0000 0.0000 0.0000 81.8401 0.0000 0.0000
# 5 0.0000 0.0000 0.0000 0.0000 26.4138 0.0000
# 6 0.0000 0.0000 0.0000 0.0000 0.0000 54.2733
#
#
#
# Elastic Compliance Matrix: (Units=1/GPa)
#
#
# Indices 1 2 3 4 5 6 
#
# 1 0.024751 -0.009486 -0.009364 0.000000 0.000000 0.000000
# 2 -0.009486 0.009878 -0.004041 0.000000 0.000000 0.000000
# 3 -0.009364 -0.004041 0.052615 0.000000 0.000000 0.000000
# 4 0.000000 0.000000 0.000000 0.012219 0.000000 0.000000
# 5 0.000000 0.000000 0.000000 0.000000 0.037859 0.000000
# 6 0.000000 0.000000 0.000000 0.000000 0.000000 0.018425
#
#
# Mechanical properties :
#
#
# Convention : Reuss Voigt Hill
#
# Bulk Modulus (GPa) = 24.11865 64.87695 44.49780
# Shear Modulus (GPa) = 23.21811 43.53357 33.37584
#
# Velocity S-wave (km/s) = 3.17399 4.34615 3.80547
# Velocity P-wave (km/s) = 4.88848 7.30309 6.21419
#
# Compressibility (1/GPa) = 0.04146169
#
# Stress axis : x y z
#
# Youngs Moduli (GPa) = 40.40280 101.23588 19.00606
#
# Poissons Ratio (x) = 0.96031 0.17797
# Poissons Ratio (y) = 0.38325 0.07681
# Poissons Ratio (z) = 0.37833 0.40911
#
# Static dielectric constant tensor:
#      x y z
#    x 1.841400 0.000000 0.000000 
#    y 0.000000 1.916740 0.000000 
#    z 0.000000 0.000000 1.936530 
# 
# From -- ./inp_files/25968.got.cif
#   From: 2010.05.17/outbox.cif.g08.bks.cpg/sg60_13_cif.got.tgz:25968.got - 2010.06.03 14:59:27.
