data_PCOD9455080
_publ_section_title
;
Structure prediction by ZEFSAII (Michael W. Deem and Ramdas Pophale) SiO2 
 PCOD9455080
Probable space group: P B C N
;
_chemical_formula_sum "Si O2"
_cell_formula_units_Z 64
_cell_length_a 12.634063
_cell_length_b 10.002968
_cell_length_c 22.180177
_cell_angle_alpha 90.000000
_cell_angle_beta 90.000000
_cell_angle_gamma 90.000000
_cell_volume 2803.089246
_symmetry_space_group_name_H-M "P B C N"
_symmetry_group_IT_number 60
_symmetry_cell_setting 'orthorhombic'
loop_
_space_group_symop_operation_xyz
x,y,z
1/2-x,1/2-y,1/2+z
1/2+x,1/2-y,-z
-x,y,1/2-z
-x,-y,-z
1/2+x,1/2+y,1/2-z
1/2-x,1/2+y,z
x,-y,1/2+z
loop_
_atom_site_type_symbol
_atom_site_label
_atom_site_fract_x
_atom_site_fract_y
_atom_site_fract_z
Si Si1 0.106077 0.911670 0.504375
Si Si2 0.028653 0.491394 0.427621
Si Si3 0.813638 0.636143 0.149977
Si Si4 0.826946 0.922737 0.213187
Si Si5 0.888132 0.728045 0.887898
Si Si6 0.441839 0.492822 0.168501
Si Si7 0.290514 0.785778 0.446536
Si Si8 0.328542 0.647303 0.570454
O O1 0.079808 0.785784 0.546101
O O2 0.174740 0.854258 0.450275
O O3 0.192934 0.002317 0.540099
O O4 0.000000 0.000000 0.500000
O O5 0.077775 0.612527 0.388252
O O6 0.126497 0.390073 0.423523
O O7 0.000000 0.500000 0.500000
O O8 0.938169 0.418623 0.388580
O O9 0.816504 0.769608 0.191144
O O10 0.771169 0.512157 0.189913
O O11 0.724868 0.663058 0.098332
O O12 0.854272 0.942923 0.283636
O O13 0.937489 0.978917 0.187112
O O14 0.763409 0.706864 0.889170
O O15 0.921006 0.850216 0.845386
O O16 0.426053 0.394214 0.111549
O O17 0.331912 0.739972 0.511917
#
# Coordination Sequence:
#
# PCOD9455080 Si02
#       8
#     8   8   8   8   8   8   8   8
#     4  10  20  35  60  94 135 188 227 287 360 438
#     4  12  24  39  65 111 151 192 233 299 376 465
#     4  12  26  46  75 105 150 189 243 308 378 455
#     4  11  27  50  74 106 138 193 253 309 372 440
#     4  10  22  40  63  99 137 186 237 297 359 425
#     4  10  25  48  76  97 139 191 258 308 363 442
#     4  11  22  38  62 101 143 183 235 291 374 450
#     4  10  22  38  63 101 137 183 238 293 358 438
#
# _framework density 22.831951
#
# number of rings (size 3 to 8) (size 9 to 14) (size 15 to 20)
#    0.000    1.250    1.250    4.500    7.000    0.000 
#    0.000    0.000    0.000    0.000    0.000    0.000 
#    0.000    0.000    0.000    0.000    0.000    0.000 
#
# Total GULP energy -356846.977665 kJ/mol
# GULP energy per Si atom -5575.734026 kJ/mol
# Density = 2.277998 g / cm^3
# Si number density = 22.831951 Si / 1000 Ang^3
#
#
#
# Elastic Constant Matrix: (Units=GPa)
#
#
# Indices 1 2 3 4 5 6 
#
# 1 31.3284 10.1568 13.3724 0.0000 0.0000 0.0000
# 2 10.1568 94.8610 6.5015 0.0000 0.0000 0.0000
# 3 13.3724 6.5015 66.6255 0.0000 0.0000 0.0000
# 4 0.0000 0.0000 0.0000 31.3598 0.0000 0.0000
# 5 0.0000 0.0000 0.0000 0.0000 28.1971 0.0000
# 6 0.0000 0.0000 0.0000 0.0000 0.0000 44.3754
#
#
#
# Elastic Compliance Matrix: (Units=1/GPa)
#
#
# Indices 1 2 3 4 5 6 
#
# 1 0.035955 -0.003378 -0.006887 0.000000 0.000000 0.000000
# 2 -0.003378 0.010930 -0.000389 0.000000 0.000000 0.000000
# 3 -0.006887 -0.000389 0.016429 0.000000 0.000000 0.000000
# 4 0.000000 0.000000 0.000000 0.031888 0.000000 0.000000
# 5 0.000000 0.000000 0.000000 0.000000 0.035465 0.000000
# 6 0.000000 0.000000 0.000000 0.000000 0.000000 0.022535
#
#
# Mechanical properties :
#
#
# Convention : Reuss Voigt Hill
#
# Bulk Modulus (GPa) = 23.80512 28.09737 25.95125
# Shear Modulus (GPa) = 26.52369 31.63874 29.08122
#
# Velocity S-wave (km/s) = 3.41206 3.72657 3.57278
# Velocity P-wave (km/s) = 5.09625 5.55421 5.33015
#
# Compressibility (1/GPa) = 0.04200776
#
# Stress axis : x y z
#
# Youngs Moduli (GPa) = 27.81279 91.49111 60.86625
#
# Poissons Ratio (x) = 0.30903 0.41918
# Poissons Ratio (y) = 0.09394 0.02366
# Poissons Ratio (z) = 0.19154 0.03556
#
# Static dielectric constant tensor:
#      x y z
#    x 1.969500 0.000000 0.000000 
#    y 0.000000 1.891050 0.000000 
#    z 0.000000 0.000000 1.953800 
# 
# From -- ./inp_files/24442.got.cif
#   From: 2010.05.17/outbox.cif.g08.bks.cpg/sg60_13_cif.got.tgz:24442.got - 2010.06.03 14:59:27.
