data_PCOD9455272
_publ_section_title
;
Structure prediction by ZEFSAII (Michael W. Deem and Ramdas Pophale) SiO2 
 PCOD9455272
Probable space group: P B C N
;
_chemical_formula_sum "Si O2"
_cell_formula_units_Z 64
_cell_length_a 14.114361
_cell_length_b 22.167974
_cell_length_c 8.971462
_cell_angle_alpha 90.000000
_cell_angle_beta 90.000000
_cell_angle_gamma 90.000000
_cell_volume 2807.051926
_symmetry_space_group_name_H-M "P B C N"
_symmetry_group_IT_number 60
_symmetry_cell_setting 'orthorhombic'
loop_
_space_group_symop_operation_xyz
x,y,z
1/2-x,1/2-y,1/2+z
1/2+x,1/2-y,-z
-x,y,1/2-z
-x,-y,-z
1/2+x,1/2+y,1/2-z
1/2-x,1/2+y,z
x,-y,1/2+z
loop_
_atom_site_type_symbol
_atom_site_label
_atom_site_fract_x
_atom_site_fract_y
_atom_site_fract_z
Si Si1 0.207586 0.916925 0.828338
Si Si2 0.437683 0.957638 0.605974
Si Si3 0.182807 0.351426 0.586002
Si Si4 0.446575 0.736315 0.885902
Si Si5 0.294178 0.235672 0.623758
Si Si6 0.419382 0.309894 0.859345
Si Si7 0.770113 0.013285 0.874693
Si Si8 0.692770 0.366307 0.203707
O O1 0.289479 0.877367 0.749122
O O2 0.140966 0.867494 0.902997
O O3 0.171391 0.955697 0.686234
O O4 0.228969 0.965501 0.954848
O O5 0.500000 0.947166 0.750000
O O6 0.408612 0.891197 0.543101
O O7 0.500000 0.000000 0.500000
O O8 0.339884 0.993006 0.647476
O O9 0.204506 0.280054 0.595309
O O10 0.257834 0.369645 0.457697
O O11 0.500000 0.769153 0.750000
O O12 0.400877 0.674177 0.821691
O O13 0.359793 0.766685 0.976668
O O14 0.525686 0.721961 0.008460
O O15 0.355789 0.266463 0.755752
O O16 0.258951 0.173057 0.686575
O O17 0.500000 0.334188 0.750000
O O18 0.808459 0.068573 0.776839
#
# Coordination Sequence:
#
# PCOD9455272 Si02
#       8
#     8   8   8   8   8   8   8   8
#     4  10  20  37  62  86 118 160 201 252 313 376
#     4  11  21  38  61  89 123 159 202 260 312 359
#     4   9  20  39  60  86 119 163 212 253 307 381
#     4  10  21  38  62  91 121 155 204 263 307 356
#     4   9  21  40  63  87 124 171 205 246 315 384
#     4   9  19  40  63  88 122 158 200 257 314 360
#     4  11  22  38  60  87 119 160 206 249 310 386
#     4  11  22  40  63  88 122 166 207 246 306 382
#
# _framework density 22.799721999999999
#
# number of rings (size 3 to 8) (size 9 to 14) (size 15 to 20)
#    0.000    2.000    0.000    5.250    0.000    6.000 
#    0.000   11.875    0.000    0.000    0.000    0.000 
#    0.000    0.000    0.000    0.000    0.000    0.000 
#
# Total GULP energy -357165.816856 kJ/mol
# GULP energy per Si atom -5580.715888 kJ/mol
# Density = 2.274783 g / cm^3
# Si number density = 22.799722 Si / 1000 Ang^3
#
#
#
# Elastic Constant Matrix: (Units=GPa)
#
#
# Indices 1 2 3 4 5 6 
#
# 1 83.3706 15.7119 28.6531 0.0000 0.0000 0.0000
# 2 15.7119 77.1241 16.7522 0.0000 0.0000 0.0000
# 3 28.6531 16.7522 97.8208 0.0000 0.0000 0.0000
# 4 0.0000 0.0000 0.0000 37.6969 0.0000 0.0000
# 5 0.0000 0.0000 0.0000 0.0000 40.5066 0.0000
# 6 0.0000 0.0000 0.0000 0.0000 0.0000 23.5677
#
#
#
# Elastic Compliance Matrix: (Units=1/GPa)
#
#
# Indices 1 2 3 4 5 6 
#
# 1 0.013623 -0.001982 -0.003651 0.000000 0.000000 0.000000
# 2 -0.001982 0.013756 -0.001775 0.000000 0.000000 0.000000
# 3 -0.003651 -0.001775 0.011596 0.000000 0.000000 0.000000
# 4 0.000000 0.000000 0.000000 0.026527 0.000000 0.000000
# 5 0.000000 0.000000 0.000000 0.000000 0.024687 0.000000
# 6 0.000000 0.000000 0.000000 0.000000 0.000000 0.042431
#
#
# Mechanical properties :
#
#
# Convention : Reuss Voigt Hill
#
# Bulk Modulus (GPa) = 41.39383 42.28332 41.83857
# Shear Modulus (GPa) = 32.15652 33.50079 32.82865
#
# Velocity S-wave (km/s) = 3.75959 3.83737 3.79868
# Velocity P-wave (km/s) = 6.08612 6.18221 6.13435
#
# Compressibility (1/GPa) = 0.02415819
#
# Stress axis : x y z
#
# Youngs Moduli (GPa) = 73.40552 72.69809 86.23550
#
# Poissons Ratio (x) = 0.14411 0.31484
# Poissons Ratio (y) = 0.14551 0.15307
# Poissons Ratio (z) = 0.26799 0.12904
#
# Static dielectric constant tensor:
#      x y z
#    x 1.877410 0.000000 0.000000 
#    y 0.000000 1.852210 0.000000 
#    z 0.000000 0.000000 1.877620 
# 
# From -- ./inp_files/6302.got.cif
#   From: 2010.05.17/outbox.cif.g08.bks.cpg/sg60_4_cif.got.tgz:6302.got - 2010.06.03 14:59:27.
