data_PCOD9455159
_publ_section_title
;
Structure prediction by ZEFSAII (Michael W. Deem and Ramdas Pophale) SiO2 
 PCOD9455159
Probable space group: P B C N
;
_chemical_formula_sum "Si O2"
_cell_formula_units_Z 44
_cell_length_a 14.285697
_cell_length_b 4.956517
_cell_length_c 27.554460
_cell_angle_alpha 90.000000
_cell_angle_beta 90.000000
_cell_angle_gamma 90.000000
_cell_volume 1951.056917
_symmetry_space_group_name_H-M "P B C N"
_symmetry_group_IT_number 60
_symmetry_cell_setting 'orthorhombic'
loop_
_space_group_symop_operation_xyz
x,y,z
1/2-x,1/2-y,1/2+z
1/2+x,1/2-y,-z
-x,y,1/2-z
-x,-y,-z
1/2+x,1/2+y,1/2-z
1/2-x,1/2+y,z
x,-y,1/2+z
loop_
_atom_site_type_symbol
_atom_site_label
_atom_site_fract_x
_atom_site_fract_y
_atom_site_fract_z
Si Si1 0.687498 0.154762 0.589524
Si Si2 0.500000 0.580731 0.750000
Si Si3 0.089226 0.377111 0.615383
Si Si4 0.187474 0.772898 0.016509
Si Si5 0.811949 0.655734 0.283696
Si Si6 0.981330 0.118134 0.144831
O O1 0.778083 0.349376 0.592455
O O2 0.643875 0.209773 0.536105
O O3 0.616533 0.255912 0.629697
O O4 0.593682 0.760424 0.755758
O O5 0.506848 0.399778 0.702239
O O6 0.128181 0.307720 0.562922
O O7 0.161751 0.317664 0.659109
O O8 0.059050 0.685270 0.621916
O O9 0.000948 0.182354 0.625631
O O10 0.279598 0.581650 0.018145
O O11 0.772378 0.361392 0.272951
#
# Coordination Sequence:
#
# PCOD9455159 Si02
#       6
#     8   4   8   8   8   8
#     4  10  22  40  61  88 120 160 205 245 305 381
#     4  10  26  44  62  94 128 162 218 268 310 370
#     4  11  22  38  61  91 122 156 202 255 313 374
#     4  10  20  36  60  88 122 158 196 248 303 371
#     4  11  23  40  64  90 121 163 206 255 316 371
#     4  11  24  40  61  86 123 162 202 264 312 360
#
# _framework density 22.551880000000001
#
# number of rings (size 3 to 8) (size 9 to 14) (size 15 to 20)
#    0.000    1.455    0.000    5.455    0.000    9.455 
#    0.000    0.000    0.000    0.000    0.000    0.000 
#    0.000    0.000    0.000    0.000    0.000    0.000 
#
# Total GULP energy -246267.246259 kJ/mol
# GULP energy per Si atom -5596.982870 kJ/mol
# Density = 2.250055 g / cm^3
# Si number density = 22.551880 Si / 1000 Ang^3
#
#
#
# Elastic Constant Matrix: (Units=GPa)
#
#
# Indices 1 2 3 4 5 6 
#
# 1 55.1635 -7.2105 20.6471 0.0000 0.0000 0.0000
# 2 -7.2105 64.0711 -4.0993 0.0000 0.0000 0.0000
# 3 20.6471 -4.0993 47.7650 0.0000 0.0000 0.0000
# 4 0.0000 0.0000 0.0000 16.2918 0.0000 0.0000
# 5 0.0000 0.0000 0.0000 0.0000 30.3359 0.0000
# 6 0.0000 0.0000 0.0000 0.0000 0.0000 18.5153
#
#
#
# Elastic Compliance Matrix: (Units=1/GPa)
#
#
# Indices 1 2 3 4 5 6 
#
# 1 0.021846 0.001865 -0.009283 0.000000 0.000000 0.000000
# 2 0.001865 0.015853 0.000555 0.000000 0.000000 0.000000
# 3 -0.009283 0.000555 0.024996 0.000000 0.000000 0.000000
# 4 0.000000 0.000000 0.000000 0.061380 0.000000 0.000000
# 5 0.000000 0.000000 0.000000 0.000000 0.032964 0.000000
# 6 0.000000 0.000000 0.000000 0.000000 0.000000 0.054009
#
#
# Mechanical properties :
#
#
# Convention : Reuss Voigt Hill
#
# Bulk Modulus (GPa) = 20.42185 20.63047 20.52616
# Shear Modulus (GPa) = 20.73825 23.53943 22.13884
#
# Velocity S-wave (km/s) = 3.03575 3.23428 3.13658
# Velocity P-wave (km/s) = 4.62199 4.80784 4.71583
#
# Compressibility (1/GPa) = 0.04896715
#
# Stress axis : x y z
#
# Youngs Moduli (GPa) = 45.77429 63.07959 40.00597
#
# Poissons Ratio (x) = -0.11762 0.37139
# Poissons Ratio (y) = -0.08535 -0.02218
# Poissons Ratio (z) = 0.42494 -0.03498
#
# Static dielectric constant tensor:
#      x y z
#    x 1.826710 0.000000 0.000000 
#    y 0.000000 1.792480 0.000000 
#    z 0.000000 0.000000 1.818030 
# 
# From -- ./inp_files/25389.got.cif
#   From: 2010.05.17/outbox.cif.g08.bks.cpg/sg60_13_cif.got.tgz:25389.got - 2010.06.03 14:59:27.
