data_PCOD9455973
_publ_section_title
;
Structure prediction by ZEFSAII (Michael W. Deem and Ramdas Pophale) SiO2 
 PCOD9455973
Probable space group: P B C N
;
_chemical_formula_sum "Si O2"
_cell_formula_units_Z 64
_cell_length_a 29.714367
_cell_length_b 8.527069
_cell_length_c 11.675580
_cell_angle_alpha 90.000000
_cell_angle_beta 90.000000
_cell_angle_gamma 90.000000
_cell_volume 2958.317102
_symmetry_space_group_name_H-M "P B C N"
_symmetry_group_IT_number 60
_symmetry_cell_setting 'orthorhombic'
loop_
_space_group_symop_operation_xyz
x,y,z
1/2-x,1/2-y,1/2+z
1/2+x,1/2-y,-z
-x,y,1/2-z
-x,-y,-z
1/2+x,1/2+y,1/2-z
1/2-x,1/2+y,z
x,-y,1/2+z
loop_
_atom_site_type_symbol
_atom_site_label
_atom_site_fract_x
_atom_site_fract_y
_atom_site_fract_z
Si Si1 0.163292 0.241170 0.015667
Si Si2 0.921584 0.612860 0.046451
Si Si3 0.447484 0.748579 0.727495
Si Si4 0.545277 0.882947 0.320521
Si Si5 0.706135 0.110825 0.776512
Si Si6 0.374475 0.402885 0.077376
Si Si7 0.113646 0.703266 0.848962
Si Si8 0.197040 0.244741 0.755299
O O1 0.200972 0.301052 0.102121
O O2 0.142113 0.078043 0.054907
O O3 0.123874 0.368455 0.024803
O O4 0.177305 0.238776 0.883511
O O5 0.924651 0.738282 0.147700
O O6 0.915140 0.442813 0.100128
O O7 0.960565 0.644605 0.955767
O O8 0.500000 0.715870 0.750000
O O9 0.420937 0.631712 0.645084
O O10 0.442847 0.929493 0.682778
O O11 0.500000 0.864472 0.250000
O O12 0.582178 0.768500 0.262056
O O13 0.663339 0.160562 0.698140
O O14 0.755102 0.159426 0.733854
O O15 0.703771 0.924080 0.782521
O O16 0.336369 0.328838 0.161022
O O17 0.379869 0.323466 0.952314
#
# Coordination Sequence:
#
# PCOD9455973 Si02
#       8
#     8   8   8   8   8   8   8   8
#     4  12  27  46  73  97 142 186 231 284 350 420
#     4  11  20  43  67  95 137 185 236 294 347 414
#     4  10  22  39  68 102 142 184 235 296 354 416
#     4  10  21  37  68 107 135 184 246 294 348 414
#     4  12  27  46  73 103 136 180 235 282 354 407
#     4  12  26  45  68 102 144 188 234 284 354 412
#     4  11  23  40  70  96 139 182 230 295 346 409
#     4  12  28  48  71 105 141 179 233 290 345 422
#
# _framework density 21.633921000000001
#
# number of rings (size 3 to 8) (size 9 to 14) (size 15 to 20)
#    0.000    0.750    5.000    2.250    7.000    1.500 
#    0.000    1.250    0.000    0.000    0.000    0.000 
#    0.000    0.000    0.000    0.000    0.000    0.000 
#
# Total GULP energy -357391.309279 kJ/mol
# GULP energy per Si atom -5584.239207 kJ/mol
# Density = 2.158468 g / cm^3
# Si number density = 21.633921 Si / 1000 Ang^3
#
#
#
# Elastic Constant Matrix: (Units=GPa)
#
#
# Indices 1 2 3 4 5 6 
#
# 1 104.0593 18.2701 20.2282 0.0000 0.0000 0.0000
# 2 18.2701 81.1735 28.3945 0.0000 0.0000 0.0000
# 3 20.2282 28.3945 109.2107 0.0000 0.0000 0.0000
# 4 0.0000 0.0000 0.0000 22.9068 0.0000 0.0000
# 5 0.0000 0.0000 0.0000 0.0000 32.5455 0.0000
# 6 0.0000 0.0000 0.0000 0.0000 0.0000 13.7814
#
#
#
# Elastic Compliance Matrix: (Units=1/GPa)
#
#
# Indices 1 2 3 4 5 6 
#
# 1 0.010202 -0.001799 -0.001422 0.000000 0.000000 0.000000
# 2 -0.001799 0.013869 -0.003273 0.000000 0.000000 0.000000
# 3 -0.001422 -0.003273 0.010271 0.000000 0.000000 0.000000
# 4 0.000000 0.000000 0.000000 0.043655 0.000000 0.000000
# 5 0.000000 0.000000 0.000000 0.000000 0.030726 0.000000
# 6 0.000000 0.000000 0.000000 0.000000 0.000000 0.072562
#
#
# Mechanical properties :
#
#
# Convention : Reuss Voigt Hill
#
# Bulk Modulus (GPa) = 46.82750 47.58099 47.20425
# Shear Modulus (GPa) = 24.82740 29.01679 26.92209
#
# Velocity S-wave (km/s) = 3.39132 3.66630 3.53149
# Velocity P-wave (km/s) = 6.08499 6.32169 6.20447
#
# Compressibility (1/GPa) = 0.02135497
#
# Stress axis : x y z
#
# Youngs Moduli (GPa) = 98.01851 72.10344 97.36262
#
# Poissons Ratio (x) = 0.12970 0.13845
# Poissons Ratio (y) = 0.17632 0.31864
# Poissons Ratio (z) = 0.13938 0.23597
#
# Static dielectric constant tensor:
#      x y z
#    x 1.848080 0.000000 0.000000 
#    y 0.000000 1.767860 0.000000 
#    z 0.000000 0.000000 1.865770 
# 
# From -- ./inp_files/13394.got.cif
#   From: 2010.05.17/outbox.cif.g08.bks.cpg/sg60_7_cif.got.tgz:13394.got - 2010.06.03 14:59:27.
