data_PCOD9455443
_publ_section_title
;
Structure prediction by ZEFSAII (Michael W. Deem and Ramdas Pophale) SiO2 
 PCOD9455443
Probable space group: P B C N
;
_chemical_formula_sum "Si O2"
_cell_formula_units_Z 40
_cell_length_a 15.092252
_cell_length_b 11.529074
_cell_length_c 8.484710
_cell_angle_alpha 90.000000
_cell_angle_beta 90.000000
_cell_angle_gamma 90.000000
_cell_volume 1476.336911
_symmetry_space_group_name_H-M "P B C N"
_symmetry_group_IT_number 60
_symmetry_cell_setting 'orthorhombic'
loop_
_space_group_symop_operation_xyz
x,y,z
1/2-x,1/2-y,1/2+z
1/2+x,1/2-y,-z
-x,y,1/2-z
-x,-y,-z
1/2+x,1/2+y,1/2-z
1/2-x,1/2+y,z
x,-y,1/2+z
loop_
_atom_site_type_symbol
_atom_site_label
_atom_site_fract_x
_atom_site_fract_y
_atom_site_fract_z
Si Si1 0.500000 0.732328 0.250000
Si Si2 0.622551 0.413379 0.981227
Si Si3 0.049163 0.661430 0.055020
Si Si4 0.355737 0.068762 0.484581
Si Si5 0.760941 0.070543 0.751484
Si Si6 0.000000 0.870549 0.250000
O O1 0.433000 0.663149 0.139056
O O2 0.444606 0.808976 0.371079
O O3 0.670463 0.508232 0.872798
O O4 0.448763 0.555574 0.880848
O O5 0.695824 0.360749 0.103680
O O6 0.108892 0.548929 0.070275
O O7 0.061729 0.779371 0.152260
O O8 0.945563 0.626470 0.078752
O O9 0.303693 0.133414 0.624928
O O10 0.289717 0.030600 0.346830
#
# Coordination Sequence:
#
# PCOD9455443 Si02
#       6
#     4   8   8   8   8   4
#     4  10  22  40  58  90 124 156 202 252 302 358
#     4  10  24  41  62  88 118 160 208 251 304 352
#     4  10  20  38  66  94 122 160 202 242 292 364
#     4  10  20  38  66  94 122 160 202 242 292 364
#     4  10  22  40  58  90 124 156 202 252 302 358
#     4  10  22  40  58  90 124 156 202 252 302 358
#
# _framework density 27.094085
#
# number of rings (size 3 to 8) (size 9 to 14) (size 15 to 20)
#    0.000    2.000    0.000    2.400    0.000   12.000 
#    0.000   32.000    0.000    0.000    0.000    0.000 
#    0.000    0.000    0.000    0.000    0.000    0.000 
#
# Total GULP energy -223457.652320 kJ/mol
# GULP energy per Si atom -5586.441308 kJ/mol
# Density = 2.703242 g / cm^3
# Si number density = 27.094085 Si / 1000 Ang^3
#
#
#
# Elastic Constant Matrix: (Units=GPa)
#
#
# Indices 1 2 3 4 5 6 
#
# 1 102.3889 42.3643 69.5310 0.0000 0.0000 0.0000
# 2 42.3643 51.6589 43.6929 0.0000 0.0000 0.0000
# 3 69.5310 43.6929 197.0665 0.0000 0.0000 0.0000
# 4 0.0000 0.0000 0.0000 46.0953 0.0000 0.0000
# 5 0.0000 0.0000 0.0000 0.0000 86.8341 0.0000
# 6 0.0000 0.0000 0.0000 0.0000 0.0000 17.3028
#
#
#
# Elastic Compliance Matrix: (Units=1/GPa)
#
#
# Indices 1 2 3 4 5 6 
#
# 1 0.016514 -0.010603 -0.003476 0.000000 0.000000 0.000000
# 2 -0.010603 0.030633 -0.003051 0.000000 0.000000 0.000000
# 3 -0.003476 -0.003051 0.006977 0.000000 0.000000 0.000000
# 4 0.000000 0.000000 0.000000 0.021694 0.000000 0.000000
# 5 0.000000 0.000000 0.000000 0.000000 0.011516 0.000000
# 6 0.000000 0.000000 0.000000 0.000000 0.000000 0.057794
#
#
# Mechanical properties :
#
#
# Convention : Reuss Voigt Hill
#
# Bulk Modulus (GPa) = 50.33885 73.58787 61.96336
# Shear Modulus (GPa) = 26.88017 43.08151 34.98084
#
# Velocity S-wave (km/s) = 3.15319 3.99190 3.59707
# Velocity P-wave (km/s) = 5.64592 6.96176 6.33808
#
# Compressibility (1/GPa) = 0.01986537
#
# Stress axis : x y z
#
# Youngs Moduli (GPa) = 60.55397 32.64402 143.32323
#
# Poissons Ratio (x) = 0.34613 0.49817
# Poissons Ratio (y) = 0.64206 0.43726
# Poissons Ratio (z) = 0.21048 0.09959
#
# Static dielectric constant tensor:
#      x y z
#    x 2.276920 0.000000 0.000000 
#    y 0.000000 2.067360 0.000000 
#    z 0.000000 0.000000 2.104970 
# 
# From -- ./inp_files/6557.got.cif
#   From: 2010.05.17/outbox.cif.g08.bks.cpg/sg60_4_cif.got.tgz:6557.got - 2010.06.03 14:59:27.
