data_PCOD9455650
_publ_section_title
;
Structure prediction by ZEFSAII (Michael W. Deem and Ramdas Pophale) SiO2 
 PCOD9455650
Probable space group: P B C N
;
_chemical_formula_sum "Si O2"
_cell_formula_units_Z 60
_cell_length_a 27.573161
_cell_length_b 5.386779
_cell_length_c 17.230079
_cell_angle_alpha 90.000000
_cell_angle_beta 90.000000
_cell_angle_gamma 90.000000
_cell_volume 2559.192673
_symmetry_space_group_name_H-M "P B C N"
_symmetry_group_IT_number 60
_symmetry_cell_setting 'orthorhombic'
loop_
_space_group_symop_operation_xyz
x,y,z
1/2-x,1/2-y,1/2+z
1/2+x,1/2-y,-z
-x,y,1/2-z
-x,-y,-z
1/2+x,1/2+y,1/2-z
1/2-x,1/2+y,z
x,-y,1/2+z
loop_
_atom_site_type_symbol
_atom_site_label
_atom_site_fract_x
_atom_site_fract_y
_atom_site_fract_z
Si Si1 0.265496 0.007971 0.511947
Si Si2 0.570421 0.095571 0.166057
Si Si3 0.867713 0.724952 0.448940
Si Si4 0.269775 0.145320 0.689898
Si Si5 0.000000 0.879124 0.250000
Si Si6 0.519752 0.756452 0.379201
Si Si7 0.121092 0.568073 0.698339
Si Si8 0.585186 0.275020 0.007518
O O1 0.232394 0.786747 0.476626
O O2 0.316569 0.866484 0.517571
O O3 0.252468 0.083771 0.601318
O O4 0.548266 0.223126 0.242508
O O5 0.612238 0.943336 0.208914
O O6 0.523343 0.953996 0.131566
O O7 0.587686 0.278965 0.099820
O O8 0.869841 0.676008 0.356257
O O9 0.901776 0.510080 0.485495
O O10 0.882736 0.001512 0.472517
O O11 0.241235 0.375772 0.726676
O O12 0.327103 0.203160 0.686475
O O13 0.998789 0.031292 0.328134
O O14 0.532918 0.697348 0.467102
O O15 0.572208 0.814436 0.338958
#
# Coordination Sequence:
#
# PCOD9455650 Si02
#       8
#     8   8   8   8   4   8   8   8
#     4   9  16  30  59  89 118 151 199 265 312 359
#     4  12  24  42  59  95 123 169 214 259 314 378
#     4  10  22  41  60  93 124 163 215 251 316 382
#     4   9  19  34  57  92 121 152 202 256 315 369
#     4  12  22  38  70  84 130 156 226 256 310 368
#     4  11  23  42  60  94 126 167 213 260 312 379
#     4  10  20  41  65  88 127 164 208 264 313 369
#     4  11  26  39  62  87 131 172 205 256 312 373
#
# _framework density 23.444891999999999
#
# number of rings (size 3 to 8) (size 9 to 14) (size 15 to 20)
#    0.000    1.600    2.667    2.000    3.733    8.000 
#    0.000    0.000    0.000    4.800    0.000    0.000 
#    0.000    0.000    0.000    0.000    0.000    0.000 
#
# Total GULP energy -334209.239034 kJ/mol
# GULP energy per Si atom -5570.153984 kJ/mol
# Density = 2.339153 g / cm^3
# Si number density = 23.444892 Si / 1000 Ang^3
#
#
#
# Elastic Constant Matrix: (Units=GPa)
#
#
# Indices 1 2 3 4 5 6 
#
# 1 81.4114 27.6821 8.5557 0.0000 0.0000 0.0000
# 2 27.6821 99.9561 -0.8959 0.0000 0.0000 0.0000
# 3 8.5557 -0.8959 55.3764 0.0000 0.0000 0.0000
# 4 0.0000 0.0000 0.0000 18.2883 0.0000 0.0000
# 5 0.0000 0.0000 0.0000 0.0000 7.3096 0.0000
# 6 0.0000 0.0000 0.0000 0.0000 0.0000 40.1577
#
#
#
# Elastic Compliance Matrix: (Units=1/GPa)
#
#
# Indices 1 2 3 4 5 6 
#
# 1 0.013823 -0.003848 -0.002198 0.000000 0.000000 0.000000
# 2 -0.003848 0.011077 0.000774 0.000000 0.000000 0.000000
# 3 -0.002198 0.000774 0.018410 0.000000 0.000000 0.000000
# 4 0.000000 0.000000 0.000000 0.054680 0.000000 0.000000
# 5 0.000000 0.000000 0.000000 0.000000 0.136806 0.000000
# 6 0.000000 0.000000 0.000000 0.000000 0.000000 0.024902
#
#
# Mechanical properties :
#
#
# Convention : Reuss Voigt Hill
#
# Bulk Modulus (GPa) = 30.51941 34.15861 32.33901
# Shear Modulus (GPa) = 17.78323 26.57794 22.18058
#
# Velocity S-wave (km/s) = 2.75710 3.37060 3.07917
# Velocity P-wave (km/s) = 4.81469 5.45429 5.14444
#
# Compressibility (1/GPa) = 0.03276603
#
# Stress axis : x y z
#
# Youngs Moduli (GPa) = 72.34523 90.27764 54.31736
#
# Poissons Ratio (x) = 0.34737 0.11938
# Poissons Ratio (y) = 0.27837 -0.04203
# Poissons Ratio (z) = 0.15900 -0.06985
#
# Static dielectric constant tensor:
#      x y z
#    x 1.803850 0.000000 0.000000 
#    y 0.000000 2.052190 0.000000 
#    z 0.000000 0.000000 2.000110 
# 
# From -- ./inp_files/21210.got.cif
#   From: 2010.05.17/outbox.cif.g08.bks.cpg/sg60_11_cif.got.tgz:21210.got - 2010.06.03 14:59:27.
