data_PCOD9455717
_publ_section_title
;
Structure prediction by ZEFSAII (Michael W. Deem and Ramdas Pophale) SiO2 
 PCOD9455717
Probable space group: P B C N
;
_chemical_formula_sum "Si O2"
_cell_formula_units_Z 36
_cell_length_a 21.355565
_cell_length_b 7.881302
_cell_length_c 9.029421
_cell_angle_alpha 90.000000
_cell_angle_beta 90.000000
_cell_angle_gamma 90.000000
_cell_volume 1519.738753
_symmetry_space_group_name_H-M "P B C N"
_symmetry_group_IT_number 60
_symmetry_cell_setting 'orthorhombic'
loop_
_space_group_symop_operation_xyz
x,y,z
1/2-x,1/2-y,1/2+z
1/2+x,1/2-y,-z
-x,y,1/2-z
-x,-y,-z
1/2+x,1/2+y,1/2-z
1/2-x,1/2+y,z
x,-y,1/2+z
loop_
_atom_site_type_symbol
_atom_site_label
_atom_site_fract_x
_atom_site_fract_y
_atom_site_fract_z
Si Si1 0.715415 0.780468 0.234537
Si Si2 0.544894 0.960707 0.863040
Si Si3 0.083978 0.163715 0.237400
Si Si4 0.683122 0.106840 0.409732
Si Si5 0.000000 0.000000 0.500000
O O1 0.658396 0.646685 0.240465
O O2 0.782350 0.711984 0.282184
O O3 0.697313 0.915774 0.360645
O O4 0.711336 0.856488 0.070388
O O5 0.500000 0.857699 0.750000
O O6 0.566768 0.135040 0.783621
O O7 0.608315 0.868564 0.909004
O O8 0.500000 0.000000 0.000000
O O9 0.045049 0.090425 0.373753
O O10 0.061435 0.072768 0.089088
#
# Coordination Sequence:
#
# PCOD9455717 Si02
#       5
#     8   8   8   8   4
#     4  11  25  49  70 109 146 198 260 307 386 452
#     4  11  22  45  73 105 144 189 249 309 368 452
#     4  10  23  43  70 101 146 187 247 299 377 446
#     4  11  25  44  79 103 153 198 249 320 374 457
#     4  10  20  42  68  98 144 192 228 312 362 452
#
# _framework density 23.688282000000001
#
# number of rings (size 3 to 8) (size 9 to 14) (size 15 to 20)
#    0.000    1.333    2.222    4.000    0.000    5.333 
#    4.000   11.111    0.000    0.000    0.000    0.000 
#    0.000    0.000    0.000    0.000    0.000    0.000 
#
# Total GULP energy -200441.297897 kJ/mol
# GULP energy per Si atom -5567.813830 kJ/mol
# Density = 2.363437 g / cm^3
# Si number density = 23.688282 Si / 1000 Ang^3
#
#
#
# Elastic Constant Matrix: (Units=GPa)
#
#
# Indices 1 2 3 4 5 6 
#
# 1 176.0102 29.9166 76.0579 0.0000 0.0000 0.0000
# 2 29.9166 43.6194 31.1026 0.0000 0.0000 0.0000
# 3 76.0579 31.1026 135.6343 0.0000 0.0000 0.0000
# 4 0.0000 0.0000 0.0000 43.8760 0.0000 0.0000
# 5 0.0000 0.0000 0.0000 0.0000 37.6309 0.0000
# 6 0.0000 0.0000 0.0000 0.0000 0.0000 42.6769
#
#
#
# Elastic Compliance Matrix: (Units=1/GPa)
#
#
# Indices 1 2 3 4 5 6 
#
# 1 0.007746 -0.002649 -0.003736 0.000000 0.000000 0.000000
# 2 -0.002649 0.028312 -0.005007 0.000000 0.000000 0.000000
# 3 -0.003736 -0.005007 0.010616 0.000000 0.000000 0.000000
# 4 0.000000 0.000000 0.000000 0.022792 0.000000 0.000000
# 5 0.000000 0.000000 0.000000 0.000000 0.026574 0.000000
# 6 0.000000 0.000000 0.000000 0.000000 0.000000 0.023432
#
#
# Mechanical properties :
#
#
# Convention : Reuss Voigt Hill
#
# Bulk Modulus (GPa) = 41.85756 69.93533 55.89645
# Shear Modulus (GPa) = 33.28452 39.38256 36.33354
#
# Velocity S-wave (km/s) = 3.75254 4.08184 3.92065
# Velocity P-wave (km/s) = 6.04019 7.19740 6.64404
#
# Compressibility (1/GPa) = 0.02389054
#
# Stress axis : x y z
#
# Youngs Moduli (GPa) = 129.09454 35.32019 94.19573
#
# Poissons Ratio (x) = 0.09355 0.35195
# Poissons Ratio (y) = 0.34192 0.47165
# Poissons Ratio (z) = 0.48235 0.17685
#
# Static dielectric constant tensor:
#      x y z
#    x 1.939910 0.000000 0.000000 
#    y 0.000000 2.006130 0.000000 
#    z 0.000000 0.000000 1.853530 
# 
# From -- ./inp_files/7204.got.cif
#   From: 2010.05.17/outbox.cif.g08.bks.cpg/sg60_4_cif.got.tgz:7204.got - 2010.06.03 14:59:27.
