data_PCOD9455792
_publ_section_title
;
Structure prediction by ZEFSAII (Michael W. Deem and Ramdas Pophale) SiO2 
 PCOD9455792
Probable space group: P B C N
;
_chemical_formula_sum "Si O2"
_cell_formula_units_Z 32
_cell_length_a 16.833669
_cell_length_b 8.866030
_cell_length_c 7.917428
_cell_angle_alpha 90.000000
_cell_angle_beta 90.000000
_cell_angle_gamma 90.000000
_cell_volume 1181.658824
_symmetry_space_group_name_H-M "P B C N"
_symmetry_group_IT_number 60
_symmetry_cell_setting 'orthorhombic'
loop_
_space_group_symop_operation_xyz
x,y,z
1/2-x,1/2-y,1/2+z
1/2+x,1/2-y,-z
-x,y,1/2-z
-x,-y,-z
1/2+x,1/2+y,1/2-z
1/2-x,1/2+y,z
x,-y,1/2+z
loop_
_atom_site_type_symbol
_atom_site_label
_atom_site_fract_x
_atom_site_fract_y
_atom_site_fract_z
Si Si1 0.416527 0.527632 0.593630
Si Si2 0.809443 0.722051 0.543229
Si Si3 0.862340 0.290351 0.682667
Si Si4 0.915117 0.679718 0.836884
O O1 0.500000 0.500000 0.500000
O O2 0.349428 0.612018 0.482073
O O3 0.413097 0.647366 0.748524
O O4 0.399251 0.359337 0.649732
O O5 0.718071 0.742398 0.586593
O O6 0.831521 0.645827 0.363568
O O7 0.650792 0.864148 0.199328
O O8 0.912337 0.368894 0.532988
O O9 0.000000 0.653528 0.750000
#
# Coordination Sequence:
#
# PCOD9455792 Si02
#       4
#     8   8   8   8
#     4  10  21  33  54  85 118 152 200 251 297 360
#     4  10  21  35  51  72 120 167 195 230 308 384
#     4  10  22  35  51  72 121 169 196 232 309 385
#     4  12  20  33  55  85 116 149 197 257 305 355
#
# _framework density 27.080577999999999
#
# number of rings (size 3 to 8) (size 9 to 14) (size 15 to 20)
#    1.500    0.000    5.000    1.500    0.000    3.000 
#    0.000    0.000    0.000    0.000    0.000    0.000 
#    0.000   32.000    0.000    0.000    0.000    0.000 
#
# Total GULP energy -178621.444546 kJ/mol
# GULP energy per Si atom -5581.920142 kJ/mol
# Density = 2.701894 g / cm^3
# Si number density = 27.080578 Si / 1000 Ang^3
#
#
#
# Elastic Constant Matrix: (Units=GPa)
#
#
# Indices 1 2 3 4 5 6 
#
# 1 169.4626 28.2165 68.2161 0.0000 0.0000 0.0000
# 2 28.2165 95.3531 50.3546 0.0000 0.0000 0.0000
# 3 68.2161 50.3546 237.3206 0.0000 0.0000 0.0000
# 4 0.0000 0.0000 0.0000 48.9648 0.0000 0.0000
# 5 0.0000 0.0000 0.0000 0.0000 59.0365 0.0000
# 6 0.0000 0.0000 0.0000 0.0000 0.0000 16.5025
#
#
#
# Elastic Compliance Matrix: (Units=1/GPa)
#
#
# Indices 1 2 3 4 5 6 
#
# 1 0.006774 -0.001099 -0.001714 0.000000 0.000000 0.000000
# 2 -0.001099 0.011989 -0.002228 0.000000 0.000000 0.000000
# 3 -0.001714 -0.002228 0.005179 0.000000 0.000000 0.000000
# 4 0.000000 0.000000 0.000000 0.020423 0.000000 0.000000
# 5 0.000000 0.000000 0.000000 0.000000 0.016939 0.000000
# 6 0.000000 0.000000 0.000000 0.000000 0.000000 0.060597
#
#
# Mechanical properties :
#
#
# Convention : Reuss Voigt Hill
#
# Bulk Modulus (GPa) = 72.15057 88.41230 80.28143
# Shear Modulus (GPa) = 36.60251 48.59071 42.59661
#
# Velocity S-wave (km/s) = 3.68042 4.24051 3.97036
# Velocity P-wave (km/s) = 6.69040 7.52959 7.12236
#
# Compressibility (1/GPa) = 0.01385991
#
# Stress axis : x y z
#
# Youngs Moduli (GPa) = 147.62386 83.40865 193.08590
#
# Poissons Ratio (x) = 0.09171 0.33092
# Poissons Ratio (y) = 0.16231 0.43016
# Poissons Ratio (z) = 0.25300 0.18582
#
# Static dielectric constant tensor:
#      x y z
#    x 2.084030 0.000000 0.000000 
#    y 0.000000 2.313670 0.000000 
#    z 0.000000 0.000000 2.315820 
# 
# From -- ./inp_files/5575.got.cif
#   From: 2010.05.17/outbox.cif.g08.bks.cpg/sg60_3_cif.got.tgz:5575.got - 2010.06.03 14:59:27.
