data_PCOD9455862
_publ_section_title
;
Structure prediction by ZEFSAII (Michael W. Deem and Ramdas Pophale) SiO2 
 PCOD9455862
Probable space group: P B C N
;
_chemical_formula_sum "Si O2"
_cell_formula_units_Z 52
_cell_length_a 18.433942
_cell_length_b 13.742408
_cell_length_c 8.900555
_cell_angle_alpha 90.000000
_cell_angle_beta 90.000000
_cell_angle_gamma 90.000000
_cell_volume 2254.748689
_symmetry_space_group_name_H-M "P B C N"
_symmetry_group_IT_number 60
_symmetry_cell_setting 'orthorhombic'
loop_
_space_group_symop_operation_xyz
x,y,z
1/2-x,1/2-y,1/2+z
1/2+x,1/2-y,-z
-x,y,1/2-z
-x,-y,-z
1/2+x,1/2+y,1/2-z
1/2-x,1/2+y,z
x,-y,1/2+z
loop_
_atom_site_type_symbol
_atom_site_label
_atom_site_fract_x
_atom_site_fract_y
_atom_site_fract_z
Si Si1 0.860122 0.480705 0.874258
Si Si2 0.000000 0.379281 0.750000
Si Si3 0.776971 0.912423 0.316305
Si Si4 0.625528 0.504900 0.070124
Si Si5 0.391473 0.819341 0.973647
Si Si6 0.890765 0.860579 0.816212
Si Si7 0.224460 0.311251 0.706826
O O1 0.797211 0.532105 0.774767
O O2 0.821602 0.377226 0.910202
O O3 0.935102 0.447303 0.804023
O O4 0.879899 0.568026 0.983676
O O5 0.034521 0.313599 0.879278
O O6 0.808715 0.950407 0.473126
O O7 0.763083 0.799300 0.337913
O O8 0.838553 0.934309 0.193977
O O9 0.583379 0.590663 0.159502
O O10 0.587473 0.435256 0.948886
O O11 0.324348 0.801803 0.858244
O O12 0.401092 0.747121 0.115317
O O13 0.803220 0.860642 0.787256
#
# Coordination Sequence:
#
# PCOD9455862 Si02
#       7
#     8   4   8   8   8   8   8
#     4  11  22  39  62  89 137 173 220 272 314 404
#     4  10  26  42  62  86 130 192 230 256 326 384
#     4  11  21  37  59  96 136 169 211 266 345 398
#     4  10  21  36  57  98 133 162 199 267 346 404
#     4  11  23  43  62  93 131 183 225 272 324 405
#     4  11  21  35  63  91 134 162 213 271 344 393
#     4  11  22  34  60  94 127 173 207 269 343 396
#
# _framework density 23.062438
#
# number of rings (size 3 to 8) (size 9 to 14) (size 15 to 20)
#    0.000    1.231    6.154    1.385    2.154    0.000 
#    5.538    0.000    0.000    0.923    0.000    0.000 
#    0.000    0.000    0.000    0.000    0.000    0.000 
#
# Total GULP energy -289950.127675 kJ/mol
# GULP energy per Si atom -5575.963994 kJ/mol
# Density = 2.300995 g / cm^3
# Si number density = 23.062438 Si / 1000 Ang^3
#
#
#
# Elastic Constant Matrix: (Units=GPa)
#
#
# Indices 1 2 3 4 5 6 
#
# 1 76.7820 25.2791 20.3289 0.0000 0.0000 0.0000
# 2 25.2791 118.1703 29.4642 0.0000 0.0000 0.0000
# 3 20.3289 29.4642 84.5930 0.0000 0.0000 0.0000
# 4 0.0000 0.0000 0.0000 65.1129 0.0000 0.0000
# 5 0.0000 0.0000 0.0000 0.0000 28.2846 0.0000
# 6 0.0000 0.0000 0.0000 0.0000 0.0000 9.4184
#
#
#
# Elastic Compliance Matrix: (Units=1/GPa)
#
#
# Indices 1 2 3 4 5 6 
#
# 1 0.014529 -0.002450 -0.002638 0.000000 0.000000 0.000000
# 2 -0.002450 0.009680 -0.002783 0.000000 0.000000 0.000000
# 3 -0.002638 -0.002783 0.013425 0.000000 0.000000 0.000000
# 4 0.000000 0.000000 0.000000 0.015358 0.000000 0.000000
# 5 0.000000 0.000000 0.000000 0.000000 0.035355 0.000000
# 6 0.000000 0.000000 0.000000 0.000000 0.000000 0.106175
#
#
# Mechanical properties :
#
#
# Convention : Reuss Voigt Hill
#
# Bulk Modulus (GPa) = 45.67986 47.74329 46.71158
# Shear Modulus (GPa) = 22.98197 34.19473 28.58835
#
# Velocity S-wave (km/s) = 3.16018 3.85476 3.52462
# Velocity P-wave (km/s) = 5.75897 6.36859 6.07144
#
# Compressibility (1/GPa) = 0.02189149
#
# Stress axis : x y z
#
# Youngs Moduli (GPa) = 68.82760 103.30144 74.49024
#
# Poissons Ratio (x) = 0.25312 0.19651
# Poissons Ratio (y) = 0.16865 0.20730
# Poissons Ratio (z) = 0.18157 0.28748
#
# Static dielectric constant tensor:
#      x y z
#    x 1.854940 0.000000 0.000000 
#    y 0.000000 1.877400 0.000000 
#    z 0.000000 0.000000 1.946540 
# 
# From -- ./inp_files/7347.got.cif
#   From: 2010.05.17/outbox.cif.g08.bks.cpg/sg60_4_cif.got.tgz:7347.got - 2010.06.03 14:59:27.
