data_PCOD9455687
_publ_section_title
;
Structure prediction by ZEFSAII (Michael W. Deem and Ramdas Pophale) SiO2 
 PCOD9455687
Probable space group: P B C N
;
_chemical_formula_sum "Si O2"
_cell_formula_units_Z 32
_cell_length_a 9.942611
_cell_length_b 10.220421
_cell_length_c 12.803637
_cell_angle_alpha 90.000000
_cell_angle_beta 90.000000
_cell_angle_gamma 90.000000
_cell_volume 1301.075763
_symmetry_space_group_name_H-M "P B C N"
_symmetry_group_IT_number 60
_symmetry_cell_setting 'orthorhombic'
loop_
_space_group_symop_operation_xyz
x,y,z
1/2-x,1/2-y,1/2+z
1/2+x,1/2-y,-z
-x,y,1/2-z
-x,-y,-z
1/2+x,1/2+y,1/2-z
1/2-x,1/2+y,z
x,-y,1/2+z
loop_
_atom_site_type_symbol
_atom_site_label
_atom_site_fract_x
_atom_site_fract_y
_atom_site_fract_z
Si Si1 0.135116 0.994707 0.934075
Si Si2 0.769838 0.392555 0.758261
Si Si3 0.608522 0.152323 0.841358
Si Si4 0.351669 0.793571 0.948556
O O1 0.313185 0.643049 0.937869
O O2 0.146525 0.950849 0.812853
O O3 0.228590 0.884799 0.984807
O O4 0.953082 0.680596 0.956277
O O5 0.716091 0.268112 0.820227
O O6 0.829281 0.508946 0.825661
O O7 0.875524 0.347577 0.667797
O O8 0.500000 0.165673 0.750000
O O9 0.500000 0.500000 0.000000
#
# Coordination Sequence:
#
# PCOD9455687 Si02
#       4
#     8   8   8   8
#     4  10  20  42  64  87 124 169 200 262 320 360
#     4  10  22  43  60  95 130 156 221 260 305 391
#     4  12  24  42  66  94 128 172 208 266 319 370
#     4  10  22  41  64  92 129 162 216 259 310 385
#
# _framework density 24.595032
#
# number of rings (size 3 to 8) (size 9 to 14) (size 15 to 20)
#    1.500    0.000    2.500    3.000    0.000    1.000 
#    9.000    1.250    0.000    0.000    0.000    0.000 
#    0.000    0.000    0.000    0.000    0.000    0.000 
#
# Total GULP energy -178608.710615 kJ/mol
# GULP energy per Si atom -5581.522207 kJ/mol
# Density = 2.453905 g / cm^3
# Si number density = 24.595032 Si / 1000 Ang^3
#
#
#
# Elastic Constant Matrix: (Units=GPa)
#
#
# Indices 1 2 3 4 5 6 
#
# 1 28.2737 33.4538 12.5584 0.0000 0.0000 0.0000
# 2 33.4538 231.0077 52.6882 0.0000 0.0000 0.0000
# 3 12.5584 52.6882 112.1339 0.0000 0.0000 0.0000
# 4 0.0000 0.0000 0.0000 40.7429 0.0000 0.0000
# 5 0.0000 0.0000 0.0000 0.0000 26.5963 0.0000
# 6 0.0000 0.0000 0.0000 0.0000 0.0000 18.5005
#
#
#
# Elastic Compliance Matrix: (Units=1/GPa)
#
#
# Indices 1 2 3 4 5 6 
#
# 1 0.043129 -0.005762 -0.002123 0.000000 0.000000 0.000000
# 2 -0.005762 0.005618 -0.001995 0.000000 0.000000 0.000000
# 3 -0.002123 -0.001995 0.010093 0.000000 0.000000 0.000000
# 4 0.000000 0.000000 0.000000 0.024544 0.000000 0.000000
# 5 0.000000 0.000000 0.000000 0.000000 0.037599 0.000000
# 6 0.000000 0.000000 0.000000 0.000000 0.000000 0.054053
#
#
# Mechanical properties :
#
#
# Convention : Reuss Voigt Hill
#
# Bulk Modulus (GPa) = 25.58759 63.20177 44.39468
# Shear Modulus (GPa) = 24.05919 35.34894 29.70406
#
# Velocity S-wave (km/s) = 3.13103 3.79521 3.47901
# Velocity P-wave (km/s) = 4.84740 6.70504 5.85042
#
# Compressibility (1/GPa) = 0.03908145
#
# Stress axis : x y z
#
# Youngs Moduli (GPa) = 23.18647 177.99496 99.08008
#
# Poissons Ratio (x) = 1.02552 0.21035
# Poissons Ratio (y) = 0.13359 0.19762
# Poissons Ratio (z) = 0.04923 0.35502
#
# Static dielectric constant tensor:
#      x y z
#    x 2.033470 0.000000 0.000000 
#    y 0.000000 1.892590 0.000000 
#    z 0.000000 0.000000 2.231050 
# 
# From -- ./inp_files/15664.got.cif
#   From: 2010.05.17/outbox.cif.g08.bks.cpg/sg60_8_cif.got.tgz:15664.got - 2010.06.03 14:59:27.
