data_PCOD9455735
_publ_section_title
;
Structure prediction by ZEFSAII (Michael W. Deem and Ramdas Pophale) SiO2 
 PCOD9455735
Probable space group: P B C N
;
_chemical_formula_sum "Si O2"
_cell_formula_units_Z 40
_cell_length_a 10.309325
_cell_length_b 12.062040
_cell_length_c 14.201617
_cell_angle_alpha 90.000000
_cell_angle_beta 90.000000
_cell_angle_gamma 90.000000
_cell_volume 1765.992242
_symmetry_space_group_name_H-M "P B C N"
_symmetry_group_IT_number 60
_symmetry_cell_setting 'orthorhombic'
loop_
_space_group_symop_operation_xyz
x,y,z
1/2-x,1/2-y,1/2+z
1/2+x,1/2-y,-z
-x,y,1/2-z
-x,-y,-z
1/2+x,1/2+y,1/2-z
1/2-x,1/2+y,z
x,-y,1/2+z
loop_
_atom_site_type_symbol
_atom_site_label
_atom_site_fract_x
_atom_site_fract_y
_atom_site_fract_z
Si Si1 0.485705 0.386387 0.136698
Si Si2 0.940516 0.121198 0.350793
Si Si3 0.846590 0.552367 0.309070
Si Si4 0.584260 0.154229 0.107081
Si Si5 0.184178 0.655431 0.590359
O O1 0.500000 0.390347 0.250000
O O2 0.515057 0.514112 0.106031
O O3 0.583977 0.287998 0.109044
O O4 0.340154 0.345241 0.107260
O O5 0.801843 0.067458 0.331564
O O6 0.900352 0.232121 0.404416
O O7 0.000000 0.151509 0.250000
O O8 0.865974 0.602334 0.205469
O O9 0.872663 0.423760 0.327977
O O10 0.935117 0.616000 0.384696
O O11 0.656252 0.111513 0.014856
#
# Coordination Sequence:
#
# PCOD9455735 Si02
#       5
#     8   8   8   8   8
#     4  10  20  43  68  88 142 181 206 272 352 388
#     4  10  22  39  63  95 131 169 218 274 327 392
#     4  10  22  43  63  92 134 179 211 265 345 390
#     4  11  21  40  71  90 128 179 217 271 331 394
#     4  11  23  39  66 102 127 168 236 272 317 412
#
# _framework density 22.650157
#
# number of rings (size 3 to 8) (size 9 to 14) (size 15 to 20)
#    0.000    1.600    4.000    0.600    2.800    2.400 
#    0.000   12.000    4.400    0.000    0.000    0.000 
#    0.000    0.000    0.000    0.000    0.000    0.000 
#
# Total GULP energy -222801.051932 kJ/mol
# GULP energy per Si atom -5570.026298 kJ/mol
# Density = 2.259860 g / cm^3
# Si number density = 22.650157 Si / 1000 Ang^3
#
#
#
# Elastic Constant Matrix: (Units=GPa)
#
#
# Indices 1 2 3 4 5 6 
#
# 1 21.9257 -13.8726 18.3489 0.0000 0.0000 0.0000
# 2 -13.8726 136.8608 35.9980 0.0000 0.0000 0.0000
# 3 18.3489 35.9980 122.1729 0.0000 0.0000 0.0000
# 4 0.0000 0.0000 0.0000 -9.6853 0.0000 0.0000
# 5 0.0000 0.0000 0.0000 0.0000 12.8565 0.0000
# 6 0.0000 0.0000 0.0000 0.0000 0.0000 17.7481
#
#
#
# Elastic Compliance Matrix: (Units=1/GPa)
#
#
# Indices 1 2 3 4 5 6 
#
# 1 0.061629 0.009411 -0.012029 0.000000 0.000000 0.000000
# 2 0.009411 0.009358 -0.004171 0.000000 0.000000 0.000000
# 3 -0.012029 -0.004171 0.011221 0.000000 0.000000 0.000000
# 4 0.000000 0.000000 0.000000 -0.103249 0.000000 0.000000
# 5 0.000000 0.000000 0.000000 0.000000 0.077782 0.000000
# 6 0.000000 0.000000 0.000000 0.000000 0.000000 0.056344
#
#
# Mechanical properties :
#
#
# Convention : Reuss Voigt Hill
#
# Bulk Modulus (GPa) = 14.57082 40.21202 27.39142
# Shear Modulus (GPa) = 33.43625 20.21619 26.82622
#
# Velocity S-wave (km/s) = 3.84631 2.99078 3.44520
# Velocity P-wave (km/s) = 5.11590 5.45146 5.28634
#
# Compressibility (1/GPa) = 0.06863031
#
# Stress axis : x y z
#
# Youngs Moduli (GPa) = 16.22600 106.86531 89.12201
#
# Poissons Ratio (x) = -1.00569 1.07204
# Poissons Ratio (y) = -0.15270 0.37169
# Poissons Ratio (z) = 0.19518 0.44569
#
# Static dielectric constant tensor:
#      x y z
#    x 1.855330 0.000000 0.000000 
#    y 0.000000 1.981820 0.000000 
#    z 0.000000 0.000000 1.825000 
# 
# From -- ./inp_files/15834.got.cif
#   From: 2010.05.17/outbox.cif.g08.bks.cpg/sg60_8_cif.got.tgz:15834.got - 2010.06.03 14:59:27.
