data_PCOD9455273
_publ_section_title
;
Structure prediction by ZEFSAII (Michael W. Deem and Ramdas Pophale) SiO2 
 PCOD9455273
Probable space group: P B C N
;
_chemical_formula_sum "Si O2"
_cell_formula_units_Z 48
_cell_length_a 8.677506
_cell_length_b 10.649387
_cell_length_c 27.832396
_cell_angle_alpha 90.000000
_cell_angle_beta 90.000000
_cell_angle_gamma 90.000000
_cell_volume 2571.995043
_symmetry_space_group_name_H-M "P B C N"
_symmetry_group_IT_number 60
_symmetry_cell_setting 'orthorhombic'
loop_
_space_group_symop_operation_xyz
x,y,z
1/2-x,1/2-y,1/2+z
1/2+x,1/2-y,-z
-x,y,1/2-z
-x,-y,-z
1/2+x,1/2+y,1/2-z
1/2-x,1/2+y,z
x,-y,1/2+z
loop_
_atom_site_type_symbol
_atom_site_label
_atom_site_fract_x
_atom_site_fract_y
_atom_site_fract_z
Si Si1 0.500000 0.852828 0.750000
Si Si2 0.292233 0.450670 0.797374
Si Si3 0.889434 0.850850 0.464988
Si Si4 0.018512 0.016720 0.625769
Si Si5 0.297279 0.637400 0.711539
Si Si6 0.500000 0.760055 0.250000
Si Si7 0.146750 0.870317 0.544110
O O1 0.614043 0.924436 0.713797
O O2 0.388964 0.767185 0.717179
O O3 0.355921 0.492294 0.848719
O O4 0.333291 0.559342 0.759648
O O5 0.389676 0.328250 0.781917
O O6 0.776250 0.734579 0.459037
O O7 0.006303 0.835402 0.508921
O O8 0.984048 0.878044 0.415840
O O9 0.804541 0.986934 0.471248
O O10 0.081894 0.894433 0.597800
O O11 0.139261 0.060830 0.666406
O O12 0.115248 0.663927 0.715440
#
# Coordination Sequence:
#
# PCOD9455273 Si02
#       7
#     4   8   8   8   8   4   8
#     4  10  22  34  58  82 118 174 200 252 316 364
#     4  11  20  38  55  83 125 161 205 256 307 366
#     4   9  21  41  65  91 130 161 211 268 337 384
#     4  10  20  37  62  86 125 166 210 267 310 378
#     4  11  20  38  53  85 123 160 203 252 306 362
#     4  10  22  32  60  78 124 168 196 258 306 362
#     4   9  21  41  65  93 125 167 205 276 333 385
#
# _framework density 18.662554
#
# number of rings (size 3 to 8) (size 9 to 14) (size 15 to 20)
#    1.000    1.000    3.333    0.500    2.333    0.667 
#    3.000    0.000    3.667    0.000    0.000    0.000 
#    0.000    0.000    0.000    0.000    0.000    0.000 
#
# Total GULP energy -267261.188017 kJ/mol
# GULP energy per Si atom -5567.941417 kJ/mol
# Density = 1.862008 g / cm^3
# Si number density = 18.662554 Si / 1000 Ang^3
#
#
#
# Elastic Constant Matrix: (Units=GPa)
#
#
# Indices 1 2 3 4 5 6 
#
# 1 133.5101 65.0597 53.4624 0.0000 0.0000 0.0000
# 2 65.0597 77.0984 50.8682 0.0000 0.0000 0.0000
# 3 53.4624 50.8682 85.7217 0.0000 0.0000 0.0000
# 4 0.0000 0.0000 0.0000 9.0451 0.0000 0.0000
# 5 0.0000 0.0000 0.0000 0.0000 19.6396 0.0000
# 6 0.0000 0.0000 0.0000 0.0000 0.0000 32.8266
#
#
#
# Elastic Compliance Matrix: (Units=1/GPa)
#
#
# Indices 1 2 3 4 5 6 
#
# 1 0.013075 -0.009291 -0.002641 0.000000 0.000000 0.000000
# 2 -0.009291 0.027918 -0.010772 0.000000 0.000000 0.000000
# 3 -0.002641 -0.010772 0.019706 0.000000 0.000000 0.000000
# 4 0.000000 0.000000 0.000000 0.110557 0.000000 0.000000
# 5 0.000000 0.000000 0.000000 0.000000 0.050917 0.000000
# 6 0.000000 0.000000 0.000000 0.000000 0.000000 0.030463
#
#
# Mechanical properties :
#
#
# Convention : Reuss Voigt Hill
#
# Bulk Modulus (GPa) = 65.40457 70.56790 67.98623
# Shear Modulus (GPa) = 16.49390 20.76492 18.62941
#
# Velocity S-wave (km/s) = 2.97610 3.33926 3.16290
# Velocity P-wave (km/s) = 6.85066 7.26376 7.06023
#
# Compressibility (1/GPa) = 0.01528945
#
# Stress axis : x y z
#
# Youngs Moduli (GPa) = 76.48062 35.81926 50.74723
#
# Poissons Ratio (x) = 0.33279 0.13404
# Poissons Ratio (y) = 0.71057 0.54667
# Poissons Ratio (z) = 0.20202 0.38586
#
# Static dielectric constant tensor:
#      x y z
#    x 1.666690 0.000000 0.000000 
#    y 0.000000 1.713260 0.000000 
#    z 0.000000 0.000000 1.637550 
# 
# From -- ./inp_files/25153.got.cif
#   From: 2010.05.17/outbox.cif.g08.bks.cpg/sg60_13_cif.got.tgz:25153.got - 2010.06.03 14:59:27.
