data_PCOD9455434
_publ_section_title
;
Structure prediction by ZEFSAII (Michael W. Deem and Ramdas Pophale) SiO2 
 PCOD9455434
Probable space group: P B C N
;
_chemical_formula_sum "Si O2"
_cell_formula_units_Z 56
_cell_length_a 15.459476
_cell_length_b 15.440641
_cell_length_c 10.614084
_cell_angle_alpha 90.000000
_cell_angle_beta 90.000000
_cell_angle_gamma 90.000000
_cell_volume 2533.626631
_symmetry_space_group_name_H-M "P B C N"
_symmetry_group_IT_number 60
_symmetry_cell_setting 'orthorhombic'
loop_
_space_group_symop_operation_xyz
x,y,z
1/2-x,1/2-y,1/2+z
1/2+x,1/2-y,-z
-x,y,1/2-z
-x,-y,-z
1/2+x,1/2+y,1/2-z
1/2-x,1/2+y,z
x,-y,1/2+z
loop_
_atom_site_type_symbol
_atom_site_label
_atom_site_fract_x
_atom_site_fract_y
_atom_site_fract_z
Si Si1 0.091896 0.719122 0.924857
Si Si2 0.525775 0.553932 0.877609
Si Si3 0.683295 0.286428 0.807131
Si Si4 0.054493 0.468585 0.376218
Si Si5 0.182733 0.377433 0.849032
Si Si6 0.702620 0.649820 0.913613
Si Si7 0.080129 0.779527 0.447702
O O1 0.107923 0.768101 0.793314
O O2 0.106195 0.617474 0.913857
O O3 0.995732 0.730503 0.977381
O O4 0.155092 0.768412 0.020279
O O5 0.500000 0.505116 0.750000
O O6 0.625654 0.584614 0.878336
O O7 0.500000 0.500000 0.000000
O O8 0.465012 0.639559 0.881912
O O9 0.745133 0.361273 0.755643
O O10 0.737197 0.195768 0.810627
O O11 0.647805 0.306542 0.944855
O O12 0.118197 0.544333 0.333201
O O13 0.000000 0.446231 0.250000
O O14 0.000000 0.500000 0.500000
O O15 0.233298 0.388560 0.981245
O O16 0.126617 0.289172 0.858248
#
# Coordination Sequence:
#
# PCOD9455434 Si02
#       7
#     8   8   8   8   8   8   8
#     4  10  21  40  67  93 132 181 217 265 330 407
#     4  11  25  45  68  95 128 172 224 273 323 388
#     4  10  20  38  65  96 124 176 219 272 328 384
#     4  12  26  42  66 103 137 175 219 270 333 403
#     4  10  22  40  63  98 133 168 220 271 327 391
#     4   9  22  43  64  92 130 169 226 269 326 388
#     4  10  20  41  69  88 128 176 225 260 326 400
#
# _framework density 22.102705
#
# number of rings (size 3 to 8) (size 9 to 14) (size 15 to 20)
#    0.000    1.714    1.429    2.143    4.000    4.000 
#   12.857    0.000    0.000    0.000    0.000    0.000 
#    0.000    0.000    0.000    0.000    0.000    0.000 
#
# Total GULP energy -313086.998421 kJ/mol
# GULP energy per Si atom -5590.839258 kJ/mol
# Density = 2.205240 g / cm^3
# Si number density = 22.102705 Si / 1000 Ang^3
#
#
#
# Elastic Constant Matrix: (Units=GPa)
#
#
# Indices 1 2 3 4 5 6 
#
# 1 64.0759 -3.6813 -1.9648 0.0000 0.0000 0.0000
# 2 -3.6813 41.3429 8.7273 0.0000 0.0000 0.0000
# 3 -1.9648 8.7273 60.4101 0.0000 0.0000 0.0000
# 4 0.0000 0.0000 0.0000 11.0793 0.0000 0.0000
# 5 0.0000 0.0000 0.0000 0.0000 15.9491 0.0000
# 6 0.0000 0.0000 0.0000 0.0000 0.0000 8.4282
#
#
#
# Elastic Compliance Matrix: (Units=1/GPa)
#
#
# Indices 1 2 3 4 5 6 
#
# 1 0.015693 0.001330 0.000318 0.000000 0.000000 0.000000
# 2 0.001330 0.025062 -0.003577 0.000000 0.000000 0.000000
# 3 0.000318 -0.003577 0.017081 0.000000 0.000000 0.000000
# 4 0.000000 0.000000 0.000000 0.090259 0.000000 0.000000
# 5 0.000000 0.000000 0.000000 0.000000 0.062700 0.000000
# 6 0.000000 0.000000 0.000000 0.000000 0.000000 0.118649
#
#
# Mechanical properties :
#
#
# Convention : Reuss Voigt Hill
#
# Bulk Modulus (GPa) = 18.52641 19.11015 18.81828
# Shear Modulus (GPa) = 14.23315 17.94116 16.08715
#
# Velocity S-wave (km/s) = 2.54038 2.85216 2.70077
# Velocity P-wave (km/s) = 4.12370 4.41715 4.27294
#
# Compressibility (1/GPa) = 0.05397699
#
# Stress axis : x y z
#
# Youngs Moduli (GPa) = 63.72404 39.90181 58.54566
#
# Poissons Ratio (x) = -0.05307 -0.01863
# Poissons Ratio (y) = -0.08476 0.20944
# Poissons Ratio (z) = -0.02028 0.14274
#
# Static dielectric constant tensor:
#      x y z
#    x 1.915560 0.000000 0.000000 
#    y 0.000000 1.789200 0.000000 
#    z 0.000000 0.000000 1.873800 
# 
# From -- ./inp_files/11980.got.cif
#   From: 2010.05.17/outbox.cif.g08.bks.cpg/sg60_6_cif.got.tgz:11980.got - 2010.06.03 14:59:27.
