data_PCOD9455479
_publ_section_title
;
Structure prediction by ZEFSAII (Michael W. Deem and Ramdas Pophale) SiO2 
 PCOD9455479
Probable space group: P B C N
;
_chemical_formula_sum "Si O2"
_cell_formula_units_Z 44
_cell_length_a 12.587330
_cell_length_b 9.254076
_cell_length_c 17.312639
_cell_angle_alpha 90.000000
_cell_angle_beta 90.000000
_cell_angle_gamma 90.000000
_cell_volume 2016.647319
_symmetry_space_group_name_H-M "P B C N"
_symmetry_group_IT_number 60
_symmetry_cell_setting 'orthorhombic'
loop_
_space_group_symop_operation_xyz
x,y,z
1/2-x,1/2-y,1/2+z
1/2+x,1/2-y,-z
-x,y,1/2-z
-x,-y,-z
1/2+x,1/2+y,1/2-z
1/2-x,1/2+y,z
x,-y,1/2+z
loop_
_atom_site_type_symbol
_atom_site_label
_atom_site_fract_x
_atom_site_fract_y
_atom_site_fract_z
Si Si1 0.431171 0.494636 0.822845
Si Si2 0.982682 0.848996 0.954557
Si Si3 0.728721 0.118150 0.760201
Si Si4 0.000000 0.506466 0.250000
Si Si5 0.762690 0.867705 0.865544
Si Si6 0.964986 0.281730 0.894425
O O1 0.500000 0.442605 0.750000
O O2 0.430408 0.367587 0.886399
O O3 0.318349 0.562363 0.798550
O O4 0.500716 0.629980 0.855298
O O5 0.870177 0.843543 0.911524
O O6 0.987163 0.725377 0.019410
O O7 0.000000 0.000000 0.000000
O O8 0.607830 0.082991 0.741219
O O9 0.750425 0.033272 0.840828
O O10 0.739749 0.284643 0.782935
O O11 0.993576 0.602818 0.328004
O O12 0.659489 0.809057 0.908348
#
# Coordination Sequence:
#
# PCOD9455479 Si02
#       6
#     8   8   8   4   8   8
#     4  11  17  37  64  94 118 167 225 264 320 397
#     4  10  22  36  62  95 128 167 225 272 331 402
#     4  11  22  37  65  91 127 171 215 274 322 403
#     4  10  22  38  56  90 130 174 220 266 354 392
#     4  11  21  40  63  90 127 169 212 274 337 383
#     4  10  20  39  61  88 127 174 215 271 340 401
#
# _framework density 21.818391999999999
#
# number of rings (size 3 to 8) (size 9 to 14) (size 15 to 20)
#    0.000    1.455    4.545    2.182    0.000    2.909 
#    0.000    7.273    0.000    0.000    0.000    0.000 
#    0.000    0.000    0.000    0.000    0.000    0.000 
#
# Total GULP energy -245483.811573 kJ/mol
# GULP energy per Si atom -5579.177536 kJ/mol
# Density = 2.176873 g / cm^3
# Si number density = 21.818392 Si / 1000 Ang^3
#
#
#
# Elastic Constant Matrix: (Units=GPa)
#
#
# Indices 1 2 3 4 5 6 
#
# 1 134.7036 0.0663 22.7096 0.0000 0.0000 0.0000
# 2 0.0663 33.7569 -3.4043 0.0000 0.0000 0.0000
# 3 22.7096 -3.4043 85.5975 0.0000 0.0000 0.0000
# 4 0.0000 0.0000 0.0000 3.1688 0.0000 0.0000
# 5 0.0000 0.0000 0.0000 0.0000 35.5241 0.0000
# 6 0.0000 0.0000 0.0000 0.0000 0.0000 25.6563
#
#
#
# Elastic Compliance Matrix: (Units=1/GPa)
#
#
# Indices 1 2 3 4 5 6 
#
# 1 0.007773 -0.000224 -0.002071 0.000000 0.000000 0.000000
# 2 -0.000224 0.029749 0.001243 0.000000 0.000000 0.000000
# 3 -0.002071 0.001243 0.012281 0.000000 0.000000 0.000000
# 4 0.000000 0.000000 0.000000 0.315576 0.000000 0.000000
# 5 0.000000 0.000000 0.000000 0.000000 0.028150 0.000000
# 6 0.000000 0.000000 0.000000 0.000000 0.000000 0.038977
#
#
# Mechanical properties :
#
#
# Convention : Reuss Voigt Hill
#
# Bulk Modulus (GPa) = 20.96499 32.53345 26.74922
# Shear Modulus (GPa) = 11.09849 28.51560 19.80705
#
# Velocity S-wave (km/s) = 2.25783 3.61910 3.01626
# Velocity P-wave (km/s) = 4.05300 5.69274 4.94136
#
# Compressibility (1/GPa) = 0.04769856
#
# Stress axis : x y z
#
# Youngs Moduli (GPa) = 128.65065 33.61416 81.42334
#
# Poissons Ratio (x) = 0.00753 0.16864
# Poissons Ratio (y) = 0.02883 -0.10118
# Poissons Ratio (z) = 0.26645 -0.04177
#
# Static dielectric constant tensor:
#      x y z
#    x 1.797450 0.000000 0.000000 
#    y 0.000000 1.800270 0.000000 
#    z 0.000000 0.000000 1.867620 
# 
# From -- ./inp_files/19948.got.cif
#   From: 2010.05.17/outbox.cif.g08.bks.cpg/sg60_10_cif.got.tgz:19948.got - 2010.06.03 14:59:27.
