data_PCOD9455758
_publ_section_title
;
Structure prediction by ZEFSAII (Michael W. Deem and Ramdas Pophale) SiO2 
 PCOD9455758
Probable space group: P B C N
;
_chemical_formula_sum "Si O2"
_cell_formula_units_Z 24
_cell_length_a 6.118767
_cell_length_b 22.297890
_cell_length_c 7.619747
_cell_angle_alpha 90.000000
_cell_angle_beta 90.000000
_cell_angle_gamma 90.000000
_cell_volume 1039.604704
_symmetry_space_group_name_H-M "P B C N"
_symmetry_group_IT_number 60
_symmetry_cell_setting 'orthorhombic'
loop_
_space_group_symop_operation_xyz
x,y,z
1/2-x,1/2-y,1/2+z
1/2+x,1/2-y,-z
-x,y,1/2-z
-x,-y,-z
1/2+x,1/2+y,1/2-z
1/2-x,1/2+y,z
x,-y,1/2+z
loop_
_atom_site_type_symbol
_atom_site_label
_atom_site_fract_x
_atom_site_fract_y
_atom_site_fract_z
Si Si1 0.500000 0.268815 0.750000
Si Si2 0.603834 0.937806 0.438789
Si Si3 0.000000 0.104996 0.750000
Si Si4 0.167596 0.329271 0.513883
O O1 0.297206 0.308294 0.685058
O O2 0.443495 0.226470 0.914936
O O3 0.500000 0.927633 0.250000
O O4 0.508553 0.881803 0.545446
O O5 0.859366 0.933866 0.390543
O O6 0.500000 0.000000 0.500000
O O7 0.844891 0.145656 0.628047
#
# Coordination Sequence:
#
# PCOD9455758 Si02
#       4
#     4   8   4   8
#     4  12  24  43  70  98 147 182 238 300 372 440
#     4  10  23  42  65  97 137 183 244 298 361 437
#     4  10  20  45  66  92 143 180 238 300 362 426
#     4  11  24  43  65 102 134 188 233 301 368 437
#
# _framework density 23.085699999999999
#
# number of rings (size 3 to 8) (size 9 to 14) (size 15 to 20)
#    0.000    1.333    5.000    2.000    0.000    9.333 
#    0.000    0.000    0.000    0.000    0.000    0.000 
#    0.000    0.000    0.000    0.000    0.000    0.000 
#
# Total GULP energy -134089.314102 kJ/mol
# GULP energy per Si atom -5587.054754 kJ/mol
# Density = 2.303316 g / cm^3
# Si number density = 23.085700 Si / 1000 Ang^3
#
#
#
# Elastic Constant Matrix: (Units=GPa)
#
#
# Indices 1 2 3 4 5 6 
#
# 1 112.8444 82.4018 24.4694 0.0000 0.0000 0.0000
# 2 82.4018 163.2058 56.9894 0.0000 0.0000 0.0000
# 3 24.4694 56.9894 71.3485 0.0000 0.0000 0.0000
# 4 0.0000 0.0000 0.0000 31.3085 0.0000 0.0000
# 5 0.0000 0.0000 0.0000 0.0000 50.0872 0.0000
# 6 0.0000 0.0000 0.0000 0.0000 0.0000 28.9436
#
#
#
# Elastic Compliance Matrix: (Units=1/GPa)
#
#
# Indices 1 2 3 4 5 6 
#
# 1 0.014108 -0.007535 0.001180 0.000000 0.000000 0.000000
# 2 -0.007535 0.012522 -0.007418 0.000000 0.000000 0.000000
# 3 0.001180 -0.007418 0.019536 0.000000 0.000000 0.000000
# 4 0.000000 0.000000 0.000000 0.031940 0.000000 0.000000
# 5 0.000000 0.000000 0.000000 0.000000 0.019965 0.000000
# 6 0.000000 0.000000 0.000000 0.000000 0.000000 0.034550
#
#
# Mechanical properties :
#
#
# Convention : Reuss Voigt Hill
#
# Bulk Modulus (GPa) = 53.70365 75.01331 64.35848
# Shear Modulus (GPa) = 30.05289 34.30374 32.17831
#
# Velocity S-wave (km/s) = 3.61196 3.85896 3.73750
# Velocity P-wave (km/s) = 6.38030 7.24012 6.82377
#
# Compressibility (1/GPa) = 0.01862071
#
# Stress axis : x y z
#
# Youngs Moduli (GPa) = 70.88010 79.86000 51.18849
#
# Poissons Ratio (x) = 0.60178 -0.06042
# Poissons Ratio (y) = 0.53411 0.37969
# Poissons Ratio (z) = -0.08366 0.59236
#
# Static dielectric constant tensor:
#      x y z
#    x 1.990230 0.000000 0.000000 
#    y 0.000000 1.210770 0.000000 
#    z 0.000000 0.000000 1.889210 
# 
# From -- ./inp_files/2902.got.cif
#   From: 2010.05.17/outbox.cif.g08.bks.cpg/sg60_2_cif.got.tgz:2902.got - 2010.06.03 14:59:27.
