data_PCOD9455647
_publ_section_title
;
Structure prediction by ZEFSAII (Michael W. Deem and Ramdas Pophale) SiO2 
 PCOD9455647
Probable space group: P B C N
;
_chemical_formula_sum "Si O2"
_cell_formula_units_Z 44
_cell_length_a 13.552198
_cell_length_b 13.142694
_cell_length_c 11.869289
_cell_angle_alpha 90.000000
_cell_angle_beta 90.000000
_cell_angle_gamma 90.000000
_cell_volume 2114.067447
_symmetry_space_group_name_H-M "P B C N"
_symmetry_group_IT_number 60
_symmetry_cell_setting 'orthorhombic'
loop_
_space_group_symop_operation_xyz
x,y,z
1/2-x,1/2-y,1/2+z
1/2+x,1/2-y,-z
-x,y,1/2-z
-x,-y,-z
1/2+x,1/2+y,1/2-z
1/2-x,1/2+y,z
x,-y,1/2+z
loop_
_atom_site_type_symbol
_atom_site_label
_atom_site_fract_x
_atom_site_fract_y
_atom_site_fract_z
Si Si1 0.500000 0.994397 0.250000
Si Si2 0.834521 0.979437 0.035156
Si Si3 0.318788 0.908488 0.107317
Si Si4 0.967123 0.858939 0.472193
Si Si5 0.566358 0.175207 0.096518
Si Si6 0.147444 0.853051 0.247360
O O1 0.538770 0.070178 0.153448
O O2 0.409153 0.936658 0.190008
O O3 0.816147 0.932696 0.157845
O O4 0.926976 0.907821 0.996082
O O5 0.745361 0.996704 0.946765
O O6 0.884059 0.090930 0.048300
O O7 0.242872 0.836453 0.172035
O O8 0.357326 0.848790 0.999940
O O9 0.933314 0.891004 0.344719
O O10 0.977772 0.738274 0.462355
O O11 0.608300 0.253292 0.189582
#
# Coordination Sequence:
#
# PCOD9455647 Si02
#       6
#     4   8   8   8   8   8
#     4  12  24  44  62  88 130 180 206 266 318 390
#     4   9  18  37  63  89 118 160 202 267 312 380
#     4  11  25  39  60  95 128 169 216 255 324 388
#     4   9  18  37  65  91 119 157 211 259 326 369
#     4  11  21  40  64  88 121 173 208 258 316 384
#     4  10  20  41  64  93 127 159 212 270 322 381
#
# _framework density 20.812958999999999
#
# number of rings (size 3 to 8) (size 9 to 14) (size 15 to 20)
#    0.000    1.818    1.818    3.273    0.000    2.909 
#    6.545    3.636    0.000    0.000    0.000    0.000 
#    0.000    0.000    0.000    0.000    0.000    0.000 
#
# Total GULP energy -244996.692764 kJ/mol
# GULP energy per Si atom -5568.106654 kJ/mol
# Density = 2.076559 g / cm^3
# Si number density = 20.812959 Si / 1000 Ang^3
#
#
#
# Elastic Constant Matrix: (Units=GPa)
#
#
# Indices 1 2 3 4 5 6 
#
# 1 92.7712 16.9035 29.4462 0.0000 0.0000 0.0000
# 2 16.9035 32.8816 2.8231 0.0000 0.0000 0.0000
# 3 29.4462 2.8231 14.7738 0.0000 0.0000 0.0000
# 4 0.0000 0.0000 0.0000 30.1418 0.0000 0.0000
# 5 0.0000 0.0000 0.0000 0.0000 57.4031 0.0000
# 6 0.0000 0.0000 0.0000 0.0000 0.0000 -1.2820
#
#
#
# Elastic Compliance Matrix: (Units=1/GPa)
#
#
# Indices 1 2 3 4 5 6 
#
# 1 0.033168 -0.011565 -0.063899 0.000000 0.000000 0.000000
# 2 -0.011565 0.034952 0.016371 0.000000 0.000000 0.000000
# 3 -0.063899 0.016371 0.191917 0.000000 0.000000 0.000000
# 4 0.000000 0.000000 0.000000 0.033177 0.000000 0.000000
# 5 0.000000 0.000000 0.000000 0.000000 0.017421 0.000000
# 6 0.000000 0.000000 0.000000 0.000000 0.000000 -0.780007
#
#
# Mechanical properties :
#
#
# Convention : Reuss Voigt Hill
#
# Bulk Modulus (GPa) = 7.04958 26.53024 16.78991
# Shear Modulus (GPa) = -16.45257 23.33616 3.44179
#
# Velocity S-wave (km/s) = -2.81463 3.35211 1.28735
# Velocity P-wave (km/s) = 2.67738 5.26848 3.20847
#
# Compressibility (1/GPa) = 0.14185233
#
# Stress axis : x y z
#
# Youngs Moduli (GPa) = 30.14942 28.61098 5.21058
#
# Poissons Ratio (x) = 0.33087 0.33295
# Poissons Ratio (y) = 0.34867 -0.08530
# Poissons Ratio (z) = 1.92650 -0.46839
#
# Static dielectric constant tensor:
#      x y z
#    x 1.813740 0.000000 0.000000 
#    y 0.000000 1.769130 0.000000 
#    z 0.000000 0.000000 1.746240 
# 
# From -- ./inp_files/11815.got.cif
#   From: 2010.05.17/outbox.cif.g08.bks.cpg/sg60_6_cif.got.tgz:11815.got - 2010.06.03 14:59:27.
