data_PCOD9455274
_publ_section_title
;
Structure prediction by ZEFSAII (Michael W. Deem and Ramdas Pophale) SiO2 
 PCOD9455274
Probable space group: P B C N
;
_chemical_formula_sum "Si O2"
_cell_formula_units_Z 48
_cell_length_a 12.993507
_cell_length_b 7.798658
_cell_length_c 19.310968
_cell_angle_alpha 90.000000
_cell_angle_beta 90.000000
_cell_angle_gamma 90.000000
_cell_volume 1956.817413
_symmetry_space_group_name_H-M "P B C N"
_symmetry_group_IT_number 60
_symmetry_cell_setting 'orthorhombic'
loop_
_space_group_symop_operation_xyz
x,y,z
1/2-x,1/2-y,1/2+z
1/2+x,1/2-y,-z
-x,y,1/2-z
-x,-y,-z
1/2+x,1/2+y,1/2-z
1/2-x,1/2+y,z
x,-y,1/2+z
loop_
_atom_site_type_symbol
_atom_site_label
_atom_site_fract_x
_atom_site_fract_y
_atom_site_fract_z
Si Si1 0.614228 0.964939 0.761738
Si Si2 0.136131 0.137891 0.399650
Si Si3 0.611438 0.746420 0.901198
Si Si4 0.742457 0.962731 0.465538
Si Si5 0.966638 0.302944 0.488171
Si Si6 0.786685 0.846984 0.188464
O O1 0.500000 0.040033 0.750000
O O2 0.606890 0.860169 0.833244
O O3 0.643766 0.815615 0.707067
O O4 0.708272 0.097077 0.750305
O O5 0.188871 0.049442 0.466031
O O6 0.029043 0.215595 0.425845
O O7 0.208635 0.291885 0.372526
O O8 0.142477 0.003244 0.336720
O O9 0.680503 0.576520 0.901637
O O10 0.678003 0.865841 0.953314
O O11 0.503689 0.714371 0.940301
O O12 0.652239 0.820225 0.472377
O O13 0.000000 0.500000 0.500000
#
# Coordination Sequence:
#
# PCOD9455274 Si02
#       6
#     8   8   8   8   8   8
#     4  11  25  43  66  93 128 182 215 270 325 383
#     4  10  20  39  62  95 122 166 210 269 328 392
#     4  10  21  38  58  89 121 156 211 256 318 387
#     4  10  20  37  62  88 123 155 199 272 322 379
#     4   9  19  33  61  90 116 157 198 255 325 385
#     4  10  23  42  63  90 131 167 222 264 316 401
#
# _framework density 24.529627000000001
#
# number of rings (size 3 to 8) (size 9 to 14) (size 15 to 20)
#    0.000    2.000    0.000    4.000    9.333    0.000 
#    6.000    4.167    0.000    0.000    0.000    0.000 
#    0.000    0.000    0.000    0.000    0.000    0.000 
#
# Total GULP energy -268200.077749 kJ/mol
# GULP energy per Si atom -5587.501620 kJ/mol
# Density = 2.447380 g / cm^3
# Si number density = 24.529627 Si / 1000 Ang^3
#
#
#
# Elastic Constant Matrix: (Units=GPa)
#
#
# Indices 1 2 3 4 5 6 
#
# 1 112.7863 12.0776 10.0524 0.0000 0.0000 0.0000
# 2 12.0776 49.8602 -20.2600 0.0000 0.0000 0.0000
# 3 10.0524 -20.2600 57.3566 0.0000 0.0000 0.0000
# 4 0.0000 0.0000 0.0000 28.7709 0.0000 0.0000
# 5 0.0000 0.0000 0.0000 0.0000 23.1794 0.0000
# 6 0.0000 0.0000 0.0000 0.0000 0.0000 31.9667
#
#
#
# Elastic Compliance Matrix: (Units=1/GPa)
#
#
# Indices 1 2 3 4 5 6 
#
# 1 0.009496 -0.003475 -0.002892 0.000000 0.000000 0.000000
# 2 -0.003475 0.024689 0.009330 0.000000 0.000000 0.000000
# 3 -0.002892 0.009330 0.021237 0.000000 0.000000 0.000000
# 4 0.000000 0.000000 0.000000 0.034757 0.000000 0.000000
# 5 0.000000 0.000000 0.000000 0.000000 0.043142 0.000000
# 6 0.000000 0.000000 0.000000 0.000000 0.000000 0.031283
#
#
# Mechanical properties :
#
#
# Convention : Reuss Voigt Hill
#
# Bulk Modulus (GPa) = 16.30050 24.86035 20.58042
# Shear Modulus (GPa) = 27.91299 31.32560 29.61929
#
# Velocity S-wave (km/s) = 3.37698 3.57746 3.47867
# Velocity P-wave (km/s) = 4.67600 5.21739 4.95410
#
# Compressibility (1/GPa) = 0.06134783
#
# Stress axis : x y z
#
# Youngs Moduli (GPa) = 105.30495 40.50386 47.08712
#
# Poissons Ratio (x) = 0.14077 0.13617
# Poissons Ratio (y) = 0.36597 -0.43932
# Poissons Ratio (z) = 0.30453 -0.37790
#
# Static dielectric constant tensor:
#      x y z
#    x 1.951350 0.000000 0.000000 
#    y 0.000000 2.022870 0.000000 
#    z 0.000000 0.000000 1.970740 
# 
# From -- ./inp_files/20464.got.cif
#   From: 2010.05.17/outbox.cif.g08.bks.cpg/sg60_11_cif.got.tgz:20464.got - 2010.06.03 14:59:27.
