data_PCOD9455653
_publ_section_title
;
Structure prediction by ZEFSAII (Michael W. Deem and Ramdas Pophale) SiO2 
 PCOD9455653
Probable space group: P B C N
;
_chemical_formula_sum "Si O2"
_cell_formula_units_Z 60
_cell_length_a 11.639675
_cell_length_b 30.094708
_cell_length_c 7.894206
_cell_angle_alpha 90.000000
_cell_angle_beta 90.000000
_cell_angle_gamma 90.000000
_cell_volume 2765.282105
_symmetry_space_group_name_H-M "P B C N"
_symmetry_group_IT_number 60
_symmetry_cell_setting 'orthorhombic'
loop_
_space_group_symop_operation_xyz
x,y,z
1/2-x,1/2-y,1/2+z
1/2+x,1/2-y,-z
-x,y,1/2-z
-x,-y,-z
1/2+x,1/2+y,1/2-z
1/2-x,1/2+y,z
x,-y,1/2+z
loop_
_atom_site_type_symbol
_atom_site_label
_atom_site_fract_x
_atom_site_fract_y
_atom_site_fract_z
Si Si1 0.000000 0.423691 0.250000
Si Si2 0.381018 0.526271 0.979531
Si Si3 0.075029 0.123920 0.017234
Si Si4 0.829494 0.862157 0.360215
Si Si5 0.826043 0.712562 0.997695
Si Si6 0.231026 0.192474 0.135079
Si Si7 0.741769 0.044938 0.845534
Si Si8 0.032646 0.648092 0.051135
O O1 0.113680 0.453673 0.226854
O O2 0.018800 0.392012 0.415925
O O3 0.274146 0.495570 0.033763
O O4 0.500000 0.500000 0.000000
O O5 0.400070 0.573319 0.070676
O O6 0.345547 0.539576 0.789940
O O7 0.139105 0.133082 0.837386
O O8 0.944804 0.134080 0.969246
O O9 0.130223 0.156916 0.150009
O O10 0.759983 0.817181 0.385957
O O11 0.756329 0.905211 0.416808
O O12 0.780059 0.707521 0.186709
O O13 0.948572 0.688096 0.993699
O O14 0.819954 0.763920 0.952227
O O15 0.338526 0.167438 0.047638
O O16 0.000000 0.636840 0.250000
#
# Coordination Sequence:
#
# PCOD9455653 Si02
#       8
#     4   8   8   8   8   8   8   8
#     4  12  24  48  78  96 146 188 244 300 360 440
#     4  11  22  43  68 101 141 179 231 294 358 434
#     4  10  22  40  67  94 135 178 220 286 346 422
#     4  10  20  41  65  95 132 176 228 273 348 420
#     4  11  24  42  66  96 137 176 232 290 349 431
#     4  11  25  42  64 102 133 179 236 287 357 427
#     4  11  24  42  69 104 132 188 233 282 372 423
#     4  10  24  45  69  99 138 192 234 289 362 425
#
# _framework density 21.697604999999999
#
# number of rings (size 3 to 8) (size 9 to 14) (size 15 to 20)
#    0.000    1.333    2.667    2.800    3.733    2.133 
#    4.800    0.000    0.000    0.000    0.000    0.000 
#    0.000    0.000    0.000    0.000    0.000    0.000 
#
# Total GULP energy -335192.266623 kJ/mol
# GULP energy per Si atom -5586.537777 kJ/mol
# Density = 2.164822 g / cm^3
# Si number density = 21.697605 Si / 1000 Ang^3
#
#
#
# Elastic Constant Matrix: (Units=GPa)
#
#
# Indices 1 2 3 4 5 6 
#
# 1 119.8810 35.9453 17.9961 0.0000 0.0000 0.0000
# 2 35.9453 120.2185 21.3956 0.0000 0.0000 0.0000
# 3 17.9961 21.3956 47.1119 0.0000 0.0000 0.0000
# 4 0.0000 0.0000 0.0000 20.4540 0.0000 0.0000
# 5 0.0000 0.0000 0.0000 0.0000 25.6402 0.0000
# 6 0.0000 0.0000 0.0000 0.0000 0.0000 32.5040
#
#
#
# Elastic Compliance Matrix: (Units=1/GPa)
#
#
# Indices 1 2 3 4 5 6 
#
# 1 0.009432 -0.002370 -0.002526 0.000000 0.000000 0.000000
# 2 -0.002370 0.009645 -0.003475 0.000000 0.000000 0.000000
# 3 -0.002526 -0.003475 0.023769 0.000000 0.000000 0.000000
# 4 0.000000 0.000000 0.000000 0.048890 0.000000 0.000000
# 5 0.000000 0.000000 0.000000 0.000000 0.039001 0.000000
# 6 0.000000 0.000000 0.000000 0.000000 0.000000 0.030765
#
#
# Mechanical properties :
#
#
# Convention : Reuss Voigt Hill
#
# Bulk Modulus (GPa) = 38.30982 48.65393 43.48188
# Shear Modulus (GPa) = 26.74553 29.84460 28.29507
#
# Velocity S-wave (km/s) = 3.51472 3.71277 3.61510
# Velocity P-wave (km/s) = 5.84513 6.39155 6.12444
#
# Compressibility (1/GPa) = 0.02610297
#
# Stress axis : x y z
#
# Youngs Moduli (GPa) = 106.02666 103.67648 42.07133
#
# Poissons Ratio (x) = 0.24576 0.10628
# Poissons Ratio (y) = 0.25133 0.14619
# Poissons Ratio (z) = 0.26785 0.36027
#
# Static dielectric constant tensor:
#      x y z
#    x 1.780540 0.000000 0.000000 
#    y 0.000000 1.860650 0.000000 
#    z 0.000000 0.000000 1.835800 
# 
# From -- ./inp_files/5238.got.cif
#   From: 2010.05.17/outbox.cif.g08.bks.cpg/sg60_3_cif.got.tgz:5238.got - 2010.06.03 14:59:27.
