data_PCOD9455754
_publ_section_title
;
Structure prediction by ZEFSAII (Michael W. Deem and Ramdas Pophale) SiO2 
 PCOD9455754
Probable space group: P B C N
;
_chemical_formula_sum "Si O2"
_cell_formula_units_Z 28
_cell_length_a 11.470903
_cell_length_b 8.282803
_cell_length_c 13.330370
_cell_angle_alpha 90.000000
_cell_angle_beta 90.000000
_cell_angle_gamma 90.000000
_cell_volume 1266.534847
_symmetry_space_group_name_H-M "P B C N"
_symmetry_group_IT_number 60
_symmetry_cell_setting 'orthorhombic'
loop_
_space_group_symop_operation_xyz
x,y,z
1/2-x,1/2-y,1/2+z
1/2+x,1/2-y,-z
-x,y,1/2-z
-x,-y,-z
1/2+x,1/2+y,1/2-z
1/2-x,1/2+y,z
x,-y,1/2+z
loop_
_atom_site_type_symbol
_atom_site_label
_atom_site_fract_x
_atom_site_fract_y
_atom_site_fract_z
Si Si1 0.568998 0.860927 0.440744
Si Si2 0.081852 0.892826 0.847052
Si Si3 0.500000 0.958074 0.750000
Si Si4 0.681990 0.745851 0.623262
O O1 0.495468 0.696050 0.430859
O O2 0.678972 0.815871 0.509320
O O3 0.500000 0.000000 0.500000
O O4 0.572591 0.933554 0.329165
O O5 0.190591 0.772032 0.831916
O O6 0.000000 0.914425 0.750000
O O7 0.139504 0.062491 0.874996
O O8 0.589641 0.848002 0.688155
#
# Coordination Sequence:
#
# PCOD9455754 Si02
#       4
#     8   8   4   8
#     4  10  22  44  70 102 144 179 242 291 364 436
#     4  12  25  48  73 109 146 195 248 299 367 439
#     4  10  20  44  72 108 138 198 236 298 368 436
#     4  11  24  46  70 104 151 188 244 305 361 433
#
# _framework density 22.107564
#
# number of rings (size 3 to 8) (size 9 to 14) (size 15 to 20)
#    0.000    1.143    2.857    4.286    0.000    0.000 
#   20.571    0.000    0.000    0.000    0.000    0.000 
#    0.000    0.000    0.000    0.000    0.000    0.000 
#
# Total GULP energy -156414.048335 kJ/mol
# GULP energy per Si atom -5586.216012 kJ/mol
# Density = 2.205725 g / cm^3
# Si number density = 22.107564 Si / 1000 Ang^3
#
#
#
# Elastic Constant Matrix: (Units=GPa)
#
#
# Indices 1 2 3 4 5 6 
#
# 1 87.5902 18.8996 35.5330 0.0000 0.0000 0.0000
# 2 18.8996 137.9191 52.7015 0.0000 0.0000 0.0000
# 3 35.5330 52.7015 112.7595 0.0000 0.0000 0.0000
# 4 0.0000 0.0000 0.0000 21.6187 0.0000 0.0000
# 5 0.0000 0.0000 0.0000 0.0000 38.0442 0.0000
# 6 0.0000 0.0000 0.0000 0.0000 0.0000 30.7632
#
#
#
# Elastic Compliance Matrix: (Units=1/GPa)
#
#
# Indices 1 2 3 4 5 6 
#
# 1 0.013098 -0.000265 -0.004004 0.000000 0.000000 0.000000
# 2 -0.000265 0.008832 -0.004045 0.000000 0.000000 0.000000
# 3 -0.004004 -0.004045 0.012020 0.000000 0.000000 0.000000
# 4 0.000000 0.000000 0.000000 0.046256 0.000000 0.000000
# 5 0.000000 0.000000 0.000000 0.000000 0.026285 0.000000
# 6 0.000000 0.000000 0.000000 0.000000 0.000000 0.032506
#
#
# Mechanical properties :
#
#
# Convention : Reuss Voigt Hill
#
# Bulk Modulus (GPa) = 57.72169 61.39300 59.55735
# Shear Modulus (GPa) = 30.97890 33.49422 32.23656
#
# Velocity S-wave (km/s) = 3.74743 3.89660 3.82274
# Velocity P-wave (km/s) = 6.70003 6.93362 6.81783
#
# Compressibility (1/GPa) = 0.01732451
#
# Stress axis : x y z
#
# Youngs Moduli (GPa) = 76.34657 113.21876 83.19165
#
# Poissons Ratio (x) = 0.03000 0.33307
# Poissons Ratio (y) = 0.02023 0.33648
# Poissons Ratio (z) = 0.30567 0.45792
#
# Static dielectric constant tensor:
#      x y z
#    x 1.763500 0.000000 0.000000 
#    y 0.000000 1.839790 0.000000 
#    z 0.000000 0.000000 1.859150 
# 
# From -- ./inp_files/15514.got.cif
#   From: 2010.05.17/outbox.cif.g08.bks.cpg/sg60_8_cif.got.tgz:15514.got - 2010.06.03 14:59:27.
