data_PCOD9455712
_publ_section_title
;
Structure prediction by ZEFSAII (Michael W. Deem and Ramdas Pophale) SiO2 
 PCOD9455712
Probable space group: P B C N
;
_chemical_formula_sum "Si O2"
_cell_formula_units_Z 24
_cell_length_a 4.973048
_cell_length_b 16.523951
_cell_length_c 13.146638
_cell_angle_alpha 90.000000
_cell_angle_beta 90.000000
_cell_angle_gamma 90.000000
_cell_volume 1080.317109
_symmetry_space_group_name_H-M "P B C N"
_symmetry_group_IT_number 60
_symmetry_cell_setting 'orthorhombic'
loop_
_space_group_symop_operation_xyz
x,y,z
1/2-x,1/2-y,1/2+z
1/2+x,1/2-y,-z
-x,y,1/2-z
-x,-y,-z
1/2+x,1/2+y,1/2-z
1/2-x,1/2+y,z
x,-y,1/2+z
loop_
_atom_site_type_symbol
_atom_site_label
_atom_site_fract_x
_atom_site_fract_y
_atom_site_fract_z
Si Si1 0.237182 0.686521 0.179593
Si Si2 0.251332 0.967887 0.562692
Si Si3 0.000000 0.839096 0.250000
Si Si4 0.500000 0.059350 0.750000
O O1 0.500000 0.688240 0.250000
O O2 0.271191 0.627776 0.084626
O O3 0.132560 0.778429 0.166166
O O4 0.000000 0.650623 0.250000
O O5 0.317609 0.008553 0.671696
O O6 0.500000 0.000000 0.500000
O O7 0.000000 0.000000 0.500000
O O8 0.256778 0.886089 0.295967
#
# Coordination Sequence:
#
# PCOD9455712 Si02
#       4
#     8   8   4   4
#     4  10  20  42  68  91 131 181 220 265 358 401
#     4  12  26  42  70 103 133 178 234 284 340 412
#     4  10  21  40  73  90 132 186 214 276 357 408
#     4  12  23  44  69 102 132 176 234 286 335 420
#
# _framework density 22.215699999999998
#
# number of rings (size 3 to 8) (size 9 to 14) (size 15 to 20)
#    1.000    0.000    3.333    4.000    2.333    0.000 
#    0.000    6.667    0.000    0.000    0.000    0.000 
#    0.000    0.000    0.000    0.000    0.000    0.000 
#
# Total GULP energy -133657.799990 kJ/mol
# GULP energy per Si atom -5569.075000 kJ/mol
# Density = 2.216514 g / cm^3
# Si number density = 22.215700 Si / 1000 Ang^3
#
#
#
# Elastic Constant Matrix: (Units=GPa)
#
#
# Indices 1 2 3 4 5 6 
#
# 1 196.4344 31.5393 21.7975 0.0000 0.0000 0.0000
# 2 31.5393 65.2580 13.8603 0.0000 0.0000 0.0000
# 3 21.7975 13.8603 45.0793 0.0000 0.0000 0.0000
# 4 0.0000 0.0000 0.0000 12.2076 0.0000 0.0000
# 5 0.0000 0.0000 0.0000 0.0000 44.6713 0.0000
# 6 0.0000 0.0000 0.0000 0.0000 0.0000 94.7292
#
#
#
# Elastic Compliance Matrix: (Units=1/GPa)
#
#
# Indices 1 2 3 4 5 6 
#
# 1 0.005689 -0.002316 -0.002039 0.000000 0.000000 0.000000
# 2 -0.002316 0.017338 -0.004211 0.000000 0.000000 0.000000
# 3 -0.002039 -0.004211 0.024463 0.000000 0.000000 0.000000
# 4 0.000000 0.000000 0.000000 0.081916 0.000000 0.000000
# 5 0.000000 0.000000 0.000000 0.000000 0.022386 0.000000
# 6 0.000000 0.000000 0.000000 0.000000 0.000000 0.010556
#
#
# Mechanical properties :
#
#
# Convention : Reuss Voigt Hill
#
# Bulk Modulus (GPa) = 32.93948 49.01845 40.97897
# Shear Modulus (GPa) = 26.37140 46.29325 36.33232
#
# Velocity S-wave (km/s) = 3.44911 4.56983 4.04844
# Velocity P-wave (km/s) = 5.54267 7.06803 6.35131
#
# Compressibility (1/GPa) = 0.03035871
#
# Stress axis : x y z
#
# Youngs Moduli (GPa) = 175.78081 57.67796 40.87726
#
# Poissons Ratio (x) = 0.13361 0.08333
# Poissons Ratio (y) = 0.40719 0.17212
# Poissons Ratio (z) = 0.35834 0.24286
#
# Static dielectric constant tensor:
#      x y z
#    x 1.743980 0.000000 0.000000 
#    y 0.000000 1.966000 0.000000 
#    z 0.000000 0.000000 1.708980 
# 
# From -- ./inp_files/8701.got.cif
#   From: 2010.05.17/outbox.cif.g08.bks.cpg/sg60_5_cif.got.tgz:8701.got - 2010.06.03 14:59:27.
