data_PCOD9455915
_publ_section_title
;
Structure prediction by ZEFSAII (Michael W. Deem and Ramdas Pophale) SiO2 
 PCOD9455915
Probable space group: P B C N
;
_chemical_formula_sum "Si O2"
_cell_formula_units_Z 64
_cell_length_a 18.569618
_cell_length_b 18.249273
_cell_length_c 8.945020
_cell_angle_alpha 90.000000
_cell_angle_beta 90.000000
_cell_angle_gamma 90.000000
_cell_volume 3031.306522
_symmetry_space_group_name_H-M "P B C N"
_symmetry_group_IT_number 60
_symmetry_cell_setting 'orthorhombic'
loop_
_space_group_symop_operation_xyz
x,y,z
1/2-x,1/2-y,1/2+z
1/2+x,1/2-y,-z
-x,y,1/2-z
-x,-y,-z
1/2+x,1/2+y,1/2-z
1/2-x,1/2+y,z
x,-y,1/2+z
loop_
_atom_site_type_symbol
_atom_site_label
_atom_site_fract_x
_atom_site_fract_y
_atom_site_fract_z
Si Si1 0.776527 0.972512 0.603363
Si Si2 0.900107 0.598184 0.406452
Si Si3 0.728047 0.396887 0.918077
Si Si4 0.473734 0.256030 0.085253
Si Si5 0.207938 0.252306 0.227391
Si Si6 0.935705 0.675366 0.865579
Si Si7 0.895579 0.540711 0.078268
Si Si8 0.676664 0.673711 0.966863
O O1 0.788064 0.947833 0.773482
O O2 0.691227 0.964291 0.571329
O O3 0.813377 0.911846 0.498797
O O4 0.795956 0.055482 0.559900
O O5 0.814746 0.612725 0.422504
O O6 0.940190 0.674408 0.409350
O O7 0.922684 0.538683 0.528667
O O8 0.913683 0.561065 0.246716
O O9 0.697699 0.316884 0.884384
O O10 0.500000 0.276267 0.250000
O O11 0.407247 0.306321 0.037444
O O12 0.538227 0.243888 0.968320
O O13 0.138161 0.303638 0.217382
O O14 0.278620 0.296333 0.175022
O O15 0.212164 0.215820 0.390466
O O16 0.919774 0.605570 0.969222
O O17 0.000000 0.662200 0.750000
#
# Coordination Sequence:
#
# PCOD9455915 Si02
#       8
#     8   8   8   8   8   8   8   8
#     4   9  19  37  60  88 117 149 197 251 294 350
#     4  10  21  37  57  85 119 163 203 243 295 357
#     4   9  19  37  60  88 118 149 197 250 298 348
#     4  12  25  41  59  87 127 162 202 252 303 359
#     4  11  23  40  65  90 120 160 206 250 301 356
#     4  12  25  41  57  88 124 163 203 247 306 362
#     4  10  21  37  57  83 121 162 203 243 293 361
#     4  11  23  40  65  91 119 160 205 252 299 358
#
# _framework density 21.113007
#
# number of rings (size 3 to 8) (size 9 to 14) (size 15 to 20)
#    0.000    1.500    5.000    0.000    3.500    2.000 
#    0.000    0.000    0.000    1.500    0.000    0.000 
#    0.000    0.000    0.000    0.000    0.000    0.000 
#
# Total GULP energy -358036.585289 kJ/mol
# GULP energy per Si atom -5594.321645 kJ/mol
# Density = 2.106495 g / cm^3
# Si number density = 21.113007 Si / 1000 Ang^3
#
#
#
# Elastic Constant Matrix: (Units=GPa)
#
#
# Indices 1 2 3 4 5 6 
#
# 1 38.0951 17.1719 2.1450 0.0000 0.0000 0.0000
# 2 17.1719 58.3443 1.5242 0.0000 0.0000 0.0000
# 3 2.1450 1.5242 34.3455 0.0000 0.0000 0.0000
# 4 0.0000 0.0000 0.0000 25.6547 0.0000 0.0000
# 5 0.0000 0.0000 0.0000 0.0000 23.3885 0.0000
# 6 0.0000 0.0000 0.0000 0.0000 0.0000 28.3803
#
#
#
# Elastic Compliance Matrix: (Units=1/GPa)
#
#
# Indices 1 2 3 4 5 6 
#
# 1 0.030342 -0.008891 -0.001500 0.000000 0.000000 0.000000
# 2 -0.008891 0.019765 -0.000322 0.000000 0.000000 0.000000
# 3 -0.001500 -0.000322 0.029224 0.000000 0.000000 0.000000
# 4 0.000000 0.000000 0.000000 0.038979 0.000000 0.000000
# 5 0.000000 0.000000 0.000000 0.000000 0.042756 0.000000
# 6 0.000000 0.000000 0.000000 0.000000 0.000000 0.035236
#
#
# Mechanical properties :
#
#
# Convention : Reuss Voigt Hill
#
# Bulk Modulus (GPa) = 17.26987 19.16301 18.21644
# Shear Modulus (GPa) = 21.09433 22.81428 21.95431
#
# Velocity S-wave (km/s) = 3.16431 3.29078 3.22816
# Velocity P-wave (km/s) = 4.64198 4.85130 4.74779
#
# Compressibility (1/GPa) = 0.05790430
#
# Stress axis : x y z
#
# Youngs Moduli (GPa) = 32.95715 50.59478 34.21863
#
# Poissons Ratio (x) = 0.44985 0.05134
# Poissons Ratio (y) = 0.29303 0.01101
# Poissons Ratio (z) = 0.04945 0.01629
#
# Static dielectric constant tensor:
#      x y z
#    x 1.757810 0.000000 0.000000 
#    y 0.000000 1.730880 0.000000 
#    z 0.000000 0.000000 1.805180 
# 
# From -- ./inp_files/7554.got.cif
#   From: 2010.05.17/outbox.cif.g08.bks.cpg/sg60_4_cif.got.tgz:7554.got - 2010.06.03 14:59:27.
