data_PCOD9455338
_publ_section_title
;
Structure prediction by ZEFSAII (Michael W. Deem and Ramdas Pophale) SiO2 
 PCOD9455338
Probable space group: P B C N
;
_chemical_formula_sum "Si O2"
_cell_formula_units_Z 32
_cell_length_a 8.295074
_cell_length_b 11.468444
_cell_length_c 12.878286
_cell_angle_alpha 90.000000
_cell_angle_beta 90.000000
_cell_angle_gamma 90.000000
_cell_volume 1225.131845
_symmetry_space_group_name_H-M "P B C N"
_symmetry_group_IT_number 60
_symmetry_cell_setting 'orthorhombic'
loop_
_space_group_symop_operation_xyz
x,y,z
1/2-x,1/2-y,1/2+z
1/2+x,1/2-y,-z
-x,y,1/2-z
-x,-y,-z
1/2+x,1/2+y,1/2-z
1/2-x,1/2+y,z
x,-y,1/2+z
loop_
_atom_site_type_symbol
_atom_site_label
_atom_site_fract_x
_atom_site_fract_y
_atom_site_fract_z
Si Si1 0.027943 0.794435 0.508123
Si Si2 0.956523 0.424720 0.140802
Si Si3 0.843428 0.335403 0.865038
Si Si4 0.846030 0.931319 0.680108
O O1 0.008657 0.664127 0.553798
O O2 0.961783 0.772510 0.392216
O O3 0.906651 0.874584 0.573701
O O4 0.203489 0.832254 0.547144
O O5 0.772722 0.464607 0.150268
O O6 0.000000 0.365765 0.250000
O O7 0.061292 0.542417 0.133096
O O8 0.755251 0.341750 0.753295
O O9 0.000000 0.964084 0.750000
#
# Coordination Sequence:
#
# PCOD9455338 Si02
#       4
#     8   8   8   8
#     4  11  21  39  60  83 118 159 195 244 304 356
#     4  10  20  38  60  83 118 158 192 242 300 353
#     4  10  21  36  58  86 116 153 200 244 289 353
#     4   9  20  39  59  86 120 150 197 252 296 356
#
# _framework density 26.119638999999999
#
# number of rings (size 3 to 8) (size 9 to 14) (size 15 to 20)
#    0.000    2.000    0.000    4.500    0.000    0.000 
#    0.000   27.500    0.000    0.000    0.000    0.000 
#    0.000    0.000    0.000    0.000    0.000    0.000 
#
# Total GULP energy -179165.377984 kJ/mol
# GULP energy per Si atom -5598.918062 kJ/mol
# Density = 2.606019 g / cm^3
# Si number density = 26.119639 Si / 1000 Ang^3
#
#
#
# Elastic Constant Matrix: (Units=GPa)
#
#
# Indices 1 2 3 4 5 6 
#
# 1 143.7429 42.3777 23.5003 0.0000 0.0000 0.0000
# 2 42.3777 58.4046 11.8382 0.0000 0.0000 0.0000
# 3 23.5003 11.8382 73.1569 0.0000 0.0000 0.0000
# 4 0.0000 0.0000 0.0000 34.5466 0.0000 0.0000
# 5 0.0000 0.0000 0.0000 0.0000 50.2831 0.0000
# 6 0.0000 0.0000 0.0000 0.0000 0.0000 32.2908
#
#
#
# Elastic Compliance Matrix: (Units=1/GPa)
#
#
# Indices 1 2 3 4 5 6 
#
# 1 0.009103 -0.006216 -0.001918 0.000000 0.000000 0.000000
# 2 -0.006216 0.021948 -0.001555 0.000000 0.000000 0.000000
# 3 -0.001918 -0.001555 0.014537 0.000000 0.000000 0.000000
# 4 0.000000 0.000000 0.000000 0.028946 0.000000 0.000000
# 5 0.000000 0.000000 0.000000 0.000000 0.019887 0.000000
# 6 0.000000 0.000000 0.000000 0.000000 0.000000 0.030969
#
#
# Mechanical properties :
#
#
# Convention : Reuss Voigt Hill
#
# Bulk Modulus (GPa) = 38.15458 47.85964 43.00711
# Shear Modulus (GPa) = 32.57224 36.59667 34.58446
#
# Velocity S-wave (km/s) = 3.53518 3.74721 3.64274
# Velocity P-wave (km/s) = 5.59488 6.08976 5.84755
#
# Compressibility (1/GPa) = 0.02620917
#
# Stress axis : x y z
#
# Youngs Moduli (GPa) = 109.85217 45.56324 68.78977
#
# Poissons Ratio (x) = 0.28323 0.13196
# Poissons Ratio (y) = 0.68287 0.10695
# Poissons Ratio (z) = 0.21073 0.07084
#
# Static dielectric constant tensor:
#      x y z
#    x 2.117670 0.000000 0.000000 
#    y 0.000000 1.992680 0.000000 
#    z 0.000000 0.000000 2.273580 
# 
# From -- ./inp_files/14306.got.cif
#   From: 2010.05.17/outbox.cif.g08.bks.cpg/sg60_8_cif.got.tgz:14306.got - 2010.06.03 14:59:27.
