data_PCOD9455835
_publ_section_title
;
Structure prediction by ZEFSAII (Michael W. Deem and Ramdas Pophale) SiO2 
 PCOD9455835
Probable space group: P B C N
;
_chemical_formula_sum "Si O2"
_cell_formula_units_Z 56
_cell_length_a 4.993911
_cell_length_b 27.018499
_cell_length_c 18.009977
_cell_angle_alpha 90.000000
_cell_angle_beta 90.000000
_cell_angle_gamma 90.000000
_cell_volume 2430.049805
_symmetry_space_group_name_H-M "P B C N"
_symmetry_group_IT_number 60
_symmetry_cell_setting 'orthorhombic'
loop_
_space_group_symop_operation_xyz
x,y,z
1/2-x,1/2-y,1/2+z
1/2+x,1/2-y,-z
-x,y,1/2-z
-x,-y,-z
1/2+x,1/2+y,1/2-z
1/2-x,1/2+y,z
x,-y,1/2+z
loop_
_atom_site_type_symbol
_atom_site_label
_atom_site_fract_x
_atom_site_fract_y
_atom_site_fract_z
Si Si1 0.777771 0.500148 0.598314
Si Si2 0.163087 0.756178 0.674559
Si Si3 0.296885 0.668453 0.484332
Si Si4 0.020974 0.583564 0.995443
Si Si5 0.160709 0.131411 0.132248
Si Si6 0.206939 0.026407 0.186513
Si Si7 0.150512 0.232838 0.916382
O O1 0.859080 0.459669 0.537082
O O2 0.990631 0.490655 0.666719
O O3 0.813363 0.554954 0.566514
O O4 0.470057 0.489451 0.615749
O O5 0.445786 0.731937 0.653289
O O6 0.000000 0.747942 0.750000
O O7 0.220843 0.815200 0.666845
O O8 0.951688 0.736604 0.613151
O O9 0.373379 0.641682 0.406320
O O10 0.551562 0.691025 0.527228
O O11 0.165814 0.626857 0.535125
O O12 0.117810 0.715060 0.460134
O O13 0.181133 0.611637 0.060249
O O14 0.199808 0.086251 0.188695
O O15 0.000000 0.007931 0.250000
#
# Coordination Sequence:
#
# PCOD9455835 Si02
#       7
#     8   8   8   8   8   8   8
#     4  10  23  38  60  93 122 165 200 250 312 363
#     4  11  23  41  59  88 127 169 206 250 304 392
#     4  11  21  39  60  95 126 157 202 274 308 381
#     4  10  21  37  63  90 129 151 205 262 314 364
#     4  10  21  35  61  94 122 156 201 254 329 362
#     4  11  22  39  59  88 128 166 201 243 300 382
#     4  11  24  37  62  90 125 163 205 252 324 361
#
# _framework density 23.044792999999999
#
# number of rings (size 3 to 8) (size 9 to 14) (size 15 to 20)
#    0.000    1.429    2.857    3.000    4.000    1.714 
#    0.000    2.857    0.000    3.429    0.000    0.000 
#    0.000    0.000    0.000    0.000    0.000    0.000 
#
# Total GULP energy -312499.082677 kJ/mol
# GULP energy per Si atom -5580.340762 kJ/mol
# Density = 2.299234 g / cm^3
# Si number density = 23.044793 Si / 1000 Ang^3
#
#
#
# Elastic Constant Matrix: (Units=GPa)
#
#
# Indices 1 2 3 4 5 6 
#
# 1 97.1453 12.8870 -1.0905 0.0000 0.0000 0.0000
# 2 12.8870 62.0391 -7.5864 0.0000 0.0000 0.0000
# 3 -1.0905 -7.5864 48.2282 0.0000 0.0000 0.0000
# 4 0.0000 0.0000 0.0000 16.5855 0.0000 0.0000
# 5 0.0000 0.0000 0.0000 0.0000 30.8753 0.0000
# 6 0.0000 0.0000 0.0000 0.0000 0.0000 25.0380
#
#
#
# Elastic Compliance Matrix: (Units=1/GPa)
#
#
# Indices 1 2 3 4 5 6 
#
# 1 0.010586 -0.002212 -0.000109 0.000000 0.000000 0.000000
# 2 -0.002212 0.016897 0.002608 0.000000 0.000000 0.000000
# 3 -0.000109 0.002608 0.021143 0.000000 0.000000 0.000000
# 4 0.000000 0.000000 0.000000 0.060294 0.000000 0.000000
# 5 0.000000 0.000000 0.000000 0.000000 0.032388 0.000000
# 6 0.000000 0.000000 0.000000 0.000000 0.000000 0.039939
#
#
# Mechanical properties :
#
#
# Convention : Reuss Voigt Hill
#
# Bulk Modulus (GPa) = 20.32518 23.98144 22.15331
# Shear Modulus (GPa) = 25.37127 28.04659 26.70893
#
# Velocity S-wave (km/s) = 3.32166 3.49240 3.40810
# Velocity P-wave (km/s) = 4.85286 5.16639 5.01208
#
# Compressibility (1/GPa) = 0.04920005
#
# Stress axis : x y z
#
# Youngs Moduli (GPa) = 94.46339 59.18100 47.29804
#
# Poissons Ratio (x) = 0.13092 0.00514
# Poissons Ratio (y) = 0.20898 -0.12335
# Poissons Ratio (z) = 0.01026 -0.15434
#
# Static dielectric constant tensor:
#      x y z
#    x 1.930390 0.000000 0.000000 
#    y 0.000000 1.851260 0.000000 
#    z 0.000000 0.000000 1.978890 
# 
# From -- ./inp_files/21744.got.cif
#   From: 2010.05.17/outbox.cif.g08.bks.cpg/sg60_11_cif.got.tgz:21744.got - 2010.06.03 14:59:27.
