data_PCOD9455624
_publ_section_title
;
Structure prediction by ZEFSAII (Michael W. Deem and Ramdas Pophale) SiO2 
 PCOD9455624
Probable space group: P B C N
;
_chemical_formula_sum "Si O2"
_cell_formula_units_Z 56
_cell_length_a 27.436893
_cell_length_b 5.629182
_cell_length_c 14.662514
_cell_angle_alpha 90.000000
_cell_angle_beta 90.000000
_cell_angle_gamma 90.000000
_cell_volume 2264.585174
_symmetry_space_group_name_H-M "P B C N"
_symmetry_group_IT_number 60
_symmetry_cell_setting 'orthorhombic'
loop_
_space_group_symop_operation_xyz
x,y,z
1/2-x,1/2-y,1/2+z
1/2+x,1/2-y,-z
-x,y,1/2-z
-x,-y,-z
1/2+x,1/2+y,1/2-z
1/2-x,1/2+y,z
x,-y,1/2+z
loop_
_atom_site_type_symbol
_atom_site_label
_atom_site_fract_x
_atom_site_fract_y
_atom_site_fract_z
Si Si1 0.947623 0.945151 0.216288
Si Si2 0.519912 0.722185 0.053172
Si Si3 0.918612 0.498575 0.935132
Si Si4 0.263580 0.805664 0.144463
Si Si5 0.628994 0.804707 0.272757
Si Si6 0.373013 0.149157 0.389900
Si Si7 0.226937 0.852255 0.349066
O O1 0.922935 0.754140 0.150476
O O2 0.000000 0.851084 0.250000
O O3 0.036317 0.166895 0.345642
O O4 0.905393 0.069943 0.277055
O O5 0.568580 0.771518 0.994831
O O6 0.500000 0.500000 0.000000
O O7 0.472744 0.889211 0.063441
O O8 0.880630 0.625203 0.002404
O O9 0.899077 0.497080 0.833699
O O10 0.245002 0.562814 0.097674
O O11 0.319118 0.775386 0.178308
O O12 0.233323 0.835367 0.239249
O O13 0.637492 0.914792 0.171966
O O14 0.329622 0.330776 0.371381
O O15 0.251257 0.603408 0.381206
#
# Coordination Sequence:
#
# PCOD9455624 Si02
#       7
#     8   8   8   8   8   8   8
#     4  12  25  40  69  99 135 186 238 282 352 424
#     4  11  23  45  60  89 143 181 220 293 341 396
#     4  11  26  42  65  98 138 180 235 285 345 416
#     4  10  20  41  69  98 138 179 225 296 360 414
#     4  12  25  42  69 102 134 180 239 286 351 434
#     4  12  25  42  70  98 134 185 229 289 358 421
#     4  10  20  40  71  99 132 182 228 288 363 422
#
# _framework density 24.728591000000002
#
# number of rings (size 3 to 8) (size 9 to 14) (size 15 to 20)
#    0.000    0.857    7.143    1.714    2.000    0.571 
#    0.000    1.429    0.000    0.000    0.000    0.000 
#    0.000    0.000    0.000    0.000    0.000    0.000 
#
# Total GULP energy -312688.177725 kJ/mol
# GULP energy per Si atom -5583.717459 kJ/mol
# Density = 2.467231 g / cm^3
# Si number density = 24.728591 Si / 1000 Ang^3
#
#
#
# Elastic Constant Matrix: (Units=GPa)
#
#
# Indices 1 2 3 4 5 6 
#
# 1 101.6658 22.8280 0.2624 0.0000 0.0000 0.0000
# 2 22.8280 91.6911 -2.2504 0.0000 0.0000 0.0000
# 3 0.2624 -2.2504 67.0558 0.0000 0.0000 0.0000
# 4 0.0000 0.0000 0.0000 18.0001 0.0000 0.0000
# 5 0.0000 0.0000 0.0000 0.0000 13.6148 0.0000
# 6 0.0000 0.0000 0.0000 0.0000 0.0000 36.5795
#
#
#
# Elastic Compliance Matrix: (Units=1/GPa)
#
#
# Indices 1 2 3 4 5 6 
#
# 1 0.010420 -0.002597 -0.000128 0.000000 0.000000 0.000000
# 2 -0.002597 0.011563 0.000398 0.000000 0.000000 0.000000
# 3 -0.000128 0.000398 0.014927 0.000000 0.000000 0.000000
# 4 0.000000 0.000000 0.000000 0.055555 0.000000 0.000000
# 5 0.000000 0.000000 0.000000 0.000000 0.073449 0.000000
# 6 0.000000 0.000000 0.000000 0.000000 0.000000 0.027338
#
#
# Mechanical properties :
#
#
# Convention : Reuss Voigt Hill
#
# Bulk Modulus (GPa) = 31.00292 33.56587 32.28440
# Shear Modulus (GPa) = 23.96277 29.61041 26.78659
#
# Velocity S-wave (km/s) = 3.11630 3.46412 3.29481
# Velocity P-wave (km/s) = 5.05104 5.44090 5.24959
#
# Compressibility (1/GPa) = 0.03225503
#
# Stress axis : x y z
#
# Youngs Moduli (GPa) = 95.97232 86.48581 66.99355
#
# Poissons Ratio (x) = 0.22463 0.00857
# Poissons Ratio (y) = 0.24927 -0.02668
# Poissons Ratio (z) = 0.01228 -0.03444
#
# Static dielectric constant tensor:
#      x y z
#    x 2.017820 0.000000 0.000000 
#    y 0.000000 2.139170 0.000000 
#    z 0.000000 0.000000 1.997540 
# 
# From -- ./inp_files/18159.got.cif
#   From: 2010.05.17/outbox.cif.g08.bks.cpg/sg60_10_cif.got.tgz:18159.got - 2010.06.03 14:59:27.
