data_PCOD9455713
_publ_section_title
;
Structure prediction by ZEFSAII (Michael W. Deem and Ramdas Pophale) SiO2 
 PCOD9455713
Probable space group: P B C N
;
_chemical_formula_sum "Si O2"
_cell_formula_units_Z 36
_cell_length_a 12.577898
_cell_length_b 13.085082
_cell_length_c 9.477224
_cell_angle_alpha 90.000000
_cell_angle_beta 90.000000
_cell_angle_gamma 90.000000
_cell_volume 1559.788315
_symmetry_space_group_name_H-M "P B C N"
_symmetry_group_IT_number 60
_symmetry_cell_setting 'orthorhombic'
loop_
_space_group_symop_operation_xyz
x,y,z
1/2-x,1/2-y,1/2+z
1/2+x,1/2-y,-z
-x,y,1/2-z
-x,-y,-z
1/2+x,1/2+y,1/2-z
1/2-x,1/2+y,z
x,-y,1/2+z
loop_
_atom_site_type_symbol
_atom_site_label
_atom_site_fract_x
_atom_site_fract_y
_atom_site_fract_z
Si Si1 0.990267 0.692911 0.975226
Si Si2 0.167670 0.956019 0.315977
Si Si3 0.183603 0.533022 0.558847
Si Si4 0.000000 0.536853 0.750000
Si Si5 0.500000 0.708115 0.750000
Si Si6 0.000000 0.867598 0.750000
O O1 0.882217 0.628320 0.007443
O O2 0.048872 0.613400 0.868541
O O3 0.971570 0.792353 0.878727
O O4 0.043845 0.726803 0.119665
O O5 0.232663 0.931885 0.175122
O O6 0.085423 0.863787 0.326549
O O7 0.247152 0.973351 0.445269
O O8 0.097496 0.058666 0.292865
O O9 0.091021 0.483140 0.659026
#
# Coordination Sequence:
#
# PCOD9455713 Si02
#       6
#     8   8   8   4   4   4
#     4   9  20  42  64  91 135 182 228 278 348 418
#     4  11  23  39  68 102 139 174 237 291 359 413
#     4  10  22  43  61 101 131 184 229 291 345 428
#     4   7  20  43  57  90 133 178 224 285 344 401
#     4  11  22  41  67 103 134 188 230 291 364 409
#     4  10  20  42  68  93 139 188 218 300 352 420
#
# _framework density 23.080055000000002
#
# number of rings (size 3 to 8) (size 9 to 14) (size 15 to 20)
#    1.333    0.889    0.000    2.667    0.000    6.222 
#    8.000    0.000    0.000    0.000    0.000    0.000 
#    0.000    0.000    0.000    0.000    0.000    0.000 
#
# Total GULP energy -200691.501400 kJ/mol
# GULP energy per Si atom -5574.763928 kJ/mol
# Density = 2.302752 g / cm^3
# Si number density = 23.080055 Si / 1000 Ang^3
#
#
#
# Elastic Constant Matrix: (Units=GPa)
#
#
# Indices 1 2 3 4 5 6 
#
# 1 106.4100 49.8105 40.9315 0.0000 0.0000 0.0000
# 2 49.8105 120.1179 49.7854 0.0000 0.0000 0.0000
# 3 40.9315 49.7854 173.6940 0.0000 0.0000 0.0000
# 4 0.0000 0.0000 0.0000 9.0812 0.0000 0.0000
# 5 0.0000 0.0000 0.0000 0.0000 45.3940 0.0000
# 6 0.0000 0.0000 0.0000 0.0000 0.0000 8.5633
#
#
#
# Elastic Compliance Matrix: (Units=1/GPa)
#
#
# Indices 1 2 3 4 5 6 
#
# 1 0.012039 -0.004331 -0.001596 0.000000 0.000000 0.000000
# 2 -0.004331 0.011006 -0.002134 0.000000 0.000000 0.000000
# 3 -0.001596 -0.002134 0.006745 0.000000 0.000000 0.000000
# 4 0.000000 0.000000 0.000000 0.110117 0.000000 0.000000
# 5 0.000000 0.000000 0.000000 0.000000 0.022029 0.000000
# 6 0.000000 0.000000 0.000000 0.000000 0.000000 0.116778
#
#
# Mechanical properties :
#
#
# Convention : Reuss Voigt Hill
#
# Bulk Modulus (GPa) = 73.16175 75.69739 74.42957
# Shear Modulus (GPa) = 16.70060 29.92066 23.31063
#
# Velocity S-wave (km/s) = 2.69289 3.60444 3.18148
# Velocity P-wave (km/s) = 6.43714 7.08460 6.76862
#
# Compressibility (1/GPa) = 0.01366834
#
# Stress axis : x y z
#
# Youngs Moduli (GPa) = 83.06580 90.86356 148.26037
#
# Poissons Ratio (x) = 0.39352 0.23656
# Poissons Ratio (y) = 0.35975 0.31637
# Poissons Ratio (z) = 0.13254 0.19389
#
# Static dielectric constant tensor:
#      x y z
#    x 1.895140 0.000000 0.000000 
#    y 0.000000 1.864720 0.000000 
#    z 0.000000 0.000000 1.898390 
# 
# From -- ./inp_files/5632.got.cif
#   From: 2010.05.17/outbox.cif.g08.bks.cpg/sg60_3_cif.got.tgz:5632.got - 2010.06.03 14:59:27.
