data_PCOD9455953
_publ_section_title
;
Structure prediction by ZEFSAII (Michael W. Deem and Ramdas Pophale) SiO2 
 PCOD9455953
Probable space group: P B C N
;
_chemical_formula_sum "Si O2"
_cell_formula_units_Z 56
_cell_length_a 20.998269
_cell_length_b 9.198146
_cell_length_c 15.068018
_cell_angle_alpha 90.000000
_cell_angle_beta 90.000000
_cell_angle_gamma 90.000000
_cell_volume 2910.314507
_symmetry_space_group_name_H-M "P B C N"
_symmetry_group_IT_number 60
_symmetry_cell_setting 'orthorhombic'
loop_
_space_group_symop_operation_xyz
x,y,z
1/2-x,1/2-y,1/2+z
1/2+x,1/2-y,-z
-x,y,1/2-z
-x,-y,-z
1/2+x,1/2+y,1/2-z
1/2-x,1/2+y,z
x,-y,1/2+z
loop_
_atom_site_type_symbol
_atom_site_label
_atom_site_fract_x
_atom_site_fract_y
_atom_site_fract_z
Si Si1 0.322951 0.379078 0.264227
Si Si2 0.927453 0.345773 0.781599
Si Si3 0.928157 0.550965 0.485092
Si Si4 0.369822 0.109648 0.836226
Si Si5 0.303268 0.132875 0.530854
Si Si6 0.297834 0.306284 0.713196
Si Si7 0.762651 0.091477 0.567880
O O1 0.387737 0.299246 0.239717
O O2 0.269351 0.252497 0.252330
O O3 0.303739 0.520675 0.207979
O O4 0.320069 0.439733 0.365274
O O5 0.898667 0.480650 0.723975
O O6 0.000000 0.331411 0.750000
O O7 0.922563 0.377930 0.887409
O O8 0.909556 0.640031 0.574164
O O9 0.874916 0.423077 0.486090
O O10 0.000000 0.500000 0.500000
O O11 0.354901 0.247323 0.775260
O O12 0.300138 0.065695 0.872881
O O13 0.303402 0.218455 0.622163
O O14 0.275017 0.244191 0.459593
O O15 0.255033 0.997770 0.520018
#
# Coordination Sequence:
#
# PCOD9455953 Si02
#       7
#     8   8   8   8   8   8   8
#     4  11  23  40  63  94 132 168 215 273 338 396
#     4  12  24  43  70  95 133 183 230 276 333 405
#     4  11  23  41  69  97 129 174 232 273 323 406
#     4  10  21  41  64  97 126 171 219 276 331 390
#     4  11  22  38  63 100 126 168 213 267 336 399
#     4  11  22  40  65  97 132 165 213 280 337 398
#     4  10  21  37  62  92 132 164 208 271 330 393
#
# _framework density 19.241904999999999
#
# number of rings (size 3 to 8) (size 9 to 14) (size 15 to 20)
#    0.000    1.143    2.857    6.000    4.000    0.000 
#    2.571    2.143    0.000    1.714    0.000    0.000 
#    0.000    0.000    0.000    0.000    0.000    0.000 
#
# Total GULP energy -312091.908588 kJ/mol
# GULP energy per Si atom -5573.069796 kJ/mol
# Density = 1.919811 g / cm^3
# Si number density = 19.241905 Si / 1000 Ang^3
#
#
#
# Elastic Constant Matrix: (Units=GPa)
#
#
# Indices 1 2 3 4 5 6 
#
# 1 110.4040 76.3459 65.1659 0.0000 0.0000 0.0000
# 2 76.3459 101.9575 20.6449 0.0000 0.0000 0.0000
# 3 65.1659 20.6449 102.9614 0.0000 0.0000 0.0000
# 4 0.0000 0.0000 0.0000 14.3721 0.0000 0.0000
# 5 0.0000 0.0000 0.0000 0.0000 32.8805 0.0000
# 6 0.0000 0.0000 0.0000 0.0000 0.0000 30.6180
#
#
#
# Elastic Compliance Matrix: (Units=1/GPa)
#
#
# Indices 1 2 3 4 5 6 
#
# 1 0.035432 -0.022921 -0.017829 0.000000 0.000000 0.000000
# 2 -0.022921 0.025051 0.009484 0.000000 0.000000 0.000000
# 3 -0.017829 0.009484 0.019095 0.000000 0.000000 0.000000
# 4 0.000000 0.000000 0.000000 0.069579 0.000000 0.000000
# 5 0.000000 0.000000 0.000000 0.000000 0.030413 0.000000
# 6 0.000000 0.000000 0.000000 0.000000 0.000000 0.032660
#
#
# Mechanical properties :
#
#
# Convention : Reuss Voigt Hill
#
# Bulk Modulus (GPa) = 58.66753 71.07070 64.86912
# Shear Modulus (GPa) = 17.82881 25.78521 21.80701
#
# Velocity S-wave (km/s) = 3.04725 3.66465 3.37012
# Velocity P-wave (km/s) = 6.55260 7.41092 6.99494
#
# Compressibility (1/GPa) = 0.01704520
#
# Stress axis : x y z
#
# Youngs Moduli (GPa) = 28.22341 39.91868 52.36935
#
# Poissons Ratio (x) = 0.91498 0.93371
# Poissons Ratio (y) = 0.64691 -0.49668
# Poissons Ratio (z) = 0.50320 -0.37859
#
# Static dielectric constant tensor:
#      x y z
#    x 1.658660 0.000000 0.000000 
#    y 0.000000 1.625500 0.000000 
#    z 0.000000 0.000000 1.788500 
# 
# From -- ./inp_files/17696.got.cif
#   From: 2010.05.17/outbox.cif.g08.bks.cpg/sg60_9_cif.got.tgz:17696.got - 2010.06.03 14:59:27.
