data_PCOD9455853
_publ_section_title
;
Structure prediction by ZEFSAII (Michael W. Deem and Ramdas Pophale) SiO2 
 PCOD9455853
Probable space group: P B C N
;
_chemical_formula_sum "Si O2"
_cell_formula_units_Z 64
_cell_length_a 5.204697
_cell_length_b 21.147174
_cell_length_c 28.551738
_cell_angle_alpha 90.000000
_cell_angle_beta 90.000000
_cell_angle_gamma 90.000000
_cell_volume 3142.536567
_symmetry_space_group_name_H-M "P B C N"
_symmetry_group_IT_number 60
_symmetry_cell_setting 'orthorhombic'
loop_
_space_group_symop_operation_xyz
x,y,z
1/2-x,1/2-y,1/2+z
1/2+x,1/2-y,-z
-x,y,1/2-z
-x,-y,-z
1/2+x,1/2+y,1/2-z
1/2-x,1/2+y,z
x,-y,1/2+z
loop_
_atom_site_type_symbol
_atom_site_label
_atom_site_fract_x
_atom_site_fract_y
_atom_site_fract_z
Si Si1 0.189476 0.314679 0.478858
Si Si2 0.936302 0.628442 0.383464
Si Si3 0.887672 0.970259 0.157205
Si Si4 0.410825 0.376915 0.089900
Si Si5 0.343045 0.937969 0.013857
Si Si6 0.437166 0.427117 0.922005
Si Si7 0.597515 0.971796 0.801935
Si Si8 0.829125 0.245988 0.421144
O O1 0.410416 0.354420 0.453169
O O2 0.226750 0.277905 0.527641
O O3 0.982510 0.369582 0.489836
O O4 0.116056 0.262503 0.439231
O O5 0.733670 0.589810 0.415534
O O6 0.927667 0.590718 0.334477
O O7 0.792504 0.695728 0.385476
O O8 0.226271 0.624689 0.403543
O O9 0.951703 0.902224 0.135913
O O10 0.871280 0.014681 0.111288
O O11 0.612254 0.977037 0.180838
O O12 0.118113 0.999155 0.189216
O O13 0.249785 0.314264 0.098217
O O14 0.245316 0.434448 0.067771
O O15 0.118475 0.938265 0.975751
O O16 0.500000 0.000000 0.000000
O O17 0.500000 0.956089 0.750000
#
# Coordination Sequence:
#
# PCOD9455853 Si02
#       8
#     8   8   8   8   8   8   8   8
#     4  11  22  36  54  80 124 181 227 253 291 353
#     4  10  22  37  62  89 118 157 206 262 308 374
#     4  10  23  39  64  92 126 153 197 262 323 393
#     4  11  25  37  55  86 125 176 218 259 300 368
#     4  11  24  34  55  81 126 169 221 264 302 347
#     4  10  21  36  55  85 120 162 205 249 313 348
#     4  10  22  44  71  96 118 149 195 265 350 411
#     4  11  22  35  55  82 125 178 225 251 290 349
#
# _framework density 20.365715000000002
#
# number of rings (size 3 to 8) (size 9 to 14) (size 15 to 20)
#    0.000    1.500    2.500    1.875   12.250    1.000 
#    0.000    0.000    0.000    1.500    0.000    0.000 
#    0.000    0.000    0.000    0.000    0.000    0.000 
#
# Total GULP energy -356719.002368 kJ/mol
# GULP energy per Si atom -5573.734412 kJ/mol
# Density = 2.031936 g / cm^3
# Si number density = 20.365715 Si / 1000 Ang^3
#
#
#
# Elastic Constant Matrix: (Units=GPa)
#
#
# Indices 1 2 3 4 5 6 
#
# 1 52.7704 8.2379 6.1532 0.0000 0.0000 0.0000
# 2 8.2379 91.7645 23.6477 0.0000 0.0000 0.0000
# 3 6.1532 23.6477 56.9565 0.0000 0.0000 0.0000
# 4 0.0000 0.0000 0.0000 11.0928 0.0000 0.0000
# 5 0.0000 0.0000 0.0000 0.0000 18.3560 0.0000
# 6 0.0000 0.0000 0.0000 0.0000 0.0000 28.1843
#
#
#
# Elastic Compliance Matrix: (Units=1/GPa)
#
#
# Indices 1 2 3 4 5 6 
#
# 1 0.019338 -0.001341 -0.001532 0.000000 0.000000 0.000000
# 2 -0.001341 0.012296 -0.004960 0.000000 0.000000 0.000000
# 3 -0.001532 -0.004960 0.019782 0.000000 0.000000 0.000000
# 4 0.000000 0.000000 0.000000 0.090149 0.000000 0.000000
# 5 0.000000 0.000000 0.000000 0.000000 0.054478 0.000000
# 6 0.000000 0.000000 0.000000 0.000000 0.000000 0.035481
#
#
# Mechanical properties :
#
#
# Convention : Reuss Voigt Hill
#
# Bulk Modulus (GPa) = 27.97292 30.84101 29.40697
# Shear Modulus (GPa) = 19.29697 22.42345 20.86021
#
# Velocity S-wave (km/s) = 3.08152 3.32179 3.20391
# Velocity P-wave (km/s) = 5.14064 5.46707 5.30637
#
# Compressibility (1/GPa) = 0.03574885
#
# Stress axis : x y z
#
# Youngs Moduli (GPa) = 51.71155 81.32638 50.55026
#
# Poissons Ratio (x) = 0.10907 0.07746
# Poissons Ratio (y) = 0.06935 0.25075
# Poissons Ratio (z) = 0.07924 0.40341
#
# Static dielectric constant tensor:
#      x y z
#    x 1.853730 0.000000 0.000000 
#    y 0.000000 1.813030 0.000000 
#    z 0.000000 0.000000 1.729490 
# 
# From -- ./inp_files/25041.got.cif
#   From: 2010.05.17/outbox.cif.g08.bks.cpg/sg60_13_cif.got.tgz:25041.got - 2010.06.03 14:59:27.
