data_PCOD9455127
_publ_section_title
;
Structure prediction by ZEFSAII (Michael W. Deem and Ramdas Pophale) SiO2 
 PCOD9455127
Probable space group: P B C N
;
_chemical_formula_sum "Si O2"
_cell_formula_units_Z 44
_cell_length_a 15.079448
_cell_length_b 7.295107
_cell_length_c 18.514829
_cell_angle_alpha 90.000000
_cell_angle_beta 90.000000
_cell_angle_gamma 90.000000
_cell_volume 2036.745735
_symmetry_space_group_name_H-M "P B C N"
_symmetry_group_IT_number 60
_symmetry_cell_setting 'orthorhombic'
loop_
_space_group_symop_operation_xyz
x,y,z
1/2-x,1/2-y,1/2+z
1/2+x,1/2-y,-z
-x,y,1/2-z
-x,-y,-z
1/2+x,1/2+y,1/2-z
1/2-x,1/2+y,z
x,-y,1/2+z
loop_
_atom_site_type_symbol
_atom_site_label
_atom_site_fract_x
_atom_site_fract_y
_atom_site_fract_z
Si Si1 0.040509 0.401506 0.320484
Si Si2 0.178657 0.425265 0.432827
Si Si3 0.440636 0.398550 0.104753
Si Si4 0.500000 0.557172 0.250000
Si Si5 0.370235 0.496737 0.961108
Si Si6 0.078625 0.490124 0.058955
O O1 0.120659 0.491835 0.364483
O O2 0.065810 0.201671 0.289876
O O3 0.000000 0.500888 0.250000
O O4 0.959976 0.367602 0.377028
O O5 0.283378 0.416761 0.425558
O O6 0.160693 0.543295 0.505899
O O7 0.139464 0.221782 0.446876
O O8 0.448288 0.450790 0.188105
O O9 0.539989 0.423670 0.072485
O O10 0.412510 0.188081 0.095882
O O11 0.380060 0.512601 0.048208
O O12 0.000000 0.500000 0.000000
#
# Coordination Sequence:
#
# PCOD9455127 Si02
#       6
#     8   8   8   4   8   8
#     4   9  19  36  57  84 117 153 191 243 307 367
#     4  10  20  36  57  89 112 151 202 251 299 348
#     4  10  21  38  59  83 117 165 195 244 309 374
#     4  10  20  36  62  78 120 154 202 234 308 388
#     4  10  21  36  59  85 114 149 207 249 293 349
#     4   9  20  35  58  86 112 151 205 245 299 358
#
# _framework density 21.603090999999999
#
# number of rings (size 3 to 8) (size 9 to 14) (size 15 to 20)
#    0.545    1.818    1.818    0.000    8.909    0.000 
#    0.000    1.818    4.000    0.000    0.000    0.000 
#    0.000    0.000    0.000    0.000    0.000    0.000 
#
# Total GULP energy -245087.113358 kJ/mol
# GULP energy per Si atom -5570.161667 kJ/mol
# Density = 2.155392 g / cm^3
# Si number density = 21.603091 Si / 1000 Ang^3
#
#
#
# Elastic Constant Matrix: (Units=GPa)
#
#
# Indices 1 2 3 4 5 6 
#
# 1 86.5209 -1.9213 29.1678 0.0000 0.0000 0.0000
# 2 -1.9213 45.1179 25.3843 0.0000 0.0000 0.0000
# 3 29.1678 25.3843 165.0002 0.0000 0.0000 0.0000
# 4 0.0000 0.0000 0.0000 35.1799 0.0000 0.0000
# 5 0.0000 0.0000 0.0000 0.0000 24.4965 0.0000
# 6 0.0000 0.0000 0.0000 0.0000 0.0000 21.7051
#
#
#
# Elastic Compliance Matrix: (Units=1/GPa)
#
#
# Indices 1 2 3 4 5 6 
#
# 1 0.012443 0.001935 -0.002497 0.000000 0.000000 0.000000
# 2 0.001935 0.024565 -0.004121 0.000000 0.000000 0.000000
# 3 -0.002497 -0.004121 0.007136 0.000000 0.000000 0.000000
# 4 0.000000 0.000000 0.000000 0.028425 0.000000 0.000000
# 5 0.000000 0.000000 0.000000 0.000000 0.040822 0.000000
# 6 0.000000 0.000000 0.000000 0.000000 0.000000 0.046072
#
#
# Mechanical properties :
#
#
# Convention : Reuss Voigt Hill
#
# Bulk Modulus (GPa) = 28.75479 44.65560 36.70520
# Shear Modulus (GPa) = 27.71263 32.54351 30.12807
#
# Velocity S-wave (km/s) = 3.58552 3.88548 3.73851
# Velocity P-wave (km/s) = 5.52093 6.39102 5.97184
#
# Compressibility (1/GPa) = 0.03477681
#
# Stress axis : x y z
#
# Youngs Moduli (GPa) = 80.36824 40.70794 140.13308
#
# Poissons Ratio (x) = -0.07876 0.34994
# Poissons Ratio (y) = -0.15550 0.57752
# Poissons Ratio (z) = 0.20070 0.16777
#
# Static dielectric constant tensor:
#      x y z
#    x 1.803890 0.000000 0.000000 
#    y 0.000000 1.930880 0.000000 
#    z 0.000000 0.000000 1.873080 
# 
# From -- ./inp_files/20429.got.cif
#   From: 2010.05.17/outbox.cif.g08.bks.cpg/sg60_11_cif.got.tgz:20429.got - 2010.06.03 14:59:27.
