data_PCOD9455532
_publ_section_title
;
Structure prediction by ZEFSAII (Michael W. Deem and Ramdas Pophale) SiO2 
 PCOD9455532
Probable space group: P B C N
;
_chemical_formula_sum "Si O2"
_cell_formula_units_Z 32
_cell_length_a 11.836743
_cell_length_b 11.939170
_cell_length_c 9.148346
_cell_angle_alpha 90.000000
_cell_angle_beta 90.000000
_cell_angle_gamma 90.000000
_cell_volume 1292.852371
_symmetry_space_group_name_H-M "P B C N"
_symmetry_group_IT_number 60
_symmetry_cell_setting 'orthorhombic'
loop_
_space_group_symop_operation_xyz
x,y,z
1/2-x,1/2-y,1/2+z
1/2+x,1/2-y,-z
-x,y,1/2-z
-x,-y,-z
1/2+x,1/2+y,1/2-z
1/2-x,1/2+y,z
x,-y,1/2+z
loop_
_atom_site_type_symbol
_atom_site_label
_atom_site_fract_x
_atom_site_fract_y
_atom_site_fract_z
Si Si1 0.381081 0.964444 0.071151
Si Si2 0.565644 0.760291 0.611291
Si Si3 0.755075 0.933589 0.144690
Si Si4 0.943860 0.899327 0.595226
O O1 0.366409 0.846847 0.987017
O O2 0.297954 0.062694 0.016217
O O3 0.345315 0.939245 0.236995
O O4 0.500000 0.000000 0.000000
O O5 0.500000 0.811123 0.750000
O O6 0.654164 0.665040 0.665287
O O7 0.468585 0.704806 0.509311
O O8 0.825050 0.049374 0.143138
O O9 0.000000 0.875472 0.750000
O O10 0.000000 0.000000 0.500000
#
# Coordination Sequence:
#
# PCOD9455532 Si02
#       4
#     8   8   8   8
#     4  12  27  45  64  98 141 177 218 278 341 402
#     4  11  24  44  70 101 134 175 229 288 343 404
#     4  11  23  44  69  94 129 180 226 270 334 408
#     4  10  20  39  68 101 131 168 226 286 334 400
#
# _framework density 24.751474999999999
#
# number of rings (size 3 to 8) (size 9 to 14) (size 15 to 20)
#    0.000    1.000    0.000    9.750    0.000   10.000 
#    0.000    0.000    0.000    0.000    0.000    0.000 
#    0.000    0.000    0.000    0.000    0.000    0.000 
#
# Total GULP energy -178606.533958 kJ/mol
# GULP energy per Si atom -5581.454186 kJ/mol
# Density = 2.469514 g / cm^3
# Si number density = 24.751475 Si / 1000 Ang^3
#
#
#
# Elastic Constant Matrix: (Units=GPa)
#
#
# Indices 1 2 3 4 5 6 
#
# 1 64.5360 21.5505 2.7900 0.0000 0.0000 0.0000
# 2 21.5505 66.0578 23.8547 0.0000 0.0000 0.0000
# 3 2.7900 23.8547 144.9317 0.0000 0.0000 0.0000
# 4 0.0000 0.0000 0.0000 31.5337 0.0000 0.0000
# 5 0.0000 0.0000 0.0000 0.0000 52.9136 0.0000
# 6 0.0000 0.0000 0.0000 0.0000 0.0000 39.9113
#
#
#
# Elastic Compliance Matrix: (Units=1/GPa)
#
#
# Indices 1 2 3 4 5 6 
#
# 1 0.017445 -0.005922 0.000639 0.000000 0.000000 0.000000
# 2 -0.005922 0.018105 -0.002866 0.000000 0.000000 0.000000
# 3 0.000639 -0.002866 0.007359 0.000000 0.000000 0.000000
# 4 0.000000 0.000000 0.000000 0.031712 0.000000 0.000000
# 5 0.000000 0.000000 0.000000 0.000000 0.018899 0.000000
# 6 0.000000 0.000000 0.000000 0.000000 0.000000 0.025056
#
#
# Mechanical properties :
#
#
# Convention : Reuss Voigt Hill
#
# Bulk Modulus (GPa) = 37.57784 41.32398 39.45091
# Shear Modulus (GPa) = 34.78396 40.02709 37.40553
#
# Velocity S-wave (km/s) = 3.75284 4.02576 3.89169
# Velocity P-wave (km/s) = 5.83039 6.19199 6.01391
#
# Compressibility (1/GPa) = 0.02661143
#
# Stress axis : x y z
#
# Youngs Moduli (GPa) = 57.32263 55.23286 135.88393
#
# Poissons Ratio (x) = 0.32709 -0.08681
# Poissons Ratio (y) = 0.33946 0.38944
# Poissons Ratio (z) = -0.03662 0.15830
#
# Static dielectric constant tensor:
#      x y z
#    x 1.996670 0.000000 0.000000 
#    y 0.000000 2.009320 0.000000 
#    z 0.000000 0.000000 1.995690 
# 
# From -- ./inp_files/4501.got.cif
#   From: 2010.05.17/outbox.cif.g08.bks.cpg/sg60_3_cif.got.tgz:4501.got - 2010.06.03 14:59:27.
