data_PCOD9455090
_publ_section_title
;
Structure prediction by ZEFSAII (Michael W. Deem and Ramdas Pophale) SiO2 
 PCOD9455090
Probable space group: P B C N
;
_chemical_formula_sum "Si O2"
_cell_formula_units_Z 56
_cell_length_a 7.361430
_cell_length_b 18.833229
_cell_length_c 19.766749
_cell_angle_alpha 90.000000
_cell_angle_beta 90.000000
_cell_angle_gamma 90.000000
_cell_volume 2740.452138
_symmetry_space_group_name_H-M "P B C N"
_symmetry_group_IT_number 60
_symmetry_cell_setting 'orthorhombic'
loop_
_space_group_symop_operation_xyz
x,y,z
1/2-x,1/2-y,1/2+z
1/2+x,1/2-y,-z
-x,y,1/2-z
-x,-y,-z
1/2+x,1/2+y,1/2-z
1/2-x,1/2+y,z
x,-y,1/2+z
loop_
_atom_site_type_symbol
_atom_site_label
_atom_site_fract_x
_atom_site_fract_y
_atom_site_fract_z
Si Si1 0.556374 0.821493 0.672459
Si Si2 0.451981 0.704744 0.924667
Si Si3 0.729166 0.923144 0.890179
Si Si4 0.001156 0.545415 0.569429
Si Si5 0.616750 0.437826 0.034013
Si Si6 0.484469 0.324556 0.828676
Si Si7 0.978852 0.290814 0.061626
O O1 0.500000 0.828463 0.750000
O O2 0.497535 0.745036 0.643388
O O3 0.769486 0.834627 0.660207
O O4 0.443751 0.877378 0.629693
O O5 0.233986 0.701669 0.923527
O O6 0.507555 0.623439 0.934585
O O7 0.502119 0.752098 0.989608
O O8 0.651458 0.003366 0.886713
O O9 0.787814 0.905678 0.966856
O O10 0.895861 0.894615 0.844746
O O11 0.000000 0.000000 0.000000
O O12 0.782334 0.541501 0.584452
O O13 0.050367 0.628415 0.562026
O O14 0.000000 0.500000 0.500000
O O15 0.500000 0.304367 0.750000
O O16 0.550621 0.262569 0.880043
#
# Coordination Sequence:
#
# PCOD9455090 Si02
#       7
#     8   8   8   8   8   8   8
#     4  11  23  40  64  92 127 170 218 274 325 393
#     4  10  20  35  62  93 125 163 216 264 327 388
#     4  11  22  41  61  90 129 172 214 258 334 387
#     4   9  20  37  57  90 133 165 203 265 333 385
#     4  10  21  37  61 100 132 169 215 272 331 397
#     4  11  23  41  67  95 124 169 228 270 321 395
#     4  10  21  37  62  93 125 164 213 271 323 383
#
# _framework density 20.434584999999998
#
# number of rings (size 3 to 8) (size 9 to 14) (size 15 to 20)
#    0.000    1.714    2.857    2.571    2.000    2.286 
#    0.000    0.714    0.000    4.286    0.000    0.000 
#    0.000    0.000    0.000    0.000    0.000    0.000 
#
# Total GULP energy -312127.916925 kJ/mol
# GULP energy per Si atom -5573.712802 kJ/mol
# Density = 2.038807 g / cm^3
# Si number density = 20.434585 Si / 1000 Ang^3
#
#
#
# Elastic Constant Matrix: (Units=GPa)
#
#
# Indices 1 2 3 4 5 6 
#
# 1 99.9702 38.4326 5.4505 0.0000 0.0000 0.0000
# 2 38.4326 120.5816 9.4534 0.0000 0.0000 0.0000
# 3 5.4505 9.4534 50.3397 0.0000 0.0000 0.0000
# 4 0.0000 0.0000 0.0000 18.6004 0.0000 0.0000
# 5 0.0000 0.0000 0.0000 0.0000 17.8951 0.0000
# 6 0.0000 0.0000 0.0000 0.0000 0.0000 21.1587
#
#
#
# Elastic Compliance Matrix: (Units=1/GPa)
#
#
# Indices 1 2 3 4 5 6 
#
# 1 0.011415 -0.003594 -0.000561 0.000000 0.000000 0.000000
# 2 -0.003594 0.009549 -0.001404 0.000000 0.000000 0.000000
# 3 -0.000561 -0.001404 0.020189 0.000000 0.000000 0.000000
# 4 0.000000 0.000000 0.000000 0.053762 0.000000 0.000000
# 5 0.000000 0.000000 0.000000 0.000000 0.055881 0.000000
# 6 0.000000 0.000000 0.000000 0.000000 0.000000 0.047262
#
#
# Mechanical properties :
#
#
# Convention : Reuss Voigt Hill
#
# Bulk Modulus (GPa) = 33.29466 41.95162 37.62314
# Shear Modulus (GPa) = 22.81130 26.03450 24.42290
#
# Velocity S-wave (km/s) = 3.34474 3.57324 3.46088
# Velocity P-wave (km/s) = 5.58973 6.13175 5.86700
#
# Compressibility (1/GPa) = 0.03003485
#
# Stress axis : x y z
#
# Youngs Moduli (GPa) = 87.60092 104.72473 49.53080
#
# Poissons Ratio (x) = 0.37642 0.02779
# Poissons Ratio (y) = 0.31487 0.06954
# Poissons Ratio (z) = 0.04914 0.14703
#
# Static dielectric constant tensor:
#      x y z
#    x 1.834320 0.000000 0.000000 
#    y 0.000000 1.815260 0.000000 
#    z 0.000000 0.000000 1.720890 
# 
# From -- ./inp_files/19737.got.cif
#   From: 2010.05.17/outbox.cif.g08.bks.cpg/sg60_10_cif.got.tgz:19737.got - 2010.06.03 14:59:27.
