data_PCOD9455143
_publ_section_title
;
Structure prediction by ZEFSAII (Michael W. Deem and Ramdas Pophale) SiO2 
 PCOD9455143
Probable space group: P B C N
;
_chemical_formula_sum "Si O2"
_cell_formula_units_Z 56
_cell_length_a 19.751971
_cell_length_b 9.349004
_cell_length_c 15.457647
_cell_angle_alpha 90.000000
_cell_angle_beta 90.000000
_cell_angle_gamma 90.000000
_cell_volume 2854.428508
_symmetry_space_group_name_H-M "P B C N"
_symmetry_group_IT_number 60
_symmetry_cell_setting 'orthorhombic'
loop_
_space_group_symop_operation_xyz
x,y,z
1/2-x,1/2-y,1/2+z
1/2+x,1/2-y,-z
-x,y,1/2-z
-x,-y,-z
1/2+x,1/2+y,1/2-z
1/2-x,1/2+y,z
x,-y,1/2+z
loop_
_atom_site_type_symbol
_atom_site_label
_atom_site_fract_x
_atom_site_fract_y
_atom_site_fract_z
Si Si1 0.259772 0.475511 0.354323
Si Si2 0.809955 0.869925 0.910314
Si Si3 0.299813 0.937481 0.035786
Si Si4 0.969152 0.165613 0.155673
Si Si5 0.451455 0.129900 0.525023
Si Si6 0.100451 0.101531 0.932806
Si Si7 0.172471 0.752238 0.776589
O O1 0.218983 0.494736 0.443584
O O2 0.332157 0.398084 0.372840
O O3 0.280705 0.631233 0.323193
O O4 0.212649 0.393910 0.287087
O O5 0.782430 0.730335 0.960800
O O6 0.836765 0.809865 0.820279
O O7 0.749003 0.979463 0.899116
O O8 0.867936 0.935717 0.972126
O O9 0.379625 0.938487 0.052625
O O10 0.898892 0.247370 0.175115
O O11 0.000000 0.131000 0.250000
O O12 0.015688 0.270641 0.099113
O O13 0.949072 0.020862 0.103583
O O14 0.433424 0.243530 0.448056
O O15 0.500000 0.000000 0.500000
#
# Coordination Sequence:
#
# PCOD9455143 Si02
#       7
#     8   8   8   8   8   8   8
#     4  10  20  36  59  82 111 144 187 243 289 334
#     4  10  20  36  60  86 114 144 190 245 289 346
#     4  10  20  37  57  83 112 149 190 233 289 347
#     4  11  23  39  59  82 116 159 199 238 285 350
#     4  11  22  37  58  85 119 156 192 237 296 364
#     4   9  21  40  59  81 110 154 201 236 283 350
#     4  11  21  35  56  85 112 144 185 238 294 335
#
# _framework density 19.618638000000001
#
# number of rings (size 3 to 8) (size 9 to 14) (size 15 to 20)
#    0.000    1.714    0.000    6.429    0.000    2.286 
#    0.000    3.571    0.000    1.714    0.000    0.000 
#    0.000    0.000    0.000    0.000    0.000    0.000 
#
# Total GULP energy -312431.479091 kJ/mol
# GULP energy per Si atom -5579.133555 kJ/mol
# Density = 1.957399 g / cm^3
# Si number density = 19.618638 Si / 1000 Ang^3
#
#
#
# Elastic Constant Matrix: (Units=GPa)
#
#
# Indices 1 2 3 4 5 6 
#
# 1 121.4685 66.2551 28.0186 0.0000 0.0000 0.0000
# 2 66.2551 79.4254 22.9905 0.0000 0.0000 0.0000
# 3 28.0186 22.9905 70.3932 0.0000 0.0000 0.0000
# 4 0.0000 0.0000 0.0000 26.5477 0.0000 0.0000
# 5 0.0000 0.0000 0.0000 0.0000 26.0079 0.0000
# 6 0.0000 0.0000 0.0000 0.0000 0.0000 45.5494
#
#
#
# Elastic Compliance Matrix: (Units=1/GPa)
#
#
# Indices 1 2 3 4 5 6 
#
# 1 0.015391 -0.012221 -0.002135 0.000000 0.000000 0.000000
# 2 -0.012221 0.023609 -0.002846 0.000000 0.000000 0.000000
# 3 -0.002135 -0.002846 0.015985 0.000000 0.000000 0.000000
# 4 0.000000 0.000000 0.000000 0.037668 0.000000 0.000000
# 5 0.000000 0.000000 0.000000 0.000000 0.038450 0.000000
# 6 0.000000 0.000000 0.000000 0.000000 0.000000 0.021954
#
#
# Mechanical properties :
#
#
# Convention : Reuss Voigt Hill
#
# Bulk Modulus (GPa) = 48.58853 56.20175 52.39514
# Shear Modulus (GPa) = 25.73062 29.88921 27.80992
#
# Velocity S-wave (km/s) = 3.62545 3.90745 3.76909
# Velocity P-wave (km/s) = 6.50734 7.00478 6.76063
#
# Compressibility (1/GPa) = 0.02058099
#
# Stress axis : x y z
#
# Youngs Moduli (GPa) = 64.97361 42.35716 62.55783
#
# Poissons Ratio (x) = 0.51764 0.13354
# Poissons Ratio (y) = 0.79403 0.17806
# Poissons Ratio (z) = 0.13870 0.12056
#
# Static dielectric constant tensor:
#      x y z
#    x 1.713410 0.000000 0.000000 
#    y 0.000000 1.677720 0.000000 
#    z 0.000000 0.000000 1.735310 
# 
# From -- ./inp_files/17709.got.cif
#   From: 2010.05.17/outbox.cif.g08.bks.cpg/sg60_9_cif.got.tgz:17709.got - 2010.06.03 14:59:27.
