data_PCOD9455270
_publ_section_title
;
Structure prediction by ZEFSAII (Michael W. Deem and Ramdas Pophale) SiO2 
 PCOD9455270
Probable space group: P B C N
;
_chemical_formula_sum "Si O2"
_cell_formula_units_Z 36
_cell_length_a 14.048078
_cell_length_b 15.534927
_cell_length_c 8.805147
_cell_angle_alpha 90.000000
_cell_angle_beta 90.000000
_cell_angle_gamma 90.000000
_cell_volume 1921.598883
_symmetry_space_group_name_H-M "P B C N"
_symmetry_group_IT_number 60
_symmetry_cell_setting 'orthorhombic'
loop_
_space_group_symop_operation_xyz
x,y,z
1/2-x,1/2-y,1/2+z
1/2+x,1/2-y,-z
-x,y,1/2-z
-x,-y,-z
1/2+x,1/2+y,1/2-z
1/2-x,1/2+y,z
x,-y,1/2+z
loop_
_atom_site_type_symbol
_atom_site_label
_atom_site_fract_x
_atom_site_fract_y
_atom_site_fract_z
Si Si1 0.403435 0.044279 0.340512
Si Si2 0.819829 0.610458 0.463059
Si Si3 0.500000 0.504694 0.750000
Si Si4 0.901519 0.115616 0.489917
Si Si5 0.000779 0.287905 0.932492
O O1 0.500000 0.017901 0.250000
O O2 0.333353 0.080301 0.211412
O O3 0.437497 0.124204 0.445202
O O4 0.357540 0.967648 0.433277
O O5 0.711063 0.629871 0.496994
O O6 0.893943 0.688823 0.482567
O O7 0.431246 0.444064 0.651062
O O8 0.439300 0.564353 0.862771
O O9 0.954668 0.206936 0.485146
O O10 0.000000 0.271026 0.750000
#
# Coordination Sequence:
#
# PCOD9455270 Si02
#       5
#     8   8   4   8   8
#     4   9  18  37  59  86 119 146 186 244 290 334
#     4  10  20  37  62  86 114 156 190 231 296 343
#     4  10  24  40  62  76 124 152 192 244 288 336
#     4  11  21  43  58  86 114 157 195 238 287 347
#     4   9  19  39  58  83 121 147 185 243 287 331
#
# _framework density 18.734397000000001
#
# number of rings (size 3 to 8) (size 9 to 14) (size 15 to 20)
#    0.000    2.667    1.111    4.000    0.000    0.000 
#   22.000    0.000    0.000    0.000    0.000    0.000 
#    0.000    0.000    0.000    0.000    0.000    0.000 
#
# Total GULP energy -200914.062172 kJ/mol
# GULP energy per Si atom -5580.946171 kJ/mol
# Density = 1.869176 g / cm^3
# Si number density = 18.734397 Si / 1000 Ang^3
#
#
#
# Elastic Constant Matrix: (Units=GPa)
#
#
# Indices 1 2 3 4 5 6 
#
# 1 162.3645 89.3702 37.3051 0.0000 0.0000 0.0000
# 2 89.3702 113.9840 35.4337 0.0000 0.0000 0.0000
# 3 37.3051 35.4337 43.1792 0.0000 0.0000 0.0000
# 4 0.0000 0.0000 0.0000 4.2003 0.0000 0.0000
# 5 0.0000 0.0000 0.0000 0.0000 12.6379 0.0000
# 6 0.0000 0.0000 0.0000 0.0000 0.0000 14.0141
#
#
#
# Elastic Compliance Matrix: (Units=1/GPa)
#
#
# Indices 1 2 3 4 5 6 
#
# 1 0.011176 -0.007734 -0.003309 0.000000 0.000000 0.000000
# 2 -0.007734 0.017130 -0.007375 0.000000 0.000000 0.000000
# 3 -0.003309 -0.007375 0.032070 0.000000 0.000000 0.000000
# 4 0.000000 0.000000 0.000000 0.238076 0.000000 0.000000
# 5 0.000000 0.000000 0.000000 0.000000 0.079127 0.000000
# 6 0.000000 0.000000 0.000000 0.000000 0.000000 0.071357
#
#
# Mechanical properties :
#
#
# Convention : Reuss Voigt Hill
#
# Bulk Modulus (GPa) = 42.48114 71.52728 57.00421
# Shear Modulus (GPa) = 10.12926 16.66506 13.39716
#
# Velocity S-wave (km/s) = 2.32777 2.98576 2.67706
# Velocity P-wave (km/s) = 5.47260 7.08159 6.32844
#
# Compressibility (1/GPa) = 0.02353986
#
# Stress axis : x y z
#
# Youngs Moduli (GPa) = 89.47351 58.37712 31.18149
#
# Poissons Ratio (x) = 0.45151 0.10318
# Poissons Ratio (y) = 0.69202 0.22997
# Poissons Ratio (z) = 0.29607 0.43053
#
# Static dielectric constant tensor:
#      x y z
#    x 1.629760 0.000000 0.000000 
#    y 0.000000 1.642590 0.000000 
#    z 0.000000 0.000000 1.665090 
# 
# From -- ./inp_files/5613.got.cif
#   From: 2010.05.17/outbox.cif.g08.bks.cpg/sg60_3_cif.got.tgz:5613.got - 2010.06.03 14:59:27.
