data_PCOD9455169
_publ_section_title
;
Structure prediction by ZEFSAII (Michael W. Deem and Ramdas Pophale) SiO2 
 PCOD9455169
Probable space group: P B C N
;
_chemical_formula_sum "Si O2"
_cell_formula_units_Z 40
_cell_length_a 26.758920
_cell_length_b 16.656733
_cell_length_c 5.271452
_cell_angle_alpha 90.000000
_cell_angle_beta 90.000000
_cell_angle_gamma 90.000000
_cell_volume 2349.571479
_symmetry_space_group_name_H-M "P B C N"
_symmetry_group_IT_number 60
_symmetry_cell_setting 'orthorhombic'
loop_
_space_group_symop_operation_xyz
x,y,z
1/2-x,1/2-y,1/2+z
1/2+x,1/2-y,-z
-x,y,1/2-z
-x,-y,-z
1/2+x,1/2+y,1/2-z
1/2-x,1/2+y,z
x,-y,1/2+z
loop_
_atom_site_type_symbol
_atom_site_label
_atom_site_fract_x
_atom_site_fract_y
_atom_site_fract_z
Si Si1 0.389810 0.200672 0.781549
Si Si2 0.560869 0.452874 0.250464
Si Si3 0.675800 0.946775 0.273085
Si Si4 0.059671 0.233945 0.781107
Si Si5 0.722907 0.781393 0.245897
O O1 0.374448 0.107454 0.747410
O O2 0.423466 0.231315 0.551136
O O3 0.335477 0.243646 0.767429
O O4 0.414497 0.218759 0.050892
O O5 0.500000 0.454174 0.250000
O O6 0.577571 0.496895 0.506115
O O7 0.575057 0.359710 0.236942
O O8 0.718579 0.878347 0.255612
O O9 0.678326 0.993222 0.537301
O O10 0.000000 0.238204 0.750000
O O11 0.748469 0.748001 0.497702
#
# Coordination Sequence:
#
# PCOD9455169 Si02
#       5
#     8   8   8   8   8
#     4  10  22  34  59  84 112 149 188 240 272 339
#     4   9  17  29  48  72  99 139 190 230 263 319
#     4  10  20  36  61  86 109 145 191 228 269 343
#     4  11  20  35  55  82 114 153 197 236 278 328
#     4  10  20  36  61  86 109 140 180 236 279 337
#
# _framework density 17.024380000000001
#
# number of rings (size 3 to 8) (size 9 to 14) (size 15 to 20)
#    1.200    0.800    0.000    5.400    0.000    3.200 
#    0.000    0.000    0.000   36.000    0.000    0.000 
#    0.000    0.000    0.000    0.000    0.000    0.000 
#
# Total GULP energy -222845.304317 kJ/mol
# GULP energy per Si atom -5571.132608 kJ/mol
# Density = 1.698563 g / cm^3
# Si number density = 17.024380 Si / 1000 Ang^3
#
#
#
# Elastic Constant Matrix: (Units=GPa)
#
#
# Indices 1 2 3 4 5 6 
#
# 1 17.7701 31.9493 -8.5321 0.0000 0.0000 0.0000
# 2 31.9493 2.6323 -16.4005 0.0000 0.0000 0.0000
# 3 -8.5321 -16.4005 55.5371 0.0000 0.0000 0.0000
# 4 0.0000 0.0000 0.0000 40.3301 0.0000 0.0000
# 5 0.0000 0.0000 0.0000 0.0000 31.8539 0.0000
# 6 0.0000 0.0000 0.0000 0.0000 0.0000 24.1294
#
#
#
# Elastic Compliance Matrix: (Units=1/GPa)
#
#
# Indices 1 2 3 4 5 6 
#
# 1 0.002450 0.032609 0.010006 0.000000 0.000000 0.000000
# 2 0.032609 -0.018238 -0.000376 0.000000 0.000000 0.000000
# 3 0.010006 -0.000376 0.019432 0.000000 0.000000 0.000000
# 4 0.000000 0.000000 0.000000 0.024795 0.000000 0.000000
# 5 0.000000 0.000000 0.000000 0.000000 0.031393 0.000000
# 6 0.000000 0.000000 0.000000 0.000000 0.000000 0.041443
#
#
# Mechanical properties :
#
#
# Convention : Reuss Voigt Hill
#
# Bulk Modulus (GPa) = 11.34777 9.99699 10.67238
# Shear Modulus (GPa) = 108.29098 23.85754 66.07426
#
# Velocity S-wave (km/s) = 7.98420 3.74756 6.23665
# Velocity P-wave (km/s) = 9.57479 4.96089 7.62519
#
# Compressibility (1/GPa) = 0.08812301
#
# Stress axis : x y z
#
# Youngs Moduli (GPa) = 408.20598 -54.83188 51.46104
#
# Poissons Ratio (x) = 1.78802 -0.51492
# Poissons Ratio (y) = -13.31128 0.01935
# Poissons Ratio (z) = -4.08453 -0.02061
#
# Static dielectric constant tensor:
#      x y z
#    x 1.572750 0.000000 0.000000 
#    y 0.000000 1.573490 0.000000 
#    z 0.000000 0.000000 1.548280 
# 
# From -- ./inp_files/2300.got.cif
#   From: 2010.05.17/outbox.cif.g08.bks.cpg/sg60_2_cif.got.tgz:2300.got - 2010.06.03 14:59:27.
