data_PCOD9455323
_publ_section_title
;
Structure prediction by ZEFSAII (Michael W. Deem and Ramdas Pophale) SiO2 
 PCOD9455323
Probable space group: P B C N
;
_chemical_formula_sum "Si O2"
_cell_formula_units_Z 60
_cell_length_a 10.318404
_cell_length_b 16.007847
_cell_length_c 18.800644
_cell_angle_alpha 90.000000
_cell_angle_beta 90.000000
_cell_angle_gamma 90.000000
_cell_volume 3105.404504
_symmetry_space_group_name_H-M "P B C N"
_symmetry_group_IT_number 60
_symmetry_cell_setting 'orthorhombic'
loop_
_space_group_symop_operation_xyz
x,y,z
1/2-x,1/2-y,1/2+z
1/2+x,1/2-y,-z
-x,y,1/2-z
-x,-y,-z
1/2+x,1/2+y,1/2-z
1/2-x,1/2+y,z
x,-y,1/2+z
loop_
_atom_site_type_symbol
_atom_site_label
_atom_site_fract_x
_atom_site_fract_y
_atom_site_fract_z
Si Si1 0.096814 0.015490 0.307614
Si Si2 0.128244 0.783355 0.102425
Si Si3 0.276255 0.356277 0.248758
Si Si4 0.086425 0.032931 0.566328
Si Si5 0.167822 0.213802 0.905166
Si Si6 0.901925 0.178537 0.119308
Si Si7 0.322104 0.362045 0.550802
Si Si8 0.500000 0.791868 0.250000
O O1 0.155923 0.092471 0.349680
O O2 0.000000 0.054642 0.250000
O O3 0.008598 0.967258 0.365301
O O4 0.184217 0.951607 0.263961
O O5 0.149270 0.810391 0.184817
O O6 0.226060 0.708486 0.082245
O O7 0.979856 0.755448 0.089298
O O8 0.142701 0.873557 0.062132
O O9 0.309196 0.314098 0.324302
O O10 0.125240 0.346289 0.231022
O O11 0.000000 0.000000 0.500000
O O12 0.191367 0.958292 0.575688
O O13 0.284954 0.276821 0.920449
O O14 0.184868 0.143349 0.965378
O O15 0.031441 0.161249 0.074616
O O16 0.953372 0.235460 0.184221
#
# Coordination Sequence:
#
# PCOD9455323 Si02
#       8
#     8   8   8   8   8   8   8   4
#     4  11  19  35  62  89 117 161 210 257 305 378
#     4  12  22  40  68  95 127 168 218 269 326 376
#     4  11  21  39  62  91 126 168 211 264 325 385
#     4  11  22  39  62  97 126 166 216 263 314 392
#     4  11  22  38  62  91 129 164 210 266 319 383
#     4  10  22  37  62  89 122 165 215 255 317 387
#     4  11  23  40  64  96 127 170 216 266 324 388
#     4  10  20  38  58  84 120 164 202 254 320 378
#
# _framework density 19.321155000000001
#
# number of rings (size 3 to 8) (size 9 to 14) (size 15 to 20)
#    0.000    1.067    6.000    1.200    1.867    0.000 
#    0.000    1.333    0.000    1.600    0.000    0.000 
#    0.000    0.000    0.000    0.000    0.000    0.000 
#
# Total GULP energy -334526.043815 kJ/mol
# GULP energy per Si atom -5575.434064 kJ/mol
# Density = 1.927718 g / cm^3
# Si number density = 19.321155 Si / 1000 Ang^3
#
#
#
# Elastic Constant Matrix: (Units=GPa)
#
#
# Indices 1 2 3 4 5 6 
#
# 1 102.9871 57.8833 11.4959 0.0000 0.0000 0.0000
# 2 57.8833 117.9191 21.5468 0.0000 0.0000 0.0000
# 3 11.4959 21.5468 86.3162 0.0000 0.0000 0.0000
# 4 0.0000 0.0000 0.0000 35.2289 0.0000 0.0000
# 5 0.0000 0.0000 0.0000 0.0000 22.1853 0.0000
# 6 0.0000 0.0000 0.0000 0.0000 0.0000 28.7171
#
#
#
# Elastic Compliance Matrix: (Units=1/GPa)
#
#
# Indices 1 2 3 4 5 6 
#
# 1 0.013411 -0.006556 -0.000150 0.000000 0.000000 0.000000
# 2 -0.006556 0.012090 -0.002145 0.000000 0.000000 0.000000
# 3 -0.000150 -0.002145 0.012141 0.000000 0.000000 0.000000
# 4 0.000000 0.000000 0.000000 0.028386 0.000000 0.000000
# 5 0.000000 0.000000 0.000000 0.000000 0.045075 0.000000
# 6 0.000000 0.000000 0.000000 0.000000 0.000000 0.034822
#
#
# Mechanical properties :
#
#
# Convention : Reuss Voigt Hill
#
# Bulk Modulus (GPa) = 50.14680 54.34160 52.24420
# Shear Modulus (GPa) = 29.36448 31.64604 30.50526
#
# Velocity S-wave (km/s) = 3.90270 4.05148 3.97779
# Velocity P-wave (km/s) = 6.80579 7.07619 6.94231
#
# Compressibility (1/GPa) = 0.01994145
#
# Stress axis : x y z
#
# Youngs Moduli (GPa) = 74.56352 82.70984 82.36775
#
# Poissons Ratio (x) = 0.54224 0.01233
# Poissons Ratio (y) = 0.48883 0.17668
# Poissons Ratio (z) = 0.01116 0.17741
#
# Static dielectric constant tensor:
#      x y z
#    x 1.673590 0.000000 0.000000 
#    y 0.000000 1.722040 0.000000 
#    z 0.000000 0.000000 1.726670 
# 
# From -- ./inp_files/22728.got.cif
#   From: 2010.05.17/outbox.cif.g08.bks.cpg/sg60_12_cif.got.tgz:22728.got - 2010.06.03 14:59:27.
