data_PCOD9455865
_publ_section_title
;
Structure prediction by ZEFSAII (Michael W. Deem and Ramdas Pophale) SiO2 
 PCOD9455865
Probable space group: P B C N
;
_chemical_formula_sum "Si O2"
_cell_formula_units_Z 48
_cell_length_a 7.219519
_cell_length_b 10.940685
_cell_length_c 22.657649
_cell_angle_alpha 90.000000
_cell_angle_beta 90.000000
_cell_angle_gamma 90.000000
_cell_volume 1789.648013
_symmetry_space_group_name_H-M "P B C N"
_symmetry_group_IT_number 60
_symmetry_cell_setting 'orthorhombic'
loop_
_space_group_symop_operation_xyz
x,y,z
1/2-x,1/2-y,1/2+z
1/2+x,1/2-y,-z
-x,y,1/2-z
-x,-y,-z
1/2+x,1/2+y,1/2-z
1/2-x,1/2+y,z
x,-y,1/2+z
loop_
_atom_site_type_symbol
_atom_site_label
_atom_site_fract_x
_atom_site_fract_y
_atom_site_fract_z
Si Si1 0.500000 0.419634 0.750000
Si Si2 0.119406 0.372771 0.071675
Si Si3 0.782128 0.880637 0.312966
Si Si4 0.000000 0.679362 0.250000
Si Si5 0.770399 0.371186 0.981674
Si Si6 0.123091 0.118595 0.903904
Si Si7 0.746518 0.128920 0.148768
O O1 0.673262 0.504655 0.771144
O O2 0.575506 0.357488 0.691294
O O3 0.108602 0.373839 0.143343
O O4 0.943797 0.363237 0.027286
O O5 0.236830 0.250274 0.056109
O O6 0.202414 0.506383 0.055771
O O7 0.829441 0.766036 0.271314
O O8 0.950405 0.885435 0.360062
O O9 0.929732 0.614628 0.191659
O O10 0.597643 0.382481 0.026250
O O11 0.216098 0.248743 0.888202
O O12 0.229429 0.992545 0.889274
#
# Coordination Sequence:
#
# PCOD9455865 Si02
#       7
#     4   8   8   4   8   8   8
#     4   9  20  37  58  90 124 158 210 258 312 378
#     4  11  25  42  65  93 125 165 210 258 317 378
#     4   9  20  40  61  84 122 168 202 249 314 375
#     4   9  20  37  58  86 122 156 200 254 306 366
#     4  11  25  43  63  95 128 163 213 262 311 381
#     4  10  21  38  59  84 119 160 202 251 311 367
#     4  10  21  36  58  85 117 160 202 254 312 367
#
# _framework density 26.820916
#
# number of rings (size 3 to 8) (size 9 to 14) (size 15 to 20)
#    0.000    2.000    0.000    3.000    0.000   14.000 
#    0.000    0.000    0.000    0.000    0.000    0.000 
#    0.000    0.000    0.000    0.000    0.000    0.000 
#
# Total GULP energy -268560.595808 kJ/mol
# GULP energy per Si atom -5595.012413 kJ/mol
# Density = 2.675987 g / cm^3
# Si number density = 26.820916 Si / 1000 Ang^3
#
#
#
# Elastic Constant Matrix: (Units=GPa)
#
#
# Indices 1 2 3 4 5 6 
#
# 1 35.1232 40.0596 0.4150 0.0000 0.0000 0.0000
# 2 40.0596 202.1989 66.0673 0.0000 0.0000 0.0000
# 3 0.4150 66.0673 111.1806 0.0000 0.0000 0.0000
# 4 0.0000 0.0000 0.0000 56.1283 0.0000 0.0000
# 5 0.0000 0.0000 0.0000 0.0000 47.5982 0.0000
# 6 0.0000 0.0000 0.0000 0.0000 0.0000 27.9320
#
#
#
# Elastic Compliance Matrix: (Units=1/GPa)
#
#
# Indices 1 2 3 4 5 6 
#
# 1 0.039380 -0.009622 0.005571 0.000000 0.000000 0.000000
# 2 -0.009622 0.008488 -0.005008 0.000000 0.000000 0.000000
# 3 0.005571 -0.005008 0.011950 0.000000 0.000000 0.000000
# 4 0.000000 0.000000 0.000000 0.017816 0.000000 0.000000
# 5 0.000000 0.000000 0.000000 0.000000 0.021009 0.000000
# 6 0.000000 0.000000 0.000000 0.000000 0.000000 0.035801
#
#
# Mechanical properties :
#
#
# Convention : Reuss Voigt Hill
#
# Bulk Modulus (GPa) = 23.98148 62.39849 43.18998
# Shear Modulus (GPa) = 30.03668 42.46242 36.24955
#
# Velocity S-wave (km/s) = 3.35012 3.98324 3.68032
# Velocity P-wave (km/s) = 4.89133 6.66861 5.84788
#
# Compressibility (1/GPa) = 0.04169884
#
# Stress axis : x y z
#
# Youngs Moduli (GPa) = 25.39368 117.80865 83.68489
#
# Poissons Ratio (x) = 1.13357 -0.46619
# Poissons Ratio (y) = 0.24434 0.41911
# Poissons Ratio (z) = -0.14146 0.59000
#
# Static dielectric constant tensor:
#      x y z
#    x 2.339360 0.000000 0.000000 
#    y 0.000000 2.022420 0.000000 
#    z 0.000000 0.000000 1.953740 
# 
# From -- ./inp_files/25155.got.cif
#   From: 2010.05.17/outbox.cif.g08.bks.cpg/sg60_13_cif.got.tgz:25155.got - 2010.06.03 14:59:27.
