data_PCOD9455215
_publ_section_title
;
Structure prediction by ZEFSAII (Michael W. Deem and Ramdas Pophale) SiO2 
 PCOD9455215
Probable space group: P B C N
;
_chemical_formula_sum "Si O2"
_cell_formula_units_Z 64
_cell_length_a 8.441734
_cell_length_b 23.480200
_cell_length_c 16.685409
_cell_angle_alpha 90.000000
_cell_angle_beta 90.000000
_cell_angle_gamma 90.000000
_cell_volume 3307.275030
_symmetry_space_group_name_H-M "P B C N"
_symmetry_group_IT_number 60
_symmetry_cell_setting 'orthorhombic'
loop_
_space_group_symop_operation_xyz
x,y,z
1/2-x,1/2-y,1/2+z
1/2+x,1/2-y,-z
-x,y,1/2-z
-x,-y,-z
1/2+x,1/2+y,1/2-z
1/2-x,1/2+y,z
x,-y,1/2+z
loop_
_atom_site_type_symbol
_atom_site_label
_atom_site_fract_x
_atom_site_fract_y
_atom_site_fract_z
Si Si1 0.809529 0.666697 0.939354
Si Si2 0.308148 0.963622 0.420860
Si Si3 0.809927 0.279760 0.892937
Si Si4 0.691852 0.963622 0.420860
Si Si5 0.690126 0.864070 0.750000
Si Si6 0.314696 0.510066 0.250000
Si Si7 0.190073 0.279760 0.892937
Si Si8 0.809528 0.333303 0.060646
O O1 0.757854 0.716698 0.879279
O O2 0.753902 0.602274 0.926961
O O3 0.000000 0.664584 0.940890
O O4 0.751995 0.691865 0.024340
O O5 0.500000 0.964557 0.422505
O O6 0.253901 0.897726 0.426962
O O7 0.256293 0.000000 0.500000
O O8 0.256568 0.986993 0.333990
O O9 0.771648 0.325081 0.825475
O O10 1.000000 0.274383 0.897119
O O11 0.751994 0.308135 0.975659
O O12 0.743431 0.986993 0.333989
O O13 0.500000 0.876069 0.750000
O O14 0.781292 0.922770 0.750000
O O15 0.728352 0.825081 0.674524
O O16 0.500000 0.497268 0.250000
O O17 0.257853 0.216698 0.879280
#
# Coordination Sequence:
#
# PCOD9455215 Si02
#       8
#     8   8   8   8   8   8   8   8
#     4   9  18  33  54  80 108 141 182 226 276 332
#     4  10  21  40  64  85 113 157 201 237 278 339
#     4   9  18  33  55  81 107 138 177 226 281 335
#     4  10  21  40  64  85 113 157 201 237 278 339
#     4  10  20  37  58  77 103 142 188 230 275 338
#     4  12  26  39  56  87 121 150 188 242 297 344
#     4   9  18  33  55  81 107 138 177 226 281 335
#     4   9  18  33  54  80 108 141 182 226 276 332
#
# _framework density 19.351279000000002
#
# number of rings (size 3 to 8) (size 9 to 14) (size 15 to 20)
#    0.000    2.250    0.000    2.625    0.000    7.500 
#    0.000    7.500    0.000    0.000    0.000    0.000 
#    0.000    0.000    0.000    0.000    0.000    0.000 
#
# Total GULP energy -356829.311100 kJ/mol
# GULP energy per Si atom -5575.457986 kJ/mol
# Density = 1.930723 g / cm^3
# Si number density = 19.351279 Si / 1000 Ang^3
#
#
#
# Elastic Constant Matrix: (Units=GPa)
#
#
# Indices 1 2 3 4 5 6 
#
# 1 9.9811 27.9826 18.8743 0.0000 0.0000 0.0000
# 2 27.9826 180.5171 66.4491 0.0000 0.0000 0.0000
# 3 18.8743 66.4491 102.6866 0.0000 0.0000 0.0000
# 4 0.0000 0.0000 0.0000 10.2036 0.0000 0.0000
# 5 0.0000 0.0000 0.0000 0.0000 15.0906 0.0000
# 6 0.0000 0.0000 0.0000 0.0000 0.0000 30.8646
#
#
#
# Elastic Compliance Matrix: (Units=1/GPa)
#
#
# Indices 1 2 3 4 5 6 
#
# 1 0.212600 -0.024379 -0.023301 0.000000 0.000000 0.000000
# 2 -0.024379 0.010067 -0.002034 0.000000 0.000000 0.000000
# 3 -0.023301 -0.002034 0.015337 0.000000 0.000000 0.000000
# 4 0.000000 0.000000 0.000000 0.098004 0.000000 0.000000
# 5 0.000000 0.000000 0.000000 0.000000 0.066266 0.000000
# 6 0.000000 0.000000 0.000000 0.000000 0.000000 0.032400
#
#
# Mechanical properties :
#
#
# Convention : Reuss Voigt Hill
#
# Bulk Modulus (GPa) = 7.21618 57.75521 32.48569
# Shear Modulus (GPa) = 8.61632 23.22370 15.92001
#
# Velocity S-wave (km/s) = 2.11240 3.46802 2.87136
# Velocity P-wave (km/s) = 3.11236 6.77840 5.27416
#
# Compressibility (1/GPa) = 0.13857746
#
# Stress axis : x y z
#
# Youngs Moduli (GPa) = 4.70367 99.33170 65.20073
#
# Poissons Ratio (x) = 2.42157 1.51926
# Poissons Ratio (y) = 0.11467 0.13260
# Poissons Ratio (z) = 0.10960 0.20201
#
# Static dielectric constant tensor:
#      x y z
#    x 1.675230 0.000000 0.000000 
#    y 0.000000 1.670840 0.000000 
#    z 0.000000 0.000000 1.709720 
# 
# From -- ./inp_files/19707.got.cif
#   From: 2010.05.17/outbox.cif.g08.bks.cpg/sg60_10_cif.got.tgz:19707.got - 2010.06.03 14:59:27.
