data_PCOD9455320
_publ_section_title
;
Structure prediction by ZEFSAII (Michael W. Deem and Ramdas Pophale) SiO2 
 PCOD9455320
Probable space group: P B C N
;
_chemical_formula_sum "Si O2"
_cell_formula_units_Z 24
_cell_length_a 11.969838
_cell_length_b 15.720747
_cell_length_c 4.974699
_cell_angle_alpha 90.000000
_cell_angle_beta 90.000000
_cell_angle_gamma 90.000000
_cell_volume 936.112964
_symmetry_space_group_name_H-M "P B C N"
_symmetry_group_IT_number 60
_symmetry_cell_setting 'orthorhombic'
loop_
_space_group_symop_operation_xyz
x,y,z
1/2-x,1/2-y,1/2+z
1/2+x,1/2-y,-z
-x,y,1/2-z
-x,-y,-z
1/2+x,1/2+y,1/2-z
1/2-x,1/2+y,z
x,-y,1/2+z
loop_
_atom_site_type_symbol
_atom_site_label
_atom_site_fract_x
_atom_site_fract_y
_atom_site_fract_z
Si Si1 0.572923 0.603939 0.486524
Si Si2 0.321988 0.235499 0.785671
Si Si3 0.329089 0.052199 0.969341
O O1 0.500000 0.560862 0.250000
O O2 0.603423 0.696435 0.366093
O O3 0.693535 0.561569 0.533040
O O4 0.500000 0.615180 0.750000
O O5 0.227203 0.220840 0.555703
O O6 0.369658 0.145006 0.878000
O O7 0.361882 0.978477 0.763255
#
# Coordination Sequence:
#
# PCOD9455320 Si02
#       3
#     8   8   8
#     4  11  22  36  57  84 114 147 184 230 280 330
#     4  10  20  38  58  77 108 153 196 220 258 336
#     4  11  22  36  57  84 114 147 182 228 280 330
#
# _framework density 25.637933
#
# number of rings (size 3 to 8) (size 9 to 14) (size 15 to 20)
#    0.000    1.333    0.000   10.000    0.000    4.000 
#    0.000    0.000    0.000    6.000    0.000    0.000 
#    0.000    0.000    0.000    0.000    0.000    0.000 
#
# Total GULP energy -134503.736612 kJ/mol
# GULP energy per Si atom -5604.322359 kJ/mol
# Density = 2.557958 g / cm^3
# Si number density = 25.637933 Si / 1000 Ang^3
#
#
#
# Elastic Constant Matrix: (Units=GPa)
#
#
# Indices 1 2 3 4 5 6 
#
# 1 70.5274 3.1489 10.7075 0.0000 0.0000 0.0000
# 2 3.1489 147.1296 11.0994 0.0000 0.0000 0.0000
# 3 10.7075 11.0994 140.5664 0.0000 0.0000 0.0000
# 4 0.0000 0.0000 0.0000 42.6138 0.0000 0.0000
# 5 0.0000 0.0000 0.0000 0.0000 32.1842 0.0000
# 6 0.0000 0.0000 0.0000 0.0000 0.0000 11.5391
#
#
#
# Elastic Compliance Matrix: (Units=1/GPa)
#
#
# Indices 1 2 3 4 5 6 
#
# 1 0.014352 -0.000226 -0.001075 0.000000 0.000000 0.000000
# 2 -0.000226 0.006841 -0.000523 0.000000 0.000000 0.000000
# 3 -0.001075 -0.000523 0.007237 0.000000 0.000000 0.000000
# 4 0.000000 0.000000 0.000000 0.023467 0.000000 0.000000
# 5 0.000000 0.000000 0.000000 0.000000 0.031071 0.000000
# 6 0.000000 0.000000 0.000000 0.000000 0.000000 0.086662
#
#
# Mechanical properties :
#
#
# Convention : Reuss Voigt Hill
#
# Bulk Modulus (GPa) = 40.35236 45.34835 42.85036
# Shear Modulus (GPa) = 27.54225 39.48527 33.51376
#
# Velocity S-wave (km/s) = 3.28117 3.92868 3.61944
# Velocity P-wave (km/s) = 5.48892 6.18917 5.84953
#
# Compressibility (1/GPa) = 0.02478170
#
# Stress axis : x y z
#
# Youngs Moduli (GPa) = 69.67553 146.17711 138.17329
#
# Poissons Ratio (x) = 0.03304 0.14859
# Poissons Ratio (y) = 0.01575 0.07226
# Poissons Ratio (z) = 0.07493 0.07644
#
# Static dielectric constant tensor:
#      x y z
#    x 2.198770 0.000000 0.000000 
#    y 0.000000 2.015650 0.000000 
#    z 0.000000 0.000000 1.966430 
# 
# From -- ./inp_files/987.got.cif
#   From: 2010.05.17/outbox.cif.g08.bks.cpg/sg60_1_cif.got.tgz:987.got - 2010.06.03 14:59:27.
