data_PCOD9455686
_publ_section_title
;
Structure prediction by ZEFSAII (Michael W. Deem and Ramdas Pophale) SiO2 
 PCOD9455686
Probable space group: P B C N
;
_chemical_formula_sum "Si O2"
_cell_formula_units_Z 60
_cell_length_a 10.887071
_cell_length_b 27.734063
_cell_length_c 9.951730
_cell_angle_alpha 90.000000
_cell_angle_beta 90.000000
_cell_angle_gamma 90.000000
_cell_volume 3004.852355
_symmetry_space_group_name_H-M "P B C N"
_symmetry_group_IT_number 60
_symmetry_cell_setting 'orthorhombic'
loop_
_space_group_symop_operation_xyz
x,y,z
1/2-x,1/2-y,1/2+z
1/2+x,1/2-y,-z
-x,y,1/2-z
-x,-y,-z
1/2+x,1/2+y,1/2-z
1/2-x,1/2+y,z
x,-y,1/2+z
loop_
_atom_site_type_symbol
_atom_site_label
_atom_site_fract_x
_atom_site_fract_y
_atom_site_fract_z
Si Si1 0.753518 0.862506 0.365950
Si Si2 0.641737 0.736012 0.772575
Si Si3 0.500000 0.823517 0.250000
Si Si4 0.313984 0.205019 0.962914
Si Si5 0.862485 0.965294 0.302330
Si Si6 0.357357 0.104685 0.075629
Si Si7 0.640035 0.099027 0.112735
Si Si8 0.723758 0.996224 0.044826
O O1 0.835622 0.816919 0.333063
O O2 0.617387 0.853963 0.302241
O O3 0.819095 0.910218 0.313837
O O4 0.731177 0.869708 0.523486
O O5 0.500000 0.746435 0.750000
O O6 0.685149 0.771905 0.889614
O O7 0.716563 0.732268 0.632781
O O8 0.440777 0.793764 0.374604
O O9 0.293176 0.147804 0.992873
O O10 0.774168 0.988872 0.192963
O O11 0.000000 0.968939 0.250000
O O12 0.834465 0.991002 0.443280
O O13 0.501883 0.117038 0.088222
O O14 0.321200 0.100418 0.232208
O O15 0.337904 0.053005 0.005911
O O16 0.642152 0.044446 0.053868
#
# Coordination Sequence:
#
# PCOD9455686 Si02
#       8
#     8   8   4   8   8   8   8   8
#     4  10  22  41  65  91 130 167 227 271 343 396
#     4  11  27  45  68 102 134 182 227 284 344 408
#     4  10  20  42  64 100 118 178 212 280 340 394
#     4  11  26  42  74  97 142 180 230 281 344 413
#     4  11  23  39  64  88 129 174 216 273 328 404
#     4  11  22  40  64  97 136 173 224 274 346 389
#     4  10  22  37  65  98 129 175 216 288 336 403
#     4  11  21  41  60  96 131 169 224 268 333 409
#
# _framework density 19.967703
#
# number of rings (size 3 to 8) (size 9 to 14) (size 15 to 20)
#    0.000    1.333    2.667    2.800    7.467    0.000 
#    0.000    0.000    0.000    0.000    0.000    0.000 
#    0.000    0.000    0.000    0.000    0.000    0.000 
#
# Total GULP energy -334822.853292 kJ/mol
# GULP energy per Si atom -5580.380888 kJ/mol
# Density = 1.992226 g / cm^3
# Si number density = 19.967703 Si / 1000 Ang^3
#
#
#
# Elastic Constant Matrix: (Units=GPa)
#
#
# Indices 1 2 3 4 5 6 
#
# 1 38.2437 0.6706 11.0083 0.0000 0.0000 0.0000
# 2 0.6706 54.0998 25.4482 0.0000 0.0000 0.0000
# 3 11.0083 25.4482 107.8333 0.0000 0.0000 0.0000
# 4 0.0000 0.0000 0.0000 31.7736 0.0000 0.0000
# 5 0.0000 0.0000 0.0000 0.0000 29.8442 0.0000
# 6 0.0000 0.0000 0.0000 0.0000 0.0000 7.0466
#
#
#
# Elastic Compliance Matrix: (Units=1/GPa)
#
#
# Indices 1 2 3 4 5 6 
#
# 1 0.026996 0.001082 -0.003011 0.000000 0.000000 0.000000
# 2 0.001082 0.020836 -0.005028 0.000000 0.000000 0.000000
# 3 -0.003011 -0.005028 0.010767 0.000000 0.000000 0.000000
# 4 0.000000 0.000000 0.000000 0.031473 0.000000 0.000000
# 5 0.000000 0.000000 0.000000 0.000000 0.033507 0.000000
# 6 0.000000 0.000000 0.000000 0.000000 0.000000 0.141913
#
#
# Mechanical properties :
#
#
# Convention : Reuss Voigt Hill
#
# Bulk Modulus (GPa) = 22.37873 30.49232 26.43552
# Shear Modulus (GPa) = 16.98937 24.60285 20.79611
#
# Velocity S-wave (km/s) = 2.92008 3.51398 3.23071
# Velocity P-wave (km/s) = 4.75405 5.63632 5.21388
#
# Compressibility (1/GPa) = 0.04468529
#
# Stress axis : x y z
#
# Youngs Moduli (GPa) = 37.04264 47.99410 92.87223
#
# Poissons Ratio (x) = -0.05192 0.27966
# Poissons Ratio (y) = -0.04007 0.46693
# Poissons Ratio (z) = 0.11154 0.24130
#
# Static dielectric constant tensor:
#      x y z
#    x 1.678390 0.000000 0.000000 
#    y 0.000000 1.709870 0.000000 
#    z 0.000000 0.000000 1.729130 
# 
# From -- ./inp_files/5309.got.cif
#   From: 2010.05.17/outbox.cif.g08.bks.cpg/sg60_3_cif.got.tgz:5309.got - 2010.06.03 14:59:27.
