data_PCOD9455637
_publ_section_title
;
Structure prediction by ZEFSAII (Michael W. Deem and Ramdas Pophale) SiO2 
 PCOD9455637
Probable space group: P B C N
;
_chemical_formula_sum "Si O2"
_cell_formula_units_Z 48
_cell_length_a 6.520394
_cell_length_b 13.545838
_cell_length_c 23.770039
_cell_angle_alpha 90.000000
_cell_angle_beta 90.000000
_cell_angle_gamma 90.000000
_cell_volume 2099.469698
_symmetry_space_group_name_H-M "P B C N"
_symmetry_group_IT_number 60
_symmetry_cell_setting 'orthorhombic'
loop_
_space_group_symop_operation_xyz
x,y,z
1/2-x,1/2-y,1/2+z
1/2+x,1/2-y,-z
-x,y,1/2-z
-x,-y,-z
1/2+x,1/2+y,1/2-z
1/2-x,1/2+y,z
x,-y,1/2+z
loop_
_atom_site_type_symbol
_atom_site_label
_atom_site_fract_x
_atom_site_fract_y
_atom_site_fract_z
Si Si1 0.411085 0.062962 0.885537
Si Si2 0.434781 0.365430 0.608922
Si Si3 0.051944 0.964816 0.308196
Si Si4 0.550675 0.094291 0.462266
Si Si5 0.796525 0.192520 0.853753
Si Si6 0.683283 0.263977 0.066629
O O1 0.281002 0.065260 0.827502
O O2 0.456846 0.951321 0.903766
O O3 0.625097 0.119706 0.879132
O O4 0.282744 0.126542 0.932385
O O5 0.487206 0.467342 0.638924
O O6 0.284358 0.382380 0.555401
O O7 0.316488 0.295930 0.653614
O O8 0.634121 0.303764 0.590845
O O9 0.000000 0.018612 0.250000
O O10 0.904159 0.869527 0.305412
O O11 0.500000 0.000000 0.500000
O O12 0.422652 0.192179 0.479651
O O13 0.984464 0.217158 0.894937
#
# Coordination Sequence:
#
# PCOD9455637 Si02
#       6
#     8   8   8   8   8   8
#     4  10  20  41  62  84 128 161 203 271 308 372
#     4  10  20  41  62  87 130 161 207 270 308 371
#     4  11  22  39  63  93 118 165 210 256 323 382
#     4  11  22  39  63  94 121 169 213 256 320 383
#     4   9  20  40  62  84 122 164 200 261 315 364
#     4   9  20  40  62  86 123 164 204 259 317 362
#
# _framework density 22.862919000000002
#
# number of rings (size 3 to 8) (size 9 to 14) (size 15 to 20)
#    0.000    2.000    3.333    0.000    0.000    1.333 
#   18.000    0.000    0.000    0.000    0.000    0.000 
#    0.000    0.000    0.000    0.000    0.000    0.000 
#
# Total GULP energy -267309.350687 kJ/mol
# GULP energy per Si atom -5568.944806 kJ/mol
# Density = 2.281088 g / cm^3
# Si number density = 22.862919 Si / 1000 Ang^3
#
#
#
# Elastic Constant Matrix: (Units=GPa)
#
#
# Indices 1 2 3 4 5 6 
#
# 1 147.9298 52.1012 32.6762 0.0000 0.0000 0.0000
# 2 52.1012 105.1052 12.8338 0.0000 0.0000 0.0000
# 3 32.6762 12.8338 57.4543 0.0000 0.0000 0.0000
# 4 0.0000 0.0000 0.0000 21.7673 0.0000 0.0000
# 5 0.0000 0.0000 0.0000 0.0000 15.3394 0.0000
# 6 0.0000 0.0000 0.0000 0.0000 0.0000 64.2538
#
#
#
# Elastic Compliance Matrix: (Units=1/GPa)
#
#
# Indices 1 2 3 4 5 6 
#
# 1 0.009115 -0.003994 -0.004292 0.000000 0.000000 0.000000
# 2 -0.003994 0.011531 -0.000304 0.000000 0.000000 0.000000
# 3 -0.004292 -0.000304 0.019914 0.000000 0.000000 0.000000
# 4 0.000000 0.000000 0.000000 0.045941 0.000000 0.000000
# 5 0.000000 0.000000 0.000000 0.000000 0.065191 0.000000
# 6 0.000000 0.000000 0.000000 0.000000 0.000000 0.015563
#
#
# Mechanical properties :
#
#
# Convention : Reuss Voigt Hill
#
# Bulk Modulus (GPa) = 42.77170 56.19018 49.48094
# Shear Modulus (GPa) = 26.01071 34.46398 30.23734
#
# Velocity S-wave (km/s) = 3.37661 3.88676 3.64063
# Velocity P-wave (km/s) = 5.82671 6.69125 6.27389
#
# Compressibility (1/GPa) = 0.02337994
#
# Stress axis : x y z
#
# Youngs Moduli (GPa) = 109.71285 86.72013 50.21618
#
# Poissons Ratio (x) = 0.34638 0.21551
# Poissons Ratio (y) = 0.43821 0.01527
# Poissons Ratio (z) = 0.47085 0.02638
#
# Static dielectric constant tensor:
#      x y z
#    x 1.893820 0.000000 0.000000 
#    y 0.000000 1.895300 0.000000 
#    z 0.000000 0.000000 2.011390 
# 
# From -- ./inp_files/24849.got.cif
#   From: 2010.05.17/outbox.cif.g08.bks.cpg/sg60_13_cif.got.tgz:24849.got - 2010.06.03 14:59:27.
