data_PCOD9455203
_publ_section_title
;
Structure prediction by ZEFSAII (Michael W. Deem and Ramdas Pophale) SiO2 
 PCOD9455203
Probable space group: P B C N
;
_chemical_formula_sum "Si O2"
_cell_formula_units_Z 32
_cell_length_a 10.629027
_cell_length_b 11.202555
_cell_length_c 9.353361
_cell_angle_alpha 90.000000
_cell_angle_beta 90.000000
_cell_angle_gamma 90.000000
_cell_volume 1113.725829
_symmetry_space_group_name_H-M "P B C N"
_symmetry_group_IT_number 60
_symmetry_cell_setting 'orthorhombic'
loop_
_space_group_symop_operation_xyz
x,y,z
1/2-x,1/2-y,1/2+z
1/2+x,1/2-y,-z
-x,y,1/2-z
-x,-y,-z
1/2+x,1/2+y,1/2-z
1/2-x,1/2+y,z
x,-y,1/2+z
loop_
_atom_site_type_symbol
_atom_site_label
_atom_site_fract_x
_atom_site_fract_y
_atom_site_fract_z
Si Si1 0.138080 0.731582 0.308141
Si Si2 0.313816 0.064013 0.077205
Si Si3 0.402857 0.492863 0.368249
Si Si4 0.971104 0.667811 0.903113
O O1 0.227131 0.641383 0.218081
O O2 0.145170 0.872536 0.281967
O O3 0.120903 0.726508 0.479819
O O4 0.000000 0.695548 0.250000
O O5 0.410969 0.961810 0.124483
O O6 0.220705 0.995680 0.970249
O O7 0.393719 0.155239 0.979263
O O8 0.500000 0.543783 0.250000
O O9 0.500000 0.500000 0.500000
O O10 0.000000 0.719911 0.750000
#
# Coordination Sequence:
#
# PCOD9455203 Si02
#       4
#     8   8   8   8
#     4   9  21  44  65 100 144 191 255 310 380 465
#     4  10  21  41  67  99 138 194 244 315 373 463
#     4  11  27  46  68 106 160 205 247 319 413 488
#     4  10  20  36  72 103 128 176 258 316 365 437
#
# _framework density 28.732382999999999
#
# number of rings (size 3 to 8) (size 9 to 14) (size 15 to 20)
#    0.000    2.000    0.000    3.750    7.000    3.000 
#    9.000    0.000    0.000    0.000    0.000    0.000 
#    0.000    0.000    0.000    0.000    0.000    0.000 
#
# Total GULP energy -178219.153000 kJ/mol
# GULP energy per Si atom -5569.348531 kJ/mol
# Density = 2.866699 g / cm^3
# Si number density = 28.732383 Si / 1000 Ang^3
#
#
#
# Elastic Constant Matrix: (Units=GPa)
#
#
# Indices 1 2 3 4 5 6 
#
# 1 134.2465 3.4627 56.8349 0.0000 0.0000 0.0000
# 2 3.4627 101.8433 45.7481 0.0000 0.0000 0.0000
# 3 56.8349 45.7481 284.8523 0.0000 0.0000 0.0000
# 4 0.0000 0.0000 0.0000 37.0888 0.0000 0.0000
# 5 0.0000 0.0000 0.0000 0.0000 50.1258 0.0000
# 6 0.0000 0.0000 0.0000 0.0000 0.0000 7.3186
#
#
#
# Elastic Compliance Matrix: (Units=1/GPa)
#
#
# Indices 1 2 3 4 5 6 
#
# 1 0.008159 0.000489 -0.001706 0.000000 0.000000 0.000000
# 2 0.000489 0.010612 -0.001802 0.000000 0.000000 0.000000
# 3 -0.001706 -0.001802 0.004140 0.000000 0.000000 0.000000
# 4 0.000000 0.000000 0.000000 0.026962 0.000000 0.000000
# 5 0.000000 0.000000 0.000000 0.000000 0.019950 0.000000
# 6 0.000000 0.000000 0.000000 0.000000 0.000000 0.136639
#
#
# Mechanical properties :
#
#
# Convention : Reuss Voigt Hill
#
# Bulk Modulus (GPa) = 59.26737 81.44816 70.35777
# Shear Modulus (GPa) = 22.92266 46.56638 34.74452
#
# Velocity S-wave (km/s) = 2.82760 4.03015 3.48119
# Velocity P-wave (km/s) = 5.59755 7.07565 6.37955
#
# Compressibility (1/GPa) = 0.01687269
#
# Stress axis : x y z
#
# Youngs Moduli (GPa) = 122.56689 94.23485 241.51940
#
# Poissons Ratio (x) = -0.04609 0.41214
# Poissons Ratio (y) = -0.05995 0.43519
# Poissons Ratio (z) = 0.20915 0.16980
#
# Static dielectric constant tensor:
#      x y z
#    x 2.213910 0.000000 0.000000 
#    y 0.000000 2.294780 0.000000 
#    z 0.000000 0.000000 2.264820 
# 
# From -- ./inp_files/4626.got.cif
#   From: 2010.05.17/outbox.cif.g08.bks.cpg/sg60_3_cif.got.tgz:4626.got - 2010.06.03 14:59:27.
