data_PCOD9455034
_publ_section_title
;
Structure prediction by ZEFSAII (Michael W. Deem and Ramdas Pophale) SiO2 
 PCOD9455034
Probable space group: P B C N
;
_chemical_formula_sum "Si O2"
_cell_formula_units_Z 60
_cell_length_a 5.658326
_cell_length_b 24.939149
_cell_length_c 16.362186
_cell_angle_alpha 90.000000
_cell_angle_beta 90.000000
_cell_angle_gamma 90.000000
_cell_volume 2308.930819
_symmetry_space_group_name_H-M "P B C N"
_symmetry_group_IT_number 60
_symmetry_cell_setting 'orthorhombic'
loop_
_space_group_symop_operation_xyz
x,y,z
1/2-x,1/2-y,1/2+z
1/2+x,1/2-y,-z
-x,y,1/2-z
-x,-y,-z
1/2+x,1/2+y,1/2-z
1/2-x,1/2+y,z
x,-y,1/2+z
loop_
_atom_site_type_symbol
_atom_site_label
_atom_site_fract_x
_atom_site_fract_y
_atom_site_fract_z
Si Si1 0.000000 0.558291 0.750000
Si Si2 0.633355 0.624080 0.644240
Si Si3 0.231431 0.040146 0.602266
Si Si4 0.499222 0.129763 0.519685
Si Si5 0.075101 0.747544 0.582450
Si Si6 0.993398 0.054905 0.158371
Si Si7 0.492864 0.881948 0.659280
Si Si8 0.925603 0.243064 0.612176
O O1 0.821823 0.597650 0.703291
O O2 0.912419 0.522415 0.826210
O O3 0.403882 0.588656 0.645913
O O4 0.589942 0.685987 0.657063
O O5 0.739330 0.618261 0.552514
O O6 0.363989 0.073144 0.531906
O O7 0.048249 0.991972 0.593175
O O8 0.423283 0.182040 0.572806
O O9 0.482665 0.148020 0.427077
O O10 0.074478 0.767096 0.487661
O O11 0.311270 0.763402 0.629185
O O12 0.835273 0.767056 0.624904
O O13 0.227423 0.092539 0.152709
O O14 0.000000 0.030139 0.250000
O O15 0.735392 0.082051 0.154736
O O16 0.500000 0.856929 0.750000
#
# Coordination Sequence:
#
# PCOD9455034 Si02
#       8
#     4   8   8   8   8   8   8   8
#     4  10  22  34  54  84 118 160 186 234 296 358
#     4  10  20  35  54  87 119 156 191 238 287 352
#     4  11  22  36  59  83 117 152 194 241 293 350
#     4  10  22  36  59  87 116 147 201 243 294 337
#     4   9  17  32  53  84 111 146 185 235 273 336
#     4  10  23  39  59  80 114 153 196 235 297 355
#     4  10  24  42  59  82 112 155 195 246 293 350
#     4   9  17  31  54  81 115 145 188 224 279 332
#
# _framework density 25.986052999999998
#
# number of rings (size 3 to 8) (size 9 to 14) (size 15 to 20)
#    0.000    2.133    1.333    1.200    8.400    1.067 
#    0.000    0.000    0.000    1.600    5.200    0.000 
#    0.000    0.000    0.000    0.000    0.000    0.000 
#
# Total GULP energy -334663.887753 kJ/mol
# GULP energy per Si atom -5577.731463 kJ/mol
# Density = 2.592691 g / cm^3
# Si number density = 25.986053 Si / 1000 Ang^3
#
#
#
# Elastic Constant Matrix: (Units=GPa)
#
#
# Indices 1 2 3 4 5 6 
#
# 1 172.0657 22.0557 24.7880 0.0000 0.0000 0.0000
# 2 22.0557 42.7826 3.5406 0.0000 0.0000 0.0000
# 3 24.7880 3.5406 92.4763 0.0000 0.0000 0.0000
# 4 0.0000 0.0000 0.0000 23.0404 0.0000 0.0000
# 5 0.0000 0.0000 0.0000 0.0000 22.0041 0.0000
# 6 0.0000 0.0000 0.0000 0.0000 0.0000 13.0690
#
#
#
# Elastic Compliance Matrix: (Units=1/GPa)
#
#
# Indices 1 2 3 4 5 6 
#
# 1 0.006453 -0.003194 -0.001607 0.000000 0.000000 0.000000
# 2 -0.003194 0.025029 -0.000102 0.000000 0.000000 0.000000
# 3 -0.001607 -0.000102 0.011248 0.000000 0.000000 0.000000
# 4 0.000000 0.000000 0.000000 0.043402 0.000000 0.000000
# 5 0.000000 0.000000 0.000000 0.000000 0.045446 0.000000
# 6 0.000000 0.000000 0.000000 0.000000 0.000000 0.076517
#
#
# Mechanical properties :
#
#
# Convention : Reuss Voigt Hill
#
# Bulk Modulus (GPa) = 30.37339 45.34369 37.85854
# Shear Modulus (GPa) = 21.84591 28.75205 25.29898
#
# Velocity S-wave (km/s) = 2.90259 3.32993 3.12358
# Velocity P-wave (km/s) = 4.79031 5.68082 5.25446
#
# Compressibility (1/GPa) = 0.03292356
#
# Stress axis : x y z
#
# Youngs Moduli (GPa) = 154.97540 39.95396 88.90207
#
# Poissons Ratio (x) = 0.12759 0.14290
# Poissons Ratio (y) = 0.49491 0.00909
# Poissons Ratio (z) = 0.24910 0.00409
#
# Static dielectric constant tensor:
#      x y z
#    x 2.153840 0.000000 0.000000 
#    y 0.000000 2.114600 0.000000 
#    z 0.000000 0.000000 2.039880 
# 
# From -- ./inp_files/18790.got.cif
#   From: 2010.05.17/outbox.cif.g08.bks.cpg/sg60_10_cif.got.tgz:18790.got - 2010.06.03 14:59:27.
