data_PCOD9455564
_publ_section_title
;
Structure prediction by ZEFSAII (Michael W. Deem and Ramdas Pophale) SiO2 
 PCOD9455564
Probable space group: P B C N
;
_chemical_formula_sum "Si O2"
_cell_formula_units_Z 48
_cell_length_a 13.339475
_cell_length_b 19.979008
_cell_length_c 8.002098
_cell_angle_alpha 90.000000
_cell_angle_beta 90.000000
_cell_angle_gamma 90.000000
_cell_volume 2132.634959
_symmetry_space_group_name_H-M "P B C N"
_symmetry_group_IT_number 60
_symmetry_cell_setting 'orthorhombic'
loop_
_space_group_symop_operation_xyz
x,y,z
1/2-x,1/2-y,1/2+z
1/2+x,1/2-y,-z
-x,y,1/2-z
-x,-y,-z
1/2+x,1/2+y,1/2-z
1/2-x,1/2+y,z
x,-y,1/2+z
loop_
_atom_site_type_symbol
_atom_site_label
_atom_site_fract_x
_atom_site_fract_y
_atom_site_fract_z
Si Si1 0.199230 0.107241 0.812079
Si Si2 0.339016 0.170844 0.551209
Si Si3 0.350385 0.348786 0.848813
Si Si4 0.275991 0.525263 0.160062
Si Si5 0.571965 0.957748 0.388930
Si Si6 0.939919 0.802928 0.991994
O O1 0.292192 0.150483 0.734961
O O2 0.172344 0.048243 0.679503
O O3 0.219064 0.064590 0.982786
O O4 0.111428 0.159132 0.854356
O O5 0.241056 0.186239 0.442857
O O6 0.379516 0.098988 0.499050
O O7 0.426709 0.223170 0.509964
O O8 0.322649 0.425001 0.798154
O O9 0.369491 0.317127 0.668386
O O10 0.452403 0.334103 0.949602
O O11 0.160670 0.503112 0.185463
O O12 0.500000 0.925475 0.250000
O O13 0.500000 0.000000 0.500000
#
# Coordination Sequence:
#
# PCOD9455564 Si02
#       6
#     8   8   8   8   8   8
#     4  10  21  39  68  97 131 177 215 284 333 397
#     4  11  22  41  65  92 136 170 220 281 330 406
#     4  10  22  41  63  88 133 172 219 279 323 404
#     4  10  20  40  62  96 131 167 222 274 339 379
#     4  11  22  37  63  95 125 167 216 270 335 393
#     4  10  23  41  64  94 128 181 228 259 344 402
#
# _framework density 22.507370000000002
#
# number of rings (size 3 to 8) (size 9 to 14) (size 15 to 20)
#    0.000    1.667    0.000    6.000    2.333    1.333 
#    6.000    6.667    0.000    0.000    0.000    0.000 
#    0.000    0.000    0.000    0.000    0.000    0.000 
#
# Total GULP energy -267490.935824 kJ/mol
# GULP energy per Si atom -5572.727830 kJ/mol
# Density = 2.245614 g / cm^3
# Si number density = 22.507370 Si / 1000 Ang^3
#
#
#
# Elastic Constant Matrix: (Units=GPa)
#
#
# Indices 1 2 3 4 5 6 
#
# 1 71.2227 47.4330 30.9823 0.0000 0.0000 0.0000
# 2 47.4330 111.1429 23.9078 0.0000 0.0000 0.0000
# 3 30.9823 23.9078 75.1119 0.0000 0.0000 0.0000
# 4 0.0000 0.0000 0.0000 25.2613 0.0000 0.0000
# 5 0.0000 0.0000 0.0000 0.0000 35.6896 0.0000
# 6 0.0000 0.0000 0.0000 0.0000 0.0000 28.8416
#
#
#
# Elastic Compliance Matrix: (Units=1/GPa)
#
#
# Indices 1 2 3 4 5 6 
#
# 1 0.022317 -0.008099 -0.006628 0.000000 0.000000 0.000000
# 2 -0.008099 0.012598 -0.000669 0.000000 0.000000 0.000000
# 3 -0.006628 -0.000669 0.016260 0.000000 0.000000 0.000000
# 4 0.000000 0.000000 0.000000 0.039586 0.000000 0.000000
# 5 0.000000 0.000000 0.000000 0.000000 0.028019 0.000000
# 6 0.000000 0.000000 0.000000 0.000000 0.000000 0.034672
#
#
# Mechanical properties :
#
#
# Convention : Reuss Voigt Hill
#
# Bulk Modulus (GPa) = 49.05820 51.34708 50.20264
# Shear Modulus (GPa) = 26.17271 28.30213 27.23742
#
# Velocity S-wave (km/s) = 3.41376 3.54992 3.48250
# Velocity P-wave (km/s) = 6.11409 6.29806 6.20676
#
# Compressibility (1/GPa) = 0.02038395
#
# Stress axis : x y z
#
# Youngs Moduli (GPa) = 44.80857 79.37937 61.49965
#
# Poissons Ratio (x) = 0.64287 0.40760
# Poissons Ratio (y) = 0.36289 0.04116
# Poissons Ratio (z) = 0.29697 0.05312
#
# Static dielectric constant tensor:
#      x y z
#    x 1.884060 0.000000 0.000000 
#    y 0.000000 1.913790 0.000000 
#    z 0.000000 0.000000 1.930430 
# 
# From -- ./inp_files/5922.got.cif
#   From: 2010.05.17/outbox.cif.g08.bks.cpg/sg60_3_cif.got.tgz:5922.got - 2010.06.03 14:59:27.
