data_PCOD9455517
_publ_section_title
;
Structure prediction by ZEFSAII (Michael W. Deem and Ramdas Pophale) SiO2 
 PCOD9455517
Probable space group: P B C N
;
_chemical_formula_sum "Si O2"
_cell_formula_units_Z 64
_cell_length_a 26.131506
_cell_length_b 8.860698
_cell_length_c 12.538393
_cell_angle_alpha 90.000000
_cell_angle_beta 90.000000
_cell_angle_gamma 90.000000
_cell_volume 2903.181932
_symmetry_space_group_name_H-M "P B C N"
_symmetry_group_IT_number 60
_symmetry_cell_setting 'orthorhombic'
loop_
_space_group_symop_operation_xyz
x,y,z
1/2-x,1/2-y,1/2+z
1/2+x,1/2-y,-z
-x,y,1/2-z
-x,-y,-z
1/2+x,1/2+y,1/2-z
1/2-x,1/2+y,z
x,-y,1/2+z
loop_
_atom_site_type_symbol
_atom_site_label
_atom_site_fract_x
_atom_site_fract_y
_atom_site_fract_z
Si Si1 0.817062 0.198511 0.143904
Si Si2 0.414912 0.714625 0.712098
Si Si3 0.314691 0.592939 0.596486
Si Si4 0.358413 0.983128 0.233132
Si Si5 0.041985 0.317230 0.164057
Si Si6 0.243588 0.364103 0.679804
Si Si7 0.519452 0.325646 0.491699
Si Si8 0.579505 0.429791 0.686984
O O1 0.836496 0.365915 0.178582
O O2 0.765119 0.146732 0.200565
O O3 0.860233 0.089468 0.191522
O O4 0.815141 0.162655 0.020627
O O5 0.369863 0.625225 0.647934
O O6 0.457980 0.730927 0.620495
O O7 0.434128 0.604508 0.805549
O O8 0.388767 0.862767 0.761500
O O9 0.289899 0.427034 0.606926
O O10 0.273348 0.694889 0.656951
O O11 0.403324 0.897762 0.168874
O O12 0.308377 0.039460 0.170102
O O13 0.053319 0.151371 0.213015
O O14 0.000000 0.382386 0.250000
O O15 0.019790 0.290859 0.046891
O O16 0.500000 0.500000 0.500000
O O17 0.563680 0.337571 0.582301
#
# Coordination Sequence:
#
# PCOD9455517 Si02
#       8
#     8   8   8   8   8   8   8   8
#     4  11  22  42  68  89 133 177 214 264 345 395
#     4  11  22  41  66  98 133 166 224 278 323 397
#     4  11  24  40  65  94 130 172 220 272 329 400
#     4  10  24  43  62  93 137 170 213 278 334 390
#     4   9  20  40  64  88 129 176 210 263 336 384
#     4  11  23  42  64  95 128 170 221 273 325 403
#     4  11  21  38  67  98 127 171 227 271 328 398
#     4  10  20  39  65  91 128 174 213 271 329 392
#
# _framework density 22.044777
#
# number of rings (size 3 to 8) (size 9 to 14) (size 15 to 20)
#    0.000    1.500    5.000    0.000    1.750    0.500 
#    2.250    2.500    0.000    0.000    0.000    0.000 
#    0.000    0.000    0.000    0.000    0.000    0.000 
#
# Total GULP energy -356693.006678 kJ/mol
# GULP energy per Si atom -5573.328229 kJ/mol
# Density = 2.199460 g / cm^3
# Si number density = 22.044777 Si / 1000 Ang^3
#
#
#
# Elastic Constant Matrix: (Units=GPa)
#
#
# Indices 1 2 3 4 5 6 
#
# 1 96.0033 11.0753 -1.2655 0.0000 0.0000 0.0000
# 2 11.0753 38.0868 -6.4131 0.0000 0.0000 0.0000
# 3 -1.2655 -6.4131 40.4803 0.0000 0.0000 0.0000
# 4 0.0000 0.0000 0.0000 7.0028 0.0000 0.0000
# 5 0.0000 0.0000 0.0000 0.0000 24.4200 0.0000
# 6 0.0000 0.0000 0.0000 0.0000 0.0000 36.5573
#
#
#
# Elastic Compliance Matrix: (Units=1/GPa)
#
#
# Indices 1 2 3 4 5 6 
#
# 1 0.010779 -0.003162 -0.000164 0.000000 0.000000 0.000000
# 2 -0.003162 0.027903 0.004322 0.000000 0.000000 0.000000
# 3 -0.000164 0.004322 0.025383 0.000000 0.000000 0.000000
# 4 0.000000 0.000000 0.000000 0.142800 0.000000 0.000000
# 5 0.000000 0.000000 0.000000 0.000000 0.040950 0.000000
# 6 0.000000 0.000000 0.000000 0.000000 0.000000 0.027354
#
#
# Mechanical properties :
#
#
# Convention : Reuss Voigt Hill
#
# Bulk Modulus (GPa) = 15.13862 20.15154 17.64508
# Shear Modulus (GPa) = 16.93785 25.00759 20.97272
#
# Velocity S-wave (km/s) = 2.77490 3.37174 3.08777
# Velocity P-wave (km/s) = 4.14112 4.93145 4.55346
#
# Compressibility (1/GPa) = 0.06605624
#
# Stress axis : x y z
#
# Youngs Moduli (GPa) = 92.77361 35.83844 39.39654
#
# Poissons Ratio (x) = 0.11332 0.00646
# Poissons Ratio (y) = 0.29335 -0.17026
# Poissons Ratio (z) = 0.01521 -0.15488
#
# Static dielectric constant tensor:
#      x y z
#    x 1.884240 0.000000 0.000000 
#    y 0.000000 1.880960 0.000000 
#    z 0.000000 0.000000 1.813190 
# 
# From -- ./inp_files/13400.got.cif
#   From: 2010.05.17/outbox.cif.g08.bks.cpg/sg60_7_cif.got.tgz:13400.got - 2010.06.03 14:59:27.
