data_PCOD9455626
_publ_section_title
;
Structure prediction by ZEFSAII (Michael W. Deem and Ramdas Pophale) SiO2 
 PCOD9455626
Probable space group: P B C N
;
_chemical_formula_sum "Si O2"
_cell_formula_units_Z 40
_cell_length_a 12.507889
_cell_length_b 14.044171
_cell_length_c 8.970800
_cell_angle_alpha 90.000000
_cell_angle_beta 90.000000
_cell_angle_gamma 90.000000
_cell_volume 1575.837030
_symmetry_space_group_name_H-M "P B C N"
_symmetry_group_IT_number 60
_symmetry_cell_setting 'orthorhombic'
loop_
_space_group_symop_operation_xyz
x,y,z
1/2-x,1/2-y,1/2+z
1/2+x,1/2-y,-z
-x,y,1/2-z
-x,-y,-z
1/2+x,1/2+y,1/2-z
1/2-x,1/2+y,z
x,-y,1/2+z
loop_
_atom_site_type_symbol
_atom_site_label
_atom_site_fract_x
_atom_site_fract_y
_atom_site_fract_z
Si Si1 0.351903 0.433942 0.995719
Si Si2 0.725380 0.771606 0.672304
Si Si3 0.786772 0.620816 0.467256
Si Si4 0.542208 0.877547 0.547930
Si Si5 0.500000 0.957724 0.250000
Si Si6 0.000000 0.965128 0.250000
O O1 0.273143 0.520398 0.042128
O O2 0.423551 0.408358 0.138427
O O3 0.288425 0.344676 0.934968
O O4 0.428160 0.471471 0.862182
O O5 0.759684 0.667035 0.626100
O O6 0.752307 0.808991 0.835958
O O7 0.603138 0.790588 0.621652
O O8 0.914075 0.623920 0.445224
O O9 0.562086 0.896404 0.373081
O O10 0.571326 0.970178 0.649363
#
# Coordination Sequence:
#
# PCOD9455626 Si02
#       6
#     8   8   8   8   4   4
#     4  11  24  49  76 102 144 187 244 285 358 418
#     4  12  28  47  73 109 142 189 239 291 354 428
#     4  12  28  47  73 109 142 189 239 291 354 428
#     4  11  24  44  72 106 145 177 237 296 360 414
#     4  10  20  40  74 102 130 188 220 288 360 414
#     4  10  24  44  74 106 140 196 234 296 338 422
#
# _framework density 25.383334999999999
#
# number of rings (size 3 to 8) (size 9 to 14) (size 15 to 20)
#    0.000    0.800    4.000    2.400    5.600    3.200 
#    0.000    0.000    0.000    0.000    0.000    0.000 
#    0.000    0.000    0.000    0.000    0.000    0.000 
#
# Total GULP energy -224022.039736 kJ/mol
# GULP energy per Si atom -5600.550993 kJ/mol
# Density = 2.532556 g / cm^3
# Si number density = 25.383335 Si / 1000 Ang^3
#
#
#
# Elastic Constant Matrix: (Units=GPa)
#
#
# Indices 1 2 3 4 5 6 
#
# 1 112.7265 12.4026 29.9743 0.0000 0.0000 0.0000
# 2 12.4026 45.2840 13.1335 0.0000 0.0000 0.0000
# 3 29.9743 13.1335 159.4919 0.0000 0.0000 0.0000
# 4 0.0000 0.0000 0.0000 44.0391 0.0000 0.0000
# 5 0.0000 0.0000 0.0000 0.0000 49.2550 0.0000
# 6 0.0000 0.0000 0.0000 0.0000 0.0000 19.1884
#
#
#
# Elastic Compliance Matrix: (Units=1/GPa)
#
#
# Indices 1 2 3 4 5 6 
#
# 1 0.009536 -0.002143 -0.001616 0.000000 0.000000 0.000000
# 2 -0.002143 0.023105 -0.001500 0.000000 0.000000 0.000000
# 3 -0.001616 -0.001500 0.006697 0.000000 0.000000 0.000000
# 4 0.000000 0.000000 0.000000 0.022707 0.000000 0.000000
# 5 0.000000 0.000000 0.000000 0.000000 0.020303 0.000000
# 6 0.000000 0.000000 0.000000 0.000000 0.000000 0.052115
#
#
# Mechanical properties :
#
#
# Convention : Reuss Voigt Hill
#
# Bulk Modulus (GPa) = 34.69725 47.61371 41.15548
# Shear Modulus (GPa) = 32.34414 39.96262 36.15338
#
# Velocity S-wave (km/s) = 3.57350 3.97213 3.77808
# Velocity P-wave (km/s) = 5.54306 6.31155 5.93975
#
# Compressibility (1/GPa) = 0.02882073
#
# Stress axis : x y z
#
# Youngs Moduli (GPa) = 104.86047 43.28094 149.31900
#
# Poissons Ratio (x) = 0.09276 0.24126
# Poissons Ratio (y) = 0.22475 0.22395
# Poissons Ratio (z) = 0.16943 0.06491
#
# Static dielectric constant tensor:
#      x y z
#    x 2.054380 0.000000 0.000000 
#    y 0.000000 1.980960 0.000000 
#    z 0.000000 0.000000 2.053250 
# 
# From -- ./inp_files/4811.got.cif
#   From: 2010.05.17/outbox.cif.g08.bks.cpg/sg60_3_cif.got.tgz:4811.got - 2010.06.03 14:59:27.
