data_PCOD9455655
_publ_section_title
;
Structure prediction by ZEFSAII (Michael W. Deem and Ramdas Pophale) SiO2 
 PCOD9455655
Probable space group: P B C N
;
_chemical_formula_sum "Si O2"
_cell_formula_units_Z 60
_cell_length_a 11.081234
_cell_length_b 13.274577
_cell_length_c 20.562629
_cell_angle_alpha 90.000000
_cell_angle_beta 90.000000
_cell_angle_gamma 90.000000
_cell_volume 3024.735871
_symmetry_space_group_name_H-M "P B C N"
_symmetry_group_IT_number 60
_symmetry_cell_setting 'orthorhombic'
loop_
_space_group_symop_operation_xyz
x,y,z
1/2-x,1/2-y,1/2+z
1/2+x,1/2-y,-z
-x,y,1/2-z
-x,-y,-z
1/2+x,1/2+y,1/2-z
1/2-x,1/2+y,z
x,-y,1/2+z
loop_
_atom_site_type_symbol
_atom_site_label
_atom_site_fract_x
_atom_site_fract_y
_atom_site_fract_z
Si Si1 0.512095 0.922219 0.058666
Si Si2 0.500000 0.429067 0.750000
Si Si3 0.097392 0.930259 0.882077
Si Si4 0.116946 0.782017 0.571922
Si Si5 0.793050 0.120089 0.556702
Si Si6 0.040579 0.447028 0.680866
Si Si7 0.233302 0.191576 0.203703
Si Si8 0.823757 0.709463 0.160424
O O1 0.440224 0.820283 0.045078
O O2 0.652260 0.898252 0.069591
O O3 0.462183 0.973204 0.123753
O O4 0.500000 0.000000 0.000000
O O5 0.547709 0.481724 0.684688
O O6 0.389858 0.358782 0.728141
O O7 0.136044 0.016104 0.932126
O O8 0.214477 0.862948 0.863941
O O9 0.992949 0.856091 0.907603
O O10 0.190573 0.837067 0.515483
O O11 0.198004 0.757795 0.635520
O O12 0.837973 0.201796 0.609024
O O13 0.170007 0.395457 0.688326
O O14 0.000000 0.492620 0.750000
O O15 0.942796 0.359193 0.666047
O O16 0.287945 0.247751 0.266843
#
# Coordination Sequence:
#
# PCOD9455655 Si02
#       8
#     8   4   8   8   8   8   8   8
#     4  12  25  41  64  93 130 168 220 272 328 386
#     4   8  18  38  66  88 126 164 208 264 318 386
#     4  10  20  42  64  90 126 167 211 261 324 397
#     4  11  24  41  62  95 126 172 214 267 325 393
#     4  12  24  40  67  92 129 171 221 263 334 391
#     4  10  21  41  66  97 129 165 216 271 323 389
#     4   9  20  41  64  92 132 165 213 266 323 384
#     4  10  20  41  66  93 128 168 208 269 324 383
#
# _framework density 19.836441000000001
#
# number of rings (size 3 to 8) (size 9 to 14) (size 15 to 20)
#    0.000    1.600    2.667    2.000    0.000    1.067 
#    4.800    4.000    0.000    0.000    0.000    0.000 
#    0.000    0.000    0.000    0.000    0.000    0.000 
#
# Total GULP energy -335016.275861 kJ/mol
# GULP energy per Si atom -5583.604598 kJ/mol
# Density = 1.979129 g / cm^3
# Si number density = 19.836441 Si / 1000 Ang^3
#
#
#
# Elastic Constant Matrix: (Units=GPa)
#
#
# Indices 1 2 3 4 5 6 
#
# 1 64.2903 3.6148 -0.4813 0.0000 0.0000 0.0000
# 2 3.6148 54.3934 29.1421 0.0000 0.0000 0.0000
# 3 -0.4813 29.1421 93.5467 0.0000 0.0000 0.0000
# 4 0.0000 0.0000 0.0000 21.3483 0.0000 0.0000
# 5 0.0000 0.0000 0.0000 0.0000 18.7171 0.0000
# 6 0.0000 0.0000 0.0000 0.0000 0.0000 14.4991
#
#
#
# Elastic Compliance Matrix: (Units=1/GPa)
#
#
# Indices 1 2 3 4 5 6 
#
# 1 0.015631 -0.001299 0.000485 0.000000 0.000000 0.000000
# 2 -0.001299 0.022176 -0.006915 0.000000 0.000000 0.000000
# 3 0.000485 -0.006915 0.012847 0.000000 0.000000 0.000000
# 4 0.000000 0.000000 0.000000 0.046842 0.000000 0.000000
# 5 0.000000 0.000000 0.000000 0.000000 0.053427 0.000000
# 6 0.000000 0.000000 0.000000 0.000000 0.000000 0.068970
#
#
# Mechanical properties :
#
#
# Convention : Reuss Voigt Hill
#
# Bulk Modulus (GPa) = 28.41226 30.75353 29.58289
# Shear Modulus (GPa) = 20.23621 22.90987 21.57304
#
# Velocity S-wave (km/s) = 3.19745 3.40213 3.30137
# Velocity P-wave (km/s) = 5.29017 5.56505 5.42935
#
# Compressibility (1/GPa) = 0.03519608
#
# Stress axis : x y z
#
# Youngs Moduli (GPa) = 63.97503 45.09444 77.84213
#
# Poissons Ratio (x) = 0.05856 -0.03775
# Poissons Ratio (y) = 0.08308 0.53827
# Poissons Ratio (z) = -0.03103 0.31183
#
# Static dielectric constant tensor:
#      x y z
#    x 1.677010 0.000000 0.000000 
#    y 0.000000 1.663940 0.000000 
#    z 0.000000 0.000000 1.725630 
# 
# From -- ./inp_files/22674.got.cif
#   From: 2010.05.17/outbox.cif.g08.bks.cpg/sg60_12_cif.got.tgz:22674.got - 2010.06.03 14:59:27.
