data_PCOD9455005
_publ_section_title
;
Structure prediction by ZEFSAII (Michael W. Deem and Ramdas Pophale) SiO2 
 PCOD9455005
Probable space group: P B C N
;
_chemical_formula_sum "Si O2"
_cell_formula_units_Z 48
_cell_length_a 12.727684
_cell_length_b 11.897653
_cell_length_c 14.389415
_cell_angle_alpha 90.000000
_cell_angle_beta 90.000000
_cell_angle_gamma 90.000000
_cell_volume 2178.982893
_symmetry_space_group_name_H-M "P B C N"
_symmetry_group_IT_number 60
_symmetry_cell_setting 'orthorhombic'
loop_
_space_group_symop_operation_xyz
x,y,z
1/2-x,1/2-y,1/2+z
1/2+x,1/2-y,-z
-x,y,1/2-z
-x,-y,-z
1/2+x,1/2+y,1/2-z
1/2-x,1/2+y,z
x,-y,1/2+z
loop_
_atom_site_type_symbol
_atom_site_label
_atom_site_fract_x
_atom_site_fract_y
_atom_site_fract_z
Si Si1 0.931255 0.003396 0.591629
Si Si2 0.323763 0.152909 0.183740
Si Si3 0.183913 0.533852 0.820772
Si Si4 0.365679 0.403182 0.178068
Si Si5 0.759139 0.520625 0.487263
Si Si6 0.113774 0.213616 0.296545
O O1 0.889140 0.880414 0.622522
O O2 0.833770 0.074952 0.550394
O O3 0.000000 0.000000 0.500000
O O4 0.020635 0.044434 0.661281
O O5 0.380324 0.270995 0.187284
O O6 0.205878 0.180412 0.223706
O O7 0.367114 0.054168 0.249094
O O8 0.315705 0.108334 0.079059
O O9 0.298167 0.553769 0.767122
O O10 0.175374 0.479137 0.923814
O O11 0.135868 0.658342 0.826120
O O12 0.292855 0.434704 0.087434
O O13 0.000000 0.209383 0.250000
#
# Coordination Sequence:
#
# PCOD9455005 Si02
#       6
#     8   8   8   8   8   8
#     4  10  20  34  59  95 119 153 212 259 304 367
#     4  10  21  40  59  87 128 162 206 259 316 373
#     4  10  21  36  60  86 119 169 206 250 321 375
#     4   9  21  36  59  89 124 160 203 268 304 368
#     4  10  20  34  58  91 121 153 209 250 306 376
#     4  11  21  37  63  84 124 167 206 259 313 370
#
# _framework density 22.028627
#
# number of rings (size 3 to 8) (size 9 to 14) (size 15 to 20)
#    0.000    2.000    1.667    3.000    4.667    0.000 
#    0.000    0.000   11.000    3.000    0.000    0.000 
#    0.000    0.000    0.000    0.000    0.000    0.000 
#
# Total GULP energy -267234.519064 kJ/mol
# GULP energy per Si atom -5567.385814 kJ/mol
# Density = 2.197849 g / cm^3
# Si number density = 22.028627 Si / 1000 Ang^3
#
#
#
# Elastic Constant Matrix: (Units=GPa)
#
#
# Indices 1 2 3 4 5 6 
#
# 1 30.7514 7.6290 1.3221 0.0000 0.0000 0.0000
# 2 7.6290 140.1254 38.1528 0.0000 0.0000 0.0000
# 3 1.3221 38.1528 189.9921 0.0000 0.0000 0.0000
# 4 0.0000 0.0000 0.0000 17.2666 0.0000 0.0000
# 5 0.0000 0.0000 0.0000 0.0000 9.0668 0.0000
# 6 0.0000 0.0000 0.0000 0.0000 0.0000 24.2266
#
#
#
# Elastic Compliance Matrix: (Units=1/GPa)
#
#
# Indices 1 2 3 4 5 6 
#
# 1 0.032968 -0.001833 0.000139 0.000000 0.000000 0.000000
# 2 -0.001833 0.007651 -0.001524 0.000000 0.000000 0.000000
# 3 0.000139 -0.001524 0.005568 0.000000 0.000000 0.000000
# 4 0.000000 0.000000 0.000000 0.057915 0.000000 0.000000
# 5 0.000000 0.000000 0.000000 0.000000 0.110292 0.000000
# 6 0.000000 0.000000 0.000000 0.000000 0.000000 0.041277
#
#
# Mechanical properties :
#
#
# Convention : Reuss Voigt Hill
#
# Bulk Modulus (GPa) = 25.15625 50.56411 37.86018
# Shear Modulus (GPa) = 18.15822 31.02967 24.59394
#
# Velocity S-wave (km/s) = 2.87418 3.75721 3.34496
# Velocity P-wave (km/s) = 4.73911 6.46729 5.66943
#
# Compressibility (1/GPa) = 0.03975156
#
# Stress axis : x y z
#
# Youngs Moduli (GPa) = 30.33290 130.70003 179.58522
#
# Poissons Ratio (x) = 0.23953 -0.02489
# Poissons Ratio (y) = 0.05559 0.27363
# Poissons Ratio (z) = -0.00420 0.19915
#
# Static dielectric constant tensor:
#      x y z
#    x 1.245200 0.000000 0.000000 
#    y 0.000000 5.106410 0.000000 
#    z 0.000000 0.000000 1.246310 
# 
# From -- ./inp_files/16760.got.cif
#   From: 2010.05.17/outbox.cif.g08.bks.cpg/sg60_9_cif.got.tgz:16760.got - 2010.06.03 14:59:27.
