data_PCOD9455347
_publ_section_title
;
Structure prediction by ZEFSAII (Michael W. Deem and Ramdas Pophale) SiO2 
 PCOD9455347
Probable space group: P B C N
;
_chemical_formula_sum "Si O2"
_cell_formula_units_Z 52
_cell_length_a 7.846361
_cell_length_b 12.173750
_cell_length_c 25.627379
_cell_angle_alpha 90.000000
_cell_angle_beta 90.000000
_cell_angle_gamma 90.000000
_cell_volume 2447.917945
_symmetry_space_group_name_H-M "P B C N"
_symmetry_group_IT_number 60
_symmetry_cell_setting 'orthorhombic'
loop_
_space_group_symop_operation_xyz
x,y,z
1/2-x,1/2-y,1/2+z
1/2+x,1/2-y,-z
-x,y,1/2-z
-x,-y,-z
1/2+x,1/2+y,1/2-z
1/2-x,1/2+y,z
x,-y,1/2+z
loop_
_atom_site_type_symbol
_atom_site_label
_atom_site_fract_x
_atom_site_fract_y
_atom_site_fract_z
Si Si1 0.532315 0.036413 0.909072
Si Si2 0.326148 0.188041 0.102793
Si Si3 0.836975 0.869124 0.476006
Si Si4 0.023690 0.071752 0.162569
Si Si5 0.251477 0.870652 0.182517
Si Si6 0.667273 0.513073 0.570404
Si Si7 0.000000 0.753997 0.750000
O O1 0.532996 0.905944 0.899105
O O2 0.350351 0.070076 0.930723
O O3 0.682820 0.062649 0.949622
O O4 0.592979 0.094253 0.855924
O O5 0.312846 0.247822 0.047095
O O6 0.153024 0.126685 0.120452
O O7 0.349255 0.280574 0.147541
O O8 0.831502 0.901388 0.536145
O O9 0.015920 0.913274 0.453106
O O10 0.876655 0.015230 0.129728
O O11 0.964954 0.165471 0.201579
O O12 0.135312 0.977186 0.190646
O O13 0.337694 0.818075 0.232983
#
# Coordination Sequence:
#
# PCOD9455347 Si02
#       7
#     8   8   8   8   8   8   4
#     4  10  20  38  60  87 125 165 211 250 306 378
#     4   9  17  38  59  82 123 170 196 250 317 354
#     4  10  21  39  57  88 131 168 202 251 311 366
#     4  10  20  40  63  90 127 164 212 267 315 385
#     4   9  19  40  63  84 128 164 198 273 321 367
#     4  11  21  37  61  89 126 165 206 257 308 374
#     4  10  22  38  70  92 116 174 212 262 344 374
#
# _framework density 21.242543000000001
#
# number of rings (size 3 to 8) (size 9 to 14) (size 15 to 20)
#    0.000    2.154    4.615    0.462    0.000    2.462 
#    8.308    1.538    0.000    3.692    0.000    0.000 
#    0.000    0.000    0.000    0.000    0.000    0.000 
#
# Total GULP energy -290318.412801 kJ/mol
# GULP energy per Si atom -5583.046400 kJ/mol
# Density = 2.119419 g / cm^3
# Si number density = 21.242543 Si / 1000 Ang^3
#
#
#
# Elastic Constant Matrix: (Units=GPa)
#
#
# Indices 1 2 3 4 5 6 
#
# 1 115.3333 27.0523 36.9203 0.0000 0.0000 0.0000
# 2 27.0523 86.0953 16.9179 0.0000 0.0000 0.0000
# 3 36.9203 16.9179 66.3408 0.0000 0.0000 0.0000
# 4 0.0000 0.0000 0.0000 28.2984 0.0000 0.0000
# 5 0.0000 0.0000 0.0000 0.0000 19.4515 0.0000
# 6 0.0000 0.0000 0.0000 0.0000 0.0000 -0.2429
#
#
#
# Elastic Compliance Matrix: (Units=1/GPa)
#
#
# Indices 1 2 3 4 5 6 
#
# 1 0.010991 -0.002370 -0.005512 0.000000 0.000000 0.000000
# 2 -0.002370 0.012739 -0.001929 0.000000 0.000000 0.000000
# 3 -0.005512 -0.001929 0.018633 0.000000 0.000000 0.000000
# 4 0.000000 0.000000 0.000000 0.035338 0.000000 0.000000
# 5 0.000000 0.000000 0.000000 0.000000 0.051410 0.000000
# 6 0.000000 0.000000 0.000000 0.000000 0.000000 -4.116291
#
#
# Mechanical properties :
#
#
# Convention : Reuss Voigt Hill
#
# Bulk Modulus (GPa) = 43.97688 47.72781 45.85235
# Shear Modulus (GPa) = -1.26263 21.96001 10.34869
#
# Velocity S-wave (km/s) = -0.77180 3.21873 2.20958
# Velocity P-wave (km/s) = 4.46687 6.02747 5.30487
#
# Compressibility (1/GPa) = 0.02273922
#
# Stress axis : x y z
#
# Youngs Moduli (GPa) = 90.98265 78.49926 53.66692
#
# Poissons Ratio (x) = 0.18607 0.29583
# Poissons Ratio (y) = 0.21566 0.10355
# Poissons Ratio (z) = 0.50153 0.15146
#
# Static dielectric constant tensor:
#      x y z
#    x 1.771640 0.000000 0.000000 
#    y 0.000000 1.800130 0.000000 
#    z 0.000000 0.000000 1.766620 
# 
# From -- ./inp_files/25169.got.cif
#   From: 2010.05.17/outbox.cif.g08.bks.cpg/sg60_13_cif.got.tgz:25169.got - 2010.06.03 14:59:27.
