data_PCOD9455576
_publ_section_title
;
Structure prediction by ZEFSAII (Michael W. Deem and Ramdas Pophale) SiO2 
 PCOD9455576
Probable space group: P B C N
;
_chemical_formula_sum "Si O2"
_cell_formula_units_Z 56
_cell_length_a 16.038496
_cell_length_b 10.272454
_cell_length_c 16.410086
_cell_angle_alpha 90.000000
_cell_angle_beta 90.000000
_cell_angle_gamma 90.000000
_cell_volume 2703.638999
_symmetry_space_group_name_H-M "P B C N"
_symmetry_group_IT_number 60
_symmetry_cell_setting 'orthorhombic'
loop_
_space_group_symop_operation_xyz
x,y,z
1/2-x,1/2-y,1/2+z
1/2+x,1/2-y,-z
-x,y,1/2-z
-x,-y,-z
1/2+x,1/2+y,1/2-z
1/2-x,1/2+y,z
x,-y,1/2+z
loop_
_atom_site_type_symbol
_atom_site_label
_atom_site_fract_x
_atom_site_fract_y
_atom_site_fract_z
Si Si1 0.335623 0.299259 0.837186
Si Si2 0.579451 0.411323 0.519165
Si Si3 0.448953 0.041548 0.832726
Si Si4 0.753588 0.018924 0.932703
Si Si5 0.330177 0.137959 0.418460
Si Si6 0.683440 0.272732 0.849070
Si Si7 0.537864 0.802561 0.451965
O O1 0.383059 0.412295 0.888514
O O2 0.394842 0.173617 0.832396
O O3 0.248772 0.282785 0.886115
O O4 0.313276 0.320745 0.743355
O O5 0.500000 0.500000 0.500000
O O6 0.652946 0.438786 0.456720
O O7 0.544455 0.265372 0.514876
O O8 0.500000 0.028081 0.750000
O O9 0.511301 0.061459 0.910062
O O10 0.383633 0.927128 0.847649
O O11 0.714935 0.126200 0.870626
O O12 0.760717 0.873940 0.899566
O O13 0.703760 0.029857 0.017663
O O14 0.395500 0.209753 0.476061
O O15 0.586882 0.272547 0.879176
#
# Coordination Sequence:
#
# PCOD9455576 Si02
#       7
#     8   8   8   8   8   8   8
#     4  10  24  39  63  91 127 169 210 264 324 392
#     4  10  20  40  64  90 122 164 215 266 315 387
#     4  11  22  40  63  92 127 168 215 267 335 387
#     4  10  24  40  65  93 125 171 217 265 319 394
#     4  10  24  39  63  90 124 173 214 270 312 393
#     4  11  22  42  62  94 128 167 215 264 327 384
#     4  10  21  39  64  90 123 164 217 260 326 384
#
# _framework density 20.712823
#
# number of rings (size 3 to 8) (size 9 to 14) (size 15 to 20)
#    0.000    1.714    2.857    0.429   10.000    0.000 
#    2.571    0.000    0.000    0.000    0.000    0.000 
#    0.000    0.000    0.000    0.000    0.000    0.000 
#
# Total GULP energy -312136.314263 kJ/mol
# GULP energy per Si atom -5573.862755 kJ/mol
# Density = 2.066568 g / cm^3
# Si number density = 20.712823 Si / 1000 Ang^3
#
#
#
# Elastic Constant Matrix: (Units=GPa)
#
#
# Indices 1 2 3 4 5 6 
#
# 1 94.1027 7.3085 34.1096 0.0000 0.0000 0.0000
# 2 7.3085 30.8624 4.9286 0.0000 0.0000 0.0000
# 3 34.1096 4.9286 84.3192 0.0000 0.0000 0.0000
# 4 0.0000 0.0000 0.0000 19.2390 0.0000 0.0000
# 5 0.0000 0.0000 0.0000 0.0000 33.6548 0.0000
# 6 0.0000 0.0000 0.0000 0.0000 0.0000 30.2193
#
#
#
# Elastic Compliance Matrix: (Units=1/GPa)
#
#
# Indices 1 2 3 4 5 6 
#
# 1 0.012598 -0.002190 -0.004968 0.000000 0.000000 0.000000
# 2 -0.002190 0.033088 -0.001048 0.000000 0.000000 0.000000
# 3 -0.004968 -0.001048 0.013931 0.000000 0.000000 0.000000
# 4 0.000000 0.000000 0.000000 0.051978 0.000000 0.000000
# 5 0.000000 0.000000 0.000000 0.000000 0.029713 0.000000
# 6 0.000000 0.000000 0.000000 0.000000 0.000000 0.033091
#
#
# Mechanical properties :
#
#
# Convention : Reuss Voigt Hill
#
# Bulk Modulus (GPa) = 23.14609 33.55308 28.34958
# Shear Modulus (GPa) = 24.36501 27.48511 25.92506
#
# Velocity S-wave (km/s) = 3.43348 3.64670 3.54169
# Velocity P-wave (km/s) = 5.18820 5.82800 5.51738
#
# Compressibility (1/GPa) = 0.04320385
#
# Stress axis : x y z
#
# Youngs Moduli (GPa) = 79.38046 30.22260 71.78390
#
# Poissons Ratio (x) = 0.06618 0.35663
# Poissons Ratio (y) = 0.17383 0.07524
# Poissons Ratio (z) = 0.39437 0.03168
#
# Static dielectric constant tensor:
#      x y z
#    x 1.786900 0.000000 0.000000 
#    y 0.000000 1.766240 0.000000 
#    z 0.000000 0.000000 1.786500 
# 
# From -- ./inp_files/16836.got.cif
#   From: 2010.05.17/outbox.cif.g08.bks.cpg/sg60_9_cif.got.tgz:16836.got - 2010.06.03 14:59:27.
