data_PCOD9455140
_publ_section_title
;
Structure prediction by ZEFSAII (Michael W. Deem and Ramdas Pophale) SiO2 
 PCOD9455140
Probable space group: P B C N
;
_chemical_formula_sum "Si O2"
_cell_formula_units_Z 64
_cell_length_a 27.553247
_cell_length_b 17.989906
_cell_length_c 5.434703
_cell_angle_alpha 90.000000
_cell_angle_beta 90.000000
_cell_angle_gamma 90.000000
_cell_volume 2693.875341
_symmetry_space_group_name_H-M "P B C N"
_symmetry_group_IT_number 60
_symmetry_cell_setting 'orthorhombic'
loop_
_space_group_symop_operation_xyz
x,y,z
1/2-x,1/2-y,1/2+z
1/2+x,1/2-y,-z
-x,y,1/2-z
-x,-y,-z
1/2+x,1/2+y,1/2-z
1/2-x,1/2+y,z
x,-y,1/2+z
loop_
_atom_site_type_symbol
_atom_site_label
_atom_site_fract_x
_atom_site_fract_y
_atom_site_fract_z
Si Si1 0.411063 0.024950 0.000515
Si Si2 0.556424 0.697198 0.256644
Si Si3 0.800733 0.464864 0.567161
Si Si4 0.678942 0.298666 0.183396
Si Si5 0.444121 0.600585 0.742904
Si Si6 0.625256 0.813811 0.028058
Si Si7 0.652339 0.533285 0.757691
Si Si8 0.711929 0.186187 0.851157
O O1 0.402411 0.111972 0.051869
O O2 0.435125 0.013139 0.735303
O O3 0.358249 0.984366 0.955195
O O4 0.500000 0.720532 0.250000
O O5 0.563888 0.652633 0.513327
O O6 0.591422 0.767761 0.216694
O O7 0.563594 0.645323 0.014043
O O8 0.780027 0.498661 0.313523
O O9 0.792453 0.376635 0.560134
O O10 0.642027 0.244451 0.322049
O O11 0.663665 0.382668 0.188719
O O12 0.687690 0.264442 0.917265
O O13 0.732577 0.297953 0.299716
O O14 0.500000 0.576196 0.750000
O O15 0.406240 0.533440 0.743400
O O16 0.676248 0.843446 0.140684
O O17 0.670177 0.483700 0.531664
#
# Coordination Sequence:
#
# PCOD9455140 Si02
#       8
#     8   8   8   8   8   8   8   8
#     4  10  20  36  58  92 122 161 214 251 317 382
#     4  10  22  40  70 104 131 170 223 281 344 400
#     4  10  20  38  59  88 123 158 211 259 307 377
#     4  12  27  43  64  97 128 176 231 275 334 402
#     4  10  21  43  71  99 133 170 227 283 332 413
#     4  12  23  41  69  92 132 176 209 293 324 392
#     4  12  28  47  67  97 142 184 220 280 356 404
#     4  12  25  40  68  92 130 173 228 276 325 390
#
# _framework density 23.757595999999999
#
# number of rings (size 3 to 8) (size 9 to 14) (size 15 to 20)
#    0.000    1.000    5.000    3.000    1.750    1.500 
#    0.000    0.000    0.000    0.750    0.000    0.000 
#    0.000    0.000    0.000    0.000    0.000    0.000 
#
# Total GULP energy -357876.308853 kJ/mol
# GULP energy per Si atom -5591.817326 kJ/mol
# Density = 2.370352 g / cm^3
# Si number density = 23.757596 Si / 1000 Ang^3
#
#
#
# Elastic Constant Matrix: (Units=GPa)
#
#
# Indices 1 2 3 4 5 6 
#
# 1 57.3920 -4.2599 20.8813 0.0000 0.0000 0.0000
# 2 -4.2599 61.3826 11.7438 0.0000 0.0000 0.0000
# 3 20.8813 11.7438 119.9488 0.0000 0.0000 0.0000
# 4 0.0000 0.0000 0.0000 35.8545 0.0000 0.0000
# 5 0.0000 0.0000 0.0000 0.0000 26.4303 0.0000
# 6 0.0000 0.0000 0.0000 0.0000 0.0000 13.7266
#
#
#
# Elastic Compliance Matrix: (Units=1/GPa)
#
#
# Indices 1 2 3 4 5 6 
#
# 1 0.018833 0.001971 -0.003472 0.000000 0.000000 0.000000
# 2 0.001971 0.016809 -0.001989 0.000000 0.000000 0.000000
# 3 -0.003472 -0.001989 0.009136 0.000000 0.000000 0.000000
# 4 0.000000 0.000000 0.000000 0.027891 0.000000 0.000000
# 5 0.000000 0.000000 0.000000 0.000000 0.037835 0.000000
# 6 0.000000 0.000000 0.000000 0.000000 0.000000 0.072851
#
#
# Mechanical properties :
#
#
# Convention : Reuss Voigt Hill
#
# Bulk Modulus (GPa) = 26.45537 32.82821 29.64179
# Shear Modulus (GPa) = 24.63862 29.22616 26.93239
#
# Velocity S-wave (km/s) = 3.22387 3.51120 3.37060
# Velocity P-wave (km/s) = 5.00175 5.50327 5.25849
#
# Compressibility (1/GPa) = 0.03779951
#
# Stress axis : x y z
#
# Youngs Moduli (GPa) = 53.09706 59.49343 109.45754
#
# Poissons Ratio (x) = -0.11727 0.37999
# Poissons Ratio (y) = -0.10467 0.21769
# Poissons Ratio (z) = 0.18433 0.11832
#
# Static dielectric constant tensor:
#      x y z
#    x 1.942230 0.000000 0.000000 
#    y 0.000000 1.874940 0.000000 
#    z 0.000000 0.000000 2.002130 
# 
# From -- ./inp_files/2735.got.cif
#   From: 2010.05.17/outbox.cif.g08.bks.cpg/sg60_2_cif.got.tgz:2735.got - 2010.06.03 14:59:27.
