data_PCOD9455205
_publ_section_title
;
Structure prediction by ZEFSAII (Michael W. Deem and Ramdas Pophale) SiO2 
 PCOD9455205
Probable space group: P B C N
;
_chemical_formula_sum "Si O2"
_cell_formula_units_Z 44
_cell_length_a 14.510098
_cell_length_b 16.113670
_cell_length_c 9.011641
_cell_angle_alpha 90.000000
_cell_angle_beta 90.000000
_cell_angle_gamma 90.000000
_cell_volume 2107.020171
_symmetry_space_group_name_H-M "P B C N"
_symmetry_group_IT_number 60
_symmetry_cell_setting 'orthorhombic'
loop_
_space_group_symop_operation_xyz
x,y,z
1/2-x,1/2-y,1/2+z
1/2+x,1/2-y,-z
-x,y,1/2-z
-x,-y,-z
1/2+x,1/2+y,1/2-z
1/2-x,1/2+y,z
x,-y,1/2+z
loop_
_atom_site_type_symbol
_atom_site_label
_atom_site_fract_x
_atom_site_fract_y
_atom_site_fract_z
Si Si1 0.500000 0.346888 0.250000
Si Si2 0.294151 0.839737 0.119709
Si Si3 0.384052 0.614500 0.226964
Si Si4 0.032805 0.253562 0.021184
Si Si5 0.679978 0.764845 0.088325
Si Si6 0.134461 0.955942 0.040477
O O1 0.446386 0.285178 0.360967
O O2 0.567160 0.401835 0.352620
O O3 0.290857 0.835890 0.297992
O O4 0.235693 0.916268 0.059936
O O5 0.399283 0.827552 0.067554
O O6 0.243965 0.758937 0.047770
O O7 0.319606 0.681674 0.309070
O O8 0.404103 0.555811 0.372596
O O9 0.358475 0.548644 0.100926
O O10 0.448507 0.677909 0.134517
O O11 0.925243 0.275831 0.035052
#
# Coordination Sequence:
#
# PCOD9455205 Si02
#       6
#     4   8   8   8   8   8
#     4  12  22  32  54  84 112 148 186 220 284 348
#     4  10  20  37  54  80 119 144 191 233 273 347
#     4  10  21  37  52  81 116 153 179 227 280 352
#     4  11  22  38  59  84 118 151 189 234 288 344
#     4  10  21  37  57  86 111 154 186 230 291 334
#     4  11  23  34  55  86 116 155 184 224 291 340
#
# _framework density 20.882573000000001
#
# number of rings (size 3 to 8) (size 9 to 14) (size 15 to 20)
#    0.000    1.455    3.636    4.364    2.545    2.909 
#    0.000    0.000    0.000    0.000    0.000   45.818 
#    0.000    0.000    0.000    0.000    0.000    0.000 
#
# Total GULP energy -245182.872948 kJ/mol
# GULP energy per Si atom -5572.338022 kJ/mol
# Density = 2.083504 g / cm^3
# Si number density = 20.882573 Si / 1000 Ang^3
#
#
#
# Elastic Constant Matrix: (Units=GPa)
#
#
# Indices 1 2 3 4 5 6 
#
# 1 64.8636 3.4571 17.0189 0.0000 0.0000 0.0000
# 2 3.4571 22.0087 -7.5082 0.0000 0.0000 0.0000
# 3 17.0189 -7.5082 99.4876 0.0000 0.0000 0.0000
# 4 0.0000 0.0000 0.0000 31.9756 0.0000 0.0000
# 5 0.0000 0.0000 0.0000 0.0000 33.7736 0.0000
# 6 0.0000 0.0000 0.0000 0.0000 0.0000 1.1520
#
#
#
# Elastic Compliance Matrix: (Units=1/GPa)
#
#
# Indices 1 2 3 4 5 6 
#
# 1 0.016419 -0.003631 -0.003083 0.000000 0.000000 0.000000
# 2 -0.003631 0.047440 0.004201 0.000000 0.000000 0.000000
# 3 -0.003083 0.004201 0.010896 0.000000 0.000000 0.000000
# 4 0.000000 0.000000 0.000000 0.031274 0.000000 0.000000
# 5 0.000000 0.000000 0.000000 0.000000 0.029609 0.000000
# 6 0.000000 0.000000 0.000000 0.000000 0.000000 0.868019
#
#
# Mechanical properties :
#
#
# Convention : Reuss Voigt Hill
#
# Bulk Modulus (GPa) = 14.34084 23.58837 18.96461
# Shear Modulus (GPa) = 4.84531 24.93973 14.89252
#
# Velocity S-wave (km/s) = 1.52489 3.45959 2.67339
# Velocity P-wave (km/s) = 3.15954 5.22289 4.31632
#
# Compressibility (1/GPa) = 0.06973091
#
# Stress axis : x y z
#
# Youngs Moduli (GPa) = 60.90374 21.07922 91.77734
#
# Poissons Ratio (x) = 0.07653 0.28293
# Poissons Ratio (y) = 0.22113 -0.38559
# Poissons Ratio (z) = 0.18775 -0.08856
#
# Static dielectric constant tensor:
#      x y z
#    x 1.847560 0.000000 0.000000 
#    y 0.000000 1.753840 0.000000 
#    z 0.000000 0.000000 1.815880 
# 
# From -- ./inp_files/5850.got.cif
#   From: 2010.05.17/outbox.cif.g08.bks.cpg/sg60_3_cif.got.tgz:5850.got - 2010.06.03 14:59:27.
