data_PCOD9455162
_publ_section_title
;
Structure prediction by ZEFSAII (Michael W. Deem and Ramdas Pophale) SiO2 
 PCOD9455162
Probable space group: P B C N
;
_chemical_formula_sum "Si O2"
_cell_formula_units_Z 52
_cell_length_a 8.652877
_cell_length_b 18.988693
_cell_length_c 14.497893
_cell_angle_alpha 90.000000
_cell_angle_beta 90.000000
_cell_angle_gamma 90.000000
_cell_volume 2382.102767
_symmetry_space_group_name_H-M "P B C N"
_symmetry_group_IT_number 60
_symmetry_cell_setting 'orthorhombic'
loop_
_space_group_symop_operation_xyz
x,y,z
1/2-x,1/2-y,1/2+z
1/2+x,1/2-y,-z
-x,y,1/2-z
-x,-y,-z
1/2+x,1/2+y,1/2-z
1/2-x,1/2+y,z
x,-y,1/2+z
loop_
_atom_site_type_symbol
_atom_site_label
_atom_site_fract_x
_atom_site_fract_y
_atom_site_fract_z
Si Si1 0.183280 0.811722 0.100922
Si Si2 0.000000 0.450027 0.750000
Si Si3 0.474715 0.790317 0.471626
Si Si4 0.330907 0.819396 0.293493
Si Si5 0.708470 0.530944 0.681112
Si Si6 0.604798 0.474983 0.392839
Si Si7 0.394673 0.939889 0.552310
O O1 0.345478 0.795672 0.051240
O O2 0.223543 0.796183 0.208246
O O3 0.136277 0.893017 0.084331
O O4 0.057969 0.762025 0.054737
O O5 0.872973 0.493945 0.691905
O O6 0.922265 0.416203 0.839895
O O7 0.380383 0.769757 0.378114
O O8 0.419289 0.868514 0.497096
O O9 0.500000 0.841197 0.250000
O O10 0.241861 0.886995 0.332692
O O11 0.576156 0.504969 0.611372
O O12 0.649174 0.522824 0.785125
O O13 0.724543 0.526193 0.442689
O O14 0.500000 0.000000 0.500000
#
# Coordination Sequence:
#
# PCOD9455162 Si02
#       7
#     8   4   8   8   8   8   8
#     4  10  22  41  61  94 123 165 217 265 319 399
#     4  10  20  36  60  92 130 164 212 270 342 390
#     4  11  23  41  64  88 126 166 213 268 337 397
#     4   9  18  37  64  84 117 172 212 250 314 396
#     4   9  16  32  61  90 117 168 215 256 309 393
#     4   9  19  35  60  92 126 159 216 264 314 390
#     4  11  21  41  63  91 126 172 214 269 338 410
#
# _framework density 21.829452
#
# number of rings (size 3 to 8) (size 9 to 14) (size 15 to 20)
#    0.000    2.154    2.308    0.923    2.154    0.000 
#    2.769    4.615   16.923    0.000    0.000    0.000 
#    0.000    0.000    0.000    0.000    0.000    0.000 
#
# Total GULP energy -289650.864459 kJ/mol
# GULP energy per Si atom -5570.208932 kJ/mol
# Density = 2.177977 g / cm^3
# Si number density = 21.829452 Si / 1000 Ang^3
#
#
#
# Elastic Constant Matrix: (Units=GPa)
#
#
# Indices 1 2 3 4 5 6 
#
# 1 78.6370 -2.8401 10.7366 0.0000 0.0000 0.0000
# 2 -2.8401 31.1809 -9.1902 0.0000 0.0000 0.0000
# 3 10.7366 -9.1902 68.2793 0.0000 0.0000 0.0000
# 4 0.0000 0.0000 0.0000 -8.3698 0.0000 0.0000
# 5 0.0000 0.0000 0.0000 0.0000 51.4462 0.0000
# 6 0.0000 0.0000 0.0000 0.0000 0.0000 13.6995
#
#
#
# Elastic Compliance Matrix: (Units=1/GPa)
#
#
# Indices 1 2 3 4 5 6 
#
# 1 0.013007 0.000606 -0.001964 0.000000 0.000000 0.000000
# 2 0.000606 0.033424 0.004403 0.000000 0.000000 0.000000
# 3 -0.001964 0.004403 0.015547 0.000000 0.000000 0.000000
# 4 0.000000 0.000000 0.000000 -0.119477 0.000000 0.000000
# 5 0.000000 0.000000 0.000000 0.000000 0.019438 0.000000
# 6 0.000000 0.000000 0.000000 0.000000 0.000000 0.072995
#
#
# Mechanical properties :
#
#
# Convention : Reuss Voigt Hill
#
# Bulk Modulus (GPa) = 14.69090 19.50109 17.09600
# Shear Modulus (GPa) = 97.02730 23.31458 60.17094
#
# Velocity S-wave (km/s) = 6.67416 3.27162 5.25585
# Velocity P-wave (km/s) = 8.13246 4.81914 6.68435
#
# Compressibility (1/GPa) = 0.06806933
#
# Stress axis : x y z
#
# Youngs Moduli (GPa) = 76.88370 29.91867 64.32021
#
# Poissons Ratio (x) = -0.01813 0.12630
# Poissons Ratio (y) = -0.04659 -0.28323
# Poissons Ratio (z) = 0.15098 -0.13175
#
# Static dielectric constant tensor:
#      x y z
#    x 1.928620 0.000000 0.000000 
#    y 0.000000 1.751090 0.000000 
#    z 0.000000 0.000000 2.028990 
# 
# From -- ./inp_files/15192.got.cif
#   From: 2010.05.17/outbox.cif.g08.bks.cpg/sg60_8_cif.got.tgz:15192.got - 2010.06.03 14:59:27.
