data_PCOD9455285
_publ_section_title
;
Structure prediction by ZEFSAII (Michael W. Deem and Ramdas Pophale) SiO2 
 PCOD9455285
Probable space group: P B C N
;
_chemical_formula_sum "Si O2"
_cell_formula_units_Z 56
_cell_length_a 11.862580
_cell_length_b 9.319388
_cell_length_c 21.202291
_cell_angle_alpha 90.000000
_cell_angle_beta 90.000000
_cell_angle_gamma 90.000000
_cell_volume 2343.955371
_symmetry_space_group_name_H-M "P B C N"
_symmetry_group_IT_number 60
_symmetry_cell_setting 'orthorhombic'
loop_
_space_group_symop_operation_xyz
x,y,z
1/2-x,1/2-y,1/2+z
1/2+x,1/2-y,-z
-x,y,1/2-z
-x,-y,-z
1/2+x,1/2+y,1/2-z
1/2-x,1/2+y,z
x,-y,1/2+z
loop_
_atom_site_type_symbol
_atom_site_label
_atom_site_fract_x
_atom_site_fract_y
_atom_site_fract_z
Si Si1 0.796933 0.555068 0.140961
Si Si2 0.097200 0.107183 0.025833
Si Si3 0.347052 0.295684 0.647713
Si Si4 0.988386 0.736311 0.317082
Si Si5 0.298065 0.213524 0.944361
Si Si6 0.800094 0.493982 0.281844
Si Si7 0.857232 0.824834 0.431373
O O1 0.827422 0.428739 0.093295
O O2 0.708429 0.654415 0.104140
O O3 0.767083 0.486075 0.208473
O O4 0.899648 0.656962 0.160710
O O5 0.062066 0.182513 0.091962
O O6 0.183303 0.981375 0.048609
O O7 0.170695 0.196267 0.975488
O O8 0.000000 0.000000 0.000000
O O9 0.348694 0.158733 0.694303
O O10 0.310487 0.439420 0.684274
O O11 0.242663 0.253727 0.603471
O O12 0.896149 0.612478 0.298918
O O13 0.951925 0.825817 0.378062
O O14 0.000000 0.816334 0.250000
O O15 0.379589 0.240460 0.003948
#
# Coordination Sequence:
#
# PCOD9455285 Si02
#       7
#     8   8   8   8   8   8   8
#     4  11  22  40  60  89 127 163 210 263 321 389
#     4  11  22  37  60  88 127 159 206 265 318 378
#     4  10  20  37  63  89 118 160 214 259 319 378
#     4   9  21  38  63  88 121 163 211 258 321 386
#     4  11  23  38  61  89 125 165 207 256 324 383
#     4  10  20  38  63  89 120 165 211 267 316 381
#     4  10  20  38  60  88 119 160 205 253 308 387
#
# _framework density 23.89124
#
# number of rings (size 3 to 8) (size 9 to 14) (size 15 to 20)
#    0.000    1.714    2.857    1.714    0.000    1.714 
#    0.000    0.000    0.000    0.000    0.000    0.000 
#    0.000    0.000    0.000    0.000    0.000    0.000 
#
# Total GULP energy -312281.079360 kJ/mol
# GULP energy per Si atom -5576.447846 kJ/mol
# Density = 2.383686 g / cm^3
# Si number density = 23.891240 Si / 1000 Ang^3
#
#
#
# Elastic Constant Matrix: (Units=GPa)
#
#
# Indices 1 2 3 4 5 6 
#
# 1 33.3069 -4.1827 28.2691 0.0000 0.0000 0.0000
# 2 -4.1827 73.7390 34.4425 0.0000 0.0000 0.0000
# 3 28.2691 34.4425 183.1733 0.0000 0.0000 0.0000
# 4 0.0000 0.0000 0.0000 53.4006 0.0000 0.0000
# 5 0.0000 0.0000 0.0000 0.0000 31.6171 0.0000
# 6 0.0000 0.0000 0.0000 0.0000 0.0000 18.6168
#
#
#
# Elastic Compliance Matrix: (Units=1/GPa)
#
#
# Indices 1 2 3 4 5 6 
#
# 1 0.036228 0.005116 -0.006553 0.000000 0.000000 0.000000
# 2 0.005116 0.015589 -0.003721 0.000000 0.000000 0.000000
# 3 -0.006553 -0.003721 0.007170 0.000000 0.000000 0.000000
# 4 0.000000 0.000000 0.000000 0.018726 0.000000 0.000000
# 5 0.000000 0.000000 0.000000 0.000000 0.031628 0.000000
# 6 0.000000 0.000000 0.000000 0.000000 0.000000 0.053715
#
#
# Mechanical properties :
#
#
# Convention : Reuss Voigt Hill
#
# Bulk Modulus (GPa) = 20.54581 45.25301 32.89941
# Shear Modulus (GPa) = 26.37164 36.17292 31.27228
#
# Velocity S-wave (km/s) = 3.32598 3.89532 3.62186
# Velocity P-wave (km/s) = 4.83404 6.26209 5.59382
#
# Compressibility (1/GPa) = 0.04867173
#
# Stress axis : x y z
#
# Youngs Moduli (GPa) = 27.60289 64.14577 139.46454
#
# Poissons Ratio (x) = -0.32816 0.91391
# Poissons Ratio (y) = -0.14121 0.51893
# Poissons Ratio (z) = 0.18088 0.23868
#
# Static dielectric constant tensor:
#      x y z
#    x 2.078550 0.000000 0.000000 
#    y 0.000000 1.931770 0.000000 
#    z 0.000000 0.000000 2.049140 
# 
# From -- ./inp_files/22918.got.cif
#   From: 2010.05.17/outbox.cif.g08.bks.cpg/sg60_12_cif.got.tgz:22918.got - 2010.06.03 14:59:27.
