data_PCOD9455035
_publ_section_title
;
Structure prediction by ZEFSAII (Michael W. Deem and Ramdas Pophale) SiO2 
 PCOD9455035
Probable space group: P B C N
;
_chemical_formula_sum "Si O2"
_cell_formula_units_Z 48
_cell_length_a 25.631411
_cell_length_b 9.424198
_cell_length_c 8.104328
_cell_angle_alpha 90.000000
_cell_angle_beta 90.000000
_cell_angle_gamma 90.000000
_cell_volume 1957.644940
_symmetry_space_group_name_H-M "P B C N"
_symmetry_group_IT_number 60
_symmetry_cell_setting 'orthorhombic'
loop_
_space_group_symop_operation_xyz
x,y,z
1/2-x,1/2-y,1/2+z
1/2+x,1/2-y,-z
-x,y,1/2-z
-x,-y,-z
1/2+x,1/2+y,1/2-z
1/2-x,1/2+y,z
x,-y,1/2+z
loop_
_atom_site_type_symbol
_atom_site_label
_atom_site_fract_x
_atom_site_fract_y
_atom_site_fract_z
Si Si1 0.217983 0.045267 0.704057
Si Si2 0.621069 0.197266 0.005328
Si Si3 0.559221 0.213428 0.687178
Si Si4 0.598605 0.532617 0.690229
Si Si5 0.557066 0.811486 0.815204
Si Si6 0.261106 0.186671 0.396927
O O1 0.157641 0.020608 0.743883
O O2 0.221397 0.122888 0.528996
O O3 0.242185 0.152622 0.838758
O O4 0.250973 0.903382 0.730355
O O5 0.595969 0.154807 0.832982
O O6 0.606082 0.365298 0.029113
O O7 0.596716 0.136357 0.174586
O O8 0.682231 0.171701 0.020550
O O9 0.500000 0.199430 0.750000
O O10 0.573454 0.380323 0.668795
O O11 0.565329 0.148566 0.504540
O O12 0.564605 0.639797 0.802524
O O13 0.500000 0.849061 0.750000
#
# Coordination Sequence:
#
# PCOD9455035 Si02
#       6
#     8   8   8   8   8   8
#     4  11  25  42  71  94 143 179 239 285 354 403
#     4   9  23  38  55  90 132 168 226 268 340 411
#     4  12  20  33  60  91 135 181 215 277 360 420
#     4   9  22  33  54  89 132 170 217 280 340 414
#     4  10  20  35  54  89 134 171 215 280 344 407
#     4  11  25  46  66 102 137 186 231 295 343 424
#
# _framework density 24.519255999999999
#
# number of rings (size 3 to 8) (size 9 to 14) (size 15 to 20)
#    1.000    0.667    1.667    2.500    9.333    2.000 
#    3.000    0.000    0.000    0.000    0.000    3.500 
#    0.000    0.000    0.000    0.000    0.000    0.000 
#
# Total GULP energy -268379.511227 kJ/mol
# GULP energy per Si atom -5591.239817 kJ/mol
# Density = 2.446345 g / cm^3
# Si number density = 24.519256 Si / 1000 Ang^3
#
#
#
# Elastic Constant Matrix: (Units=GPa)
#
#
# Indices 1 2 3 4 5 6 
#
# 1 61.1861 15.0444 18.0151 0.0000 0.0000 0.0000
# 2 15.0444 103.0047 29.7446 0.0000 0.0000 0.0000
# 3 18.0151 29.7446 182.7461 0.0000 0.0000 0.0000
# 4 0.0000 0.0000 0.0000 32.1928 0.0000 0.0000
# 5 0.0000 0.0000 0.0000 0.0000 24.7230 0.0000
# 6 0.0000 0.0000 0.0000 0.0000 0.0000 -21.6943
#
#
#
# Elastic Compliance Matrix: (Units=1/GPa)
#
#
# Indices 1 2 3 4 5 6 
#
# 1 0.017266 -0.002130 -0.001355 0.000000 0.000000 0.000000
# 2 -0.002130 0.010450 -0.001491 0.000000 0.000000 0.000000
# 3 -0.001355 -0.001491 0.005848 0.000000 0.000000 0.000000
# 4 0.000000 0.000000 0.000000 0.031063 0.000000 0.000000
# 5 0.000000 0.000000 0.000000 0.000000 0.040448 0.000000
# 6 0.000000 0.000000 0.000000 0.000000 0.000000 -0.046095
#
#
# Mechanical properties :
#
#
# Convention : Reuss Voigt Hill
#
# Bulk Modulus (GPa) = 42.35244 52.50502 47.42873
# Shear Modulus (GPa) = 65.10021 25.98648 45.54335
#
# Velocity S-wave (km/s) = 5.15832 3.25905 4.31449
# Velocity P-wave (km/s) = 7.26556 5.96843 6.64870
#
# Compressibility (1/GPa) = 0.02361139
#
# Stress axis : x y z
#
# Youngs Moduli (GPa) = 57.91566 95.69398 170.98856
#
# Poissons Ratio (x) = 0.20387 0.23175
# Poissons Ratio (y) = 0.12339 0.25492
# Poissons Ratio (z) = 0.07850 0.14267
#
# Static dielectric constant tensor:
#      x y z
#    x 1.843500 0.000000 0.000000 
#    y 0.000000 1.988960 0.000000 
#    z 0.000000 0.000000 1.989660 
# 
# From -- ./inp_files/8385.got.cif
#   From: 2010.05.17/outbox.cif.g08.bks.cpg/sg60_5_cif.got.tgz:8385.got - 2010.06.03 14:59:27.
