data_PCOD9455825
_publ_section_title
;
Structure prediction by ZEFSAII (Michael W. Deem and Ramdas Pophale) SiO2 
 PCOD9455825
Probable space group: P B C N
;
_chemical_formula_sum "Si O2"
_cell_formula_units_Z 32
_cell_length_a 7.691620
_cell_length_b 16.827108
_cell_length_c 11.020898
_cell_angle_alpha 90.000000
_cell_angle_beta 90.000000
_cell_angle_gamma 90.000000
_cell_volume 1426.409705
_symmetry_space_group_name_H-M "P B C N"
_symmetry_group_IT_number 60
_symmetry_cell_setting 'orthorhombic'
loop_
_space_group_symop_operation_xyz
x,y,z
1/2-x,1/2-y,1/2+z
1/2+x,1/2-y,-z
-x,y,1/2-z
-x,-y,-z
1/2+x,1/2+y,1/2-z
1/2-x,1/2+y,z
x,-y,1/2+z
loop_
_atom_site_type_symbol
_atom_site_label
_atom_site_fract_x
_atom_site_fract_y
_atom_site_fract_z
Si Si1 0.758040 0.713373 0.830915
Si Si2 0.707811 0.472897 0.360800
Si Si3 0.181369 0.038426 0.381552
Si Si4 0.134607 0.226366 0.409306
O O1 0.735535 0.618879 0.829912
O O2 0.729122 0.743981 0.693697
O O3 0.953451 0.736724 0.868173
O O4 0.658368 0.746429 0.949146
O O5 0.777708 0.488887 0.496185
O O6 0.772544 0.523754 0.246953
O O7 0.501191 0.490991 0.373473
O O8 0.135054 0.130904 0.397628
#
# Coordination Sequence:
#
# PCOD9455825 Si02
#       4
#     8   8   8   8
#     4  10  21  35  57  87 114 147 188 237 283 336
#     4   9  17  30  53  80 103 135 189 231 265 317
#     4   9  18  33  55  79 105 148 192 223 267 344
#     4  10  22  39  59  84 116 149 191 236 285 336
#
# _framework density 22.433945000000001
#
# number of rings (size 3 to 8) (size 9 to 14) (size 15 to 20)
#    0.000    2.500    0.000    3.000    0.000   13.000 
#    0.000    0.000    0.000   54.000    0.000    0.000 
#    0.000    0.000    0.000    0.000    0.000    0.000 
#
# Total GULP energy -178363.963642 kJ/mol
# GULP energy per Si atom -5573.873864 kJ/mol
# Density = 2.238288 g / cm^3
# Si number density = 22.433945 Si / 1000 Ang^3
#
#
#
# Elastic Constant Matrix: (Units=GPa)
#
#
# Indices 1 2 3 4 5 6 
#
# 1 34.2849 17.4602 31.4333 0.0000 0.0000 0.0000
# 2 17.4602 73.0248 36.5773 0.0000 0.0000 0.0000
# 3 31.4333 36.5773 169.2633 0.0000 0.0000 0.0000
# 4 0.0000 0.0000 0.0000 50.9245 0.0000 0.0000
# 5 0.0000 0.0000 0.0000 0.0000 18.5995 0.0000
# 6 0.0000 0.0000 0.0000 0.0000 0.0000 42.0345
#
#
#
# Elastic Compliance Matrix: (Units=1/GPa)
#
#
# Indices 1 2 3 4 5 6 
#
# 1 0.037453 -0.006135 -0.005629 0.000000 0.000000 0.000000
# 2 -0.006135 0.016361 -0.002396 0.000000 0.000000 0.000000
# 3 -0.005629 -0.002396 0.007471 0.000000 0.000000 0.000000
# 4 0.000000 0.000000 0.000000 0.019637 0.000000 0.000000
# 5 0.000000 0.000000 0.000000 0.000000 0.053765 0.000000
# 6 0.000000 0.000000 0.000000 0.000000 0.000000 0.023790
#
#
# Mechanical properties :
#
#
# Convention : Reuss Voigt Hill
#
# Bulk Modulus (GPa) = 30.33657 49.72384 40.03020
# Shear Modulus (GPa) = 25.27971 35.05186 30.16578
#
# Velocity S-wave (km/s) = 3.36050 3.95707 3.67092
# Velocity P-wave (km/s) = 5.34876 6.56434 5.98748
#
# Compressibility (1/GPa) = 0.03296351
#
# Stress axis : x y z
#
# Youngs Moduli (GPa) = 26.70000 61.12029 133.84731
#
# Poissons Ratio (x) = 0.37499 0.75349
# Poissons Ratio (y) = 0.16381 0.32073
# Poissons Ratio (z) = 0.15031 0.14646
#
# Static dielectric constant tensor:
#      x y z
#    x 1.839600 0.000000 0.000000 
#    y 0.000000 1.758370 0.000000 
#    z 0.000000 0.000000 2.023550 
# 
# From -- ./inp_files/9486.got.cif
#   From: 2010.05.17/outbox.cif.g08.bks.cpg/sg60_5_cif.got.tgz:9486.got - 2010.06.03 14:59:27.
