data_PCOD9455616
_publ_section_title
;
Structure prediction by ZEFSAII (Michael W. Deem and Ramdas Pophale) SiO2 
 PCOD9455616
Probable space group: P B C N
;
_chemical_formula_sum "Si O2"
_cell_formula_units_Z 52
_cell_length_a 5.587078
_cell_length_b 19.923700
_cell_length_c 20.003439
_cell_angle_alpha 90.000000
_cell_angle_beta 90.000000
_cell_angle_gamma 90.000000
_cell_volume 2226.688132
_symmetry_space_group_name_H-M "P B C N"
_symmetry_group_IT_number 60
_symmetry_cell_setting 'orthorhombic'
loop_
_space_group_symop_operation_xyz
x,y,z
1/2-x,1/2-y,1/2+z
1/2+x,1/2-y,-z
-x,y,1/2-z
-x,-y,-z
1/2+x,1/2+y,1/2-z
1/2-x,1/2+y,z
x,-y,1/2+z
loop_
_atom_site_type_symbol
_atom_site_label
_atom_site_fract_x
_atom_site_fract_y
_atom_site_fract_z
Si Si1 0.853175 0.740847 0.344282
Si Si2 0.000000 0.158792 0.750000
Si Si3 0.970450 0.509728 0.609124
Si Si4 0.000000 0.418604 0.250000
Si Si5 0.573079 0.280110 0.972122
Si Si6 0.648138 0.113152 0.178732
Si Si7 0.000000 0.809585 0.750000
Si Si8 0.320283 0.437852 0.511562
O O1 0.998278 0.805965 0.324931
O O2 0.646742 0.743956 0.398164
O O3 0.723914 0.731942 0.272723
O O4 0.004004 0.673630 0.356522
O O5 0.249257 0.119695 0.753884
O O6 0.031712 0.543751 0.679070
O O7 0.177231 0.464357 0.576127
O O8 0.798246 0.450766 0.634420
O O9 0.860521 0.557589 0.552508
O O10 0.308615 0.251058 0.989129
O O11 0.582268 0.361585 0.980947
O O12 0.500000 0.100538 0.250000
O O13 0.907272 0.142557 0.193260
O O14 0.500000 0.500000 0.500000
#
# Coordination Sequence:
#
# PCOD9455616 Si02
#       8
#     8   4   8   4   8   8   4   8
#     4  11  24  44  72 104 148 199 251 315 394 480
#     4  12  28  46  72 113 159 198 246 330 414 478
#     4  11  26  49  74 107 155 199 275 324 399 472
#     4  12  31  47  78 115 154 205 258 332 402 468
#     4  12  32  50  79 115 158 213 273 330 397 485
#     4  10  20  40  69 108 134 183 253 315 382 452
#     4  10  21  37  74 108 141 177 254 310 394 454
#     4  11  29  50  79 109 160 221 268 334 399 486
#
# _framework density 23.353066999999999
#
# number of rings (size 3 to 8) (size 9 to 14) (size 15 to 20)
#    0.000    0.923    4.615    0.462   15.077    0.615 
#    0.000    0.000    0.000    0.000    0.000    0.000 
#    0.000    0.000    0.000    0.000    0.000    0.000 
#
# Total GULP energy -289796.676039 kJ/mol
# GULP energy per Si atom -5573.013001 kJ/mol
# Density = 2.329991 g / cm^3
# Si number density = 23.353067 Si / 1000 Ang^3
#
#
#
# Elastic Constant Matrix: (Units=GPa)
#
#
# Indices 1 2 3 4 5 6 
#
# 1 60.9420 29.2874 4.7572 0.0000 0.0000 0.0000
# 2 29.2874 112.7763 39.8949 0.0000 0.0000 0.0000
# 3 4.7572 39.8949 92.9859 0.0000 0.0000 0.0000
# 4 0.0000 0.0000 0.0000 24.0764 0.0000 0.0000
# 5 0.0000 0.0000 0.0000 0.0000 20.7947 0.0000
# 6 0.0000 0.0000 0.0000 0.0000 0.0000 -265.1567
#
#
#
# Elastic Compliance Matrix: (Units=1/GPa)
#
#
# Indices 1 2 3 4 5 6 
#
# 1 0.018890 -0.005380 0.001342 0.000000 0.000000 0.000000
# 2 -0.005380 0.011986 -0.004867 0.000000 0.000000 0.000000
# 3 0.001342 -0.004867 0.012774 0.000000 0.000000 0.000000
# 4 0.000000 0.000000 0.000000 0.041534 0.000000 0.000000
# 5 0.000000 0.000000 0.000000 0.000000 0.048089 0.000000
# 6 0.000000 0.000000 0.000000 0.000000 0.000000 -0.003771
#
#
# Mechanical properties :
#
#
# Convention : Reuss Voigt Hill
#
# Bulk Modulus (GPa) = 38.70163 46.06480 42.38321
# Shear Modulus (GPa) = 32.06637 -31.20614 0.43011
#
# Velocity S-wave (km/s) = 3.70957 -3.65948 0.42963
# Velocity P-wave (km/s) = 5.91238 1.38293 4.29353
#
# Compressibility (1/GPa) = 0.02583870
#
# Stress axis : x y z
#
# Youngs Moduli (GPa) = 52.93820 83.42940 78.28437
#
# Poissons Ratio (x) = 0.44888 -0.10506
# Poissons Ratio (y) = 0.28483 0.38103
# Poissons Ratio (z) = -0.07104 0.40608
#
# Static dielectric constant tensor:
#      x y z
#    x 1.940580 0.000000 0.000000 
#    y 0.000000 2.064310 0.000000 
#    z 0.000000 0.000000 1.715140 
# 
# From -- ./inp_files/21676.got.cif
#   From: 2010.05.17/outbox.cif.g08.bks.cpg/sg60_11_cif.got.tgz:21676.got - 2010.06.03 14:59:27.
