data_PCOD9455693
_publ_section_title
;
Structure prediction by ZEFSAII (Michael W. Deem and Ramdas Pophale) SiO2 
 PCOD9455693
Probable space group: P B C N
;
_chemical_formula_sum "Si O2"
_cell_formula_units_Z 52
_cell_length_a 18.254349
_cell_length_b 9.108328
_cell_length_c 13.154586
_cell_angle_alpha 90.000000
_cell_angle_beta 90.000000
_cell_angle_gamma 90.000000
_cell_volume 2187.168264
_symmetry_space_group_name_H-M "P B C N"
_symmetry_group_IT_number 60
_symmetry_cell_setting 'orthorhombic'
loop_
_space_group_symop_operation_xyz
x,y,z
1/2-x,1/2-y,1/2+z
1/2+x,1/2-y,-z
-x,y,1/2-z
-x,-y,-z
1/2+x,1/2+y,1/2-z
1/2-x,1/2+y,z
x,-y,1/2+z
loop_
_atom_site_type_symbol
_atom_site_label
_atom_site_fract_x
_atom_site_fract_y
_atom_site_fract_z
Si Si1 0.500000 0.184092 0.750000
Si Si2 0.829414 0.618126 0.518056
Si Si3 0.239829 0.268101 0.299347
Si Si4 0.596006 0.747718 0.681115
Si Si5 0.963087 0.413234 0.882236
Si Si6 0.381399 0.434798 0.740877
Si Si7 0.710002 0.585223 0.911433
O O1 0.432001 0.294314 0.750244
O O2 0.487465 0.072197 0.657225
O O3 0.810620 0.621026 0.636537
O O4 0.909218 0.579509 0.476869
O O5 0.815641 0.786707 0.485362
O O6 0.770963 0.516609 0.460903
O O7 0.319226 0.241334 0.349901
O O8 0.195711 0.117645 0.287297
O O9 0.257450 0.333569 0.188425
O O10 0.535068 0.812594 0.606889
O O11 0.581769 0.836043 0.787576
O O12 0.585110 0.575370 0.703016
O O13 0.358817 0.489888 0.628648
#
# Coordination Sequence:
#
# PCOD9455693 Si02
#       7
#     4   8   8   8   8   8   8
#     4  10  22  36  72  94 136 190 226 284 356 416
#     4  12  25  43  72 103 138 184 231 283 356 413
#     4  11  24  42  72 103 135 183 235 287 342 415
#     4   9  20  39  68  95 141 179 228 284 351 404
#     4  10  20  42  65 101 136 185 222 288 357 409
#     4  11  20  40  64  98 132 183 231 281 339 414
#     4  11  24  43  67 101 143 177 230 293 338 414
#
# _framework density 23.775034999999999
#
# number of rings (size 3 to 8) (size 9 to 14) (size 15 to 20)
#    0.000    1.538    4.615    1.846    4.308    3.692 
#    0.000    3.077    0.000    0.000    0.000    0.000 
#    0.000    0.000    0.000    0.000    0.000    0.000 
#
# Total GULP energy -291117.348082 kJ/mol
# GULP energy per Si atom -5598.410540 kJ/mol
# Density = 2.372092 g / cm^3
# Si number density = 23.775035 Si / 1000 Ang^3
#
#
#
# Elastic Constant Matrix: (Units=GPa)
#
#
# Indices 1 2 3 4 5 6 
#
# 1 98.8730 55.9646 7.0015 0.0000 0.0000 0.0000
# 2 55.9646 164.0910 8.5154 0.0000 0.0000 0.0000
# 3 7.0015 8.5154 37.9943 0.0000 0.0000 0.0000
# 4 0.0000 0.0000 0.0000 32.9360 0.0000 0.0000
# 5 0.0000 0.0000 0.0000 0.0000 35.4467 0.0000
# 6 0.0000 0.0000 0.0000 0.0000 0.0000 53.6815
#
#
#
# Elastic Compliance Matrix: (Units=1/GPa)
#
#
# Indices 1 2 3 4 5 6 
#
# 1 0.012604 -0.004227 -0.001375 0.000000 0.000000 0.000000
# 2 -0.004227 0.007584 -0.000921 0.000000 0.000000 0.000000
# 3 -0.001375 -0.000921 0.026779 0.000000 0.000000 0.000000
# 4 0.000000 0.000000 0.000000 0.030362 0.000000 0.000000
# 5 0.000000 0.000000 0.000000 0.000000 0.028211 0.000000
# 6 0.000000 0.000000 0.000000 0.000000 0.000000 0.018628
#
#
# Mechanical properties :
#
#
# Convention : Reuss Voigt Hill
#
# Bulk Modulus (GPa) = 29.48040 49.32459 39.40250
# Shear Modulus (GPa) = 33.66490 39.71129 36.68809
#
# Velocity S-wave (km/s) = 3.76703 4.09136 3.93254
# Velocity P-wave (km/s) = 5.59887 6.56585 6.10154
#
# Compressibility (1/GPa) = 0.03392084
#
# Stress axis : x y z
#
# Youngs Moduli (GPa) = 79.33872 131.86096 37.34201
#
# Poissons Ratio (x) = 0.55743 0.05135
# Poissons Ratio (y) = 0.33540 0.03438
# Poissons Ratio (z) = 0.10911 0.12140
#
# Static dielectric constant tensor:
#      x y z
#    x 1.927980 0.000000 0.000000 
#    y 0.000000 1.878510 0.000000 
#    z 0.000000 0.000000 1.952770 
# 
# From -- ./inp_files/17670.got.cif
#   From: 2010.05.17/outbox.cif.g08.bks.cpg/sg60_9_cif.got.tgz:17670.got - 2010.06.03 14:59:27.
