data_PCOD9455483
_publ_section_title
;
Structure prediction by ZEFSAII (Michael W. Deem and Ramdas Pophale) SiO2 
 PCOD9455483
Probable space group: P B C N
;
_chemical_formula_sum "Si O2"
_cell_formula_units_Z 40
_cell_length_a 21.565194
_cell_length_b 9.098674
_cell_length_c 8.667951
_cell_angle_alpha 90.000000
_cell_angle_beta 90.000000
_cell_angle_gamma 90.000000
_cell_volume 1700.779145
_symmetry_space_group_name_H-M "P B C N"
_symmetry_group_IT_number 60
_symmetry_cell_setting 'orthorhombic'
loop_
_space_group_symop_operation_xyz
x,y,z
1/2-x,1/2-y,1/2+z
1/2+x,1/2-y,-z
-x,y,1/2-z
-x,-y,-z
1/2+x,1/2+y,1/2-z
1/2-x,1/2+y,z
x,-y,1/2+z
loop_
_atom_site_type_symbol
_atom_site_label
_atom_site_fract_x
_atom_site_fract_y
_atom_site_fract_z
Si Si1 0.787028 0.339225 0.355433
Si Si2 0.000000 0.545544 0.750000
Si Si3 0.251833 0.099828 0.320648
Si Si4 0.500000 0.472964 0.250000
Si Si5 0.050123 0.209969 0.459765
Si Si6 0.874986 0.592994 0.348653
O O1 0.744585 0.357573 0.504244
O O2 0.795497 0.176052 0.296446
O O3 0.756542 0.427287 0.211946
O O4 0.847461 0.434266 0.396952
O O5 0.007349 0.657283 0.894476
O O6 0.060559 0.445160 0.733474
O O7 0.320076 0.152237 0.259445
O O8 0.525963 0.372258 0.387166
O O9 0.549895 0.584373 0.171440
O O10 0.111403 0.297827 0.510731
#
# Coordination Sequence:
#
# PCOD9455483 Si02
#       6
#     8   4   8   4   8   8
#     4  10  22  41  67  93 132 170 227 276 344 402
#     4  11  21  38  68 104 135 175 220 284 340 414
#     4  10  22  41  66  95 129 175 221 285 336 409
#     4   9  21  38  60  88 135 179 216 264 322 410
#     4  10  20  39  61  92 133 173 220 264 331 399
#     4  10  23  38  70  96 136 172 229 276 350 403
#
# _framework density 23.518633000000001
#
# number of rings (size 3 to 8) (size 9 to 14) (size 15 to 20)
#    1.200    0.800    0.000    3.600    0.000    1.600 
#    0.000   10.000    0.000    0.000    0.000    0.000 
#    0.000    0.000    0.000    0.000    0.000    0.000 
#
# Total GULP energy -223041.986740 kJ/mol
# GULP energy per Si atom -5576.049668 kJ/mol
# Density = 2.346510 g / cm^3
# Si number density = 23.518633 Si / 1000 Ang^3
#
#
#
# Elastic Constant Matrix: (Units=GPa)
#
#
# Indices 1 2 3 4 5 6 
#
# 1 79.9739 43.0814 21.3668 0.0000 0.0000 0.0000
# 2 43.0814 82.8495 10.6228 0.0000 0.0000 0.0000
# 3 21.3668 10.6228 93.5265 0.0000 0.0000 0.0000
# 4 0.0000 0.0000 0.0000 35.3158 0.0000 0.0000
# 5 0.0000 0.0000 0.0000 0.0000 28.8279 0.0000
# 6 0.0000 0.0000 0.0000 0.0000 0.0000 38.3555
#
#
#
# Elastic Compliance Matrix: (Units=1/GPa)
#
#
# Indices 1 2 3 4 5 6 
#
# 1 0.018232 -0.009079 -0.003134 0.000000 0.000000 0.000000
# 2 -0.009079 0.016769 0.000169 0.000000 0.000000 0.000000
# 3 -0.003134 0.000169 0.011389 0.000000 0.000000 0.000000
# 4 0.000000 0.000000 0.000000 0.028316 0.000000 0.000000
# 5 0.000000 0.000000 0.000000 0.000000 0.034689 0.000000
# 6 0.000000 0.000000 0.000000 0.000000 0.000000 0.026072
#
#
# Mechanical properties :
#
#
# Convention : Reuss Voigt Hill
#
# Bulk Modulus (GPa) = 44.83606 45.16577 45.00091
# Shear Modulus (GPa) = 29.94227 32.58511 31.26369
#
# Velocity S-wave (km/s) = 3.57197 3.72627 3.64993
# Velocity P-wave (km/s) = 6.00977 6.14487 6.07770
#
# Compressibility (1/GPa) = 0.02230348
#
# Stress axis : x y z
#
# Youngs Moduli (GPa) = 54.84835 59.63283 87.80467
#
# Poissons Ratio (x) = 0.54139 0.27519
# Poissons Ratio (y) = 0.49796 -0.01488
# Poissons Ratio (z) = 0.17190 -0.01010
#
# Static dielectric constant tensor:
#      x y z
#    x 1.940510 0.000000 0.000000 
#    y 0.000000 1.869010 0.000000 
#    z 0.000000 0.000000 1.922270 
# 
# From -- ./inp_files/8101.got.cif
#   From: 2010.05.17/outbox.cif.g08.bks.cpg/sg60_5_cif.got.tgz:8101.got - 2010.06.03 14:59:27.
