data_PCOD9455036
_publ_section_title
;
Structure prediction by ZEFSAII (Michael W. Deem and Ramdas Pophale) SiO2 
 PCOD9455036
Probable space group: P B C N
;
_chemical_formula_sum "Si O2"
_cell_formula_units_Z 56
_cell_length_a 22.123817
_cell_length_b 22.259868
_cell_length_c 5.549298
_cell_angle_alpha 90.000000
_cell_angle_beta 90.000000
_cell_angle_gamma 90.000000
_cell_volume 2732.880800
_symmetry_space_group_name_H-M "P B C N"
_symmetry_group_IT_number 60
_symmetry_cell_setting 'orthorhombic'
loop_
_space_group_symop_operation_xyz
x,y,z
1/2-x,1/2-y,1/2+z
1/2+x,1/2-y,-z
-x,y,1/2-z
-x,-y,-z
1/2+x,1/2+y,1/2-z
1/2-x,1/2+y,z
x,-y,1/2+z
loop_
_atom_site_type_symbol
_atom_site_label
_atom_site_fract_x
_atom_site_fract_y
_atom_site_fract_z
Si Si1 0.466552 0.735479 0.997434
Si Si2 0.786669 0.522784 0.670219
Si Si3 0.355671 0.643308 0.423695
Si Si4 0.247896 0.847445 0.288919
Si Si5 0.850200 0.022806 0.271039
Si Si6 0.988759 0.103086 0.997195
Si Si7 0.169682 0.246783 0.096537
O O1 0.500000 0.753500 0.750000
O O2 0.468407 0.662422 0.006451
O O3 0.500000 0.754186 0.250000
O O4 0.396489 0.754081 0.982701
O O5 0.814343 0.489117 0.437102
O O6 0.779901 0.593349 0.607512
O O7 0.718592 0.498129 0.722633
O O8 0.304773 0.627879 0.615837
O O9 0.349419 0.594715 0.209291
O O10 0.422459 0.632253 0.515884
O O11 0.345005 0.711066 0.343190
O O12 0.296282 0.808684 0.139600
O O13 0.214756 0.798918 0.459198
O O14 0.878384 0.994757 0.511203
O O15 0.000000 0.069738 0.750000
O O16 0.000000 0.071362 0.250000
#
# Coordination Sequence:
#
# PCOD9455036 Si02
#       7
#     8   8   8   8   8   8   8
#     4  10  20  39  57  76 111 163 204 233 278 367
#     4  10  20  39  57  78 110 161 203 232 280 368
#     4  12  22  37  58  81 117 154 194 243 299 365
#     4  12  24  35  58  90 127 153 188 250 317 371
#     4  10  20  35  56  77 101 155 201 235 279 346
#     4  10  20  35  55  76  99 150 196 233 275 339
#     4  12  24  36  56  93 126 154 190 248 318 371
#
# _framework density 20.491198000000001
#
# number of rings (size 3 to 8) (size 9 to 14) (size 15 to 20)
#    0.000    1.143    7.143    3.429    0.000    0.000 
#    0.000    0.000    0.000    2.571    0.000    0.000 
#    0.000    3.429    0.000    0.000    0.000    0.000 
#
# Total GULP energy -312604.064495 kJ/mol
# GULP energy per Si atom -5582.215437 kJ/mol
# Density = 2.044456 g / cm^3
# Si number density = 20.491198 Si / 1000 Ang^3
#
#
#
# Elastic Constant Matrix: (Units=GPa)
#
#
# Indices 1 2 3 4 5 6 
#
# 1 48.5300 25.0784 12.9596 0.0000 0.0000 0.0000
# 2 25.0784 66.2775 5.9573 0.0000 0.0000 0.0000
# 3 12.9596 5.9573 141.4016 0.0000 0.0000 0.0000
# 4 0.0000 0.0000 0.0000 -7.2112 0.0000 0.0000
# 5 0.0000 0.0000 0.0000 0.0000 22.6138 0.0000
# 6 0.0000 0.0000 0.0000 0.0000 0.0000 12.3925
#
#
#
# Elastic Compliance Matrix: (Units=1/GPa)
#
#
# Indices 1 2 3 4 5 6 
#
# 1 0.026159 -0.009720 -0.001988 0.000000 0.000000 0.000000
# 2 -0.009720 0.018757 0.000101 0.000000 0.000000 0.000000
# 3 -0.001988 0.000101 0.007250 0.000000 0.000000 0.000000
# 4 0.000000 0.000000 0.000000 -0.138674 0.000000 0.000000
# 5 0.000000 0.000000 0.000000 0.000000 0.044221 0.000000
# 6 0.000000 0.000000 0.000000 0.000000 0.000000 0.080694
#
#
# Mechanical properties :
#
#
# Convention : Reuss Voigt Hill
#
# Bulk Modulus (GPa) = 34.53985 38.24440 36.39212
# Shear Modulus (GPa) = 70.15394 19.70662 44.93028
#
# Velocity S-wave (km/s) = 5.85751 3.10451 4.68767
# Velocity P-wave (km/s) = 7.91453 5.61738 6.86275
#
# Compressibility (1/GPa) = 0.02895207
#
# Stress axis : x y z
#
# Youngs Moduli (GPa) = 38.22709 53.31396 137.93060
#
# Poissons Ratio (x) = 0.51819 0.27421
# Poissons Ratio (y) = 0.37155 -0.01387
# Poissons Ratio (z) = 0.07600 -0.00536
#
# Static dielectric constant tensor:
#      x y z
#    x 1.744380 0.000000 0.000000 
#    y 0.000000 1.740810 0.000000 
#    z 0.000000 0.000000 1.954600 
# 
# From -- ./inp_files/2129.got.cif
#   From: 2010.05.17/outbox.cif.g08.bks.cpg/sg60_2_cif.got.tgz:2129.got - 2010.06.03 14:59:27.
