data_PCOD9455275
_publ_section_title
;
Structure prediction by ZEFSAII (Michael W. Deem and Ramdas Pophale) SiO2 
 PCOD9455275
Probable space group: P B C N
;
_chemical_formula_sum "Si O2"
_cell_formula_units_Z 52
_cell_length_a 13.309119
_cell_length_b 7.324501
_cell_length_c 20.216674
_cell_angle_alpha 90.000000
_cell_angle_beta 90.000000
_cell_angle_gamma 90.000000
_cell_volume 1970.775065
_symmetry_space_group_name_H-M "P B C N"
_symmetry_group_IT_number 60
_symmetry_cell_setting 'orthorhombic'
loop_
_space_group_symop_operation_xyz
x,y,z
1/2-x,1/2-y,1/2+z
1/2+x,1/2-y,-z
-x,y,1/2-z
-x,-y,-z
1/2+x,1/2+y,1/2-z
1/2-x,1/2+y,z
x,-y,1/2+z
loop_
_atom_site_type_symbol
_atom_site_label
_atom_site_fract_x
_atom_site_fract_y
_atom_site_fract_z
Si Si1 0.171495 0.344715 0.874247
Si Si2 0.866018 0.272680 0.294663
Si Si3 0.500000 0.515478 0.750000
Si Si4 0.147347 0.697998 0.224386
Si Si5 0.389503 0.792316 0.527939
Si Si6 0.504471 0.094714 0.900505
Si Si7 0.316010 0.543176 0.969358
O O1 0.176452 0.258748 0.801688
O O2 0.273333 0.416059 0.908947
O O3 0.096613 0.514934 0.869142
O O4 0.129494 0.203460 0.929162
O O5 0.908263 0.128601 0.241436
O O6 0.878143 0.484706 0.276143
O O7 0.751314 0.234433 0.312602
O O8 0.938231 0.256624 0.357796
O O9 0.441987 0.665148 0.704561
O O10 0.423619 0.919005 0.588082
O O11 0.373398 0.576181 0.523488
O O12 0.470373 0.829195 0.470426
O O13 0.282346 0.875465 0.504784
#
# Coordination Sequence:
#
# PCOD9455275 Si02
#       7
#     8   8   4   8   8   8   8
#     4  10  20  37  62  89 125 168 218 275 330 411
#     4  12  26  45  67 101 138 180 229 283 348 416
#     4  12  26  44  72  94 138 186 222 288 344 418
#     4  12  25  46  68 101 140 182 236 281 347 423
#     4   9  20  39  61  92 124 169 220 275 336 401
#     4  10  22  40  62  90 134 169 216 284 339 403
#     4   9  19  35  62  91 120 168 222 270 332 401
#
# _framework density 26.385556999999999
#
# number of rings (size 3 to 8) (size 9 to 14) (size 15 to 20)
#    0.000    1.538    1.538    3.231    2.154    3.077 
#    0.000    0.000    0.000    0.000    0.000    0.000 
#    0.000    0.000    0.000    0.000    0.000    0.000 
#
# Total GULP energy -290646.273531 kJ/mol
# GULP energy per Si atom -5589.351414 kJ/mol
# Density = 2.632550 g / cm^3
# Si number density = 26.385557 Si / 1000 Ang^3
#
#
#
# Elastic Constant Matrix: (Units=GPa)
#
#
# Indices 1 2 3 4 5 6 
#
# 1 97.4226 36.2974 2.6967 0.0000 0.0000 0.0000
# 2 36.2974 154.3514 7.9321 0.0000 0.0000 0.0000
# 3 2.6967 7.9321 59.6848 0.0000 0.0000 0.0000
# 4 0.0000 0.0000 0.0000 36.7808 0.0000 0.0000
# 5 0.0000 0.0000 0.0000 0.0000 26.4977 0.0000
# 6 0.0000 0.0000 0.0000 0.0000 0.0000 47.8007
#
#
#
# Elastic Compliance Matrix: (Units=1/GPa)
#
#
# Indices 1 2 3 4 5 6 
#
# 1 0.011252 -0.002638 -0.000158 0.000000 0.000000 0.000000
# 2 -0.002638 0.007142 -0.000830 0.000000 0.000000 0.000000
# 3 -0.000158 -0.000830 0.016872 0.000000 0.000000 0.000000
# 4 0.000000 0.000000 0.000000 0.027188 0.000000 0.000000
# 5 0.000000 0.000000 0.000000 0.000000 0.037739 0.000000
# 6 0.000000 0.000000 0.000000 0.000000 0.000000 0.020920
#
#
# Mechanical properties :
#
#
# Convention : Reuss Voigt Hill
#
# Bulk Modulus (GPa) = 35.69603 45.03459 40.36531
# Shear Modulus (GPa) = 36.31024 39.85136 38.08080
#
# Velocity S-wave (km/s) = 3.71366 3.89054 3.80313
# Velocity P-wave (km/s) = 5.65211 6.10628 5.88358
#
# Compressibility (1/GPa) = 0.02801432
#
# Stress axis : x y z
#
# Youngs Moduli (GPa) = 88.87521 140.02276 59.26938
#
# Poissons Ratio (x) = 0.36936 0.00935
# Poissons Ratio (y) = 0.23444 0.04919
# Poissons Ratio (z) = 0.01402 0.11621
#
# Static dielectric constant tensor:
#      x y z
#    x 2.058020 0.000000 0.000000 
#    y 0.000000 2.076280 0.000000 
#    z 0.000000 0.000000 2.093610 
# 
# From -- ./inp_files/22864.got.cif
#   From: 2010.05.17/outbox.cif.g08.bks.cpg/sg60_12_cif.got.tgz:22864.got - 2010.06.03 14:59:27.
