data_PCOD9455919
_publ_section_title
;
Structure prediction by ZEFSAII (Michael W. Deem and Ramdas Pophale) SiO2 
 PCOD9455919
Probable space group: P B C N
;
_chemical_formula_sum "Si O2"
_cell_formula_units_Z 48
_cell_length_a 5.221437
_cell_length_b 17.275154
_cell_length_c 24.639755
_cell_angle_alpha 90.000000
_cell_angle_beta 90.000000
_cell_angle_gamma 90.000000
_cell_volume 2222.533701
_symmetry_space_group_name_H-M "P B C N"
_symmetry_group_IT_number 60
_symmetry_cell_setting 'orthorhombic'
loop_
_space_group_symop_operation_xyz
x,y,z
1/2-x,1/2-y,1/2+z
1/2+x,1/2-y,-z
-x,y,1/2-z
-x,-y,-z
1/2+x,1/2+y,1/2-z
1/2-x,1/2+y,z
x,-y,1/2+z
loop_
_atom_site_type_symbol
_atom_site_label
_atom_site_fract_x
_atom_site_fract_y
_atom_site_fract_z
Si Si1 0.248292 0.593709 0.516645
Si Si2 0.248986 0.392213 0.783040
Si Si3 0.252309 0.161024 0.924272
Si Si4 0.240580 0.527190 0.849871
Si Si5 0.370081 0.339000 0.903779
Si Si6 0.742847 0.459563 0.909088
O O1 0.488914 0.638204 0.544882
O O2 0.250713 0.610461 0.452928
O O3 0.258679 0.503139 0.533177
O O4 0.989190 0.627014 0.541867
O O5 0.500000 0.370901 0.750000
O O6 0.244171 0.485874 0.791764
O O7 0.270633 0.356179 0.843231
O O8 0.000000 0.368439 0.750000
O O9 0.260675 0.117076 0.865844
O O10 0.306591 0.251279 0.917824
O O11 0.499991 0.496625 0.877833
O O12 0.988952 0.489704 0.877406
O O13 0.667724 0.368990 0.907313
#
# Coordination Sequence:
#
# PCOD9455919 Si02
#       6
#     8   8   8   8   8   8
#     4  10  21  37  57  89 127 161 186 221 289 369
#     4  11  24  41  60  82 109 150 204 252 291 333
#     4  10  22  37  59  90 123 152 187 229 294 364
#     4   9  19  39  58  80 111 149 187 234 287 345
#     4  11  22  38  61  89 121 155 194 247 288 336
#     4   9  19  34  58  86 116 151 190 227 280 347
#
# _framework density 21.596971
#
# number of rings (size 3 to 8) (size 9 to 14) (size 15 to 20)
#    0.000    2.000    0.000    3.500    0.000    8.000 
#    0.000   11.667    0.000    0.000    0.000    0.000 
#    0.000    0.000    0.000    0.000    0.000    0.000 
#
# Total GULP energy -267953.059155 kJ/mol
# GULP energy per Si atom -5582.355399 kJ/mol
# Density = 2.154782 g / cm^3
# Si number density = 21.596971 Si / 1000 Ang^3
#
#
#
# Elastic Constant Matrix: (Units=GPa)
#
#
# Indices 1 2 3 4 5 6 
#
# 1 159.8798 29.7280 44.6723 0.0000 0.0000 0.0000
# 2 29.7280 118.3113 29.8625 0.0000 0.0000 0.0000
# 3 44.6723 29.8625 104.3117 0.0000 0.0000 0.0000
# 4 0.0000 0.0000 0.0000 26.6693 0.0000 0.0000
# 5 0.0000 0.0000 0.0000 0.0000 31.2045 0.0000
# 6 0.0000 0.0000 0.0000 0.0000 0.0000 14.3294
#
#
#
# Elastic Compliance Matrix: (Units=1/GPa)
#
#
# Indices 1 2 3 4 5 6 
#
# 1 0.007239 -0.001117 -0.002780 0.000000 0.000000 0.000000
# 2 -0.001117 0.009283 -0.002179 0.000000 0.000000 0.000000
# 3 -0.002780 -0.002179 0.011401 0.000000 0.000000 0.000000
# 4 0.000000 0.000000 0.000000 0.037496 0.000000 0.000000
# 5 0.000000 0.000000 0.000000 0.000000 0.032047 0.000000
# 6 0.000000 0.000000 0.000000 0.000000 0.000000 0.069786
#
#
# Mechanical properties :
#
#
# Convention : Reuss Voigt Hill
#
# Bulk Modulus (GPa) = 63.41138 65.66981 64.54060
# Shear Modulus (GPa) = 27.07632 32.98996 30.03314
#
# Velocity S-wave (km/s) = 3.54462 3.91260 3.73314
# Velocity P-wave (km/s) = 6.79539 7.13332 6.96641
#
# Compressibility (1/GPa) = 0.01577004
#
# Stress axis : x y z
#
# Youngs Moduli (GPa) = 138.13434 107.72354 87.70970
#
# Poissons Ratio (x) = 0.12035 0.24387
# Poissons Ratio (y) = 0.15433 0.19113
# Poissons Ratio (z) = 0.38408 0.23474
#
# Static dielectric constant tensor:
#      x y z
#    x 1.870640 0.000000 0.000000 
#    y 0.000000 1.830900 0.000000 
#    z 0.000000 0.000000 1.840400 
# 
# From -- ./inp_files/23617.got.cif
#   From: 2010.05.17/outbox.cif.g08.bks.cpg/sg60_12_cif.got.tgz:23617.got - 2010.06.03 14:59:27.
