data_PCOD9455528
_publ_section_title
;
Structure prediction by ZEFSAII (Michael W. Deem and Ramdas Pophale) SiO2 
 PCOD9455528
Probable space group: P B C N
;
_chemical_formula_sum "Si O2"
_cell_formula_units_Z 40
_cell_length_a 8.855157
_cell_length_b 22.619521
_cell_length_c 9.026975
_cell_angle_alpha 90.000000
_cell_angle_beta 90.000000
_cell_angle_gamma 90.000000
_cell_volume 1808.097764
_symmetry_space_group_name_H-M "P B C N"
_symmetry_group_IT_number 60
_symmetry_cell_setting 'orthorhombic'
loop_
_space_group_symop_operation_xyz
x,y,z
1/2-x,1/2-y,1/2+z
1/2+x,1/2-y,-z
-x,y,1/2-z
-x,-y,-z
1/2+x,1/2+y,1/2-z
1/2-x,1/2+y,z
x,-y,1/2+z
loop_
_atom_site_type_symbol
_atom_site_label
_atom_site_fract_x
_atom_site_fract_y
_atom_site_fract_z
Si Si1 0.500000 0.530066 0.750000
Si Si2 0.571967 0.806237 0.970787
Si Si3 0.972099 0.436936 0.579394
Si Si4 0.273594 0.233113 0.328326
Si Si5 0.874944 0.067485 0.036380
Si Si6 0.500000 0.351201 0.750000
O O1 0.598224 0.491816 0.633490
O O2 0.394745 0.564863 0.638510
O O3 0.568126 0.877618 0.958140
O O4 0.641392 0.770460 0.829495
O O5 0.397184 0.784515 0.954421
O O6 0.674734 0.787624 0.110021
O O7 0.000000 0.448940 0.750000
O O8 0.000000 0.500000 0.500000
O O9 0.798217 0.417341 0.562897
O O10 0.143610 0.185916 0.293113
O O11 0.008632 0.107280 0.106152
#
# Coordination Sequence:
#
# PCOD9455528 Si02
#       6
#     4   8   8   8   8   4
#     4   9  20  36  64 102 142 194 257 300 364 464
#     4  11  24  47  74 108 148 196 257 315 399 452
#     4  12  24  46  73 106 154 201 252 321 389 468
#     4  11  23  45  75 103 144 196 246 321 384 462
#     4  10  20  39  66  99 144 197 246 311 380 452
#     4  11  20  40  70  94 144 194 235 316 386 444
#
# _framework density 22.122696999999999
#
# number of rings (size 3 to 8) (size 9 to 14) (size 15 to 20)
#    0.000    1.200    4.000    2.400    0.000    3.200 
#    5.400    4.000    4.400    2.400    0.000    0.000 
#    0.000    0.000    0.000    0.000    0.000    0.000 
#
# Total GULP energy -222675.447770 kJ/mol
# GULP energy per Si atom -5566.886194 kJ/mol
# Density = 2.207234 g / cm^3
# Si number density = 22.122697 Si / 1000 Ang^3
#
#
#
# Elastic Constant Matrix: (Units=GPa)
#
#
# Indices 1 2 3 4 5 6 
#
# 1 102.7657 55.0272 43.4696 0.0000 0.0000 0.0000
# 2 55.0272 122.5490 69.7774 0.0000 0.0000 0.0000
# 3 43.4696 69.7774 128.7744 0.0000 0.0000 0.0000
# 4 0.0000 0.0000 0.0000 62.1703 0.0000 0.0000
# 5 0.0000 0.0000 0.0000 0.0000 39.1544 0.0000
# 6 0.0000 0.0000 0.0000 0.0000 0.0000 26.6998
#
#
#
# Elastic Compliance Matrix: (Units=1/GPa)
#
#
# Indices 1 2 3 4 5 6 
#
# 1 0.013089 -0.004861 -0.001784 0.000000 0.000000 0.000000
# 2 -0.004861 0.013606 -0.005732 0.000000 0.000000 0.000000
# 3 -0.001784 -0.005732 0.011474 0.000000 0.000000 0.000000
# 4 0.000000 0.000000 0.000000 0.016085 0.000000 0.000000
# 5 0.000000 0.000000 0.000000 0.000000 0.025540 0.000000
# 6 0.000000 0.000000 0.000000 0.000000 0.000000 0.037453
#
#
# Mechanical properties :
#
#
# Convention : Reuss Voigt Hill
#
# Bulk Modulus (GPa) = 74.54727 76.73751 75.64239
# Shear Modulus (GPa) = 34.13616 37.99256 36.06436
#
# Velocity S-wave (km/s) = 3.93241 4.14860 4.04195
# Velocity P-wave (km/s) = 7.37488 7.59673 7.48663
#
# Compressibility (1/GPa) = 0.01341431
#
# Stress axis : x y z
#
# Youngs Moduli (GPa) = 76.40271 73.49522 87.15683
#
# Poissons Ratio (x) = 0.35727 0.15550
# Poissons Ratio (y) = 0.37141 0.49956
# Poissons Ratio (z) = 0.13631 0.42126
#
# Static dielectric constant tensor:
#      x y z
#    x 1.815630 0.000000 0.000000 
#    y 0.000000 1.934470 0.000000 
#    z 0.000000 0.000000 1.773170 
# 
# From -- ./inp_files/3901.got.cif
#   From: 2010.05.17/outbox.cif.g08.bks.cpg/sg60_2_cif.got.tgz:3901.got - 2010.06.03 14:59:27.
