data_PCOD9455760
_publ_section_title
;
Structure prediction by ZEFSAII (Michael W. Deem and Ramdas Pophale) SiO2 
 PCOD9455760
Probable space group: P B C N
;
_chemical_formula_sum "Si O2"
_cell_formula_units_Z 40
_cell_length_a 15.802309
_cell_length_b 8.323104
_cell_length_c 13.922332
_cell_angle_alpha 90.000000
_cell_angle_beta 90.000000
_cell_angle_gamma 90.000000
_cell_volume 1831.124431
_symmetry_space_group_name_H-M "P B C N"
_symmetry_group_IT_number 60
_symmetry_cell_setting 'orthorhombic'
loop_
_space_group_symop_operation_xyz
x,y,z
1/2-x,1/2-y,1/2+z
1/2+x,1/2-y,-z
-x,y,1/2-z
-x,-y,-z
1/2+x,1/2+y,1/2-z
1/2-x,1/2+y,z
x,-y,1/2+z
loop_
_atom_site_type_symbol
_atom_site_label
_atom_site_fract_x
_atom_site_fract_y
_atom_site_fract_z
Si Si1 0.508990 0.562863 0.891744
Si Si2 0.154389 0.101486 0.331790
Si Si3 0.217055 0.402240 0.441189
Si Si4 0.567731 0.864393 0.525666
Si Si5 0.163106 0.867963 0.618908
O O1 0.442787 0.454733 0.832907
O O2 0.475609 0.743775 0.898501
O O3 0.606751 0.530322 0.870403
O O4 0.500000 0.500000 0.000000
O O5 0.171243 0.239148 0.410512
O O6 0.183048 0.169617 0.228968
O O7 0.207877 0.948874 0.368392
O O8 0.150097 0.545693 0.435397
O O9 0.258923 0.390747 0.546699
O O10 0.602350 0.762729 0.433677
O O11 0.500000 0.000000 0.500000
#
# Coordination Sequence:
#
# PCOD9455760 Si02
#       5
#     8   8   8   8   8
#     4  10  20  45  67  98 134 185 224 289 348 406
#     4  12  24  43  70 101 145 177 243 282 359 417
#     4  12  24  44  69 101 143 181 228 299 346 414
#     4  11  24  44  70  98 138 186 230 285 349 412
#     4  11  25  43  73 101 138 191 229 291 355 415
#
# _framework density 21.844501000000001
#
# number of rings (size 3 to 8) (size 9 to 14) (size 15 to 20)
#    0.000    0.800    6.000    3.000    2.800    0.000 
#    0.000    4.000    0.000    0.000    0.000    0.000 
#    0.000    0.000    0.000    0.000    0.000    0.000 
#
# Total GULP energy -223448.902551 kJ/mol
# GULP energy per Si atom -5586.222564 kJ/mol
# Density = 2.179478 g / cm^3
# Si number density = 21.844501 Si / 1000 Ang^3
#
#
#
# Elastic Constant Matrix: (Units=GPa)
#
#
# Indices 1 2 3 4 5 6 
#
# 1 94.2747 44.9500 20.0599 0.0000 0.0000 0.0000
# 2 44.9500 108.7412 11.6847 0.0000 0.0000 0.0000
# 3 20.0599 11.6847 93.2069 0.0000 0.0000 0.0000
# 4 0.0000 0.0000 0.0000 13.8214 0.0000 0.0000
# 5 0.0000 0.0000 0.0000 0.0000 31.1493 0.0000
# 6 0.0000 0.0000 0.0000 0.0000 0.0000 43.4366
#
#
#
# Elastic Compliance Matrix: (Units=1/GPa)
#
#
# Indices 1 2 3 4 5 6 
#
# 1 0.013667 -0.005406 -0.002264 0.000000 0.000000 0.000000
# 2 -0.005406 0.011460 -0.000273 0.000000 0.000000 0.000000
# 3 -0.002264 -0.000273 0.011250 0.000000 0.000000 0.000000
# 4 0.000000 0.000000 0.000000 0.072351 0.000000 0.000000
# 5 0.000000 0.000000 0.000000 0.000000 0.032103 0.000000
# 6 0.000000 0.000000 0.000000 0.000000 0.000000 0.023022
#
#
# Mechanical properties :
#
#
# Convention : Reuss Voigt Hill
#
# Bulk Modulus (GPa) = 48.80121 49.95688 49.37905
# Shear Modulus (GPa) = 26.79960 32.31667 29.55814
#
# Velocity S-wave (km/s) = 3.50642 3.85046 3.68246
# Velocity P-wave (km/s) = 6.22753 6.53353 6.38236
#
# Compressibility (1/GPa) = 0.02049129
#
# Stress axis : x y z
#
# Youngs Moduli (GPa) = 73.17136 87.25858 88.88702
#
# Poissons Ratio (x) = 0.47173 0.20120
# Poissons Ratio (y) = 0.39557 0.02428
# Poissons Ratio (z) = 0.16563 0.02384
#
# Static dielectric constant tensor:
#      x y z
#    x 1.863080 0.000000 0.000000 
#    y 0.000000 1.850730 0.000000 
#    z 0.000000 0.000000 1.832940 
# 
# From -- ./inp_files/16607.got.cif
#   From: 2010.05.17/outbox.cif.g08.bks.cpg/sg60_9_cif.got.tgz:16607.got - 2010.06.03 14:59:27.
