data_PCOD9455685
_publ_section_title
;
Structure prediction by ZEFSAII (Michael W. Deem and Ramdas Pophale) SiO2 
 PCOD9455685
Probable space group: P B C N
;
_chemical_formula_sum "Si O2"
_cell_formula_units_Z 56
_cell_length_a 12.777985
_cell_length_b 13.630560
_cell_length_c 14.388483
_cell_angle_alpha 90.000000
_cell_angle_beta 90.000000
_cell_angle_gamma 90.000000
_cell_volume 2506.057785
_symmetry_space_group_name_H-M "P B C N"
_symmetry_group_IT_number 60
_symmetry_cell_setting 'orthorhombic'
loop_
_space_group_symop_operation_xyz
x,y,z
1/2-x,1/2-y,1/2+z
1/2+x,1/2-y,-z
-x,y,1/2-z
-x,-y,-z
1/2+x,1/2+y,1/2-z
1/2-x,1/2+y,z
x,-y,1/2+z
loop_
_atom_site_type_symbol
_atom_site_label
_atom_site_fract_x
_atom_site_fract_y
_atom_site_fract_z
Si Si1 0.621533 0.292622 0.578206
Si Si2 0.001194 0.143264 0.897273
Si Si3 0.000000 0.291828 0.250000
Si Si4 0.228183 0.629535 0.284363
Si Si5 0.166905 0.007866 0.640221
Si Si6 0.304419 0.805280 0.151829
Si Si7 0.209308 0.843138 0.490611
Si Si8 0.000000 0.687231 0.250000
O O1 0.552377 0.339867 0.497698
O O2 0.549692 0.273441 0.668028
O O3 0.720365 0.355854 0.614863
O O4 0.676600 0.191288 0.543575
O O5 0.954076 0.040973 0.859929
O O6 0.974897 0.237157 0.833829
O O7 0.126115 0.143455 0.908627
O O8 0.907154 0.349026 0.299763
O O9 0.289261 0.543407 0.232055
O O10 0.257521 0.727223 0.224841
O O11 0.102721 0.625376 0.277958
O O12 0.224002 0.110955 0.630053
O O13 0.199894 0.938022 0.555528
O O14 0.328072 0.744862 0.058743
#
# Coordination Sequence:
#
# PCOD9455685 Si02
#       8
#     8   8   4   8   8   8   8   4
#     4  11  22  45  71  98 140 187 237 289 368 430
#     4  12  23  43  71 102 136 184 237 294 360 428
#     4  10  22  39  71  92 130 194 228 285 359 430
#     4  10  23  42  69  97 143 185 229 293 359 422
#     4  11  23  43  68 103 138 178 240 299 348 429
#     4  10  20  42  63  96 136 180 233 289 350 425
#     4  11  22  42  67  99 138 183 231 300 361 419
#     4  12  22  45  75 100 138 192 232 293 369 426
#
# _framework density 22.345855
#
# number of rings (size 3 to 8) (size 9 to 14) (size 15 to 20)
#    0.000    1.143    5.714    1.286    0.000    0.571 
#   10.286    0.714    0.000    0.000    0.000    0.000 
#    0.000    0.000    0.000    0.000    0.000    0.000 
#
# Total GULP energy -313002.724318 kJ/mol
# GULP energy per Si atom -5589.334363 kJ/mol
# Density = 2.229499 g / cm^3
# Si number density = 22.345855 Si / 1000 Ang^3
#
#
#
# Elastic Constant Matrix: (Units=GPa)
#
#
# Indices 1 2 3 4 5 6 
#
# 1 73.4832 0.3248 18.7590 0.0000 0.0000 0.0000
# 2 0.3248 73.5905 8.4978 0.0000 0.0000 0.0000
# 3 18.7590 8.4978 87.5278 0.0000 0.0000 0.0000
# 4 0.0000 0.0000 0.0000 15.3195 0.0000 0.0000
# 5 0.0000 0.0000 0.0000 0.0000 46.6392 0.0000
# 6 0.0000 0.0000 0.0000 0.0000 0.0000 12.1296
#
#
#
# Elastic Compliance Matrix: (Units=1/GPa)
#
#
# Indices 1 2 3 4 5 6 
#
# 1 0.014403 0.000296 -0.003116 0.000000 0.000000 0.000000
# 2 0.000296 0.013749 -0.001398 0.000000 0.000000 0.000000
# 3 -0.003116 -0.001398 0.012228 0.000000 0.000000 0.000000
# 4 0.000000 0.000000 0.000000 0.065276 0.000000 0.000000
# 5 0.000000 0.000000 0.000000 0.000000 0.021441 0.000000
# 6 0.000000 0.000000 0.000000 0.000000 0.000000 0.082443
#
#
# Mechanical properties :
#
#
# Convention : Reuss Voigt Hill
#
# Bulk Modulus (GPa) = 31.30423 32.19609 31.75016
# Shear Modulus (GPa) = 21.87002 28.61900 25.24451
#
# Velocity S-wave (km/s) = 3.13182 3.58261 3.36477
# Velocity P-wave (km/s) = 5.20741 5.61719 5.41618
#
# Compressibility (1/GPa) = 0.03194457
#
# Stress axis : x y z
#
# Youngs Moduli (GPa) = 69.43201 72.73327 81.77667
#
# Poissons Ratio (x) = -0.02154 0.25478
# Poissons Ratio (y) = -0.02057 0.11435
# Poissons Ratio (z) = 0.21632 0.10170
#
# Static dielectric constant tensor:
#      x y z
#    x 1.918760 0.000000 0.000000 
#    y 0.000000 1.792950 0.000000 
#    z 0.000000 0.000000 1.850870 
# 
# From -- ./inp_files/16886.got.cif
#   From: 2010.05.17/outbox.cif.g08.bks.cpg/sg60_9_cif.got.tgz:16886.got - 2010.06.03 14:59:27.
