data_PCOD9455263
_publ_section_title
;
Structure prediction by ZEFSAII (Michael W. Deem and Ramdas Pophale) SiO2 
 PCOD9455263
Probable space group: P B C N
;
_chemical_formula_sum "Si O2"
_cell_formula_units_Z 32
_cell_length_a 9.377613
_cell_length_b 14.898731
_cell_length_c 8.620045
_cell_angle_alpha 90.000000
_cell_angle_beta 90.000000
_cell_angle_gamma 90.000000
_cell_volume 1204.345566
_symmetry_space_group_name_H-M "P B C N"
_symmetry_group_IT_number 60
_symmetry_cell_setting 'orthorhombic'
loop_
_space_group_symop_operation_xyz
x,y,z
1/2-x,1/2-y,1/2+z
1/2+x,1/2-y,-z
-x,y,1/2-z
-x,-y,-z
1/2+x,1/2+y,1/2-z
1/2-x,1/2+y,z
x,-y,1/2+z
loop_
_atom_site_type_symbol
_atom_site_label
_atom_site_fract_x
_atom_site_fract_y
_atom_site_fract_z
Si Si1 0.554269 0.851619 0.039221
Si Si2 0.161114 0.206033 0.982441
Si Si3 0.227511 0.392807 0.902917
Si Si4 0.289875 0.568715 0.751630
O O1 0.463595 0.759879 0.066775
O O2 0.441236 0.909281 0.940725
O O3 0.695235 0.829799 0.936664
O O4 0.634358 0.896998 0.184422
O O5 0.228866 0.286481 0.878084
O O6 0.112921 0.126525 0.869089
O O7 0.296701 0.463874 0.788645
O O8 0.297293 0.410112 0.072174
#
# Coordination Sequence:
#
# PCOD9455263 Si02
#       4
#     8   8   8   8
#     4   8  18  38  57  84 113 153 189 240 283 342
#     4   8  20  34  56  82 116 150 192 230 286 336
#     4  10  20  37  61  88 118 154 197 240 289 348
#     4  10  20  37  61  88 118 154 197 240 289 348
#
# _framework density 26.570447999999999
#
# number of rings (size 3 to 8) (size 9 to 14) (size 15 to 20)
#    3.000    0.000    0.000    1.500    0.000    2.000 
#    0.000    5.000    0.000    0.000    0.000    0.000 
#    0.000    0.000    0.000    0.000    0.000    0.000 
#
# Total GULP energy -178137.928058 kJ/mol
# GULP energy per Si atom -5566.810252 kJ/mol
# Density = 2.650997 g / cm^3
# Si number density = 26.570448 Si / 1000 Ang^3
#
#
#
# Elastic Constant Matrix: (Units=GPa)
#
#
# Indices 1 2 3 4 5 6 
#
# 1 119.6179 -6.4031 -0.5353 0.0000 0.0000 0.0000
# 2 -6.4031 123.5269 8.6273 0.0000 0.0000 0.0000
# 3 -0.5353 8.6273 69.7076 0.0000 0.0000 0.0000
# 4 0.0000 0.0000 0.0000 61.9786 0.0000 0.0000
# 5 0.0000 0.0000 0.0000 0.0000 2.1878 0.0000
# 6 0.0000 0.0000 0.0000 0.0000 0.0000 23.2849
#
#
#
# Elastic Compliance Matrix: (Units=1/GPa)
#
#
# Indices 1 2 3 4 5 6 
#
# 1 0.008383 0.000434 0.000011 0.000000 0.000000 0.000000
# 2 0.000434 0.008188 -0.001010 0.000000 0.000000 0.000000
# 3 0.000011 -0.001010 0.014471 0.000000 0.000000 0.000000
# 4 0.000000 0.000000 0.000000 0.016135 0.000000 0.000000
# 5 0.000000 0.000000 0.000000 0.000000 0.457077 0.000000
# 6 0.000000 0.000000 0.000000 0.000000 0.000000 0.042946
#
#
# Mechanical properties :
#
#
# Convention : Reuss Voigt Hill
#
# Bulk Modulus (GPa) = 33.43231 35.13667 34.28449
# Shear Modulus (GPa) = 8.95572 38.23449 23.59510
#
# Velocity S-wave (km/s) = 1.83790 3.79751 2.98320
# Velocity P-wave (km/s) = 4.13687 5.69919 4.97968
#
# Compressibility (1/GPa) = 0.02991119
#
# Stress axis : x y z
#
# Youngs Moduli (GPa) = 119.28583 122.12349 69.10496
#
# Poissons Ratio (x) = -0.05298 -0.00074
# Poissons Ratio (y) = -0.05175 0.06980
# Poissons Ratio (z) = -0.00128 0.12336
#
# Static dielectric constant tensor:
#      x y z
#    x 2.225080 0.000000 0.000000 
#    y 0.000000 2.063850 0.000000 
#    z 0.000000 0.000000 2.170320 
# 
# From -- ./inp_files/4681.got.cif
#   From: 2010.05.17/outbox.cif.g08.bks.cpg/sg60_3_cif.got.tgz:4681.got - 2010.06.03 14:59:27.
