data_PCOD9455663
_publ_section_title
;
Structure prediction by ZEFSAII (Michael W. Deem and Ramdas Pophale) SiO2 
 PCOD9455663
Probable space group: P B C N
;
_chemical_formula_sum "Si O2"
_cell_formula_units_Z 56
_cell_length_a 15.380460
_cell_length_b 5.198020
_cell_length_c 25.232708
_cell_angle_alpha 90.000000
_cell_angle_beta 90.000000
_cell_angle_gamma 90.000000
_cell_volume 2017.302992
_symmetry_space_group_name_H-M "P B C N"
_symmetry_group_IT_number 60
_symmetry_cell_setting 'orthorhombic'
loop_
_space_group_symop_operation_xyz
x,y,z
1/2-x,1/2-y,1/2+z
1/2+x,1/2-y,-z
-x,y,1/2-z
-x,-y,-z
1/2+x,1/2+y,1/2-z
1/2-x,1/2+y,z
x,-y,1/2+z
loop_
_atom_site_type_symbol
_atom_site_label
_atom_site_fract_x
_atom_site_fract_y
_atom_site_fract_z
Si Si1 0.206933 0.550698 0.618571
Si Si2 0.535025 0.576326 0.140752
Si Si3 0.976858 0.577331 0.416280
Si Si4 0.500000 0.158123 0.750000
Si Si5 0.192465 0.466588 0.744701
Si Si6 0.772904 0.274896 0.130283
Si Si7 0.707723 0.398548 0.009801
Si Si8 0.500000 0.500000 0.000000
O O1 0.212581 0.856586 0.609450
O O2 0.124481 0.428541 0.591374
O O3 0.190122 0.496781 0.680779
O O4 0.513387 0.283368 0.126761
O O5 0.494910 0.669068 0.196348
O O6 0.637772 0.621842 0.139414
O O7 0.505050 0.778884 0.093888
O O8 0.999504 0.723311 0.469450
O O9 0.589831 0.001188 0.742528
O O10 0.257089 0.703874 0.758544
O O11 0.792924 0.559515 0.151562
O O12 0.740373 0.348993 0.070942
O O13 0.769889 0.619424 0.987116
O O14 0.609646 0.492708 0.004440
#
# Coordination Sequence:
#
# PCOD9455663 Si02
#       8
#     8   8   8   4   8   8   8   4
#     4  10  21  42  70  98 140 193 245 311 383 444
#     4  12  27  46  74 108 150 199 256 318 395 463
#     4  12  26  46  69 108 147 197 247 321 379 468
#     4  12  28  48  80 118 152 210 264 322 392 482
#     4  10  24  44  71 107 152 197 252 319 383 460
#     4  10  20  41  68  96 140 191 238 305 378 448
#     4  10  22  42  68 102 147 193 244 316 375 454
#     4  12  28  46  80 114 154 208 266 316 400 480
#
# _framework density 27.759834999999999
#
# number of rings (size 3 to 8) (size 9 to 14) (size 15 to 20)
#    0.000    1.143    1.429    5.143    4.000    6.857 
#    0.000    0.000    0.000    0.000    0.000    0.000 
#    0.000    0.000    0.000    0.000    0.000    0.000 
#
# Total GULP energy -312606.602225 kJ/mol
# GULP energy per Si atom -5582.260754 kJ/mol
# Density = 2.769665 g / cm^3
# Si number density = 27.759835 Si / 1000 Ang^3
#
#
#
# Elastic Constant Matrix: (Units=GPa)
#
#
# Indices 1 2 3 4 5 6 
#
# 1 151.2363 36.7816 21.6349 0.0000 0.0000 0.0000
# 2 36.7816 129.0255 17.8697 0.0000 0.0000 0.0000
# 3 21.6349 17.8697 72.0483 0.0000 0.0000 0.0000
# 4 0.0000 0.0000 0.0000 41.2664 0.0000 0.0000
# 5 0.0000 0.0000 0.0000 0.0000 48.6025 0.0000
# 6 0.0000 0.0000 0.0000 0.0000 0.0000 54.5572
#
#
#
# Elastic Compliance Matrix: (Units=1/GPa)
#
#
# Indices 1 2 3 4 5 6 
#
# 1 0.007309 -0.001843 -0.001738 0.000000 0.000000 0.000000
# 2 -0.001843 0.008491 -0.001553 0.000000 0.000000 0.000000
# 3 -0.001738 -0.001553 0.014786 0.000000 0.000000 0.000000
# 4 0.000000 0.000000 0.000000 0.024233 0.000000 0.000000
# 5 0.000000 0.000000 0.000000 0.000000 0.020575 0.000000
# 6 0.000000 0.000000 0.000000 0.000000 0.000000 0.018329
#
#
# Mechanical properties :
#
#
# Convention : Reuss Voigt Hill
#
# Bulk Modulus (GPa) = 49.21267 56.09805 52.65536
# Shear Modulus (GPa) = 45.14143 47.28681 46.21412
#
# Velocity S-wave (km/s) = 4.03692 4.13174 4.08460
# Velocity P-wave (km/s) = 6.28454 6.55850 6.42298
#
# Compressibility (1/GPa) = 0.02031997
#
# Stress axis : x y z
#
# Youngs Moduli (GPa) = 136.81842 117.77465 67.62957
#
# Poissons Ratio (x) = 0.21705 0.11752
# Poissons Ratio (y) = 0.25215 0.10500
# Poissons Ratio (z) = 0.23774 0.18285
#
# Static dielectric constant tensor:
#      x y z
#    x 0.000000 0.000000 0.000000 
#    y 0.000000 0.000000 0.000000 
#    z 0.000000 0.000000 0.000000 
# 
# From -- ./inp_files/26166.got.cif
#   From: 2010.05.17/outbox.cif.g08.bks.cpg/sg60_14_cif.got.tgz:26166.got - 2010.06.03 14:59:27.
