data_PCOD9455322
_publ_section_title
;
Structure prediction by ZEFSAII (Michael W. Deem and Ramdas Pophale) SiO2 
 PCOD9455322
Probable space group: P B C N
;
_chemical_formula_sum "Si O2"
_cell_formula_units_Z 52
_cell_length_a 20.472839
_cell_length_b 14.398790
_cell_length_c 8.085172
_cell_angle_alpha 90.000000
_cell_angle_beta 90.000000
_cell_angle_gamma 90.000000
_cell_volume 2383.380228
_symmetry_space_group_name_H-M "P B C N"
_symmetry_group_IT_number 60
_symmetry_cell_setting 'orthorhombic'
loop_
_space_group_symop_operation_xyz
x,y,z
1/2-x,1/2-y,1/2+z
1/2+x,1/2-y,-z
-x,y,1/2-z
-x,-y,-z
1/2+x,1/2+y,1/2-z
1/2-x,1/2+y,z
x,-y,1/2+z
loop_
_atom_site_type_symbol
_atom_site_label
_atom_site_fract_x
_atom_site_fract_y
_atom_site_fract_z
Si Si1 0.500000 0.225037 0.250000
Si Si2 0.160392 0.774936 0.694845
Si Si3 0.428970 0.114128 0.694178
Si Si4 0.697640 0.774896 0.927151
Si Si5 0.604983 0.628306 0.796039
Si Si6 0.572067 0.565871 0.169483
Si Si7 0.088413 0.587905 0.061714
O O1 0.441560 0.295397 0.288475
O O2 0.528770 0.156433 0.389037
O O3 0.116650 0.692514 0.618272
O O4 0.226546 0.792695 0.597691
O O5 0.114573 0.863009 0.722771
O O6 0.181747 0.745319 0.881095
O O7 0.500000 0.150513 0.750000
O O8 0.431329 0.016287 0.603954
O O9 0.397940 0.087250 0.869060
O O10 0.672302 0.682079 0.832735
O O11 0.652603 0.861216 0.865190
O O12 0.604101 0.535673 0.688494
O O13 0.574944 0.600823 0.978388
O O14 0.500000 0.562010 0.250000
#
# Coordination Sequence:
#
# PCOD9455322 Si02
#       7
#     4   8   8   8   8   8   8
#     4  10  20  38  58  84 120 156 182 244 302 348
#     4  10  23  41  61  84 126 157 207 246 294 362
#     4  11  22  40  61  94 122 157 199 253 302 361
#     4   9  22  43  57  87 118 167 200 248 298 357
#     4  10  22  39  63  86 127 153 202 248 302 358
#     4  11  22  40  61  94 122 157 199 253 302 361
#     4  10  22  39  63  86 127 153 202 248 302 358
#
# _framework density 21.817751999999999
#
# number of rings (size 3 to 8) (size 9 to 14) (size 15 to 20)
#    0.000    1.846    1.538    2.308    0.000    3.692 
#    5.538    6.154    0.000    0.000    0.000    0.000 
#    0.000    0.000    0.000    0.000    0.000    0.000 
#
# Total GULP energy -290361.717081 kJ/mol
# GULP energy per Si atom -5583.879175 kJ/mol
# Density = 2.176809 g / cm^3
# Si number density = 21.817752 Si / 1000 Ang^3
#
#
#
# Elastic Constant Matrix: (Units=GPa)
#
#
# Indices 1 2 3 4 5 6 
#
# 1 87.8722 41.9610 8.3506 0.0000 0.0000 0.0000
# 2 41.9610 99.6470 24.0977 0.0000 0.0000 0.0000
# 3 8.3506 24.0977 41.2875 0.0000 0.0000 0.0000
# 4 0.0000 0.0000 0.0000 22.7106 0.0000 0.0000
# 5 0.0000 0.0000 0.0000 0.0000 25.0939 0.0000
# 6 0.0000 0.0000 0.0000 0.0000 0.0000 32.4254
#
#
#
# Elastic Compliance Matrix: (Units=1/GPa)
#
#
# Indices 1 2 3 4 5 6 
#
# 1 0.014263 -0.006181 0.000723 0.000000 0.000000 0.000000
# 2 -0.006181 0.014363 -0.007133 0.000000 0.000000 0.000000
# 3 0.000723 -0.007133 0.028237 0.000000 0.000000 0.000000
# 4 0.000000 0.000000 0.000000 0.044032 0.000000 0.000000
# 5 0.000000 0.000000 0.000000 0.000000 0.039850 0.000000
# 6 0.000000 0.000000 0.000000 0.000000 0.000000 0.030840
#
#
# Mechanical properties :
#
#
# Convention : Reuss Voigt Hill
#
# Bulk Modulus (GPa) = 31.56438 41.95836 36.76137
# Shear Modulus (GPa) = 24.11625 26.33912 25.22769
#
# Velocity S-wave (km/s) = 3.32829 3.47830 3.40412
# Velocity P-wave (km/s) = 5.41005 5.95016 5.68652
#
# Compressibility (1/GPa) = 0.03168128
#
# Stress axis : x y z
#
# Youngs Moduli (GPa) = 70.11155 69.62262 35.41397
#
# Poissons Ratio (x) = 0.43033 -0.02560
# Poissons Ratio (y) = 0.43335 0.25261
# Poissons Ratio (z) = -0.05067 0.49662
#
# Static dielectric constant tensor:
#      x y z
#    x 1.794750 0.000000 0.000000 
#    y 0.000000 1.792940 0.000000 
#    z 0.000000 0.000000 1.858430 
# 
# From -- ./inp_files/7369.got.cif
#   From: 2010.05.17/outbox.cif.g08.bks.cpg/sg60_4_cif.got.tgz:7369.got - 2010.06.03 14:59:27.
