data_PCOD9455604
_publ_section_title
;
Structure prediction by ZEFSAII (Michael W. Deem and Ramdas Pophale) SiO2 
 PCOD9455604
Probable space group: P B C N
;
_chemical_formula_sum "Si O2"
_cell_formula_units_Z 60
_cell_length_a 11.311413
_cell_length_b 26.709588
_cell_length_c 9.177948
_cell_angle_alpha 90.000000
_cell_angle_beta 90.000000
_cell_angle_gamma 90.000000
_cell_volume 2772.870844
_symmetry_space_group_name_H-M "P B C N"
_symmetry_group_IT_number 60
_symmetry_cell_setting 'orthorhombic'
loop_
_space_group_symop_operation_xyz
x,y,z
1/2-x,1/2-y,1/2+z
1/2+x,1/2-y,-z
-x,y,1/2-z
-x,-y,-z
1/2+x,1/2+y,1/2-z
1/2-x,1/2+y,z
x,-y,1/2+z
loop_
_atom_site_type_symbol
_atom_site_label
_atom_site_fract_x
_atom_site_fract_y
_atom_site_fract_z
Si Si1 0.891239 0.035733 0.030953
Si Si2 0.823274 0.402701 0.801133
Si Si3 0.000000 0.423419 0.250000
Si Si4 0.898918 0.141539 0.151307
Si Si5 0.362596 0.272731 0.068914
Si Si6 0.043703 0.368981 0.954566
Si Si7 0.272585 0.010521 0.718973
Si Si8 0.370880 0.242783 0.407798
O O1 0.808135 0.042435 0.890481
O O2 0.939978 0.088369 0.087810
O O3 0.810839 0.009816 0.153365
O O4 0.000000 0.000000 0.000000
O O5 0.704752 0.373738 0.762776
O O6 0.888966 0.409515 0.645145
O O7 0.808275 0.458423 0.862082
O O8 0.909827 0.368937 0.896398
O O9 0.113552 0.459178 0.272630
O O10 0.963193 0.387531 0.382439
O O11 0.000000 0.166208 0.250000
O O12 0.856508 0.173766 0.013499
O O13 0.354502 0.264297 0.243570
O O14 0.499865 0.259485 0.035346
O O15 0.248210 0.245060 0.998311
O O16 0.107313 0.317163 0.916660
#
# Coordination Sequence:
#
# PCOD9455604 Si02
#       8
#     8   8   4   8   8   8   8   8
#     4  11  23  45  65  97 145 193 240 286 343 412
#     4  10  20  40  67  95 140 188 230 282 353 420
#     4  12  24  38  62 114 138 182 240 284 358 418
#     4  11  24  42  73 103 136 184 238 291 354 429
#     4  11  26  48  76 105 141 177 247 295 373 445
#     4  11  23  42  70  95 141 178 228 291 357 435
#     4  11  23  38  65  99 144 188 237 292 339 416
#     4  11  27  49  71 106 138 188 230 310 373 441
#
# _framework density 21.638224000000001
#
# number of rings (size 3 to 8) (size 9 to 14) (size 15 to 20)
#    0.000    1.067    1.333    6.800    1.867    2.667 
#    4.800    1.333    0.000    0.000    0.000    0.000 
#    0.000    0.000    0.000    0.000    0.000    0.000 
#
# Total GULP energy -334777.182631 kJ/mol
# GULP energy per Si atom -5579.619711 kJ/mol
# Density = 2.158897 g / cm^3
# Si number density = 21.638224 Si / 1000 Ang^3
#
#
#
# Elastic Constant Matrix: (Units=GPa)
#
#
# Indices 1 2 3 4 5 6 
#
# 1 121.8308 23.7303 33.1447 0.0000 0.0000 0.0000
# 2 23.7303 71.0943 35.4418 0.0000 0.0000 0.0000
# 3 33.1447 35.4418 89.7520 0.0000 0.0000 0.0000
# 4 0.0000 0.0000 0.0000 27.2034 0.0000 0.0000
# 5 0.0000 0.0000 0.0000 0.0000 41.5339 0.0000
# 6 0.0000 0.0000 0.0000 0.0000 0.0000 28.5107
#
#
#
# Elastic Compliance Matrix: (Units=1/GPa)
#
#
# Indices 1 2 3 4 5 6 
#
# 1 0.009293 -0.001732 -0.002748 0.000000 0.000000 0.000000
# 2 -0.001732 0.017836 -0.006404 0.000000 0.000000 0.000000
# 3 -0.002748 -0.006404 0.014685 0.000000 0.000000 0.000000
# 4 0.000000 0.000000 0.000000 0.036760 0.000000 0.000000
# 5 0.000000 0.000000 0.000000 0.000000 0.024077 0.000000
# 6 0.000000 0.000000 0.000000 0.000000 0.000000 0.035075
#
#
# Mechanical properties :
#
#
# Convention : Reuss Voigt Hill
#
# Bulk Modulus (GPa) = 49.88159 51.92339 50.90249
# Shear Modulus (GPa) = 30.08864 32.14030 31.11447
#
# Velocity S-wave (km/s) = 3.73303 3.85820 3.79613
# Velocity P-wave (km/s) = 6.45626 6.62540 6.54137
#
# Compressibility (1/GPa) = 0.02004748
#
# Stress axis : x y z
#
# Youngs Moduli (GPa) = 107.60729 56.06546 68.09529
#
# Poissons Ratio (x) = 0.09711 0.18712
# Poissons Ratio (y) = 0.18638 0.43606
# Poissons Ratio (z) = 0.29569 0.35902
#
# Static dielectric constant tensor:
#      x y z
#    x 1.857550 0.000000 0.000000 
#    y 0.000000 1.843580 0.000000 
#    z 0.000000 0.000000 1.802330 
# 
# From -- ./inp_files/5250.got.cif
#   From: 2010.05.17/outbox.cif.g08.bks.cpg/sg60_3_cif.got.tgz:5250.got - 2010.06.03 14:59:27.
