data_PCOD9455302
_publ_section_title
;
Structure prediction by ZEFSAII (Michael W. Deem and Ramdas Pophale) SiO2 
 PCOD9455302
Probable space group: P B C N
;
_chemical_formula_sum "Si O2"
_cell_formula_units_Z 48
_cell_length_a 9.982601
_cell_length_b 22.452608
_cell_length_c 11.920021
_cell_angle_alpha 90.000000
_cell_angle_beta 90.000000
_cell_angle_gamma 90.000000
_cell_volume 2671.698998
_symmetry_space_group_name_H-M "P B C N"
_symmetry_group_IT_number 60
_symmetry_cell_setting 'orthorhombic'
loop_
_space_group_symop_operation_xyz
x,y,z
1/2-x,1/2-y,1/2+z
1/2+x,1/2-y,-z
-x,y,1/2-z
-x,-y,-z
1/2+x,1/2+y,1/2-z
1/2-x,1/2+y,z
x,-y,1/2+z
loop_
_atom_site_type_symbol
_atom_site_label
_atom_site_fract_x
_atom_site_fract_y
_atom_site_fract_z
Si Si1 0.974508 0.913464 0.929282
Si Si2 0.308804 0.326170 0.432479
Si Si3 0.271429 0.243959 0.632879
Si Si4 0.000000 0.178473 0.250000
Si Si5 0.345842 0.120393 0.730406
Si Si6 0.000000 0.224714 0.750000
Si Si7 0.893369 0.959203 0.345588
O O1 0.046343 0.866334 0.848172
O O2 0.916257 0.970313 0.863567
O O3 0.851029 0.877884 0.983102
O O4 0.067386 0.933136 0.032731
O O5 0.269415 0.269219 0.506754
O O6 0.198756 0.350258 0.348139
O O7 0.435278 0.311617 0.352878
O O8 0.384183 0.280333 0.700495
O O9 0.312484 0.174557 0.643912
O O10 0.128973 0.255399 0.693616
O O11 0.500000 0.104469 0.750000
O O12 0.249131 0.065866 0.695755
O O13 0.000000 0.940401 0.250000
#
# Coordination Sequence:
#
# PCOD9455302 Si02
#       7
#     8   8   8   4   8   4   8
#     4  10  20  37  65  88 115 152 208 257 288 359
#     4  10  21  37  60  85 123 159 198 250 303 364
#     4  10  22  36  60  88 126 162 196 247 304 373
#     4  10  20  38  59  94 125 154 196 250 306 354
#     4  11  23  39  57  90 124 159 201 247 309 372
#     4  10  22  36  59  90 123 162 204 242 304 386
#     4  11  21  38  64  89 111 157 210 251 299 353
#
# _framework density 17.966096
#
# number of rings (size 3 to 8) (size 9 to 14) (size 15 to 20)
#    0.000    1.667    3.333    2.000    3.500    4.000 
#    0.000    0.833    7.333    0.000    0.000    0.000 
#    0.000    0.000    0.000    0.000    0.000    0.000 
#
# Total GULP energy -267544.097822 kJ/mol
# GULP energy per Si atom -5573.835371 kJ/mol
# Density = 1.792520 g / cm^3
# Si number density = 17.966096 Si / 1000 Ang^3
#
#
#
# Elastic Constant Matrix: (Units=GPa)
#
#
# Indices 1 2 3 4 5 6 
#
# 1 123.5897 31.1251 34.8615 0.0000 0.0000 0.0000
# 2 31.1251 58.9013 31.1255 0.0000 0.0000 0.0000
# 3 34.8615 31.1255 85.1363 0.0000 0.0000 0.0000
# 4 0.0000 0.0000 0.0000 24.7058 0.0000 0.0000
# 5 0.0000 0.0000 0.0000 0.0000 22.1983 0.0000
# 6 0.0000 0.0000 0.0000 0.0000 0.0000 5.6196
#
#
#
# Elastic Compliance Matrix: (Units=1/GPa)
#
#
# Indices 1 2 3 4 5 6 
#
# 1 0.009784 -0.003784 -0.002623 0.000000 0.000000 0.000000
# 2 -0.003784 0.022507 -0.006679 0.000000 0.000000 0.000000
# 3 -0.002623 -0.006679 0.015262 0.000000 0.000000 0.000000
# 4 0.000000 0.000000 0.000000 0.040476 0.000000 0.000000
# 5 0.000000 0.000000 0.000000 0.000000 0.045049 0.000000
# 6 0.000000 0.000000 0.000000 0.000000 0.000000 0.177948
#
#
# Mechanical properties :
#
#
# Convention : Reuss Voigt Hill
#
# Bulk Modulus (GPa) = 46.77139 51.31682 49.04410
# Shear Modulus (GPa) = 14.52120 21.87243 18.19682
#
# Velocity S-wave (km/s) = 2.84607 3.49295 3.18597
# Velocity P-wave (km/s) = 6.07370 6.70021 6.39463
#
# Compressibility (1/GPa) = 0.02138059
#
# Stress axis : x y z
#
# Youngs Moduli (GPa) = 102.20595 44.43157 65.52387
#
# Poissons Ratio (x) = 0.16814 0.17186
# Poissons Ratio (y) = 0.38677 0.43762
# Poissons Ratio (z) = 0.26808 0.29675
#
# Static dielectric constant tensor:
#      x y z
#    x 1.607610 0.000000 0.000000 
#    y 0.000000 1.639240 0.000000 
#    z 0.000000 0.000000 1.656180 
# 
# From -- ./inp_files/10144.got.cif
#   From: 2010.05.17/outbox.cif.g08.bks.cpg/sg60_6_cif.got.tgz:10144.got - 2010.06.03 14:59:27.
