data_PCOD9455164
_publ_section_title
;
Structure prediction by ZEFSAII (Michael W. Deem and Ramdas Pophale) SiO2 
 PCOD9455164
Probable space group: P B C N
;
_chemical_formula_sum "Si O2"
_cell_formula_units_Z 52
_cell_length_a 13.627906
_cell_length_b 9.476768
_cell_length_c 15.968830
_cell_angle_alpha 90.000000
_cell_angle_beta 90.000000
_cell_angle_gamma 90.000000
_cell_volume 2062.350497
_symmetry_space_group_name_H-M "P B C N"
_symmetry_group_IT_number 60
_symmetry_cell_setting 'orthorhombic'
loop_
_space_group_symop_operation_xyz
x,y,z
1/2-x,1/2-y,1/2+z
1/2+x,1/2-y,-z
-x,y,1/2-z
-x,-y,-z
1/2+x,1/2+y,1/2-z
1/2-x,1/2+y,z
x,-y,1/2+z
loop_
_atom_site_type_symbol
_atom_site_label
_atom_site_fract_x
_atom_site_fract_y
_atom_site_fract_z
Si Si1 0.890871 0.090791 0.602116
Si Si2 0.000000 0.743788 0.250000
Si Si3 0.671603 0.063986 0.659038
Si Si4 0.146099 0.336363 0.612457
Si Si5 0.044272 0.638813 0.455344
Si Si6 0.676787 0.132057 0.853375
Si Si7 0.479999 0.688050 0.348318
O O1 0.778093 0.051244 0.617808
O O2 0.891125 0.218859 0.534875
O O3 0.936030 0.162761 0.686342
O O4 0.957799 0.950652 0.597385
O O5 0.922619 0.656332 0.304601
O O6 0.688087 0.073817 0.759057
O O7 0.614537 0.211072 0.644297
O O8 0.603066 0.940881 0.620850
O O9 0.235333 0.235598 0.627491
O O10 0.179948 0.493160 0.589414
O O11 0.062150 0.281527 0.551733
O O12 0.000000 0.500000 0.500000
O O13 0.573558 0.211372 0.865900
O O14 0.500000 0.647939 0.250000
#
# Coordination Sequence:
#
# PCOD9455164 Si02
#       7
#     8   4   8   8   8   8   8
#     4  11  21  38  67  95 127 169 219 277 338 414
#     4  10  20  36  60  98 132 160 202 272 358 406
#     4  11  22  41  65  96 133 168 220 278 348 409
#     4  11  23  39  64  91 131 168 213 273 339 401
#     4  11  26  48  63  90 136 190 234 274 326 408
#     4  11  23  37  64 102 131 162 207 281 361 397
#     4  10  22  36  57  98 135 157 203 274 349 411
#
# _framework density 25.213949
#
# number of rings (size 3 to 8) (size 9 to 14) (size 15 to 20)
#    0.000    1.231    3.846    2.769    9.692    0.000 
#    2.769    0.769    0.000    0.000    0.000    0.000 
#    0.000    0.000    0.000    0.000    0.000    0.000 
#
# Total GULP energy -290039.808740 kJ/mol
# GULP energy per Si atom -5577.688630 kJ/mol
# Density = 2.515656 g / cm^3
# Si number density = 25.213949 Si / 1000 Ang^3
#
#
#
# Elastic Constant Matrix: (Units=GPa)
#
#
# Indices 1 2 3 4 5 6 
#
# 1 170.7085 63.8909 12.0687 0.0000 0.0000 0.0000
# 2 63.8909 164.2185 8.8524 0.0000 0.0000 0.0000
# 3 12.0687 8.8524 60.6182 0.0000 0.0000 0.0000
# 4 0.0000 0.0000 0.0000 31.6269 0.0000 0.0000
# 5 0.0000 0.0000 0.0000 0.0000 12.6320 0.0000
# 6 0.0000 0.0000 0.0000 0.0000 0.0000 40.0010
#
#
#
# Elastic Compliance Matrix: (Units=1/GPa)
#
#
# Indices 1 2 3 4 5 6 
#
# 1 0.006915 -0.002637 -0.000992 0.000000 0.000000 0.000000
# 2 -0.002637 0.007143 -0.000518 0.000000 0.000000 0.000000
# 3 -0.000992 -0.000518 0.016770 0.000000 0.000000 0.000000
# 4 0.000000 0.000000 0.000000 0.031619 0.000000 0.000000
# 5 0.000000 0.000000 0.000000 0.000000 0.079164 0.000000
# 6 0.000000 0.000000 0.000000 0.000000 0.000000 0.024999
#
#
# Mechanical properties :
#
#
# Convention : Reuss Voigt Hill
#
# Bulk Modulus (GPa) = 44.37616 62.79657 53.58637
# Shear Modulus (GPa) = 27.40999 37.56753 32.48876
#
# Velocity S-wave (km/s) = 3.30069 3.86417 3.59349
# Velocity P-wave (km/s) = 5.67134 6.69841 6.20616
#
# Compressibility (1/GPa) = 0.02253462
#
# Stress axis : x y z
#
# Youngs Moduli (GPa) = 144.61427 139.99158 59.63103
#
# Poissons Ratio (x) = 0.36914 0.05913
# Poissons Ratio (y) = 0.38133 0.03090
# Poissons Ratio (z) = 0.14341 0.07254
#
# Static dielectric constant tensor:
#      x y z
#    x 1.911590 0.000000 0.000000 
#    y 0.000000 1.948820 0.000000 
#    z 0.000000 0.000000 2.477380 
# 
# From -- ./inp_files/22863.got.cif
#   From: 2010.05.17/outbox.cif.g08.bks.cpg/sg60_12_cif.got.tgz:22863.got - 2010.06.03 14:59:27.
