data_PCOD9455008
_publ_section_title
;
Structure prediction by ZEFSAII (Michael W. Deem and Ramdas Pophale) SiO2 
 PCOD9455008
Probable space group: P B C N
;
_chemical_formula_sum "Si O2"
_cell_formula_units_Z 48
_cell_length_a 9.283738
_cell_length_b 12.525673
_cell_length_c 22.380328
_cell_angle_alpha 90.000000
_cell_angle_beta 90.000000
_cell_angle_gamma 90.000000
_cell_volume 2602.497928
_symmetry_space_group_name_H-M "P B C N"
_symmetry_group_IT_number 60
_symmetry_cell_setting 'orthorhombic'
loop_
_space_group_symop_operation_xyz
x,y,z
1/2-x,1/2-y,1/2+z
1/2+x,1/2-y,-z
-x,y,1/2-z
-x,-y,-z
1/2+x,1/2+y,1/2-z
1/2-x,1/2+y,z
x,-y,1/2+z
loop_
_atom_site_type_symbol
_atom_site_label
_atom_site_fract_x
_atom_site_fract_y
_atom_site_fract_z
Si Si1 0.477834 0.790427 0.025939
Si Si2 0.235109 0.594114 0.607568
Si Si3 0.012729 0.263608 0.611242
Si Si4 0.724441 0.876580 0.099235
Si Si5 0.489711 0.989015 0.820937
Si Si6 0.144880 0.941588 0.518448
O O1 0.365154 0.874656 0.051183
O O2 0.609904 0.792016 0.072202
O O3 0.392731 0.680702 0.026898
O O4 0.524816 0.804215 0.957560
O O5 0.348629 0.687437 0.622229
O O6 0.126964 0.559538 0.658843
O O7 0.312066 0.490538 0.581384
O O8 0.870641 0.186988 0.615864
O O9 0.999508 0.369662 0.651155
O O10 0.648082 0.947996 0.150261
O O11 0.754233 0.948615 0.040089
O O12 0.500000 0.981682 0.750000
O O13 0.000000 0.000000 0.500000
#
# Coordination Sequence:
#
# PCOD9455008 Si02
#       6
#     8   8   8   8   8   8
#     4  10  20  34  58  96 127 150 179 231 306 367
#     4  11  21  38  60  89 123 155 190 238 297 355
#     4  11  21  37  64  89 118 153 193 239 301 357
#     4  10  22  37  61  90 123 152 192 238 298 354
#     4  11  26  43  58  80 116 162 212 250 279 327
#     4  11  20  32  61  93 124 144 176 234 300 370
#
# _framework density 18.443816999999999
#
# number of rings (size 3 to 8) (size 9 to 14) (size 15 to 20)
#    0.000    1.333    3.333    5.000    2.333    4.000 
#    0.000    0.000    0.000    0.000    0.000    0.000 
#    0.000    0.000    0.000    0.000    0.000    0.000 
#
# Total GULP energy -267660.727228 kJ/mol
# GULP energy per Si atom -5576.265151 kJ/mol
# Density = 1.840184 g / cm^3
# Si number density = 18.443817 Si / 1000 Ang^3
#
#
#
# Elastic Constant Matrix: (Units=GPa)
#
#
# Indices 1 2 3 4 5 6 
#
# 1 100.9820 36.6941 40.6694 0.0000 0.0000 0.0000
# 2 36.6941 80.5800 72.5916 0.0000 0.0000 0.0000
# 3 40.6694 72.5916 107.2460 0.0000 0.0000 0.0000
# 4 0.0000 0.0000 0.0000 13.9203 0.0000 0.0000
# 5 0.0000 0.0000 0.0000 0.0000 11.7945 0.0000
# 6 0.0000 0.0000 0.0000 0.0000 0.0000 22.6793
#
#
#
# Elastic Compliance Matrix: (Units=1/GPa)
#
#
# Indices 1 2 3 4 5 6 
#
# 1 0.012065 -0.003517 -0.002195 0.000000 0.000000 0.000000
# 2 -0.003517 0.032827 -0.020886 0.000000 0.000000 0.000000
# 3 -0.002195 -0.020886 0.024294 0.000000 0.000000 0.000000
# 4 0.000000 0.000000 0.000000 0.071837 0.000000 0.000000
# 5 0.000000 0.000000 0.000000 0.000000 0.084785 0.000000
# 6 0.000000 0.000000 0.000000 0.000000 0.000000 0.044093
#
#
# Mechanical properties :
#
#
# Convention : Reuss Voigt Hill
#
# Bulk Modulus (GPa) = 62.53776 65.41315 63.97545
# Shear Modulus (GPa) = 15.22415 18.93568 17.07992
#
# Velocity S-wave (km/s) = 2.87615 3.20764 3.04641
# Velocity P-wave (km/s) = 6.70898 7.01867 6.86557
#
# Compressibility (1/GPa) = 0.01599034
#
# Stress axis : x y z
#
# Youngs Moduli (GPa) = 82.88756 30.46287 41.16306
#
# Poissons Ratio (x) = 0.10713 0.09034
# Poissons Ratio (y) = 0.29150 0.85973
# Poissons Ratio (z) = 0.18191 0.63624
#
# Static dielectric constant tensor:
#      x y z
#    x 1.718860 0.000000 0.000000 
#    y 0.000000 1.658910 0.000000 
#    z 0.000000 0.000000 1.617700 
# 
# From -- ./inp_files/23932.got.cif
#   From: 2010.05.17/outbox.cif.g08.bks.cpg/sg60_12_cif.got.tgz:23932.got - 2010.06.03 14:59:27.
