data_PCOD9455380
_publ_section_title
;
Structure prediction by ZEFSAII (Michael W. Deem and Ramdas Pophale) SiO2 
 PCOD9455380
Probable space group: P B C N
;
_chemical_formula_sum "Si O2"
_cell_formula_units_Z 36
_cell_length_a 10.785459
_cell_length_b 13.879193
_cell_length_c 12.862135
_cell_angle_alpha 90.000000
_cell_angle_beta 90.000000
_cell_angle_gamma 90.000000
_cell_volume 1925.377582
_symmetry_space_group_name_H-M "P B C N"
_symmetry_group_IT_number 60
_symmetry_cell_setting 'orthorhombic'
loop_
_space_group_symop_operation_xyz
x,y,z
1/2-x,1/2-y,1/2+z
1/2+x,1/2-y,-z
-x,y,1/2-z
-x,-y,-z
1/2+x,1/2+y,1/2-z
1/2-x,1/2+y,z
x,-y,1/2+z
loop_
_atom_site_type_symbol
_atom_site_label
_atom_site_fract_x
_atom_site_fract_y
_atom_site_fract_z
Si Si1 0.500000 0.431419 0.750000
Si Si2 0.681947 0.677461 0.409355
Si Si3 0.065138 0.582177 0.140343
Si Si4 0.852238 0.604047 0.970253
Si Si5 0.372669 0.516357 0.937615
O O1 0.420118 0.366270 0.670199
O O2 0.407639 0.497883 0.818166
O O3 0.816963 0.651417 0.366204
O O4 0.667631 0.790238 0.426060
O O5 0.671575 0.619984 0.519703
O O6 0.113673 0.474314 0.117213
O O7 0.000000 0.588130 0.250000
O O8 0.965812 0.606152 0.051072
O O9 0.730857 0.560700 0.027225
O O10 0.500000 0.500000 0.000000
#
# Coordination Sequence:
#
# PCOD9455380 Si02
#       5
#     4   8   8   8   8
#     4  10  20  38  62  90 126 166 208 250 312 384
#     4  10  22  38  64  92 123 165 210 257 315 383
#     4  10  22  42  61  91 128 163 209 264 316 382
#     4  10  22  40  64  88 128 165 203 264 322 371
#     4   9  20  39  59  88 127 155 200 259 308 367
#
# _framework density 18.697631000000001
#
# number of rings (size 3 to 8) (size 9 to 14) (size 15 to 20)
#    0.000    2.222    0.000    1.333    7.778    0.000 
#    2.000    8.889    0.000    0.000    0.000    0.000 
#    0.000    0.000    0.000    0.000    0.000    0.000 
#
# Total GULP energy -200910.625366 kJ/mol
# GULP energy per Si atom -5580.850705 kJ/mol
# Density = 1.865507 g / cm^3
# Si number density = 18.697631 Si / 1000 Ang^3
#
#
#
# Elastic Constant Matrix: (Units=GPa)
#
#
# Indices 1 2 3 4 5 6 
#
# 1 123.4591 61.7361 41.7075 0.0000 0.0000 0.0000
# 2 61.7361 154.9131 78.8608 0.0000 0.0000 0.0000
# 3 41.7075 78.8608 81.1472 0.0000 0.0000 0.0000
# 4 0.0000 0.0000 0.0000 5.8781 0.0000 0.0000
# 5 0.0000 0.0000 0.0000 0.0000 36.7702 0.0000
# 6 0.0000 0.0000 0.0000 0.0000 0.0000 3.6986
#
#
#
# Elastic Compliance Matrix: (Units=1/GPa)
#
#
# Indices 1 2 3 4 5 6 
#
# 1 0.010387 -0.002814 -0.002604 0.000000 0.000000 0.000000
# 2 -0.002814 0.013538 -0.011710 0.000000 0.000000 0.000000
# 3 -0.002604 -0.011710 0.025042 0.000000 0.000000 0.000000
# 4 0.000000 0.000000 0.000000 0.170122 0.000000 0.000000
# 5 0.000000 0.000000 0.000000 0.000000 0.027196 0.000000
# 6 0.000000 0.000000 0.000000 0.000000 0.000000 0.270373
#
#
# Mechanical properties :
#
#
# Convention : Reuss Voigt Hill
#
# Bulk Modulus (GPa) = 67.97870 80.45869 74.21869
# Shear Modulus (GPa) = 8.99578 21.08371 15.03975
#
# Velocity S-wave (km/s) = 2.19582 3.36164 2.83921
# Velocity P-wave (km/s) = 6.54711 7.62839 7.10834
#
# Compressibility (1/GPa) = 0.01471049
#
# Stress axis : x y z
#
# Youngs Moduli (GPa) = 96.27867 73.86751 39.93298
#
# Poissons Ratio (x) = 0.20783 0.10399
# Poissons Ratio (y) = 0.27089 0.46762
# Poissons Ratio (z) = 0.25072 0.86500
#
# Static dielectric constant tensor:
#      x y z
#    x 1.640140 0.000000 0.000000 
#    y 0.000000 1.615570 0.000000 
#    z 0.000000 0.000000 1.648230 
# 
# From -- ./inp_files/10675.got.cif
#   From: 2010.05.17/outbox.cif.g08.bks.cpg/sg60_6_cif.got.tgz:10675.got - 2010.06.03 14:59:27.
