data_PCOD9455280
_publ_section_title
;
Structure prediction by ZEFSAII (Michael W. Deem and Ramdas Pophale) SiO2 
 PCOD9455280
Probable space group: P B C N
;
_chemical_formula_sum "Si O2"
_cell_formula_units_Z 32
_cell_length_a 12.594859
_cell_length_b 14.828632
_cell_length_c 8.359283
_cell_angle_alpha 90.000000
_cell_angle_beta 90.000000
_cell_angle_gamma 90.000000
_cell_volume 1561.217554
_symmetry_space_group_name_H-M "P B C N"
_symmetry_group_IT_number 60
_symmetry_cell_setting 'orthorhombic'
loop_
_space_group_symop_operation_xyz
x,y,z
1/2-x,1/2-y,1/2+z
1/2+x,1/2-y,-z
-x,y,1/2-z
-x,-y,-z
1/2+x,1/2+y,1/2-z
1/2-x,1/2+y,z
x,-y,1/2+z
loop_
_atom_site_type_symbol
_atom_site_label
_atom_site_fract_x
_atom_site_fract_y
_atom_site_fract_z
Si Si1 0.596257 0.437620 0.861314
Si Si2 0.962542 0.404965 0.566366
Si Si3 0.969688 0.787447 0.436726
Si Si4 0.788973 0.100329 0.046911
O O1 0.500000 0.477004 0.750000
O O2 0.677127 0.397880 0.732249
O O3 0.541438 0.360397 0.968070
O O4 0.657558 0.511948 0.964993
O O5 0.836618 0.399223 0.540090
O O6 0.000000 0.404559 0.750000
O O7 0.000000 0.500000 0.500000
O O8 0.011581 0.312801 0.496749
O O9 0.848332 0.817392 0.460722
O O10 0.000000 0.790000 0.250000
#
# Coordination Sequence:
#
# PCOD9455280 Si02
#       4
#     8   8   8   8
#     4  10  20  37  62  94 121 154 203 246 294 360
#     4  11  26  43  60  88 123 158 203 248 298 362
#     4  10  22  40  61  91 122 156 204 248 292 359
#     4  11  21  38  64  89 122 162 193 248 305 345
#
# _framework density 20.496822999999999
#
# number of rings (size 3 to 8) (size 9 to 14) (size 15 to 20)
#    0.000    1.500    0.000    6.750    0.000    9.000 
#    0.000    0.000    0.000    0.000    0.000    0.000 
#    0.000    0.000    0.000    0.000    0.000    0.000 
#
# Total GULP energy -178766.131278 kJ/mol
# GULP energy per Si atom -5586.441602 kJ/mol
# Density = 2.045017 g / cm^3
# Si number density = 20.496823 Si / 1000 Ang^3
#
#
#
# Elastic Constant Matrix: (Units=GPa)
#
#
# Indices 1 2 3 4 5 6 
#
# 1 180.3479 87.4152 32.9133 0.0000 0.0000 0.0000
# 2 87.4152 159.8837 42.8004 0.0000 0.0000 0.0000
# 3 32.9133 42.8004 80.1947 0.0000 0.0000 0.0000
# 4 0.0000 0.0000 0.0000 24.8633 0.0000 0.0000
# 5 0.0000 0.0000 0.0000 0.0000 26.8278 0.0000
# 6 0.0000 0.0000 0.0000 0.0000 0.0000 9.6396
#
#
#
# Elastic Compliance Matrix: (Units=1/GPa)
#
#
# Indices 1 2 3 4 5 6 
#
# 1 0.007620 -0.003884 -0.001054 0.000000 0.000000 0.000000
# 2 -0.003884 0.009277 -0.003357 0.000000 0.000000 0.000000
# 3 -0.001054 -0.003357 0.014694 0.000000 0.000000 0.000000
# 4 0.000000 0.000000 0.000000 0.040220 0.000000 0.000000
# 5 0.000000 0.000000 0.000000 0.000000 0.037275 0.000000
# 6 0.000000 0.000000 0.000000 0.000000 0.000000 0.103739
#
#
# Mechanical properties :
#
#
# Convention : Reuss Voigt Hill
#
# Bulk Modulus (GPa) = 66.66703 82.96489 74.81596
# Shear Modulus (GPa) = 21.32971 29.41929 25.37450
#
# Velocity S-wave (km/s) = 3.22939 3.79266 3.52230
# Velocity P-wave (km/s) = 6.81919 7.72941 7.28853
#
# Compressibility (1/GPa) = 0.01499992
#
# Stress axis : x y z
#
# Youngs Moduli (GPa) = 131.23785 107.79778 68.05455
#
# Poissons Ratio (x) = 0.41866 0.07176
# Poissons Ratio (y) = 0.50970 0.22846
# Poissons Ratio (z) = 0.13839 0.36188
#
# Static dielectric constant tensor:
#      x y z
#    x 1.658360 0.000000 0.000000 
#    y 0.000000 1.765520 0.000000 
#    z 0.000000 0.000000 1.742230 
# 
# From -- ./inp_files/4517.got.cif
#   From: 2010.05.17/outbox.cif.g08.bks.cpg/sg60_3_cif.got.tgz:4517.got - 2010.06.03 14:59:27.
