data_PCOD9455907
_publ_section_title
;
Structure prediction by ZEFSAII (Michael W. Deem and Ramdas Pophale) SiO2 
 PCOD9455907
Probable space group: P B C N
;
_chemical_formula_sum "Si O2"
_cell_formula_units_Z 32
_cell_length_a 16.522542
_cell_length_b 18.028858
_cell_length_c 5.235090
_cell_angle_alpha 90.000000
_cell_angle_beta 90.000000
_cell_angle_gamma 90.000000
_cell_volume 1559.442029
_symmetry_space_group_name_H-M "P B C N"
_symmetry_group_IT_number 60
_symmetry_cell_setting 'orthorhombic'
loop_
_space_group_symop_operation_xyz
x,y,z
1/2-x,1/2-y,1/2+z
1/2+x,1/2-y,-z
-x,y,1/2-z
-x,-y,-z
1/2+x,1/2+y,1/2-z
1/2-x,1/2+y,z
x,-y,1/2+z
loop_
_atom_site_type_symbol
_atom_site_label
_atom_site_fract_x
_atom_site_fract_y
_atom_site_fract_z
Si Si1 0.325769 0.174975 0.786006
Si Si2 0.908973 0.467799 0.054308
Si Si3 0.718765 0.338658 0.716335
Si Si4 0.919556 0.953090 0.661197
O O1 0.397722 0.116702 0.850075
O O2 0.285346 0.162084 0.509581
O O3 0.335866 0.263664 0.805126
O O4 0.260854 0.159655 0.008836
O O5 0.870253 0.517481 0.278115
O O6 0.000000 0.500000 0.000000
O O7 0.660820 0.407523 0.692406
O O8 0.000000 0.908858 0.750000
O O9 0.921538 0.981258 0.371315
#
# Coordination Sequence:
#
# PCOD9455907 Si02
#       4
#     8   8   8   8
#     4  10  21  37  58  83 118 147 197 238 279 351
#     4  10  21  37  56  81 118 153 190 238 286 345
#     4  10  21  37  58  85 112 153 192 238 290 339
#     4  10  21  37  57  83 114 142 188 238 287 345
#
# _framework density 20.520160000000001
#
# number of rings (size 3 to 8) (size 9 to 14) (size 15 to 20)
#    0.000    2.000    0.000    3.000    0.000    6.000 
#    4.500    0.000   11.000    0.000    0.000    0.000 
#    0.000    0.000    0.000    0.000    0.000    0.000 
#
# Total GULP energy -178213.888035 kJ/mol
# GULP energy per Si atom -5569.184001 kJ/mol
# Density = 2.047346 g / cm^3
# Si number density = 20.520160 Si / 1000 Ang^3
#
#
#
# Elastic Constant Matrix: (Units=GPa)
#
#
# Indices 1 2 3 4 5 6 
#
# 1 39.1929 26.8998 -9.2934 0.0000 0.0000 0.0000
# 2 26.8998 65.0515 3.2343 0.0000 0.0000 0.0000
# 3 -9.2934 3.2343 101.0536 0.0000 0.0000 0.0000
# 4 0.0000 0.0000 0.0000 25.1589 0.0000 0.0000
# 5 0.0000 0.0000 0.0000 0.0000 13.6051 0.0000
# 6 0.0000 0.0000 0.0000 0.0000 0.0000 29.3481
#
#
#
# Elastic Compliance Matrix: (Units=1/GPa)
#
#
# Indices 1 2 3 4 5 6 
#
# 1 0.037107 -0.015539 0.003910 0.000000 0.000000 0.000000
# 2 -0.015539 0.021904 -0.002130 0.000000 0.000000 0.000000
# 3 0.003910 -0.002130 0.010323 0.000000 0.000000 0.000000
# 4 0.000000 0.000000 0.000000 0.039747 0.000000 0.000000
# 5 0.000000 0.000000 0.000000 0.000000 0.073502 0.000000
# 6 0.000000 0.000000 0.000000 0.000000 0.000000 0.034074
#
#
# Mechanical properties :
#
#
# Convention : Reuss Voigt Hill
#
# Bulk Modulus (GPa) = 23.91407 27.44214 25.67811
# Shear Modulus (GPa) = 19.37134 25.91957 22.64546
#
# Velocity S-wave (km/s) = 3.07582 3.55791 3.32561
# Velocity P-wave (km/s) = 4.92884 5.50278 5.22370
#
# Compressibility (1/GPa) = 0.04181639
#
# Stress axis : x y z
#
# Youngs Moduli (GPa) = 26.94932 45.65422 96.86656
#
# Poissons Ratio (x) = 0.70940 -0.37873
# Poissons Ratio (y) = 0.41875 0.20633
# Poissons Ratio (z) = -0.10537 0.09725
#
# Static dielectric constant tensor:
#      x y z
#    x 1.884810 0.000000 0.000000 
#    y 0.000000 1.771150 0.000000 
#    z 0.000000 0.000000 1.852790 
# 
# From -- ./inp_files/1040.got.cif
#   From: 2010.05.17/outbox.cif.g08.bks.cpg/sg60_1_cif.got.tgz:1040.got - 2010.06.03 14:59:27.
