data_PCOD9455531
_publ_section_title
;
Structure prediction by ZEFSAII (Michael W. Deem and Ramdas Pophale) SiO2 
 PCOD9455531
Probable space group: P B C N
;
_chemical_formula_sum "Si O2"
_cell_formula_units_Z 56
_cell_length_a 11.369372
_cell_length_b 9.518322
_cell_length_c 20.648974
_cell_angle_alpha 90.000000
_cell_angle_beta 90.000000
_cell_angle_gamma 90.000000
_cell_volume 2234.577115
_symmetry_space_group_name_H-M "P B C N"
_symmetry_group_IT_number 60
_symmetry_cell_setting 'orthorhombic'
loop_
_space_group_symop_operation_xyz
x,y,z
1/2-x,1/2-y,1/2+z
1/2+x,1/2-y,-z
-x,y,1/2-z
-x,-y,-z
1/2+x,1/2+y,1/2-z
1/2-x,1/2+y,z
x,-y,1/2+z
loop_
_atom_site_type_symbol
_atom_site_label
_atom_site_fract_x
_atom_site_fract_y
_atom_site_fract_z
Si Si1 0.900849 0.097091 0.683459
Si Si2 0.515526 0.405268 0.436157
Si Si3 0.818690 0.581949 0.591506
Si Si4 0.220299 0.922425 0.713623
Si Si5 0.226212 0.339036 0.121003
Si Si6 0.188889 0.297036 0.981225
Si Si7 0.928861 0.412371 0.692058
O O1 0.969050 0.011091 0.627744
O O2 0.773178 0.118638 0.649008
O O3 0.965329 0.249502 0.683892
O O4 0.878040 0.021004 0.751909
O O5 0.500000 0.500000 0.500000
O O6 0.643918 0.353261 0.413615
O O7 0.423096 0.279076 0.448612
O O8 0.785215 0.448145 0.548223
O O9 0.803454 0.706907 0.540605
O O10 0.927108 0.516295 0.631394
O O11 0.200389 0.779793 0.674444
O O12 0.300968 0.889384 0.775571
O O13 0.285510 0.016799 0.659877
O O14 0.155045 0.307742 0.056194
O O15 0.000000 0.480459 0.750000
#
# Coordination Sequence:
#
# PCOD9455531 Si02
#       7
#     8   8   8   8   8   8   8
#     4  10  21  39  67  93 130 175 230 274 343 429
#     4  11  23  43  71 103 133 189 241 283 350 436
#     4  10  20  39  67  93 124 171 228 271 346 409
#     4  11  24  39  66  97 136 178 228 286 355 409
#     4  12  24  44  67  99 143 182 234 299 352 419
#     4  11  23  43  68  97 133 180 230 293 344 420
#     4  11  21  40  66  97 131 178 226 281 353 420
#
# _framework density 25.060668
#
# number of rings (size 3 to 8) (size 9 to 14) (size 15 to 20)
#    0.000    1.143    4.286    4.286    0.000    0.000 
#    2.571    1.429    3.143    0.857    0.000    0.000 
#    0.000    0.000    0.000    0.000    0.000    0.000 
#
# Total GULP energy -312218.931013 kJ/mol
# GULP energy per Si atom -5575.338054 kJ/mol
# Density = 2.500363 g / cm^3
# Si number density = 25.060668 Si / 1000 Ang^3
#
#
#
# Elastic Constant Matrix: (Units=GPa)
#
#
# Indices 1 2 3 4 5 6 
#
# 1 34.6168 -23.1799 0.0854 0.0000 0.0000 0.0000
# 2 -23.1799 60.3902 21.1026 0.0000 0.0000 0.0000
# 3 0.0854 21.1026 137.5879 0.0000 0.0000 0.0000
# 4 0.0000 0.0000 0.0000 54.0697 0.0000 0.0000
# 5 0.0000 0.0000 0.0000 0.0000 42.6071 0.0000
# 6 0.0000 0.0000 0.0000 0.0000 0.0000 7.6933
#
#
#
# Elastic Compliance Matrix: (Units=1/GPa)
#
#
# Indices 1 2 3 4 5 6 
#
# 1 0.039675 0.016100 -0.002494 0.000000 0.000000 0.000000
# 2 0.016100 0.024030 -0.003696 0.000000 0.000000 0.000000
# 3 -0.002494 -0.003696 0.007836 0.000000 0.000000 0.000000
# 4 0.000000 0.000000 0.000000 0.018495 0.000000 0.000000
# 5 0.000000 0.000000 0.000000 0.000000 0.023470 0.000000
# 6 0.000000 0.000000 0.000000 0.000000 0.000000 0.129983
#
#
# Mechanical properties :
#
#
# Convention : Reuss Voigt Hill
#
# Bulk Modulus (GPa) = 10.94545 25.40124 18.17334
# Shear Modulus (GPa) = 19.67555 36.51313 28.09434
#
# Velocity S-wave (km/s) = 2.80503 3.82119 3.35185
# Velocity P-wave (km/s) = 3.85591 5.44303 4.71670
#
# Compressibility (1/GPa) = 0.09136215
#
# Stress axis : x y z
#
# Youngs Moduli (GPa) = 25.20499 41.61439 127.60877
#
# Poissons Ratio (x) = -0.66999 0.31825
# Poissons Ratio (y) = -0.40580 0.47160
# Poissons Ratio (z) = 0.06286 0.15379
#
# Static dielectric constant tensor:
#      x y z
#    x 2.203830 0.000000 0.000000 
#    y 0.000000 1.955280 0.000000 
#    z 0.000000 0.000000 2.041340 
# 
# From -- ./inp_files/22922.got.cif
#   From: 2010.05.17/outbox.cif.g08.bks.cpg/sg60_12_cif.got.tgz:22922.got - 2010.06.03 14:59:27.
