data_PCOD9455183
_publ_section_title
;
Structure prediction by ZEFSAII (Michael W. Deem and Ramdas Pophale) SiO2 
 PCOD9455183
Probable space group: P B C N
;
_chemical_formula_sum "Si O2"
_cell_formula_units_Z 60
_cell_length_a 12.080819
_cell_length_b 11.563416
_cell_length_c 18.753369
_cell_angle_alpha 90.000000
_cell_angle_beta 90.000000
_cell_angle_gamma 90.000000
_cell_volume 2619.761929
_symmetry_space_group_name_H-M "P B C N"
_symmetry_group_IT_number 60
_symmetry_cell_setting 'orthorhombic'
loop_
_space_group_symop_operation_xyz
x,y,z
1/2-x,1/2-y,1/2+z
1/2+x,1/2-y,-z
-x,y,1/2-z
-x,-y,-z
1/2+x,1/2+y,1/2-z
1/2-x,1/2+y,z
x,-y,1/2+z
loop_
_atom_site_type_symbol
_atom_site_label
_atom_site_fract_x
_atom_site_fract_y
_atom_site_fract_z
Si Si1 0.863347 0.001696 0.318044
Si Si2 0.907595 0.923128 0.670729
Si Si3 0.399989 0.694801 0.565804
Si Si4 0.292488 0.935519 0.992604
Si Si5 0.372443 0.396687 0.446965
Si Si6 0.000000 0.593099 0.250000
Si Si7 0.312793 0.812334 0.848297
Si Si8 0.877218 0.544630 0.382052
O O1 0.869515 0.986651 0.232909
O O2 0.745665 0.039836 0.347500
O O3 0.961355 0.097283 0.324742
O O4 0.895792 0.888956 0.364215
O O5 0.814414 0.825886 0.675707
O O6 0.897112 0.986070 0.595501
O O7 0.291786 0.663395 0.520056
O O8 0.513036 0.657197 0.525543
O O9 0.404079 0.826138 0.590981
O O10 0.384399 0.954980 0.052711
O O11 0.330235 0.906821 0.912750
O O12 0.223283 0.056579 0.997786
O O13 0.330065 0.305927 0.389540
O O14 0.100762 0.667005 0.284537
O O15 0.044409 0.519036 0.184422
#
# Coordination Sequence:
#
# PCOD9455183 Si02
#       8
#     8   8   8   8   8   4   8   8
#     4   9  19  34  59  88 120 156 202 255 306 353
#     4   9  19  34  59  88 120 156 202 255 306 353
#     4  10  20  36  63  91 117 157 204 255 301 359
#     4  10  23  41  60  88 126 160 204 252 308 360
#     4  10  20  36  63  91 117 157 204 255 301 359
#     4  12  24  38  62  94 124 160 208 248 304 368
#     4  11  22  39  63  91 124 163 206 252 301 367
#     4  11  22  39  63  91 124 163 206 252 301 367
#
# _framework density 22.902844000000002
#
# number of rings (size 3 to 8) (size 9 to 14) (size 15 to 20)
#    0.000    1.867    2.667    1.200    1.867    1.600 
#    0.000    0.000   11.733    0.000    0.000    0.000 
#    0.000    0.000    0.000    0.000    0.000    0.000 
#
# Total GULP energy -334722.251968 kJ/mol
# GULP energy per Si atom -5578.704199 kJ/mol
# Density = 2.285072 g / cm^3
# Si number density = 22.902844 Si / 1000 Ang^3
#
#
#
# Elastic Constant Matrix: (Units=GPa)
#
#
# Indices 1 2 3 4 5 6 
#
# 1 74.5142 15.0650 8.7908 0.0000 0.0000 0.0000
# 2 15.0650 41.5222 3.9037 0.0000 0.0000 0.0000
# 3 8.7908 3.9037 91.6840 0.0000 0.0000 0.0000
# 4 0.0000 0.0000 0.0000 25.2146 0.0000 0.0000
# 5 0.0000 0.0000 0.0000 0.0000 33.6835 0.0000
# 6 0.0000 0.0000 0.0000 0.0000 0.0000 14.0376
#
#
#
# Elastic Compliance Matrix: (Units=1/GPa)
#
#
# Indices 1 2 3 4 5 6 
#
# 1 0.014609 -0.005189 -0.001180 0.000000 0.000000 0.000000
# 2 -0.005189 0.026024 -0.000610 0.000000 0.000000 0.000000
# 3 -0.001180 -0.000610 0.011046 0.000000 0.000000 0.000000
# 4 0.000000 0.000000 0.000000 0.039660 0.000000 0.000000
# 5 0.000000 0.000000 0.000000 0.000000 0.029688 0.000000
# 6 0.000000 0.000000 0.000000 0.000000 0.000000 0.071237
#
#
# Mechanical properties :
#
#
# Convention : Reuss Voigt Hill
#
# Bulk Modulus (GPa) = 26.51164 29.24884 27.88024
# Shear Modulus (GPa) = 22.85239 26.58454 24.71846
#
# Velocity S-wave (km/s) = 3.16222 3.41068 3.28880
# Velocity P-wave (km/s) = 4.99336 5.32061 5.15958
#
# Compressibility (1/GPa) = 0.03771928
#
# Stress axis : x y z
#
# Youngs Moduli (GPa) = 68.45283 38.42651 90.52937
#
# Poissons Ratio (x) = 0.19941 0.10680
# Poissons Ratio (y) = 0.35523 0.05527
# Poissons Ratio (z) = 0.08076 0.02346
#
# Static dielectric constant tensor:
#      x y z
#    x 1.988510 0.000000 0.000000 
#    y 0.000000 1.821440 0.000000 
#    z 0.000000 0.000000 1.923430 
# 
# From -- ./inp_files/22672.got.cif
#   From: 2010.05.17/outbox.cif.g08.bks.cpg/sg60_12_cif.got.tgz:22672.got - 2010.06.03 14:59:27.
