data_PCOD9455188
_publ_section_title
;
Structure prediction by ZEFSAII (Michael W. Deem and Ramdas Pophale) SiO2 
 PCOD9455188
Probable space group: P B C N
;
_chemical_formula_sum "Si O2"
_cell_formula_units_Z 48
_cell_length_a 9.139986
_cell_length_b 23.026255
_cell_length_c 11.829223
_cell_angle_alpha 90.000000
_cell_angle_beta 90.000000
_cell_angle_gamma 90.000000
_cell_volume 2489.574113
_symmetry_space_group_name_H-M "P B C N"
_symmetry_group_IT_number 60
_symmetry_cell_setting 'orthorhombic'
loop_
_space_group_symop_operation_xyz
x,y,z
1/2-x,1/2-y,1/2+z
1/2+x,1/2-y,-z
-x,y,1/2-z
-x,-y,-z
1/2+x,1/2+y,1/2-z
1/2-x,1/2+y,z
x,-y,1/2+z
loop_
_atom_site_type_symbol
_atom_site_label
_atom_site_fract_x
_atom_site_fract_y
_atom_site_fract_z
Si Si1 0.636623 0.433606 0.823456
Si Si2 0.500000 0.675126 0.250000
Si Si3 0.764731 0.049649 0.790904
Si Si4 0.541954 0.410392 0.079221
Si Si5 0.541277 0.272750 0.119969
Si Si6 0.116594 0.269804 0.414377
Si Si7 0.000000 0.369014 0.250000
O O1 0.500000 0.458569 0.750000
O O2 0.636125 0.367932 0.775868
O O3 0.761691 0.480435 0.800002
O O4 0.593780 0.427657 0.954390
O O5 0.534359 0.716463 0.146315
O O6 0.841167 0.068156 0.672573
O O7 0.624049 0.089887 0.802386
O O8 0.885302 0.062979 0.887225
O O9 0.523191 0.341113 0.091169
O O10 0.500000 0.265141 0.250000
O O11 0.711083 0.260220 0.096483
O O12 0.438877 0.233008 0.042018
O O13 0.070596 0.327159 0.345122
#
# Coordination Sequence:
#
# PCOD9455188 Si02
#       7
#     8   4   8   8   8   8   4
#     4  10  20  36  64  91 117 158 220 266 304 372
#     4   9  20  38  62  92 124 169 212 266 322 377
#     4  11  22  38  65  91 120 169 214 264 312 382
#     4  11  19  38  63  90 119 162 224 260 305 383
#     4  12  24  40  66  97 131 173 216 264 330 394
#     4  11  25  40  66  95 136 167 215 266 329 390
#     4  11  24  44  62  94 136 171 204 272 336 383
#
# _framework density 19.280405999999999
#
# number of rings (size 3 to 8) (size 9 to 14) (size 15 to 20)
#    0.500    0.667    6.667    0.500    7.000    0.000 
#    0.000    0.833    5.500    0.000    0.000    0.000 
#    0.000    0.000    0.000    0.000    0.000    0.000 
#
# Total GULP energy -267740.362028 kJ/mol
# GULP energy per Si atom -5577.924209 kJ/mol
# Density = 1.923652 g / cm^3
# Si number density = 19.280406 Si / 1000 Ang^3
#
#
#
# Elastic Constant Matrix: (Units=GPa)
#
#
# Indices 1 2 3 4 5 6 
#
# 1 79.1958 17.1152 20.1372 0.0000 0.0000 0.0000
# 2 17.1152 92.9861 14.1496 0.0000 0.0000 0.0000
# 3 20.1372 14.1496 118.5605 0.0000 0.0000 0.0000
# 4 0.0000 0.0000 0.0000 -6.9694 0.0000 0.0000
# 5 0.0000 0.0000 0.0000 0.0000 16.6926 0.0000
# 6 0.0000 0.0000 0.0000 0.0000 0.0000 12.7136
#
#
#
# Elastic Compliance Matrix: (Units=1/GPa)
#
#
# Indices 1 2 3 4 5 6 
#
# 1 0.013623 -0.002195 -0.002052 0.000000 0.000000 0.000000
# 2 -0.002195 0.011307 -0.000977 0.000000 0.000000 0.000000
# 3 -0.002052 -0.000977 0.008900 0.000000 0.000000 0.000000
# 4 0.000000 0.000000 0.000000 -0.143484 0.000000 0.000000
# 5 0.000000 0.000000 0.000000 0.000000 0.059907 0.000000
# 6 0.000000 0.000000 0.000000 0.000000 0.000000 0.078656
#
#
# Mechanical properties :
#
#
# Convention : Reuss Voigt Hill
#
# Bulk Modulus (GPa) = 42.76749 43.72737 43.24743
# Shear Modulus (GPa) = 106.04522 20.44338 63.24430
#
# Velocity S-wave (km/s) = 7.42435 3.25979 5.73355
# Velocity P-wave (km/s) = 9.78389 6.07431 8.14315
#
# Compressibility (1/GPa) = 0.02338224
#
# Stress axis : x y z
#
# Youngs Moduli (GPa) = 73.40485 88.44103 112.36509
#
# Poissons Ratio (x) = 0.19415 0.23056
# Poissons Ratio (y) = 0.16114 0.10973
# Poissons Ratio (z) = 0.15062 0.08637
#
# Static dielectric constant tensor:
#      x y z
#    x 1.676900 0.000000 0.000000 
#    y 0.000000 1.726030 0.000000 
#    z 0.000000 0.000000 1.661790 
# 
# From -- ./inp_files/10162.got.cif
#   From: 2010.05.17/outbox.cif.g08.bks.cpg/sg60_6_cif.got.tgz:10162.got - 2010.06.03 14:59:27.
