data_PCOD9455506
_publ_section_title
;
Structure prediction by ZEFSAII (Michael W. Deem and Ramdas Pophale) SiO2 
 PCOD9455506
Probable space group: P B C N
;
_chemical_formula_sum "Si O2"
_cell_formula_units_Z 28
_cell_length_a 15.281532
_cell_length_b 13.529913
_cell_length_c 5.291593
_cell_angle_alpha 90.000000
_cell_angle_beta 90.000000
_cell_angle_gamma 90.000000
_cell_volume 1094.078119
_symmetry_space_group_name_H-M "P B C N"
_symmetry_group_IT_number 60
_symmetry_cell_setting 'orthorhombic'
loop_
_space_group_symop_operation_xyz
x,y,z
1/2-x,1/2-y,1/2+z
1/2+x,1/2-y,-z
-x,y,1/2-z
-x,-y,-z
1/2+x,1/2+y,1/2-z
1/2-x,1/2+y,z
x,-y,1/2+z
loop_
_atom_site_type_symbol
_atom_site_label
_atom_site_fract_x
_atom_site_fract_y
_atom_site_fract_z
Si Si1 0.372602 0.445391 0.906209
Si Si2 0.676663 0.108971 0.082867
Si Si3 0.120680 0.712797 0.930654
Si Si4 0.500000 0.091899 0.250000
O O1 0.403864 0.501928 0.153608
O O2 0.266111 0.449648 0.919331
O O3 0.391920 0.329244 0.907257
O O4 0.660148 0.165973 0.822259
O O5 0.679249 0.184728 0.321528
O O6 0.589409 0.044293 0.148368
O O7 0.030606 0.662452 0.021760
#
# Coordination Sequence:
#
# PCOD9455506 Si02
#       4
#     8   8   8   4
#     4  12  24  38  58  94 128 154 188 248 310 352
#     4  10  20  39  64  88 112 158 208 241 284 349
#     4  10  20  39  64  88 112 158 208 241 284 349
#     4   8  22  36  70  84 110 154 220 240 278 340
#
# _framework density 25.592323
#
# number of rings (size 3 to 8) (size 9 to 14) (size 15 to 20)
#    1.714    0.000    0.000    6.000    0.000    0.000 
#    0.000    2.857    0.000    0.000    0.000    0.000 
#    0.000    0.000    0.000    0.000    0.000    0.000 
#
# Total GULP energy -156718.557219 kJ/mol
# GULP energy per Si atom -5597.091329 kJ/mol
# Density = 2.553407 g / cm^3
# Si number density = 25.592323 Si / 1000 Ang^3
#
#
#
# Elastic Constant Matrix: (Units=GPa)
#
#
# Indices 1 2 3 4 5 6 
#
# 1 101.6894 -0.9680 0.3178 0.0000 0.0000 0.0000
# 2 -0.9680 149.1642 98.9806 0.0000 0.0000 0.0000
# 3 0.3178 98.9806 287.2308 0.0000 0.0000 0.0000
# 4 0.0000 0.0000 0.0000 41.8783 0.0000 0.0000
# 5 0.0000 0.0000 0.0000 0.0000 7.9160 0.0000
# 6 0.0000 0.0000 0.0000 0.0000 0.0000 -53.4583
#
#
#
# Elastic Compliance Matrix: (Units=1/GPa)
#
#
# Indices 1 2 3 4 5 6 
#
# 1 0.009835 0.000092 -0.000043 0.000000 0.000000 0.000000
# 2 0.000092 0.008692 -0.002996 0.000000 0.000000 0.000000
# 3 -0.000043 -0.002996 0.004514 0.000000 0.000000 0.000000
# 4 0.000000 0.000000 0.000000 0.023879 0.000000 0.000000
# 5 0.000000 0.000000 0.000000 0.000000 0.126326 0.000000
# 6 0.000000 0.000000 0.000000 0.000000 0.000000 -0.018706
#
#
# Mechanical properties :
#
#
# Convention : Reuss Voigt Hill
#
# Bulk Modulus (GPa) = 58.31245 81.63835 69.97540
# Shear Modulus (GPa) = 30.09357 28.58412 29.33884
#
# Velocity S-wave (km/s) = 3.43283 3.34563 3.38951
# Velocity P-wave (km/s) = 6.20863 6.84786 6.53606
#
# Compressibility (1/GPa) = 0.01714900
#
# Stress axis : x y z
#
# Youngs Moduli (GPa) = 101.67895 115.04378 221.54133
#
# Poissons Ratio (x) = -0.01060 0.00944
# Poissons Ratio (y) = -0.00936 0.66363
# Poissons Ratio (z) = 0.00433 0.34461
#
# Static dielectric constant tensor:
#      x y z
#    x 2.108150 0.000000 0.000000 
#    y 0.000000 1.937030 0.000000 
#    z 0.000000 0.000000 2.011110 
# 
# From -- ./inp_files/1542.got.cif
#   From: 2010.05.17/outbox.cif.g08.bks.cpg/sg60_1_cif.got.tgz:1542.got - 2010.06.03 14:59:27.
