data_PCOD9455903
_publ_section_title
;
Structure prediction by ZEFSAII (Michael W. Deem and Ramdas Pophale) SiO2 
 PCOD9455903
Probable space group: P B C N
;
_chemical_formula_sum "Si O2"
_cell_formula_units_Z 56
_cell_length_a 13.494691
_cell_length_b 33.635263
_cell_length_c 5.385430
_cell_angle_alpha 90.000000
_cell_angle_beta 90.000000
_cell_angle_gamma 90.000000
_cell_volume 2444.433111
_symmetry_space_group_name_H-M "P B C N"
_symmetry_group_IT_number 60
_symmetry_cell_setting 'orthorhombic'
loop_
_space_group_symop_operation_xyz
x,y,z
1/2-x,1/2-y,1/2+z
1/2+x,1/2-y,-z
-x,y,1/2-z
-x,-y,-z
1/2+x,1/2+y,1/2-z
1/2-x,1/2+y,z
x,-y,1/2+z
loop_
_atom_site_type_symbol
_atom_site_label
_atom_site_fract_x
_atom_site_fract_y
_atom_site_fract_z
Si Si1 0.113106 0.239637 0.860594
Si Si2 0.672616 0.897379 0.479070
Si Si3 0.609365 0.017674 0.984394
Si Si4 0.881364 0.020201 0.268367
Si Si5 0.108624 0.832460 0.688172
Si Si6 0.215818 0.097385 0.009600
Si Si7 0.725584 0.187051 0.938835
O O1 0.153165 0.283612 0.910088
O O2 0.207085 0.216801 0.730154
O O3 0.000000 0.238900 0.750000
O O4 0.102400 0.213124 0.106515
O O5 0.598832 0.934789 0.467941
O O6 0.701757 0.895954 0.772613
O O7 0.658166 0.851963 0.378367
O O8 0.749336 0.912415 0.266419
O O9 0.656966 0.996606 0.743854
O O10 0.500000 0.000000 0.000000
O O11 0.849253 0.063130 0.367529
O O12 0.000000 0.019222 0.250000
O O13 0.849675 0.990241 0.488713
O O14 0.154892 0.861576 0.485844
O O15 0.185583 0.833508 0.909835
O O16 0.000000 0.846895 0.750000
#
# Coordination Sequence:
#
# PCOD9455903 Si02
#       7
#     8   8   8   8   8   8   8
#     4  12  23  42  71 100 136 192 237 292 382 439
#     4  11  24  41  66  99 131 175 229 285 357 404
#     4  10  22  43  70  95 130 180 229 289 350 428
#     4  10  21  37  54  82 127 169 210 267 333 400
#     4  11  22  39  65  94 135 182 239 289 357 438
#     4  11  23  38  62  97 128 174 226 287 339 417
#     4  11  24  42  66 101 146 178 237 311 348 451
#
# _framework density 22.909196000000001
#
# number of rings (size 3 to 8) (size 9 to 14) (size 15 to 20)
#    0.000    1.143    4.286    2.143    0.000    3.429 
#    2.571    2.143    6.286    0.000    0.000    0.000 
#    0.000    0.000    0.000    0.000    0.000    0.000 
#
# Total GULP energy -311828.048692 kJ/mol
# GULP energy per Si atom -5568.358012 kJ/mol
# Density = 2.285705 g / cm^3
# Si number density = 22.909196 Si / 1000 Ang^3
#
#
#
# Elastic Constant Matrix: (Units=GPa)
#
#
# Indices 1 2 3 4 5 6 
#
# 1 63.8665 32.6561 2.6876 0.0000 0.0000 0.0000
# 2 32.6561 171.0937 13.9045 0.0000 0.0000 0.0000
# 3 2.6876 13.9045 58.5239 0.0000 0.0000 0.0000
# 4 0.0000 0.0000 0.0000 25.4285 0.0000 0.0000
# 5 0.0000 0.0000 0.0000 0.0000 19.0161 0.0000
# 6 0.0000 0.0000 0.0000 0.0000 0.0000 2.8044
#
#
#
# Elastic Compliance Matrix: (Units=1/GPa)
#
#
# Indices 1 2 3 4 5 6 
#
# 1 0.017351 -0.003311 -0.000010 0.000000 0.000000 0.000000
# 2 -0.003311 0.006592 -0.001414 0.000000 0.000000 0.000000
# 3 -0.000010 -0.001414 0.017423 0.000000 0.000000 0.000000
# 4 0.000000 0.000000 0.000000 0.039326 0.000000 0.000000
# 5 0.000000 0.000000 0.000000 0.000000 0.052587 0.000000
# 6 0.000000 0.000000 0.000000 0.000000 0.000000 0.356587
#
#
# Mechanical properties :
#
#
# Convention : Reuss Voigt Hill
#
# Bulk Modulus (GPa) = 31.35206 43.55339 37.45272
# Shear Modulus (GPa) = 9.80453 25.73217 17.76835
#
# Velocity S-wave (km/s) = 2.07100 3.35509 2.78798
# Velocity P-wave (km/s) = 4.40838 5.83622 5.17181
#
# Compressibility (1/GPa) = 0.03189583
#
# Stress axis : x y z
#
# Youngs Moduli (GPa) = 57.63352 151.70801 57.39384
#
# Poissons Ratio (x) = 0.50229 0.00059
# Poissons Ratio (y) = 0.19082 0.08116
# Poissons Ratio (z) = 0.00059 0.21452
#
# Static dielectric constant tensor:
#      x y z
#    x 1.848970 0.000000 0.000000 
#    y 0.000000 1.899540 0.000000 
#    z 0.000000 0.000000 1.952700 
# 
# From -- ./inp_files/1482.got.cif
#   From: 2010.05.17/outbox.cif.g08.bks.cpg/sg60_1_cif.got.tgz:1482.got - 2010.06.03 14:59:27.
