data_PCOD9455692
_publ_section_title
;
Structure prediction by ZEFSAII (Michael W. Deem and Ramdas Pophale) SiO2 
 PCOD9455692
Probable space group: P B C N
;
_chemical_formula_sum "Si O2"
_cell_formula_units_Z 36
_cell_length_a 6.916989
_cell_length_b 13.751424
_cell_length_c 13.359464
_cell_angle_alpha 90.000000
_cell_angle_beta 90.000000
_cell_angle_gamma 90.000000
_cell_volume 1270.731489
_symmetry_space_group_name_H-M "P B C N"
_symmetry_group_IT_number 60
_symmetry_cell_setting 'orthorhombic'
loop_
_space_group_symop_operation_xyz
x,y,z
1/2-x,1/2-y,1/2+z
1/2+x,1/2-y,-z
-x,y,1/2-z
-x,-y,-z
1/2+x,1/2+y,1/2-z
1/2-x,1/2+y,z
x,-y,1/2+z
loop_
_atom_site_type_symbol
_atom_site_label
_atom_site_fract_x
_atom_site_fract_y
_atom_site_fract_z
Si Si1 0.669770 0.385185 0.145972
Si Si2 0.000000 0.489094 0.750000
Si Si3 0.387137 0.908110 0.548549
Si Si4 0.431021 0.707580 0.354301
Si Si5 0.179107 0.810063 0.067839
O O1 0.437302 0.378879 0.145023
O O2 0.824240 0.454633 0.197142
O O3 0.757418 0.280043 0.172411
O O4 0.706719 0.401531 0.026283
O O5 0.887385 0.432949 0.836056
O O6 0.430945 0.792822 0.556507
O O7 0.500000 0.000000 0.500000
O O8 0.500000 0.658067 0.250000
O O9 0.342831 0.651654 0.452069
O O10 0.613222 0.777993 0.387522
#
# Coordination Sequence:
#
# PCOD9455692 Si02
#       5
#     8   4   8   8   8
#     4  10  21  42  67  96 132 183 227 290 331 419
#     4  10  20  42  64  98 144 186 222 280 368 416
#     4   9  20  38  66  99 137 181 218 285 358 401
#     4  11  22  39  66 105 133 169 232 287 337 401
#     4  11  22  43  68 104 133 174 237 286 336 413
#
# _framework density 28.330138999999999
#
# number of rings (size 3 to 8) (size 9 to 14) (size 15 to 20)
#    0.000    1.778    5.556    0.000    0.000    2.667 
#    0.000    0.000    0.000   66.667    0.000    0.000 
#    0.000    0.000    0.000    0.000    0.000    0.000 
#
# Total GULP energy -200549.096271 kJ/mol
# GULP energy per Si atom -5570.808230 kJ/mol
# Density = 2.826566 g / cm^3
# Si number density = 28.330139 Si / 1000 Ang^3
#
#
#
# Elastic Constant Matrix: (Units=GPa)
#
#
# Indices 1 2 3 4 5 6 
#
# 1 146.4084 -3.5905 33.0046 0.0000 0.0000 0.0000
# 2 -3.5905 61.2591 13.7322 0.0000 0.0000 0.0000
# 3 33.0046 13.7322 152.0537 0.0000 0.0000 0.0000
# 4 0.0000 0.0000 0.0000 45.0966 0.0000 0.0000
# 5 0.0000 0.0000 0.0000 0.0000 27.9755 0.0000
# 6 0.0000 0.0000 0.0000 0.0000 0.0000 3.0566
#
#
#
# Elastic Compliance Matrix: (Units=1/GPa)
#
#
# Indices 1 2 3 4 5 6 
#
# 1 0.007219 0.000790 -0.001638 0.000000 0.000000 0.000000
# 2 0.000790 0.016748 -0.001684 0.000000 0.000000 0.000000
# 3 -0.001638 -0.001684 0.007084 0.000000 0.000000 0.000000
# 4 0.000000 0.000000 0.000000 0.022175 0.000000 0.000000
# 5 0.000000 0.000000 0.000000 0.000000 0.035746 0.000000
# 6 0.000000 0.000000 0.000000 0.000000 0.000000 0.327161
#
#
# Mechanical properties :
#
#
# Convention : Reuss Voigt Hill
#
# Bulk Modulus (GPa) = 38.48059 49.55709 44.01884
# Shear Modulus (GPa) = 11.63172 36.33074 23.98123
#
# Velocity S-wave (km/s) = 2.02847 3.58495 2.91261
# Velocity P-wave (km/s) = 4.37020 5.88783 5.18484
#
# Compressibility (1/GPa) = 0.02598713
#
# Stress axis : x y z
#
# Youngs Moduli (GPa) = 138.52502 59.70883 141.15673
#
# Poissons Ratio (x) = -0.04719 0.23126
# Poissons Ratio (y) = -0.10949 0.23772
# Poissons Ratio (z) = 0.22695 0.10055
#
# Static dielectric constant tensor:
#      x y z
#    x 2.268800 0.000000 0.000000 
#    y 0.000000 2.146730 0.000000 
#    z 0.000000 0.000000 2.392790 
# 
# From -- ./inp_files/14786.got.cif
#   From: 2010.05.17/outbox.cif.g08.bks.cpg/sg60_8_cif.got.tgz:14786.got - 2010.06.03 14:59:27.
