data_PCOD9455705
_publ_section_title
;
Structure prediction by ZEFSAII (Michael W. Deem and Ramdas Pophale) SiO2 
 PCOD9455705
Probable space group: P B C N
;
_chemical_formula_sum "Si O2"
_cell_formula_units_Z 36
_cell_length_a 6.414613
_cell_length_b 20.004676
_cell_length_c 12.897065
_cell_angle_alpha 90.000000
_cell_angle_beta 90.000000
_cell_angle_gamma 90.000000
_cell_volume 1654.980460
_symmetry_space_group_name_H-M "P B C N"
_symmetry_group_IT_number 60
_symmetry_cell_setting 'orthorhombic'
loop_
_space_group_symop_operation_xyz
x,y,z
1/2-x,1/2-y,1/2+z
1/2+x,1/2-y,-z
-x,y,1/2-z
-x,-y,-z
1/2+x,1/2+y,1/2-z
1/2-x,1/2+y,z
x,-y,1/2+z
loop_
_atom_site_type_symbol
_atom_site_label
_atom_site_fract_x
_atom_site_fract_y
_atom_site_fract_z
Si Si1 0.705936 0.847070 0.525546
Si Si2 0.450994 0.258311 0.637024
Si Si3 0.805471 0.615989 0.382817
Si Si4 0.000000 0.019383 0.250000
Si Si5 0.052170 0.065321 0.935019
O O1 0.585685 0.794505 0.453575
O O2 0.553156 0.888867 0.601303
O O3 0.863992 0.806913 0.599165
O O4 0.843656 0.890760 0.445943
O O5 0.500000 0.229061 0.750000
O O6 0.254357 0.308536 0.648044
O O7 0.668977 0.565920 0.310567
O O8 0.724177 0.604549 0.500475
O O9 0.887669 0.966965 0.173250
O O10 0.000000 0.000000 0.000000
#
# Coordination Sequence:
#
# PCOD9455705 Si02
#       5
#     8   8   8   4   8
#     4  11  23  43  67  96 138 174 218 286 338 398
#     4  11  23  42  64 101 133 172 224 273 340 413
#     4  10  21  42  65  95 131 173 220 276 336 394
#     4  10  20  42  66  94 132 176 230 270 322 404
#     4   9  22  41  61  93 132 168 226 278 316 400
#
# _framework density 21.752523
#
# number of rings (size 3 to 8) (size 9 to 14) (size 15 to 20)
#    0.000    1.778    3.333    0.000    0.000    6.222 
#    0.000    6.667    0.000    0.000    0.000    0.000 
#    0.000    0.000    0.000    0.000    0.000    0.000 
#
# Total GULP energy -200742.703291 kJ/mol
# GULP energy per Si atom -5576.186203 kJ/mol
# Density = 2.170301 g / cm^3
# Si number density = 21.752523 Si / 1000 Ang^3
#
#
#
# Elastic Constant Matrix: (Units=GPa)
#
#
# Indices 1 2 3 4 5 6 
#
# 1 84.6035 31.9222 12.3399 0.0000 0.0000 0.0000
# 2 31.9222 61.4329 20.3783 0.0000 0.0000 0.0000
# 3 12.3399 20.3783 95.1768 0.0000 0.0000 0.0000
# 4 0.0000 0.0000 0.0000 36.7388 0.0000 0.0000
# 5 0.0000 0.0000 0.0000 0.0000 18.4002 0.0000
# 6 0.0000 0.0000 0.0000 0.0000 0.0000 9.1303
#
#
#
# Elastic Compliance Matrix: (Units=1/GPa)
#
#
# Indices 1 2 3 4 5 6 
#
# 1 0.014710 -0.007547 -0.000291 0.000000 0.000000 0.000000
# 2 -0.007547 0.021395 -0.003602 0.000000 0.000000 0.000000
# 3 -0.000291 -0.003602 0.011316 0.000000 0.000000 0.000000
# 4 0.000000 0.000000 0.000000 0.027219 0.000000 0.000000
# 5 0.000000 0.000000 0.000000 0.000000 0.054347 0.000000
# 6 0.000000 0.000000 0.000000 0.000000 0.000000 0.109525
#
#
# Mechanical properties :
#
#
# Convention : Reuss Voigt Hill
#
# Bulk Modulus (GPa) = 40.75141 41.16599 40.95870
# Shear Modulus (GPa) = 18.54788 24.62540 21.58664
#
# Velocity S-wave (km/s) = 2.92323 3.36828 3.15361
# Velocity P-wave (km/s) = 5.49258 5.83891 5.66839
#
# Compressibility (1/GPa) = 0.02453903
#
# Stress axis : x y z
#
# Youngs Moduli (GPa) = 67.98124 46.74096 88.37187
#
# Poissons Ratio (x) = 0.35276 0.02574
# Poissons Ratio (y) = 0.51306 0.31834
# Poissons Ratio (z) = 0.01980 0.16837
#
# Static dielectric constant tensor:
#      x y z
#    x 1.805150 0.000000 0.000000 
#    y 0.000000 1.736770 0.000000 
#    z 0.000000 0.000000 1.892340 
# 
# From -- ./inp_files/13785.got.cif
#   From: 2010.05.17/outbox.cif.g08.bks.cpg/sg60_7_cif.got.tgz:13785.got - 2010.06.03 14:59:27.
