data_PCOD9455896
_publ_section_title
;
Structure prediction by ZEFSAII (Michael W. Deem and Ramdas Pophale) SiO2 
 PCOD9455896
Probable space group: P B C N
;
_chemical_formula_sum "Si O2"
_cell_formula_units_Z 56
_cell_length_a 28.895430
_cell_length_b 14.261889
_cell_length_c 5.606720
_cell_angle_alpha 90.000000
_cell_angle_beta 90.000000
_cell_angle_gamma 90.000000
_cell_volume 2310.548460
_symmetry_space_group_name_H-M "P B C N"
_symmetry_group_IT_number 60
_symmetry_cell_setting 'orthorhombic'
loop_
_space_group_symop_operation_xyz
x,y,z
1/2-x,1/2-y,1/2+z
1/2+x,1/2-y,-z
-x,y,1/2-z
-x,-y,-z
1/2+x,1/2+y,1/2-z
1/2-x,1/2+y,z
x,-y,1/2+z
loop_
_atom_site_type_symbol
_atom_site_label
_atom_site_fract_x
_atom_site_fract_y
_atom_site_fract_z
Si Si1 0.616812 0.527478 0.971055
Si Si2 0.079570 0.469125 0.157140
Si Si3 0.153633 0.799239 0.861555
Si Si4 0.526846 0.394019 0.002811
Si Si5 0.251966 0.191791 0.359312
Si Si6 0.344301 0.881938 0.653660
Si Si7 0.408252 0.226787 0.498172
O O1 0.639414 0.504042 0.719713
O O2 0.568732 0.469179 0.977836
O O3 0.615540 0.640563 0.992676
O O4 0.057667 0.507564 0.400128
O O5 0.131481 0.516883 0.118434
O O6 0.081192 0.357327 0.181434
O O7 0.201641 0.853782 0.890044
O O8 0.132583 0.791916 0.600545
O O9 0.163961 0.691890 0.939335
O O10 0.500000 0.391327 0.750000
O O11 0.548679 0.291898 0.039007
O O12 0.500000 0.412982 0.250000
O O13 0.256359 0.248016 0.611802
O O14 0.296803 0.127164 0.305564
O O15 0.386296 0.828315 0.782251
#
# Coordination Sequence:
#
# PCOD9455896 Si02
#       7
#     8   8   8   8   8   8   8
#     4  12  26  45  68 100 141 180 230 283 354 419
#     4  10  21  36  66 100 128 169 226 270 327 406
#     4  11  22  41  68  99 138 189 225 282 341 412
#     4  12  29  49  73 103 136 181 236 299 351 427
#     4  10  21  37  63  99 140 180 231 281 328 395
#     4  10  21  40  69 102 139 182 233 276 342 411
#     4  11  22  44  70  97 136 179 232 276 359 411
#
# _framework density 24.236671000000001
#
# number of rings (size 3 to 8) (size 9 to 14) (size 15 to 20)
#    0.000    1.143    4.286    1.714    2.000    1.714 
#    0.000    2.857    3.143   10.286    0.000    0.000 
#    0.000    0.000    0.000    0.000    0.000    0.000 
#
# Total GULP energy -311991.169858 kJ/mol
# GULP energy per Si atom -5571.270890 kJ/mol
# Density = 2.418151 g / cm^3
# Si number density = 24.236671 Si / 1000 Ang^3
#
#
#
# Elastic Constant Matrix: (Units=GPa)
#
#
# Indices 1 2 3 4 5 6 
#
# 1 71.9296 46.9363 20.6083 0.0000 0.0000 0.0000
# 2 46.9363 97.1863 3.9414 0.0000 0.0000 0.0000
# 3 20.6083 3.9414 147.4522 0.0000 0.0000 0.0000
# 4 0.0000 0.0000 0.0000 36.4195 0.0000 0.0000
# 5 0.0000 0.0000 0.0000 0.0000 21.5653 0.0000
# 6 0.0000 0.0000 0.0000 0.0000 0.0000 39.0697
#
#
#
# Elastic Compliance Matrix: (Units=1/GPa)
#
#
# Indices 1 2 3 4 5 6 
#
# 1 0.021328 -0.010191 -0.002708 0.000000 0.000000 0.000000
# 2 -0.010191 0.015170 0.001019 0.000000 0.000000 0.000000
# 3 -0.002708 0.001019 0.007133 0.000000 0.000000 0.000000
# 4 0.000000 0.000000 0.000000 0.027458 0.000000 0.000000
# 5 0.000000 0.000000 0.000000 0.000000 0.046371 0.000000
# 6 0.000000 0.000000 0.000000 0.000000 0.000000 0.025595
#
#
# Mechanical properties :
#
#
# Convention : Reuss Voigt Hill
#
# Bulk Modulus (GPa) = 50.32600 51.06002 50.69301
# Shear Modulus (GPa) = 28.82856 35.74973 32.28915
#
# Velocity S-wave (km/s) = 3.45260 3.84477 3.65395
# Velocity P-wave (km/s) = 6.05833 6.38927 6.22600
#
# Compressibility (1/GPa) = 0.01987045
#
# Stress axis : x y z
#
# Youngs Moduli (GPa) = 46.88631 65.92051 140.19006
#
# Poissons Ratio (x) = 0.67177 0.37970
# Poissons Ratio (y) = 0.47780 -0.14282
# Poissons Ratio (z) = 0.12699 -0.06716
#
# Static dielectric constant tensor:
#      x y z
#    x 2.009610 0.000000 0.000000 
#    y 0.000000 2.053070 0.000000 
#    z 0.000000 0.000000 2.020450 
# 
# From -- ./inp_files/2698.got.cif
#   From: 2010.05.17/outbox.cif.g08.bks.cpg/sg60_2_cif.got.tgz:2698.got - 2010.06.03 14:59:27.
