data_PCOD9455370
_publ_section_title
;
Structure prediction by ZEFSAII (Michael W. Deem and Ramdas Pophale) SiO2 
 PCOD9455370
Probable space group: P B C N
;
_chemical_formula_sum "Si O2"
_cell_formula_units_Z 40
_cell_length_a 11.917202
_cell_length_b 11.592035
_cell_length_c 11.600970
_cell_angle_alpha 90.000000
_cell_angle_beta 90.000000
_cell_angle_gamma 90.000000
_cell_volume 1602.611623
_symmetry_space_group_name_H-M "P B C N"
_symmetry_group_IT_number 60
_symmetry_cell_setting 'orthorhombic'
loop_
_space_group_symop_operation_xyz
x,y,z
1/2-x,1/2-y,1/2+z
1/2+x,1/2-y,-z
-x,y,1/2-z
-x,-y,-z
1/2+x,1/2+y,1/2-z
1/2-x,1/2+y,z
x,-y,1/2+z
loop_
_atom_site_type_symbol
_atom_site_label
_atom_site_fract_x
_atom_site_fract_y
_atom_site_fract_z
Si Si1 0.411406 0.427088 0.646781
Si Si2 0.223515 0.381939 0.791247
Si Si3 0.086318 0.428222 0.167212
Si Si4 0.890366 0.857726 0.493575
Si Si5 0.971856 0.341284 0.570673
O O1 0.500000 0.441268 0.750000
O O2 0.308857 0.348643 0.689740
O O3 0.367567 0.551453 0.606247
O O4 0.483027 0.381503 0.540436
O O5 0.178120 0.508231 0.748506
O O6 0.304132 0.381305 0.903399
O O7 0.117661 0.305167 0.830669
O O8 0.098740 0.359387 0.047894
O O9 0.000000 0.359445 0.250000
O O10 0.016072 0.537280 0.118485
O O11 0.914052 0.729461 0.450240
#
# Coordination Sequence:
#
# PCOD9455370 Si02
#       5
#     8   8   8   8   8
#     4   9  20  38  58  82 118 161 204 253 313 377
#     4  10  20  38  62  86 120 166 206 250 322 388
#     4   9  20  38  58  82 118 161 204 253 313 377
#     4  10  21  38  59  89 122 155 208 267 309 368
#     4  10  21  38  59  89 122 155 208 267 309 368
#
# _framework density 24.95926
#
# number of rings (size 3 to 8) (size 9 to 14) (size 15 to 20)
#    0.000    2.400    0.000    1.200    0.000    6.400 
#    0.000   20.000    0.000    0.000    0.000    0.000 
#    0.000    0.000    0.000    0.000    0.000    0.000 
#
# Total GULP energy -222822.218711 kJ/mol
# GULP energy per Si atom -5570.555468 kJ/mol
# Density = 2.490245 g / cm^3
# Si number density = 24.959260 Si / 1000 Ang^3
#
#
#
# Elastic Constant Matrix: (Units=GPa)
#
#
# Indices 1 2 3 4 5 6 
#
# 1 120.7126 19.8859 62.5729 0.0000 0.0000 0.0000
# 2 19.8859 30.0463 28.8077 0.0000 0.0000 0.0000
# 3 62.5729 28.8077 115.4338 0.0000 0.0000 0.0000
# 4 0.0000 0.0000 0.0000 16.2451 0.0000 0.0000
# 5 0.0000 0.0000 0.0000 0.0000 66.7467 0.0000
# 6 0.0000 0.0000 0.0000 0.0000 0.0000 24.6126
#
#
#
# Elastic Compliance Matrix: (Units=1/GPa)
#
#
# Indices 1 2 3 4 5 6 
#
# 1 0.011628 -0.002172 -0.005761 0.000000 0.000000 0.000000
# 2 -0.002172 0.044156 -0.009842 0.000000 0.000000 0.000000
# 3 -0.005761 -0.009842 0.014242 0.000000 0.000000 0.000000
# 4 0.000000 0.000000 0.000000 0.061557 0.000000 0.000000
# 5 0.000000 0.000000 0.000000 0.000000 0.014982 0.000000
# 6 0.000000 0.000000 0.000000 0.000000 0.000000 0.040630
#
#
# Mechanical properties :
#
#
# Convention : Reuss Voigt Hill
#
# Bulk Modulus (GPa) = 29.00628 54.30284 41.65456
# Shear Modulus (GPa) = 21.34579 31.84931 26.59755
#
# Velocity S-wave (km/s) = 2.92760 3.57606 3.26795
# Velocity P-wave (km/s) = 4.80359 6.23336 5.56459
#
# Compressibility (1/GPa) = 0.03447530
#
# Stress axis : x y z
#
# Youngs Moduli (GPa) = 85.99613 22.64694 70.21427
#
# Poissons Ratio (x) = 0.04920 0.40452
# Poissons Ratio (y) = 0.18682 0.69105
# Poissons Ratio (z) = 0.49544 0.22289
#
# Static dielectric constant tensor:
#      x y z
#    x 2.081950 0.000000 0.000000 
#    y 0.000000 2.068330 0.000000 
#    z 0.000000 0.000000 2.010660 
# 
# From -- ./inp_files/10839.got.cif
#   From: 2010.05.17/outbox.cif.g08.bks.cpg/sg60_6_cif.got.tgz:10839.got - 2010.06.03 14:59:27.
