data_PCOD9455136
_publ_section_title
;
Structure prediction by ZEFSAII (Michael W. Deem and Ramdas Pophale) SiO2 
 PCOD9455136
Probable space group: P B C N
;
_chemical_formula_sum "Si O2"
_cell_formula_units_Z 32
_cell_length_a 13.323914
_cell_length_b 14.134587
_cell_length_c 9.058814
_cell_angle_alpha 90.000000
_cell_angle_beta 90.000000
_cell_angle_gamma 90.000000
_cell_volume 1706.028519
_symmetry_space_group_name_H-M "P B C N"
_symmetry_group_IT_number 60
_symmetry_cell_setting 'orthorhombic'
loop_
_space_group_symop_operation_xyz
x,y,z
1/2-x,1/2-y,1/2+z
1/2+x,1/2-y,-z
-x,y,1/2-z
-x,-y,-z
1/2+x,1/2+y,1/2-z
1/2-x,1/2+y,z
x,-y,1/2+z
loop_
_atom_site_type_symbol
_atom_site_label
_atom_site_fract_x
_atom_site_fract_y
_atom_site_fract_z
Si Si1 0.658880 0.471079 0.285193
Si Si2 0.850019 0.798709 0.470338
Si Si3 0.762976 0.829319 0.778992
Si Si4 0.429158 0.381775 0.511569
O O1 0.699861 0.390401 0.392557
O O2 0.734583 0.557253 0.252352
O O3 0.617704 0.418680 0.141228
O O4 0.572675 0.527376 0.378007
O O5 0.798501 0.782049 0.627638
O O6 0.834601 0.714021 0.354963
O O7 0.964970 0.830679 0.494387
O O8 0.850251 0.815309 0.902203
#
# Coordination Sequence:
#
# PCOD9455136 Si02
#       4
#     8   8   8   8
#     4  10  20  36  58  87 115 149 196 246 295 340
#     4  12  21  35  57  83 124 153 197 244 302 345
#     4  10  23  34  51  90 119 154 193 250 294 356
#     4  10  21  36  61  87 119 151 194 247 295 342
#
# _framework density 18.757014999999999
#
# number of rings (size 3 to 8) (size 9 to 14) (size 15 to 20)
#    1.500    0.000    2.500    3.750    3.500    0.000 
#    0.000    0.000    0.000    1.500    0.000    3.500 
#    0.000    0.000    0.000    0.000    0.000    0.000 
#
# Total GULP energy -178183.641150 kJ/mol
# GULP energy per Si atom -5568.238786 kJ/mol
# Density = 1.871432 g / cm^3
# Si number density = 18.757015 Si / 1000 Ang^3
#
#
#
# Elastic Constant Matrix: (Units=GPa)
#
#
# Indices 1 2 3 4 5 6 
#
# 1 30.2631 19.6988 41.2349 0.0000 0.0000 0.0000
# 2 19.6988 40.7915 36.3717 0.0000 0.0000 0.0000
# 3 41.2349 36.3717 157.7345 0.0000 0.0000 0.0000
# 4 0.0000 0.0000 0.0000 36.6758 0.0000 0.0000
# 5 0.0000 0.0000 0.0000 0.0000 26.7892 0.0000
# 6 0.0000 0.0000 0.0000 0.0000 0.0000 31.7094
#
#
#
# Elastic Compliance Matrix: (Units=1/GPa)
#
#
# Indices 1 2 3 4 5 6 
#
# 1 0.061430 -0.019318 -0.011604 0.000000 0.000000 0.000000
# 2 -0.019318 0.036935 -0.003467 0.000000 0.000000 0.000000
# 3 -0.011604 -0.003467 0.010173 0.000000 0.000000 0.000000
# 4 0.000000 0.000000 0.000000 0.027266 0.000000 0.000000
# 5 0.000000 0.000000 0.000000 0.000000 0.037328 0.000000
# 6 0.000000 0.000000 0.000000 0.000000 0.000000 0.031536
#
#
# Mechanical properties :
#
#
# Convention : Reuss Voigt Hill
#
# Bulk Modulus (GPa) = 25.15157 47.04441 36.09799
# Shear Modulus (GPa) = 17.43989 27.80048 22.62018
#
# Velocity S-wave (km/s) = 3.05254 3.85403 3.47646
# Velocity P-wave (km/s) = 5.08549 6.70374 5.94989
#
# Compressibility (1/GPa) = 0.03975895
#
# Stress axis : x y z
#
# Youngs Moduli (GPa) = 16.27881 27.07468 98.30207
#
# Poissons Ratio (x) = 0.52303 1.14073
# Poissons Ratio (y) = 0.31448 0.34077
# Poissons Ratio (z) = 0.18891 0.09386
#
# Static dielectric constant tensor:
#      x y z
#    x 1.675900 0.000000 0.000000 
#    y 0.000000 1.708940 0.000000 
#    z 0.000000 0.000000 1.712760 
# 
# From -- ./inp_files/4548.got.cif
#   From: 2010.05.17/outbox.cif.g08.bks.cpg/sg60_3_cif.got.tgz:4548.got - 2010.06.03 14:59:27.
