data_PCOD9455295
_publ_section_title
;
Structure prediction by ZEFSAII (Michael W. Deem and Ramdas Pophale) SiO2 
 PCOD9455295
Probable space group: P B C N
;
_chemical_formula_sum "Si O2"
_cell_formula_units_Z 40
_cell_length_a 8.887318
_cell_length_b 23.105816
_cell_length_c 9.031509
_cell_angle_alpha 90.000000
_cell_angle_beta 90.000000
_cell_angle_gamma 90.000000
_cell_volume 1854.608943
_symmetry_space_group_name_H-M "P B C N"
_symmetry_group_IT_number 60
_symmetry_cell_setting 'orthorhombic'
loop_
_space_group_symop_operation_xyz
x,y,z
1/2-x,1/2-y,1/2+z
1/2+x,1/2-y,-z
-x,y,1/2-z
-x,-y,-z
1/2+x,1/2+y,1/2-z
1/2-x,1/2+y,z
x,-y,1/2+z
loop_
_atom_site_type_symbol
_atom_site_label
_atom_site_fract_x
_atom_site_fract_y
_atom_site_fract_z
Si Si1 0.229540 0.117987 0.902971
Si Si2 0.429823 0.627424 0.397425
Si Si3 0.614182 0.502566 0.634254
Si Si4 0.568733 0.193910 0.410105
Si Si5 0.282518 0.804134 0.105970
O O1 0.261167 0.157453 0.756597
O O2 0.245372 0.048972 0.876384
O O3 0.344242 0.139183 0.026187
O O4 0.063646 0.124796 0.978779
O O5 0.500000 0.655201 0.250000
O O6 0.361905 0.565401 0.340343
O O7 0.295603 0.660119 0.474584
O O8 0.500000 0.529968 0.750000
O O9 0.500000 0.500000 0.500000
O O10 0.500000 0.182572 0.250000
O O11 0.686486 0.245775 0.383881
O O12 0.447791 0.209217 0.539872
#
# Coordination Sequence:
#
# PCOD9455295 Si02
#       5
#     8   8   8   8   8
#     4  11  22  40  63  90 124 160 205 255 306 368
#     4  10  20  37  64  95 124 160 204 254 306 364
#     4   9  18  34  61  92 120 155 200 247 299 359
#     4  12  26  42  62  91 126 165 209 257 311 370
#     4  12  24  41  64  92 125 166 207 257 313 369
#
# _framework density 21.567888
#
# number of rings (size 3 to 8) (size 9 to 14) (size 15 to 20)
#    0.000    1.200    0.000    8.400    0.000    1.600 
#    0.000    1.000    0.000    4.800    0.000    0.000 
#    0.000    0.000    0.000    0.000    0.000    0.000 
#
# Total GULP energy -223013.892159 kJ/mol
# GULP energy per Si atom -5575.347304 kJ/mol
# Density = 2.151880 g / cm^3
# Si number density = 21.567888 Si / 1000 Ang^3
#
#
#
# Elastic Constant Matrix: (Units=GPa)
#
#
# Indices 1 2 3 4 5 6 
#
# 1 72.7581 42.4445 23.9706 0.0000 0.0000 0.0000
# 2 42.4445 84.9059 45.5532 0.0000 0.0000 0.0000
# 3 23.9706 45.5532 123.9122 0.0000 0.0000 0.0000
# 4 0.0000 0.0000 0.0000 27.9483 0.0000 0.0000
# 5 0.0000 0.0000 0.0000 0.0000 29.9146 0.0000
# 6 0.0000 0.0000 0.0000 0.0000 0.0000 39.7633
#
#
#
# Elastic Compliance Matrix: (Units=1/GPa)
#
#
# Indices 1 2 3 4 5 6 
#
# 1 0.019408 -0.009577 -0.000234 0.000000 0.000000 0.000000
# 2 -0.009577 0.019397 -0.005278 0.000000 0.000000 0.000000
# 3 -0.000234 -0.005278 0.010056 0.000000 0.000000 0.000000
# 4 0.000000 0.000000 0.000000 0.035780 0.000000 0.000000
# 5 0.000000 0.000000 0.000000 0.000000 0.033428 0.000000
# 6 0.000000 0.000000 0.000000 0.000000 0.000000 0.025149
#
#
# Mechanical properties :
#
#
# Convention : Reuss Voigt Hill
#
# Bulk Modulus (GPa) = 53.52338 56.16809 54.84573
# Shear Modulus (GPa) = 27.83605 30.83243 29.33424
#
# Velocity S-wave (km/s) = 3.59642 3.78504 3.69194
# Velocity P-wave (km/s) = 6.48967 6.72317 6.60745
#
# Compressibility (1/GPa) = 0.01868342
#
# Stress axis : x y z
#
# Youngs Moduli (GPa) = 51.52561 51.55467 99.44433
#
# Poissons Ratio (x) = 0.49371 0.02325
# Poissons Ratio (y) = 0.49344 0.52489
# Poissons Ratio (z) = 0.01205 0.27212
#
# Static dielectric constant tensor:
#      x y z
#    x 1.799500 0.000000 0.000000 
#    y 0.000000 1.831410 0.000000 
#    z 0.000000 0.000000 1.806870 
# 
# From -- ./inp_files/3832.got.cif
#   From: 2010.05.17/outbox.cif.g08.bks.cpg/sg60_2_cif.got.tgz:3832.got - 2010.06.03 14:59:27.
