data_PCOD9455645
_publ_section_title
;
Structure prediction by ZEFSAII (Michael W. Deem and Ramdas Pophale) SiO2 
 PCOD9455645
Probable space group: P B C N
;
_chemical_formula_sum "Si O2"
_cell_formula_units_Z 64
_cell_length_a 17.899072
_cell_length_b 13.660872
_cell_length_c 12.449399
_cell_angle_alpha 90.000000
_cell_angle_beta 90.000000
_cell_angle_gamma 90.000000
_cell_volume 3044.088843
_symmetry_space_group_name_H-M "P B C N"
_symmetry_group_IT_number 60
_symmetry_cell_setting 'orthorhombic'
loop_
_space_group_symop_operation_xyz
x,y,z
1/2-x,1/2-y,1/2+z
1/2+x,1/2-y,-z
-x,y,1/2-z
-x,-y,-z
1/2+x,1/2+y,1/2-z
1/2-x,1/2+y,z
x,-y,1/2+z
loop_
_atom_site_type_symbol
_atom_site_label
_atom_site_fract_x
_atom_site_fract_y
_atom_site_fract_z
Si Si1 0.878392 0.175193 0.641035
Si Si2 0.364583 0.239303 0.147109
Si Si3 0.097682 0.811340 0.933193
Si Si4 0.803054 0.668992 0.845703
Si Si5 0.852201 0.037757 0.243330
Si Si6 0.720225 0.846091 0.106319
Si Si7 0.708897 0.041300 0.399389
Si Si8 0.570148 0.673056 0.400506
O O1 0.903006 0.244699 0.737507
O O2 0.795942 0.216178 0.610681
O O3 0.919195 0.161103 0.528681
O O4 0.865241 0.071291 0.700475
O O5 0.277644 0.278516 0.141336
O O6 0.354113 0.122608 0.128209
O O7 0.405794 0.312056 0.062718
O O8 0.138178 0.894213 0.862363
O O9 0.149881 0.717458 0.924729
O O10 0.015616 0.798029 0.885379
O O11 0.799975 0.624459 0.725967
O O12 0.813895 0.571347 0.913899
O O13 0.869046 0.746950 0.861201
O O14 0.774702 0.048335 0.309932
O O15 0.911970 0.076409 0.331207
O O16 0.737440 0.925625 0.016630
#
# Coordination Sequence:
#
# PCOD9455645 Si02
#       8
#     8   8   8   8   8   8   8   8
#     4  11  24  40  69  94 136 173 228 276 338 397
#     4  10  22  42  61  98 132 173 224 287 332 383
#     4  11  25  41  67  89 142 177 218 277 336 404
#     4  11  22  39  71  96 129 177 226 277 334 392
#     4  12  22  39  65  97 129 169 222 274 329 408
#     4  10  20  41  63  97 125 172 220 281 323 392
#     4  11  21  38  68 101 128 160 230 277 334 382
#     4  12  25  46  62  98 136 183 222 271 343 413
#
# _framework density 21.024353000000001
#
# number of rings (size 3 to 8) (size 9 to 14) (size 15 to 20)
#    0.000    1.000    6.250    1.875    3.500    2.000 
#    2.250    2.500    0.000    3.000    0.000    0.000 
#    0.000    0.000    0.000    0.000    0.000    0.000 
#
# Total GULP energy -356686.570055 kJ/mol
# GULP energy per Si atom -5573.227657 kJ/mol
# Density = 2.097650 g / cm^3
# Si number density = 21.024353 Si / 1000 Ang^3
#
#
#
# Elastic Constant Matrix: (Units=GPa)
#
#
# Indices 1 2 3 4 5 6 
#
# 1 77.8161 23.5365 12.1691 0.0000 0.0000 0.0000
# 2 23.5365 76.4075 5.9934 0.0000 0.0000 0.0000
# 3 12.1691 5.9934 89.9147 0.0000 0.0000 0.0000
# 4 0.0000 0.0000 0.0000 27.5394 0.0000 0.0000
# 5 0.0000 0.0000 0.0000 0.0000 12.2142 0.0000
# 6 0.0000 0.0000 0.0000 0.0000 0.0000 3.0977
#
#
#
# Elastic Compliance Matrix: (Units=1/GPa)
#
#
# Indices 1 2 3 4 5 6 
#
# 1 0.014414 -0.004310 -0.001664 0.000000 0.000000 0.000000
# 2 -0.004310 0.014445 -0.000380 0.000000 0.000000 0.000000
# 3 -0.001664 -0.000380 0.011372 0.000000 0.000000 0.000000
# 4 0.000000 0.000000 0.000000 0.036312 0.000000 0.000000
# 5 0.000000 0.000000 0.000000 0.000000 0.081872 0.000000
# 6 0.000000 0.000000 0.000000 0.000000 0.000000 0.322824
#
#
# Mechanical properties :
#
#
# Convention : Reuss Voigt Hill
#
# Bulk Modulus (GPa) = 36.32949 36.39293 36.36121
# Shear Modulus (GPa) = 9.93800 22.06622 16.00211
#
# Velocity S-wave (km/s) = 2.17650 3.24320 2.76184
# Velocity P-wave (km/s) = 4.86142 5.60106 5.24430
#
# Compressibility (1/GPa) = 0.02752585
#
# Stress axis : x y z
#
# Youngs Moduli (GPa) = 69.37459 69.22780 87.93452
#
# Poissons Ratio (x) = 0.29835 0.14629
# Poissons Ratio (y) = 0.29899 0.03338
# Poissons Ratio (z) = 0.11541 0.02628
#
# Static dielectric constant tensor:
#      x y z
#    x 1.761600 0.000000 0.000000 
#    y 0.000000 1.762090 0.000000 
#    z 0.000000 0.000000 2.020430 
# 
# From -- ./inp_files/12550.got.cif
#   From: 2010.05.17/outbox.cif.g08.bks.cpg/sg60_7_cif.got.tgz:12550.got - 2010.06.03 14:59:27.
