data_PCOD9455706
_publ_section_title
;
Structure prediction by ZEFSAII (Michael W. Deem and Ramdas Pophale) SiO2 
 PCOD9455706
Probable space group: P B C N
;
_chemical_formula_sum "Si O2"
_cell_formula_units_Z 64
_cell_length_a 8.127730
_cell_length_b 30.336901
_cell_length_c 10.857533
_cell_angle_alpha 90.000000
_cell_angle_beta 90.000000
_cell_angle_gamma 90.000000
_cell_volume 2677.143436
_symmetry_space_group_name_H-M "P B C N"
_symmetry_group_IT_number 60
_symmetry_cell_setting 'orthorhombic'
loop_
_space_group_symop_operation_xyz
x,y,z
1/2-x,1/2-y,1/2+z
1/2+x,1/2-y,-z
-x,y,1/2-z
-x,-y,-z
1/2+x,1/2+y,1/2-z
1/2-x,1/2+y,z
x,-y,1/2+z
loop_
_atom_site_type_symbol
_atom_site_label
_atom_site_fract_x
_atom_site_fract_y
_atom_site_fract_z
Si Si1 0.961790 0.467045 0.888790
Si Si2 0.893739 0.989520 0.875339
Si Si3 0.098024 0.767048 0.121032
Si Si4 0.282357 0.173303 0.031093
Si Si5 0.055779 0.156386 0.445865
Si Si6 0.181878 0.665486 0.755312
Si Si7 0.349401 0.588315 0.656311
Si Si8 0.408663 0.871202 0.878299
O O1 0.763621 0.457563 0.893774
O O2 0.000000 0.483714 0.750000
O O3 0.078626 0.423731 0.901022
O O4 0.000000 0.500000 0.000000
O O5 0.812311 0.037395 0.854975
O O6 0.000000 0.979115 0.750000
O O7 0.000000 0.000000 0.000000
O O8 0.176897 0.721627 0.079868
O O9 0.223382 0.804650 0.160373
O O10 0.000000 0.758994 0.250000
O O11 0.032319 0.793622 0.000698
O O12 0.460009 0.149485 0.028462
O O13 0.130723 0.150505 0.103846
O O14 0.235508 0.171498 0.887153
O O15 0.085800 0.114976 0.538161
O O16 0.231487 0.152156 0.377923
O O17 0.199142 0.615607 0.711201
O O18 0.000000 0.681875 0.750000
O O19 0.500000 0.592076 0.750000
O O20 0.500000 0.863408 0.750000
#
# Coordination Sequence:
#
# PCOD9455706 Si02
#       8
#     8   8   8   8   8   8   8   8
#     4  11  25  49  75 109 155 201 250 325 401 464
#     4  11  25  42  73 112 150 198 256 317 395 484
#     4  11  24  45  65 101 149 180 243 314 358 444
#     4  12  25  42  73 101 136 200 241 297 380 449
#     4  11  23  44  74  98 141 195 239 300 377 443
#     4  11  23  40  66 104 138 184 248 308 370 445
#     4  10  20  42  67 102 142 181 241 311 366 444
#     4  11  28  49  67 104 148 186 248 314 372 463
#
# _framework density 23.906077
#
# number of rings (size 3 to 8) (size 9 to 14) (size 15 to 20)
#    0.000    1.000    2.500    4.125    5.250    4.000 
#    0.000    0.000    0.000    0.000    0.000    0.000 
#    0.000    0.000    0.000    0.000    0.000    0.000 
#
# Total GULP energy -356993.371701 kJ/mol
# GULP energy per Si atom -5578.021433 kJ/mol
# Density = 2.385167 g / cm^3
# Si number density = 23.906077 Si / 1000 Ang^3
#
#
#
# Elastic Constant Matrix: (Units=GPa)
#
#
# Indices 1 2 3 4 5 6 
#
# 1 126.3904 12.6736 32.2669 0.0000 0.0000 0.0000
# 2 12.6736 84.1263 17.1865 0.0000 0.0000 0.0000
# 3 32.2669 17.1865 83.8325 0.0000 0.0000 0.0000
# 4 0.0000 0.0000 0.0000 46.7073 0.0000 0.0000
# 5 0.0000 0.0000 0.0000 0.0000 42.2953 0.0000
# 6 0.0000 0.0000 0.0000 0.0000 0.0000 33.5794
#
#
#
# Elastic Compliance Matrix: (Units=1/GPa)
#
#
# Indices 1 2 3 4 5 6 
#
# 1 0.008809 -0.000662 -0.003255 0.000000 0.000000 0.000000
# 2 -0.000662 0.012456 -0.002299 0.000000 0.000000 0.000000
# 3 -0.003255 -0.002299 0.013653 0.000000 0.000000 0.000000
# 4 0.000000 0.000000 0.000000 0.021410 0.000000 0.000000
# 5 0.000000 0.000000 0.000000 0.000000 0.023643 0.000000
# 6 0.000000 0.000000 0.000000 0.000000 0.000000 0.029780
#
#
# Mechanical properties :
#
#
# Convention : Reuss Voigt Hill
#
# Bulk Modulus (GPa) = 44.47123 46.51150 45.49137
# Shear Modulus (GPa) = 38.55675 39.99788 39.27731
#
# Velocity S-wave (km/s) = 4.02038 4.09482 4.05777
# Velocity P-wave (km/s) = 6.33988 6.46954 6.40504
#
# Compressibility (1/GPa) = 0.02248645
#
# Stress axis : x y z
#
# Youngs Moduli (GPa) = 113.51557 80.28085 73.24588
#
# Poissons Ratio (x) = 0.05316 0.23841
# Poissons Ratio (y) = 0.07517 0.16838
# Poissons Ratio (z) = 0.36949 0.18455
#
# Static dielectric constant tensor:
#      x y z
#    x 2.008730 0.000000 0.000000 
#    y 0.000000 1.913040 0.000000 
#    z 0.000000 0.000000 2.191980 
# 
# From -- ./inp_files/10397.got.cif
#   From: 2010.05.17/outbox.cif.g08.bks.cpg/sg60_6_cif.got.tgz:10397.got - 2010.06.03 14:59:27.
