data_PCOD9455412
_publ_section_title
;
Structure prediction by ZEFSAII (Michael W. Deem and Ramdas Pophale) SiO2 
 PCOD9455412
Probable space group: P B C N
;
_chemical_formula_sum "Si O2"
_cell_formula_units_Z 64
_cell_length_a 9.025726
_cell_length_b 18.146458
_cell_length_c 20.963403
_cell_angle_alpha 90.000000
_cell_angle_beta 90.000000
_cell_angle_gamma 90.000000
_cell_volume 3433.490075
_symmetry_space_group_name_H-M "P B C N"
_symmetry_group_IT_number 60
_symmetry_cell_setting 'orthorhombic'
loop_
_space_group_symop_operation_xyz
x,y,z
1/2-x,1/2-y,1/2+z
1/2+x,1/2-y,-z
-x,y,1/2-z
-x,-y,-z
1/2+x,1/2+y,1/2-z
1/2-x,1/2+y,z
x,-y,1/2+z
loop_
_atom_site_type_symbol
_atom_site_label
_atom_site_fract_x
_atom_site_fract_y
_atom_site_fract_z
Si Si1 0.856581 0.979360 0.294572
Si Si2 0.906153 0.290220 0.935740
Si Si3 0.529073 0.414367 0.503748
Si Si4 0.855257 0.129369 0.371462
Si Si5 0.586498 0.207071 0.839153
Si Si6 0.014566 0.147291 0.872008
Si Si7 0.793356 0.637722 0.720137
Si Si8 0.809253 0.676580 0.982651
O O1 0.726447 0.944243 0.250656
O O2 0.000000 0.987618 0.250000
O O3 0.904411 0.916331 0.345786
O O4 0.833639 0.057674 0.327866
O O5 0.802624 0.349786 0.902544
O O6 0.802447 0.246672 0.986762
O O7 0.947313 0.227933 0.883506
O O8 0.053687 0.318154 0.969795
O O9 0.500000 0.500000 0.500000
O O10 0.466776 0.387385 0.570729
O O11 0.445381 0.376930 0.444032
O O12 0.700849 0.391892 0.495093
O O13 0.920378 0.204076 0.339993
O O14 0.439091 0.162209 0.818606
O O15 0.701520 0.188044 0.783089
O O16 0.632294 0.181333 0.909915
O O17 0.151471 0.149941 0.824110
#
# Coordination Sequence:
#
# PCOD9455412 Si02
#       8
#     8   8   8   8   8   8   8   8
#     4  10  21  39  62  87 122 170 208 257 316 388
#     4  10  21  37  65  96 123 164 205 272 314 373
#     4  11  22  39  65  93 128 167 203 261 326 388
#     4  11  23  39  64  94 130 160 215 269 321 372
#     4  10  22  38  62  92 120 165 211 268 310 370
#     4  10  20  38  64  88 123 162 219 248 319 390
#     4  10  22  38  65  89 119 169 214 253 312 384
#     4  10  21  38  62  93 129 158 211 259 321 371
#
# _framework density 18.639925999999999
#
# number of rings (size 3 to 8) (size 9 to 14) (size 15 to 20)
#    0.000    1.750    1.250    5.250    7.000    0.000 
#    0.000    3.125    5.500    0.000    0.000    0.000 
#    0.000    0.000    0.000    0.000    0.000    0.000 
#
# Total GULP energy -356778.306044 kJ/mol
# GULP energy per Si atom -5574.661032 kJ/mol
# Density = 1.859750 g / cm^3
# Si number density = 18.639926 Si / 1000 Ang^3
#
#
#
# Elastic Constant Matrix: (Units=GPa)
#
#
# Indices 1 2 3 4 5 6 
#
# 1 107.1037 69.4657 53.4927 0.0000 0.0000 0.0000
# 2 69.4657 120.8365 56.1047 0.0000 0.0000 0.0000
# 3 53.4927 56.1047 77.3456 0.0000 0.0000 0.0000
# 4 0.0000 0.0000 0.0000 36.3275 0.0000 0.0000
# 5 0.0000 0.0000 0.0000 0.0000 41.3964 0.0000
# 6 0.0000 0.0000 0.0000 0.0000 0.0000 26.2783
#
#
#
# Elastic Compliance Matrix: (Units=1/GPa)
#
#
# Indices 1 2 3 4 5 6 
#
# 1 0.017131 -0.006555 -0.007093 0.000000 0.000000 0.000000
# 2 -0.006555 0.014986 -0.006337 0.000000 0.000000 0.000000
# 3 -0.007093 -0.006337 0.022432 0.000000 0.000000 0.000000
# 4 0.000000 0.000000 0.000000 0.027527 0.000000 0.000000
# 5 0.000000 0.000000 0.000000 0.000000 0.024157 0.000000
# 6 0.000000 0.000000 0.000000 0.000000 0.000000 0.038054
#
#
# Mechanical properties :
#
#
# Convention : Reuss Voigt Hill
#
# Bulk Modulus (GPa) = 68.59556 73.71244 71.15400
# Shear Modulus (GPa) = 26.43879 29.21531 27.82705
#
# Velocity S-wave (km/s) = 3.77025 3.96327 3.86796
# Velocity P-wave (km/s) = 7.47216 7.78297 7.62915
#
# Compressibility (1/GPa) = 0.01457820
#
# Stress axis : x y z
#
# Youngs Moduli (GPa) = 58.37528 66.72824 44.57989
#
# Poissons Ratio (x) = 0.43737 0.31621
# Poissons Ratio (y) = 0.38262 0.28252
# Poissons Ratio (z) = 0.41406 0.42289
#
# Static dielectric constant tensor:
#      x y z
#    x 1.685120 0.000000 0.000000 
#    y 0.000000 1.662800 0.000000 
#    z 0.000000 0.000000 1.664990 
# 
# From -- ./inp_files/22373.got.cif
#   From: 2010.05.17/outbox.cif.g08.bks.cpg/sg60_12_cif.got.tgz:22373.got - 2010.06.03 14:59:27.
