data_PCOD9455974
_publ_section_title
;
Structure prediction by ZEFSAII (Michael W. Deem and Ramdas Pophale) SiO2 
 PCOD9455974
Probable space group: P B C N
;
_chemical_formula_sum "Si O2"
_cell_formula_units_Z 64
_cell_length_a 9.479142
_cell_length_b 29.264949
_cell_length_c 10.326918
_cell_angle_alpha 90.000000
_cell_angle_beta 90.000000
_cell_angle_gamma 90.000000
_cell_volume 2864.755285
_symmetry_space_group_name_H-M "P B C N"
_symmetry_group_IT_number 60
_symmetry_cell_setting 'orthorhombic'
loop_
_space_group_symop_operation_xyz
x,y,z
1/2-x,1/2-y,1/2+z
1/2+x,1/2-y,-z
-x,y,1/2-z
-x,-y,-z
1/2+x,1/2+y,1/2-z
1/2-x,1/2+y,z
x,-y,1/2+z
loop_
_atom_site_type_symbol
_atom_site_label
_atom_site_fract_x
_atom_site_fract_y
_atom_site_fract_z
Si Si1 0.823923 0.158419 0.980534
Si Si2 0.746481 0.140778 0.508176
Si Si3 0.810875 0.996473 0.603422
Si Si4 0.153365 0.377195 0.227164
Si Si5 0.953175 0.779462 0.096992
Si Si6 0.475447 0.422694 0.530787
Si Si7 0.363590 0.020982 0.655207
Si Si8 0.047698 0.673271 0.396038
O O1 0.739663 0.160331 0.847605
O O2 0.916982 0.203202 0.991842
O O3 0.930830 0.116423 0.963102
O O4 0.699808 0.150282 0.082543
O O5 0.728318 0.111705 0.639276
O O6 0.826220 0.187279 0.551456
O O7 0.587634 0.151659 0.466280
O O8 0.845054 0.108808 0.417115
O O9 0.758366 0.005059 0.748085
O O10 0.909388 0.038070 0.558087
O O11 0.906985 0.950992 0.608753
O O12 0.684796 0.994160 0.491256
O O13 0.134208 0.423971 0.148410
O O14 0.000000 0.357903 0.250000
O O15 0.927933 0.726419 0.070508
O O16 0.000000 0.784724 0.250000
O O17 0.500000 0.008941 0.750000
O O18 0.000000 0.671406 0.250000
#
# Coordination Sequence:
#
# PCOD9455974 Si02
#       8
#     8   8   8   8   8   8   8   8
#     4  11  21  41  66  96 124 166 218 264 317 378
#     4  11  21  41  66  96 124 166 218 264 317 378
#     4  11  23  44  64  97 132 171 208 267 326 385
#     4  11  20  36  68  96 122 155 215 273 316 365
#     4  10  21  37  68  99 126 162 212 272 330 385
#     4  10  24  40  65  94 124 168 212 260 321 378
#     4  11  24  42  68  98 132 163 217 269 324 381
#     4  11  25  44  60  90 135 175 209 264 326 387
#
# _framework density 22.340477
#
# number of rings (size 3 to 8) (size 9 to 14) (size 15 to 20)
#    0.000    1.250    5.000    1.125    0.000    3.000 
#    6.750    1.875    0.000    0.000    0.000    0.000 
#    0.000    0.000    0.000    0.000    0.000    0.000 
#
# Total GULP energy -356460.402456 kJ/mol
# GULP energy per Si atom -5569.693788 kJ/mol
# Density = 2.228963 g / cm^3
# Si number density = 22.340477 Si / 1000 Ang^3
#
#
#
# Elastic Constant Matrix: (Units=GPa)
#
#
# Indices 1 2 3 4 5 6 
#
# 1 85.6199 10.4032 5.8850 0.0000 0.0000 0.0000
# 2 10.4032 55.5185 11.6057 0.0000 0.0000 0.0000
# 3 5.8850 11.6057 49.1555 0.0000 0.0000 0.0000
# 4 0.0000 0.0000 0.0000 10.2142 0.0000 0.0000
# 5 0.0000 0.0000 0.0000 0.0000 11.3637 0.0000
# 6 0.0000 0.0000 0.0000 0.0000 0.0000 16.9627
#
#
#
# Elastic Compliance Matrix: (Units=1/GPa)
#
#
# Indices 1 2 3 4 5 6 
#
# 1 0.011994 -0.002048 -0.000952 0.000000 0.000000 0.000000
# 2 -0.002048 0.019297 -0.004311 0.000000 0.000000 0.000000
# 3 -0.000952 -0.004311 0.021475 0.000000 0.000000 0.000000
# 4 0.000000 0.000000 0.000000 0.097903 0.000000 0.000000
# 5 0.000000 0.000000 0.000000 0.000000 0.087999 0.000000
# 6 0.000000 0.000000 0.000000 0.000000 0.000000 0.058953
#
#
# Mechanical properties :
#
#
# Convention : Reuss Voigt Hill
#
# Bulk Modulus (GPa) = 26.21693 27.34240 26.77966
# Shear Modulus (GPa) = 15.38657 18.53480 16.96068
#
# Velocity S-wave (km/s) = 2.62722 2.88349 2.75833
# Velocity P-wave (km/s) = 4.57861 4.83234 4.70719
#
# Compressibility (1/GPa) = 0.03814330
#
# Stress axis : x y z
#
# Youngs Moduli (GPa) = 83.37595 51.82163 46.56487
#
# Poissons Ratio (x) = 0.10615 0.04434
# Poissons Ratio (y) = 0.17078 0.20073
# Poissons Ratio (z) = 0.07940 0.22339
#
# Static dielectric constant tensor:
#      x y z
#    x 1.955490 0.000000 0.000000 
#    y 0.000000 1.800750 0.000000 
#    z 0.000000 0.000000 1.884250 
# 
# From -- ./inp_files/10383.got.cif
#   From: 2010.05.17/outbox.cif.g08.bks.cpg/sg60_6_cif.got.tgz:10383.got - 2010.06.03 14:59:27.
