data_PCOD9455495
_publ_section_title
;
Structure prediction by ZEFSAII (Michael W. Deem and Ramdas Pophale) SiO2 
 PCOD9455495
Probable space group: P B C N
;
_chemical_formula_sum "Si O2"
_cell_formula_units_Z 52
_cell_length_a 16.077005
_cell_length_b 9.036393
_cell_length_c 17.296699
_cell_angle_alpha 90.000000
_cell_angle_beta 90.000000
_cell_angle_gamma 90.000000
_cell_volume 2512.832180
_symmetry_space_group_name_H-M "P B C N"
_symmetry_group_IT_number 60
_symmetry_cell_setting 'orthorhombic'
loop_
_space_group_symop_operation_xyz
x,y,z
1/2-x,1/2-y,1/2+z
1/2+x,1/2-y,-z
-x,y,1/2-z
-x,-y,-z
1/2+x,1/2+y,1/2-z
1/2-x,1/2+y,z
x,-y,1/2+z
loop_
_atom_site_type_symbol
_atom_site_label
_atom_site_fract_x
_atom_site_fract_y
_atom_site_fract_z
Si Si1 0.869946 0.092129 0.965884
Si Si2 0.255528 0.939133 0.742192
Si Si3 0.150563 0.314649 0.156950
Si Si4 0.270352 0.301020 0.514174
Si Si5 0.326952 0.696994 0.844597
Si Si6 0.000000 0.775348 0.750000
Si Si7 0.029730 0.996553 0.883551
O O1 0.819637 0.244812 0.956648
O O2 0.933615 0.039661 0.899185
O O3 0.796958 0.971451 0.977427
O O4 0.928134 0.081903 0.042048
O O5 0.299487 0.039787 0.678862
O O6 0.212789 0.055246 0.800850
O O7 0.194296 0.824823 0.700071
O O8 0.319352 0.836878 0.789275
O O9 0.159962 0.281313 0.066522
O O10 0.061516 0.319977 0.197357
O O11 0.277548 0.267610 0.423362
O O12 0.418598 0.645408 0.868354
O O13 0.040476 0.886346 0.812198
#
# Coordination Sequence:
#
# PCOD9455495 Si02
#       7
#     8   8   8   8   8   4   8
#     4  10  22  39  62  93 123 159 216 255 316 373
#     4  10  22  38  60  90 123 163 208 258 309 373
#     4  11  23  39  62  90 125 162 209 260 317 370
#     4  11  21  37  63  92 120 162 208 262 301 374
#     4  10  20  39  62  90 122 163 211 251 311 373
#     4  12  22  40  60  90 124 166 202 258 320 372
#     4  10  21  38  63  89 122 166 205 254 314 384
#
# _framework density 20.693781999999999
#
# number of rings (size 3 to 8) (size 9 to 14) (size 15 to 20)
#    0.000    1.538    3.077    2.769    2.154    0.000 
#    0.000    3.846    0.000    4.615    0.000    0.000 
#    0.000    0.000    0.000    0.000    0.000    0.000 
#
# Total GULP energy -290301.088067 kJ/mol
# GULP energy per Si atom -5582.713232 kJ/mol
# Density = 2.064668 g / cm^3
# Si number density = 20.693782 Si / 1000 Ang^3
#
#
#
# Elastic Constant Matrix: (Units=GPa)
#
#
# Indices 1 2 3 4 5 6 
#
# 1 63.7242 17.3763 -12.1329 0.0000 0.0000 0.0000
# 2 17.3763 70.5652 7.7054 0.0000 0.0000 0.0000
# 3 -12.1329 7.7054 58.3560 0.0000 0.0000 0.0000
# 4 0.0000 0.0000 0.0000 24.5475 0.0000 0.0000
# 5 0.0000 0.0000 0.0000 0.0000 24.3182 0.0000
# 6 0.0000 0.0000 0.0000 0.0000 0.0000 23.6317
#
#
#
# Elastic Compliance Matrix: (Units=1/GPa)
#
#
# Indices 1 2 3 4 5 6 
#
# 1 0.017850 -0.004871 0.004354 0.000000 0.000000 0.000000
# 2 -0.004871 0.015708 -0.003087 0.000000 0.000000 0.000000
# 3 0.004354 -0.003087 0.018449 0.000000 0.000000 0.000000
# 4 0.000000 0.000000 0.000000 0.040737 0.000000 0.000000
# 5 0.000000 0.000000 0.000000 0.000000 0.041121 0.000000
# 6 0.000000 0.000000 0.000000 0.000000 0.000000 0.042316
#
#
# Mechanical properties :
#
#
# Convention : Reuss Voigt Hill
#
# Bulk Modulus (GPa) = 22.32138 24.28256 23.30197
# Shear Modulus (GPa) = 25.21158 26.47927 25.84542
#
# Velocity S-wave (km/s) = 3.49423 3.58100 3.53788
# Velocity P-wave (km/s) = 5.20475 5.37194 5.28901
#
# Compressibility (1/GPa) = 0.04480009
#
# Stress axis : x y z
#
# Youngs Moduli (GPa) = 56.02274 63.66270 54.20318
#
# Poissons Ratio (x) = 0.31010 -0.23602
# Poissons Ratio (y) = 0.27288 0.16731
# Poissons Ratio (z) = -0.24394 0.19651
#
# Static dielectric constant tensor:
#      x y z
#    x 1.779880 0.000000 0.000000 
#    y 0.000000 1.720250 0.000000 
#    z 0.000000 0.000000 1.773970 
# 
# From -- ./inp_files/20867.got.cif
#   From: 2010.05.17/outbox.cif.g08.bks.cpg/sg60_11_cif.got.tgz:20867.got - 2010.06.03 14:59:27.
