data_PCOD9455828
_publ_section_title
;
Structure prediction by ZEFSAII (Michael W. Deem and Ramdas Pophale) SiO2 
 PCOD9455828
Probable space group: P B C N
;
_chemical_formula_sum "Si O2"
_cell_formula_units_Z 60
_cell_length_a 17.913903
_cell_length_b 9.138282
_cell_length_c 16.611100
_cell_angle_alpha 90.000000
_cell_angle_beta 90.000000
_cell_angle_gamma 90.000000
_cell_volume 2719.275231
_symmetry_space_group_name_H-M "P B C N"
_symmetry_group_IT_number 60
_symmetry_cell_setting 'orthorhombic'
loop_
_space_group_symop_operation_xyz
x,y,z
1/2-x,1/2-y,1/2+z
1/2+x,1/2-y,-z
-x,y,1/2-z
-x,-y,-z
1/2+x,1/2+y,1/2-z
1/2-x,1/2+y,z
x,-y,1/2+z
loop_
_atom_site_type_symbol
_atom_site_label
_atom_site_fract_x
_atom_site_fract_y
_atom_site_fract_z
Si Si1 0.030205 0.442248 0.865164
Si Si2 0.983525 0.949799 0.623052
Si Si3 0.371409 0.282393 0.611730
Si Si4 0.613095 0.214132 0.706440
Si Si5 0.615717 0.009093 0.468453
Si Si6 0.656351 0.468171 0.023264
Si Si7 0.000000 0.813016 0.250000
Si Si8 0.220288 0.277067 0.436658
O O1 0.055937 0.582676 0.812972
O O2 0.944812 0.442906 0.899808
O O3 0.044740 0.303099 0.806968
O O4 0.074802 0.459004 0.949032
O O5 0.926374 0.864293 0.680336
O O6 0.041201 0.823281 0.597505
O O7 0.928730 0.008101 0.552776
O O8 0.023436 0.074067 0.677618
O O9 0.362291 0.242254 0.703526
O O10 0.347653 0.137321 0.565435
O O11 0.336375 0.424934 0.570362
O O12 0.682139 0.186840 0.648031
O O13 0.672950 0.134357 0.495501
O O14 0.695543 0.331988 0.066642
O O15 0.704170 0.608693 0.046207
#
# Coordination Sequence:
#
# PCOD9455828 Si02
#       8
#     8   8   8   8   8   8   4   8
#     4  10  21  35  58  97 130 169 208 274 335 398
#     4  11  23  39  62  95 136 173 213 279 345 397
#     4  12  21  39  68  99 133 170 223 282 338 396
#     4  10  21  43  66  94 134 178 212 272 348 398
#     4  10  21  37  65  92 129 167 223 265 332 398
#     4  11  25  43  67  91 133 179 229 273 324 403
#     4  12  22  32  56  94 136 158 212 268 342 396
#     4  10  24  46  67  91 131 182 226 270 328 401
#
# _framework density 22.064703000000002
#
# number of rings (size 3 to 8) (size 9 to 14) (size 15 to 20)
#    0.000    1.333    2.667    2.800    3.733    1.067 
#    0.000    6.667    0.000    0.000    0.000    0.000 
#    0.000    0.000    0.000    0.000    0.000    0.000 
#
# Total GULP energy -334412.787178 kJ/mol
# GULP energy per Si atom -5573.546453 kJ/mol
# Density = 2.201448 g / cm^3
# Si number density = 22.064703 Si / 1000 Ang^3
#
#
#
# Elastic Constant Matrix: (Units=GPa)
#
#
# Indices 1 2 3 4 5 6 
#
# 1 50.0045 -7.6538 8.5797 0.0000 0.0000 0.0000
# 2 -7.6538 73.3821 32.4479 0.0000 0.0000 0.0000
# 3 8.5797 32.4479 115.8056 0.0000 0.0000 0.0000
# 4 0.0000 0.0000 0.0000 42.0735 0.0000 0.0000
# 5 0.0000 0.0000 0.0000 0.0000 22.5676 0.0000
# 6 0.0000 0.0000 0.0000 0.0000 0.0000 22.3986
#
#
#
# Elastic Compliance Matrix: (Units=1/GPa)
#
#
# Indices 1 2 3 4 5 6 
#
# 1 0.020923 0.003273 -0.002467 0.000000 0.000000 0.000000
# 2 0.003273 0.016066 -0.004744 0.000000 0.000000 0.000000
# 3 -0.002467 -0.004744 0.010147 0.000000 0.000000 0.000000
# 4 0.000000 0.000000 0.000000 0.023768 0.000000 0.000000
# 5 0.000000 0.000000 0.000000 0.000000 0.044311 0.000000
# 6 0.000000 0.000000 0.000000 0.000000 0.000000 0.044646
#
#
# Mechanical properties :
#
#
# Convention : Reuss Voigt Hill
#
# Bulk Modulus (GPa) = 25.47136 33.99328 29.73232
# Shear Modulus (GPa) = 27.65119 31.12918 29.39019
#
# Velocity S-wave (km/s) = 3.54388 3.76015 3.65362
# Velocity P-wave (km/s) = 5.32113 5.85588 5.59490
#
# Compressibility (1/GPa) = 0.03925978
#
# Stress axis : x y z
#
# Youngs Moduli (GPa) = 47.79542 62.24137 98.54894
#
# Poissons Ratio (x) = -0.20373 0.24314
# Poissons Ratio (y) = -0.15644 0.46754
# Poissons Ratio (z) = 0.11792 0.29529
#
# Static dielectric constant tensor:
#      x y z
#    x 1.870590 0.000000 0.000000 
#    y 0.000000 1.820890 0.000000 
#    z 0.000000 0.000000 1.857810 
# 
# From -- ./inp_files/17913.got.cif
#   From: 2010.05.17/outbox.cif.g08.bks.cpg/sg60_9_cif.got.tgz:17913.got - 2010.06.03 14:59:27.
