data_PCOD9455522
_publ_section_title
;
Structure prediction by ZEFSAII (Michael W. Deem and Ramdas Pophale) SiO2 
 PCOD9455522
Probable space group: P B C N
;
_chemical_formula_sum "Si O2"
_cell_formula_units_Z 28
_cell_length_a 13.170232
_cell_length_b 7.330288
_cell_length_c 13.133661
_cell_angle_alpha 90.000000
_cell_angle_beta 90.000000
_cell_angle_gamma 90.000000
_cell_volume 1267.944563
_symmetry_space_group_name_H-M "P B C N"
_symmetry_group_IT_number 60
_symmetry_cell_setting 'orthorhombic'
loop_
_space_group_symop_operation_xyz
x,y,z
1/2-x,1/2-y,1/2+z
1/2+x,1/2-y,-z
-x,y,1/2-z
-x,-y,-z
1/2+x,1/2+y,1/2-z
1/2-x,1/2+y,z
x,-y,1/2+z
loop_
_atom_site_type_symbol
_atom_site_label
_atom_site_fract_x
_atom_site_fract_y
_atom_site_fract_z
Si Si1 0.354429 0.646484 0.470113
Si Si2 0.500000 0.086221 0.750000
Si Si3 0.074928 0.851035 0.596890
Si Si4 0.864620 0.558185 0.071433
O O1 0.456665 0.591661 0.410518
O O2 0.357547 0.528245 0.574038
O O3 0.252862 0.603908 0.407977
O O4 0.362784 0.862454 0.485254
O O5 0.580128 0.221897 0.805467
O O6 0.561582 0.970425 0.667073
O O7 0.097172 0.715705 0.502777
#
# Coordination Sequence:
#
# PCOD9455522 Si02
#       4
#     8   4   8   8
#     4  10  20  39  66  85 123 173 204 262 321 374
#     4  10  22  40  64  94 130 164 220 266 304 396
#     4  10  22  43  62  91 131 169 210 263 320 377
#     4  11  21  43  64  93 130 168 214 264 323 375
#
# _framework density 22.082982999999999
#
# number of rings (size 3 to 8) (size 9 to 14) (size 15 to 20)
#    0.000    1.714    2.857    3.429    0.000    0.000 
#   10.286   22.857    0.000    0.000    0.000    0.000 
#    0.000    0.000    0.000    0.000    0.000    0.000 
#
# Total GULP energy -156200.317547 kJ/mol
# GULP energy per Si atom -5578.582770 kJ/mol
# Density = 2.203272 g / cm^3
# Si number density = 22.082983 Si / 1000 Ang^3
#
#
#
# Elastic Constant Matrix: (Units=GPa)
#
#
# Indices 1 2 3 4 5 6 
#
# 1 109.5302 21.3451 23.8792 0.0000 0.0000 0.0000
# 2 21.3451 126.6371 35.7550 0.0000 0.0000 0.0000
# 3 23.8792 35.7550 82.4578 0.0000 0.0000 0.0000
# 4 0.0000 0.0000 0.0000 26.3372 0.0000 0.0000
# 5 0.0000 0.0000 0.0000 0.0000 10.1191 0.0000
# 6 0.0000 0.0000 0.0000 0.0000 0.0000 31.8300
#
#
#
# Elastic Compliance Matrix: (Units=1/GPa)
#
#
# Indices 1 2 3 4 5 6 
#
# 1 0.009849 -0.000974 -0.002430 0.000000 0.000000 0.000000
# 2 -0.000974 0.009095 -0.003661 0.000000 0.000000 0.000000
# 3 -0.002430 -0.003661 0.014419 0.000000 0.000000 0.000000
# 4 0.000000 0.000000 0.000000 0.037969 0.000000 0.000000
# 5 0.000000 0.000000 0.000000 0.000000 0.098823 0.000000
# 6 0.000000 0.000000 0.000000 0.000000 0.000000 0.031417
#
#
# Mechanical properties :
#
#
# Convention : Reuss Voigt Hill
#
# Bulk Modulus (GPa) = 51.99715 53.39819 52.69767
# Shear Modulus (GPa) = 22.51103 29.50032 26.00567
#
# Velocity S-wave (km/s) = 3.19624 3.65894 3.43539
# Velocity P-wave (km/s) = 6.10071 6.48719 6.29692
#
# Compressibility (1/GPa) = 0.01923182
#
# Stress axis : x y z
#
# Youngs Moduli (GPa) = 101.52807 109.95592 69.35396
#
# Poissons Ratio (x) = 0.10711 0.16853
# Poissons Ratio (y) = 0.09890 0.25394
# Poissons Ratio (z) = 0.24671 0.40260
#
# Static dielectric constant tensor:
#      x y z
#    x 1.867250 0.000000 0.000000 
#    y 0.000000 1.840570 0.000000 
#    z 0.000000 0.000000 1.844340 
# 
# From -- ./inp_files/11476.got.cif
#   From: 2010.05.17/outbox.cif.g08.bks.cpg/sg60_6_cif.got.tgz:11476.got - 2010.06.03 14:59:27.
