data_PCOD9455314
_publ_section_title
;
Structure prediction by ZEFSAII (Michael W. Deem and Ramdas Pophale) SiO2 
 PCOD9455314
Probable space group: P B C N
;
_chemical_formula_sum "Si O2"
_cell_formula_units_Z 32
_cell_length_a 9.516025
_cell_length_b 17.636568
_cell_length_c 8.662610
_cell_angle_alpha 90.000000
_cell_angle_beta 90.000000
_cell_angle_gamma 90.000000
_cell_volume 1453.846027
_symmetry_space_group_name_H-M "P B C N"
_symmetry_group_IT_number 60
_symmetry_cell_setting 'orthorhombic'
loop_
_space_group_symop_operation_xyz
x,y,z
1/2-x,1/2-y,1/2+z
1/2+x,1/2-y,-z
-x,y,1/2-z
-x,-y,-z
1/2+x,1/2+y,1/2-z
1/2-x,1/2+y,z
x,-y,1/2+z
loop_
_atom_site_type_symbol
_atom_site_label
_atom_site_fract_x
_atom_site_fract_y
_atom_site_fract_z
Si Si1 0.875746 0.759134 0.365688
Si Si2 0.155602 0.161965 0.318193
Si Si3 0.861130 0.468026 0.642029
Si Si4 0.459544 0.878941 0.416230
O O1 0.845213 0.819542 0.499026
O O2 0.745778 0.728109 0.265585
O O3 0.926364 0.685853 0.463292
O O4 0.000000 0.782447 0.250000
O O5 0.236009 0.082330 0.292650
O O6 0.000000 0.159761 0.250000
O O7 0.839833 0.556976 0.609715
O O8 0.000000 0.461783 0.750000
O O9 0.911431 0.427368 0.485109
O O10 0.500000 0.847567 0.250000
#
# Coordination Sequence:
#
# PCOD9455314 Si02
#       4
#     8   8   8   8
#     4  12  24  45  66  94 131 173 222 264 323 400
#     4  12  25  40  64  97 135 170 209 274 332 381
#     4  10  20  42  68  95 128 168 225 264 314 386
#     4  10  20  37  74  97 117 171 226 268 305 383
#
# _framework density 22.010581999999999
#
# number of rings (size 3 to 8) (size 9 to 14) (size 15 to 20)
#    0.000    1.000    5.000    2.250    3.500    0.000 
#    0.000    1.250    0.000    1.500    0.000    0.000 
#    0.000    0.000    0.000    0.000    0.000    0.000 
#
# Total GULP energy -178941.588477 kJ/mol
# GULP energy per Si atom -5591.924640 kJ/mol
# Density = 2.196048 g / cm^3
# Si number density = 22.010582 Si / 1000 Ang^3
#
#
#
# Elastic Constant Matrix: (Units=GPa)
#
#
# Indices 1 2 3 4 5 6 
#
# 1 110.3725 17.1059 36.5979 0.0000 0.0000 0.0000
# 2 17.1059 71.1529 4.9054 0.0000 0.0000 0.0000
# 3 36.5979 4.9054 139.0898 0.0000 0.0000 0.0000
# 4 0.0000 0.0000 0.0000 33.8637 0.0000 0.0000
# 5 0.0000 0.0000 0.0000 0.0000 28.7983 0.0000
# 6 0.0000 0.0000 0.0000 0.0000 0.0000 14.9781
#
#
#
# Elastic Compliance Matrix: (Units=1/GPa)
#
#
# Indices 1 2 3 4 5 6 
#
# 1 0.010286 -0.002292 -0.002626 0.000000 0.000000 0.000000
# 2 -0.002292 0.014599 0.000088 0.000000 0.000000 0.000000
# 3 -0.002626 0.000088 0.007877 0.000000 0.000000 0.000000
# 4 0.000000 0.000000 0.000000 0.029530 0.000000 0.000000
# 5 0.000000 0.000000 0.000000 0.000000 0.034724 0.000000
# 6 0.000000 0.000000 0.000000 0.000000 0.000000 0.066764
#
#
# Mechanical properties :
#
#
# Convention : Reuss Voigt Hill
#
# Bulk Modulus (GPa) = 43.28286 48.64816 45.96551
# Shear Modulus (GPa) = 27.60276 32.99510 30.29893
#
# Velocity S-wave (km/s) = 3.54512 3.87597 3.71423
# Velocity P-wave (km/s) = 6.03858 6.49469 6.27078
#
# Compressibility (1/GPa) = 0.02310383
#
# Stress axis : x y z
#
# Youngs Moduli (GPa) = 97.21894 68.49720 126.94594
#
# Poissons Ratio (x) = 0.15699 0.33332
# Poissons Ratio (y) = 0.22281 -0.01119
# Poissons Ratio (z) = 0.25527 -0.00604
#
# Static dielectric constant tensor:
#      x y z
#    x 1.811670 0.000000 0.000000 
#    y 0.000000 1.875040 0.000000 
#    z 0.000000 0.000000 1.854300 
# 
# From -- ./inp_files/3552.got.cif
#   From: 2010.05.17/outbox.cif.g08.bks.cpg/sg60_2_cif.got.tgz:3552.got - 2010.06.03 14:59:27.
