data_PCOD9455867
_publ_section_title
;
Structure prediction by ZEFSAII (Michael W. Deem and Ramdas Pophale) SiO2 
 PCOD9455867
Probable space group: P B C N
;
_chemical_formula_sum "Si O2"
_cell_formula_units_Z 24
_cell_length_a 8.871216
_cell_length_b 21.389035
_cell_length_c 5.394484
_cell_angle_alpha 90.000000
_cell_angle_beta 90.000000
_cell_angle_gamma 90.000000
_cell_volume 1023.585804
_symmetry_space_group_name_H-M "P B C N"
_symmetry_group_IT_number 60
_symmetry_cell_setting 'orthorhombic'
loop_
_space_group_symop_operation_xyz
x,y,z
1/2-x,1/2-y,1/2+z
1/2+x,1/2-y,-z
-x,y,1/2-z
-x,-y,-z
1/2+x,1/2+y,1/2-z
1/2-x,1/2+y,z
x,-y,1/2+z
loop_
_atom_site_type_symbol
_atom_site_label
_atom_site_fract_x
_atom_site_fract_y
_atom_site_fract_z
Si Si1 0.329274 0.657725 0.666686
Si Si2 0.324780 0.474067 0.979989
Si Si3 0.401605 0.793369 0.501411
O O1 0.500000 0.650122 0.750000
O O2 0.306280 0.600329 0.483280
O O3 0.322157 0.726328 0.546698
O O4 0.224016 0.657806 0.909675
O O5 0.255482 0.502486 0.735450
O O6 0.500000 0.500000 0.000000
O O7 0.500000 0.806847 0.750000
O O8 0.500000 0.787447 0.250000
#
# Coordination Sequence:
#
# PCOD9455867 Si02
#       3
#     8   8   8
#     4  11  22  41  70  95 135 174 238 283 344 423
#     4  10  21  36  59 101 124 164 221 303 331 380
#     4  11  26  42  62 101 140 185 218 291 367 416
#
# _framework density 23.446985000000002
#
# number of rings (size 3 to 8) (size 9 to 14) (size 15 to 20)
#    0.000    1.333    3.333    4.000    4.667    5.333 
#    0.000    0.000    0.000    6.000    0.000    0.000 
#    0.000    0.000    0.000    0.000    0.000    0.000 
#
# Total GULP energy -134035.529175 kJ/mol
# GULP energy per Si atom -5584.813716 kJ/mol
# Density = 2.339362 g / cm^3
# Si number density = 23.446985 Si / 1000 Ang^3
#
#
#
# Elastic Constant Matrix: (Units=GPa)
#
#
# Indices 1 2 3 4 5 6 
#
# 1 82.8917 23.7223 52.8042 0.0000 0.0000 0.0000
# 2 23.7223 67.4718 26.5859 0.0000 0.0000 0.0000
# 3 52.8042 26.5859 194.5829 0.0000 0.0000 0.0000
# 4 0.0000 0.0000 0.0000 41.9692 0.0000 0.0000
# 5 0.0000 0.0000 0.0000 0.0000 1.3617 0.0000
# 6 0.0000 0.0000 0.0000 0.0000 0.0000 3.2798
#
#
#
# Elastic Compliance Matrix: (Units=1/GPa)
#
#
# Indices 1 2 3 4 5 6 
#
# 1 0.015554 -0.004022 -0.003671 0.000000 0.000000 0.000000
# 2 -0.004022 0.016704 -0.001191 0.000000 0.000000 0.000000
# 3 -0.003671 -0.001191 0.006298 0.000000 0.000000 0.000000
# 4 0.000000 0.000000 0.000000 0.023827 0.000000 0.000000
# 5 0.000000 0.000000 0.000000 0.000000 0.734359 0.000000
# 6 0.000000 0.000000 0.000000 0.000000 0.000000 0.304892
#
#
# Mechanical properties :
#
#
# Convention : Reuss Voigt Hill
#
# Bulk Modulus (GPa) = 48.10467 61.24123 54.67295
# Shear Modulus (GPa) = 4.43919 25.44442 14.94180
#
# Velocity S-wave (km/s) = 1.37746 3.29779 2.52714
# Velocity P-wave (km/s) = 4.80528 6.37780 5.64655
#
# Compressibility (1/GPa) = 0.02078800
#
# Stress axis : x y z
#
# Youngs Moduli (GPa) = 64.29352 59.86482 158.77558
#
# Poissons Ratio (x) = 0.24077 0.58291
# Poissons Ratio (y) = 0.25858 0.18908
# Poissons Ratio (z) = 0.23604 0.07129
#
# Static dielectric constant tensor:
#      x y z
#    x 1.913350 0.000000 0.000000 
#    y 0.000000 1.886440 0.000000 
#    z 0.000000 0.000000 1.951730 
# 
# From -- ./inp_files/220.got.cif
#   From: 2010.05.17/outbox.cif.g08.bks.cpg/sg60_1_cif.got.tgz:220.got - 2010.06.03 14:59:27.
