data_PCOD9455966
_publ_section_title
;
Structure prediction by ZEFSAII (Michael W. Deem and Ramdas Pophale) SiO2 
 PCOD9455966
Probable space group: P B C N
;
_chemical_formula_sum "Si O2"
_cell_formula_units_Z 48
_cell_length_a 14.138732
_cell_length_b 14.974441
_cell_length_c 9.452313
_cell_angle_alpha 90.000000
_cell_angle_beta 90.000000
_cell_angle_gamma 90.000000
_cell_volume 2001.240004
_symmetry_space_group_name_H-M "P B C N"
_symmetry_group_IT_number 60
_symmetry_cell_setting 'orthorhombic'
loop_
_space_group_symop_operation_xyz
x,y,z
1/2-x,1/2-y,1/2+z
1/2+x,1/2-y,-z
-x,y,1/2-z
-x,-y,-z
1/2+x,1/2+y,1/2-z
1/2-x,1/2+y,z
x,-y,1/2+z
loop_
_atom_site_type_symbol
_atom_site_label
_atom_site_fract_x
_atom_site_fract_y
_atom_site_fract_z
Si Si1 0.993640 0.842285 0.612344
Si Si2 0.630204 0.812871 0.109278
Si Si3 0.554185 0.066985 0.396557
Si Si4 0.306408 0.077792 0.635736
Si Si5 0.340612 0.249122 0.440133
Si Si6 0.901192 0.136146 0.815146
O O1 0.923160 0.768276 0.679877
O O2 0.927858 0.866671 0.480006
O O3 0.000000 0.905652 0.750000
O O4 0.089384 0.807777 0.537637
O O5 0.635475 0.888803 0.227292
O O6 0.733811 0.786011 0.058418
O O7 0.565126 0.841086 0.978647
O O8 0.500000 0.074760 0.250000
O O9 0.500000 0.000000 0.500000
O O10 0.657724 0.021898 0.389626
O O11 0.331045 0.148718 0.507997
O O12 0.198021 0.084102 0.684315
O O13 0.376243 0.273345 0.279196
O O14 0.000000 0.104788 0.750000
#
# Coordination Sequence:
#
# PCOD9455966 Si02
#       6
#     8   8   8   8   8   8
#     4  11  20  36  61  93 131 157 205 270 323 374
#     4  11  23  41  61  95 131 168 217 266 325 391
#     4  12  26  44  65  94 133 180 214 258 333 406
#     4  11  21  42  63  92 131 173 215 277 321 385
#     4  10  21  37  66  89 124 168 220 266 324 375
#     4   9  21  39  62  95 120 165 216 273 328 386
#
# _framework density 23.985130000000002
#
# number of rings (size 3 to 8) (size 9 to 14) (size 15 to 20)
#    0.000    1.333    5.000    1.000    0.000    3.333 
#    3.000    0.000    0.000   10.000    0.000    0.000 
#    0.000    0.000    0.000    0.000    0.000    0.000 
#
# Total GULP energy -267595.712983 kJ/mol
# GULP energy per Si atom -5574.910687 kJ/mol
# Density = 2.393054 g / cm^3
# Si number density = 23.985130 Si / 1000 Ang^3
#
#
#
# Elastic Constant Matrix: (Units=GPa)
#
#
# Indices 1 2 3 4 5 6 
#
# 1 126.0515 4.0363 20.3341 0.0000 0.0000 0.0000
# 2 4.0363 33.6106 2.3021 0.0000 0.0000 0.0000
# 3 20.3341 2.3021 154.8166 0.0000 0.0000 0.0000
# 4 0.0000 0.0000 0.0000 22.2378 0.0000 0.0000
# 5 0.0000 0.0000 0.0000 0.0000 31.4296 0.0000
# 6 0.0000 0.0000 0.0000 0.0000 0.0000 46.1019
#
#
#
# Elastic Compliance Matrix: (Units=1/GPa)
#
#
# Indices 1 2 3 4 5 6 
#
# 1 0.008132 -0.000904 -0.001055 0.000000 0.000000 0.000000
# 2 -0.000904 0.029883 -0.000326 0.000000 0.000000 0.000000
# 3 -0.001055 -0.000326 0.006603 0.000000 0.000000 0.000000
# 4 0.000000 0.000000 0.000000 0.044968 0.000000 0.000000
# 5 0.000000 0.000000 0.000000 0.000000 0.031817 0.000000
# 6 0.000000 0.000000 0.000000 0.000000 0.000000 0.021691
#
#
# Mechanical properties :
#
#
# Convention : Reuss Voigt Hill
#
# Bulk Modulus (GPa) = 24.96934 40.86930 32.91932
# Shear Modulus (GPa) = 31.05320 39.14095 35.09707
#
# Velocity S-wave (km/s) = 3.60208 4.04404 3.82944
# Velocity P-wave (km/s) = 5.26620 6.23555 5.77127
#
# Compressibility (1/GPa) = 0.04004912
#
# Stress axis : x y z
#
# Youngs Moduli (GPa) = 122.96554 33.46338 151.45500
#
# Poissons Ratio (x) = 0.03026 0.15974
# Poissons Ratio (y) = 0.11121 0.04931
# Poissons Ratio (z) = 0.12969 0.01090
#
# Static dielectric constant tensor:
#      x y z
#    x 1.905300 0.000000 0.000000 
#    y 0.000000 1.925150 0.000000 
#    z 0.000000 0.000000 2.458520 
# 
# From -- ./inp_files/5917.got.cif
#   From: 2010.05.17/outbox.cif.g08.bks.cpg/sg60_3_cif.got.tgz:5917.got - 2010.06.03 14:59:27.
