data_PCOD9455426
_publ_section_title
;
Structure prediction by ZEFSAII (Michael W. Deem and Ramdas Pophale) SiO2 
 PCOD9455426
Probable space group: P B C N
;
_chemical_formula_sum "Si O2"
_cell_formula_units_Z 48
_cell_length_a 7.960645
_cell_length_b 17.873474
_cell_length_c 13.965154
_cell_angle_alpha 90.000000
_cell_angle_beta 90.000000
_cell_angle_gamma 90.000000
_cell_volume 1987.023298
_symmetry_space_group_name_H-M "P B C N"
_symmetry_group_IT_number 60
_symmetry_cell_setting 'orthorhombic'
loop_
_space_group_symop_operation_xyz
x,y,z
1/2-x,1/2-y,1/2+z
1/2+x,1/2-y,-z
-x,y,1/2-z
-x,-y,-z
1/2+x,1/2+y,1/2-z
1/2-x,1/2+y,z
x,-y,1/2+z
loop_
_atom_site_type_symbol
_atom_site_label
_atom_site_fract_x
_atom_site_fract_y
_atom_site_fract_z
Si Si1 0.442450 0.460220 0.639457
Si Si2 0.953561 0.266045 0.858715
Si Si3 0.166751 0.440927 0.189873
Si Si4 0.639021 0.391690 0.122537
Si Si5 0.943891 0.205418 0.360630
Si Si6 0.021577 0.651718 0.963156
O O1 0.500000 0.453795 0.750000
O O2 0.249864 0.484863 0.648263
O O3 0.538321 0.532598 0.599921
O O4 0.470003 0.377977 0.599650
O O5 0.751973 0.272133 0.869131
O O6 0.000000 0.282222 0.750000
O O7 0.032517 0.184627 0.882730
O O8 0.025804 0.329967 0.928930
O O9 0.291227 0.401389 0.267194
O O10 0.000000 0.456749 0.250000
O O11 0.116447 0.388761 0.101571
O O12 0.803196 0.389160 0.056032
O O13 0.000000 0.209752 0.250000
O O14 0.049305 0.266238 0.417475
#
# Coordination Sequence:
#
# PCOD9455426 Si02
#       6
#     8   8   8   8   8   8
#     4   9  19  37  62  94 130 166 199 242 304 369
#     4  12  24  40  63  90 121 163 211 256 307 362
#     4   9  18  36  63  92 125 167 207 242 295 371
#     4  10  20  38  65  92 122 165 207 242 300 378
#     4  11  23  40  64  97 129 157 199 259 312 355
#     4  11  22  39  63  93 123 162 209 255 300 361
#
# _framework density 24.156735999999999
#
# number of rings (size 3 to 8) (size 9 to 14) (size 15 to 20)
#    0.000    1.667    0.000    7.000    0.000    0.667 
#    0.000    9.167    0.000    6.000    0.000    1.167 
#    0.000    0.000    0.000    0.000    0.000    0.000 
#
# Total GULP energy -268806.907671 kJ/mol
# GULP energy per Si atom -5600.143910 kJ/mol
# Density = 2.410175 g / cm^3
# Si number density = 24.156736 Si / 1000 Ang^3
#
#
#
# Elastic Constant Matrix: (Units=GPa)
#
#
# Indices 1 2 3 4 5 6 
#
# 1 84.5571 28.2386 0.1907 0.0000 0.0000 0.0000
# 2 28.2386 89.8108 28.8016 0.0000 0.0000 0.0000
# 3 0.1907 28.8016 111.1213 0.0000 0.0000 0.0000
# 4 0.0000 0.0000 0.0000 33.8567 0.0000 0.0000
# 5 0.0000 0.0000 0.0000 0.0000 23.6347 0.0000
# 6 0.0000 0.0000 0.0000 0.0000 0.0000 9.9950
#
#
#
# Elastic Compliance Matrix: (Units=1/GPa)
#
#
# Indices 1 2 3 4 5 6 
#
# 1 0.013350 -0.004570 0.001162 0.000000 0.000000 0.000000
# 2 -0.004570 0.013708 -0.003545 0.000000 0.000000 0.000000
# 3 0.001162 -0.003545 0.009916 0.000000 0.000000 0.000000
# 4 0.000000 0.000000 0.000000 0.029536 0.000000 0.000000
# 5 0.000000 0.000000 0.000000 0.000000 0.042311 0.000000
# 6 0.000000 0.000000 0.000000 0.000000 0.000000 0.100050
#
#
# Mechanical properties :
#
#
# Convention : Reuss Voigt Hill
#
# Bulk Modulus (GPa) = 43.35198 44.43902 43.89550
# Shear Modulus (GPa) = 21.69503 28.71450 25.20476
#
# Velocity S-wave (km/s) = 3.00007 3.45146 3.23365
# Velocity P-wave (km/s) = 5.47592 5.85828 5.67032
#
# Compressibility (1/GPa) = 0.02306700
#
# Stress axis : x y z
#
# Youngs Moduli (GPa) = 74.90690 72.94814 100.84634
#
# Poissons Ratio (x) = 0.33338 -0.11714
# Poissons Ratio (y) = 0.34233 0.35752
# Poissons Ratio (z) = -0.08701 0.25862
#
# Static dielectric constant tensor:
#      x y z
#    x 1.930140 0.000000 0.000000 
#    y 0.000000 1.893350 0.000000 
#    z 0.000000 0.000000 2.028350 
# 
# From -- ./inp_files/14996.got.cif
#   From: 2010.05.17/outbox.cif.g08.bks.cpg/sg60_8_cif.got.tgz:14996.got - 2010.06.03 14:59:27.
