data_PCOD9455450
_publ_section_title
;
Structure prediction by ZEFSAII (Michael W. Deem and Ramdas Pophale) SiO2 
 PCOD9455450
Probable space group: P B C N
;
_chemical_formula_sum "Si O2"
_cell_formula_units_Z 48
_cell_length_a 17.546259
_cell_length_b 7.448211
_cell_length_c 14.618908
_cell_angle_alpha 90.000000
_cell_angle_beta 90.000000
_cell_angle_gamma 90.000000
_cell_volume 1910.519347
_symmetry_space_group_name_H-M "P B C N"
_symmetry_group_IT_number 60
_symmetry_cell_setting 'orthorhombic'
loop_
_space_group_symop_operation_xyz
x,y,z
1/2-x,1/2-y,1/2+z
1/2+x,1/2-y,-z
-x,y,1/2-z
-x,-y,-z
1/2+x,1/2+y,1/2-z
1/2-x,1/2+y,z
x,-y,1/2+z
loop_
_atom_site_type_symbol
_atom_site_label
_atom_site_fract_x
_atom_site_fract_y
_atom_site_fract_z
Si Si1 0.277458 0.960921 0.198681
Si Si2 0.144570 0.724903 0.068691
Si Si3 0.848634 0.880128 0.891731
Si Si4 0.518297 0.359933 0.645369
Si Si5 0.478000 0.220547 0.355759
Si Si6 0.854663 0.428167 0.110103
O O1 0.158061 0.936901 0.048180
O O2 0.306746 0.810025 0.125513
O O3 0.302891 0.917691 0.300622
O O4 0.188304 0.017082 0.197147
O O5 0.178659 0.638116 0.161736
O O6 0.054008 0.692530 0.083390
O O7 0.182724 0.610954 0.987268
O O8 0.936735 0.833077 0.901735
O O9 0.500000 0.314302 0.750000
O O10 0.538409 0.568304 0.640228
O O11 0.584085 0.231557 0.614492
O O12 0.500000 0.174537 0.250000
O O13 0.405472 0.107196 0.386805
#
# Coordination Sequence:
#
# PCOD9455450 Si02
#       6
#     8   8   8   8   8   8
#     4  12  24  46  69  95 143 187 224 285 357 423
#     4  11  25  43  67 105 137 180 234 293 349 422
#     4  11  24  44  69  92 137 187 229 282 354 415
#     4  10  21  39  68 101 132 179 232 289 344 410
#     4  10  20  38  68 100 140 172 227 289 350 412
#     4  12  24  42  73 107 133 183 238 287 355 421
#
# _framework density 25.124058000000002
#
# number of rings (size 3 to 8) (size 9 to 14) (size 15 to 20)
#    0.000    1.000    5.000    2.000    0.000    4.000 
#    3.000    0.000    0.000    0.000    0.000    0.000 
#    0.000    0.000    0.000    0.000    0.000    0.000 
#
# Total GULP energy -267745.650131 kJ/mol
# GULP energy per Si atom -5578.034378 kJ/mol
# Density = 2.506687 g / cm^3
# Si number density = 25.124058 Si / 1000 Ang^3
#
#
#
# Elastic Constant Matrix: (Units=GPa)
#
#
# Indices 1 2 3 4 5 6 
#
# 1 56.1833 -4.8533 -1.8374 0.0000 0.0000 0.0000
# 2 -4.8533 80.5694 -5.0402 0.0000 0.0000 0.0000
# 3 -1.8374 -5.0402 91.8158 0.0000 0.0000 0.0000
# 4 0.0000 0.0000 0.0000 -26.2942 0.0000 0.0000
# 5 0.0000 0.0000 0.0000 0.0000 4.2576 0.0000
# 6 0.0000 0.0000 0.0000 0.0000 0.0000 35.0308
#
#
#
# Elastic Compliance Matrix: (Units=1/GPa)
#
#
# Indices 1 2 3 4 5 6 
#
# 1 0.017908 0.001105 0.000419 0.000000 0.000000 0.000000
# 2 0.001105 0.012523 0.000710 0.000000 0.000000 0.000000
# 3 0.000419 0.000710 0.010939 0.000000 0.000000 0.000000
# 4 0.000000 0.000000 0.000000 -0.038031 0.000000 0.000000
# 5 0.000000 0.000000 0.000000 0.000000 0.234872 0.000000
# 6 0.000000 0.000000 0.000000 0.000000 0.000000 0.028546
#
#
# Mechanical properties :
#
#
# Convention : Reuss Voigt Hill
#
# Bulk Modulus (GPa) = 21.81674 22.78964 22.30319
# Shear Modulus (GPa) = 18.01361 18.61879 18.31620
#
# Velocity S-wave (km/s) = 2.68057 2.72522 2.70299
# Velocity P-wave (km/s) = 4.27587 4.35809 4.31717
#
# Compressibility (1/GPa) = 0.04583637
#
# Stress axis : x y z
#
# Youngs Moduli (GPa) = 55.84082 79.85556 91.41850
#
# Poissons Ratio (x) = -0.08824 -0.03831
# Poissons Ratio (y) = -0.06170 -0.06486
# Poissons Ratio (z) = -0.02340 -0.05666
#
# Static dielectric constant tensor:
#      x y z
#    x -1.413840 0.000000 0.000000 
#    y 0.000000 2.028350 0.000000 
#    z 0.000000 0.000000 2.116450 
# 
# From -- ./inp_files/20806.got.cif
#   From: 2010.05.17/outbox.cif.g08.bks.cpg/sg60_11_cif.got.tgz:20806.got - 2010.06.03 14:59:27.
