data_PCOD9455276
_publ_section_title
;
Structure prediction by ZEFSAII (Michael W. Deem and Ramdas Pophale) SiO2 
 PCOD9455276
Probable space group: P B C N
;
_chemical_formula_sum "Si O2"
_cell_formula_units_Z 40
_cell_length_a 8.849908
_cell_length_b 24.994517
_cell_length_c 7.933253
_cell_angle_alpha 90.000000
_cell_angle_beta 90.000000
_cell_angle_gamma 90.000000
_cell_volume 1754.829026
_symmetry_space_group_name_H-M "P B C N"
_symmetry_group_IT_number 60
_symmetry_cell_setting 'orthorhombic'
loop_
_space_group_symop_operation_xyz
x,y,z
1/2-x,1/2-y,1/2+z
1/2+x,1/2-y,-z
-x,y,1/2-z
-x,-y,-z
1/2+x,1/2+y,1/2-z
1/2-x,1/2+y,z
x,-y,1/2+z
loop_
_atom_site_type_symbol
_atom_site_label
_atom_site_fract_x
_atom_site_fract_y
_atom_site_fract_z
Si Si1 0.646648 0.933549 0.500120
Si Si2 0.300911 0.671079 0.603784
Si Si3 0.308344 0.054076 0.099243
Si Si4 0.820087 0.722361 0.236854
Si Si5 0.097060 0.145109 0.077997
O O1 0.721437 0.886241 0.393887
O O2 0.687822 0.932403 0.700209
O O3 0.464945 0.929766 0.508024
O O4 0.697735 0.990559 0.426445
O O5 0.275694 0.715588 0.744300
O O6 0.230406 0.699146 0.439707
O O7 0.477100 0.663844 0.559638
O O8 0.172364 0.089103 0.028408
O O9 0.728691 0.686871 0.373368
O O10 0.000000 0.716375 0.250000
O O11 0.000000 0.138108 0.250000
#
# Coordination Sequence:
#
# PCOD9455276 Si02
#       5
#     8   8   8   8   8
#     4  10  21  40  66  88 123 162 208 252 312 372
#     4  11  23  41  63  95 125 165 210 257 309 370
#     4  10  20  40  65  88 122 165 202 255 312 373
#     4  11  22  41  65  87 126 169 205 255 309 368
#     4  10  20  37  62  90 121 160 203 249 313 360
#
# _framework density 22.794243999999999
#
# number of rings (size 3 to 8) (size 9 to 14) (size 15 to 20)
#    0.000    1.600    4.000    2.400    0.000    0.800 
#    7.200    2.000   13.200    0.000    0.000    0.000 
#    0.000    0.000    0.000    0.000    0.000    0.000 
#
# Total GULP energy -223826.127572 kJ/mol
# GULP energy per Si atom -5595.653189 kJ/mol
# Density = 2.274236 g / cm^3
# Si number density = 22.794244 Si / 1000 Ang^3
#
#
#
# Elastic Constant Matrix: (Units=GPa)
#
#
# Indices 1 2 3 4 5 6 
#
# 1 108.7399 84.8836 21.2739 0.0000 0.0000 0.0000
# 2 84.8836 154.6815 20.1095 0.0000 0.0000 0.0000
# 3 21.2739 20.1095 58.2626 0.0000 0.0000 0.0000
# 4 0.0000 0.0000 0.0000 35.8645 0.0000 0.0000
# 5 0.0000 0.0000 0.0000 0.0000 10.5061 0.0000
# 6 0.0000 0.0000 0.0000 0.0000 0.0000 86.1473
#
#
#
# Elastic Compliance Matrix: (Units=1/GPa)
#
#
# Indices 1 2 3 4 5 6 
#
# 1 0.016591 -0.008707 -0.003052 0.000000 0.000000 0.000000
# 2 -0.008707 0.011339 -0.000734 0.000000 0.000000 0.000000
# 3 -0.003052 -0.000734 0.018532 0.000000 0.000000 0.000000
# 4 0.000000 0.000000 0.000000 0.027883 0.000000 0.000000
# 5 0.000000 0.000000 0.000000 0.000000 0.095183 0.000000
# 6 0.000000 0.000000 0.000000 0.000000 0.000000 0.011608
#
#
# Mechanical properties :
#
#
# Convention : Reuss Voigt Hill
#
# Bulk Modulus (GPa) = 46.57062 63.80199 55.18630
# Shear Modulus (GPa) = 23.44336 39.53139 31.48738
#
# Velocity S-wave (km/s) = 3.21047 4.16898 3.72072
# Velocity P-wave (km/s) = 5.84962 7.15716 6.53617
#
# Compressibility (1/GPa) = 0.02147277
#
# Stress axis : x y z
#
# Youngs Moduli (GPa) = 60.27518 88.19362 53.96179
#
# Poissons Ratio (x) = 0.76794 0.16472
# Poissons Ratio (y) = 0.52484 0.03962
# Poissons Ratio (z) = 0.18399 0.06475
#
# Static dielectric constant tensor:
#      x y z
#    x 2.178930 0.000000 0.000000 
#    y 0.000000 1.834300 0.000000 
#    z 0.000000 0.000000 1.895770 
# 
# From -- ./inp_files/3862.got.cif
#   From: 2010.05.17/outbox.cif.g08.bks.cpg/sg60_2_cif.got.tgz:3862.got - 2010.06.03 14:59:27.
