data_PCOD9455279
_publ_section_title
;
Structure prediction by ZEFSAII (Michael W. Deem and Ramdas Pophale) SiO2 
 PCOD9455279
Probable space group: P B C N
;
_chemical_formula_sum "Si O2"
_cell_formula_units_Z 52
_cell_length_a 8.025549
_cell_length_b 14.520300
_cell_length_c 19.909967
_cell_angle_alpha 90.000000
_cell_angle_beta 90.000000
_cell_angle_gamma 90.000000
_cell_volume 2320.175733
_symmetry_space_group_name_H-M "P B C N"
_symmetry_group_IT_number 60
_symmetry_cell_setting 'orthorhombic'
loop_
_space_group_symop_operation_xyz
x,y,z
1/2-x,1/2-y,1/2+z
1/2+x,1/2-y,-z
-x,y,1/2-z
-x,-y,-z
1/2+x,1/2+y,1/2-z
1/2-x,1/2+y,z
x,-y,1/2+z
loop_
_atom_site_type_symbol
_atom_site_label
_atom_site_fract_x
_atom_site_fract_y
_atom_site_fract_z
Si Si1 0.517170 0.079344 0.671949
Si Si2 0.473645 0.397782 0.911789
Si Si3 0.886638 0.185991 0.532642
Si Si4 0.727590 0.266558 0.656917
Si Si5 0.500000 0.303369 0.250000
Si Si6 0.162591 0.491651 0.452898
Si Si7 0.145368 0.087389 0.625303
O O1 0.500000 0.053775 0.750000
O O2 0.623327 0.173026 0.668056
O O3 0.608546 0.005367 0.625039
O O4 0.341707 0.094482 0.634693
O O5 0.395153 0.351970 0.846163
O O6 0.323410 0.442346 0.956138
O O7 0.592315 0.482709 0.892132
O O8 0.560997 0.315893 0.954809
O O9 0.815479 0.263217 0.582661
O O10 0.743441 0.108142 0.534389
O O11 0.051301 0.150587 0.571172
O O12 0.865029 0.260978 0.714108
O O13 0.427170 0.372035 0.194328
O O14 0.000000 0.500000 0.500000
#
# Coordination Sequence:
#
# PCOD9455279 Si02
#       7
#     8   8   8   8   4   8   8
#     4  11  21  39  63  90 121 177 221 253 332 409
#     4  11  22  39  61 102 124 160 221 276 322 377
#     4   9  20  37  60  87 125 167 204 258 335 389
#     4  10  23  40  63  92 131 172 213 265 331 400
#     4  10  20  44  62  86 130 182 206 250 336 388
#     4  10  20  37  62  90 125 164 215 269 318 393
#     4  10  20  38  66  86 124 171 212 263 311 388
#
# _framework density 22.412095999999998
#
# number of rings (size 3 to 8) (size 9 to 14) (size 15 to 20)
#    0.000    1.846    1.538    4.615    0.000    3.692 
#    2.769    4.615    0.000    0.000    0.000    0.000 
#    0.000    0.000    0.000    0.000    0.000    0.000 
#
# Total GULP energy -290103.186436 kJ/mol
# GULP energy per Si atom -5578.907431 kJ/mol
# Density = 2.236108 g / cm^3
# Si number density = 22.412096 Si / 1000 Ang^3
#
#
#
# Elastic Constant Matrix: (Units=GPa)
#
#
# Indices 1 2 3 4 5 6 
#
# 1 102.0071 -6.4288 25.5586 0.0000 0.0000 0.0000
# 2 -6.4288 16.2898 15.0558 0.0000 0.0000 0.0000
# 3 25.5586 15.0558 66.7876 0.0000 0.0000 0.0000
# 4 0.0000 0.0000 0.0000 3.7231 0.0000 0.0000
# 5 0.0000 0.0000 0.0000 0.0000 43.9583 0.0000
# 6 0.0000 0.0000 0.0000 0.0000 0.0000 11.2176
#
#
#
# Elastic Compliance Matrix: (Units=1/GPa)
#
#
# Indices 1 2 3 4 5 6 
#
# 1 0.012391 0.011713 -0.007382 0.000000 0.000000 0.000000
# 2 0.011713 0.088617 -0.024459 0.000000 0.000000 0.000000
# 3 -0.007382 -0.024459 0.023312 0.000000 0.000000 0.000000
# 4 0.000000 0.000000 0.000000 0.268594 0.000000 0.000000
# 5 0.000000 0.000000 0.000000 0.000000 0.022749 0.000000
# 6 0.000000 0.000000 0.000000 0.000000 0.000000 0.089146
#
#
# Mechanical properties :
#
#
# Convention : Reuss Voigt Hill
#
# Bulk Modulus (GPa) = 11.89582 28.16175 20.02878
# Shear Modulus (GPa) = 8.72470 21.83973 15.28222
#
# Velocity S-wave (km/s) = 1.97517 3.12502 2.61410
# Velocity P-wave (km/s) = 3.24361 5.06100 4.25057
#
# Compressibility (1/GPa) = 0.08406317
#
# Stress axis : x y z
#
# Youngs Moduli (GPa) = 80.70269 11.28454 42.89681
#
# Poissons Ratio (x) = -0.13218 0.31668
# Poissons Ratio (y) = -0.94530 1.04922
# Poissons Ratio (z) = 0.59578 0.27601
#
# Static dielectric constant tensor:
#      x y z
#    x 1.855740 0.000000 0.000000 
#    y 0.000000 1.863890 0.000000 
#    z 0.000000 0.000000 1.850020 
# 
# From -- ./inp_files/19492.got.cif
#   From: 2010.05.17/outbox.cif.g08.bks.cpg/sg60_10_cif.got.tgz:19492.got - 2010.06.03 14:59:27.
