data_PCOD9455979
_publ_section_title
;
Structure prediction by ZEFSAII (Michael W. Deem and Ramdas Pophale) SiO2 
 PCOD9455979
Probable space group: P B C N
;
_chemical_formula_sum "Si O2"
_cell_formula_units_Z 64
_cell_length_a 5.387405
_cell_length_b 15.824303
_cell_length_c 31.741403
_cell_angle_alpha 90.000000
_cell_angle_beta 90.000000
_cell_angle_gamma 90.000000
_cell_volume 2706.015838
_symmetry_space_group_name_H-M "P B C N"
_symmetry_group_IT_number 60
_symmetry_cell_setting 'orthorhombic'
loop_
_space_group_symop_operation_xyz
x,y,z
1/2-x,1/2-y,1/2+z
1/2+x,1/2-y,-z
-x,y,1/2-z
-x,-y,-z
1/2+x,1/2+y,1/2-z
1/2-x,1/2+y,z
x,-y,1/2+z
loop_
_atom_site_type_symbol
_atom_site_label
_atom_site_fract_x
_atom_site_fract_y
_atom_site_fract_z
Si Si1 0.938807 0.121772 0.993069
Si Si2 0.256872 0.958822 0.224114
Si Si3 0.432300 0.491372 0.348310
Si Si4 0.461740 0.846256 0.335755
Si Si5 0.641777 0.238436 0.052951
Si Si6 0.867307 0.829338 0.634449
Si Si7 0.183522 0.562611 0.584595
Si Si8 0.252458 0.106682 0.065742
O O1 0.715873 0.096073 0.962478
O O2 0.119134 0.164785 0.958913
O O3 0.846586 0.195348 0.024277
O O4 0.079926 0.067281 0.028347
O O5 0.500000 0.990075 0.250000
O O6 0.353052 0.873613 0.201443
O O7 0.000000 0.951176 0.250000
O O8 0.163514 0.009936 0.183073
O O9 0.271080 0.411173 0.332981
O O10 0.283245 0.579492 0.348735
O O11 0.555464 0.464433 0.392714
O O12 0.420001 0.746411 0.333630
O O13 0.569711 0.871962 0.382142
O O14 0.688663 0.217401 0.101438
O O15 0.393983 0.184572 0.045173
O O16 0.102531 0.856774 0.605443
O O17 0.063885 0.469274 0.579516
#
# Coordination Sequence:
#
# PCOD9455979 Si02
#       8
#     8   8   8   8   8   8   8   8
#     4  11  21  33  52  80 116 171 226 279 351 398
#     4  11  23  47  79 105 146 186 217 276 347 424
#     4  10  22  43  68 101 134 179 224 282 346 415
#     4  11  22  40  71 101 135 184 224 283 353 415
#     4  11  21  34  54  77 124 172 221 293 342 402
#     4  10  23  40  64  98 132 175 235 285 342 416
#     4  10  22  35  58  85 121 169 227 289 348 413
#     4  10  21  38  52  81 123 169 229 293 343 407
#
# _framework density 23.651008000000001
#
# number of rings (size 3 to 8) (size 9 to 14) (size 15 to 20)
#    0.000    1.500    2.500    2.625    1.750    2.500 
#    0.000    1.250    0.000    0.000    0.000    0.000 
#    0.000    0.000    0.000    0.000    0.000    0.000 
#
# Total GULP energy -356625.101945 kJ/mol
# GULP energy per Si atom -5572.267218 kJ/mol
# Density = 2.359718 g / cm^3
# Si number density = 23.651008 Si / 1000 Ang^3
#
#
#
# Elastic Constant Matrix: (Units=GPa)
#
#
# Indices 1 2 3 4 5 6 
#
# 1 72.7309 13.4341 19.1420 0.0000 0.0000 0.0000
# 2 13.4341 68.7232 9.5534 0.0000 0.0000 0.0000
# 3 19.1420 9.5534 78.0443 0.0000 0.0000 0.0000
# 4 0.0000 0.0000 0.0000 15.5570 0.0000 0.0000
# 5 0.0000 0.0000 0.0000 0.0000 30.7741 0.0000
# 6 0.0000 0.0000 0.0000 0.0000 0.0000 -6.7124
#
#
#
# Elastic Compliance Matrix: (Units=1/GPa)
#
#
# Indices 1 2 3 4 5 6 
#
# 1 0.015102 -0.002479 -0.003401 0.000000 0.000000 0.000000
# 2 -0.002479 0.015210 -0.001254 0.000000 0.000000 0.000000
# 3 -0.003401 -0.001254 0.013801 0.000000 0.000000 0.000000
# 4 0.000000 0.000000 0.000000 0.064280 0.000000 0.000000
# 5 0.000000 0.000000 0.000000 0.000000 0.032495 0.000000
# 6 0.000000 0.000000 0.000000 0.000000 0.000000 -0.148978
#
#
# Mechanical properties :
#
#
# Convention : Reuss Voigt Hill
#
# Bulk Modulus (GPa) = 33.50591 33.75083 33.62837
# Shear Modulus (GPa) = 310.05822 19.74834 164.90328
#
# Velocity S-wave (km/s) = 11.46219 2.89275 8.35912
# Velocity P-wave (km/s) = 13.76130 5.04566 10.36417
#
# Compressibility (1/GPa) = 0.02984548
#
# Stress axis : x y z
#
# Youngs Moduli (GPa) = 66.21504 65.74579 72.45969
#
# Poissons Ratio (x) = 0.16302 0.24641
# Poissons Ratio (y) = 0.16418 0.09084
# Poissons Ratio (z) = 0.22517 0.08243
#
# Static dielectric constant tensor:
#      x y z
#    x 2.038760 0.000000 0.000000 
#    y 0.000000 1.952390 0.000000 
#    z 0.000000 0.000000 1.995860 
# 
# From -- ./inp_files/25819.got.cif
#   From: 2010.05.17/outbox.cif.g08.bks.cpg/sg60_13_cif.got.tgz:25819.got - 2010.06.03 14:59:27.
