data_PCOD9455329
_publ_section_title
;
Structure prediction by ZEFSAII (Michael W. Deem and Ramdas Pophale) SiO2 
 PCOD9455329
Probable space group: P B C N
;
_chemical_formula_sum "Si O2"
_cell_formula_units_Z 36
_cell_length_a 6.372604
_cell_length_b 13.044193
_cell_length_c 21.565311
_cell_angle_alpha 90.000000
_cell_angle_beta 90.000000
_cell_angle_gamma 90.000000
_cell_volume 1792.626752
_symmetry_space_group_name_H-M "P B C N"
_symmetry_group_IT_number 60
_symmetry_cell_setting 'orthorhombic'
loop_
_space_group_symop_operation_xyz
x,y,z
1/2-x,1/2-y,1/2+z
1/2+x,1/2-y,-z
-x,y,1/2-z
-x,-y,-z
1/2+x,1/2+y,1/2-z
1/2-x,1/2+y,z
x,-y,1/2+z
loop_
_atom_site_type_symbol
_atom_site_label
_atom_site_fract_x
_atom_site_fract_y
_atom_site_fract_z
Si Si1 0.894643 0.591614 0.362075
Si Si2 0.500000 0.950265 0.250000
Si Si3 0.813964 0.437231 0.532730
Si Si4 0.565334 0.570322 0.917740
Si Si5 0.156737 0.794557 0.196338
O O1 0.015945 0.525554 0.309362
O O2 0.723927 0.518217 0.394034
O O3 0.770509 0.687364 0.332942
O O4 0.068850 0.624299 0.412929
O O5 0.316432 0.873121 0.228654
O O6 0.650986 0.518127 0.562326
O O7 0.680190 0.382092 0.478577
O O8 0.000000 0.500000 0.500000
O O9 0.546786 0.646221 0.860330
O O10 0.000000 0.763528 0.250000
#
# Coordination Sequence:
#
# PCOD9455329 Si02
#       5
#     8   4   8   8   8
#     4  10  20  38  59  86 122 160 203 251 309 368
#     4  10  22  40  58  86 130 152 202 270 302 372
#     4   9  18  38  60  80 121 160 196 256 305 361
#     4   9  20  38  59  88 118 160 202 251 308 369
#     4  11  22  38  61  92 118 163 208 250 319 368
#
# _framework density 20.082262
#
# number of rings (size 3 to 8) (size 9 to 14) (size 15 to 20)
#    0.000    2.222    1.111    1.333    0.000    1.778 
#   20.000    0.000    0.000    0.000    0.000    0.000 
#    0.000    0.000    0.000    0.000    0.000    0.000 
#
# Total GULP energy -200478.623897 kJ/mol
# GULP energy per Si atom -5568.850664 kJ/mol
# Density = 2.003655 g / cm^3
# Si number density = 20.082262 Si / 1000 Ang^3
#
#
#
# Elastic Constant Matrix: (Units=GPa)
#
#
# Indices 1 2 3 4 5 6 
#
# 1 63.1241 6.9229 39.1889 0.0000 0.0000 0.0000
# 2 6.9229 57.2855 27.0529 0.0000 0.0000 0.0000
# 3 39.1889 27.0529 101.9058 0.0000 0.0000 0.0000
# 4 0.0000 0.0000 0.0000 -33.2439 0.0000 0.0000
# 5 0.0000 0.0000 0.0000 0.0000 29.1605 0.0000
# 6 0.0000 0.0000 0.0000 0.0000 0.0000 13.2678
#
#
#
# Elastic Compliance Matrix: (Units=1/GPa)
#
#
# Indices 1 2 3 4 5 6 
#
# 1 0.020915 0.001453 -0.008429 0.000000 0.000000 0.000000
# 2 0.001453 0.020059 -0.005884 0.000000 0.000000 0.000000
# 3 -0.008429 -0.005884 0.014616 0.000000 0.000000 0.000000
# 4 0.000000 0.000000 0.000000 -0.030081 0.000000 0.000000
# 5 0.000000 0.000000 0.000000 0.000000 0.034293 0.000000
# 6 0.000000 0.000000 0.000000 0.000000 0.000000 0.075370
#
#
# Mechanical properties :
#
#
# Convention : Reuss Voigt Hill
#
# Bulk Modulus (GPa) = 33.47682 40.96056 37.21869
# Shear Modulus (GPa) = 29.26532 11.78027 20.52279
#
# Velocity S-wave (km/s) = 3.82156 2.42461 3.20024
# Velocity P-wave (km/s) = 6.01486 5.31780 5.67704
#
# Compressibility (1/GPa) = 0.02987141
#
# Stress axis : x y z
#
# Youngs Moduli (GPa) = 47.81180 49.85170 68.41622
#
# Poissons Ratio (x) = -0.07243 0.57667
# Poissons Ratio (y) = -0.06947 0.40256
# Poissons Ratio (z) = 0.40300 0.29332
#
# Static dielectric constant tensor:
#      x y z
#    x 1.690340 0.000000 0.000000 
#    y 0.000000 1.682720 0.000000 
#    z 0.000000 0.000000 1.758290 
# 
# From -- ./inp_files/21480.got.cif
#   From: 2010.05.17/outbox.cif.g08.bks.cpg/sg60_11_cif.got.tgz:21480.got - 2010.06.03 14:59:27.
