data_PCOD9455024
_publ_section_title
;
Structure prediction by ZEFSAII (Michael W. Deem and Ramdas Pophale) SiO2 
 PCOD9455024
Probable space group: P B C N
;
_chemical_formula_sum "Si O2"
_cell_formula_units_Z 60
_cell_length_a 11.708114
_cell_length_b 30.449072
_cell_length_c 8.678891
_cell_angle_alpha 90.000000
_cell_angle_beta 90.000000
_cell_angle_gamma 90.000000
_cell_volume 3094.035110
_symmetry_space_group_name_H-M "P B C N"
_symmetry_group_IT_number 60
_symmetry_cell_setting 'orthorhombic'
loop_
_space_group_symop_operation_xyz
x,y,z
1/2-x,1/2-y,1/2+z
1/2+x,1/2-y,-z
-x,y,1/2-z
-x,-y,-z
1/2+x,1/2+y,1/2-z
1/2-x,1/2+y,z
x,-y,1/2+z
loop_
_atom_site_type_symbol
_atom_site_label
_atom_site_fract_x
_atom_site_fract_y
_atom_site_fract_z
Si Si1 0.500000 0.507917 0.250000
Si Si2 0.980967 0.669808 0.077670
Si Si3 0.270930 0.160937 0.939282
Si Si4 0.398459 0.560986 0.516185
Si Si5 0.633380 0.292694 0.504296
Si Si6 0.713019 0.874418 0.393885
Si Si7 0.454068 0.640206 0.078146
Si Si8 0.817416 0.252373 0.688692
O O1 0.417352 0.538404 0.351289
O O2 0.570832 0.476192 0.361342
O O3 0.908574 0.715310 0.105254
O O4 0.000000 0.652242 0.250000
O O5 0.906819 0.637526 0.971501
O O6 0.105344 0.673333 0.002843
O O7 0.287428 0.129977 0.790452
O O8 0.206535 0.204897 0.883268
O O9 0.181964 0.140219 0.060200
O O10 0.275624 0.582085 0.547692
O O11 0.490480 0.601116 0.523327
O O12 0.707116 0.334540 0.452122
O O13 0.509326 0.313064 0.528561
O O14 0.694310 0.275583 0.659876
O O15 0.646872 0.258375 0.363798
O O16 0.500000 0.633363 0.250000
#
# Coordination Sequence:
#
# PCOD9455024 Si02
#       8
#     4   8   8   8   8   8   8   8
#     4  10  20  34  66 108 130 158 186 232 316 382
#     4  11  24  38  60  85 117 160 226 265 316 360
#     4  11  24  38  61  84 116 171 218 263 316 361
#     4  10  20  39  64  97 135 157 190 244 303 379
#     4   9  21  38  57  77 111 155 207 248 319 353
#     4   9  21  42  60  84 122 161 204 246 300 377
#     4  11  24  38  59  90 125 162 209 251 312 381
#     4  10  22  38  56  79 114 157 205 283 307 357
#
# _framework density 19.392153
#
# number of rings (size 3 to 8) (size 9 to 14) (size 15 to 20)
#    0.000    1.867    0.667    2.000   11.200    3.733 
#    0.000    0.000    0.000    0.000    0.000   23.333 
#    0.000    0.000    0.000    0.000    0.000    0.000 
#
# Total GULP energy -334795.626343 kJ/mol
# GULP energy per Si atom -5579.927106 kJ/mol
# Density = 1.934802 g / cm^3
# Si number density = 19.392153 Si / 1000 Ang^3
#
#
#
# Elastic Constant Matrix: (Units=GPa)
#
#
# Indices 1 2 3 4 5 6 
#
# 1 146.1780 47.7390 54.8652 0.0000 0.0000 0.0000
# 2 47.7390 88.3752 46.7944 0.0000 0.0000 0.0000
# 3 54.8652 46.7944 110.2178 0.0000 0.0000 0.0000
# 4 0.0000 0.0000 0.0000 7.8503 0.0000 0.0000
# 5 0.0000 0.0000 0.0000 0.0000 27.7170 0.0000
# 6 0.0000 0.0000 0.0000 0.0000 0.0000 12.4457
#
#
#
# Elastic Compliance Matrix: (Units=1/GPa)
#
#
# Indices 1 2 3 4 5 6 
#
# 1 0.009079 -0.003240 -0.003144 0.000000 0.000000 0.000000
# 2 -0.003240 0.015753 -0.005075 0.000000 0.000000 0.000000
# 3 -0.003144 -0.005075 0.012793 0.000000 0.000000 0.000000
# 4 0.000000 0.000000 0.000000 0.127383 0.000000 0.000000
# 5 0.000000 0.000000 0.000000 0.000000 0.036079 0.000000
# 6 0.000000 0.000000 0.000000 0.000000 0.000000 0.080349
#
#
# Mechanical properties :
#
#
# Convention : Reuss Voigt Hill
#
# Bulk Modulus (GPa) = 67.99680 71.50757 69.75219
# Shear Modulus (GPa) = 16.16783 22.62744 19.39763
#
# Velocity S-wave (km/s) = 2.89057 3.41960 3.16616
# Velocity P-wave (km/s) = 6.80300 7.24887 7.02947
#
# Compressibility (1/GPa) = 0.01470657
#
# Stress axis : x y z
#
# Youngs Moduli (GPa) = 110.14407 63.48085 78.16880
#
# Poissons Ratio (x) = 0.20565 0.24576
# Poissons Ratio (y) = 0.35682 0.39674
# Poissons Ratio (z) = 0.34629 0.32219
#
# Static dielectric constant tensor:
#      x y z
#    x 1.700790 0.000000 0.000000 
#    y 0.000000 1.689360 0.000000 
#    z 0.000000 0.000000 1.731650 
# 
# From -- ./inp_files/5295.got.cif
#   From: 2010.05.17/outbox.cif.g08.bks.cpg/sg60_3_cif.got.tgz:5295.got - 2010.06.03 14:59:27.
