data_PCOD9455226
_publ_section_title
;
Structure prediction by ZEFSAII (Michael W. Deem and Ramdas Pophale) SiO2 
 PCOD9455226
Probable space group: P B C N
;
_chemical_formula_sum "Si O2"
_cell_formula_units_Z 48
_cell_length_a 15.663387
_cell_length_b 5.207513
_cell_length_c 24.834466
_cell_angle_alpha 90.000000
_cell_angle_beta 90.000000
_cell_angle_gamma 90.000000
_cell_volume 2025.680126
_symmetry_space_group_name_H-M "P B C N"
_symmetry_group_IT_number 60
_symmetry_cell_setting 'orthorhombic'
loop_
_space_group_symop_operation_xyz
x,y,z
1/2-x,1/2-y,1/2+z
1/2+x,1/2-y,-z
-x,y,1/2-z
-x,-y,-z
1/2+x,1/2+y,1/2-z
1/2-x,1/2+y,z
x,-y,1/2+z
loop_
_atom_site_type_symbol
_atom_site_label
_atom_site_fract_x
_atom_site_fract_y
_atom_site_fract_z
Si Si1 0.532082 0.056085 0.147419
Si Si2 0.441837 0.472628 0.683832
Si Si3 0.726961 0.007067 0.120314
Si Si4 0.306850 0.405002 0.091020
Si Si5 0.700102 0.529873 0.237232
Si Si6 0.970037 0.750330 0.467945
O O1 0.504677 0.283008 0.187669
O O2 0.632494 0.003269 0.143950
O O3 0.510147 0.189342 0.090370
O O4 0.483583 0.787459 0.159351
O O5 0.366608 0.575859 0.644169
O O6 0.391913 0.407398 0.738783
O O7 0.747175 0.259765 0.087728
O O8 0.790387 0.019351 0.172324
O O9 0.265431 0.687032 0.090168
O O10 0.371378 0.312641 0.044350
O O11 0.735723 0.254679 0.255492
O O12 0.000000 0.500000 0.500000
O O13 0.000000 0.000000 0.500000
#
# Coordination Sequence:
#
# PCOD9455226 Si02
#       6
#     8   8   8   8   8   8
#     4  11  23  41  64  90 121 168 212 253 319 386
#     4  11  21  37  63  93 122 162 207 257 316 371
#     4  10  22  42  61  85 124 166 207 257 307 370
#     4  11  21  37  62  93 124 157 201 255 312 373
#     4  10  20  37  58  86 122 160 201 252 306 358
#     4  11  23  42  64  91 128 163 204 264 321 376
#
# _framework density 23.695746
#
# number of rings (size 3 to 8) (size 9 to 14) (size 15 to 20)
#    0.000    1.333    0.000    8.000    0.000    0.000 
#    0.000   25.000    0.000    0.000    0.000    0.000 
#    0.000    0.000    0.000    0.000    0.000    0.000 
#
# Total GULP energy -268183.702472 kJ/mol
# GULP energy per Si atom -5587.160468 kJ/mol
# Density = 2.364181 g / cm^3
# Si number density = 23.695746 Si / 1000 Ang^3
#
#
#
# Elastic Constant Matrix: (Units=GPa)
#
#
# Indices 1 2 3 4 5 6 
#
# 1 60.6185 8.3777 12.0735 0.0000 0.0000 0.0000
# 2 8.3777 173.0979 18.3824 0.0000 0.0000 0.0000
# 3 12.0735 18.3824 69.6631 0.0000 0.0000 0.0000
# 4 0.0000 0.0000 0.0000 25.0475 0.0000 0.0000
# 5 0.0000 0.0000 0.0000 0.0000 32.9685 0.0000
# 6 0.0000 0.0000 0.0000 0.0000 0.0000 61.7673
#
#
#
# Elastic Compliance Matrix: (Units=1/GPa)
#
#
# Indices 1 2 3 4 5 6 
#
# 1 0.017133 -0.000529 -0.002830 0.000000 0.000000 0.000000
# 2 -0.000529 0.005960 -0.001481 0.000000 0.000000 0.000000
# 3 -0.002830 -0.001481 0.015236 0.000000 0.000000 0.000000
# 4 0.000000 0.000000 0.000000 0.039924 0.000000 0.000000
# 5 0.000000 0.000000 0.000000 0.000000 0.030332 0.000000
# 6 0.000000 0.000000 0.000000 0.000000 0.000000 0.016190
#
#
# Mechanical properties :
#
#
# Convention : Reuss Voigt Hill
#
# Bulk Modulus (GPa) = 34.90401 42.33853 38.62127
# Shear Modulus (GPa) = 34.72112 41.59307 38.15709
#
# Velocity S-wave (km/s) = 3.83206 4.19417 4.01720
# Velocity P-wave (km/s) = 5.86018 6.43126 6.15235
#
# Compressibility (1/GPa) = 0.02865001
#
# Stress axis : x y z
#
# Youngs Moduli (GPa) = 58.36585 167.78664 65.63370
#
# Poissons Ratio (x) = 0.08871 0.18574
# Poissons Ratio (y) = 0.03086 0.09721
# Poissons Ratio (z) = 0.16517 0.24850
#
# Static dielectric constant tensor:
#      x y z
#    x 1.943240 0.000000 0.000000 
#    y 0.000000 1.993060 0.000000 
#    z 0.000000 0.000000 1.982510 
# 
# From -- ./inp_files/25410.got.cif
#   From: 2010.05.17/outbox.cif.g08.bks.cpg/sg60_13_cif.got.tgz:25410.got - 2010.06.03 14:59:27.
