data_PCOD9455901
_publ_section_title
;
Structure prediction by ZEFSAII (Michael W. Deem and Ramdas Pophale) SiO2 
 PCOD9455901
Probable space group: P B C N
;
_chemical_formula_sum "Si O2"
_cell_formula_units_Z 48
_cell_length_a 30.227692
_cell_length_b 5.228941
_cell_length_c 13.463782
_cell_angle_alpha 90.000000
_cell_angle_beta 90.000000
_cell_angle_gamma 90.000000
_cell_volume 2128.069469
_symmetry_space_group_name_H-M "P B C N"
_symmetry_group_IT_number 60
_symmetry_cell_setting 'orthorhombic'
loop_
_space_group_symop_operation_xyz
x,y,z
1/2-x,1/2-y,1/2+z
1/2+x,1/2-y,-z
-x,y,1/2-z
-x,-y,-z
1/2+x,1/2+y,1/2-z
1/2-x,1/2+y,z
x,-y,1/2+z
loop_
_atom_site_type_symbol
_atom_site_label
_atom_site_fract_x
_atom_site_fract_y
_atom_site_fract_z
Si Si1 0.955624 0.546305 0.689225
Si Si2 0.955811 0.953711 0.061011
Si Si3 0.361416 0.557949 0.445178
Si Si4 0.235126 0.579865 0.262913
Si Si5 0.727388 0.394553 0.955803
Si Si6 0.861236 0.441433 0.690644
O O1 0.955127 0.336820 0.600529
O O2 0.908439 0.493690 0.742217
O O3 0.000000 0.499816 0.750000
O O4 0.956062 0.836753 0.649736
O O5 0.909769 0.020299 0.005750
O O6 0.000000 0.000000 0.000000
O O7 0.320513 0.498525 0.516084
O O8 0.357761 0.834772 0.393010
O O9 0.361298 0.336950 0.360452
O O10 0.255967 0.342487 0.318867
O O11 0.264312 0.610328 0.163401
O O12 0.183255 0.546121 0.245322
O O13 0.763169 0.606423 0.988762
#
# Coordination Sequence:
#
# PCOD9455901 Si02
#       6
#     8   8   8   8   8   8
#     4  10  21  40  61  91 122 154 199 246 296 357
#     4  10  21  40  61  91 122 154 199 246 296 357
#     4  10  21  37  59  83 115 154 192 234 289 343
#     4  10  21  37  53  80 117 145 192 237 281 338
#     4  10  21  37  53  80 117 145 192 237 281 338
#     4  10  21  37  59  83 115 154 192 234 289 343
#
# _framework density 22.555654000000001
#
# number of rings (size 3 to 8) (size 9 to 14) (size 15 to 20)
#    0.000    2.000    0.000    3.000    0.000    4.000 
#   12.000    0.000    0.000    0.000    0.000    0.000 
#    0.000    0.000    0.000    0.000    0.000    0.000 
#
# Total GULP energy -267997.829044 kJ/mol
# GULP energy per Si atom -5583.288105 kJ/mol
# Density = 2.250432 g / cm^3
# Si number density = 22.555654 Si / 1000 Ang^3
#
#
#
# Elastic Constant Matrix: (Units=GPa)
#
#
# Indices 1 2 3 4 5 6 
#
# 1 193.0755 -2.3002 15.9806 0.0000 0.0000 0.0000
# 2 -2.3002 130.4814 -4.8510 0.0000 0.0000 0.0000
# 3 15.9806 -4.8510 27.3431 0.0000 0.0000 0.0000
# 4 0.0000 0.0000 0.0000 17.2322 0.0000 0.0000
# 5 0.0000 0.0000 0.0000 0.0000 41.0463 0.0000
# 6 0.0000 0.0000 0.0000 0.0000 0.0000 31.0449
#
#
#
# Elastic Compliance Matrix: (Units=1/GPa)
#
#
# Indices 1 2 3 4 5 6 
#
# 1 0.005443 -0.000022 -0.003185 0.000000 0.000000 0.000000
# 2 -0.000022 0.007715 0.001382 0.000000 0.000000 0.000000
# 3 -0.003185 0.001382 0.038679 0.000000 0.000000 0.000000
# 4 0.000000 0.000000 0.000000 0.058031 0.000000 0.000000
# 5 0.000000 0.000000 0.000000 0.000000 0.024363 0.000000
# 6 0.000000 0.000000 0.000000 0.000000 0.000000 0.032211
#
#
# Mechanical properties :
#
#
# Convention : Reuss Voigt Hill
#
# Bulk Modulus (GPa) = 20.75323 40.95099 30.85211
# Shear Modulus (GPa) = 26.85944 40.66937 33.76441
#
# Velocity S-wave (km/s) = 3.45455 4.25086 3.87323
# Velocity P-wave (km/s) = 5.01326 6.50293 5.80607
#
# Compressibility (1/GPa) = 0.04818526
#
# Stress axis : x y z
#
# Youngs Moduli (GPa) = 183.73339 129.61918 25.85394
#
# Poissons Ratio (x) = 0.00291 0.08234
# Poissons Ratio (y) = 0.00413 -0.03573
# Poissons Ratio (z) = 0.58518 -0.17911
#
# Static dielectric constant tensor:
#      x y z
#    x 1.781450 0.000000 0.000000 
#    y 0.000000 1.932060 0.000000 
#    z 0.000000 0.000000 1.866800 
# 
# From -- ./inp_files/18036.got.cif
#   From: 2010.05.17/outbox.cif.g08.bks.cpg/sg60_10_cif.got.tgz:18036.got - 2010.06.03 14:59:27.
