data_PCOD9455423
_publ_section_title
;
Structure prediction by ZEFSAII (Michael W. Deem and Ramdas Pophale) SiO2 
 PCOD9455423
Probable space group: P B C N
;
_chemical_formula_sum "Si O2"
_cell_formula_units_Z 40
_cell_length_a 8.499619
_cell_length_b 12.201229
_cell_length_c 18.183336
_cell_angle_alpha 90.000000
_cell_angle_beta 90.000000
_cell_angle_gamma 90.000000
_cell_volume 1885.717367
_symmetry_space_group_name_H-M "P B C N"
_symmetry_group_IT_number 60
_symmetry_cell_setting 'orthorhombic'
loop_
_space_group_symop_operation_xyz
x,y,z
1/2-x,1/2-y,1/2+z
1/2+x,1/2-y,-z
-x,y,1/2-z
-x,-y,-z
1/2+x,1/2+y,1/2-z
1/2-x,1/2+y,z
x,-y,1/2+z
loop_
_atom_site_type_symbol
_atom_site_label
_atom_site_fract_x
_atom_site_fract_y
_atom_site_fract_z
Si Si1 0.471890 0.261524 0.332375
Si Si2 0.353800 0.057869 0.101278
Si Si3 0.474113 0.149500 0.534956
Si Si4 0.010888 0.984006 0.087492
Si Si5 0.802440 0.168706 0.086603
O O1 0.500000 0.299312 0.250000
O O2 0.570366 0.150806 0.348150
O O3 0.514953 0.358419 0.388443
O O4 0.293099 0.230808 0.350638
O O5 0.435581 0.938355 0.098256
O O6 0.171286 0.039400 0.114508
O O7 0.390210 0.100803 0.018326
O O8 0.543953 0.262485 0.564064
O O9 0.319725 0.160582 0.482516
O O10 0.858013 0.050077 0.113965
O O11 0.000000 0.000000 0.000000
#
# Coordination Sequence:
#
# PCOD9455423 Si02
#       5
#     8   8   8   8   8
#     4  11  28  47  63  94 141 185 232 278 343 418
#     4  10  22  39  65  94 134 170 218 275 329 409
#     4  10  20  38  65 106 133 165 216 275 350 395
#     4  12  23  41  73 104 133 173 228 292 348 394
#     4  11  23  38  71  97 142 170 217 283 344 408
#
# _framework density 21.212085999999999
#
# number of rings (size 3 to 8) (size 9 to 14) (size 15 to 20)
#    0.000    1.200    2.000    4.800    8.400    1.600 
#    0.000    0.000    0.000    0.000    0.000    0.000 
#    0.000    0.000    0.000    0.000    0.000    0.000 
#
# Total GULP energy -223514.785245 kJ/mol
# GULP energy per Si atom -5587.869631 kJ/mol
# Density = 2.116381 g / cm^3
# Si number density = 21.212086 Si / 1000 Ang^3
#
#
#
# Elastic Constant Matrix: (Units=GPa)
#
#
# Indices 1 2 3 4 5 6 
#
# 1 92.6432 34.2604 4.6432 0.0000 0.0000 0.0000
# 2 34.2604 104.8270 20.5485 0.0000 0.0000 0.0000
# 3 4.6432 20.5485 61.8328 0.0000 0.0000 0.0000
# 4 0.0000 0.0000 0.0000 16.9394 0.0000 0.0000
# 5 0.0000 0.0000 0.0000 0.0000 9.8613 0.0000
# 6 0.0000 0.0000 0.0000 0.0000 0.0000 45.6815
#
#
#
# Elastic Compliance Matrix: (Units=1/GPa)
#
#
# Indices 1 2 3 4 5 6 
#
# 1 0.012289 -0.004103 0.000441 0.000000 0.000000 0.000000
# 2 -0.004103 0.011574 -0.003538 0.000000 0.000000 0.000000
# 3 0.000441 -0.003538 0.017315 0.000000 0.000000 0.000000
# 4 0.000000 0.000000 0.000000 0.059034 0.000000 0.000000
# 5 0.000000 0.000000 0.000000 0.000000 0.101407 0.000000
# 6 0.000000 0.000000 0.000000 0.000000 0.000000 0.021891
#
#
# Mechanical properties :
#
#
# Convention : Reuss Voigt Hill
#
# Bulk Modulus (GPa) = 37.34432 42.02301 39.68366
# Shear Modulus (GPa) = 20.25626 27.81982 24.03804
#
# Velocity S-wave (km/s) = 3.09356 3.62540 3.36999
# Velocity P-wave (km/s) = 5.51395 6.11381 5.82161
#
# Compressibility (1/GPa) = 0.02677783
#
# Stress axis : x y z
#
# Youngs Moduli (GPa) = 81.37165 86.40036 57.75207
#
# Poissons Ratio (x) = 0.35449 -0.02545
# Poissons Ratio (y) = 0.33386 0.20434
# Poissons Ratio (z) = -0.03586 0.30570
#
# Static dielectric constant tensor:
#      x y z
#    x 1.785400 0.000000 0.000000 
#    y 0.000000 1.837780 0.000000 
#    z 0.000000 0.000000 1.767830 
# 
# From -- ./inp_files/18987.got.cif
#   From: 2010.05.17/outbox.cif.g08.bks.cpg/sg60_10_cif.got.tgz:18987.got - 2010.06.03 14:59:27.
