data_PCOD9455151
_publ_section_title
;
Structure prediction by ZEFSAII (Michael W. Deem and Ramdas Pophale) SiO2 
 PCOD9455151
Probable space group: P B C N
;
_chemical_formula_sum "Si O2"
_cell_formula_units_Z 60
_cell_length_a 11.082766
_cell_length_b 8.455945
_cell_length_c 25.692637
_cell_angle_alpha 90.000000
_cell_angle_beta 90.000000
_cell_angle_gamma 90.000000
_cell_volume 2407.792150
_symmetry_space_group_name_H-M "P B C N"
_symmetry_group_IT_number 60
_symmetry_cell_setting 'orthorhombic'
loop_
_space_group_symop_operation_xyz
x,y,z
1/2-x,1/2-y,1/2+z
1/2+x,1/2-y,-z
-x,y,1/2-z
-x,-y,-z
1/2+x,1/2+y,1/2-z
1/2-x,1/2+y,z
x,-y,1/2+z
loop_
_atom_site_type_symbol
_atom_site_label
_atom_site_fract_x
_atom_site_fract_y
_atom_site_fract_z
Si Si1 0.845821 0.001801 0.637036
Si Si2 0.594450 0.574815 0.343615
Si Si3 0.500000 0.783476 0.250000
Si Si4 0.338363 0.283804 0.459044
Si Si5 0.917449 0.648844 0.421808
Si Si6 0.743423 0.739861 0.710937
Si Si7 0.706864 0.556214 0.971387
Si Si8 0.170614 0.721785 0.175787
O O1 0.798899 0.107389 0.589509
O O2 0.852900 0.119738 0.686807
O O3 0.979065 0.946890 0.620178
O O4 0.773219 0.859790 0.663729
O O5 0.541122 0.671690 0.296203
O O6 0.710285 0.677011 0.358017
O O7 0.643724 0.406574 0.325155
O O8 0.629544 0.846934 0.228137
O O9 0.450403 0.171963 0.445091
O O10 0.364276 0.405056 0.506559
O O11 0.235015 0.169757 0.479955
O O12 0.859669 0.824011 0.432672
O O13 0.831374 0.516329 0.447444
O O14 0.927276 0.630162 0.359026
O O15 0.693784 0.817459 0.764124
#
# Coordination Sequence:
#
# PCOD9455151 Si02
#       8
#     8   8   4   8   8   8   8   8
#     4  11  22  41  63  91 129 169 213 259 320 387
#     4  10  20  36  59  87 122 166 206 263 312 369
#     4   8  18  36  58  84 122 162 206 254 304 366
#     4  11  22  43  66  91 130 170 212 267 332 389
#     4  11  22  40  66  98 127 165 217 267 331 388
#     4  10  21  37  63  89 130 168 210 256 315 381
#     4  10  24  41  67  94 129 163 216 274 325 396
#     4  11  20  37  61  91 127 163 210 260 313 381
#
# _framework density 24.919094999999999
#
# number of rings (size 3 to 8) (size 9 to 14) (size 15 to 20)
#    0.000    1.600    1.333    4.800    0.000    0.000 
#    0.000    5.333   14.667    0.800    0.000    0.000 
#    0.000    0.000    0.000    0.000    0.000    0.000 
#
# Total GULP energy -334799.988412 kJ/mol
# GULP energy per Si atom -5579.999807 kJ/mol
# Density = 2.486238 g / cm^3
# Si number density = 24.919095 Si / 1000 Ang^3
#
#
#
# Elastic Constant Matrix: (Units=GPa)
#
#
# Indices 1 2 3 4 5 6 
#
# 1 41.9108 9.0379 11.3267 0.0000 0.0000 0.0000
# 2 9.0379 46.1458 3.8844 0.0000 0.0000 0.0000
# 3 11.3267 3.8844 94.4221 0.0000 0.0000 0.0000
# 4 0.0000 0.0000 0.0000 0.4709 0.0000 0.0000
# 5 0.0000 0.0000 0.0000 0.0000 32.9383 0.0000
# 6 0.0000 0.0000 0.0000 0.0000 0.0000 41.6784
#
#
#
# Elastic Compliance Matrix: (Units=1/GPa)
#
#
# Indices 1 2 3 4 5 6 
#
# 1 0.025671 -0.004785 -0.002883 0.000000 0.000000 0.000000
# 2 -0.004785 0.022638 -0.000357 0.000000 0.000000 0.000000
# 3 -0.002883 -0.000357 0.010951 0.000000 0.000000 0.000000
# 4 0.000000 0.000000 0.000000 2.123589 0.000000 0.000000
# 5 0.000000 0.000000 0.000000 0.000000 0.030360 0.000000
# 6 0.000000 0.000000 0.000000 0.000000 0.000000 0.023993
#
#
# Mechanical properties :
#
#
# Convention : Reuss Voigt Hill
#
# Bulk Modulus (GPa) = 23.14279 25.66407 24.40343
# Shear Modulus (GPa) = 2.20492 25.56618 13.88555
#
# Velocity S-wave (km/s) = 0.94168 3.20655 2.36312
# Velocity P-wave (km/s) = 3.23878 4.90210 4.15453
#
# Compressibility (1/GPa) = 0.04321001
#
# Stress axis : x y z
#
# Youngs Moduli (GPa) = 38.95426 44.17403 91.31390
#
# Poissons Ratio (x) = 0.21138 0.26322
# Poissons Ratio (y) = 0.18640 0.03262
# Poissons Ratio (z) = 0.11229 0.01578
#
# Static dielectric constant tensor:
#      x y z
#    x 2.047800 0.000000 0.000000 
#    y 0.000000 1.963280 0.000000 
#    z 0.000000 0.000000 2.127310 
# 
# From -- ./inp_files/26076.got.cif
#   From: 2010.05.17/outbox.cif.g08.bks.cpg/sg60_14_cif.got.tgz:26076.got - 2010.06.03 14:59:27.
