data_PCOD9455856
_publ_section_title
;
Structure prediction by ZEFSAII (Michael W. Deem and Ramdas Pophale) SiO2 
 PCOD9455856
Probable space group: P B C N
;
_chemical_formula_sum "Si O2"
_cell_formula_units_Z 32
_cell_length_a 6.365064
_cell_length_b 13.143727
_cell_length_c 13.929428
_cell_angle_alpha 90.000000
_cell_angle_beta 90.000000
_cell_angle_gamma 90.000000
_cell_volume 1165.345189
_symmetry_space_group_name_H-M "P B C N"
_symmetry_group_IT_number 60
_symmetry_cell_setting 'orthorhombic'
loop_
_space_group_symop_operation_xyz
x,y,z
1/2-x,1/2-y,1/2+z
1/2+x,1/2-y,-z
-x,y,1/2-z
-x,-y,-z
1/2+x,1/2+y,1/2-z
1/2-x,1/2+y,z
x,-y,1/2+z
loop_
_atom_site_type_symbol
_atom_site_label
_atom_site_fract_x
_atom_site_fract_y
_atom_site_fract_z
Si Si1 0.000000 0.416137 0.750000
Si Si2 0.000000 0.935082 0.250000
Si Si3 0.002163 0.326374 0.008495
Si Si4 0.743371 0.994251 0.916858
Si Si5 0.761209 0.756121 0.165914
O O1 0.049596 0.481809 0.657821
O O2 0.197938 0.341973 0.768585
O O3 0.941227 0.995345 0.346812
O O4 0.811305 0.857571 0.224636
O O5 0.949616 0.266318 0.105145
O O6 0.195868 0.403142 0.025690
O O7 0.799353 0.397417 0.984081
O O8 0.058500 0.260892 0.915727
#
# Coordination Sequence:
#
# PCOD9455856 Si02
#       5
#     4   4   8   8   8
#     4   9  20  38  54  81 114 144 186 243 288 344
#     4  11  22  36  56  85 114 150 194 239 290 350
#     4  10  21  38  59  83 114 154 192 240 294 348
#     4  10  21  37  58  83 115 151 192 238 293 348
#     4  10  21  36  56  81 113 146 190 238 290 348
#
# _framework density 27.459675000000001
#
# number of rings (size 3 to 8) (size 9 to 14) (size 15 to 20)
#    0.000    2.000    0.000    3.000    0.000    3.000 
#    0.000    0.000    0.000    0.000    0.000    0.000 
#    0.000    0.000    0.000    0.000    0.000    0.000 
#
# Total GULP energy -179132.317871 kJ/mol
# GULP energy per Si atom -5597.884933 kJ/mol
# Density = 2.739718 g / cm^3
# Si number density = 27.459675 Si / 1000 Ang^3
#
#
#
# Elastic Constant Matrix: (Units=GPa)
#
#
# Indices 1 2 3 4 5 6 
#
# 1 52.4506 34.2599 20.2239 0.0000 0.0000 0.0000
# 2 34.2599 65.7293 24.2672 0.0000 0.0000 0.0000
# 3 20.2239 24.2672 92.5208 0.0000 0.0000 0.0000
# 4 0.0000 0.0000 0.0000 31.6188 0.0000 0.0000
# 5 0.0000 0.0000 0.0000 0.0000 74.1696 0.0000
# 6 0.0000 0.0000 0.0000 0.0000 0.0000 25.4952
#
#
#
# Elastic Compliance Matrix: (Units=1/GPa)
#
#
# Indices 1 2 3 4 5 6 
#
# 1 0.029493 -0.014385 -0.002674 0.000000 0.000000 0.000000
# 2 -0.014385 0.023862 -0.003114 0.000000 0.000000 0.000000
# 3 -0.002674 -0.003114 0.012210 0.000000 0.000000 0.000000
# 4 0.000000 0.000000 0.000000 0.031627 0.000000 0.000000
# 5 0.000000 0.000000 0.000000 0.000000 0.013483 0.000000
# 6 0.000000 0.000000 0.000000 0.000000 0.000000 0.039223
#
#
# Mechanical properties :
#
#
# Convention : Reuss Voigt Hill
#
# Bulk Modulus (GPa) = 39.65464 40.91142 40.28303
# Shear Modulus (GPa) = 25.17005 35.05337 30.11171
#
# Velocity S-wave (km/s) = 3.03086 3.57675 3.31506
# Velocity P-wave (km/s) = 5.16919 5.65584 5.41798
#
# Compressibility (1/GPa) = 0.02521773
#
# Stress axis : x y z
#
# Youngs Moduli (GPa) = 33.90664 41.90814 81.90264
#
# Poissons Ratio (x) = 0.60286 0.21898
# Poissons Ratio (y) = 0.48776 0.25506
# Poissons Ratio (z) = 0.09065 0.13051
#
# Static dielectric constant tensor:
#      x y z
#    x 2.146010 0.000000 0.000000 
#    y 0.000000 2.089460 0.000000 
#    z 0.000000 0.000000 2.003090 
# 
# From -- ./inp_files/9548.got.cif
#   From: 2010.05.17/outbox.cif.g08.bks.cpg/sg60_5_cif.got.tgz:9548.got - 2010.06.03 14:59:27.
