data_PCOD9455795
_publ_section_title
;
Structure prediction by ZEFSAII (Michael W. Deem and Ramdas Pophale) SiO2 
 PCOD9455795
Probable space group: P B C N
;
_chemical_formula_sum "Si O2"
_cell_formula_units_Z 60
_cell_length_a 14.785190
_cell_length_b 24.611881
_cell_length_c 9.156922
_cell_angle_alpha 90.000000
_cell_angle_beta 90.000000
_cell_angle_gamma 90.000000
_cell_volume 3332.124588
_symmetry_space_group_name_H-M "P B C N"
_symmetry_group_IT_number 60
_symmetry_cell_setting 'orthorhombic'
loop_
_space_group_symop_operation_xyz
x,y,z
1/2-x,1/2-y,1/2+z
1/2+x,1/2-y,-z
-x,y,1/2-z
-x,-y,-z
1/2+x,1/2+y,1/2-z
1/2-x,1/2+y,z
x,-y,1/2+z
loop_
_atom_site_type_symbol
_atom_site_label
_atom_site_fract_x
_atom_site_fract_y
_atom_site_fract_z
Si Si1 0.591433 0.828307 0.669662
Si Si2 0.287696 0.632963 0.295798
Si Si3 0.000000 0.017833 0.750000
Si Si4 0.079238 0.068985 0.474229
Si Si5 0.321937 0.737565 0.480331
Si Si6 0.672821 0.290788 0.200383
Si Si7 0.585027 0.347496 0.964802
Si Si8 0.018014 0.274152 0.085458
O O1 0.500000 0.845027 0.750000
O O2 0.679547 0.862558 0.711390
O O3 0.614573 0.764838 0.701659
O O4 0.571348 0.821304 0.498101
O O5 0.325759 0.591053 0.415035
O O6 0.319066 0.691429 0.357623
O O7 0.339585 0.626834 0.141859
O O8 0.066371 0.051132 0.642088
O O9 0.946938 0.979891 0.635115
O O10 0.005230 0.117008 0.450837
O O11 0.294849 0.708787 0.632606
O O12 0.251306 0.781398 0.419456
O O13 0.420959 0.763121 0.489134
O O14 0.615680 0.340218 0.133592
O O15 0.565927 0.285000 0.918120
O O16 0.000000 0.289572 0.250000
#
# Coordination Sequence:
#
# PCOD9455795 Si02
#       8
#     8   8   4   8   8   8   8   8
#     4  10  21  34  49  73 107 145 190 228 259 302
#     4  11  21  35  55  76 106 147 186 222 271 336
#     4  10  24  38  60  86 116 136 170 228 292 352
#     4  11  21  40  59  85 115 141 174 221 287 348
#     4  11  20  33  49  71 108 147 194 229 260 303
#     4  10  22  31  48  75 105 148 194 228 259 308
#     4  11  20  34  53  76 106 144 184 217 269 328
#     4  11  20  32  47  69 105 150 185 224 259 296
#
# _framework density 18.006530999999999
#
# number of rings (size 3 to 8) (size 9 to 14) (size 15 to 20)
#    0.000    1.333    5.333    1.600    5.600    0.000 
#    0.000    0.000    0.000    0.000    0.000    0.933 
#    0.000    0.000    0.000    0.000    0.000    0.000 
#
# Total GULP energy -334501.006232 kJ/mol
# GULP energy per Si atom -5575.016771 kJ/mol
# Density = 1.796555 g / cm^3
# Si number density = 18.006531 Si / 1000 Ang^3
#
#
#
# Elastic Constant Matrix: (Units=GPa)
#
#
# Indices 1 2 3 4 5 6 
#
# 1 115.2661 20.0840 33.3728 0.0000 0.0000 0.0000
# 2 20.0840 28.4920 13.4523 0.0000 0.0000 0.0000
# 3 33.3728 13.4523 116.1344 0.0000 0.0000 0.0000
# 4 0.0000 0.0000 0.0000 20.1095 0.0000 0.0000
# 5 0.0000 0.0000 0.0000 0.0000 23.0914 0.0000
# 6 0.0000 0.0000 0.0000 0.0000 0.0000 8.8684
#
#
#
# Elastic Compliance Matrix: (Units=1/GPa)
#
#
# Indices 1 2 3 4 5 6 
#
# 1 0.010426 -0.006278 -0.002269 0.000000 0.000000 0.000000
# 2 -0.006278 0.040909 -0.002934 0.000000 0.000000 0.000000
# 3 -0.002269 -0.002934 0.009603 0.000000 0.000000 0.000000
# 4 0.000000 0.000000 0.000000 0.049728 0.000000 0.000000
# 5 0.000000 0.000000 0.000000 0.000000 0.043306 0.000000
# 6 0.000000 0.000000 0.000000 0.000000 0.000000 0.112760
#
#
# Mechanical properties :
#
#
# Convention : Reuss Voigt Hill
#
# Bulk Modulus (GPa) = 26.33363 43.74564 35.03964
# Shear Modulus (GPa) = 16.53698 23.27944 19.90821
#
# Velocity S-wave (km/s) = 3.03378 3.59950 3.32868
# Velocity P-wave (km/s) = 5.18922 6.45153 5.85450
#
# Compressibility (1/GPa) = 0.03797425
#
# Stress axis : x y z
#
# Youngs Moduli (GPa) = 95.91008 24.44478 104.13819
#
# Poissons Ratio (x) = 0.15347 0.23628
# Poissons Ratio (y) = 0.60215 0.30559
# Poissons Ratio (z) = 0.21761 0.07173
#
# Static dielectric constant tensor:
#      x y z
#    x 1.682960 0.000000 0.000000 
#    y 0.000000 1.609150 0.000000 
#    z 0.000000 0.000000 1.719380 
# 
# From -- ./inp_files/6372.got.cif
#   From: 2010.05.17/outbox.cif.g08.bks.cpg/sg60_4_cif.got.tgz:6372.got - 2010.06.03 14:59:27.
