data_PCOD9455088
_publ_section_title
;
Structure prediction by ZEFSAII (Michael W. Deem and Ramdas Pophale) SiO2 
 PCOD9455088
Probable space group: P B C N
;
_chemical_formula_sum "Si O2"
_cell_formula_units_Z 48
_cell_length_a 13.782183
_cell_length_b 15.486453
_cell_length_c 12.228464
_cell_angle_alpha 90.000000
_cell_angle_beta 90.000000
_cell_angle_gamma 90.000000
_cell_volume 2610.008252
_symmetry_space_group_name_H-M "P B C N"
_symmetry_group_IT_number 60
_symmetry_cell_setting 'orthorhombic'
loop_
_space_group_symop_operation_xyz
x,y,z
1/2-x,1/2-y,1/2+z
1/2+x,1/2-y,-z
-x,y,1/2-z
-x,-y,-z
1/2+x,1/2+y,1/2-z
1/2-x,1/2+y,z
x,-y,1/2+z
loop_
_atom_site_type_symbol
_atom_site_label
_atom_site_fract_x
_atom_site_fract_y
_atom_site_fract_z
Si Si1 0.918476 0.606022 0.471449
Si Si2 0.742083 0.029586 0.321526
Si Si3 0.082463 0.213238 0.413069
Si Si4 0.247640 0.643421 0.556788
Si Si5 0.895982 0.447873 0.613515
Si Si6 0.133851 0.196056 0.164153
O O1 0.822128 0.569194 0.418680
O O2 0.910571 0.699179 0.520091
O O3 0.935149 0.540697 0.572237
O O4 0.003187 0.603504 0.381012
O O5 0.674914 0.038137 0.214548
O O6 0.828935 0.098085 0.318724
O O7 0.764884 0.930224 0.350788
O O8 0.156568 0.152698 0.480862
O O9 0.117578 0.227543 0.288628
O O10 0.968494 0.190991 0.400119
O O11 0.163978 0.603743 0.479024
O O12 0.206505 0.734363 0.606059
#
# Coordination Sequence:
#
# PCOD9455088 Si02
#       6
#     8   8   8   8   8   8
#     4  10  20  35  62  90 119 155 196 259 306 356
#     4  11  22  37  61  87 123 162 200 246 306 365
#     4  11  22  39  62  88 122 158 209 247 308 371
#     4  11  22  39  61  87 120 160 202 249 307 368
#     4  10  20  37  58  90 121 152 198 253 311 357
#     4  11  23  39  62  88 120 163 203 255 305 367
#
# _framework density 18.390747000000001
#
# number of rings (size 3 to 8) (size 9 to 14) (size 15 to 20)
#    0.000    1.333    5.000    1.500    0.000    0.667 
#    0.000    0.000    0.000    0.000    0.000    0.000 
#    0.000    0.000    0.000    0.000    0.000    0.000 
#
# Total GULP energy -267230.878492 kJ/mol
# GULP energy per Si atom -5567.309969 kJ/mol
# Density = 1.834889 g / cm^3
# Si number density = 18.390747 Si / 1000 Ang^3
#
#
#
# Elastic Constant Matrix: (Units=GPa)
#
#
# Indices 1 2 3 4 5 6 
#
# 1 82.3569 34.5677 27.0091 0.0000 0.0000 0.0000
# 2 34.5677 68.2355 12.8289 0.0000 0.0000 0.0000
# 3 27.0091 12.8289 52.8671 0.0000 0.0000 0.0000
# 4 0.0000 0.0000 0.0000 33.2625 0.0000 0.0000
# 5 0.0000 0.0000 0.0000 0.0000 32.7274 0.0000
# 6 0.0000 0.0000 0.0000 0.0000 0.0000 22.6287
#
#
#
# Elastic Compliance Matrix: (Units=1/GPa)
#
#
# Indices 1 2 3 4 5 6 
#
# 1 0.017697 -0.007613 -0.007194 0.000000 0.000000 0.000000
# 2 -0.007613 0.018630 -0.000632 0.000000 0.000000 0.000000
# 3 -0.007194 -0.000632 0.022744 0.000000 0.000000 0.000000
# 4 0.000000 0.000000 0.000000 0.030064 0.000000 0.000000
# 5 0.000000 0.000000 0.000000 0.000000 0.030555 0.000000
# 6 0.000000 0.000000 0.000000 0.000000 0.000000 0.044192
#
#
# Mechanical properties :
#
#
# Convention : Reuss Voigt Hill
#
# Bulk Modulus (GPa) = 35.46746 39.14121 37.30434
# Shear Modulus (GPa) = 24.49107 26.32732 25.40919
#
# Velocity S-wave (km/s) = 3.65321 3.78769 3.72106
# Velocity P-wave (km/s) = 6.09278 6.36067 6.22817
#
# Compressibility (1/GPa) = 0.02819486
#
# Stress axis : x y z
#
# Youngs Moduli (GPa) = 56.50783 53.67583 43.96797
#
# Poissons Ratio (x) = 0.40861 0.31629
# Poissons Ratio (y) = 0.43017 0.02778
# Poissons Ratio (z) = 0.40650 0.03391
#
# Static dielectric constant tensor:
#      x y z
#    x 1.674260 0.000000 0.000000 
#    y 0.000000 1.660090 0.000000 
#    z 0.000000 0.000000 1.654930 
# 
# From -- ./inp_files/11871.got.cif
#   From: 2010.05.17/outbox.cif.g08.bks.cpg/sg60_6_cif.got.tgz:11871.got - 2010.06.03 14:59:27.
