data_PCOD9455492
_publ_section_title
;
Structure prediction by ZEFSAII (Michael W. Deem and Ramdas Pophale) SiO2 
 PCOD9455492
Probable space group: P B C N
;
_chemical_formula_sum "Si O2"
_cell_formula_units_Z 44
_cell_length_a 5.017165
_cell_length_b 27.434647
_cell_length_c 13.418421
_cell_angle_alpha 90.000000
_cell_angle_beta 90.000000
_cell_angle_gamma 90.000000
_cell_volume 1846.967162
_symmetry_space_group_name_H-M "P B C N"
_symmetry_group_IT_number 60
_symmetry_cell_setting 'orthorhombic'
loop_
_space_group_symop_operation_xyz
x,y,z
1/2-x,1/2-y,1/2+z
1/2+x,1/2-y,-z
-x,y,1/2-z
-x,-y,-z
1/2+x,1/2+y,1/2-z
1/2-x,1/2+y,z
x,-y,1/2+z
loop_
_atom_site_type_symbol
_atom_site_label
_atom_site_fract_x
_atom_site_fract_y
_atom_site_fract_z
Si Si1 0.687358 0.933156 0.155785
Si Si2 0.536122 0.084030 0.429764
Si Si3 0.291993 0.792230 0.097570
Si Si4 0.029588 0.027366 0.393627
Si Si5 0.214090 0.186300 0.031441
Si Si6 0.000000 0.852897 0.250000
O O1 0.500000 0.925876 0.250000
O O2 0.897352 0.889437 0.164562
O O3 0.830441 0.984741 0.166856
O O4 0.549485 0.929270 0.048203
O O5 0.235629 0.072440 0.398600
O O6 0.667990 0.137225 0.421000
O O7 0.736901 0.047521 0.372354
O O8 0.588686 0.803337 0.061526
O O9 0.085589 0.812505 0.012614
O O10 0.216579 0.818874 0.198565
O O11 0.256477 0.734012 0.100541
O O12 0.000000 0.000000 0.500000
#
# Coordination Sequence:
#
# PCOD9455492 Si02
#       6
#     8   8   8   8   8   4
#     4  11  24  35  60  90 125 157 194 258 314 354
#     4  11  21  40  62  86 118 162 207 243 296 363
#     4  10  22  37  59  93 122 153 197 252 302 365
#     4  10  23  38  58  87 121 158 207 243 291 365
#     4  10  20  39  62  87 120 160 204 240 297 366
#     4  12  24  36  62  92 128 150 194 258 322 350
#
# _framework density 23.822839999999999
#
# number of rings (size 3 to 8) (size 9 to 14) (size 15 to 20)
#    0.000    1.455    1.818    4.364   10.182    0.000 
#    0.000    0.000    2.000    0.000    4.727    0.000 
#    0.000    0.000    0.000    0.000    0.000    0.000 
#
# Total GULP energy -246197.953078 kJ/mol
# GULP energy per Si atom -5595.408024 kJ/mol
# Density = 2.376862 g / cm^3
# Si number density = 23.822840 Si / 1000 Ang^3
#
#
#
# Elastic Constant Matrix: (Units=GPa)
#
#
# Indices 1 2 3 4 5 6 
#
# 1 95.5605 4.2678 8.6818 0.0000 0.0000 0.0000
# 2 4.2678 131.7502 16.2853 0.0000 0.0000 0.0000
# 3 8.6818 16.2853 35.1870 0.0000 0.0000 0.0000
# 4 0.0000 0.0000 0.0000 31.9483 0.0000 0.0000
# 5 0.0000 0.0000 0.0000 0.0000 19.5534 0.0000
# 6 0.0000 0.0000 0.0000 0.0000 0.0000 30.9815
#
#
#
# Elastic Compliance Matrix: (Units=1/GPa)
#
#
# Indices 1 2 3 4 5 6 
#
# 1 0.010705 -0.000022 -0.002631 0.000000 0.000000 0.000000
# 2 -0.000022 0.008051 -0.003721 0.000000 0.000000 0.000000
# 3 -0.002631 -0.003721 0.030791 0.000000 0.000000 0.000000
# 4 0.000000 0.000000 0.000000 0.031301 0.000000 0.000000
# 5 0.000000 0.000000 0.000000 0.000000 0.051142 0.000000
# 6 0.000000 0.000000 0.000000 0.000000 0.000000 0.032277
#
#
# Mechanical properties :
#
#
# Convention : Reuss Voigt Hill
#
# Bulk Modulus (GPa) = 27.17451 35.66306 31.41878
# Shear Modulus (GPa) = 26.41596 32.04748 29.23172
#
# Velocity S-wave (km/s) = 3.33355 3.67173 3.50672
# Velocity P-wave (km/s) = 5.12332 5.74266 5.44181
#
# Compressibility (1/GPa) = 0.03679919
#
# Stress axis : x y z
#
# Youngs Moduli (GPa) = 93.41789 124.21233 32.47722
#
# Poissons Ratio (x) = 0.00267 0.08545
# Poissons Ratio (y) = 0.00201 0.12084
# Poissons Ratio (z) = 0.24580 0.46216
#
# Static dielectric constant tensor:
#      x y z
#    x 1.909770 0.000000 0.000000 
#    y 0.000000 1.918640 0.000000 
#    z 0.000000 0.000000 1.950120 
# 
# From -- ./inp_files/13905.got.cif
#   From: 2010.05.17/outbox.cif.g08.bks.cpg/sg60_7_cif.got.tgz:13905.got - 2010.06.03 14:59:27.
