data_PCOD9455945
_publ_section_title
;
Structure prediction by ZEFSAII (Michael W. Deem and Ramdas Pophale) SiO2 
 PCOD9455945
Probable space group: P B C N
;
_chemical_formula_sum "Si O2"
_cell_formula_units_Z 40
_cell_length_a 11.329218
_cell_length_b 17.933615
_cell_length_c 9.497088
_cell_angle_alpha 90.000000
_cell_angle_beta 90.000000
_cell_angle_gamma 90.000000
_cell_volume 1929.559779
_symmetry_space_group_name_H-M "P B C N"
_symmetry_group_IT_number 60
_symmetry_cell_setting 'orthorhombic'
loop_
_space_group_symop_operation_xyz
x,y,z
1/2-x,1/2-y,1/2+z
1/2+x,1/2-y,-z
-x,y,1/2-z
-x,-y,-z
1/2+x,1/2+y,1/2-z
1/2-x,1/2+y,z
x,-y,1/2+z
loop_
_atom_site_type_symbol
_atom_site_label
_atom_site_fract_x
_atom_site_fract_y
_atom_site_fract_z
Si Si1 0.752830 0.830304 0.518993
Si Si2 0.243480 0.059897 0.848825
Si Si3 0.355631 0.783481 0.259954
Si Si4 0.618751 0.474793 0.424344
Si Si5 0.064686 0.551247 0.382562
O O1 0.809898 0.784075 0.644626
O O2 0.705288 0.778455 0.393341
O O3 0.849561 0.891264 0.473507
O O4 0.640752 0.883208 0.549663
O O5 0.293945 0.142286 0.826523
O O6 0.138889 0.034422 0.742618
O O7 0.350511 0.007273 0.805133
O O8 0.210316 0.034310 0.006306
O O9 0.500000 0.788310 0.250000
O O10 0.500000 0.500000 0.500000
O O11 0.000000 0.587138 0.250000
O O12 0.000000 0.500000 0.500000
#
# Coordination Sequence:
#
# PCOD9455945 Si02
#       5
#     8   8   8   8   8
#     4  10  25  40  61  94 122 165 212 251 315 387
#     4  10  21  37  61  88 117 158 207 249 302 373
#     4  11  24  43  61  87 129 166 205 262 319 379
#     4  10  21  39  60  88 121 156 203 257 308 360
#     4  11  21  39  65  91 120 159 211 267 317 371
#
# _framework density 20.730115999999999
#
# number of rings (size 3 to 8) (size 9 to 14) (size 15 to 20)
#    0.000    1.600    0.000    6.000    0.000   11.200 
#    0.000    4.000    0.000    0.000    0.000    0.000 
#    0.000    0.000    0.000    0.000    0.000    0.000 
#
# Total GULP energy -222759.769914 kJ/mol
# GULP energy per Si atom -5568.994248 kJ/mol
# Density = 2.068293 g / cm^3
# Si number density = 20.730116 Si / 1000 Ang^3
#
#
#
# Elastic Constant Matrix: (Units=GPa)
#
#
# Indices 1 2 3 4 5 6 
#
# 1 100.4556 29.7693 46.3207 0.0000 0.0000 0.0000
# 2 29.7693 70.4386 52.9987 0.0000 0.0000 0.0000
# 3 46.3207 52.9987 117.0325 0.0000 0.0000 0.0000
# 4 0.0000 0.0000 0.0000 -4.9060 0.0000 0.0000
# 5 0.0000 0.0000 0.0000 0.0000 24.0085 0.0000
# 6 0.0000 0.0000 0.0000 0.0000 0.0000 -104.9141
#
#
#
# Elastic Compliance Matrix: (Units=1/GPa)
#
#
# Indices 1 2 3 4 5 6 
#
# 1 0.012429 -0.002353 -0.003854 0.000000 0.000000 0.000000
# 2 -0.002353 0.021980 -0.009022 0.000000 0.000000 0.000000
# 3 -0.003854 -0.009022 0.014156 0.000000 0.000000 0.000000
# 4 0.000000 0.000000 0.000000 -0.203834 0.000000 0.000000
# 5 0.000000 0.000000 0.000000 0.000000 0.041652 0.000000
# 6 0.000000 0.000000 0.000000 0.000000 0.000000 -0.009532
#
#
# Mechanical properties :
#
#
# Convention : Reuss Voigt Hill
#
# Bulk Modulus (GPa) = 55.23013 60.67826 57.95419
# Shear Modulus (GPa) = -57.69963 -6.57311 -32.13637
#
# Velocity S-wave (km/s) = -5.28149 -1.78261 -3.94156
# Velocity P-wave (km/s) = 3.23912 5.00971 2.70234
#
# Compressibility (1/GPa) = 0.01810606
#
# Stress axis : x y z
#
# Youngs Moduli (GPa) = 80.45731 45.49646 70.64347
#
# Poissons Ratio (x) = 0.10707 0.27223
# Poissons Ratio (y) = 0.18934 0.63736
# Poissons Ratio (z) = 0.31005 0.41048
#
# Static dielectric constant tensor:
#      x y z
#    x 1.763060 0.000000 0.000000 
#    y 0.000000 1.720940 0.000000 
#    z 0.000000 0.000000 1.781300 
# 
# From -- ./inp_files/4770.got.cif
#   From: 2010.05.17/outbox.cif.g08.bks.cpg/sg60_3_cif.got.tgz:4770.got - 2010.06.03 14:59:27.
