data_PCOD9455149
_publ_section_title
;
Structure prediction by ZEFSAII (Michael W. Deem and Ramdas Pophale) SiO2 
 PCOD9455149
Probable space group: P B C N
;
_chemical_formula_sum "Si O2"
_cell_formula_units_Z 56
_cell_length_a 14.865463
_cell_length_b 8.793981
_cell_length_c 20.962937
_cell_angle_alpha 90.000000
_cell_angle_beta 90.000000
_cell_angle_gamma 90.000000
_cell_volume 2740.413463
_symmetry_space_group_name_H-M "P B C N"
_symmetry_group_IT_number 60
_symmetry_cell_setting 'orthorhombic'
loop_
_space_group_symop_operation_xyz
x,y,z
1/2-x,1/2-y,1/2+z
1/2+x,1/2-y,-z
-x,y,1/2-z
-x,-y,-z
1/2+x,1/2+y,1/2-z
1/2-x,1/2+y,z
x,-y,1/2+z
loop_
_atom_site_type_symbol
_atom_site_label
_atom_site_fract_x
_atom_site_fract_y
_atom_site_fract_z
Si Si1 0.942504 0.836090 0.581600
Si Si2 0.874006 0.616607 0.473974
Si Si3 0.880166 0.714467 0.943620
Si Si4 0.757750 0.525601 0.269184
Si Si5 0.683518 0.775181 0.178270
Si Si6 0.697832 0.387408 0.056711
Si Si7 0.198423 0.214054 0.639453
O O1 0.923070 0.709544 0.528287
O O2 0.911430 0.758441 0.646774
O O3 0.049663 0.845026 0.577931
O O4 0.874819 0.978682 0.570264
O O5 0.912994 0.460371 0.446712
O O6 0.777507 0.569025 0.506369
O O7 0.864863 0.742050 0.418554
O O8 0.796561 0.712874 0.894621
O O9 0.851934 0.757718 0.015904
O O10 0.713478 0.620979 0.212579
O O11 0.816389 0.399853 0.233475
O O12 0.692074 0.436381 0.317866
O O13 0.809301 0.646469 0.311841
O O14 0.752505 0.825734 0.120877
#
# Coordination Sequence:
#
# PCOD9455149 Si02
#       7
#     8   8   8   8   8   8   8
#     4  11  22  36  57  89 119 145 180 245 306 340
#     4  10  20  36  59  86 114 153 194 234 282 355
#     4  11  22  36  57  89 119 145 180 245 306 340
#     4  10  20  36  60  86 104 154 200 246 262 330
#     4  10  20  37  62  84 111 149 205 232 277 346
#     4  10  20  36  59  86 114 153 194 234 282 355
#     4  10  20  37  62  84 111 149 205 232 277 346
#
# _framework density 20.434873
#
# number of rings (size 3 to 8) (size 9 to 14) (size 15 to 20)
#    0.000    1.714    2.857    3.429    4.000    0.000 
#    0.000    2.857    0.000    0.000    0.000    0.000 
#    0.000    0.000    0.000    0.000    0.000    0.000 
#
# Total GULP energy -311997.124206 kJ/mol
# GULP energy per Si atom -5571.377218 kJ/mol
# Density = 2.038836 g / cm^3
# Si number density = 20.434873 Si / 1000 Ang^3
#
#
#
# Elastic Constant Matrix: (Units=GPa)
#
#
# Indices 1 2 3 4 5 6 
#
# 1 15.1483 8.2687 5.1340 0.0000 0.0000 0.0000
# 2 8.2687 81.4293 17.9206 0.0000 0.0000 0.0000
# 3 5.1340 17.9206 81.3373 0.0000 0.0000 0.0000
# 4 0.0000 0.0000 0.0000 38.7435 0.0000 0.0000
# 5 0.0000 0.0000 0.0000 0.0000 -2.7560 0.0000
# 6 0.0000 0.0000 0.0000 0.0000 0.0000 13.6649
#
#
#
# Elastic Compliance Matrix: (Units=1/GPa)
#
#
# Indices 1 2 3 4 5 6 
#
# 1 0.070588 -0.006503 -0.003023 0.000000 0.000000 0.000000
# 2 -0.006503 0.013505 -0.002565 0.000000 0.000000 0.000000
# 3 -0.003023 -0.002565 0.013050 0.000000 0.000000 0.000000
# 4 0.000000 0.000000 0.000000 0.025811 0.000000 0.000000
# 5 0.000000 0.000000 0.000000 0.000000 -0.362839 0.000000
# 6 0.000000 0.000000 0.000000 0.000000 0.000000 0.073180
#
#
# Mechanical properties :
#
#
# Convention : Reuss Voigt Hill
#
# Bulk Modulus (GPa) = 13.70564 26.72905 20.21734
# Shear Modulus (GPa) = -42.30052 19.70323 -11.29864
#
# Velocity S-wave (km/s) = -4.55468 3.10852 -2.35395
# Velocity P-wave (km/s) = 4.57587 5.09827 1.58962
#
# Compressibility (1/GPa) = 0.07296266
#
# Stress axis : x y z
#
# Youngs Moduli (GPa) = 14.16675 74.04436 76.62576
#
# Poissons Ratio (x) = 0.48148 0.23162
# Poissons Ratio (y) = 0.09212 0.19656
# Poissons Ratio (z) = 0.04282 0.18993
#
# Static dielectric constant tensor:
#      x y z
#    x 1.832630 0.000000 0.000000 
#    y 0.000000 1.763980 0.000000 
#    z 0.000000 0.000000 1.734650 
# 
# From -- ./inp_files/22909.got.cif
#   From: 2010.05.17/outbox.cif.g08.bks.cpg/sg60_12_cif.got.tgz:22909.got - 2010.06.03 14:59:27.
