data_PCOD9455638
_publ_section_title
;
Structure prediction by ZEFSAII (Michael W. Deem and Ramdas Pophale) SiO2 
 PCOD9455638
Probable space group: P B C N
;
_chemical_formula_sum "Si O2"
_cell_formula_units_Z 48
_cell_length_a 27.425095
_cell_length_b 8.091831
_cell_length_c 8.617307
_cell_angle_alpha 90.000000
_cell_angle_beta 90.000000
_cell_angle_gamma 90.000000
_cell_volume 1912.346168
_symmetry_space_group_name_H-M "P B C N"
_symmetry_group_IT_number 60
_symmetry_cell_setting 'orthorhombic'
loop_
_space_group_symop_operation_xyz
x,y,z
1/2-x,1/2-y,1/2+z
1/2+x,1/2-y,-z
-x,y,1/2-z
-x,-y,-z
1/2+x,1/2+y,1/2-z
1/2-x,1/2+y,z
x,-y,1/2+z
loop_
_atom_site_type_symbol
_atom_site_label
_atom_site_fract_x
_atom_site_fract_y
_atom_site_fract_z
Si Si1 0.888381 0.941093 0.017063
Si Si2 0.223353 0.410298 0.810795
Si Si3 0.136917 0.224580 0.673592
Si Si4 0.953969 0.578945 0.366063
Si Si5 0.304492 0.235426 0.646689
Si Si6 0.483788 0.717636 0.078274
O O1 0.855313 0.810705 0.917677
O O2 0.945747 0.914168 0.984864
O O3 0.868702 0.123102 0.982516
O O4 0.880542 0.901306 0.195329
O O5 0.189895 0.286049 0.711920
O O6 0.275444 0.386359 0.728443
O O7 0.200481 0.590306 0.775802
O O8 0.219073 0.348041 0.989060
O O9 0.099160 0.375366 0.691166
O O10 0.954259 0.392426 0.425038
O O11 0.000000 0.584659 0.250000
O O12 0.968647 0.721644 0.486627
O O13 0.500000 0.673284 0.250000
#
# Coordination Sequence:
#
# PCOD9455638 Si02
#       6
#     8   8   8   8   8   8
#     4  11  25  42  60  91 127 164 209 254 311 369
#     4  11  24  44  68  97 128 165 208 257 315 373
#     4  11  25  41  62  90 126 165 207 257 308 370
#     4  10  20  41  63  86 124 160 206 258 309 367
#     4  11  24  44  69  96 129 164 208 259 312 377
#     4  10  22  39  63  91 119 163 210 256 313 371
#
# _framework density 25.100059999999999
#
# number of rings (size 3 to 8) (size 9 to 14) (size 15 to 20)
#    0.000    1.333    1.667    3.000    2.333    6.667 
#    0.000    0.000    0.000    0.000    0.000    0.000 
#    0.000    0.000    0.000    0.000    0.000    0.000 
#
# Total GULP energy -268511.272973 kJ/mol
# GULP energy per Si atom -5593.984854 kJ/mol
# Density = 2.504293 g / cm^3
# Si number density = 25.100060 Si / 1000 Ang^3
#
#
#
# Elastic Constant Matrix: (Units=GPa)
#
#
# Indices 1 2 3 4 5 6 
#
# 1 72.4532 -12.4741 4.8183 0.0000 0.0000 0.0000
# 2 -12.4741 88.4057 -3.3032 0.0000 0.0000 0.0000
# 3 4.8183 -3.3032 23.2492 0.0000 0.0000 0.0000
# 4 0.0000 0.0000 0.0000 16.7454 0.0000 0.0000
# 5 0.0000 0.0000 0.0000 0.0000 21.5335 0.0000
# 6 0.0000 0.0000 0.0000 0.0000 0.0000 31.6526
#
#
#
# Elastic Compliance Matrix: (Units=1/GPa)
#
#
# Indices 1 2 3 4 5 6 
#
# 1 0.014311 0.001919 -0.002693 0.000000 0.000000 0.000000
# 2 0.001919 0.011629 0.001255 0.000000 0.000000 0.000000
# 3 -0.002693 0.001255 0.043749 0.000000 0.000000 0.000000
# 4 0.000000 0.000000 0.000000 0.059718 0.000000 0.000000
# 5 0.000000 0.000000 0.000000 0.000000 0.046439 0.000000
# 6 0.000000 0.000000 0.000000 0.000000 0.000000 0.031593
#
#
# Mechanical properties :
#
#
# Convention : Reuss Voigt Hill
#
# Bulk Modulus (GPa) = 14.15447 18.02112 16.08780
# Shear Modulus (GPa) = 21.73637 26.99077 24.36357
#
# Velocity S-wave (km/s) = 2.94596 3.28278 3.11892
# Velocity P-wave (km/s) = 4.15007 4.64372 4.40381
#
# Compressibility (1/GPa) = 0.07064906
#
# Stress axis : x y z
#
# Youngs Moduli (GPa) = 69.87398 85.99124 22.85786
#
# Poissons Ratio (x) = -0.16499 0.06156
# Poissons Ratio (y) = -0.13407 -0.02868
# Poissons Ratio (z) = 0.18820 -0.10788
#
# Static dielectric constant tensor:
#      x y z
#    x 1.855150 0.000000 0.000000 
#    y 0.000000 1.986170 0.000000 
#    z 0.000000 0.000000 1.963960 
# 
# From -- ./inp_files/8388.got.cif
#   From: 2010.05.17/outbox.cif.g08.bks.cpg/sg60_5_cif.got.tgz:8388.got - 2010.06.03 14:59:27.
