data_PCOD9455942
_publ_section_title
;
Structure prediction by ZEFSAII (Michael W. Deem and Ramdas Pophale) SiO2 
 PCOD9455942
Probable space group: P B C N
;
_chemical_formula_sum "Si O2"
_cell_formula_units_Z 48
_cell_length_a 8.169775
_cell_length_b 20.063037
_cell_length_c 14.888689
_cell_angle_alpha 90.000000
_cell_angle_beta 90.000000
_cell_angle_gamma 90.000000
_cell_volume 2440.412430
_symmetry_space_group_name_H-M "P B C N"
_symmetry_group_IT_number 60
_symmetry_cell_setting 'orthorhombic'
loop_
_space_group_symop_operation_xyz
x,y,z
1/2-x,1/2-y,1/2+z
1/2+x,1/2-y,-z
-x,y,1/2-z
-x,-y,-z
1/2+x,1/2+y,1/2-z
1/2-x,1/2+y,z
x,-y,1/2+z
loop_
_atom_site_type_symbol
_atom_site_label
_atom_site_fract_x
_atom_site_fract_y
_atom_site_fract_z
Si Si1 0.593637 0.568691 0.517750
Si Si2 0.500000 0.990009 0.750000
Si Si3 0.283687 0.102525 0.804786
Si Si4 0.500000 0.696408 0.750000
Si Si5 0.977370 0.681336 0.934400
Si Si6 0.099403 0.205011 0.557931
Si Si7 0.441670 0.936787 0.559174
O O1 0.500000 0.500000 0.500000
O O2 0.686857 0.568763 0.612983
O O3 0.477920 0.633949 0.526666
O O4 0.745259 0.573532 0.448072
O O5 0.350262 0.042172 0.745897
O O6 0.499156 0.948129 0.659980
O O7 0.158745 0.149368 0.753717
O O8 0.426443 0.147143 0.851393
O O9 0.509892 0.728963 0.849201
O O10 0.790521 0.700490 0.918996
O O11 0.072944 0.743734 0.976564
O O12 0.977768 0.626074 0.012107
O O13 0.500000 0.000000 0.500000
#
# Coordination Sequence:
#
# PCOD9455942 Si02
#       7
#     8   4   8   4   8   8   8
#     4  10  21  37  60  91 122 163 208 256 314 376
#     4  12  22  37  64  94 123 174 208 270 312 373
#     4  10  22  36  61  91 124 162 216 255 314 374
#     4  10  22  37  58 100 119 162 218 262 302 397
#     4  11  22  43  63  91 126 174 209 260 325 384
#     4  11  23  39  68  87 128 170 207 264 322 379
#     4  11  22  39  60  91 127 162 211 260 315 373
#
# _framework density 19.668806
#
# number of rings (size 3 to 8) (size 9 to 14) (size 15 to 20)
#    0.000    1.333    3.333    5.000    4.667    0.667 
#    0.000    0.000    0.000    2.000    0.000    0.000 
#    0.000    0.000    0.000    0.000    0.000    0.000 
#
# Total GULP energy -267882.224370 kJ/mol
# GULP energy per Si atom -5580.879674 kJ/mol
# Density = 1.962404 g / cm^3
# Si number density = 19.668806 Si / 1000 Ang^3
#
#
#
# Elastic Constant Matrix: (Units=GPa)
#
#
# Indices 1 2 3 4 5 6 
#
# 1 77.4762 2.2973 6.1579 0.0000 0.0000 0.0000
# 2 2.2973 64.4635 17.4610 0.0000 0.0000 0.0000
# 3 6.1579 17.4610 80.6685 0.0000 0.0000 0.0000
# 4 0.0000 0.0000 0.0000 27.3297 0.0000 0.0000
# 5 0.0000 0.0000 0.0000 0.0000 19.8237 0.0000
# 6 0.0000 0.0000 0.0000 0.0000 0.0000 29.8246
#
#
#
# Elastic Compliance Matrix: (Units=1/GPa)
#
#
# Indices 1 2 3 4 5 6 
#
# 1 0.012989 -0.000206 -0.000947 0.000000 0.000000 0.000000
# 2 -0.000206 0.016482 -0.003552 0.000000 0.000000 0.000000
# 3 -0.000947 -0.003552 0.013238 0.000000 0.000000 0.000000
# 4 0.000000 0.000000 0.000000 0.036590 0.000000 0.000000
# 5 0.000000 0.000000 0.000000 0.000000 0.050445 0.000000
# 6 0.000000 0.000000 0.000000 0.000000 0.000000 0.033529
#
#
# Mechanical properties :
#
#
# Convention : Reuss Voigt Hill
#
# Bulk Modulus (GPa) = 30.03183 30.49338 30.26261
# Shear Modulus (GPa) = 27.20617 28.50841 27.85729
#
# Velocity S-wave (km/s) = 3.72319 3.81126 3.76748
# Velocity P-wave (km/s) = 5.81247 5.90802 5.86044
#
# Compressibility (1/GPa) = 0.03329800
#
# Stress axis : x y z
#
# Youngs Moduli (GPa) = 76.99080 60.67196 75.54296
#
# Poissons Ratio (x) = 0.01252 0.07152
# Poissons Ratio (y) = 0.01589 0.26832
# Poissons Ratio (z) = 0.07290 0.21550
#
# Static dielectric constant tensor:
#      x y z
#    x 1.724430 0.000000 0.000000 
#    y 0.000000 1.690210 0.000000 
#    z 0.000000 0.000000 1.736740 
# 
# From -- ./inp_files/15060.got.cif
#   From: 2010.05.17/outbox.cif.g08.bks.cpg/sg60_8_cif.got.tgz:15060.got - 2010.06.03 14:59:27.
