data_PCOD9455551
_publ_section_title
;
Structure prediction by ZEFSAII (Michael W. Deem and Ramdas Pophale) SiO2 
 PCOD9455551
Probable space group: P B C N
;
_chemical_formula_sum "Si O2"
_cell_formula_units_Z 44
_cell_length_a 10.676220
_cell_length_b 14.605729
_cell_length_c 13.061851
_cell_angle_alpha 90.000000
_cell_angle_beta 90.000000
_cell_angle_gamma 90.000000
_cell_volume 2036.786361
_symmetry_space_group_name_H-M "P B C N"
_symmetry_group_IT_number 60
_symmetry_cell_setting 'orthorhombic'
loop_
_space_group_symop_operation_xyz
x,y,z
1/2-x,1/2-y,1/2+z
1/2+x,1/2-y,-z
-x,y,1/2-z
-x,-y,-z
1/2+x,1/2+y,1/2-z
1/2-x,1/2+y,z
x,-y,1/2+z
loop_
_atom_site_type_symbol
_atom_site_label
_atom_site_fract_x
_atom_site_fract_y
_atom_site_fract_z
Si Si1 0.394441 0.096312 0.839803
Si Si2 0.875715 0.818228 0.822570
Si Si3 0.500000 0.645306 0.750000
Si Si4 0.804349 0.743248 0.150930
Si Si5 0.113275 0.637722 0.537603
Si Si6 0.279706 0.514798 0.680142
O O1 0.500000 0.118394 0.750000
O O2 0.297662 0.177034 0.869254
O O3 0.478369 0.090828 0.941725
O O4 0.312058 0.018593 0.781472
O O5 0.753087 0.792748 0.756529
O O6 0.892743 0.737973 0.905593
O O7 0.000000 0.823499 0.750000
O O8 0.839118 0.919977 0.857058
O O9 0.562180 0.709298 0.665442
O O10 0.392436 0.581289 0.708498
O O11 0.827642 0.663324 0.070669
O O12 0.204862 0.567695 0.593362
#
# Coordination Sequence:
#
# PCOD9455551 Si02
#       6
#     8   8   4   8   8   8
#     4   9  17  41  63  79 124 167 196 257 312 365
#     4  12  21  43  68  89 125 173 210 261 329 375
#     4  10  20  40  60  92 128 156 208 268 300 368
#     4  11  22  38  68  93 123 173 207 256 318 378
#     4  11  22  41  64  91 130 165 215 255 317 385
#     4  10  21  39  63  91 125 159 213 264 316 368
#
# _framework density 21.602658000000002
#
# number of rings (size 3 to 8) (size 9 to 14) (size 15 to 20)
#    0.000    1.455    8.182    0.000    2.545    0.000 
#   11.455    2.727    0.000    0.000    0.000    0.000 
#    0.000    0.000    0.000    0.000    0.000    0.000 
#
# Total GULP energy -245040.526574 kJ/mol
# GULP energy per Si atom -5569.102877 kJ/mol
# Density = 2.155349 g / cm^3
# Si number density = 21.602658 Si / 1000 Ang^3
#
#
#
# Elastic Constant Matrix: (Units=GPa)
#
#
# Indices 1 2 3 4 5 6 
#
# 1 102.8042 18.7509 13.2018 0.0000 0.0000 0.0000
# 2 18.7509 101.1074 16.9541 0.0000 0.0000 0.0000
# 3 13.2018 16.9541 36.2300 0.0000 0.0000 0.0000
# 4 0.0000 0.0000 0.0000 -104.2123 0.0000 0.0000
# 5 0.0000 0.0000 0.0000 0.0000 15.8359 0.0000
# 6 0.0000 0.0000 0.0000 0.0000 0.0000 10.6977
#
#
#
# Elastic Compliance Matrix: (Units=1/GPa)
#
#
# Indices 1 2 3 4 5 6 
#
# 1 0.010385 -0.001401 -0.003128 0.000000 0.000000 0.000000
# 2 -0.001401 0.010922 -0.004600 0.000000 0.000000 0.000000
# 3 -0.003128 -0.004600 0.030894 0.000000 0.000000 0.000000
# 4 0.000000 0.000000 0.000000 -0.009596 0.000000 0.000000
# 5 0.000000 0.000000 0.000000 0.000000 0.063148 0.000000
# 6 0.000000 0.000000 0.000000 0.000000 0.000000 0.093478
#
#
# Mechanical properties :
#
#
# Convention : Reuss Voigt Hill
#
# Bulk Modulus (GPa) = 29.46319 37.55058 33.50689
# Shear Modulus (GPa) = 21.85284 -2.78673 9.53305
#
# Velocity S-wave (km/s) = 3.18399 -1.13701 2.10297
# Velocity P-wave (km/s) = 5.21395 3.96187 4.63043
#
# Compressibility (1/GPa) = 0.03394066
#
# Stress axis : x y z
#
# Youngs Moduli (GPa) = 96.29698 91.56047 32.36865
#
# Poissons Ratio (x) = 0.12830 0.10126
# Poissons Ratio (y) = 0.13494 0.14891
# Poissons Ratio (z) = 0.30124 0.42121
#
# Static dielectric constant tensor:
#      x y z
#    x 1.743840 0.000000 0.000000 
#    y 0.000000 1.854140 0.000000 
#    z 0.000000 0.000000 1.872070 
# 
# From -- ./inp_files/15991.got.cif
#   From: 2010.05.17/outbox.cif.g08.bks.cpg/sg60_8_cif.got.tgz:15991.got - 2010.06.03 14:59:27.
