data_PCOD9455286
_publ_section_title
;
Structure prediction by ZEFSAII (Michael W. Deem and Ramdas Pophale) SiO2 
 PCOD9455286
Probable space group: P B C N
;
_chemical_formula_sum "Si O2"
_cell_formula_units_Z 56
_cell_length_a 24.462023
_cell_length_b 4.976067
_cell_length_c 20.289286
_cell_angle_alpha 90.000000
_cell_angle_beta 90.000000
_cell_angle_gamma 90.000000
_cell_volume 2469.706550
_symmetry_space_group_name_H-M "P B C N"
_symmetry_group_IT_number 60
_symmetry_cell_setting 'orthorhombic'
loop_
_space_group_symop_operation_xyz
x,y,z
1/2-x,1/2-y,1/2+z
1/2+x,1/2-y,-z
-x,y,1/2-z
-x,-y,-z
1/2+x,1/2+y,1/2-z
1/2-x,1/2+y,z
x,-y,1/2+z
loop_
_atom_site_type_symbol
_atom_site_label
_atom_site_fract_x
_atom_site_fract_y
_atom_site_fract_z
Si Si1 0.937252 0.766705 0.260656
Si Si2 0.110193 0.663567 0.950444
Si Si3 0.785930 0.813291 0.626581
Si Si4 0.900791 0.733107 0.836610
Si Si5 0.935228 0.168348 0.616081
Si Si6 0.212291 0.732980 0.722921
Si Si7 0.043154 0.927866 0.057861
O O1 0.931180 0.071397 0.284670
O O2 0.912933 0.752529 0.187267
O O3 0.000000 0.691106 0.250000
O O4 0.908853 0.569526 0.312177
O O5 0.094747 0.357542 0.936296
O O6 0.171640 0.729491 0.929568
O O7 0.076496 0.857430 0.899861
O O8 0.089261 0.751274 0.022246
O O9 0.766769 0.119834 0.621404
O O10 0.807979 0.765868 0.701087
O O11 0.836589 0.790517 0.827347
O O12 0.927725 0.826162 0.905029
O O13 0.000428 0.210907 0.608247
O O14 0.262296 0.939094 0.715279
O O15 0.000000 0.000000 0.000000
#
# Coordination Sequence:
#
# PCOD9455286 Si02
#       7
#     8   8   8   8   8   8   8
#     4  12  24  37  64  95 132 161 207 267 324 383
#     4  11  23  40  64  90 125 171 212 251 309 378
#     4  10  20  37  63  91 121 155 207 269 320 368
#     4  12  25  42  64  96 132 172 210 266 330 381
#     4  11  22  40  62  91 127 164 210 258 311 379
#     4  10  21  40  64  92 124 160 210 269 327 380
#     4  10  25  43  63  89 132 176 214 252 307 388
#
# _framework density 22.674759000000002
#
# number of rings (size 3 to 8) (size 9 to 14) (size 15 to 20)
#    0.000    1.143    1.429    5.143    4.000    4.571 
#    0.000    1.429    0.000    0.000    0.000    0.000 
#    0.000    0.000    0.000    0.000    0.000    0.000 
#
# Total GULP energy -313069.100344 kJ/mol
# GULP energy per Si atom -5590.519649 kJ/mol
# Density = 2.262315 g / cm^3
# Si number density = 22.674759 Si / 1000 Ang^3
#
#
#
# Elastic Constant Matrix: (Units=GPa)
#
#
# Indices 1 2 3 4 5 6 
#
# 1 79.9785 -5.1441 25.1905 0.0000 0.0000 0.0000
# 2 -5.1441 55.8450 9.3427 0.0000 0.0000 0.0000
# 3 25.1905 9.3427 88.3346 0.0000 0.0000 0.0000
# 4 0.0000 0.0000 0.0000 31.1905 0.0000 0.0000
# 5 0.0000 0.0000 0.0000 0.0000 31.8856 0.0000
# 6 0.0000 0.0000 0.0000 0.0000 0.0000 32.6314
#
#
#
# Elastic Compliance Matrix: (Units=1/GPa)
#
#
# Indices 1 2 3 4 5 6 
#
# 1 0.013950 0.001986 -0.004188 0.000000 0.000000 0.000000
# 2 0.001986 0.018512 -0.002524 0.000000 0.000000 0.000000
# 3 -0.004188 -0.002524 0.012782 0.000000 0.000000 0.000000
# 4 0.000000 0.000000 0.000000 0.032061 0.000000 0.000000
# 5 0.000000 0.000000 0.000000 0.000000 0.031362 0.000000
# 6 0.000000 0.000000 0.000000 0.000000 0.000000 0.030645
#
#
# Mechanical properties :
#
#
# Convention : Reuss Voigt Hill
#
# Bulk Modulus (GPa) = 27.94026 31.43736 29.68881
# Shear Modulus (GPa) = 31.11463 32.12611 31.62037
#
# Velocity S-wave (km/s) = 3.70836 3.76815 3.73838
# Velocity P-wave (km/s) = 5.53939 5.72945 5.63522
#
# Compressibility (1/GPa) = 0.03579065
#
# Stress axis : x y z
#
# Youngs Moduli (GPa) = 71.68344 54.01932 78.23556
#
# Poissons Ratio (x) = -0.10727 0.32767
# Poissons Ratio (y) = -0.14234 0.19748
# Poissons Ratio (z) = 0.30023 0.13635
#
# Static dielectric constant tensor:
#      x y z
#    x 1.840110 0.000000 0.000000 
#    y 0.000000 1.804010 0.000000 
#    z 0.000000 0.000000 1.919760 
# 
# From -- ./inp_files/23265.got.cif
#   From: 2010.05.17/outbox.cif.g08.bks.cpg/sg60_12_cif.got.tgz:23265.got - 2010.06.03 14:59:27.
