data_PCOD9455138
_publ_section_title
;
Structure prediction by ZEFSAII (Michael W. Deem and Ramdas Pophale) SiO2 
 PCOD9455138
Probable space group: P B C N
;
_chemical_formula_sum "Si O2"
_cell_formula_units_Z 64
_cell_length_a 26.227565
_cell_length_b 5.328108
_cell_length_c 23.943829
_cell_angle_alpha 90.000000
_cell_angle_beta 90.000000
_cell_angle_gamma 90.000000
_cell_volume 3345.989653
_symmetry_space_group_name_H-M "P B C N"
_symmetry_group_IT_number 60
_symmetry_cell_setting 'orthorhombic'
loop_
_space_group_symop_operation_xyz
x,y,z
1/2-x,1/2-y,1/2+z
1/2+x,1/2-y,-z
-x,y,1/2-z
-x,-y,-z
1/2+x,1/2+y,1/2-z
1/2-x,1/2+y,z
x,-y,1/2+z
loop_
_atom_site_type_symbol
_atom_site_label
_atom_site_fract_x
_atom_site_fract_y
_atom_site_fract_z
Si Si1 0.103180 0.531179 0.443249
Si Si2 0.561424 0.470235 0.498001
Si Si3 0.220420 0.612885 0.273907
Si Si4 0.464715 0.159126 0.709486
Si Si5 0.281475 0.900274 0.908280
Si Si6 0.609844 0.220886 0.263653
Si Si7 0.555134 0.536577 0.871421
Si Si8 0.453740 0.228127 0.337025
O O1 0.082142 0.268380 0.467326
O O2 0.164128 0.545094 0.436355
O O3 0.078714 0.578587 0.382327
O O4 0.084938 0.768662 0.480202
O O5 0.500000 0.500000 0.500000
O O6 0.574943 0.423839 0.432976
O O7 0.238339 0.330180 0.260866
O O8 0.211105 0.610191 0.340885
O O9 0.169494 0.699318 0.242676
O O10 0.500000 0.333524 0.750000
O O11 0.446149 0.252869 0.649651
O O12 0.414012 0.058714 0.738185
O O13 0.506701 0.950474 0.695232
O O14 0.256609 0.630511 0.922281
O O15 0.587236 0.334306 0.321024
O O16 0.584505 0.345522 0.208564
O O17 0.494614 0.599540 0.868694
#
# Coordination Sequence:
#
# PCOD9455138 Si02
#       8
#     8   8   8   8   8   8   8   8
#     4  12  24  42  65  95 127 170 206 270 323 373
#     4  12  26  40  63  93 134 176 218 254 310 379
#     4  10  22  39  61  94 123 153 199 263 332 383
#     4   9  19  34  55  86 120 166 204 244 298 370
#     4  10  21  42  67  94 123 155 209 273 328 376
#     4  10  21  37  60  89 121 167 200 261 314 383
#     4  11  22  37  58  86 130 172 210 249 292 383
#     4  10  20  36  58  90 127 159 206 249 321 375
#
# _framework density 19.127376000000002
#
# number of rings (size 3 to 8) (size 9 to 14) (size 15 to 20)
#    0.000    1.500    2.500    3.750    5.250    0.000 
#    0.000    0.000    0.000    4.500    0.000    0.000 
#    0.000    0.000    0.000    0.000    0.000    0.000 
#
# Total GULP energy -356551.975729 kJ/mol
# GULP energy per Si atom -5571.124621 kJ/mol
# Density = 1.908384 g / cm^3
# Si number density = 19.127376 Si / 1000 Ang^3
#
#
#
# Elastic Constant Matrix: (Units=GPa)
#
#
# Indices 1 2 3 4 5 6 
#
# 1 111.0617 23.7011 25.2584 0.0000 0.0000 0.0000
# 2 23.7011 72.2350 13.7877 0.0000 0.0000 0.0000
# 3 25.2584 13.7877 94.1576 0.0000 0.0000 0.0000
# 4 0.0000 0.0000 0.0000 23.4712 0.0000 0.0000
# 5 0.0000 0.0000 0.0000 0.0000 25.9046 0.0000
# 6 0.0000 0.0000 0.0000 0.0000 0.0000 22.9690
#
#
#
# Elastic Compliance Matrix: (Units=1/GPa)
#
#
# Indices 1 2 3 4 5 6 
#
# 1 0.010143 -0.002890 -0.002298 0.000000 0.000000 0.000000
# 2 -0.002890 0.015065 -0.001431 0.000000 0.000000 0.000000
# 3 -0.002298 -0.001431 0.011446 0.000000 0.000000 0.000000
# 4 0.000000 0.000000 0.000000 0.042605 0.000000 0.000000
# 5 0.000000 0.000000 0.000000 0.000000 0.038603 0.000000
# 6 0.000000 0.000000 0.000000 0.000000 0.000000 0.043537
#
#
# Mechanical properties :
#
#
# Convention : Reuss Voigt Hill
#
# Bulk Modulus (GPa) = 42.70204 44.77210 43.73707
# Shear Modulus (GPa) = 27.40588 28.78277 28.09433
#
# Velocity S-wave (km/s) = 3.78935 3.88338 3.83665
# Velocity P-wave (km/s) = 6.44354 6.60043 6.52245
#
# Compressibility (1/GPa) = 0.02341808
#
# Stress axis : x y z
#
# Youngs Moduli (GPa) = 98.58789 66.37947 87.36345
#
# Poissons Ratio (x) = 0.19180 0.20075
# Poissons Ratio (y) = 0.28487 0.12500
# Poissons Ratio (z) = 0.22654 0.09498
#
# Static dielectric constant tensor:
#      x y z
#    x 1.654920 0.000000 0.000000 
#    y 0.000000 1.777940 0.000000 
#    z 0.000000 0.000000 1.779280 
# 
# From -- ./inp_files/25509.got.cif
#   From: 2010.05.17/outbox.cif.g08.bks.cpg/sg60_13_cif.got.tgz:25509.got - 2010.06.03 14:59:27.
