data_PCOD9455817
_publ_section_title
;
Structure prediction by ZEFSAII (Michael W. Deem and Ramdas Pophale) SiO2 
 PCOD9455817
Probable space group: P B C N
;
_chemical_formula_sum "Si O2"
_cell_formula_units_Z 56
_cell_length_a 16.200409
_cell_length_b 34.098627
_cell_length_c 5.270381
_cell_angle_alpha 90.000000
_cell_angle_beta 90.000000
_cell_angle_gamma 90.000000
_cell_volume 2911.420148
_symmetry_space_group_name_H-M "P B C N"
_symmetry_group_IT_number 60
_symmetry_cell_setting 'orthorhombic'
loop_
_space_group_symop_operation_xyz
x,y,z
1/2-x,1/2-y,1/2+z
1/2+x,1/2-y,-z
-x,y,1/2-z
-x,-y,-z
1/2+x,1/2+y,1/2-z
1/2-x,1/2+y,z
x,-y,1/2+z
loop_
_atom_site_type_symbol
_atom_site_label
_atom_site_fract_x
_atom_site_fract_y
_atom_site_fract_z
Si Si1 0.794980 0.782892 0.961829
Si Si2 0.262666 0.136254 0.888186
Si Si3 0.614221 0.243236 0.320286
Si Si4 0.321070 0.394455 0.905766
Si Si5 0.917774 0.820545 0.584531
Si Si6 0.099208 0.976755 0.762747
Si Si7 0.551246 0.159825 0.491282
O O1 0.773350 0.819213 0.150899
O O2 0.864014 0.750111 0.026064
O O3 0.708630 0.762018 0.915088
O O4 0.836726 0.806512 0.736446
O O5 0.244298 0.111614 0.634327
O O6 0.358901 0.141130 0.959068
O O7 0.217488 0.118046 0.133982
O O8 0.573962 0.284178 0.395873
O O9 0.568438 0.205253 0.416035
O O10 0.394684 0.364629 0.991917
O O11 0.357527 0.437263 0.858263
O O12 0.000000 0.822140 0.750000
O O13 0.000000 0.971158 0.750000
O O14 0.120617 0.990891 0.478221
O O15 0.500000 0.157615 0.750000
O O16 0.500000 0.143346 0.250000
#
# Coordination Sequence:
#
# PCOD9455817 Si02
#       7
#     8   8   8   8   8   8   8
#     4  10  21  35  52  69 101 151 193 246 296 352
#     4  10  22  39  61  81 114 154 196 242 300 344
#     4  11  21  34  53  69 105 149 200 244 301 341
#     4  11  21  40  60  87 116 156 192 232 283 354
#     4  11  23  34  50  75 106 142 195 248 289 329
#     4  10  21  38  62  92 128 163 192 230 282 340
#     4  11  25  39  57  83 114 151 202 257 301 352
#
# _framework density 19.234597999999998
#
# number of rings (size 3 to 8) (size 9 to 14) (size 15 to 20)
#    0.000    1.429    2.857    2.571    4.000    0.000 
#    0.000    1.429    0.000    0.000    0.000    0.000 
#    0.000   40.000    0.000    0.000    0.000    0.000 
#
# Total GULP energy -312107.813682 kJ/mol
# GULP energy per Si atom -5573.353816 kJ/mol
# Density = 1.919082 g / cm^3
# Si number density = 19.234598 Si / 1000 Ang^3
#
#
#
# Elastic Constant Matrix: (Units=GPa)
#
#
# Indices 1 2 3 4 5 6 
#
# 1 87.2396 36.0792 29.7664 0.0000 0.0000 0.0000
# 2 36.0792 87.0082 27.7504 0.0000 0.0000 0.0000
# 3 29.7664 27.7504 94.5119 0.0000 0.0000 0.0000
# 4 0.0000 0.0000 0.0000 24.5599 0.0000 0.0000
# 5 0.0000 0.0000 0.0000 0.0000 37.3707 0.0000
# 6 0.0000 0.0000 0.0000 0.0000 0.0000 15.4849
#
#
#
# Elastic Compliance Matrix: (Units=1/GPa)
#
#
# Indices 1 2 3 4 5 6 
#
# 1 0.014623 -0.005069 -0.003117 0.000000 0.000000 0.000000
# 2 -0.005069 0.014438 -0.002643 0.000000 0.000000 0.000000
# 3 -0.003117 -0.002643 0.012338 0.000000 0.000000 0.000000
# 4 0.000000 0.000000 0.000000 0.040717 0.000000 0.000000
# 5 0.000000 0.000000 0.000000 0.000000 0.026759 0.000000
# 6 0.000000 0.000000 0.000000 0.000000 0.000000 0.064579
#
#
# Mechanical properties :
#
#
# Convention : Reuss Voigt Hill
#
# Bulk Modulus (GPa) = 50.65580 50.66130 50.65855
# Shear Modulus (GPa) = 24.79022 27.16068 25.97545
#
# Velocity S-wave (km/s) = 3.59393 3.76183 3.67884
# Velocity P-wave (km/s) = 6.60414 6.72788 6.66630
#
# Compressibility (1/GPa) = 0.01974108
#
# Stress axis : x y z
#
# Youngs Moduli (GPa) = 68.38673 69.26100 81.04843
#
# Poissons Ratio (x) = 0.35111 0.25262
# Poissons Ratio (y) = 0.34668 0.21419
# Poissons Ratio (z) = 0.21316 0.18304
#
# Static dielectric constant tensor:
#      x y z
#    x 1.640630 0.000000 0.000000 
#    y 0.000000 1.679530 0.000000 
#    z 0.000000 0.000000 1.832930 
# 
# From -- ./inp_files/1488.got.cif
#   From: 2010.05.17/outbox.cif.g08.bks.cpg/sg60_1_cif.got.tgz:1488.got - 2010.06.03 14:59:27.
