data_PCOD9455173
_publ_section_title
;
Structure prediction by ZEFSAII (Michael W. Deem and Ramdas Pophale) SiO2 
 PCOD9455173
Probable space group: P B C N
;
_chemical_formula_sum "Si O2"
_cell_formula_units_Z 64
_cell_length_a 8.775066
_cell_length_b 24.375938
_cell_length_c 14.794161
_cell_angle_alpha 90.000000
_cell_angle_beta 90.000000
_cell_angle_gamma 90.000000
_cell_volume 3164.477914
_symmetry_space_group_name_H-M "P B C N"
_symmetry_group_IT_number 60
_symmetry_cell_setting 'orthorhombic'
loop_
_space_group_symop_operation_xyz
x,y,z
1/2-x,1/2-y,1/2+z
1/2+x,1/2-y,-z
-x,y,1/2-z
-x,-y,-z
1/2+x,1/2+y,1/2-z
1/2-x,1/2+y,z
x,-y,1/2+z
loop_
_atom_site_type_symbol
_atom_site_label
_atom_site_fract_x
_atom_site_fract_y
_atom_site_fract_z
Si Si1 0.576609 0.461698 0.341411
Si Si2 0.714377 0.949813 0.770274
Si Si3 0.818901 0.171447 0.235363
Si Si4 0.277730 0.498822 0.914086
Si Si5 0.772383 0.190828 0.434306
Si Si6 0.731879 0.898594 0.474161
Si Si7 0.130798 0.210946 0.460088
Si Si8 0.102237 0.577497 0.045090
O O1 0.500000 0.439839 0.250000
O O2 0.641313 0.522830 0.322424
O O3 0.433871 0.467847 0.407558
O O4 0.713177 0.425540 0.380479
O O5 0.746210 0.889068 0.733388
O O6 0.705763 0.990996 0.685367
O O7 0.591196 0.942756 0.850397
O O8 0.755208 0.199850 0.326072
O O9 0.802957 0.203776 0.141673
O O10 0.000000 0.163967 0.250000
O O11 0.310697 0.438405 0.952107
O O12 0.167575 0.528925 0.983692
O O13 0.672506 0.231848 0.494021
O O14 0.718311 0.128681 0.452184
O O15 0.949849 0.200630 0.456254
O O16 0.791503 0.837486 0.482850
O O17 0.555365 0.903001 0.501016
#
# Coordination Sequence:
#
# PCOD9455173 Si02
#       8
#     8   8   8   8   8   8   8   8
#     4  10  22  37  59  90 127 164 215 251 308 381
#     4  10  20  36  61  93 126 158 212 257 312 378
#     4   9  18  36  63  92 118 156 204 258 308 368
#     4  11  21  37  62  89 126 168 199 254 315 372
#     4  10  23  42  66  93 124 163 211 261 318 372
#     4  12  23  38  61  91 127 167 208 258 316 378
#     4  11  22  42  68  92 121 163 212 263 314 375
#     4  11  24  40  59  92 134 163 206 263 314 387
#
# _framework density 20.224505000000001
#
# number of rings (size 3 to 8) (size 9 to 14) (size 15 to 20)
#    0.000    1.500    2.500    3.375    3.500    0.500 
#    2.250    5.625    0.000    0.000    0.000    0.000 
#    0.000    0.000    0.000    0.000    0.000    0.000 
#
# Total GULP energy -357295.876804 kJ/mol
# GULP energy per Si atom -5582.748075 kJ/mol
# Density = 2.017847 g / cm^3
# Si number density = 20.224505 Si / 1000 Ang^3
#
#
#
# Elastic Constant Matrix: (Units=GPa)
#
#
# Indices 1 2 3 4 5 6 
#
# 1 68.1951 10.8420 37.3010 0.0000 0.0000 0.0000
# 2 10.8420 67.7317 38.5269 0.0000 0.0000 0.0000
# 3 37.3010 38.5269 116.4924 0.0000 0.0000 0.0000
# 4 0.0000 0.0000 0.0000 35.8064 0.0000 0.0000
# 5 0.0000 0.0000 0.0000 0.0000 20.9354 0.0000
# 6 0.0000 0.0000 0.0000 0.0000 0.0000 30.2366
#
#
#
# Elastic Compliance Matrix: (Units=1/GPa)
#
#
# Indices 1 2 3 4 5 6 
#
# 1 0.017790 0.000483 -0.005856 0.000000 0.000000 0.000000
# 2 0.000483 0.018198 -0.006173 0.000000 0.000000 0.000000
# 3 -0.005856 -0.006173 0.012501 0.000000 0.000000 0.000000
# 4 0.000000 0.000000 0.000000 0.027928 0.000000 0.000000
# 5 0.000000 0.000000 0.000000 0.000000 0.047766 0.000000
# 6 0.000000 0.000000 0.000000 0.000000 0.000000 0.033072
#
#
# Mechanical properties :
#
#
# Convention : Reuss Voigt Hill
#
# Bulk Modulus (GPa) = 39.37468 47.30658 43.34063
# Shear Modulus (GPa) = 26.48103 28.44564 27.46333
#
# Velocity S-wave (km/s) = 3.62242 3.75439 3.68900
# Velocity P-wave (km/s) = 6.08334 6.49888 6.29454
#
# Compressibility (1/GPa) = 0.02539703
#
# Stress axis : x y z
#
# Youngs Moduli (GPa) = 56.21067 54.95027 79.99263
#
# Poissons Ratio (x) = -0.02657 0.46846
# Poissons Ratio (y) = -0.02717 0.49383
# Poissons Ratio (z) = 0.32919 0.33923
#
# Static dielectric constant tensor:
#      x y z
#    x 1.741290 0.000000 0.000000 
#    y 0.000000 1.663970 0.000000 
#    z 0.000000 0.000000 1.773360 
# 
# From -- ./inp_files/15397.got.cif
#   From: 2010.05.17/outbox.cif.g08.bks.cpg/sg60_8_cif.got.tgz:15397.got - 2010.06.03 14:59:27.
