data_PCOD9455075
_publ_section_title
;
Structure prediction by ZEFSAII (Michael W. Deem and Ramdas Pophale) SiO2 
 PCOD9455075
Probable space group: P B C N
;
_chemical_formula_sum "Si O2"
_cell_formula_units_Z 52
_cell_length_a 6.193369
_cell_length_b 20.696356
_cell_length_c 19.983960
_cell_angle_alpha 90.000000
_cell_angle_beta 90.000000
_cell_angle_gamma 90.000000
_cell_volume 2561.547383
_symmetry_space_group_name_H-M "P B C N"
_symmetry_group_IT_number 60
_symmetry_cell_setting 'orthorhombic'
loop_
_space_group_symop_operation_xyz
x,y,z
1/2-x,1/2-y,1/2+z
1/2+x,1/2-y,-z
-x,y,1/2-z
-x,-y,-z
1/2+x,1/2+y,1/2-z
1/2-x,1/2+y,z
x,-y,1/2+z
loop_
_atom_site_type_symbol
_atom_site_label
_atom_site_fract_x
_atom_site_fract_y
_atom_site_fract_z
Si Si1 0.237560 0.881436 0.092152
Si Si2 0.500000 0.419348 0.750000
Si Si3 0.790188 0.480901 0.863196
Si Si4 0.532204 0.598730 0.465622
Si Si5 0.667593 0.124721 0.144914
Si Si6 0.976686 0.238853 0.604503
Si Si7 0.378682 0.191434 0.977599
O O1 0.125970 0.819986 0.129189
O O2 0.426613 0.852965 0.046176
O O3 0.323411 0.942271 0.133826
O O4 0.058938 0.908409 0.040197
O O5 0.631892 0.462124 0.802756
O O6 0.678878 0.378845 0.709608
O O7 0.661253 0.458676 0.929826
O O8 0.004162 0.436319 0.857204
O O9 0.335071 0.619289 0.417301
O O10 0.716735 0.651751 0.475609
O O11 0.537102 0.192240 0.140710
O O12 0.049274 0.252220 0.527395
O O13 0.734249 0.214956 0.590399
#
# Coordination Sequence:
#
# PCOD9455075 Si02
#       7
#     8   4   8   8   8   8   8
#     4  11  23  34  60  97 134 171 196 248 321 388
#     4  10  26  44  70  84 110 162 228 280 314 358
#     4  11  23  42  63  90 122 162 215 266 318 367
#     4  10  20  35  59  94 127 162 202 248 306 387
#     4  11  22  41  66  91 121 167 217 266 312 369
#     4  11  20  35  59  91 134 165 199 243 304 383
#     4  11  19  34  55  93 136 172 193 237 312 381
#
# _framework density 20.300231
#
# number of rings (size 3 to 8) (size 9 to 14) (size 15 to 20)
#    0.000    1.231    4.615    1.846    0.000    7.385 
#    0.000    0.000    6.769    0.000    0.000    0.000 
#    0.000    0.000    0.000    0.000    0.000    0.000 
#
# Total GULP energy -289973.467379 kJ/mol
# GULP energy per Si atom -5576.412834 kJ/mol
# Density = 2.025403 g / cm^3
# Si number density = 20.300231 Si / 1000 Ang^3
#
#
#
# Elastic Constant Matrix: (Units=GPa)
#
#
# Indices 1 2 3 4 5 6 
#
# 1 98.7228 56.2628 13.7909 0.0000 0.0000 0.0000
# 2 56.2628 163.3345 30.7536 0.0000 0.0000 0.0000
# 3 13.7909 30.7536 18.9418 0.0000 0.0000 0.0000
# 4 0.0000 0.0000 0.0000 7.1936 0.0000 0.0000
# 5 0.0000 0.0000 0.0000 0.0000 27.8777 0.0000
# 6 0.0000 0.0000 0.0000 0.0000 0.0000 -10.9456
#
#
#
# Elastic Compliance Matrix: (Units=1/GPa)
#
#
# Indices 1 2 3 4 5 6 
#
# 1 0.012728 -0.003802 -0.003095 0.000000 0.000000 0.000000
# 2 -0.003802 0.009954 -0.013393 0.000000 0.000000 0.000000
# 3 -0.003095 -0.013393 0.076790 0.000000 0.000000 0.000000
# 4 0.000000 0.000000 0.000000 0.139012 0.000000 0.000000
# 5 0.000000 0.000000 0.000000 0.000000 0.035871 0.000000
# 6 0.000000 0.000000 0.000000 0.000000 0.000000 -0.091361
#
#
# Mechanical properties :
#
#
# Convention : Reuss Voigt Hill
#
# Bulk Modulus (GPa) = 16.97955 53.62374 35.30164
# Shear Modulus (GPa) = 20.55893 16.83793 18.69843
#
# Velocity S-wave (km/s) = 3.18582 2.88313 3.03825
# Velocity P-wave (km/s) = 4.68134 6.12829 5.45302
#
# Compressibility (1/GPa) = 0.05889439
#
# Stress axis : x y z
#
# Youngs Moduli (GPa) = 78.56502 100.46597 13.02248
#
# Poissons Ratio (x) = 0.38195 0.04030
# Poissons Ratio (y) = 0.29869 0.17440
# Poissons Ratio (z) = 0.24312 1.34550
#
# Static dielectric constant tensor:
#      x y z
#    x 1.758970 0.000000 0.000000 
#    y 0.000000 1.784420 0.000000 
#    z 0.000000 0.000000 1.724940 
# 
# From -- ./inp_files/21645.got.cif
#   From: 2010.05.17/outbox.cif.g08.bks.cpg/sg60_11_cif.got.tgz:21645.got - 2010.06.03 14:59:27.
