data_PCOD9455449
_publ_section_title
;
Structure prediction by ZEFSAII (Michael W. Deem and Ramdas Pophale) SiO2 
 PCOD9455449
Probable space group: P B C N
;
_chemical_formula_sum "Si O2"
_cell_formula_units_Z 44
_cell_length_a 7.251720
_cell_length_b 14.281180
_cell_length_c 17.425568
_cell_angle_alpha 90.000000
_cell_angle_beta 90.000000
_cell_angle_gamma 90.000000
_cell_volume 1804.646166
_symmetry_space_group_name_H-M "P B C N"
_symmetry_group_IT_number 60
_symmetry_cell_setting 'orthorhombic'
loop_
_space_group_symop_operation_xyz
x,y,z
1/2-x,1/2-y,1/2+z
1/2+x,1/2-y,-z
-x,y,1/2-z
-x,-y,-z
1/2+x,1/2+y,1/2-z
1/2-x,1/2+y,z
x,-y,1/2+z
loop_
_atom_site_type_symbol
_atom_site_label
_atom_site_fract_x
_atom_site_fract_y
_atom_site_fract_z
Si Si1 0.148762 0.128403 0.913952
Si Si2 0.500000 0.035985 0.250000
Si Si3 0.367858 0.314154 0.586660
Si Si4 0.559489 0.105649 0.942661
Si Si5 0.563922 0.829516 0.608712
Si Si6 0.837824 0.003255 0.843367
O O1 0.346725 0.081184 0.927377
O O2 0.167966 0.232342 0.878530
O O3 0.007883 0.071182 0.860837
O O4 0.076621 0.149239 0.001414
O O5 0.305144 0.972855 0.088469
O O6 0.309170 0.983951 0.226083
O O7 0.427351 0.207489 0.597831
O O8 0.147630 0.304675 0.590052
O O9 0.409301 0.396782 0.647191
O O10 0.623354 0.124871 0.029123
O O11 0.559851 0.897308 0.680318
#
# Coordination Sequence:
#
# PCOD9455449 Si02
#       6
#     8   4   8   8   8   8
#     4  10  20  38  67  99 128 171 228 288 337 406
#     4  10  24  42  64  90 136 190 214 276 340 422
#     4   9  19  37  65 101 131 170 223 297 345 393
#     4  10  21  40  70 102 126 175 231 299 342 396
#     4   9  19  40  66  93 137 174 225 280 354 410
#     4  11  22  43  66  95 140 176 232 277 345 407
#
# _framework density 24.381509999999999
#
# number of rings (size 3 to 8) (size 9 to 14) (size 15 to 20)
#    0.000    2.182    1.818    0.545    2.545    6.545 
#    9.818    0.000    4.000    0.000    0.000    0.000 
#    0.000    0.000    0.000    0.000    0.000    0.000 
#
# Total GULP energy -245781.439107 kJ/mol
# GULP energy per Si atom -5585.941798 kJ/mol
# Density = 2.432602 g / cm^3
# Si number density = 24.381510 Si / 1000 Ang^3
#
#
#
# Elastic Constant Matrix: (Units=GPa)
#
#
# Indices 1 2 3 4 5 6 
#
# 1 70.4063 33.1742 26.1967 0.0000 0.0000 0.0000
# 2 33.1742 114.8349 21.1872 0.0000 0.0000 0.0000
# 3 26.1967 21.1872 66.1174 0.0000 0.0000 0.0000
# 4 0.0000 0.0000 0.0000 10.6000 0.0000 0.0000
# 5 0.0000 0.0000 0.0000 0.0000 34.0369 0.0000
# 6 0.0000 0.0000 0.0000 0.0000 0.0000 38.0163
#
#
#
# Elastic Compliance Matrix: (Units=1/GPa)
#
#
# Indices 1 2 3 4 5 6 
#
# 1 0.018401 -0.004220 -0.005939 0.000000 0.000000 0.000000
# 2 -0.004220 0.010223 -0.001604 0.000000 0.000000 0.000000
# 3 -0.005939 -0.001604 0.017992 0.000000 0.000000 0.000000
# 4 0.000000 0.000000 0.000000 0.094340 0.000000 0.000000
# 5 0.000000 0.000000 0.000000 0.000000 0.029380 0.000000
# 6 0.000000 0.000000 0.000000 0.000000 0.000000 0.026304
#
#
# Mechanical properties :
#
#
# Convention : Reuss Voigt Hill
#
# Bulk Modulus (GPa) = 43.30728 45.83052 44.56890
# Shear Modulus (GPa) = 21.94303 27.91734 24.93019
#
# Velocity S-wave (km/s) = 3.00323 3.38749 3.20113
# Velocity P-wave (km/s) = 5.46139 5.84279 5.65530
#
# Compressibility (1/GPa) = 0.02309081
#
# Stress axis : x y z
#
# Youngs Moduli (GPa) = 54.34375 97.81634 55.58178
#
# Poissons Ratio (x) = 0.41281 0.33007
# Poissons Ratio (y) = 0.22934 0.08915
# Poissons Ratio (z) = 0.32272 0.15689
#
# Static dielectric constant tensor:
#      x y z
#    x 1.972150 0.000000 0.000000 
#    y 0.000000 1.945940 0.000000 
#    z 0.000000 0.000000 1.999380 
# 
# From -- ./inp_files/19236.got.cif
#   From: 2010.05.17/outbox.cif.g08.bks.cpg/sg60_10_cif.got.tgz:19236.got - 2010.06.03 14:59:27.
