data_PCOD9455421
_publ_section_title
;
Structure prediction by ZEFSAII (Michael W. Deem and Ramdas Pophale) SiO2 
 PCOD9455421
Probable space group: P B C N
;
_chemical_formula_sum "Si O2"
_cell_formula_units_Z 32
_cell_length_a 5.033386
_cell_length_b 13.519221
_cell_length_c 17.893695
_cell_angle_alpha 90.000000
_cell_angle_beta 90.000000
_cell_angle_gamma 90.000000
_cell_volume 1217.620454
_symmetry_space_group_name_H-M "P B C N"
_symmetry_group_IT_number 60
_symmetry_cell_setting 'orthorhombic'
loop_
_space_group_symop_operation_xyz
x,y,z
1/2-x,1/2-y,1/2+z
1/2+x,1/2-y,-z
-x,y,1/2-z
-x,-y,-z
1/2+x,1/2+y,1/2-z
1/2-x,1/2+y,z
x,-y,1/2+z
loop_
_atom_site_type_symbol
_atom_site_label
_atom_site_fract_x
_atom_site_fract_y
_atom_site_fract_z
Si Si1 0.806492 0.188991 0.316280
Si Si2 0.257818 0.920748 0.205588
Si Si3 0.976822 0.597544 0.950554
Si Si4 0.785950 0.281129 0.587933
O O1 0.778111 0.302490 0.290917
O O2 0.510109 0.178844 0.353176
O O3 0.000000 0.147238 0.250000
O O4 0.003724 0.177119 0.385794
O O5 0.500000 0.969169 0.250000
O O6 0.000000 0.947439 0.250000
O O7 0.297128 0.938165 0.118544
O O8 0.851525 0.678057 0.006414
O O9 0.000000 0.500000 0.000000
O O10 0.227172 0.661262 0.915636
#
# Coordination Sequence:
#
# PCOD9455421 Si02
#       4
#     8   8   8   8
#     4  10  20  39  69 100 140 190 237 296 363 425
#     4  10  20  38  64  96 134 182 233 283 352 433
#     4  11  25  47  75 109 151 195 244 313 379 436
#     4  11  23  42  68 105 142 185 246 296 358 446
#
# _framework density 26.280767999999998
#
# number of rings (size 3 to 8) (size 9 to 14) (size 15 to 20)
#    0.000    1.500    0.000    8.250    0.000    2.000 
#    0.000   35.000    0.000    9.000    0.000    7.000 
#    0.000    0.000    0.000    0.000    0.000    0.000 
#
# Total GULP energy -178409.176713 kJ/mol
# GULP energy per Si atom -5575.286772 kJ/mol
# Density = 2.622095 g / cm^3
# Si number density = 26.280768 Si / 1000 Ang^3
#
#
#
# Elastic Constant Matrix: (Units=GPa)
#
#
# Indices 1 2 3 4 5 6 
#
# 1 197.0196 26.8474 73.2779 0.0000 0.0000 0.0000
# 2 26.8474 109.3302 42.7506 0.0000 0.0000 0.0000
# 3 73.2779 42.7506 184.9486 0.0000 0.0000 0.0000
# 4 0.0000 0.0000 0.0000 -131.3640 0.0000 0.0000
# 5 0.0000 0.0000 0.0000 0.0000 57.5860 0.0000
# 6 0.0000 0.0000 0.0000 0.0000 0.0000 -9.6586
#
#
#
# Elastic Compliance Matrix: (Units=1/GPa)
#
#
# Indices 1 2 3 4 5 6 
#
# 1 0.005988 -0.000597 -0.002235 0.000000 0.000000 0.000000
# 2 -0.000597 0.010115 -0.002102 0.000000 0.000000 0.000000
# 3 -0.002235 -0.002102 0.006778 0.000000 0.000000 0.000000
# 4 0.000000 0.000000 0.000000 -0.007612 0.000000 0.000000
# 5 0.000000 0.000000 0.000000 0.000000 0.017365 0.000000
# 6 0.000000 0.000000 0.000000 0.000000 0.000000 -0.103534
#
#
# Mechanical properties :
#
#
# Convention : Reuss Voigt Hill
#
# Bulk Modulus (GPa) = 76.83306 86.33889 81.58598
# Shear Modulus (GPa) = -88.18931 6.54083 -40.82424
#
# Velocity S-wave (km/s) = -5.79909 1.57931 -3.94558
# Velocity P-wave (km/s) = 3.94212 6.02075 3.21785
#
# Compressibility (1/GPa) = 0.01301523
#
# Stress axis : x y z
#
# Youngs Moduli (GPa) = 166.99903 98.86395 147.53489
#
# Poissons Ratio (x) = 0.05899 0.32968
# Poissons Ratio (y) = 0.09964 0.31007
# Poissons Ratio (z) = 0.37317 0.20778
#
# Static dielectric constant tensor:
#      x y z
#    x 2.111120 0.000000 0.000000 
#    y 0.000000 2.145650 0.000000 
#    z 0.000000 0.000000 2.071820 
# 
# From -- ./inp_files/18448.got.cif
#   From: 2010.05.17/outbox.cif.g08.bks.cpg/sg60_10_cif.got.tgz:18448.got - 2010.06.03 14:59:27.
