data_PCOD9455946
_publ_section_title
;
Structure prediction by ZEFSAII (Michael W. Deem and Ramdas Pophale) SiO2 
 PCOD9455946
Probable space group: P B C N
;
_chemical_formula_sum "Si O2"
_cell_formula_units_Z 40
_cell_length_a 5.331318
_cell_length_b 14.299845
_cell_length_c 21.947057
_cell_angle_alpha 90.000000
_cell_angle_beta 90.000000
_cell_angle_gamma 90.000000
_cell_volume 1673.178246
_symmetry_space_group_name_H-M "P B C N"
_symmetry_group_IT_number 60
_symmetry_cell_setting 'orthorhombic'
loop_
_space_group_symop_operation_xyz
x,y,z
1/2-x,1/2-y,1/2+z
1/2+x,1/2-y,-z
-x,y,1/2-z
-x,-y,-z
1/2+x,1/2+y,1/2-z
1/2-x,1/2+y,z
x,-y,1/2+z
loop_
_atom_site_type_symbol
_atom_site_label
_atom_site_fract_x
_atom_site_fract_y
_atom_site_fract_z
Si Si1 0.653865 0.170008 0.453726
Si Si2 0.908317 0.513731 0.113245
Si Si3 0.527646 0.660885 0.149371
Si Si4 0.712487 0.317663 0.091998
Si Si5 0.244358 0.986358 0.714018
O O1 0.483948 0.078092 0.443744
O O2 0.908044 0.146363 0.417921
O O3 0.670235 0.193185 0.524222
O O4 0.541051 0.258396 0.416592
O O5 0.758484 0.589146 0.154297
O O6 0.726498 0.427358 0.102510
O O7 0.162265 0.479215 0.147073
O O8 0.632976 0.764929 0.145169
O O9 0.327661 0.622194 0.197705
O O10 0.500000 0.001950 0.750000
O O11 0.000000 0.025171 0.750000
#
# Coordination Sequence:
#
# PCOD9455946 Si02
#       5
#     8   8   8   8   8
#     4  10  21  37  61  93 140 182 215 273 338 399
#     4  10  23  39  67  97 129 181 228 281 339 411
#     4  10  22  41  63  96 130 179 227 275 342 403
#     4  11  21  40  61  99 138 177 227 275 331 419
#     4  11  22  45  73  93 132 179 226 291 351 396
#
# _framework density 23.906597999999999
#
# number of rings (size 3 to 8) (size 9 to 14) (size 15 to 20)
#    0.000    1.600    4.000    0.600    0.000    4.000 
#    0.000    2.000    0.000    0.000    0.000    0.000 
#    0.000    0.000    0.000    0.000    0.000    0.000 
#
# Total GULP energy -222804.348108 kJ/mol
# GULP energy per Si atom -5570.108703 kJ/mol
# Density = 2.385219 g / cm^3
# Si number density = 23.906598 Si / 1000 Ang^3
#
#
#
# Elastic Constant Matrix: (Units=GPa)
#
#
# Indices 1 2 3 4 5 6 
#
# 1 112.2316 21.8707 18.4468 0.0000 0.0000 0.0000
# 2 21.8707 85.4123 -2.8962 0.0000 0.0000 0.0000
# 3 18.4468 -2.8962 31.1853 0.0000 0.0000 0.0000
# 4 0.0000 0.0000 0.0000 2.2369 0.0000 0.0000
# 5 0.0000 0.0000 0.0000 0.0000 40.5188 0.0000
# 6 0.0000 0.0000 0.0000 0.0000 0.0000 14.6791
#
#
#
# Elastic Compliance Matrix: (Units=1/GPa)
#
#
# Indices 1 2 3 4 5 6 
#
# 1 0.010550 -0.002922 -0.006512 0.000000 0.000000 0.000000
# 2 -0.002922 0.012554 0.002894 0.000000 0.000000 0.000000
# 3 -0.006512 0.002894 0.036187 0.000000 0.000000 0.000000
# 4 0.000000 0.000000 0.000000 0.447053 0.000000 0.000000
# 5 0.000000 0.000000 0.000000 0.000000 0.024680 0.000000
# 6 0.000000 0.000000 0.000000 0.000000 0.000000 0.068124
#
#
# Mechanical properties :
#
#
# Convention : Reuss Voigt Hill
#
# Bulk Modulus (GPa) = 21.63936 33.74131 27.69033
# Shear Modulus (GPa) = 7.96645 24.24748 16.10697
#
# Velocity S-wave (km/s) = 1.82745 3.18820 2.59848
# Velocity P-wave (km/s) = 3.67750 5.26282 4.53989
#
# Compressibility (1/GPa) = 0.04621210
#
# Stress axis : x y z
#
# Youngs Moduli (GPa) = 94.78739 79.65379 27.63414
#
# Poissons Ratio (x) = 0.23277 0.17995
# Poissons Ratio (y) = 0.27699 -0.07999
# Poissons Ratio (z) = 0.61725 -0.23056
#
# Static dielectric constant tensor:
#      x y z
#    x 2.033880 0.000000 0.000000 
#    y 0.000000 1.873100 0.000000 
#    z 0.000000 0.000000 2.098000 
# 
# From -- ./inp_files/23520.got.cif
#   From: 2010.05.17/outbox.cif.g08.bks.cpg/sg60_12_cif.got.tgz:23520.got - 2010.06.03 14:59:27.
