data_PCOD9455742
_publ_section_title
;
Structure prediction by ZEFSAII (Michael W. Deem and Ramdas Pophale) SiO2 
 PCOD9455742
Probable space group: P B C N
;
_chemical_formula_sum "Si O2"
_cell_formula_units_Z 60
_cell_length_a 16.399369
_cell_length_b 14.080954
_cell_length_c 12.033669
_cell_angle_alpha 90.000000
_cell_angle_beta 90.000000
_cell_angle_gamma 90.000000
_cell_volume 2778.799930
_symmetry_space_group_name_H-M "P B C N"
_symmetry_group_IT_number 60
_symmetry_cell_setting 'orthorhombic'
loop_
_space_group_symop_operation_xyz
x,y,z
1/2-x,1/2-y,1/2+z
1/2+x,1/2-y,-z
-x,y,1/2-z
-x,-y,-z
1/2+x,1/2+y,1/2-z
1/2-x,1/2+y,z
x,-y,1/2+z
loop_
_atom_site_type_symbol
_atom_site_label
_atom_site_fract_x
_atom_site_fract_y
_atom_site_fract_z
Si Si1 0.551240 0.749638 0.864380
Si Si2 0.231205 0.795792 0.212070
Si Si3 0.283255 0.893333 0.818731
Si Si4 0.447025 0.652323 0.044268
Si Si5 0.842484 0.053805 0.633124
Si Si6 0.928641 0.462110 0.838377
Si Si7 0.500000 0.474348 0.750000
Si Si8 0.632029 0.145704 0.953052
O O1 0.500000 0.743622 0.750000
O O2 0.644435 0.725920 0.842818
O O3 0.548407 0.861581 0.896084
O O4 0.515146 0.676663 0.952357
O O5 0.260801 0.694197 0.257412
O O6 0.212249 0.863215 0.315295
O O7 0.289230 0.846480 0.125528
O O8 0.345300 0.942597 0.731649
O O9 0.215622 0.962824 0.868524
O O10 0.339861 0.854956 0.918862
O O11 0.479542 0.592452 0.146035
O O12 0.415510 0.757333 0.072989
O O13 0.377828 0.590332 0.982983
O O14 0.920081 0.033408 0.713429
O O15 0.914146 0.549273 0.920793
O O16 0.000000 0.484023 0.750000
#
# Coordination Sequence:
#
# PCOD9455742 Si02
#       8
#     8   8   8   8   8   8   4   8
#     4  10  20  43  74  97 133 188 240 282 347 424
#     4  11  23  45  70 100 138 185 234 290 349 423
#     4  11  25  45  70 103 136 187 236 285 347 426
#     4  12  26  47  69 106 141 185 236 299 356 422
#     4  12  24  47  71  97 144 184 237 294 354 419
#     4  10  23  43  68 101 139 182 236 286 342 421
#     4  12  30  44  72 108 140 178 240 302 358 422
#     4  12  25  43  67 102 142 183 230 287 354 421
#
# _framework density 21.592054999999998
#
# number of rings (size 3 to 8) (size 9 to 14) (size 15 to 20)
#    0.000    0.800    4.000    3.600    4.667    4.267 
#    0.000    0.000    0.000    0.000    0.000    0.000 
#    0.000    0.000    0.000    0.000    0.000    0.000 
#
# Total GULP energy -335821.527397 kJ/mol
# GULP energy per Si atom -5597.025457 kJ/mol
# Density = 2.154291 g / cm^3
# Si number density = 21.592055 Si / 1000 Ang^3
#
#
#
# Elastic Constant Matrix: (Units=GPa)
#
#
# Indices 1 2 3 4 5 6 
#
# 1 28.0390 17.8011 -8.7867 0.0000 0.0000 0.0000
# 2 17.8011 102.1150 20.1528 0.0000 0.0000 0.0000
# 3 -8.7867 20.1528 67.7611 0.0000 0.0000 0.0000
# 4 0.0000 0.0000 0.0000 47.2464 0.0000 0.0000
# 5 0.0000 0.0000 0.0000 0.0000 26.2523 0.0000
# 6 0.0000 0.0000 0.0000 0.0000 0.0000 17.5847
#
#
#
# Elastic Compliance Matrix: (Units=1/GPa)
#
#
# Indices 1 2 3 4 5 6 
#
# 1 0.044318 -0.009412 0.008546 0.000000 0.000000 0.000000
# 2 -0.009412 0.012403 -0.004909 0.000000 0.000000 0.000000
# 3 0.008546 -0.004909 0.017326 0.000000 0.000000 0.000000
# 4 0.000000 0.000000 0.000000 0.021166 0.000000 0.000000
# 5 0.000000 0.000000 0.000000 0.000000 0.038092 0.000000
# 6 0.000000 0.000000 0.000000 0.000000 0.000000 0.056868
#
#
# Mechanical properties :
#
#
# Convention : Reuss Voigt Hill
#
# Bulk Modulus (GPa) = 16.00096 28.47214 22.23655
# Shear Modulus (GPa) = 22.46639 29.46656 25.96647
#
# Velocity S-wave (km/s) = 3.22917 3.69818 3.47161
# Velocity P-wave (km/s) = 4.61844 5.60807 5.13714
#
# Compressibility (1/GPa) = 0.06249626
#
# Stress axis : x y z
#
# Youngs Moduli (GPa) = 22.56398 80.62882 57.71688
#
# Poissons Ratio (x) = 0.75891 -0.49326
# Poissons Ratio (y) = 0.21238 0.28334
# Poissons Ratio (z) = -0.19284 0.39582
#
# Static dielectric constant tensor:
#      x y z
#    x 1.779380 0.000000 0.000000 
#    y 0.000000 1.788100 0.000000 
#    z 0.000000 0.000000 1.678760 
# 
# From -- ./inp_files/12519.got.cif
#   From: 2010.05.17/outbox.cif.g08.bks.cpg/sg60_7_cif.got.tgz:12519.got - 2010.06.03 14:59:27.
