data_PCOD9455355
_publ_section_title
;
Structure prediction by ZEFSAII (Michael W. Deem and Ramdas Pophale) SiO2 
 PCOD9455355
Probable space group: P B C N
;
_chemical_formula_sum "Si O2"
_cell_formula_units_Z 64
_cell_length_a 5.236013
_cell_length_b 18.592514
_cell_length_c 29.765868
_cell_angle_alpha 90.000000
_cell_angle_beta 90.000000
_cell_angle_gamma 90.000000
_cell_volume 2897.726449
_symmetry_space_group_name_H-M "P B C N"
_symmetry_group_IT_number 60
_symmetry_cell_setting 'orthorhombic'
loop_
_space_group_symop_operation_xyz
x,y,z
1/2-x,1/2-y,1/2+z
1/2+x,1/2-y,-z
-x,y,1/2-z
-x,-y,-z
1/2+x,1/2+y,1/2-z
1/2-x,1/2+y,z
x,-y,1/2+z
loop_
_atom_site_type_symbol
_atom_site_label
_atom_site_fract_x
_atom_site_fract_y
_atom_site_fract_z
Si Si1 0.144235 0.163751 0.641870
Si Si2 0.113664 0.579933 0.002293
Si Si3 0.955762 0.073250 0.407946
Si Si4 0.106366 0.014597 0.671075
Si Si5 0.605839 0.932998 0.700442
Si Si6 0.144006 0.666944 0.918520
Si Si7 0.130801 0.682632 0.142655
Si Si8 0.827404 0.681912 0.057270
O O1 0.865308 0.167497 0.618877
O O2 0.373183 0.151544 0.605565
O O3 0.204279 0.241629 0.663342
O O4 0.122415 0.099432 0.677152
O O5 0.222718 0.606145 0.954881
O O6 0.922388 0.647816 0.011205
O O7 0.000000 0.500000 0.000000
O O8 0.298947 0.576793 0.045646
O O9 0.956323 0.998629 0.382067
O O10 0.848872 0.125859 0.368916
O O11 0.220354 0.108728 0.420523
O O12 0.389816 0.985578 0.680188
O O13 0.880173 0.972176 0.697036
O O14 0.500000 0.917750 0.750000
O O15 0.579172 0.859757 0.671533
O O16 0.150605 0.747791 0.941166
O O17 0.049468 0.702322 0.091627
#
# Coordination Sequence:
#
# PCOD9455355 Si02
#       8
#     8   8   8   8   8   8   8   8
#     4  11  23  41  66  91 125 164 214 262 310 369
#     4  11  26  37  55  87 126 169 218 278 326 369
#     4  10  20  38  61  80 118 166 213 253 312 372
#     4  11  23  41  68  93 128 164 204 254 318 383
#     4  11  23  42  67  97 128 161 199 248 310 386
#     4  11  25  40  60  92 123 167 220 270 318 367
#     4   9  20  40  62  92 115 161 210 253 298 385
#     4  10  21  37  60  79 120 161 212 256 316 367
#
# _framework density 22.086283000000002
#
# number of rings (size 3 to 8) (size 9 to 14) (size 15 to 20)
#    0.000    1.500    2.500    1.875    5.250    0.500 
#    0.000    1.250    0.000    0.000    0.000    0.000 
#    0.000    0.000    0.000    0.000    0.000    0.000 
#
# Total GULP energy -356506.218486 kJ/mol
# GULP energy per Si atom -5570.409664 kJ/mol
# Density = 2.203601 g / cm^3
# Si number density = 22.086283 Si / 1000 Ang^3
#
#
#
# Elastic Constant Matrix: (Units=GPa)
#
#
# Indices 1 2 3 4 5 6 
#
# 1 67.7269 -1.8837 4.2409 0.0000 0.0000 0.0000
# 2 -1.8837 93.5969 13.8194 0.0000 0.0000 0.0000
# 3 4.2409 13.8194 48.7293 0.0000 0.0000 0.0000
# 4 0.0000 0.0000 0.0000 9.3797 0.0000 0.0000
# 5 0.0000 0.0000 0.0000 0.0000 29.5995 0.0000
# 6 0.0000 0.0000 0.0000 0.0000 0.0000 27.0199
#
#
#
# Elastic Compliance Matrix: (Units=1/GPa)
#
#
# Indices 1 2 3 4 5 6 
#
# 1 0.014870 0.000512 -0.001439 0.000000 0.000000 0.000000
# 2 0.000512 0.011169 -0.003212 0.000000 0.000000 0.000000
# 3 -0.001439 -0.003212 0.021558 0.000000 0.000000 0.000000
# 4 0.000000 0.000000 0.000000 0.106614 0.000000 0.000000
# 5 0.000000 0.000000 0.000000 0.000000 0.033784 0.000000
# 6 0.000000 0.000000 0.000000 0.000000 0.000000 0.037010
#
#
# Mechanical properties :
#
#
# Convention : Reuss Voigt Hill
#
# Bulk Modulus (GPa) = 25.43423 26.93404 26.18414
# Shear Modulus (GPa) = 20.29320 26.12491 23.20906
#
# Velocity S-wave (km/s) = 3.03448 3.44300 3.24518
# Velocity P-wave (km/s) = 4.88040 5.29406 5.09143
#
# Compressibility (1/GPa) = 0.03931709
#
# Stress axis : x y z
#
# Youngs Moduli (GPa) = 67.25157 89.53636 46.38717
#
# Poissons Ratio (x) = -0.04582 0.06676
# Poissons Ratio (y) = -0.03442 0.14899
# Poissons Ratio (z) = 0.09679 0.28758
#
# Static dielectric constant tensor:
#      x y z
#    x 1.856290 0.000000 0.000000 
#    y 0.000000 1.939250 0.000000 
#    z 0.000000 0.000000 1.896680 
# 
# From -- ./inp_files/25814.got.cif
#   From: 2010.05.17/outbox.cif.g08.bks.cpg/sg60_13_cif.got.tgz:25814.got - 2010.06.03 14:59:27.
