data_PCOD9455833
_publ_section_title
;
Structure prediction by ZEFSAII (Michael W. Deem and Ramdas Pophale) SiO2 
 PCOD9455833
Probable space group: P B C N
;
_chemical_formula_sum "Si O2"
_cell_formula_units_Z 64
_cell_length_a 12.973055
_cell_length_b 18.827426
_cell_length_c 9.812665
_cell_angle_alpha 90.000000
_cell_angle_beta 90.000000
_cell_angle_gamma 90.000000
_cell_volume 2396.735900
_symmetry_space_group_name_H-M "P B C N"
_symmetry_group_IT_number 60
_symmetry_cell_setting 'orthorhombic'
loop_
_space_group_symop_operation_xyz
x,y,z
1/2-x,1/2-y,1/2+z
1/2+x,1/2-y,-z
-x,y,1/2-z
-x,-y,-z
1/2+x,1/2+y,1/2-z
1/2-x,1/2+y,z
x,-y,1/2+z
loop_
_atom_site_type_symbol
_atom_site_label
_atom_site_fract_x
_atom_site_fract_y
_atom_site_fract_z
Si Si1 0.352787 0.866121 0.679374
Si Si2 0.817941 0.036667 0.413581
Si Si3 0.118656 0.248814 0.116252
Si Si4 0.158433 0.103741 0.723629
Si Si5 0.990183 0.882287 0.016802
Si Si6 0.854818 0.508960 0.107416
Si Si7 0.738940 0.745174 0.658169
Si Si8 0.004373 0.606942 0.565704
O O1 0.242419 0.890123 0.616701
O O2 0.369152 0.932526 0.778129
O O3 0.345579 0.795230 0.767611
O O4 0.438656 0.864765 0.564599
O O5 0.938909 0.055795 0.424121
O O6 0.800688 0.974826 0.304721
O O7 0.756634 0.008170 0.544754
O O8 0.041866 0.190847 0.053064
O O9 0.212579 0.251032 0.001741
O O10 0.063687 0.324951 0.119557
O O11 0.156062 0.229500 0.269205
O O12 0.076471 0.105830 0.845994
O O13 0.230426 0.166648 0.777059
O O14 0.104902 0.119153 0.576146
O O15 0.913874 0.547546 0.981245
O O16 0.916437 0.437411 0.144715
#
# Coordination Sequence:
#
# PCOD9455833 Si02
#       8
#     8   8   8   8   8   8   8   8
#     4  11  21  38  65  93 126 178 223 273 339 415
#     4  11  21  38  61  90 130 167 214 282 338 408
#     4  11  22  42  68  96 129 174 220 277 336 406
#     4  10  22  37  61  92 123 168 218 280 335 397
#     4  10  21  39  60  92 123 166 225 268 330 407
#     4  10  21  35  60  97 125 167 222 274 339 397
#     4  11  23  40  69  95 130 173 224 275 341 406
#     4  10  21  37  63  93 133 167 224 280 333 398
#
# _framework density 26.702983
#
# number of rings (size 3 to 8) (size 9 to 14) (size 15 to 20)
#    0.000    1.500    2.500    3.000    0.000    1.000 
#    0.000    2.500    2.750    3.750    0.000    0.000 
#    0.000    0.000    0.000    0.000    0.000    0.000 
#
# Total GULP energy -357996.183431 kJ/mol
# GULP energy per Si atom -5593.690366 kJ/mol
# Density = 2.664221 g / cm^3
# Si number density = 26.702983 Si / 1000 Ang^3
#
#
#
# Elastic Constant Matrix: (Units=GPa)
#
#
# Indices 1 2 3 4 5 6 
#
# 1 50.9780 34.6436 27.0547 0.0000 0.0000 0.0000
# 2 34.6436 141.4394 40.6373 0.0000 0.0000 0.0000
# 3 27.0547 40.6373 118.3745 0.0000 0.0000 0.0000
# 4 0.0000 0.0000 0.0000 33.1882 0.0000 0.0000
# 5 0.0000 0.0000 0.0000 0.0000 32.8618 0.0000
# 6 0.0000 0.0000 0.0000 0.0000 0.0000 40.6755
#
#
#
# Elastic Compliance Matrix: (Units=1/GPa)
#
#
# Indices 1 2 3 4 5 6 
#
# 1 0.025156 -0.005003 -0.004032 0.000000 0.000000 0.000000
# 2 -0.005003 0.008839 -0.001891 0.000000 0.000000 0.000000
# 3 -0.004032 -0.001891 0.010018 0.000000 0.000000 0.000000
# 4 0.000000 0.000000 0.000000 0.030131 0.000000 0.000000
# 5 0.000000 0.000000 0.000000 0.000000 0.030431 0.000000
# 6 0.000000 0.000000 0.000000 0.000000 0.000000 0.024585
#
#
# Mechanical properties :
#
#
# Convention : Reuss Voigt Hill
#
# Bulk Modulus (GPa) = 45.12335 57.27369 51.19852
# Shear Modulus (GPa) = 31.56581 35.24216 33.40399
#
# Velocity S-wave (km/s) = 3.44191 3.63682 3.54071
# Velocity P-wave (km/s) = 5.72107 6.25542 5.99420
#
# Compressibility (1/GPa) = 0.02216147
#
# Stress axis : x y z
#
# Youngs Moduli (GPa) = 39.75164 113.13618 99.81654
#
# Poissons Ratio (x) = 0.56605 0.40245
# Poissons Ratio (y) = 0.19889 0.18874
# Poissons Ratio (z) = 0.16028 0.21392
#
# Static dielectric constant tensor:
#      x y z
#    x 2.233180 0.000000 0.000000 
#    y 0.000000 2.049980 0.000000 
#    z 0.000000 0.000000 2.199390 
# 
# From -- ./inp_files/12144.got.cif
#   From: 2010.05.17/outbox.cif.g08.bks.cpg/sg60_7_cif.got.tgz:12144.got - 2010.06.03 14:59:27.
