data_PCOD9455184
_publ_section_title
;
Structure prediction by ZEFSAII (Michael W. Deem and Ramdas Pophale) SiO2 
 PCOD9455184
Probable space group: P B C N
;
_chemical_formula_sum "Si O2"
_cell_formula_units_Z 60
_cell_length_a 5.568343
_cell_length_b 18.865779
_cell_length_c 27.234449
_cell_angle_alpha 90.000000
_cell_angle_beta 90.000000
_cell_angle_gamma 90.000000
_cell_volume 2861.009600
_symmetry_space_group_name_H-M "P B C N"
_symmetry_group_IT_number 60
_symmetry_cell_setting 'orthorhombic'
loop_
_space_group_symop_operation_xyz
x,y,z
1/2-x,1/2-y,1/2+z
1/2+x,1/2-y,-z
-x,y,1/2-z
-x,-y,-z
1/2+x,1/2+y,1/2-z
1/2-x,1/2+y,z
x,-y,1/2+z
loop_
_atom_site_type_symbol
_atom_site_label
_atom_site_fract_x
_atom_site_fract_y
_atom_site_fract_z
Si Si1 0.805702 0.446766 0.523063
Si Si2 0.033455 0.711148 0.694240
Si Si3 0.000000 0.433764 0.750000
Si Si4 0.030060 0.946382 0.075378
Si Si5 0.472858 0.689340 0.862813
Si Si6 0.230628 0.533430 0.154676
Si Si7 0.602872 0.368039 0.686732
Si Si8 0.964666 0.656953 0.100575
O O1 0.660474 0.491153 0.564390
O O2 0.632802 0.427864 0.478044
O O3 0.917952 0.377560 0.547878
O O4 0.000000 0.500000 0.500000
O O5 0.777085 0.697006 0.667286
O O6 0.050567 0.797217 0.694943
O O7 0.000000 0.685867 0.750000
O O8 0.281326 0.682893 0.669695
O O9 0.061459 0.479055 0.701436
O O10 0.207609 0.381475 0.769777
O O11 0.933683 0.877651 0.102250
O O12 0.232155 0.976488 0.112572
O O13 0.518524 0.760403 0.894998
O O14 0.475599 0.556501 0.180555
O O15 0.155112 0.605631 0.126941
O O16 0.735003 0.353970 0.635374
#
# Coordination Sequence:
#
# PCOD9455184 Si02
#       8
#     8   8   4   8   8   8   8   8
#     4  11  23  45  72  95 127 179 229 281 355 422
#     4  11  23  42  69  99 140 191 231 271 342 418
#     4  10  22  32  60 100 126 180 228 296 322 402
#     4  11  26  44  69  99 135 178 226 289 355 417
#     4  11  26  45  69 103 144 181 228 293 345 404
#     4  11  19  39  63  92 135 172 230 278 340 406
#     4  10  20  36  63  93 134 171 236 282 329 392
#     4  10  21  40  67  99 129 177 226 283 340 405
#
# _framework density 20.971616000000001
#
# number of rings (size 3 to 8) (size 9 to 14) (size 15 to 20)
#    0.000    1.333    4.000    1.600    5.600    0.000 
#    3.600    1.333    0.000    0.000    0.000    0.000 
#    0.000    0.000    0.000    0.000    0.000    0.000 
#
# Total GULP energy -334651.229808 kJ/mol
# GULP energy per Si atom -5577.520497 kJ/mol
# Density = 2.092388 g / cm^3
# Si number density = 20.971616 Si / 1000 Ang^3
#
#
#
# Elastic Constant Matrix: (Units=GPa)
#
#
# Indices 1 2 3 4 5 6 
#
# 1 77.2639 13.9021 33.5927 0.0000 0.0000 0.0000
# 2 13.9021 73.0748 62.2845 0.0000 0.0000 0.0000
# 3 33.5927 62.2845 115.2423 0.0000 0.0000 0.0000
# 4 0.0000 0.0000 0.0000 33.0668 0.0000 0.0000
# 5 0.0000 0.0000 0.0000 0.0000 28.4833 0.0000
# 6 0.0000 0.0000 0.0000 0.0000 0.0000 11.1025
#
#
#
# Elastic Compliance Matrix: (Units=1/GPa)
#
#
# Indices 1 2 3 4 5 6 
#
# 1 0.014923 0.001611 -0.005220 0.000000 0.000000 0.000000
# 2 0.001611 0.025547 -0.014277 0.000000 0.000000 0.000000
# 3 -0.005220 -0.014277 0.017915 0.000000 0.000000 0.000000
# 4 0.000000 0.000000 0.000000 0.030242 0.000000 0.000000
# 5 0.000000 0.000000 0.000000 0.000000 0.035108 0.000000
# 6 0.000000 0.000000 0.000000 0.000000 0.000000 0.090070
#
#
# Mechanical properties :
#
#
# Convention : Reuss Voigt Hill
#
# Bulk Modulus (GPa) = 44.22508 53.90441 49.06474
# Shear Modulus (GPa) = 19.44661 24.91729 22.18195
#
# Velocity S-wave (km/s) = 3.04843 3.45069 3.25578
# Velocity P-wave (km/s) = 5.79003 6.45257 6.13026
#
# Compressibility (1/GPa) = 0.02261160
#
# Stress axis : x y z
#
# Youngs Moduli (GPa) = 67.01267 39.14399 55.81890
#
# Poissons Ratio (x) = -0.06304 0.29139
# Poissons Ratio (y) = -0.10793 0.79690
# Poissons Ratio (z) = 0.34983 0.55884
#
# Static dielectric constant tensor:
#      x y z
#    x 1.866700 0.000000 0.000000 
#    y 0.000000 1.726800 0.000000 
#    z 0.000000 0.000000 1.763710 
# 
# From -- ./inp_files/24999.got.cif
#   From: 2010.05.17/outbox.cif.g08.bks.cpg/sg60_13_cif.got.tgz:24999.got - 2010.06.03 14:59:27.
