data_PCOD9455032
_publ_section_title
;
Structure prediction by ZEFSAII (Michael W. Deem and Ramdas Pophale) SiO2 
 PCOD9455032
Probable space group: P B C N
;
_chemical_formula_sum "Si O2"
_cell_formula_units_Z 48
_cell_length_a 21.989540
_cell_length_b 9.633331
_cell_length_c 8.294961
_cell_angle_alpha 90.000000
_cell_angle_beta 90.000000
_cell_angle_gamma 90.000000
_cell_volume 1757.142470
_symmetry_space_group_name_H-M "P B C N"
_symmetry_group_IT_number 60
_symmetry_cell_setting 'orthorhombic'
loop_
_space_group_symop_operation_xyz
x,y,z
1/2-x,1/2-y,1/2+z
1/2+x,1/2-y,-z
-x,y,1/2-z
-x,-y,-z
1/2+x,1/2+y,1/2-z
1/2-x,1/2+y,z
x,-y,1/2+z
loop_
_atom_site_type_symbol
_atom_site_label
_atom_site_fract_x
_atom_site_fract_y
_atom_site_fract_z
Si Si1 0.904694 0.029603 0.445628
Si Si2 0.926225 0.710811 0.754179
Si Si3 0.760254 0.208854 0.746987
Si Si4 0.568494 0.030415 0.052945
Si Si5 0.236079 0.039623 0.057744
Si Si6 0.408053 0.711675 0.755907
O O1 0.908101 0.131797 0.289576
O O2 0.833864 0.012737 0.482693
O O3 0.930626 0.119093 0.591823
O O4 0.928926 0.878429 0.397673
O O5 0.904453 0.617962 0.603921
O O6 0.000000 0.710101 0.750000
O O7 0.904073 0.622169 0.909881
O O8 0.738275 0.362537 0.784048
O O9 0.738161 0.132852 0.585545
O O10 0.834153 0.214320 0.744859
O O11 0.737890 0.108061 0.891446
O O12 0.570496 0.133057 0.208056
O O13 0.500000 0.000000 0.000000
#
# Coordination Sequence:
#
# PCOD9455032 Si02
#       6
#     8   8   8   8   8   8
#     4   9  19  35  53  76 106 137 174 218 264 313
#     4   9  18  34  52  74 102 133 171 216 261 313
#     4  10  20  35  54  78 108 144 183 225 273 324
#     4   9  18  34  53  74 102 134 170 215 264 315
#     4  10  20  35  54  77 108 143 179 223 269 321
#     4   9  19  35  54  77 106 139 178 221 266 318
#
# _framework density 27.317080000000001
#
# number of rings (size 3 to 8) (size 9 to 14) (size 15 to 20)
#    0.000    2.667    0.000    1.000    0.000    4.000 
#    0.000   13.333    0.000    0.000    0.000    0.000 
#    0.000    0.000    0.000    0.000    0.000    0.000 
#
# Total GULP energy -268594.908457 kJ/mol
# GULP energy per Si atom -5595.727260 kJ/mol
# Density = 2.725491 g / cm^3
# Si number density = 27.317080 Si / 1000 Ang^3
#
#
#
# Elastic Constant Matrix: (Units=GPa)
#
#
# Indices 1 2 3 4 5 6 
#
# 1 128.6285 -1.1361 3.6915 0.0000 0.0000 0.0000
# 2 -1.1361 164.2185 11.4297 0.0000 0.0000 0.0000
# 3 3.6915 11.4297 44.5355 0.0000 0.0000 0.0000
# 4 0.0000 0.0000 0.0000 63.4638 0.0000 0.0000
# 5 0.0000 0.0000 0.0000 0.0000 15.9106 0.0000
# 6 0.0000 0.0000 0.0000 0.0000 0.0000 26.5012
#
#
#
# Elastic Compliance Matrix: (Units=1/GPa)
#
#
# Indices 1 2 3 4 5 6 
#
# 1 0.007795 0.000101 -0.000672 0.000000 0.000000 0.000000
# 2 0.000101 0.006202 -0.001600 0.000000 0.000000 0.000000
# 3 -0.000672 -0.001600 0.022920 0.000000 0.000000 0.000000
# 4 0.000000 0.000000 0.000000 0.015757 0.000000 0.000000
# 5 0.000000 0.000000 0.000000 0.000000 0.062851 0.000000
# 6 0.000000 0.000000 0.000000 0.000000 0.000000 0.037734
#
#
# Mechanical properties :
#
#
# Convention : Reuss Voigt Hill
#
# Bulk Modulus (GPa) = 30.69933 40.59473 35.64703
# Shear Modulus (GPa) = 29.68082 42.73493 36.20787
#
# Velocity S-wave (km/s) = 3.29983 3.95954 3.64465
# Velocity P-wave (km/s) = 5.07750 5.98304 5.54878
#
# Compressibility (1/GPa) = 0.03257400
#
# Stress axis : x y z
#
# Youngs Moduli (GPa) = 128.29556 161.25129 43.62949
#
# Poissons Ratio (x) = -0.01624 0.02932
# Poissons Ratio (y) = -0.01292 0.06980
# Poissons Ratio (z) = 0.08620 0.25799
#
# Static dielectric constant tensor:
#      x y z
#    x 2.019330 0.000000 0.000000 
#    y 0.000000 2.053990 0.000000 
#    z 0.000000 0.000000 2.254280 
# 
# From -- ./inp_files/8399.got.cif
#   From: 2010.05.17/outbox.cif.g08.bks.cpg/sg60_5_cif.got.tgz:8399.got - 2010.06.03 14:59:27.
