data_PCOD9455094
_publ_section_title
;
Structure prediction by ZEFSAII (Michael W. Deem and Ramdas Pophale) SiO2 
 PCOD9455094
Probable space group: P B C N
;
_chemical_formula_sum "Si O2"
_cell_formula_units_Z 64
_cell_length_a 18.009902
_cell_length_b 9.468184
_cell_length_c 19.137420
_cell_angle_alpha 90.000000
_cell_angle_beta 90.000000
_cell_angle_gamma 90.000000
_cell_volume 3263.333258
_symmetry_space_group_name_H-M "P B C N"
_symmetry_group_IT_number 60
_symmetry_cell_setting 'orthorhombic'
loop_
_space_group_symop_operation_xyz
x,y,z
1/2-x,1/2-y,1/2+z
1/2+x,1/2-y,-z
-x,y,1/2-z
-x,-y,-z
1/2+x,1/2+y,1/2-z
1/2-x,1/2+y,z
x,-y,1/2+z
loop_
_atom_site_type_symbol
_atom_site_label
_atom_site_fract_x
_atom_site_fract_y
_atom_site_fract_z
Si Si1 0.540531 0.333255 0.819444
Si Si2 0.820960 0.080806 0.591419
Si Si3 0.371005 0.124131 0.592440
Si Si4 0.186725 0.914559 0.763867
Si Si5 0.127135 0.289604 0.597220
Si Si6 0.509039 0.424861 0.075281
Si Si7 0.743037 0.323849 0.299486
Si Si8 0.752701 0.817255 0.515154
O O1 0.500000 0.272151 0.750000
O O2 0.560457 0.217407 0.878985
O O3 0.611737 0.398729 0.780094
O O4 0.501904 0.459721 0.862544
O O5 0.906021 0.125595 0.578927
O O6 0.766669 0.212327 0.578435
O O7 0.820475 0.999641 0.665017
O O8 0.792652 0.961950 0.536923
O O9 0.307180 0.182553 0.643758
O O10 0.327864 0.151338 0.519863
O O11 0.386456 0.957552 0.599377
O O12 0.227498 0.764929 0.765882
O O13 0.237226 0.012596 0.715938
O O14 0.167069 0.235408 0.668245
O O15 0.189100 0.257303 0.537595
O O16 0.053371 0.196709 0.583542
O O17 0.500000 0.500000 0.000000
#
# Coordination Sequence:
#
# PCOD9455094 Si02
#       8
#     8   8   8   8   8   8   8   8
#     4  11  23  43  65  96 134 178 219 272 341 415
#     4  12  24  41  64  97 133 174 215 281 339 392
#     4  10  22  39  67  93 127 176 225 273 330 394
#     4  11  21  38  63  93 132 168 219 271 338 396
#     4  11  21  40  66  95 127 171 223 278 325 405
#     4  12  24  41  68  96 129 177 226 274 337 404
#     4  10  20  35  63  96 123 165 223 273 320 394
#     4  11  23  41  65  97 133 169 228 279 330 395
#
# _framework density 19.611848999999999
#
# number of rings (size 3 to 8) (size 9 to 14) (size 15 to 20)
#    0.000    1.000    6.250    1.500    0.000    0.000 
#    0.000    5.625    0.000    0.000    0.000    0.000 
#    0.000    0.000    0.000    0.000    0.000    0.000 
#
# Total GULP energy -356515.848756 kJ/mol
# GULP energy per Si atom -5570.560137 kJ/mol
# Density = 1.956721 g / cm^3
# Si number density = 19.611849 Si / 1000 Ang^3
#
#
#
# Elastic Constant Matrix: (Units=GPa)
#
#
# Indices 1 2 3 4 5 6 
#
# 1 91.7009 36.5317 18.7501 0.0000 0.0000 0.0000
# 2 36.5317 96.1882 6.2140 0.0000 0.0000 0.0000
# 3 18.7501 6.2140 65.8187 0.0000 0.0000 0.0000
# 4 0.0000 0.0000 0.0000 26.0376 0.0000 0.0000
# 5 0.0000 0.0000 0.0000 0.0000 13.7430 0.0000
# 6 0.0000 0.0000 0.0000 0.0000 0.0000 30.0997
#
#
#
# Elastic Compliance Matrix: (Units=1/GPa)
#
#
# Indices 1 2 3 4 5 6 
#
# 1 0.013565 -0.004932 -0.003399 0.000000 0.000000 0.000000
# 2 -0.004932 0.012254 0.000248 0.000000 0.000000 0.000000
# 3 -0.003399 0.000248 0.016138 0.000000 0.000000 0.000000
# 4 0.000000 0.000000 0.000000 0.038406 0.000000 0.000000
# 5 0.000000 0.000000 0.000000 0.000000 0.072764 0.000000
# 6 0.000000 0.000000 0.000000 0.000000 0.000000 0.033223
#
#
# Mechanical properties :
#
#
# Convention : Reuss Voigt Hill
#
# Bulk Modulus (GPa) = 38.77324 41.85547 40.31435
# Shear Modulus (GPa) = 23.68415 26.79022 25.23718
#
# Velocity S-wave (km/s) = 3.47889 3.69998 3.59114
# Velocity P-wave (km/s) = 5.99584 6.29614 6.14783
#
# Compressibility (1/GPa) = 0.02579099
#
# Stress axis : x y z
#
# Youngs Moduli (GPa) = 73.71992 81.60926 61.96554
#
# Poissons Ratio (x) = 0.40252 0.21060
# Poissons Ratio (y) = 0.36361 -0.01538
# Poissons Ratio (z) = 0.25055 -0.02026
#
# Static dielectric constant tensor:
#      x y z
#    x 2.721880 0.000000 0.000000 
#    y 0.000000 1.667170 0.000000 
#    z 0.000000 0.000000 1.748840 
# 
# From -- ./inp_files/23081.got.cif
#   From: 2010.05.17/outbox.cif.g08.bks.cpg/sg60_12_cif.got.tgz:23081.got - 2010.06.03 14:59:27.
