data_PCOD9455793
_publ_section_title
;
Structure prediction by ZEFSAII (Michael W. Deem and Ramdas Pophale) SiO2 
 PCOD9455793
Probable space group: P B C N
;
_chemical_formula_sum "Si O2"
_cell_formula_units_Z 64
_cell_length_a 30.339625
_cell_length_b 18.594843
_cell_length_c 5.329497
_cell_angle_alpha 90.000000
_cell_angle_beta 90.000000
_cell_angle_gamma 90.000000
_cell_volume 3006.692031
_symmetry_space_group_name_H-M "P B C N"
_symmetry_group_IT_number 60
_symmetry_cell_setting 'orthorhombic'
loop_
_space_group_symop_operation_xyz
x,y,z
1/2-x,1/2-y,1/2+z
1/2+x,1/2-y,-z
-x,y,1/2-z
-x,-y,-z
1/2+x,1/2+y,1/2-z
1/2-x,1/2+y,z
x,-y,1/2+z
loop_
_atom_site_type_symbol
_atom_site_label
_atom_site_fract_x
_atom_site_fract_y
_atom_site_fract_z
Si Si1 0.796004 0.812271 0.493846
Si Si2 0.896830 0.197997 0.063777
Si Si3 0.835039 0.454379 0.911540
Si Si4 0.052434 0.459262 0.279197
Si Si5 0.461236 0.230931 0.562160
Si Si6 0.242447 0.346150 0.511700
Si Si7 0.014494 0.880209 0.009156
Si Si8 0.413171 0.153050 0.153722
O O1 0.847390 0.829031 0.538911
O O2 0.788165 0.725688 0.493977
O O3 0.771758 0.839419 0.741495
O O4 0.772442 0.842852 0.241427
O O5 0.916264 0.237913 0.312933
O O6 0.934378 0.140622 0.998724
O O7 0.899461 0.264841 0.876825
O O8 0.840481 0.514338 0.694220
O O9 0.788076 0.415088 0.941779
O O10 0.869360 0.393614 0.816821
O O11 0.067523 0.384365 0.401806
O O12 0.067503 0.513973 0.504589
O O13 0.000000 0.462488 0.250000
O O14 0.500000 0.205924 0.750000
O O15 0.485199 0.305490 0.476747
O O16 0.450114 0.166831 0.367767
O O17 0.000000 0.922833 0.250000
O O18 0.000000 0.913285 0.750000
#
# Coordination Sequence:
#
# PCOD9455793 Si02
#       8
#     8   8   8   8   8   8   8   8
#     4  10  21  37  63  89 116 141 186 243 308 362
#     4  10  21  33  55  85 111 147 193 242 293 355
#     4  12  27  44  66  88 116 154 201 252 317 376
#     4  10  24  45  53  67  94 137 196 261 313 343
#     4   9  22  36  52  82 117 156 202 247 296 359
#     4  10  22  40  61  88 116 144 181 243 313 377
#     4   9  17  32  44  72 105 149 187 227 268 340
#     4  12  23  37  62  80 110 147 210 260 310 356
#
# _framework density 21.285851000000001
#
# number of rings (size 3 to 8) (size 9 to 14) (size 15 to 20)
#    0.000    2.000    2.500    1.500    5.250    3.000 
#    9.000    0.000    0.000    2.250    0.000    0.000 
#    0.000    0.000    0.000    0.000    0.000  287.500 
#
# Total GULP energy -356617.161237 kJ/mol
# GULP energy per Si atom -5572.143144 kJ/mol
# Density = 2.123740 g / cm^3
# Si number density = 21.285851 Si / 1000 Ang^3
#
#
#
# Elastic Constant Matrix: (Units=GPa)
#
#
# Indices 1 2 3 4 5 6 
#
# 1 139.3278 23.1082 55.6826 0.0000 0.0000 0.0000
# 2 23.1082 47.0677 18.0354 0.0000 0.0000 0.0000
# 3 55.6826 18.0354 147.3777 0.0000 0.0000 0.0000
# 4 0.0000 0.0000 0.0000 -23.7396 0.0000 0.0000
# 5 0.0000 0.0000 0.0000 0.0000 26.7056 0.0000
# 6 0.0000 0.0000 0.0000 0.0000 0.0000 26.4327
#
#
#
# Elastic Compliance Matrix: (Units=1/GPa)
#
#
# Indices 1 2 3 4 5 6 
#
# 1 0.008899 -0.003232 -0.002967 0.000000 0.000000 0.000000
# 2 -0.003232 0.023465 -0.001650 0.000000 0.000000 0.000000
# 3 -0.002967 -0.001650 0.008108 0.000000 0.000000 0.000000
# 4 0.000000 0.000000 0.000000 -0.042124 0.000000 0.000000
# 5 0.000000 0.000000 0.000000 0.000000 0.037445 0.000000
# 6 0.000000 0.000000 0.000000 0.000000 0.000000 0.037832
#
#
# Mechanical properties :
#
#
# Convention : Reuss Voigt Hill
#
# Bulk Modulus (GPa) = 40.36517 58.60284 49.48400
# Shear Modulus (GPa) = 51.23867 21.67622 36.45745
#
# Velocity S-wave (km/s) = 4.91162 3.19460 4.14303
# Velocity P-wave (km/s) = 7.15331 6.41860 6.79589
#
# Compressibility (1/GPa) = 0.02477383
#
# Stress axis : x y z
#
# Youngs Moduli (GPa) = 112.37144 42.61615 123.33287
#
# Poissons Ratio (x) = 0.13775 0.36589
# Poissons Ratio (y) = 0.36321 0.20354
# Poissons Ratio (z) = 0.33337 0.07033
#
# Static dielectric constant tensor:
#      x y z
#    x 1.848640 0.000000 0.000000 
#    y 0.000000 1.813670 0.000000 
#    z 0.000000 0.000000 1.936070 
# 
# From -- ./inp_files/2651.got.cif
#   From: 2010.05.17/outbox.cif.g08.bks.cpg/sg60_2_cif.got.tgz:2651.got - 2010.06.03 14:59:27.
