data_PCOD9455004
_publ_section_title
;
Structure prediction by ZEFSAII (Michael W. Deem and Ramdas Pophale) SiO2 
 PCOD9455004
Probable space group: P B C N
;
_chemical_formula_sum "Si O2"
_cell_formula_units_Z 56
_cell_length_a 17.806419
_cell_length_b 17.704860
_cell_length_c 7.592149
_cell_angle_alpha 90.000000
_cell_angle_beta 90.000000
_cell_angle_gamma 90.000000
_cell_volume 2393.502074
_symmetry_space_group_name_H-M "P B C N"
_symmetry_group_IT_number 60
_symmetry_cell_setting 'orthorhombic'
loop_
_space_group_symop_operation_xyz
x,y,z
1/2-x,1/2-y,1/2+z
1/2+x,1/2-y,-z
-x,y,1/2-z
-x,-y,-z
1/2+x,1/2+y,1/2-z
1/2-x,1/2+y,z
x,-y,1/2+z
loop_
_atom_site_type_symbol
_atom_site_label
_atom_site_fract_x
_atom_site_fract_y
_atom_site_fract_z
Si Si1 0.656460 0.462184 0.988396
Si Si2 0.925774 0.260428 0.133419
Si Si3 0.182654 0.308024 0.064636
Si Si4 0.921812 0.090679 0.150203
Si Si5 0.199288 0.825335 0.324708
Si Si6 0.818212 0.538223 0.083197
Si Si7 0.155323 0.613506 0.038556
O O1 0.642532 0.421491 0.801468
O O2 0.594440 0.526027 0.011422
O O3 0.647272 0.396881 0.136356
O O4 0.735607 0.506631 0.023217
O O5 0.860173 0.267366 0.278406
O O6 0.924536 0.174409 0.070115
O O7 0.000000 0.274286 0.250000
O O8 0.908080 0.322997 0.986121
O O9 0.268554 0.316562 0.129643
O O10 0.173178 0.255156 0.896235
O O11 0.156985 0.393941 0.043301
O O12 0.000000 0.081602 0.250000
O O13 0.269701 0.850096 0.451809
O O14 0.824341 0.579407 0.271178
O O15 0.865607 0.461751 0.071854
#
# Coordination Sequence:
#
# PCOD9455004 Si02
#       7
#     8   8   8   8   8   8   8
#     4  11  21  39  60  91 127 164 212 268 331 387
#     4  10  23  43  63  87 131 179 219 263 317 389
#     4  11  21  37  60  91 126 158 213 263 326 392
#     4  11  23  40  61  89 129 179 221 260 314 391
#     4  10  20  34  58  89 121 160 204 261 331 380
#     4  11  22  38  66  96 127 155 209 280 335 392
#     4  10  21  39  61  94 125 163 210 264 334 389
#
# _framework density 23.39668
#
# number of rings (size 3 to 8) (size 9 to 14) (size 15 to 20)
#    0.000    1.429    1.429    6.429    4.000    0.000 
#    2.571    3.571    0.000    0.000    0.000    0.000 
#    0.000    0.000    0.000    0.000    0.000    0.000 
#
# Total GULP energy -312671.456397 kJ/mol
# GULP energy per Si atom -5583.418864 kJ/mol
# Density = 2.334343 g / cm^3
# Si number density = 23.396680 Si / 1000 Ang^3
#
#
#
# Elastic Constant Matrix: (Units=GPa)
#
#
# Indices 1 2 3 4 5 6 
#
# 1 15.0388 6.8560 -7.2560 0.0000 0.0000 0.0000
# 2 6.8560 183.9951 15.8811 0.0000 0.0000 0.0000
# 3 -7.2560 15.8811 43.2848 0.0000 0.0000 0.0000
# 4 0.0000 0.0000 0.0000 31.2511 0.0000 0.0000
# 5 0.0000 0.0000 0.0000 0.0000 20.7392 0.0000
# 6 0.0000 0.0000 0.0000 0.0000 0.0000 16.1101
#
#
#
# Elastic Compliance Matrix: (Units=1/GPa)
#
#
# Indices 1 2 3 4 5 6 
#
# 1 0.075109 -0.004013 0.014063 0.000000 0.000000 0.000000
# 2 -0.004013 0.005827 -0.002811 0.000000 0.000000 0.000000
# 3 0.014063 -0.002811 0.026491 0.000000 0.000000 0.000000
# 4 0.000000 0.000000 0.000000 0.031999 0.000000 0.000000
# 5 0.000000 0.000000 0.000000 0.000000 0.048218 0.000000
# 6 0.000000 0.000000 0.000000 0.000000 0.000000 0.062073
#
#
# Mechanical properties :
#
#
# Convention : Reuss Voigt Hill
#
# Bulk Modulus (GPa) = 8.20293 30.36455 19.28374
# Shear Modulus (GPa) = 18.12425 28.74257 23.43341
#
# Velocity S-wave (km/s) = 2.78627 3.50878 3.16819
# Velocity P-wave (km/s) = 3.72354 5.42418 4.65223
#
# Compressibility (1/GPa) = 0.12190763
#
# Stress axis : x y z
#
# Youngs Moduli (GPa) = 13.31394 171.61408 37.74806
#
# Poissons Ratio (x) = 0.68861 -0.53085
# Poissons Ratio (y) = 0.05342 0.10609
# Poissons Ratio (z) = -0.18723 0.48233
#
# Static dielectric constant tensor:
#      x y z
#    x 1.958980 0.000000 0.000000 
#    y 0.000000 1.924280 0.000000 
#    z 0.000000 0.000000 1.970510 
# 
# From -- ./inp_files/7390.got.cif
#   From: 2010.05.17/outbox.cif.g08.bks.cpg/sg60_4_cif.got.tgz:7390.got - 2010.06.03 14:59:27.
