data_PCOD9455419
_publ_section_title
;
Structure prediction by ZEFSAII (Michael W. Deem and Ramdas Pophale) SiO2 
 PCOD9455419
Probable space group: P B C N
;
_chemical_formula_sum "Si O2"
_cell_formula_units_Z 60
_cell_length_a 6.203950
_cell_length_b 18.221084
_cell_length_c 22.246915
_cell_angle_alpha 90.000000
_cell_angle_beta 90.000000
_cell_angle_gamma 90.000000
_cell_volume 2514.851207
_symmetry_space_group_name_H-M "P B C N"
_symmetry_group_IT_number 60
_symmetry_cell_setting 'orthorhombic'
loop_
_space_group_symop_operation_xyz
x,y,z
1/2-x,1/2-y,1/2+z
1/2+x,1/2-y,-z
-x,y,1/2-z
-x,-y,-z
1/2+x,1/2+y,1/2-z
1/2-x,1/2+y,z
x,-y,1/2+z
loop_
_atom_site_type_symbol
_atom_site_label
_atom_site_fract_x
_atom_site_fract_y
_atom_site_fract_z
Si Si1 0.106267 0.516582 0.186709
Si Si2 0.210665 0.685549 0.566251
Si Si3 0.181890 0.356506 0.822470
Si Si4 0.000000 0.961622 0.750000
Si Si5 0.067039 0.542864 0.940247
Si Si6 0.747812 0.690786 0.725498
Si Si7 0.122864 0.138171 0.893376
Si Si8 0.347233 0.286598 0.933974
O O1 0.354268 0.498482 0.200440
O O2 0.020347 0.490221 0.122406
O O3 0.000000 0.490091 0.250000
O O4 0.050722 0.604654 0.183434
O O5 0.038581 0.622909 0.553760
O O6 0.371576 0.653591 0.615246
O O7 0.333991 0.695295 0.503585
O O8 0.086919 0.759702 0.583505
O O9 0.339629 0.411332 0.788199
O O10 0.213905 0.275428 0.796036
O O11 0.255186 0.349587 0.891648
O O12 0.317501 0.566034 0.931223
O O13 0.000000 0.500000 0.000000
O O14 0.500000 0.674869 0.750000
O O15 0.752538 0.636622 0.668428
O O16 0.000000 0.688182 0.750000
O O17 0.199161 0.215409 0.922548
#
# Coordination Sequence:
#
# PCOD9455419 Si02
#       8
#     8   8   8   4   8   8   8   8
#     4  10  23  43  65  96 137 181 243 298 353 421
#     4  11  22  41  68  96 137 180 227 290 363 438
#     4  10  21  36  64  96 135 178 233 287 357 421
#     4  10  20  38  64  96 124 176 232 290 358 414
#     4  11  26  46  68 100 140 186 249 298 355 442
#     4  11  24  41  70 104 144 184 234 303 374 445
#     4  10  25  42  65  96 135 179 235 285 370 436
#     4  10  21  38  62  98 136 174 220 288 357 436
#
# _framework density 23.858270999999998
#
# number of rings (size 3 to 8) (size 9 to 14) (size 15 to 20)
#    0.000    1.600    2.000    2.000    5.600    5.333 
#    0.000    0.000    0.000    0.000    0.000    0.000 
#    0.000    0.000    0.000    0.000    0.000    0.000 
#
# Total GULP energy -334356.844829 kJ/mol
# GULP energy per Si atom -5572.614080 kJ/mol
# Density = 2.380397 g / cm^3
# Si number density = 23.858271 Si / 1000 Ang^3
#
#
#
# Elastic Constant Matrix: (Units=GPa)
#
#
# Indices 1 2 3 4 5 6 
#
# 1 112.4030 14.3716 34.6950 0.0000 0.0000 0.0000
# 2 14.3716 51.9257 17.3334 0.0000 0.0000 0.0000
# 3 34.6950 17.3334 116.4645 0.0000 0.0000 0.0000
# 4 0.0000 0.0000 0.0000 -1.0126 0.0000 0.0000
# 5 0.0000 0.0000 0.0000 0.0000 31.5694 0.0000
# 6 0.0000 0.0000 0.0000 0.0000 0.0000 27.1940
#
#
#
# Elastic Compliance Matrix: (Units=1/GPa)
#
#
# Indices 1 2 3 4 5 6 
#
# 1 0.009965 -0.001860 -0.002692 0.000000 0.000000 0.000000
# 2 -0.001860 0.020612 -0.002514 0.000000 0.000000 0.000000
# 3 -0.002692 -0.002514 0.009762 0.000000 0.000000 0.000000
# 4 0.000000 0.000000 0.000000 -0.987509 0.000000 0.000000
# 5 0.000000 0.000000 0.000000 0.000000 0.031676 0.000000
# 6 0.000000 0.000000 0.000000 0.000000 0.000000 0.036773
#
#
# Mechanical properties :
#
#
# Convention : Reuss Voigt Hill
#
# Bulk Modulus (GPa) = 38.15436 45.95479 42.05458
# Shear Modulus (GPa) = -5.84212 25.84302 10.00045
#
# Velocity S-wave (km/s) = -1.56652 3.29475 2.04956
# Velocity P-wave (km/s) = 3.57139 5.81182 4.82349
#
# Compressibility (1/GPa) = 0.02620933
#
# Stress axis : x y z
#
# Youngs Moduli (GPa) = 100.34912 48.51522 102.43431
#
# Poissons Ratio (x) = 0.09021 0.27574
# Poissons Ratio (y) = 0.18660 0.25749
# Poissons Ratio (z) = 0.27013 0.12196
#
# Static dielectric constant tensor:
#      x y z
#    x 2.100860 0.000000 0.000000 
#    y 0.000000 1.883630 0.000000 
#    z 0.000000 0.000000 1.964690 
# 
# From -- ./inp_files/23715.got.cif
#   From: 2010.05.17/outbox.cif.g08.bks.cpg/sg60_12_cif.got.tgz:23715.got - 2010.06.03 14:59:27.
