data_PCOD9455500
_publ_section_title
;
Structure prediction by ZEFSAII (Michael W. Deem and Ramdas Pophale) SiO2 
 PCOD9455500
Probable space group: P B C N
;
_chemical_formula_sum "Si O2"
_cell_formula_units_Z 60
_cell_length_a 26.067299
_cell_length_b 5.413836
_cell_length_c 18.374615
_cell_angle_alpha 90.000000
_cell_angle_beta 90.000000
_cell_angle_gamma 90.000000
_cell_volume 2593.100669
_symmetry_space_group_name_H-M "P B C N"
_symmetry_group_IT_number 60
_symmetry_cell_setting 'orthorhombic'
loop_
_space_group_symop_operation_xyz
x,y,z
1/2-x,1/2-y,1/2+z
1/2+x,1/2-y,-z
-x,y,1/2-z
-x,-y,-z
1/2+x,1/2+y,1/2-z
1/2-x,1/2+y,z
x,-y,1/2+z
loop_
_atom_site_type_symbol
_atom_site_label
_atom_site_fract_x
_atom_site_fract_y
_atom_site_fract_z
Si Si1 0.611865 0.098429 0.225666
Si Si2 0.738332 0.035278 0.401635
Si Si3 0.508982 0.546804 0.601548
Si Si4 0.335562 0.441967 0.503170
Si Si5 0.622076 0.390151 0.638551
Si Si6 0.437298 0.179397 0.511958
Si Si7 0.500000 0.221952 0.250000
Si Si8 0.127152 0.656090 0.103906
O O1 0.625896 0.354143 0.184561
O O2 0.550024 0.073856 0.227698
O O3 0.626011 0.124739 0.310222
O O4 0.631701 0.851575 0.187082
O O5 0.755857 0.793028 0.360074
O O6 0.776671 0.079685 0.470414
O O7 0.678965 0.012538 0.420556
O O8 0.562707 0.395703 0.609625
O O9 0.467223 0.385498 0.559310
O O10 0.527340 0.798400 0.559636
O O11 0.487517 0.609878 0.680537
O O12 0.340363 0.610044 0.431132
O O13 0.380016 0.246077 0.483632
O O14 0.361381 0.573060 0.573680
O O15 0.422597 0.951812 0.563694
#
# Coordination Sequence:
#
# PCOD9455500 Si02
#       8
#     8   8   8   8   8   8   4   8
#     4  11  26  41  64  97 137 180 221 268 338 403
#     4  10  21  39  65  99 122 161 220 277 332 395
#     4   9  21  38  61  95 133 174 226 268 331 397
#     4  10  22  41  69  95 128 172 226 279 339 394
#     4  10  25  43  65  94 137 178 219 273 331 409
#     4  10  20  39  62  96 130 167 223 283 325 390
#     4  10  22  38  62  86 136 188 218 266 328 420
#     4  11  24  37  72  97 133 175 230 285 341 399
#
# _framework density 23.138321000000001
#
# number of rings (size 3 to 8) (size 9 to 14) (size 15 to 20)
#    0.000    1.867    1.333    0.800   13.067    0.533 
#    0.000    2.667    0.000   19.200    0.000    0.000 
#    0.000    0.000    0.000    0.000    0.000    0.000 
#
# Total GULP energy -334527.830856 kJ/mol
# GULP energy per Si atom -5575.463848 kJ/mol
# Density = 2.308566 g / cm^3
# Si number density = 23.138321 Si / 1000 Ang^3
#
#
#
# Elastic Constant Matrix: (Units=GPa)
#
#
# Indices 1 2 3 4 5 6 
#
# 1 115.6315 23.6434 32.0070 0.0000 0.0000 0.0000
# 2 23.6434 81.9199 18.6182 0.0000 0.0000 0.0000
# 3 32.0070 18.6182 127.6675 0.0000 0.0000 0.0000
# 4 0.0000 0.0000 0.0000 18.0560 0.0000 0.0000
# 5 0.0000 0.0000 0.0000 0.0000 22.7468 0.0000
# 6 0.0000 0.0000 0.0000 0.0000 0.0000 32.3998
#
#
#
# Elastic Compliance Matrix: (Units=1/GPa)
#
#
# Indices 1 2 3 4 5 6 
#
# 1 0.009703 -0.002325 -0.002094 0.000000 0.000000 0.000000
# 2 -0.002325 0.013182 -0.001340 0.000000 0.000000 0.000000
# 3 -0.002094 -0.001340 0.008553 0.000000 0.000000 0.000000
# 4 0.000000 0.000000 0.000000 0.055383 0.000000 0.000000
# 5 0.000000 0.000000 0.000000 0.000000 0.043962 0.000000
# 6 0.000000 0.000000 0.000000 0.000000 0.000000 0.030864
#
#
# Mechanical properties :
#
#
# Convention : Reuss Voigt Hill
#
# Bulk Modulus (GPa) = 50.19375 52.63958 51.41666
# Shear Modulus (GPa) = 27.80792 31.37055 29.58924
#
# Velocity S-wave (km/s) = 3.47048 3.68609 3.57991
# Velocity P-wave (km/s) = 6.14809 6.39654 6.27354
#
# Compressibility (1/GPa) = 0.01992280
#
# Stress axis : x y z
#
# Youngs Moduli (GPa) = 103.06103 75.85858 116.91685
#
# Poissons Ratio (x) = 0.17634 0.24478
# Poissons Ratio (y) = 0.23958 0.15663
# Poissons Ratio (z) = 0.21577 0.10162
#
# Static dielectric constant tensor:
#      x y z
#    x 1.922130 0.000000 0.000000 
#    y 0.000000 2.040150 0.000000 
#    z 0.000000 0.000000 1.889060 
# 
# From -- ./inp_files/21216.got.cif
#   From: 2010.05.17/outbox.cif.g08.bks.cpg/sg60_11_cif.got.tgz:21216.got - 2010.06.03 14:59:27.
