data_PCOD9455396
_publ_section_title
;
Structure prediction by ZEFSAII (Michael W. Deem and Ramdas Pophale) SiO2 
 PCOD9455396
Probable space group: P B C N
;
_chemical_formula_sum "Si O2"
_cell_formula_units_Z 60
_cell_length_a 23.053271
_cell_length_b 19.305993
_cell_length_c 5.310235
_cell_angle_alpha 90.000000
_cell_angle_beta 90.000000
_cell_angle_gamma 90.000000
_cell_volume 2363.406583
_symmetry_space_group_name_H-M "P B C N"
_symmetry_group_IT_number 60
_symmetry_cell_setting 'orthorhombic'
loop_
_space_group_symop_operation_xyz
x,y,z
1/2-x,1/2-y,1/2+z
1/2+x,1/2-y,-z
-x,y,1/2-z
-x,-y,-z
1/2+x,1/2+y,1/2-z
1/2-x,1/2+y,z
x,-y,1/2+z
loop_
_atom_site_type_symbol
_atom_site_label
_atom_site_fract_x
_atom_site_fract_y
_atom_site_fract_z
Si Si1 0.934362 0.175315 0.141270
Si Si2 0.423881 0.813362 0.089713
Si Si3 0.934457 0.527573 0.929944
Si Si4 0.749497 0.162663 0.723738
Si Si5 0.591269 0.527519 0.340484
Si Si6 0.220199 0.022934 0.000753
Si Si7 0.186806 0.691639 0.270925
Si Si8 0.000000 0.233816 0.750000
O O1 0.906328 0.247385 0.237041
O O2 0.904147 0.106068 0.237871
O O3 0.000000 0.166458 0.250000
O O4 0.947129 0.186246 0.844965
O O5 0.378503 0.814348 0.860622
O O6 0.431494 0.893064 0.165503
O O7 0.483797 0.785619 0.972902
O O8 0.907179 0.481705 0.707329
O O9 0.000000 0.500000 0.000000
O O10 0.784487 0.098409 0.617807
O O11 0.789779 0.229751 0.718523
O O12 0.723694 0.156073 0.002499
O O13 0.699109 0.168300 0.512948
O O14 0.563032 0.516822 0.615024
O O15 0.655755 0.500664 0.412945
O O16 0.250173 0.018732 0.273636
#
# Coordination Sequence:
#
# PCOD9455396 Si02
#       8
#     8   8   8   8   8   8   8   4
#     4  10  24  40  61  94 125 172 217 272 322 376
#     4  11  24  42  67  94 130 172 227 278 330 410
#     4  10  23  39  63  88 121 166 210 265 328 388
#     4  10  21  42  61  96 128 160 211 267 332 386
#     4  10  23  40  63  93 131 172 220 260 317 391
#     4  10  20  38  63  90 122 168 208 253 312 383
#     4  10  23  39  67  93 126 166 209 271 331 389
#     4  10  24  40  64  92 130 168 224 276 326 380
#
# _framework density 25.387084000000002
#
# number of rings (size 3 to 8) (size 9 to 14) (size 15 to 20)
#    0.000    1.867    0.000    2.400   13.067    0.533 
#    4.800    4.000    0.000    0.000    0.000    0.000 
#    0.000    0.000    0.000    0.000    0.000    0.000 
#
# Total GULP energy -334735.161431 kJ/mol
# GULP energy per Si atom -5578.919357 kJ/mol
# Density = 2.532930 g / cm^3
# Si number density = 25.387084 Si / 1000 Ang^3
#
#
#
# Elastic Constant Matrix: (Units=GPa)
#
#
# Indices 1 2 3 4 5 6 
#
# 1 38.3851 3.3693 -12.4637 0.0000 0.0000 0.0000
# 2 3.3693 131.7036 78.9412 0.0000 0.0000 0.0000
# 3 -12.4637 78.9412 148.3776 0.0000 0.0000 0.0000
# 4 0.0000 0.0000 0.0000 55.4860 0.0000 0.0000
# 5 0.0000 0.0000 0.0000 0.0000 27.7195 0.0000
# 6 0.0000 0.0000 0.0000 0.0000 0.0000 23.8659
#
#
#
# Elastic Compliance Matrix: (Units=1/GPa)
#
#
# Indices 1 2 3 4 5 6 
#
# 1 0.027607 -0.003078 0.003956 0.000000 0.000000 0.000000
# 2 -0.003078 0.011491 -0.006372 0.000000 0.000000 0.000000
# 3 0.003956 -0.006372 0.010462 0.000000 0.000000 0.000000
# 4 0.000000 0.000000 0.000000 0.018023 0.000000 0.000000
# 5 0.000000 0.000000 0.000000 0.000000 0.036076 0.000000
# 6 0.000000 0.000000 0.000000 0.000000 0.000000 0.041901
#
#
# Mechanical properties :
#
#
# Convention : Reuss Voigt Hill
#
# Bulk Modulus (GPa) = 25.92501 50.90665 38.41583
# Shear Modulus (GPa) = 29.51555 37.98894 33.75224
#
# Velocity S-wave (km/s) = 3.41342 3.87251 3.65019
# Velocity P-wave (km/s) = 5.07635 6.33174 5.73848
#
# Compressibility (1/GPa) = 0.03857279
#
# Stress axis : x y z
#
# Youngs Moduli (GPa) = 36.22335 87.02612 95.58438
#
# Poissons Ratio (x) = 0.26783 -0.37816
# Poissons Ratio (y) = 0.11148 0.60906
# Poissons Ratio (z) = -0.14331 0.55453
#
# Static dielectric constant tensor:
#      x y z
#    x 2.087980 0.000000 0.000000 
#    y 0.000000 2.004290 0.000000 
#    z 0.000000 0.000000 2.303820 
# 
# From -- ./inp_files/2616.got.cif
#   From: 2010.05.17/outbox.cif.g08.bks.cpg/sg60_2_cif.got.tgz:2616.got - 2010.06.03 14:59:27.
