data_PCOD9455823
_publ_section_title
;
Structure prediction by ZEFSAII (Michael W. Deem and Ramdas Pophale) SiO2 
 PCOD9455823
Probable space group: P B C N
;
_chemical_formula_sum "Si O2"
_cell_formula_units_Z 60
_cell_length_a 25.596331
_cell_length_b 11.661346
_cell_length_c 8.620783
_cell_angle_alpha 90.000000
_cell_angle_beta 90.000000
_cell_angle_gamma 90.000000
_cell_volume 2573.197450
_symmetry_space_group_name_H-M "P B C N"
_symmetry_group_IT_number 60
_symmetry_cell_setting 'orthorhombic'
loop_
_space_group_symop_operation_xyz
x,y,z
1/2-x,1/2-y,1/2+z
1/2+x,1/2-y,-z
-x,y,1/2-z
-x,-y,-z
1/2+x,1/2+y,1/2-z
1/2-x,1/2+y,z
x,-y,1/2+z
loop_
_atom_site_type_symbol
_atom_site_label
_atom_site_fract_x
_atom_site_fract_y
_atom_site_fract_z
Si Si1 0.698779 0.339021 0.851732
Si Si2 0.909834 0.789302 0.169590
Si Si3 0.106886 0.342087 0.101955
Si Si4 0.684125 0.854297 0.810706
Si Si5 0.558573 0.618586 0.952945
Si Si6 0.652559 0.492260 0.579799
Si Si7 0.500000 0.572793 0.250000
Si Si8 0.360895 0.950076 0.389101
O O1 0.757477 0.307356 0.808611
O O2 0.675393 0.414964 0.713597
O O3 0.660859 0.231850 0.883756
O O4 0.694969 0.427626 0.996026
O O5 0.929111 0.739052 0.005091
O O6 0.857624 0.722152 0.220138
O O7 0.945723 0.784593 0.321203
O O8 0.892361 0.918814 0.133726
O O9 0.112200 0.456079 0.998911
O O10 0.099049 0.383909 0.276969
O O11 0.678253 0.978147 0.723986
O O12 0.668199 0.868526 0.990167
O O13 0.620210 0.591887 0.968780
O O14 0.536442 0.638018 0.125564
O O15 0.532424 0.509707 0.866354
#
# Coordination Sequence:
#
# PCOD9455823 Si02
#       8
#     8   8   8   8   8   8   4   8
#     4  11  22  33  53  82 115 169 212 242 301 351
#     4  10  21  37  54  82 122 157 201 251 299 368
#     4   9  21  35  54  75 105 153 204 255 299 345
#     4  10  21  35  54  77 116 159 221 255 290 340
#     4  11  20  40  58  90 121 160 196 240 320 374
#     4  11  21  37  54  83 127 164 195 252 299 362
#     4  10  22  36  68  86 116 166 192 244 306 426
#     4   9  19  38  51  70 106 152 206 272 288 317
#
# _framework density 23.317291999999998
#
# number of rings (size 3 to 8) (size 9 to 14) (size 15 to 20)
#    0.000    1.867    2.667    0.800    1.867    5.333 
#    0.000    0.000    0.000    0.000    0.000    0.000 
#    0.000   51.200    0.000    0.000    0.000    0.000 
#
# Total GULP energy -334845.559398 kJ/mol
# GULP energy per Si atom -5580.759323 kJ/mol
# Density = 2.326422 g / cm^3
# Si number density = 23.317292 Si / 1000 Ang^3
#
#
#
# Elastic Constant Matrix: (Units=GPa)
#
#
# Indices 1 2 3 4 5 6 
#
# 1 30.1236 10.9083 9.8344 0.0000 0.0000 0.0000
# 2 10.9083 73.1358 34.8739 0.0000 0.0000 0.0000
# 3 9.8344 34.8739 143.7760 0.0000 0.0000 0.0000
# 4 0.0000 0.0000 0.0000 42.0891 0.0000 0.0000
# 5 0.0000 0.0000 0.0000 0.0000 19.1965 0.0000
# 6 0.0000 0.0000 0.0000 0.0000 0.0000 10.0258
#
#
#
# Elastic Compliance Matrix: (Units=1/GPa)
#
#
# Indices 1 2 3 4 5 6 
#
# 1 0.035301 -0.004652 -0.001286 0.000000 0.000000 0.000000
# 2 -0.004652 0.016074 -0.003581 0.000000 0.000000 0.000000
# 3 -0.001286 -0.003581 0.007912 0.000000 0.000000 0.000000
# 4 0.000000 0.000000 0.000000 0.023759 0.000000 0.000000
# 5 0.000000 0.000000 0.000000 0.000000 0.052093 0.000000
# 6 0.000000 0.000000 0.000000 0.000000 0.000000 0.099743
#
#
# Mechanical properties :
#
#
# Convention : Reuss Voigt Hill
#
# Bulk Modulus (GPa) = 24.84506 39.80763 32.32634
# Shear Modulus (GPa) = 18.70303 27.02352 22.86328
#
# Velocity S-wave (km/s) = 2.83523 3.40803 3.13474
# Velocity P-wave (km/s) = 4.62562 5.70924 5.19576
#
# Compressibility (1/GPa) = 0.04024945
#
# Stress axis : x y z
#
# Youngs Moduli (GPa) = 28.32775 62.21039 126.39358
#
# Poissons Ratio (x) = 0.28939 0.16258
# Poissons Ratio (y) = 0.13178 0.45259
# Poissons Ratio (z) = 0.03644 0.22276
#
# Static dielectric constant tensor:
#      x y z
#    x 1.911950 0.000000 0.000000 
#    y 0.000000 1.928220 0.000000 
#    z 0.000000 0.000000 1.956390 
# 
# From -- ./inp_files/8467.got.cif
#   From: 2010.05.17/outbox.cif.g08.bks.cpg/sg60_5_cif.got.tgz:8467.got - 2010.06.03 14:59:27.
