data_PCOD9455072
_publ_section_title
;
Structure prediction by ZEFSAII (Michael W. Deem and Ramdas Pophale) SiO2 
 PCOD9455072
Probable space group: P B C N
;
_chemical_formula_sum "Si O2"
_cell_formula_units_Z 56
_cell_length_a 19.482790
_cell_length_b 8.391994
_cell_length_c 18.983235
_cell_angle_alpha 90.000000
_cell_angle_beta 90.000000
_cell_angle_gamma 90.000000
_cell_volume 3103.748610
_symmetry_space_group_name_H-M "P B C N"
_symmetry_group_IT_number 60
_symmetry_cell_setting 'orthorhombic'
loop_
_space_group_symop_operation_xyz
x,y,z
1/2-x,1/2-y,1/2+z
1/2+x,1/2-y,-z
-x,y,1/2-z
-x,-y,-z
1/2+x,1/2+y,1/2-z
1/2-x,1/2+y,z
x,-y,1/2+z
loop_
_atom_site_type_symbol
_atom_site_label
_atom_site_fract_x
_atom_site_fract_y
_atom_site_fract_z
Si Si1 0.663464 0.920527 0.191691
Si Si2 0.426989 0.602115 0.736624
Si Si3 0.442747 0.112401 0.689162
Si Si4 0.186948 0.946786 0.830753
Si Si5 0.548047 0.865616 0.643649
Si Si6 0.554058 0.435497 0.898266
Si Si7 0.412262 0.430727 0.443727
O O1 0.627652 0.920889 0.268836
O O2 0.676467 0.741017 0.168125
O O3 0.734996 0.012031 0.186393
O O4 0.607505 0.003741 0.142152
O O5 0.500000 0.514918 0.750000
O O6 0.362480 0.515651 0.770021
O O7 0.437014 0.761035 0.784553
O O8 0.423534 0.582451 0.652643
O O9 0.500000 0.143377 0.750000
O O10 0.434887 0.268039 0.641144
O O11 0.476300 0.960052 0.649255
O O12 0.156725 0.027233 0.901551
O O13 0.559531 0.741692 0.581051
O O14 0.473116 0.453526 0.916118
O O15 0.592198 0.441200 0.972806
#
# Coordination Sequence:
#
# PCOD9455072 Si02
#       7
#     8   8   8   8   8   8   8
#     4  11  22  35  62  86 107 153 191 252 289 349
#     4  11  18  34  60  85 112 151 184 249 281 341
#     4  10  20  35  59  92 117 147 194 252 286 341
#     4  11  21  37  58  82 115 145 206 233 296 347
#     4  10  21  34  60  88 119 146 198 239 298 337
#     4  11  20  35  58  88 123 151 192 232 307 336
#     4  10  22  35  57  88 120 161 187 240 291 364
#
# _framework density 18.042698999999999
#
# number of rings (size 3 to 8) (size 9 to 14) (size 15 to 20)
#    0.000    1.429    4.286    5.143    0.000    0.571 
#    0.000    0.000    6.286    0.000    0.000    0.000 
#    0.000    0.000    0.000    0.000    0.000    0.000 
#
# Total GULP energy -312119.845901 kJ/mol
# GULP energy per Si atom -5573.568677 kJ/mol
# Density = 1.800163 g / cm^3
# Si number density = 18.042699 Si / 1000 Ang^3
#
#
#
# Elastic Constant Matrix: (Units=GPa)
#
#
# Indices 1 2 3 4 5 6 
#
# 1 95.6960 14.3808 26.2661 0.0000 0.0000 0.0000
# 2 14.3808 76.5992 12.4959 0.0000 0.0000 0.0000
# 3 26.2661 12.4959 103.0314 0.0000 0.0000 0.0000
# 4 0.0000 0.0000 0.0000 18.9501 0.0000 0.0000
# 5 0.0000 0.0000 0.0000 0.0000 14.2124 0.0000
# 6 0.0000 0.0000 0.0000 0.0000 0.0000 25.8101
#
#
#
# Elastic Compliance Matrix: (Units=1/GPa)
#
#
# Indices 1 2 3 4 5 6 
#
# 1 0.011451 -0.001707 -0.002712 0.000000 0.000000 0.000000
# 2 -0.001707 0.013573 -0.001211 0.000000 0.000000 0.000000
# 3 -0.002712 -0.001211 0.010544 0.000000 0.000000 0.000000
# 4 0.000000 0.000000 0.000000 0.052770 0.000000 0.000000
# 5 0.000000 0.000000 0.000000 0.000000 0.070361 0.000000
# 6 0.000000 0.000000 0.000000 0.000000 0.000000 0.038745
#
#
# Mechanical properties :
#
#
# Convention : Reuss Voigt Hill
#
# Bulk Modulus (GPa) = 41.14019 42.40133 41.77076
# Shear Modulus (GPa) = 23.06204 26.60678 24.83441
#
# Velocity S-wave (km/s) = 3.57906 3.84429 3.71404
# Velocity P-wave (km/s) = 6.31907 6.57695 6.44930
#
# Compressibility (1/GPa) = 0.02430713
#
# Stress axis : x y z
#
# Youngs Moduli (GPa) = 87.33068 73.67546 94.84025
#
# Poissons Ratio (x) = 0.12579 0.25722
# Poissons Ratio (y) = 0.14910 0.11484
# Poissons Ratio (z) = 0.23685 0.08921
#
# Static dielectric constant tensor:
#      x y z
#    x 1.615740 0.000000 0.000000 
#    y 0.000000 1.669770 0.000000 
#    z 0.000000 0.000000 1.645310 
# 
# From -- ./inp_files/23059.got.cif
#   From: 2010.05.17/outbox.cif.g08.bks.cpg/sg60_12_cif.got.tgz:23059.got - 2010.06.03 14:59:27.
