data_PCOD9455109
_publ_section_title
;
Structure prediction by ZEFSAII (Michael W. Deem and Ramdas Pophale) SiO2 
 PCOD9455109
Probable space group: P B C N
;
_chemical_formula_sum "Si O2"
_cell_formula_units_Z 52
_cell_length_a 14.862446
_cell_length_b 20.503096
_cell_length_c 9.630017
_cell_angle_alpha 90.000000
_cell_angle_beta 90.000000
_cell_angle_gamma 90.000000
_cell_volume 2934.518074
_symmetry_space_group_name_H-M "P B C N"
_symmetry_group_IT_number 60
_symmetry_cell_setting 'orthorhombic'
loop_
_space_group_symop_operation_xyz
x,y,z
1/2-x,1/2-y,1/2+z
1/2+x,1/2-y,-z
-x,y,1/2-z
-x,-y,-z
1/2+x,1/2+y,1/2-z
1/2-x,1/2+y,z
x,-y,1/2+z
loop_
_atom_site_type_symbol
_atom_site_label
_atom_site_fract_x
_atom_site_fract_y
_atom_site_fract_z
Si Si1 0.500000 0.670526 0.250000
Si Si2 0.247117 0.138091 0.887164
Si Si3 0.694759 0.365679 0.794711
Si Si4 0.077724 0.961430 0.082061
Si Si5 0.696174 0.503159 0.169000
Si Si6 0.359147 0.257605 0.906937
Si Si7 0.090805 0.817098 0.181116
O O1 0.415106 0.628403 0.201653
O O2 0.541364 0.718711 0.135861
O O3 0.331397 0.185451 0.863608
O O4 0.162218 0.163509 0.798712
O O5 0.254478 0.062007 0.847565
O O6 0.225158 0.145926 0.049772
O O7 0.736328 0.432808 0.740218
O O8 0.703853 0.307394 0.682633
O O9 0.061943 0.884181 0.100373
O O10 0.109905 0.984404 0.234138
O O11 0.162494 0.973871 0.981381
O O12 0.000000 0.000000 0.000000
O O13 0.358371 0.271793 0.070174
O O14 0.000000 0.789789 0.250000
#
# Coordination Sequence:
#
# PCOD9455109 Si02
#       7
#     4   8   8   8   8   8   8
#     4   8  20  34  58  78 106 156 186 218 288 338
#     4  11  22  36  52  84 116 152 193 237 275 340
#     4  10  20  36  54  78 113 149 187 226 287 343
#     4  11  20  30  46  77 110 149 179 219 264 331
#     4  11  21  30  49  72 113 148 183 219 278 331
#     4  10  21  37  59  77 116 151 192 235 289 335
#     4  11  22  35  52  84 114 148 194 227 271 339
#
# _framework density 17.720116000000001
#
# number of rings (size 3 to 8) (size 9 to 14) (size 15 to 20)
#    0.923    0.615    3.077    4.154    4.308    0.000 
#    0.000    0.000    0.000    0.000    0.000    1.077 
#    2.308    0.000    0.000    0.000    0.000    0.000 
#
# Total GULP energy -289539.482092 kJ/mol
# GULP energy per Si atom -5568.066963 kJ/mol
# Density = 1.767978 g / cm^3
# Si number density = 17.720116 Si / 1000 Ang^3
#
#
#
# Elastic Constant Matrix: (Units=GPa)
#
#
# Indices 1 2 3 4 5 6 
#
# 1 18.6145 26.8424 11.0054 0.0000 0.0000 0.0000
# 2 26.8424 99.2147 33.7299 0.0000 0.0000 0.0000
# 3 11.0054 33.7299 95.1320 0.0000 0.0000 0.0000
# 4 0.0000 0.0000 0.0000 4.8434 0.0000 0.0000
# 5 0.0000 0.0000 0.0000 0.0000 15.6189 0.0000
# 6 0.0000 0.0000 0.0000 0.0000 0.0000 26.0998
#
#
#
# Elastic Compliance Matrix: (Units=1/GPa)
#
#
# Indices 1 2 3 4 5 6 
#
# 1 0.088417 -0.023246 -0.001987 0.000000 0.000000 0.000000
# 2 -0.023246 0.017572 -0.003541 0.000000 0.000000 0.000000
# 3 -0.001987 -0.003541 0.011997 0.000000 0.000000 0.000000
# 4 0.000000 0.000000 0.000000 0.206466 0.000000 0.000000
# 5 0.000000 0.000000 0.000000 0.000000 0.064025 0.000000
# 6 0.000000 0.000000 0.000000 0.000000 0.000000 0.038315
#
#
# Mechanical properties :
#
#
# Convention : Reuss Voigt Hill
#
# Bulk Modulus (GPa) = 16.54558 39.56852 28.05705
# Shear Modulus (GPa) = 9.91111 18.73798 14.32455
#
# Velocity S-wave (km/s) = 2.36755 3.25536 2.84628
# Velocity P-wave (km/s) = 4.10258 6.04219 5.16426
#
# Compressibility (1/GPa) = 0.06043911
#
# Stress axis : x y z
#
# Youngs Moduli (GPa) = 11.31008 56.90841 83.35361
#
# Poissons Ratio (x) = 1.32287 0.16559
# Poissons Ratio (y) = 0.26291 0.29517
# Poissons Ratio (z) = 0.02247 0.20152
#
# Static dielectric constant tensor:
#      x y z
#    x 1.590060 0.000000 0.000000 
#    y 0.000000 1.636380 0.000000 
#    z 0.000000 0.000000 1.671830 
# 
# From -- ./inp_files/6108.got.cif
#   From: 2010.05.17/outbox.cif.g08.bks.cpg/sg60_4_cif.got.tgz:6108.got - 2010.06.03 14:59:27.
