data_PCOD9455730
_publ_section_title
;
Structure prediction by ZEFSAII (Michael W. Deem and Ramdas Pophale) SiO2 
 PCOD9455730
Probable space group: P B C N
;
_chemical_formula_sum "Si O2"
_cell_formula_units_Z 40
_cell_length_a 10.408267
_cell_length_b 12.503563
_cell_length_c 14.991675
_cell_angle_alpha 90.000000
_cell_angle_beta 90.000000
_cell_angle_gamma 90.000000
_cell_volume 1951.022913
_symmetry_space_group_name_H-M "P B C N"
_symmetry_group_IT_number 60
_symmetry_cell_setting 'orthorhombic'
loop_
_space_group_symop_operation_xyz
x,y,z
1/2-x,1/2-y,1/2+z
1/2+x,1/2-y,-z
-x,y,1/2-z
-x,-y,-z
1/2+x,1/2+y,1/2-z
1/2-x,1/2+y,z
x,-y,1/2+z
loop_
_atom_site_type_symbol
_atom_site_label
_atom_site_fract_x
_atom_site_fract_y
_atom_site_fract_z
Si Si1 0.500000 0.785794 0.250000
Si Si2 0.267497 0.330450 0.814250
Si Si3 0.965051 0.840109 0.436865
Si Si4 0.897133 0.339723 0.070455
Si Si5 0.000000 0.734045 0.250000
Si Si6 0.696716 0.502340 0.037736
O O1 0.624041 0.707960 0.255323
O O2 0.483225 0.852581 0.340701
O O3 0.282189 0.234756 0.887561
O O4 0.126267 0.333028 0.774850
O O5 0.305302 0.436594 0.867199
O O6 0.964270 0.733483 0.497064
O O7 0.967289 0.807156 0.334711
O O8 0.085604 0.913598 0.462878
O O9 0.840627 0.910398 0.463894
O O10 0.833472 0.444806 0.030665
#
# Coordination Sequence:
#
# PCOD9455730 Si02
#       6
#     4   8   8   8   4   8
#     4   8  18  40  62  94 130 184 210 272 324 394
#     4   9  21  39  62  94 134 167 227 265 331 390
#     4  10  22  39  66  92 134 175 219 268 345 394
#     4   9  19  41  64  95 136 166 225 278 328 387
#     4  12  22  44  62 100 138 174 214 300 324 396
#     4  10  20  43  65  95 130 177 225 274 321 425
#
# _framework density 20.502065000000002
#
# number of rings (size 3 to 8) (size 9 to 14) (size 15 to 20)
#    1.200    1.200    2.000    0.000    0.000    3.200 
#    3.600    1.000    0.000    0.000    0.000    0.000 
#    0.000    0.000    0.000    0.000    0.000    0.000 
#
# Total GULP energy -222821.140475 kJ/mol
# GULP energy per Si atom -5570.528512 kJ/mol
# Density = 2.045540 g / cm^3
# Si number density = 20.502065 Si / 1000 Ang^3
#
#
#
# Elastic Constant Matrix: (Units=GPa)
#
#
# Indices 1 2 3 4 5 6 
#
# 1 95.2771 18.1662 34.1509 0.0000 0.0000 0.0000
# 2 18.1662 42.1920 29.3226 0.0000 0.0000 0.0000
# 3 34.1509 29.3226 127.9811 0.0000 0.0000 0.0000
# 4 0.0000 0.0000 0.0000 23.2869 0.0000 0.0000
# 5 0.0000 0.0000 0.0000 0.0000 18.9108 0.0000
# 6 0.0000 0.0000 0.0000 0.0000 0.0000 36.0219
#
#
#
# Elastic Compliance Matrix: (Units=1/GPa)
#
#
# Indices 1 2 3 4 5 6 
#
# 1 0.012027 -0.003506 -0.002406 0.000000 0.000000 0.000000
# 2 -0.003506 0.029212 -0.005757 0.000000 0.000000 0.000000
# 3 -0.002406 -0.005757 0.009775 0.000000 0.000000 0.000000
# 4 0.000000 0.000000 0.000000 0.042943 0.000000 0.000000
# 5 0.000000 0.000000 0.000000 0.000000 0.052880 0.000000
# 6 0.000000 0.000000 0.000000 0.000000 0.000000 0.027761
#
#
# Mechanical properties :
#
#
# Convention : Reuss Voigt Hill
#
# Bulk Modulus (GPa) = 36.13425 47.63664 41.88544
# Shear Modulus (GPa) = 24.13590 27.89795 26.01693
#
# Velocity S-wave (km/s) = 3.43482 3.69282 3.56615
# Velocity P-wave (km/s) = 5.77872 6.43957 6.11807
#
# Compressibility (1/GPa) = 0.02767458
#
# Stress axis : x y z
#
# Youngs Moduli (GPa) = 83.14925 34.23244 102.30427
#
# Poissons Ratio (x) = 0.12002 0.24613
# Poissons Ratio (y) = 0.29153 0.58900
# Poissons Ratio (z) = 0.20005 0.19709
#
# Static dielectric constant tensor:
#      x y z
#    x 1.776280 0.000000 0.000000 
#    y 0.000000 1.723290 0.000000 
#    z 0.000000 0.000000 1.719180 
# 
# From -- ./inp_files/15891.got.cif
#   From: 2010.05.17/outbox.cif.g08.bks.cpg/sg60_8_cif.got.tgz:15891.got - 2010.06.03 14:59:27.
