data_PCOD9455360
_publ_section_title
;
Structure prediction by ZEFSAII (Michael W. Deem and Ramdas Pophale) SiO2 
 PCOD9455360
Probable space group: P B C N
;
_chemical_formula_sum "Si O2"
_cell_formula_units_Z 40
_cell_length_a 9.664330
_cell_length_b 14.022277
_cell_length_c 13.897962
_cell_angle_alpha 90.000000
_cell_angle_beta 90.000000
_cell_angle_gamma 90.000000
_cell_volume 1883.394999
_symmetry_space_group_name_H-M "P B C N"
_symmetry_group_IT_number 60
_symmetry_cell_setting 'orthorhombic'
loop_
_space_group_symop_operation_xyz
x,y,z
1/2-x,1/2-y,1/2+z
1/2+x,1/2-y,-z
-x,y,1/2-z
-x,-y,-z
1/2+x,1/2+y,1/2-z
1/2-x,1/2+y,z
x,-y,1/2+z
loop_
_atom_site_type_symbol
_atom_site_label
_atom_site_fract_x
_atom_site_fract_y
_atom_site_fract_z
Si Si1 0.039973 0.505698 0.387772
Si Si2 0.760358 0.658169 0.571729
Si Si3 0.747886 0.927220 0.866577
Si Si4 0.513193 0.461705 0.136131
Si Si5 0.286358 0.636006 0.342477
O O1 0.137842 0.414795 0.372280
O O2 0.135174 0.596635 0.369135
O O3 0.000000 0.500000 0.500000
O O4 0.893053 0.518775 0.336904
O O5 0.778995 0.640473 0.457732
O O6 0.602501 0.624488 0.593082
O O7 0.797837 0.762046 0.608978
O O8 0.799056 0.868682 0.773682
O O9 0.860355 0.007325 0.896521
O O10 0.500000 0.443619 0.250000
O O11 0.603976 0.557634 0.121409
#
# Coordination Sequence:
#
# PCOD9455360 Si02
#       5
#     8   8   8   8   8
#     4   9  20  39  60  85 118 154 195 243 296 350
#     4  10  21  39  62  87 116 158 200 237 296 360
#     4  10  20  38  61  85 119 156 192 248 297 341
#     4   9  20  39  58  83 118 151 192 246 298 349
#     4  10  21  39  58  86 123 153 197 248 291 356
#
# _framework density 21.238242
#
# number of rings (size 3 to 8) (size 9 to 14) (size 15 to 20)
#    0.000    2.400    0.000    1.200    0.000    4.800 
#    0.000   40.000    0.000    0.000    0.000    0.000 
#    0.000    0.000    0.000    0.000    0.000    0.000 
#
# Total GULP energy -223264.651754 kJ/mol
# GULP energy per Si atom -5581.616294 kJ/mol
# Density = 2.118990 g / cm^3
# Si number density = 21.238242 Si / 1000 Ang^3
#
#
#
# Elastic Constant Matrix: (Units=GPa)
#
#
# Indices 1 2 3 4 5 6 
#
# 1 105.7722 -3.0972 -21.2247 0.0000 0.0000 0.0000
# 2 -3.0972 54.0189 1.0029 0.0000 0.0000 0.0000
# 3 -21.2247 1.0029 74.4653 0.0000 0.0000 0.0000
# 4 0.0000 0.0000 0.0000 25.8941 0.0000 0.0000
# 5 0.0000 0.0000 0.0000 0.0000 21.0060 0.0000
# 6 0.0000 0.0000 0.0000 0.0000 0.0000 9.7158
#
#
#
# Elastic Compliance Matrix: (Units=1/GPa)
#
#
# Indices 1 2 3 4 5 6 
#
# 1 0.010043 0.000523 0.002855 0.000000 0.000000 0.000000
# 2 0.000523 0.018544 -0.000101 0.000000 0.000000 0.000000
# 3 0.002855 -0.000101 0.014244 0.000000 0.000000 0.000000
# 4 0.000000 0.000000 0.000000 0.038619 0.000000 0.000000
# 5 0.000000 0.000000 0.000000 0.000000 0.047605 0.000000
# 6 0.000000 0.000000 0.000000 0.000000 0.000000 0.102926
#
#
# Mechanical properties :
#
#
# Convention : Reuss Voigt Hill
#
# Bulk Modulus (GPa) = 20.24884 20.84649 20.54767
# Shear Modulus (GPa) = 20.67076 28.49486 24.58281
#
# Velocity S-wave (km/s) = 3.12313 3.66686 3.40586
# Velocity P-wave (km/s) = 4.74975 5.26922 5.01621
#
# Compressibility (1/GPa) = 0.04938554
#
# Stress axis : x y z
#
# Youngs Moduli (GPa) = 99.57620 53.92615 70.20352
#
# Poissons Ratio (x) = -0.02819 -0.20046
# Poissons Ratio (y) = -0.05206 0.00707
# Poissons Ratio (z) = -0.28433 0.00543
#
# Static dielectric constant tensor:
#      x y z
#    x 1.830630 0.000000 0.000000 
#    y 0.000000 1.723990 0.000000 
#    z 0.000000 0.000000 1.836930 
# 
# From -- ./inp_files/14642.got.cif
#   From: 2010.05.17/outbox.cif.g08.bks.cpg/sg60_8_cif.got.tgz:14642.got - 2010.06.03 14:59:27.
