data_PCOD9455459
_publ_section_title
;
Structure prediction by ZEFSAII (Michael W. Deem and Ramdas Pophale) SiO2 
 PCOD9455459
Probable space group: P B C N
;
_chemical_formula_sum "Si O2"
_cell_formula_units_Z 40
_cell_length_a 7.986832
_cell_length_b 14.627892
_cell_length_c 14.578261
_cell_angle_alpha 90.000000
_cell_angle_beta 90.000000
_cell_angle_gamma 90.000000
_cell_volume 1703.185754
_symmetry_space_group_name_H-M "P B C N"
_symmetry_group_IT_number 60
_symmetry_cell_setting 'orthorhombic'
loop_
_space_group_symop_operation_xyz
x,y,z
1/2-x,1/2-y,1/2+z
1/2+x,1/2-y,-z
-x,y,1/2-z
-x,-y,-z
1/2+x,1/2+y,1/2-z
1/2-x,1/2+y,z
x,-y,1/2+z
loop_
_atom_site_type_symbol
_atom_site_label
_atom_site_fract_x
_atom_site_fract_y
_atom_site_fract_z
Si Si1 0.348681 0.335607 0.686875
Si Si2 0.852758 0.838323 0.322608
Si Si3 0.416859 0.279126 0.485104
Si Si4 0.137151 0.490777 0.636139
Si Si5 0.901296 0.388891 0.051101
O O1 0.500000 0.366158 0.750000
O O2 0.288176 0.233429 0.708599
O O3 0.415882 0.331037 0.582425
O O4 0.184538 0.399954 0.691872
O O5 0.000000 0.840218 0.250000
O O6 0.930773 0.801617 0.417809
O O7 0.778263 0.937297 0.338383
O O8 0.444148 0.172924 0.512599
O O9 0.248884 0.316539 0.435397
O O10 0.150548 0.456760 0.530691
O O11 0.964054 0.548486 0.635190
#
# Coordination Sequence:
#
# PCOD9455459 Si02
#       5
#     8   8   8   8   8
#     4  11  25  44  71 100 140 189 233 287 348 414
#     4  12  26  42  68 103 142 183 235 286 347 412
#     4  11  21  44  70 100 138 190 222 290 347 408
#     4  10  21  45  67 105 139 179 234 287 340 420
#     4  10  20  38  77  97 140 181 233 278 351 413
#
# _framework density 23.485401
#
# number of rings (size 3 to 8) (size 9 to 14) (size 15 to 20)
#    0.000    1.200    6.000    0.600    2.800    3.200 
#    0.000    5.000    0.000    0.000    0.000    0.000 
#    0.000    0.000    0.000    0.000    0.000    0.000 
#
# Total GULP energy -223424.709061 kJ/mol
# GULP energy per Si atom -5585.617727 kJ/mol
# Density = 2.343195 g / cm^3
# Si number density = 23.485401 Si / 1000 Ang^3
#
#
#
# Elastic Constant Matrix: (Units=GPa)
#
#
# Indices 1 2 3 4 5 6 
#
# 1 75.1205 15.3785 27.1564 0.0000 0.0000 0.0000
# 2 15.3785 111.9026 13.7086 0.0000 0.0000 0.0000
# 3 27.1564 13.7086 78.2533 0.0000 0.0000 0.0000
# 4 0.0000 0.0000 0.0000 4.2649 0.0000 0.0000
# 5 0.0000 0.0000 0.0000 0.0000 36.7955 0.0000
# 6 0.0000 0.0000 0.0000 0.0000 0.0000 19.0982
#
#
#
# Elastic Compliance Matrix: (Units=1/GPa)
#
#
# Indices 1 2 3 4 5 6 
#
# 1 0.015464 -0.001500 -0.005104 0.000000 0.000000 0.000000
# 2 -0.001500 0.009278 -0.001105 0.000000 0.000000 0.000000
# 3 -0.005104 -0.001105 0.014744 0.000000 0.000000 0.000000
# 4 0.000000 0.000000 0.000000 0.234471 0.000000 0.000000
# 5 0.000000 0.000000 0.000000 0.000000 0.027177 0.000000
# 6 0.000000 0.000000 0.000000 0.000000 0.000000 0.052361
#
#
# Mechanical properties :
#
#
# Convention : Reuss Voigt Hill
#
# Bulk Modulus (GPa) = 41.54790 41.97373 41.76081
# Shear Modulus (GPa) = 13.26490 25.96724 19.61607
#
# Velocity S-wave (km/s) = 2.37916 3.32878 2.89320
# Velocity P-wave (km/s) = 5.02758 5.71712 5.38340
#
# Compressibility (1/GPa) = 0.02406860
#
# Stress axis : x y z
#
# Youngs Moduli (GPa) = 64.66607 107.78399 67.82548
#
# Poissons Ratio (x) = 0.16167 0.34617
# Poissons Ratio (y) = 0.09700 0.07493
# Poissons Ratio (z) = 0.33004 0.11908
#
# Static dielectric constant tensor:
#      x y z
#    x 1.931680 0.000000 0.000000 
#    y 0.000000 1.872590 0.000000 
#    z 0.000000 0.000000 1.903220 
# 
# From -- ./inp_files/14635.got.cif
#   From: 2010.05.17/outbox.cif.g08.bks.cpg/sg60_8_cif.got.tgz:14635.got - 2010.06.03 14:59:27.
