data_PCOD9455123
_publ_section_title
;
Structure prediction by ZEFSAII (Michael W. Deem and Ramdas Pophale) SiO2 
 PCOD9455123
Probable space group: P B C N
;
_chemical_formula_sum "Si O2"
_cell_formula_units_Z 40
_cell_length_a 10.556051
_cell_length_b 12.161751
_cell_length_c 13.277884
_cell_angle_alpha 90.000000
_cell_angle_beta 90.000000
_cell_angle_gamma 90.000000
_cell_volume 1704.615595
_symmetry_space_group_name_H-M "P B C N"
_symmetry_group_IT_number 60
_symmetry_cell_setting 'orthorhombic'
loop_
_space_group_symop_operation_xyz
x,y,z
1/2-x,1/2-y,1/2+z
1/2+x,1/2-y,-z
-x,y,1/2-z
-x,-y,-z
1/2+x,1/2+y,1/2-z
1/2-x,1/2+y,z
x,-y,1/2+z
loop_
_atom_site_type_symbol
_atom_site_label
_atom_site_fract_x
_atom_site_fract_y
_atom_site_fract_z
Si Si1 0.897727 0.565457 0.433565
Si Si2 0.062160 0.147929 0.149545
Si Si3 0.164600 0.265970 0.720666
Si Si4 0.831846 0.067400 0.909257
Si Si5 0.185235 0.249118 0.421864
O O1 0.927125 0.649425 0.341187
O O2 0.806674 0.477394 0.381574
O O3 0.818284 0.639493 0.513939
O O4 0.000000 0.500000 0.500000
O O5 0.196609 0.202731 0.173855
O O6 0.000000 0.099141 0.250000
O O7 0.959123 0.237599 0.118019
O O8 0.085526 0.042535 0.079806
O O9 0.123496 0.148028 0.678726
O O10 0.205119 0.259801 0.837983
O O11 0.809836 0.142796 0.006324
#
# Coordination Sequence:
#
# PCOD9455123 Si02
#       5
#     8   8   8   8   8
#     4  10  21  37  59  85 115 154 199 246 303 367
#     4   9  18  34  57  81 110 148 189 236 298 360
#     4   9  20  37  55  82 116 150 195 246 297 360
#     4  10  20  36  57  82 114 152 197 243 297 365
#     4  10  20  36  58  84 115 150 192 249 303 356
#
# _framework density 23.465699999999998
#
# number of rings (size 3 to 8) (size 9 to 14) (size 15 to 20)
#    0.000    2.400    0.000    1.800    0.000    4.800 
#    0.000    9.000    0.000    0.000    0.000    0.000 
#    0.000    0.000    0.000    0.000    0.000    0.000 
#
# Total GULP energy -222801.259476 kJ/mol
# GULP energy per Si atom -5570.031487 kJ/mol
# Density = 2.341229 g / cm^3
# Si number density = 23.465700 Si / 1000 Ang^3
#
#
#
# Elastic Constant Matrix: (Units=GPa)
#
#
# Indices 1 2 3 4 5 6 
#
# 1 77.1001 22.2197 22.1994 0.0000 0.0000 0.0000
# 2 22.2197 83.3531 28.4560 0.0000 0.0000 0.0000
# 3 22.1994 28.4560 118.0579 0.0000 0.0000 0.0000
# 4 0.0000 0.0000 0.0000 13.4694 0.0000 0.0000
# 5 0.0000 0.0000 0.0000 0.0000 29.9924 0.0000
# 6 0.0000 0.0000 0.0000 0.0000 0.0000 6.7790
#
#
#
# Elastic Compliance Matrix: (Units=1/GPa)
#
#
# Indices 1 2 3 4 5 6 
#
# 1 0.014450 -0.003187 -0.001949 0.000000 0.000000 0.000000
# 2 -0.003187 0.013776 -0.002721 0.000000 0.000000 0.000000
# 3 -0.001949 -0.002721 0.009493 0.000000 0.000000 0.000000
# 4 0.000000 0.000000 0.000000 0.074242 0.000000 0.000000
# 5 0.000000 0.000000 0.000000 0.000000 0.033342 0.000000
# 6 0.000000 0.000000 0.000000 0.000000 0.000000 0.147513
#
#
# Mechanical properties :
#
#
# Convention : Reuss Voigt Hill
#
# Bulk Modulus (GPa) = 45.44511 47.14016 46.29264
# Shear Modulus (GPa) = 15.82961 23.75724 19.79342
#
# Velocity S-wave (km/s) = 2.60009 3.18531 2.90747
# Velocity P-wave (km/s) = 5.33129 5.80180 5.57151
#
# Compressibility (1/GPa) = 0.02200457
#
# Stress axis : x y z
#
# Youngs Moduli (GPa) = 69.20573 72.59215 105.34281
#
# Poissons Ratio (x) = 0.23132 0.20532
# Poissons Ratio (y) = 0.22053 0.28666
# Poissons Ratio (z) = 0.13488 0.19754
#
# Static dielectric constant tensor:
#      x y z
#    x 2.012990 0.000000 0.000000 
#    y 0.000000 1.861490 0.000000 
#    z 0.000000 0.000000 2.057030 
# 
# From -- ./inp_files/15821.got.cif
#   From: 2010.05.17/outbox.cif.g08.bks.cpg/sg60_8_cif.got.tgz:15821.got - 2010.06.03 14:59:27.
