data_PCOD9455496
_publ_section_title
;
Structure prediction by ZEFSAII (Michael W. Deem and Ramdas Pophale) SiO2 
 PCOD9455496
Probable space group: P B C N
;
_chemical_formula_sum "Si O2"
_cell_formula_units_Z 44
_cell_length_a 8.273806
_cell_length_b 23.264500
_cell_length_c 9.857052
_cell_angle_alpha 90.000000
_cell_angle_beta 90.000000
_cell_angle_gamma 90.000000
_cell_volume 1897.344114
_symmetry_space_group_name_H-M "P B C N"
_symmetry_group_IT_number 60
_symmetry_cell_setting 'orthorhombic'
loop_
_space_group_symop_operation_xyz
x,y,z
1/2-x,1/2-y,1/2+z
1/2+x,1/2-y,-z
-x,y,1/2-z
-x,-y,-z
1/2+x,1/2+y,1/2-z
1/2-x,1/2+y,z
x,-y,1/2+z
loop_
_atom_site_type_symbol
_atom_site_label
_atom_site_fract_x
_atom_site_fract_y
_atom_site_fract_z
Si Si1 0.500000 0.101387 0.750000
Si Si2 0.682560 0.312214 0.800458
Si Si3 0.240178 0.532667 0.955677
Si Si4 0.233284 0.818038 0.163025
Si Si5 0.800663 0.067198 0.238588
Si Si6 0.931684 0.134837 0.568174
O O1 0.606585 0.064412 0.641705
O O2 0.604263 0.145632 0.841540
O O3 0.500000 0.301306 0.750000
O O4 0.758492 0.250078 0.820781
O O5 0.756126 0.366597 0.721035
O O6 0.672789 0.341718 0.946364
O O7 0.253101 0.469987 0.891714
O O8 0.408789 0.566727 0.924979
O O9 0.228733 0.539263 0.120131
O O10 0.150437 0.840200 0.299759
O O11 0.108361 0.839602 0.051081
O O12 0.000000 0.068546 0.250000
#
# Coordination Sequence:
#
# PCOD9455496 Si02
#       6
#     4   8   8   8   8   8
#     4  10  22  38  64  92 128 168 202 278 316 392
#     4  10  21  37  59  90 128 157 204 255 320 362
#     4  10  22  42  65  94 125 164 223 258 331 375
#     4  10  20  39  62  90 123 165 208 253 317 384
#     4  10  22  40  64  92 124 168 213 273 309 394
#     4   9  22  38  63  93 119 167 214 253 307 391
#
# _framework density 23.190311999999999
#
# number of rings (size 3 to 8) (size 9 to 14) (size 15 to 20)
#    0.000    2.182    0.909    0.545    7.636    2.182 
#    0.000    1.818    0.000    0.000    0.000    0.000 
#    0.000    0.000    0.000    0.000    0.000    0.000 
#
# Total GULP energy -245273.405833 kJ/mol
# GULP energy per Si atom -5574.395587 kJ/mol
# Density = 2.313753 g / cm^3
# Si number density = 23.190312 Si / 1000 Ang^3
#
#
#
# Elastic Constant Matrix: (Units=GPa)
#
#
# Indices 1 2 3 4 5 6 
#
# 1 45.4853 44.5999 0.4346 0.0000 0.0000 0.0000
# 2 44.5999 136.3073 6.3754 0.0000 0.0000 0.0000
# 3 0.4346 6.3754 92.4276 0.0000 0.0000 0.0000
# 4 0.0000 0.0000 0.0000 31.5123 0.0000 0.0000
# 5 0.0000 0.0000 0.0000 0.0000 18.5571 0.0000
# 6 0.0000 0.0000 0.0000 0.0000 0.0000 32.2249
#
#
#
# Elastic Compliance Matrix: (Units=1/GPa)
#
#
# Indices 1 2 3 4 5 6 
#
# 1 0.032402 -0.010629 0.000581 0.000000 0.000000 0.000000
# 2 -0.010629 0.010847 -0.000698 0.000000 0.000000 0.000000
# 3 0.000581 -0.000698 0.010865 0.000000 0.000000 0.000000
# 4 0.000000 0.000000 0.000000 0.031734 0.000000 0.000000
# 5 0.000000 0.000000 0.000000 0.000000 0.053888 0.000000
# 6 0.000000 0.000000 0.000000 0.000000 0.000000 0.031032
#
#
# Mechanical properties :
#
#
# Convention : Reuss Voigt Hill
#
# Bulk Modulus (GPa) = 30.65565 41.89333 36.27449
# Shear Modulus (GPa) = 24.61441 31.31288 27.96365
#
# Velocity S-wave (km/s) = 3.26146 3.67857 3.47628
# Velocity P-wave (km/s) = 5.23743 6.01222 5.63815
#
# Compressibility (1/GPa) = 0.03262042
#
# Stress axis : x y z
#
# Youngs Moduli (GPa) = 30.86256 92.19265 92.04112
#
# Poissons Ratio (x) = 0.97992 -0.05346
# Poissons Ratio (y) = 0.32804 0.06426
# Poissons Ratio (z) = -0.01793 0.06437
#
# Static dielectric constant tensor:
#      x y z
#    x 1.993320 0.000000 0.000000 
#    y 0.000000 1.961470 0.000000 
#    z 0.000000 0.000000 1.193620 
# 
# From -- ./inp_files/10029.got.cif
#   From: 2010.05.17/outbox.cif.g08.bks.cpg/sg60_6_cif.got.tgz:10029.got - 2010.06.03 14:59:27.
