data_PCOD9455002
_publ_section_title
;
Structure prediction by ZEFSAII (Michael W. Deem and Ramdas Pophale) SiO2 
 PCOD9455002
Probable space group: P B C N
;
_chemical_formula_sum "Si O2"
_cell_formula_units_Z 44
_cell_length_a 11.839890
_cell_length_b 16.020613
_cell_length_c 13.451107
_cell_angle_alpha 90.000000
_cell_angle_beta 90.000000
_cell_angle_gamma 90.000000
_cell_volume 2551.436855
_symmetry_space_group_name_H-M "P B C N"
_symmetry_group_IT_number 60
_symmetry_cell_setting 'orthorhombic'
loop_
_space_group_symop_operation_xyz
x,y,z
1/2-x,1/2-y,1/2+z
1/2+x,1/2-y,-z
-x,y,1/2-z
-x,-y,-z
1/2+x,1/2+y,1/2-z
1/2-x,1/2+y,z
x,-y,1/2+z
loop_
_atom_site_type_symbol
_atom_site_label
_atom_site_fract_x
_atom_site_fract_y
_atom_site_fract_z
Si Si1 0.500000 0.983203 0.750000
Si Si2 0.111564 0.793870 0.386908
Si Si3 0.307385 0.966114 0.122319
Si Si4 0.710178 0.143431 0.461213
Si Si5 0.351328 0.310185 0.153342
Si Si6 0.954295 0.615082 0.046750
O O1 0.527489 0.926797 0.654298
O O2 0.609346 0.034662 0.782935
O O3 0.198236 0.847725 0.451938
O O4 0.144899 0.793398 0.271300
O O5 0.110038 0.701214 0.433067
O O6 0.979567 0.819472 0.386573
O O7 0.214218 0.895467 0.132946
O O8 0.265295 0.060653 0.104199
O O9 0.383840 0.941831 0.027327
O O10 0.705081 0.229108 0.397868
O O11 0.579690 0.132547 0.496176
#
# Coordination Sequence:
#
# PCOD9455002 Si02
#       6
#     4   8   8   8   8   8
#     4  10  20  34  58  84 116 146 190 236 284 322
#     4  10  20  38  60  77 117 150 184 224 290 349
#     4  11  22  35  60  87 113 143 194 238 278 331
#     4  10  20  37  58  82 114 144 187 236 278 328
#     4  10  22  38  56  84 111 154 186 225 286 344
#     4  10  20  37  57  89 109 147 187 240 283 329
#
# _framework density 17.245184999999999
#
# number of rings (size 3 to 8) (size 9 to 14) (size 15 to 20)
#    0.000    1.818    1.818    5.455    5.091    0.727 
#    0.000    0.000    0.000    2.182    0.000    0.000 
#    0.000    0.000    0.000    0.000    0.000    0.000 
#
# Total GULP energy -245374.779883 kJ/mol
# GULP energy per Si atom -5576.699543 kJ/mol
# Density = 1.720593 g / cm^3
# Si number density = 17.245185 Si / 1000 Ang^3
#
#
#
# Elastic Constant Matrix: (Units=GPa)
#
#
# Indices 1 2 3 4 5 6 
#
# 1 81.2817 53.4936 64.1552 0.0000 0.0000 0.0000
# 2 53.4936 88.8789 38.3541 0.0000 0.0000 0.0000
# 3 64.1552 38.3541 78.4405 0.0000 0.0000 0.0000
# 4 0.0000 0.0000 0.0000 22.2058 0.0000 0.0000
# 5 0.0000 0.0000 0.0000 0.0000 32.3622 0.0000
# 6 0.0000 0.0000 0.0000 0.0000 0.0000 33.5296
#
#
#
# Elastic Compliance Matrix: (Units=1/GPa)
#
#
# Indices 1 2 3 4 5 6 
#
# 1 0.045809 -0.014453 -0.030399 0.000000 0.000000 0.000000
# 2 -0.014453 0.018820 0.002618 0.000000 0.000000 0.000000
# 3 -0.030399 0.002618 0.036331 0.000000 0.000000 0.000000
# 4 0.000000 0.000000 0.000000 0.045033 0.000000 0.000000
# 5 0.000000 0.000000 0.000000 0.000000 0.030900 0.000000
# 6 0.000000 0.000000 0.000000 0.000000 0.000000 0.029824
#
#
# Mechanical properties :
#
#
# Convention : Reuss Voigt Hill
#
# Bulk Modulus (GPa) = 60.63275 62.28966 61.46121
# Shear Modulus (GPa) = 16.85303 23.79275 20.32289
#
# Velocity S-wave (km/s) = 3.12951 3.71843 3.43661
# Velocity P-wave (km/s) = 6.94939 7.39148 7.17384
#
# Compressibility (1/GPa) = 0.01649274
#
# Stress axis : x y z
#
# Youngs Moduli (GPa) = 21.82998 53.13523 27.52437
#
# Poissons Ratio (x) = 0.76794 0.83672
# Poissons Ratio (y) = 0.31550 -0.07207
# Poissons Ratio (z) = 0.66362 -0.13913
#
# Static dielectric constant tensor:
#      x y z
#    x 1.592500 0.000000 0.000000 
#    y 0.000000 1.601510 0.000000 
#    z 0.000000 0.000000 1.565880 
# 
# From -- ./inp_files/14897.got.cif
#   From: 2010.05.17/outbox.cif.g08.bks.cpg/sg60_8_cif.got.tgz:14897.got - 2010.06.03 14:59:27.
