data_PCOD9455791
_publ_section_title
;
Structure prediction by ZEFSAII (Michael W. Deem and Ramdas Pophale) SiO2 
 PCOD9455791
Probable space group: P B C N
;
_chemical_formula_sum "Si O2"
_cell_formula_units_Z 56
_cell_length_a 16.838522
_cell_length_b 20.768054
_cell_length_c 9.321221
_cell_angle_alpha 90.000000
_cell_angle_beta 90.000000
_cell_angle_gamma 90.000000
_cell_volume 3259.662062
_symmetry_space_group_name_H-M "P B C N"
_symmetry_group_IT_number 60
_symmetry_cell_setting 'orthorhombic'
loop_
_space_group_symop_operation_xyz
x,y,z
1/2-x,1/2-y,1/2+z
1/2+x,1/2-y,-z
-x,y,1/2-z
-x,-y,-z
1/2+x,1/2+y,1/2-z
1/2-x,1/2+y,z
x,-y,1/2+z
loop_
_atom_site_type_symbol
_atom_site_label
_atom_site_fract_x
_atom_site_fract_y
_atom_site_fract_z
Si Si1 0.202459 0.826591 0.922846
Si Si2 0.440254 0.016362 0.871876
Si Si3 0.345765 0.859588 0.464093
Si Si4 0.072061 0.265098 0.855407
Si Si5 0.270613 0.706868 0.752701
Si Si6 0.958047 0.235528 0.097239
Si Si7 0.662299 0.890349 0.698857
O O1 0.228721 0.773111 0.804331
O O2 0.107217 0.821082 0.920484
O O3 0.250187 0.889717 0.872186
O O4 0.233353 0.807216 0.082779
O O5 0.500000 0.039007 0.750000
O O6 0.388501 0.954974 0.820683
O O7 0.383401 0.073970 0.914449
O O8 0.500000 0.000000 0.000000
O O9 0.271067 0.843400 0.361076
O O10 0.407929 0.800709 0.439745
O O11 0.331446 0.868282 0.634539
O O12 0.137203 0.218590 0.786632
O O13 0.114968 0.333106 0.883205
O O14 0.000000 0.280115 0.750000
O O15 0.031154 0.232301 0.989261
O O16 0.000000 0.239017 0.250000
#
# Coordination Sequence:
#
# PCOD9455791 Si02
#       7
#     8   8   8   8   8   8   8
#     4  10  21  35  50  78 107 142 181 216 270 325
#     4  12  24  39  57  80 110 146 188 223 262 316
#     4  11  23  38  52  78 110 147 183 218 268 321
#     4  11  18  35  54  76 110 142 174 219 272 312
#     4  10  21  33  54  75 107 144 178 219 269 327
#     4  11  22  32  53  82 110 140 178 224 265 318
#     4  11  23  37  54  75 113 147 178 225 266 320
#
# _framework density 17.179694999999999
#
# number of rings (size 3 to 8) (size 9 to 14) (size 15 to 20)
#    0.000    1.143    4.286    4.286   12.000    0.000 
#    0.000    0.000    0.000    0.000    0.000    2.000 
#    0.000    0.000    0.000    0.000    0.000    0.000 
#
# Total GULP energy -312154.373204 kJ/mol
# GULP energy per Si atom -5574.185236 kJ/mol
# Density = 1.714059 g / cm^3
# Si number density = 17.179695 Si / 1000 Ang^3
#
#
#
# Elastic Constant Matrix: (Units=GPa)
#
#
# Indices 1 2 3 4 5 6 
#
# 1 83.8174 36.7474 29.1093 0.0000 0.0000 0.0000
# 2 36.7474 49.0285 4.8042 0.0000 0.0000 0.0000
# 3 29.1093 4.8042 81.1804 0.0000 0.0000 0.0000
# 4 0.0000 0.0000 0.0000 18.7866 0.0000 0.0000
# 5 0.0000 0.0000 0.0000 0.0000 38.4320 0.0000
# 6 0.0000 0.0000 0.0000 0.0000 0.0000 26.2122
#
#
#
# Elastic Compliance Matrix: (Units=1/GPa)
#
#
# Indices 1 2 3 4 5 6 
#
# 1 0.020741 -0.014904 -0.006555 0.000000 0.000000 0.000000
# 2 -0.014904 0.031224 0.003496 0.000000 0.000000 0.000000
# 3 -0.006555 0.003496 0.014462 0.000000 0.000000 0.000000
# 4 0.000000 0.000000 0.000000 0.053229 0.000000 0.000000
# 5 0.000000 0.000000 0.000000 0.000000 0.026020 0.000000
# 6 0.000000 0.000000 0.000000 0.000000 0.000000 0.038150
#
#
# Mechanical properties :
#
#
# Convention : Reuss Voigt Hill
#
# Bulk Modulus (GPa) = 32.78471 39.48314 36.13393
# Shear Modulus (GPa) = 21.74673 26.24387 23.99530
#
# Velocity S-wave (km/s) = 3.56172 3.91270 3.74133
# Velocity P-wave (km/s) = 6.00328 6.59126 6.30413
#
# Compressibility (1/GPa) = 0.03050202
#
# Stress axis : x y z
#
# Youngs Moduli (GPa) = 48.21277 32.02652 69.14701
#
# Poissons Ratio (x) = 0.47731 0.45328
# Poissons Ratio (y) = 0.71854 -0.24175
# Poissons Ratio (z) = 0.31605 -0.11197
#
# Static dielectric constant tensor:
#      x y z
#    x 1.626000 0.000000 0.000000 
#    y 0.000000 1.575710 0.000000 
#    z 0.000000 0.000000 1.486930 
# 
# From -- ./inp_files/6168.got.cif
#   From: 2010.05.17/outbox.cif.g08.bks.cpg/sg60_4_cif.got.tgz:6168.got - 2010.06.03 14:59:27.
