data_PCOD9455750
_publ_section_title
;
Structure prediction by ZEFSAII (Michael W. Deem and Ramdas Pophale) SiO2 
 PCOD9455750
Probable space group: P B C N
;
_chemical_formula_sum "Si O2"
_cell_formula_units_Z 36
_cell_length_a 16.724105
_cell_length_b 8.408558
_cell_length_c 11.955979
_cell_angle_alpha 90.000000
_cell_angle_beta 90.000000
_cell_angle_gamma 90.000000
_cell_volume 1681.316803
_symmetry_space_group_name_H-M "P B C N"
_symmetry_group_IT_number 60
_symmetry_cell_setting 'orthorhombic'
loop_
_space_group_symop_operation_xyz
x,y,z
1/2-x,1/2-y,1/2+z
1/2+x,1/2-y,-z
-x,y,1/2-z
-x,-y,-z
1/2+x,1/2+y,1/2-z
1/2-x,1/2+y,z
x,-y,1/2+z
loop_
_atom_site_type_symbol
_atom_site_label
_atom_site_fract_x
_atom_site_fract_y
_atom_site_fract_z
Si Si1 0.150724 0.804858 0.712973
Si Si2 0.500000 0.116134 0.750000
Si Si3 0.924618 0.373857 0.929883
Si Si4 0.324996 0.323072 0.244687
Si Si5 0.599093 0.807910 0.528040
O O1 0.231301 0.714564 0.746289
O O2 0.136251 0.776109 0.580418
O O3 0.074626 0.729935 0.775969
O O4 0.159843 0.990037 0.737165
O O5 0.464661 0.996982 0.658283
O O6 0.863710 0.264124 0.863271
O O7 0.002777 0.282541 0.973960
O O8 0.886338 0.501189 0.014966
O O9 0.366018 0.253726 0.356021
#
# Coordination Sequence:
#
# PCOD9455750 Si02
#       5
#     8   4   8   8   8
#     4  11  27  43  67 106 138 178 237 271 347 410
#     4  10  20  44  68 100 138 176 220 290 328 416
#     4  10  21  44  76  98 136 175 232 276 351 411
#     4  12  25  47  69  99 144 180 227 295 333 410
#     4  10  23  45  70 102 131 184 223 283 350 403
#
# _framework density 21.411787
#
# number of rings (size 3 to 8) (size 9 to 14) (size 15 to 20)
#    0.000    1.333    2.222    2.667    3.111    4.444 
#   16.000    0.000    0.000    0.000    0.000    0.000 
#    0.000    0.000    0.000    0.000    0.000    0.000 
#
# Total GULP energy -201257.778167 kJ/mol
# GULP energy per Si atom -5590.493838 kJ/mol
# Density = 2.136305 g / cm^3
# Si number density = 21.411787 Si / 1000 Ang^3
#
#
#
# Elastic Constant Matrix: (Units=GPa)
#
#
# Indices 1 2 3 4 5 6 
#
# 1 137.0118 57.8195 21.8807 0.0000 0.0000 0.0000
# 2 57.8195 126.7772 32.6573 0.0000 0.0000 0.0000
# 3 21.8807 32.6573 57.1055 0.0000 0.0000 0.0000
# 4 0.0000 0.0000 0.0000 38.2576 0.0000 0.0000
# 5 0.0000 0.0000 0.0000 0.0000 31.1349 0.0000
# 6 0.0000 0.0000 0.0000 0.0000 0.0000 31.6956
#
#
#
# Elastic Compliance Matrix: (Units=1/GPa)
#
#
# Indices 1 2 3 4 5 6 
#
# 1 0.009121 -0.003823 -0.001309 0.000000 0.000000 0.000000
# 2 -0.003823 0.010853 -0.004742 0.000000 0.000000 0.000000
# 3 -0.001309 -0.004742 0.020725 0.000000 0.000000 0.000000
# 4 0.000000 0.000000 0.000000 0.026139 0.000000 0.000000
# 5 0.000000 0.000000 0.000000 0.000000 0.032118 0.000000
# 6 0.000000 0.000000 0.000000 0.000000 0.000000 0.031550
#
#
# Mechanical properties :
#
#
# Convention : Reuss Voigt Hill
#
# Bulk Modulus (GPa) = 47.72812 60.62327 54.17569
# Shear Modulus (GPa) = 31.79952 34.12009 32.95980
#
# Velocity S-wave (km/s) = 3.85793 3.99622 3.92769
# Velocity P-wave (km/s) = 6.49491 7.04752 6.77685
#
# Compressibility (1/GPa) = 0.02095201
#
# Stress axis : x y z
#
# Youngs Moduli (GPa) = 109.63949 92.14308 48.25197
#
# Poissons Ratio (x) = 0.35223 0.06315
# Poissons Ratio (y) = 0.41911 0.22880
# Poissons Ratio (z) = 0.14348 0.43692
#
# Static dielectric constant tensor:
#      x y z
#    x 1.776960 0.000000 0.000000 
#    y 0.000000 1.751180 0.000000 
#    z 0.000000 0.000000 1.863750 
# 
# From -- ./inp_files/16550.got.cif
#   From: 2010.05.17/outbox.cif.g08.bks.cpg/sg60_9_cif.got.tgz:16550.got - 2010.06.03 14:59:27.
