data_PCOD9455467
_publ_section_title
;
Structure prediction by ZEFSAII (Michael W. Deem and Ramdas Pophale) SiO2 
 PCOD9455467
Probable space group: P B C N
;
_chemical_formula_sum "Si O2"
_cell_formula_units_Z 36
_cell_length_a 7.008639
_cell_length_b 16.124352
_cell_length_c 13.497915
_cell_angle_alpha 90.000000
_cell_angle_beta 90.000000
_cell_angle_gamma 90.000000
_cell_volume 1525.396165
_symmetry_space_group_name_H-M "P B C N"
_symmetry_group_IT_number 60
_symmetry_cell_setting 'orthorhombic'
loop_
_space_group_symop_operation_xyz
x,y,z
1/2-x,1/2-y,1/2+z
1/2+x,1/2-y,-z
-x,y,1/2-z
-x,-y,-z
1/2+x,1/2+y,1/2-z
1/2-x,1/2+y,z
x,-y,1/2+z
loop_
_atom_site_type_symbol
_atom_site_label
_atom_site_fract_x
_atom_site_fract_y
_atom_site_fract_z
Si Si1 0.735219 0.342329 0.954417
Si Si2 0.056120 0.767388 0.354936
Si Si3 0.500000 0.519560 0.750000
Si Si4 0.801689 0.974466 0.445495
Si Si5 0.676181 0.622866 0.125243
O O1 0.675138 0.323584 0.068082
O O2 0.806288 0.437699 0.942248
O O3 0.535077 0.340896 0.894613
O O4 0.879698 0.273823 0.913863
O O5 0.192118 0.690635 0.325957
O O6 0.000000 0.806055 0.250000
O O7 0.634047 0.555033 0.837690
O O8 0.354374 0.458384 0.808925
O O9 0.732857 0.903111 0.518901
O O10 0.000000 0.000000 0.500000
#
# Coordination Sequence:
#
# PCOD9455467 Si02
#       5
#     8   8   4   8   8
#     4  10  21  40  55  88 120 150 200 249 282 354
#     4  12  23  38  64  85 118 163 195 239 304 351
#     4   8  14  32  60  82 112 152 194 228 296 354
#     4   8  17  34  57  83 115 152 188 246 289 341
#     4  10  20  39  58  86 115 156 195 246 291 349
#
# _framework density 23.600427
#
# number of rings (size 3 to 8) (size 9 to 14) (size 15 to 20)
#    0.000    2.667    2.222    2.667    0.000    0.889 
#   18.000    0.000    0.000    0.000    0.000    0.000 
#    0.000    0.000    0.000    0.000    0.000    0.000 
#
# Total GULP energy -200925.039782 kJ/mol
# GULP energy per Si atom -5581.251105 kJ/mol
# Density = 2.354671 g / cm^3
# Si number density = 23.600427 Si / 1000 Ang^3
#
#
#
# Elastic Constant Matrix: (Units=GPa)
#
#
# Indices 1 2 3 4 5 6 
#
# 1 60.7409 8.7519 4.1366 0.0000 0.0000 0.0000
# 2 8.7519 68.0795 33.8431 0.0000 0.0000 0.0000
# 3 4.1366 33.8431 156.1701 0.0000 0.0000 0.0000
# 4 0.0000 0.0000 0.0000 28.7161 0.0000 0.0000
# 5 0.0000 0.0000 0.0000 0.0000 19.7187 0.0000
# 6 0.0000 0.0000 0.0000 0.0000 0.0000 21.8000
#
#
#
# Elastic Compliance Matrix: (Units=1/GPa)
#
#
# Indices 1 2 3 4 5 6 
#
# 1 0.016774 -0.002169 0.000026 0.000000 0.000000 0.000000
# 2 -0.002169 0.016743 -0.003571 0.000000 0.000000 0.000000
# 3 0.000026 -0.003571 0.007176 0.000000 0.000000 0.000000
# 4 0.000000 0.000000 0.000000 0.034824 0.000000 0.000000
# 5 0.000000 0.000000 0.000000 0.000000 0.050713 0.000000
# 6 0.000000 0.000000 0.000000 0.000000 0.000000 0.045872
#
#
# Mechanical properties :
#
#
# Convention : Reuss Voigt Hill
#
# Bulk Modulus (GPa) = 34.17074 42.05040 38.11057
# Shear Modulus (GPa) = 25.86852 29.93089 27.89971
#
# Velocity S-wave (km/s) = 3.31434 3.56509 3.44200
# Velocity P-wave (km/s) = 5.39970 5.89939 5.65507
#
# Compressibility (1/GPa) = 0.02926480
#
# Stress axis : x y z
#
# Youngs Moduli (GPa) = 59.61548 59.72775 139.34563
#
# Poissons Ratio (x) = 0.12956 -0.00359
# Poissons Ratio (y) = 0.12932 0.49757
# Poissons Ratio (z) = -0.00154 0.21327
#
# Static dielectric constant tensor:
#      x y z
#    x 1.884560 0.000000 0.000000 
#    y 0.000000 2.030330 0.000000 
#    z 0.000000 0.000000 1.975490 
# 
# From -- ./inp_files/9898.got.cif
#   From: 2010.05.17/outbox.cif.g08.bks.cpg/sg60_5_cif.got.tgz:9898.got - 2010.06.03 14:59:27.
