data_PCOD9455520
_publ_section_title
;
Structure prediction by ZEFSAII (Michael W. Deem and Ramdas Pophale) SiO2 
 PCOD9455520
Probable space group: P B C N
;
_chemical_formula_sum "Si O2"
_cell_formula_units_Z 40
_cell_length_a 8.768868
_cell_length_b 13.905984
_cell_length_c 13.963617
_cell_angle_alpha 90.000000
_cell_angle_beta 90.000000
_cell_angle_gamma 90.000000
_cell_volume 1702.719800
_symmetry_space_group_name_H-M "P B C N"
_symmetry_group_IT_number 60
_symmetry_cell_setting 'orthorhombic'
loop_
_space_group_symop_operation_xyz
x,y,z
1/2-x,1/2-y,1/2+z
1/2+x,1/2-y,-z
-x,y,1/2-z
-x,-y,-z
1/2+x,1/2+y,1/2-z
1/2-x,1/2+y,z
x,-y,1/2+z
loop_
_atom_site_type_symbol
_atom_site_label
_atom_site_fract_x
_atom_site_fract_y
_atom_site_fract_z
Si Si1 0.589328 0.129877 0.532567
Si Si2 0.411181 0.500525 0.664943
Si Si3 0.232755 0.443113 0.995587
Si Si4 0.345230 0.857843 0.690128
Si Si5 0.636396 0.315177 0.652867
O O1 0.428372 0.076431 0.545600
O O2 0.622651 0.161284 0.421883
O O3 0.585002 0.219063 0.602631
O O4 0.719104 0.049190 0.550351
O O5 0.500000 0.553689 0.750000
O O6 0.373708 0.557766 0.568823
O O7 0.245333 0.459822 0.695181
O O8 0.512806 0.402923 0.650384
O O9 0.239050 0.361885 0.916483
O O10 0.500000 0.858047 0.750000
O O11 0.219542 0.793526 0.746447
#
# Coordination Sequence:
#
# PCOD9455520 Si02
#       5
#     8   8   8   8   8
#     4  10  23  40  68 100 133 176 231 275 341 420
#     4   9  21  39  65  95 137 170 222 285 334 399
#     4  10  21  40  67  96 129 178 228 274 343 407
#     4  10  20  39  65  95 132 176 214 283 341 390
#     4  11  22  41  70  94 135 180 219 285 343 407
#
# _framework density 23.491828000000002
#
# number of rings (size 3 to 8) (size 9 to 14) (size 15 to 20)
#    0.000    2.000    2.000    0.600    5.600    0.000 
#    0.000    7.000    8.800    0.000    0.000    0.000 
#    0.000    0.000    0.000    0.000    0.000    0.000 
#
# Total GULP energy -223073.710259 kJ/mol
# GULP energy per Si atom -5576.842756 kJ/mol
# Density = 2.343836 g / cm^3
# Si number density = 23.491828 Si / 1000 Ang^3
#
#
#
# Elastic Constant Matrix: (Units=GPa)
#
#
# Indices 1 2 3 4 5 6 
#
# 1 82.9550 6.7350 39.4334 0.0000 0.0000 0.0000
# 2 6.7350 53.5816 16.8757 0.0000 0.0000 0.0000
# 3 39.4334 16.8757 85.0339 0.0000 0.0000 0.0000
# 4 0.0000 0.0000 0.0000 29.2056 0.0000 0.0000
# 5 0.0000 0.0000 0.0000 0.0000 23.6779 0.0000
# 6 0.0000 0.0000 0.0000 0.0000 0.0000 17.2823
#
#
#
# Elastic Compliance Matrix: (Units=1/GPa)
#
#
# Indices 1 2 3 4 5 6 
#
# 1 0.015469 0.000336 -0.007240 0.000000 0.000000 0.000000
# 2 0.000336 0.019915 -0.004108 0.000000 0.000000 0.000000
# 3 -0.007240 -0.004108 0.015933 0.000000 0.000000 0.000000
# 4 0.000000 0.000000 0.000000 0.034240 0.000000 0.000000
# 5 0.000000 0.000000 0.000000 0.000000 0.042233 0.000000
# 6 0.000000 0.000000 0.000000 0.000000 0.000000 0.057863
#
#
# Mechanical properties :
#
#
# Convention : Reuss Voigt Hill
#
# Bulk Modulus (GPa) = 34.13901 38.62876 36.38389
# Shear Modulus (GPa) = 22.99467 24.60160 23.79813
#
# Velocity S-wave (km/s) = 3.13203 3.23962 3.18628
# Velocity P-wave (km/s) = 5.25769 5.52021 5.39055
#
# Compressibility (1/GPa) = 0.02929200
#
# Stress axis : x y z
#
# Youngs Moduli (GPa) = 64.64455 50.21407 62.76324
#
# Poissons Ratio (x) = -0.01687 0.45443
# Poissons Ratio (y) = -0.02172 0.25783
# Poissons Ratio (z) = 0.46805 0.20628
#
# Static dielectric constant tensor:
#      x y z
#    x 1.937290 0.000000 0.000000 
#    y 0.000000 1.870390 0.000000 
#    z 0.000000 0.000000 2.072900 
# 
# From -- ./inp_files/14636.got.cif
#   From: 2010.05.17/outbox.cif.g08.bks.cpg/sg60_8_cif.got.tgz:14636.got - 2010.06.03 14:59:27.
