data_PCOD9455605
_publ_section_title
;
Structure prediction by ZEFSAII (Michael W. Deem and Ramdas Pophale) SiO2 
 PCOD9455605
Probable space group: P B C N
;
_chemical_formula_sum "Si O2"
_cell_formula_units_Z 60
_cell_length_a 8.893627
_cell_length_b 27.653252
_cell_length_c 11.151392
_cell_angle_alpha 90.000000
_cell_angle_beta 90.000000
_cell_angle_gamma 90.000000
_cell_volume 2742.547796
_symmetry_space_group_name_H-M "P B C N"
_symmetry_group_IT_number 60
_symmetry_cell_setting 'orthorhombic'
loop_
_space_group_symop_operation_xyz
x,y,z
1/2-x,1/2-y,1/2+z
1/2+x,1/2-y,-z
-x,y,1/2-z
-x,-y,-z
1/2+x,1/2+y,1/2-z
1/2-x,1/2+y,z
x,-y,1/2+z
loop_
_atom_site_type_symbol
_atom_site_label
_atom_site_fract_x
_atom_site_fract_y
_atom_site_fract_z
Si Si1 0.249489 0.613685 0.782236
Si Si2 0.658383 0.016019 0.436931
Si Si3 0.898583 0.659567 0.070237
Si Si4 0.718226 0.185349 0.319186
Si Si5 0.871503 0.106186 0.460246
Si Si6 0.500000 0.958181 0.250000
Si Si7 0.806430 0.076668 0.985519
Si Si8 0.144899 0.714306 0.677661
O O1 0.105368 0.580385 0.819997
O O2 0.309975 0.592000 0.656179
O O3 0.202071 0.668349 0.753403
O O4 0.354407 0.614409 0.897078
O O5 0.739960 0.067387 0.428519
O O6 0.500000 0.000000 0.500000
O O7 0.620432 0.994093 0.307397
O O8 0.777863 0.979974 0.496294
O O9 0.791231 0.677112 0.177288
O O10 0.065270 0.664599 0.122322
O O11 0.837095 0.606637 0.034997
O O12 0.891695 0.692410 0.952250
O O13 0.845496 0.154528 0.384822
O O14 0.738699 0.242266 0.338291
O O15 0.041723 0.088931 0.445737
O O16 0.000000 0.733333 0.750000
#
# Coordination Sequence:
#
# PCOD9455605 Si02
#       8
#     8   8   8   8   8   4   8   8
#     4  10  21  42  69 100 136 177 237 290 347 416
#     4  11  22  40  67  98 135 180 229 280 351 424
#     4  10  25  49  63  98 137 181 229 287 345 426
#     4  11  27  43  68  97 139 181 229 283 360 416
#     4  12  24  41  68 104 139 180 228 294 352 418
#     4  10  20  40  68 104 130 182 236 282 350 430
#     4  10  24  43  68  97 140 178 232 289 346 416
#     4  11  24  41  75  99 134 180 235 290 344 413
#
# _framework density 21.877468
#
# number of rings (size 3 to 8) (size 9 to 14) (size 15 to 20)
#    0.000    1.333    2.000    2.400    7.467    3.200 
#    4.800    0.000    0.000    0.000    0.000    0.000 
#    0.000    0.000    0.000    0.000    0.000    0.000 
#
# Total GULP energy -334817.598161 kJ/mol
# GULP energy per Si atom -5580.293303 kJ/mol
# Density = 2.182767 g / cm^3
# Si number density = 21.877468 Si / 1000 Ang^3
#
#
#
# Elastic Constant Matrix: (Units=GPa)
#
#
# Indices 1 2 3 4 5 6 
#
# 1 69.3980 11.8973 3.6588 0.0000 0.0000 0.0000
# 2 11.8973 97.0452 26.8987 0.0000 0.0000 0.0000
# 3 3.6588 26.8987 33.2614 0.0000 0.0000 0.0000
# 4 0.0000 0.0000 0.0000 3.9419 0.0000 0.0000
# 5 0.0000 0.0000 0.0000 0.0000 15.2249 0.0000
# 6 0.0000 0.0000 0.0000 0.0000 0.0000 22.7404
#
#
#
# Elastic Compliance Matrix: (Units=1/GPa)
#
#
# Indices 1 2 3 4 5 6 
#
# 1 0.014720 -0.001748 -0.000206 0.000000 0.000000 0.000000
# 2 -0.001748 0.013489 -0.010716 0.000000 0.000000 0.000000
# 3 -0.000206 -0.010716 0.038754 0.000000 0.000000 0.000000
# 4 0.000000 0.000000 0.000000 0.253683 0.000000 0.000000
# 5 0.000000 0.000000 0.000000 0.000000 0.065682 0.000000
# 6 0.000000 0.000000 0.000000 0.000000 0.000000 0.043975
#
#
# Mechanical properties :
#
#
# Convention : Reuss Voigt Hill
#
# Bulk Modulus (GPa) = 24.02509 31.62380 27.82445
# Shear Modulus (GPa) = 10.64925 18.86476 14.75701
#
# Velocity S-wave (km/s) = 2.20868 2.93967 2.59999
# Velocity P-wave (km/s) = 4.18447 5.09986 4.66467
#
# Compressibility (1/GPa) = 0.04162316
#
# Stress axis : x y z
#
# Youngs Moduli (GPa) = 67.93444 74.13406 25.80381
#
# Poissons Ratio (x) = 0.12955 0.00532
# Poissons Ratio (y) = 0.11872 0.27653
# Poissons Ratio (z) = 0.01399 0.79445
#
# Static dielectric constant tensor:
#      x y z
#    x 1.845480 0.000000 0.000000 
#    y 0.000000 1.777060 0.000000 
#    z 0.000000 0.000000 1.917450 
# 
# From -- ./inp_files/10318.got.cif
#   From: 2010.05.17/outbox.cif.g08.bks.cpg/sg60_6_cif.got.tgz:10318.got - 2010.06.03 14:59:27.
