data_PCOD9455866
_publ_section_title
;
Structure prediction by ZEFSAII (Michael W. Deem and Ramdas Pophale) SiO2 
 PCOD9455866
Probable space group: P B C N
;
_chemical_formula_sum "Si O2"
_cell_formula_units_Z 56
_cell_length_a 14.628600
_cell_length_b 12.507137
_cell_length_c 15.150254
_cell_angle_alpha 90.000000
_cell_angle_beta 90.000000
_cell_angle_gamma 90.000000
_cell_volume 2771.919323
_symmetry_space_group_name_H-M "P B C N"
_symmetry_group_IT_number 60
_symmetry_cell_setting 'orthorhombic'
loop_
_space_group_symop_operation_xyz
x,y,z
1/2-x,1/2-y,1/2+z
1/2+x,1/2-y,-z
-x,y,1/2-z
-x,-y,-z
1/2+x,1/2+y,1/2-z
1/2-x,1/2+y,z
x,-y,1/2+z
loop_
_atom_site_type_symbol
_atom_site_label
_atom_site_fract_x
_atom_site_fract_y
_atom_site_fract_z
Si Si1 0.341573 0.697043 0.981459
Si Si2 0.403253 0.481061 0.043925
Si Si3 0.055915 0.744166 0.008240
Si Si4 0.286232 0.653478 0.792778
Si Si5 0.087931 0.712495 0.803731
Si Si6 0.298925 0.195122 0.132163
Si Si7 0.847385 0.939089 0.771447
O O1 0.302751 0.715618 0.884161
O O2 0.338762 0.568321 0.997968
O O3 0.446897 0.736682 0.981911
O O4 0.279405 0.736813 0.062872
O O5 0.405547 0.516423 0.146013
O O6 0.500000 0.500000 0.000000
O O7 0.390899 0.356084 0.028099
O O8 0.071295 0.711459 0.907790
O O9 0.110109 0.668155 0.076484
O O10 0.177651 0.645341 0.781508
O O11 0.321035 0.719075 0.708225
O O12 0.332261 0.537783 0.793137
O O13 0.109888 0.834524 0.772927
O O14 0.000000 0.676392 0.750000
O O15 0.248205 0.099335 0.184372
#
# Coordination Sequence:
#
# PCOD9455866 Si02
#       7
#     8   8   8   8   8   8   8
#     4  10  21  36  58  89 120 153 201 246 310 361
#     4   9  17  32  54  87 119 147 187 248 302 358
#     4  11  19  36  59  85 121 156 193 248 305 366
#     4  11  21  38  62  87 122 162 196 253 304 361
#     4  11  22  38  63  88 119 161 207 248 307 370
#     4  10  21  38  56  87 120 157 197 247 302 362
#     4  10  21  36  58  87 123 154 203 251 295 367
#
# _framework density 20.202608000000001
#
# number of rings (size 3 to 8) (size 9 to 14) (size 15 to 20)
#    0.000    1.714    2.857    4.286    0.000    1.714 
#    0.000    0.000    6.286    1.714    0.000    0.000 
#    0.000    0.000    0.000    0.000    0.000    0.000 
#
# Total GULP energy -312234.468606 kJ/mol
# GULP energy per Si atom -5575.615511 kJ/mol
# Density = 2.015663 g / cm^3
# Si number density = 20.202608 Si / 1000 Ang^3
#
#
#
# Elastic Constant Matrix: (Units=GPa)
#
#
# Indices 1 2 3 4 5 6 
#
# 1 46.8304 -6.4491 0.3810 0.0000 0.0000 0.0000
# 2 -6.4491 9.4415 -10.4977 0.0000 0.0000 0.0000
# 3 0.3810 -10.4977 107.2141 0.0000 0.0000 0.0000
# 4 0.0000 0.0000 0.0000 16.9631 0.0000 0.0000
# 5 0.0000 0.0000 0.0000 0.0000 33.9756 0.0000
# 6 0.0000 0.0000 0.0000 0.0000 0.0000 15.8936
#
#
#
# Elastic Compliance Matrix: (Units=1/GPa)
#
#
# Indices 1 2 3 4 5 6 
#
# 1 0.023842 0.018169 0.001694 0.000000 0.000000 0.000000
# 2 0.018169 0.132701 0.012929 0.000000 0.000000 0.000000
# 3 0.001694 0.012929 0.010587 0.000000 0.000000 0.000000
# 4 0.000000 0.000000 0.000000 0.058951 0.000000 0.000000
# 5 0.000000 0.000000 0.000000 0.000000 0.029433 0.000000
# 6 0.000000 0.000000 0.000000 0.000000 0.000000 0.062918
#
#
# Mechanical properties :
#
#
# Convention : Reuss Voigt Hill
#
# Bulk Modulus (GPa) = 4.29711 14.48382 9.39047
# Shear Modulus (GPa) = 15.13227 25.36992 20.25109
#
# Velocity S-wave (km/s) = 2.73980 3.54754 3.16950
# Velocity P-wave (km/s) = 3.48429 4.89539 4.24883
#
# Compressibility (1/GPa) = 0.23271464
#
# Stress axis : x y z
#
# Youngs Moduli (GPa) = 41.94281 7.53574 94.45544
#
# Poissons Ratio (x) = -0.13692 -0.16004
# Poissons Ratio (y) = -0.76207 -1.22118
# Poissons Ratio (z) = -0.07106 -0.09743
#
# Static dielectric constant tensor:
#      x y z
#    x 1.734200 0.000000 0.000000 
#    y 0.000000 1.769140 0.000000 
#    z 0.000000 0.000000 1.725900 
# 
# From -- ./inp_files/16181.got.cif
#   From: 2010.05.17/outbox.cif.g08.bks.cpg/sg60_9_cif.got.tgz:16181.got - 2010.06.03 14:59:27.
