data_PCOD9455632
_publ_section_title
;
Structure prediction by ZEFSAII (Michael W. Deem and Ramdas Pophale) SiO2 
 PCOD9455632
Probable space group: P B C N
;
_chemical_formula_sum "Si O2"
_cell_formula_units_Z 56
_cell_length_a 21.412341
_cell_length_b 11.787382
_cell_length_c 11.472025
_cell_angle_alpha 90.000000
_cell_angle_beta 90.000000
_cell_angle_gamma 90.000000
_cell_volume 2895.486831
_symmetry_space_group_name_H-M "P B C N"
_symmetry_group_IT_number 60
_symmetry_cell_setting 'orthorhombic'
loop_
_space_group_symop_operation_xyz
x,y,z
1/2-x,1/2-y,1/2+z
1/2+x,1/2-y,-z
-x,y,1/2-z
-x,-y,-z
1/2+x,1/2+y,1/2-z
1/2-x,1/2+y,z
x,-y,1/2+z
loop_
_atom_site_type_symbol
_atom_site_label
_atom_site_fract_x
_atom_site_fract_y
_atom_site_fract_z
Si Si1 0.292582 0.578290 0.554227
Si Si2 0.327119 0.139793 0.401088
Si Si3 0.752450 0.283722 0.242485
Si Si4 0.430006 0.804526 0.212693
Si Si5 0.575261 0.005837 0.980385
Si Si6 0.649553 0.200758 0.553688
Si Si7 0.849173 0.165931 0.422067
O O1 0.229147 0.582553 0.476418
O O2 0.274279 0.611249 0.686091
O O3 0.335985 0.680439 0.507645
O O4 0.328007 0.460089 0.552789
O O5 0.297215 0.184106 0.282575
O O6 0.388215 0.062191 0.409059
O O7 0.345460 0.256905 0.464323
O O8 0.784446 0.323599 0.121128
O O9 0.802003 0.224613 0.329252
O O10 0.500000 0.820488 0.250000
O O11 0.411794 0.910443 0.128957
O O12 0.394488 0.793813 0.334034
O O13 0.415734 0.691712 0.137361
O O14 0.500000 0.000000 0.000000
O O15 0.613867 0.888377 0.970705
#
# Coordination Sequence:
#
# PCOD9455632 Si02
#       7
#     8   8   8   8   8   8   8
#     4  10  21  37  59  86 124 154 198 255 303 378
#     4   9  21  34  56  86 117 155 192 245 304 366
#     4   9  20  35  56  91 118 154 194 248 311 374
#     4  10  20  41  61  83 118 160 205 248 309 366
#     4  11  22  37  62  88 120 161 207 254 298 372
#     4  10  22  38  60  92 117 158 201 249 315 364
#     4   9  20  36  56  85 114 154 198 245 306 361
#
# _framework density 19.340444000000002
#
# number of rings (size 3 to 8) (size 9 to 14) (size 15 to 20)
#    0.000    2.286    1.429    0.857    8.000    3.429 
#    0.000    0.714    3.143    0.000    0.000    0.000 
#    0.000    0.000    0.000    0.000    0.000    0.000 
#
# Total GULP energy -311949.129418 kJ/mol
# GULP energy per Si atom -5570.520168 kJ/mol
# Density = 1.929642 g / cm^3
# Si number density = 19.340444 Si / 1000 Ang^3
#
#
#
# Elastic Constant Matrix: (Units=GPa)
#
#
# Indices 1 2 3 4 5 6 
#
# 1 67.1959 30.3126 3.0752 0.0000 0.0000 0.0000
# 2 30.3126 126.9443 13.7392 0.0000 0.0000 0.0000
# 3 3.0752 13.7392 26.0912 0.0000 0.0000 0.0000
# 4 0.0000 0.0000 0.0000 16.2986 0.0000 0.0000
# 5 0.0000 0.0000 0.0000 0.0000 19.4098 0.0000
# 6 0.0000 0.0000 0.0000 0.0000 0.0000 26.6564
#
#
#
# Elastic Compliance Matrix: (Units=1/GPa)
#
#
# Indices 1 2 3 4 5 6 
#
# 1 0.016679 -0.003998 0.000139 0.000000 0.000000 0.000000
# 2 -0.003998 0.009312 -0.004432 0.000000 0.000000 0.000000
# 3 0.000139 -0.004432 0.040645 0.000000 0.000000 0.000000
# 4 0.000000 0.000000 0.000000 0.061355 0.000000 0.000000
# 5 0.000000 0.000000 0.000000 0.000000 0.051520 0.000000
# 6 0.000000 0.000000 0.000000 0.000000 0.000000 0.037514
#
#
# Mechanical properties :
#
#
# Convention : Reuss Voigt Hill
#
# Bulk Modulus (GPa) = 19.97844 34.94283 27.46064
# Shear Modulus (GPa) = 19.97672 24.01325 21.99499
#
# Velocity S-wave (km/s) = 3.21736 3.52747 3.37598
# Velocity P-wave (km/s) = 4.91469 5.89043 5.42454
#
# Compressibility (1/GPa) = 0.05005396
#
# Stress axis : x y z
#
# Youngs Moduli (GPa) = 59.95597 107.39079 24.60349
#
# Poissons Ratio (x) = 0.42932 -0.00343
# Poissons Ratio (y) = 0.23969 0.10905
# Poissons Ratio (z) = -0.00835 0.47598
#
# Static dielectric constant tensor:
#      x y z
#    x 1.770090 0.000000 0.000000 
#    y 0.000000 1.693240 0.000000 
#    z 0.000000 0.000000 1.720720 
# 
# From -- ./inp_files/12822.got.cif
#   From: 2010.05.17/outbox.cif.g08.bks.cpg/sg60_7_cif.got.tgz:12822.got - 2010.06.03 14:59:27.
