data_PCOD9455333
_publ_section_title
;
Structure prediction by ZEFSAII (Michael W. Deem and Ramdas Pophale) SiO2 
 PCOD9455333
Probable space group: P B C N
;
_chemical_formula_sum "Si O2"
_cell_formula_units_Z 44
_cell_length_a 4.993189
_cell_length_b 13.806826
_cell_length_c 24.232857
_cell_angle_alpha 90.000000
_cell_angle_beta 90.000000
_cell_angle_gamma 90.000000
_cell_volume 1670.615384
_symmetry_space_group_name_H-M "P B C N"
_symmetry_group_IT_number 60
_symmetry_cell_setting 'orthorhombic'
loop_
_space_group_symop_operation_xyz
x,y,z
1/2-x,1/2-y,1/2+z
1/2+x,1/2-y,-z
-x,y,1/2-z
-x,-y,-z
1/2+x,1/2+y,1/2-z
1/2-x,1/2+y,z
x,-y,1/2+z
loop_
_atom_site_type_symbol
_atom_site_label
_atom_site_fract_x
_atom_site_fract_y
_atom_site_fract_z
Si Si1 0.871345 0.151280 0.055390
Si Si2 0.008659 0.529159 0.130204
Si Si3 0.500000 0.014685 0.750000
Si Si4 0.370558 0.194864 0.630947
Si Si5 0.158141 0.810650 0.299038
Si Si6 0.352599 0.094179 0.022898
O O1 0.752551 0.079783 0.104019
O O2 0.581650 0.174054 0.027717
O O3 0.054014 0.112114 0.004312
O O4 0.030370 0.241180 0.080631
O O5 0.021464 0.414025 0.121996
O O6 0.221123 0.572114 0.087439
O O7 0.063735 0.544210 0.194578
O O8 0.737217 0.087138 0.728473
O O9 0.564362 0.233398 0.680137
O O10 0.063318 0.187462 0.651517
O O11 0.000000 0.759764 0.250000
O O12 0.500000 0.000000 0.000000
#
# Coordination Sequence:
#
# PCOD9455333 Si02
#       6
#     8   8   4   8   8   8
#     4  10  23  41  64  97 130 172 229 280 337 419
#     4   9  23  37  68  91 134 174 220 278 339 409
#     4  10  20  38  60 100 126 178 220 262 340 420
#     4  11  22  38  61  94 135 176 217 277 340 406
#     4  11  19  35  59  89 132 176 217 263 326 402
#     4  10  22  44  66  93 128 175 228 297 345 393
#
# _framework density 26.337602
#
# number of rings (size 3 to 8) (size 9 to 14) (size 15 to 20)
#    1.091    0.727    3.636    1.636    5.091    0.000 
#    1.636    3.636    0.000    0.000    0.000    0.000 
#    0.000    0.000    0.000    0.000    0.000    0.000 
#
# Total GULP energy -244938.061366 kJ/mol
# GULP energy per Si atom -5566.774122 kJ/mol
# Density = 2.627766 g / cm^3
# Si number density = 26.337602 Si / 1000 Ang^3
#
#
#
# Elastic Constant Matrix: (Units=GPa)
#
#
# Indices 1 2 3 4 5 6 
#
# 1 168.3861 17.4558 7.8590 0.0000 0.0000 0.0000
# 2 17.4558 98.0521 34.6400 0.0000 0.0000 0.0000
# 3 7.8590 34.6400 102.8131 0.0000 0.0000 0.0000
# 4 0.0000 0.0000 0.0000 31.6406 0.0000 0.0000
# 5 0.0000 0.0000 0.0000 0.0000 30.3867 0.0000
# 6 0.0000 0.0000 0.0000 0.0000 0.0000 9.2961
#
#
#
# Elastic Compliance Matrix: (Units=1/GPa)
#
#
# Indices 1 2 3 4 5 6 
#
# 1 0.006052 -0.001037 -0.000113 0.000000 0.000000 0.000000
# 2 -0.001037 0.011754 -0.003881 0.000000 0.000000 0.000000
# 3 -0.000113 -0.003881 0.011043 0.000000 0.000000 0.000000
# 4 0.000000 0.000000 0.000000 0.031605 0.000000 0.000000
# 5 0.000000 0.000000 0.000000 0.000000 0.032909 0.000000
# 6 0.000000 0.000000 0.000000 0.000000 0.000000 0.107572
#
#
# Mechanical properties :
#
#
# Convention : Reuss Voigt Hill
#
# Bulk Modulus (GPa) = 53.23208 54.35121 53.79164
# Shear Modulus (GPa) = 23.01392 34.88444 28.94918
#
# Velocity S-wave (km/s) = 2.95923 3.64333 3.31895
# Velocity P-wave (km/s) = 5.65078 6.19513 5.92921
#
# Compressibility (1/GPa) = 0.01878566
#
# Stress axis : x y z
#
# Youngs Moduli (GPa) = 165.24691 85.07428 90.55816
#
# Poissons Ratio (x) = 0.08826 0.01024
# Poissons Ratio (y) = 0.17143 0.35146
# Poissons Ratio (z) = 0.01868 0.33018
#
# Static dielectric constant tensor:
#      x y z
#    x 2.922670 0.000000 0.000000 
#    y 0.000000 2.309210 0.000000 
#    z 0.000000 0.000000 2.270650 
# 
# From -- ./inp_files/24933.got.cif
#   From: 2010.05.17/outbox.cif.g08.bks.cpg/sg60_13_cif.got.tgz:24933.got - 2010.06.03 14:59:27.
