data_PCOD9455962
_publ_section_title
;
Structure prediction by ZEFSAII (Michael W. Deem and Ramdas Pophale) SiO2 
 PCOD9455962
Probable space group: P B C N
;
_chemical_formula_sum "Si O2"
_cell_formula_units_Z 48
_cell_length_a 26.427981
_cell_length_b 5.829167
_cell_length_c 11.435476
_cell_angle_alpha 90.000000
_cell_angle_beta 90.000000
_cell_angle_gamma 90.000000
_cell_volume 1761.670696
_symmetry_space_group_name_H-M "P B C N"
_symmetry_group_IT_number 60
_symmetry_cell_setting 'orthorhombic'
loop_
_space_group_symop_operation_xyz
x,y,z
1/2-x,1/2-y,1/2+z
1/2+x,1/2-y,-z
-x,y,1/2-z
-x,-y,-z
1/2+x,1/2+y,1/2-z
1/2-x,1/2+y,z
x,-y,1/2+z
loop_
_atom_site_type_symbol
_atom_site_label
_atom_site_fract_x
_atom_site_fract_y
_atom_site_fract_z
Si Si1 0.579225 0.586241 0.479742
Si Si2 0.943556 0.670650 0.221998
Si Si3 0.678873 0.644461 0.324816
Si Si4 0.021657 0.702806 0.918354
Si Si5 0.237326 0.635322 0.973628
Si Si6 0.661774 0.145881 0.324059
O O1 0.577990 0.723907 0.602195
O O2 0.628023 0.635977 0.404111
O O3 0.527725 0.641713 0.409718
O O4 0.567858 0.333083 0.523982
O O5 0.954856 0.407262 0.194992
O O6 0.898494 0.671265 0.312840
O O7 0.000000 0.763998 0.250000
O O8 0.683276 0.135523 0.457555
O O9 0.680299 0.389209 0.268257
O O10 0.676890 0.898334 0.266208
O O11 0.000000 0.500000 0.000000
O O12 0.251350 0.386666 0.916505
O O13 0.274652 0.645642 0.086266
#
# Coordination Sequence:
#
# PCOD9455962 Si02
#       6
#     8   8   8   8   8   8
#     4  10  22  37  60  83 120 161 206 252 297 359
#     4  11  24  36  55  87 127 164 201 247 304 364
#     4  10  21  37  65  88 113 158 210 252 300 362
#     4   9  21  38  54  79 119 162 202 244 296 359
#     4   8  16  35  58  86 110 147 200 250 294 355
#     4  10  22  37  62  90 120 157 202 253 305 362
#
# _framework density 27.246863000000001
#
# number of rings (size 3 to 8) (size 9 to 14) (size 15 to 20)
#    0.000    2.333    0.000    1.000   14.000    0.667 
#    0.000    0.000    0.000   18.000    0.000    0.000 
#    0.000    0.000    0.000    0.000    0.000    0.000 
#
# Total GULP energy -268055.730043 kJ/mol
# GULP energy per Si atom -5584.494376 kJ/mol
# Density = 2.718485 g / cm^3
# Si number density = 27.246863 Si / 1000 Ang^3
#
#
#
# Elastic Constant Matrix: (Units=GPa)
#
#
# Indices 1 2 3 4 5 6 
#
# 1 146.2757 37.5569 33.6135 0.0000 0.0000 0.0000
# 2 37.5569 234.2486 47.8515 0.0000 0.0000 0.0000
# 3 33.6135 47.8515 55.1445 0.0000 0.0000 0.0000
# 4 0.0000 0.0000 0.0000 26.0831 0.0000 0.0000
# 5 0.0000 0.0000 0.0000 0.0000 36.3561 0.0000
# 6 0.0000 0.0000 0.0000 0.0000 0.0000 32.0978
#
#
#
# Elastic Compliance Matrix: (Units=1/GPa)
#
#
# Indices 1 2 3 4 5 6 
#
# 1 0.007973 -0.000347 -0.004559 0.000000 0.000000 0.000000
# 2 -0.000347 0.005204 -0.004304 0.000000 0.000000 0.000000
# 3 -0.004559 -0.004304 0.024648 0.000000 0.000000 0.000000
# 4 0.000000 0.000000 0.000000 0.038339 0.000000 0.000000
# 5 0.000000 0.000000 0.000000 0.000000 0.027506 0.000000
# 6 0.000000 0.000000 0.000000 0.000000 0.000000 0.031155
#
#
# Mechanical properties :
#
#
# Convention : Reuss Voigt Hill
#
# Bulk Modulus (GPa) = 51.53351 74.85695 63.19523
# Shear Modulus (GPa) = 31.30622 40.01719 35.66171
#
# Velocity S-wave (km/s) = 3.39334 3.83651 3.62171
# Velocity P-wave (km/s) = 5.85727 6.86719 6.38224
#
# Compressibility (1/GPa) = 0.01940485
#
# Stress axis : x y z
#
# Youngs Moduli (GPa) = 125.42130 192.16610 40.57138
#
# Poissons Ratio (x) = 0.06669 0.18496
# Poissons Ratio (y) = 0.04353 0.17462
# Poissons Ratio (z) = 0.57178 0.82710
#
# Static dielectric constant tensor:
#      x y z
#    x 2.093940 0.000000 0.000000 
#    y 0.000000 2.288620 0.000000 
#    z 0.000000 0.000000 3.539780 
# 
# From -- ./inp_files/18132.got.cif
#   From: 2010.05.17/outbox.cif.g08.bks.cpg/sg60_10_cif.got.tgz:18132.got - 2010.06.03 14:59:27.
