data_PCOD9455451
_publ_section_title
;
Structure prediction by ZEFSAII (Michael W. Deem and Ramdas Pophale) SiO2 
 PCOD9455451
Probable space group: P B C N
;
_chemical_formula_sum "Si O2"
_cell_formula_units_Z 48
_cell_length_a 9.192806
_cell_length_b 18.098707
_cell_length_c 13.380457
_cell_angle_alpha 90.000000
_cell_angle_beta 90.000000
_cell_angle_gamma 90.000000
_cell_volume 2226.212367
_symmetry_space_group_name_H-M "P B C N"
_symmetry_group_IT_number 60
_symmetry_cell_setting 'orthorhombic'
loop_
_space_group_symop_operation_xyz
x,y,z
1/2-x,1/2-y,1/2+z
1/2+x,1/2-y,-z
-x,y,1/2-z
-x,-y,-z
1/2+x,1/2+y,1/2-z
1/2-x,1/2+y,z
x,-y,1/2+z
loop_
_atom_site_type_symbol
_atom_site_label
_atom_site_fract_x
_atom_site_fract_y
_atom_site_fract_z
Si Si1 0.842597 0.328363 0.974774
Si Si2 0.449866 0.070084 0.564640
Si Si3 0.498488 0.677521 0.500156
Si Si4 0.806498 0.453025 0.817569
Si Si5 0.515008 0.533312 0.866476
Si Si6 0.785701 0.912569 0.599362
O O1 0.928040 0.252547 0.960715
O O2 0.863300 0.385147 0.883301
O O3 0.670981 0.315079 0.986492
O O4 0.919899 0.371408 0.067544
O O5 0.321448 0.101558 0.493622
O O6 0.500000 0.000000 0.500000
O O7 0.391924 0.030004 0.663843
O O8 0.470595 0.608596 0.573712
O O9 0.406141 0.652335 0.402137
O O10 0.649144 0.475839 0.863210
O O11 0.794642 0.425387 0.704329
O O12 0.500000 0.551887 0.750000
O O13 0.376852 0.488930 0.909507
#
# Coordination Sequence:
#
# PCOD9455451 Si02
#       6
#     8   8   8   8   8   8
#     4  11  25  41  64  95 140 179 219 280 342 402
#     4  10  21  39  63  96 130 169 219 278 324 390
#     4  12  23  42  65  96 136 182 223 273 348 403
#     4  10  21  41  71 100 130 167 232 274 332 401
#     4  10  20  38  68 101 127 171 223 280 322 397
#     4  11  21  39  74  98 125 178 221 277 335 396
#
# _framework density 21.561285999999999
#
# number of rings (size 3 to 8) (size 9 to 14) (size 15 to 20)
#    0.000    1.333    3.333    3.500    0.000    2.667 
#    6.000    0.000    0.000    4.000    0.000    0.000 
#    0.000    0.000    0.000    0.000    0.000    0.000 
#
# Total GULP energy -267943.335399 kJ/mol
# GULP energy per Si atom -5582.152821 kJ/mol
# Density = 2.151221 g / cm^3
# Si number density = 21.561286 Si / 1000 Ang^3
#
#
#
# Elastic Constant Matrix: (Units=GPa)
#
#
# Indices 1 2 3 4 5 6 
#
# 1 138.7035 47.1581 36.6720 0.0000 0.0000 0.0000
# 2 47.1581 133.8453 38.4622 0.0000 0.0000 0.0000
# 3 36.6720 38.4622 95.2756 0.0000 0.0000 0.0000
# 4 0.0000 0.0000 0.0000 17.8483 0.0000 0.0000
# 5 0.0000 0.0000 0.0000 0.0000 27.5881 0.0000
# 6 0.0000 0.0000 0.0000 0.0000 0.0000 34.1686
#
#
#
# Elastic Compliance Matrix: (Units=1/GPa)
#
#
# Indices 1 2 3 4 5 6 
#
# 1 0.008640 -0.002363 -0.002372 0.000000 0.000000 0.000000
# 2 -0.002363 0.009098 -0.002763 0.000000 0.000000 0.000000
# 3 -0.002372 -0.002763 0.012524 0.000000 0.000000 0.000000
# 4 0.000000 0.000000 0.000000 0.056028 0.000000 0.000000
# 5 0.000000 0.000000 0.000000 0.000000 0.036247 0.000000
# 6 0.000000 0.000000 0.000000 0.000000 0.000000 0.029267
#
#
# Mechanical properties :
#
#
# Convention : Reuss Voigt Hill
#
# Bulk Modulus (GPa) = 65.50235 68.04544 66.77389
# Shear Modulus (GPa) = 29.08866 32.28982 30.68924
#
# Velocity S-wave (km/s) = 3.67701 3.87406 3.77682
# Velocity P-wave (km/s) = 6.96224 7.18601 7.07501
#
# Compressibility (1/GPa) = 0.01526663
#
# Stress axis : x y z
#
# Youngs Moduli (GPa) = 115.74127 109.91659 79.84450
#
# Poissons Ratio (x) = 0.25969 0.18938
# Poissons Ratio (y) = 0.27345 0.22064
# Poissons Ratio (z) = 0.27452 0.30374
#
# Static dielectric constant tensor:
#      x y z
#    x 1.955870 0.000000 0.000000 
#    y 0.000000 1.759380 0.000000 
#    z 0.000000 0.000000 1.840450 
# 
# From -- ./inp_files/15024.got.cif
#   From: 2010.05.17/outbox.cif.g08.bks.cpg/sg60_8_cif.got.tgz:15024.got - 2010.06.03 14:59:27.
