data_PCOD9455810
_publ_section_title
;
Structure prediction by ZEFSAII (Michael W. Deem and Ramdas Pophale) SiO2 
 PCOD9455810
Probable space group: P B C N
;
_chemical_formula_sum "Si O2"
_cell_formula_units_Z 64
_cell_length_a 13.143511
_cell_length_b 29.018194
_cell_length_c 9.159603
_cell_angle_alpha 90.000000
_cell_angle_beta 90.000000
_cell_angle_gamma 90.000000
_cell_volume 3493.481305
_symmetry_space_group_name_H-M "P B C N"
_symmetry_group_IT_number 60
_symmetry_cell_setting 'orthorhombic'
loop_
_space_group_symop_operation_xyz
x,y,z
1/2-x,1/2-y,1/2+z
1/2+x,1/2-y,-z
-x,y,1/2-z
-x,-y,-z
1/2+x,1/2+y,1/2-z
1/2-x,1/2+y,z
x,-y,1/2+z
loop_
_atom_site_type_symbol
_atom_site_label
_atom_site_fract_x
_atom_site_fract_y
_atom_site_fract_z
Si Si1 0.626650 0.459499 0.138542
Si Si2 0.380159 0.632662 0.285886
Si Si3 0.830032 0.795428 0.525604
Si Si4 0.109649 0.288116 0.080882
Si Si5 0.389449 0.194593 0.926462
Si Si6 0.593274 0.444302 0.481305
Si Si7 0.788056 0.124704 0.523556
Si Si8 0.458024 0.698079 0.904743
O O1 0.624972 0.455171 0.314137
O O2 0.527777 0.438819 0.051187
O O3 0.716552 0.425678 0.092891
O O4 0.620706 0.511690 0.082144
O O5 0.500000 0.633939 0.250000
O O6 0.336495 0.684130 0.312683
O O7 0.365244 0.598517 0.424041
O O8 0.321324 0.616985 0.142539
O O9 0.719146 0.806727 0.466773
O O10 0.848380 0.741480 0.500126
O O11 0.933967 0.818576 0.467501
O O12 0.111569 0.290762 0.255814
O O13 0.006757 0.314506 0.033712
O O14 0.089715 0.237964 0.006771
O O15 0.314953 0.153136 0.959104
O O16 0.875383 0.157213 0.600717
O O17 0.500000 0.716480 0.750000
#
# Coordination Sequence:
#
# PCOD9455810 Si02
#       8
#     8   8   8   8   8   8   8   8
#     4  10  21  34  60  81 126 161 194 238 303 372
#     4  12  23  36  55  87 123 160 201 245 303 361
#     4  11  22  34  56  78 114 157 201 249 294 349
#     4  10  22  40  54  77 113 161 200 257 290 349
#     4  10  23  38  58  78 117 156 211 243 308 345
#     4  10  21  37  54  90 120 164 194 239 303 373
#     4  12  22  37  58  87 120 160 200 252 297 366
#     4  11  22  33  54  81 113 153 207 248 299 352
#
# _framework density 18.319834
#
# number of rings (size 3 to 8) (size 9 to 14) (size 15 to 20)
#    0.000    1.250    3.750    2.250    8.750    1.000 
#    0.000    0.000    0.000    0.000    0.000    0.875 
#    0.000    0.000    0.000    0.000    0.000    0.000 
#
# Total GULP energy -356278.711651 kJ/mol
# GULP energy per Si atom -5566.854870 kJ/mol
# Density = 1.827814 g / cm^3
# Si number density = 18.319834 Si / 1000 Ang^3
#
#
#
# Elastic Constant Matrix: (Units=GPa)
#
#
# Indices 1 2 3 4 5 6 
#
# 1 96.9233 10.5565 6.7986 0.0000 0.0000 0.0000
# 2 10.5565 54.7732 10.4808 0.0000 0.0000 0.0000
# 3 6.7986 10.4808 75.3386 0.0000 0.0000 0.0000
# 4 0.0000 0.0000 0.0000 29.0569 0.0000 0.0000
# 5 0.0000 0.0000 0.0000 0.0000 13.9914 0.0000
# 6 0.0000 0.0000 0.0000 0.0000 0.0000 14.2316
#
#
#
# Elastic Compliance Matrix: (Units=1/GPa)
#
#
# Indices 1 2 3 4 5 6 
#
# 1 0.010573 -0.001906 -0.000689 0.000000 0.000000 0.000000
# 2 -0.001906 0.019100 -0.002485 0.000000 0.000000 0.000000
# 3 -0.000689 -0.002485 0.013681 0.000000 0.000000 0.000000
# 4 0.000000 0.000000 0.000000 0.034415 0.000000 0.000000
# 5 0.000000 0.000000 0.000000 0.000000 0.071472 0.000000
# 6 0.000000 0.000000 0.000000 0.000000 0.000000 0.070266
#
#
# Mechanical properties :
#
#
# Convention : Reuss Voigt Hill
#
# Bulk Modulus (GPa) = 30.12551 31.41189 30.76870
# Shear Modulus (GPa) = 20.76988 24.73594 22.75291
#
# Velocity S-wave (km/s) = 3.37075 3.67853 3.52800
# Velocity P-wave (km/s) = 5.62399 5.93513 5.78165
#
# Compressibility (1/GPa) = 0.03319445
#
# Stress axis : x y z
#
# Youngs Moduli (GPa) = 94.57738 52.35608 73.09247
#
# Poissons Ratio (x) = 0.09979 0.05036
# Poissons Ratio (y) = 0.18026 0.18164
# Poissons Ratio (z) = 0.06516 0.13011
#
# Static dielectric constant tensor:
#      x y z
#    x 1.655730 0.000000 0.000000 
#    y 0.000000 1.649510 0.000000 
#    z 0.000000 0.000000 1.812910 
# 
# From -- ./inp_files/5351.got.cif
#   From: 2010.05.17/outbox.cif.g08.bks.cpg/sg60_3_cif.got.tgz:5351.got - 2010.06.03 14:59:27.
