data_PCOD9455363
_publ_section_title
;
Structure prediction by ZEFSAII (Michael W. Deem and Ramdas Pophale) SiO2 
 PCOD9455363
Probable space group: P B C N
;
_chemical_formula_sum "Si O2"
_cell_formula_units_Z 36
_cell_length_a 13.273834
_cell_length_b 8.170176
_cell_length_c 13.908672
_cell_angle_alpha 90.000000
_cell_angle_beta 90.000000
_cell_angle_gamma 90.000000
_cell_volume 1508.389358
_symmetry_space_group_name_H-M "P B C N"
_symmetry_group_IT_number 60
_symmetry_cell_setting 'orthorhombic'
loop_
_space_group_symop_operation_xyz
x,y,z
1/2-x,1/2-y,1/2+z
1/2+x,1/2-y,-z
-x,y,1/2-z
-x,-y,-z
1/2+x,1/2+y,1/2-z
1/2-x,1/2+y,z
x,-y,1/2+z
loop_
_atom_site_type_symbol
_atom_site_label
_atom_site_fract_x
_atom_site_fract_y
_atom_site_fract_z
Si Si1 0.021022 0.214957 0.053549
Si Si2 0.659401 0.908989 0.342519
Si Si3 0.792791 0.086596 0.220991
Si Si4 0.169171 0.934604 0.998292
Si Si5 0.500000 0.487303 0.750000
O O1 0.058588 0.386026 0.095674
O O2 0.921063 0.198403 0.990847
O O3 0.994771 0.110933 0.149519
O O4 0.112552 0.110905 0.006874
O O5 0.668878 0.750415 0.273340
O O6 0.747702 0.917530 0.421057
O O7 0.685639 0.050997 0.269246
O O8 0.783977 0.090346 0.106835
O O9 0.882463 0.953676 0.248106
#
# Coordination Sequence:
#
# PCOD9455363 Si02
#       5
#     8   8   8   8   4
#     4   9  19  35  61  86 113 155 199 240 282 356
#     4  11  20  38  57  94 115 153 199 251 289 350
#     4  10  22  33  60  82 119 149 198 243 292 344
#     4  10  20  38  61  87 114 162 199 234 292 363
#     4   8  14  36  52  80 100 154 188 228 272 352
#
# _framework density 23.866516000000001
#
# number of rings (size 3 to 8) (size 9 to 14) (size 15 to 20)
#    0.000    2.222    4.444    0.000    3.111    0.000 
#    0.000    1.111    0.000    8.000    0.000    0.000 
#    0.000    0.000    0.000    0.000    0.000    0.000 
#
# Total GULP energy -200409.124944 kJ/mol
# GULP energy per Si atom -5566.920137 kJ/mol
# Density = 2.381219 g / cm^3
# Si number density = 23.866516 Si / 1000 Ang^3
#
#
#
# Elastic Constant Matrix: (Units=GPa)
#
#
# Indices 1 2 3 4 5 6 
#
# 1 36.1350 -8.4796 16.5419 0.0000 0.0000 0.0000
# 2 -8.4796 17.8645 -10.0392 0.0000 0.0000 0.0000
# 3 16.5419 -10.0392 121.4799 0.0000 0.0000 0.0000
# 4 0.0000 0.0000 0.0000 11.8397 0.0000 0.0000
# 5 0.0000 0.0000 0.0000 0.0000 31.2087 0.0000
# 6 0.0000 0.0000 0.0000 0.0000 0.0000 19.8515
#
#
#
# Elastic Compliance Matrix: (Units=1/GPa)
#
#
# Indices 1 2 3 4 5 6 
#
# 1 0.032349 0.013507 -0.003289 0.000000 0.000000 0.000000
# 2 0.013507 0.064343 0.003478 0.000000 0.000000 0.000000
# 3 -0.003289 0.003478 0.008967 0.000000 0.000000 0.000000
# 4 0.000000 0.000000 0.000000 0.084461 0.000000 0.000000
# 5 0.000000 0.000000 0.000000 0.000000 0.032042 0.000000
# 6 0.000000 0.000000 0.000000 0.000000 0.000000 0.050374
#
#
# Mechanical properties :
#
#
# Convention : Reuss Voigt Hill
#
# Bulk Modulus (GPa) = 7.51591 19.05840 13.28715
# Shear Modulus (GPa) = 17.27147 24.41041 20.84094
#
# Velocity S-wave (km/s) = 2.69303 3.20158 2.95825
# Velocity P-wave (km/s) = 3.58132 4.65506 4.15303
#
# Compressibility (1/GPa) = 0.13305109
#
# Stress axis : x y z
#
# Youngs Moduli (GPa) = 30.91281 15.54176 111.51901
#
# Poissons Ratio (x) = -0.20992 0.36676
# Poissons Ratio (y) = -0.41753 -0.38788
# Poissons Ratio (z) = 0.10166 -0.05406
#
# Static dielectric constant tensor:
#      x y z
#    x 2.101090 0.000000 0.000000 
#    y 0.000000 2.031430 0.000000 
#    z 0.000000 0.000000 1.880560 
# 
# From -- ./inp_files/15760.got.cif
#   From: 2010.05.17/outbox.cif.g08.bks.cpg/sg60_8_cif.got.tgz:15760.got - 2010.06.03 14:59:27.
