data_PCOD9455425
_publ_section_title
;
Structure prediction by ZEFSAII (Michael W. Deem and Ramdas Pophale) SiO2 
 PCOD9455425
Probable space group: P B C N
;
_chemical_formula_sum "Si O2"
_cell_formula_units_Z 24
_cell_length_a 7.467649
_cell_length_b 11.694811
_cell_length_c 12.549493
_cell_angle_alpha 90.000000
_cell_angle_beta 90.000000
_cell_angle_gamma 90.000000
_cell_volume 1095.981655
_symmetry_space_group_name_H-M "P B C N"
_symmetry_group_IT_number 60
_symmetry_cell_setting 'orthorhombic'
loop_
_space_group_symop_operation_xyz
x,y,z
1/2-x,1/2-y,1/2+z
1/2+x,1/2-y,-z
-x,y,1/2-z
-x,-y,-z
1/2+x,1/2+y,1/2-z
1/2-x,1/2+y,z
x,-y,1/2+z
loop_
_atom_site_type_symbol
_atom_site_label
_atom_site_fract_x
_atom_site_fract_y
_atom_site_fract_z
Si Si1 0.373624 0.481979 0.654311
Si Si2 0.352982 0.332226 0.964789
Si Si3 0.468961 0.893832 0.578448
O O1 0.500000 0.524285 0.750000
O O2 0.484896 0.374498 0.608277
O O3 0.359694 0.581309 0.565660
O O4 0.170096 0.437491 0.667834
O O5 0.167806 0.346947 0.900776
O O6 0.375303 0.205826 0.009549
O O7 0.500000 0.000000 0.500000
#
# Coordination Sequence:
#
# PCOD9455425 Si02
#       3
#     8   8   8
#     4  10  22  40  61  92 125 165 216 264 317 380
#     4  10  20  40  64  87 129 168 209 264 321 376
#     4  10  20  38  65  90 121 170 209 257 322 379
#
# _framework density 21.898175999999999
#
# number of rings (size 3 to 8) (size 9 to 14) (size 15 to 20)
#    0.000    2.000    3.333    0.000    0.000    1.333 
#    6.000    0.000    0.000    0.000    0.000    0.000 
#    0.000    0.000    0.000    0.000    0.000    0.000 
#
# Total GULP energy -133839.166498 kJ/mol
# GULP energy per Si atom -5576.631937 kJ/mol
# Density = 2.184833 g / cm^3
# Si number density = 21.898176 Si / 1000 Ang^3
#
#
#
# Elastic Constant Matrix: (Units=GPa)
#
#
# Indices 1 2 3 4 5 6 
#
# 1 196.6266 29.6842 41.8656 0.0000 0.0000 0.0000
# 2 29.6842 79.2139 -2.6191 0.0000 0.0000 0.0000
# 3 41.8656 -2.6191 69.8391 0.0000 0.0000 0.0000
# 4 0.0000 0.0000 0.0000 4.6581 0.0000 0.0000
# 5 0.0000 0.0000 0.0000 0.0000 23.8603 0.0000
# 6 0.0000 0.0000 0.0000 0.0000 0.0000 21.4092
#
#
#
# Elastic Compliance Matrix: (Units=1/GPa)
#
#
# Indices 1 2 3 4 5 6 
#
# 1 0.006282 -0.002482 -0.003859 0.000000 0.000000 0.000000
# 2 -0.002482 0.013620 0.001998 0.000000 0.000000 0.000000
# 3 -0.003859 0.001998 0.016707 0.000000 0.000000 0.000000
# 4 0.000000 0.000000 0.000000 0.214681 0.000000 0.000000
# 5 0.000000 0.000000 0.000000 0.000000 0.041911 0.000000
# 6 0.000000 0.000000 0.000000 0.000000 0.000000 0.046709
#
#
# Mechanical properties :
#
#
# Convention : Reuss Voigt Hill
#
# Bulk Modulus (GPa) = 35.81062 53.72678 44.76870
# Shear Modulus (GPa) = 13.97032 28.43545 21.20289
#
# Velocity S-wave (km/s) = 2.52854 3.60742 3.11505
# Velocity P-wave (km/s) = 4.99134 6.47606 5.78156
#
# Compressibility (1/GPa) = 0.02792467
#
# Stress axis : x y z
#
# Youngs Moduli (GPa) = 159.18321 73.42088 59.85584
#
# Poissons Ratio (x) = 0.18221 0.23098
# Poissons Ratio (y) = 0.39504 -0.11962
# Poissons Ratio (z) = 0.61427 -0.14673
#
# Static dielectric constant tensor:
#      x y z
#    x 1.848590 0.000000 0.000000 
#    y 0.000000 1.739380 0.000000 
#    z 0.000000 0.000000 1.823620 
# 
# From -- ./inp_files/3335.got.cif
#   From: 2010.05.17/outbox.cif.g08.bks.cpg/sg60_2_cif.got.tgz:3335.got - 2010.06.03 14:59:27.
