data_PCOD9455351
_publ_section_title
;
Structure prediction by ZEFSAII (Michael W. Deem and Ramdas Pophale) SiO2 
 PCOD9455351
Probable space group: P B C N
;
_chemical_formula_sum "Si O2"
_cell_formula_units_Z 60
_cell_length_a 11.906570
_cell_length_b 12.875655
_cell_length_c 15.365908
_cell_angle_alpha 90.000000
_cell_angle_beta 90.000000
_cell_angle_gamma 90.000000
_cell_volume 2355.668798
_symmetry_space_group_name_H-M "P B C N"
_symmetry_group_IT_number 60
_symmetry_cell_setting 'orthorhombic'
loop_
_space_group_symop_operation_xyz
x,y,z
1/2-x,1/2-y,1/2+z
1/2+x,1/2-y,-z
-x,y,1/2-z
-x,-y,-z
1/2+x,1/2+y,1/2-z
1/2-x,1/2+y,z
x,-y,1/2+z
loop_
_atom_site_type_symbol
_atom_site_label
_atom_site_fract_x
_atom_site_fract_y
_atom_site_fract_z
Si Si1 0.246710 0.276463 0.144794
Si Si2 0.339419 0.778488 0.956572
Si Si3 0.631073 0.015409 0.140381
Si Si4 0.121487 0.039856 0.926845
Si Si5 0.898578 0.918751 0.396186
Si Si6 0.372892 0.785506 0.337156
Si Si7 0.752992 0.942930 0.803584
Si Si8 0.000000 0.120751 0.250000
O O1 0.380598 0.302717 0.132732
O O2 0.192920 0.291341 0.242367
O O3 0.253815 0.151103 0.131987
O O4 0.182254 0.306092 0.056307
O O5 0.397462 0.880498 0.913155
O O6 0.392010 0.662073 0.951667
O O7 0.221201 0.758349 0.903930
O O8 0.649565 0.050495 0.239680
O O9 0.758135 0.982186 0.111986
O O10 0.578212 0.899998 0.139251
O O11 0.013084 0.029057 0.864409
O O12 0.108691 0.960250 0.006349
O O13 0.779776 0.952005 0.352910
O O14 0.473698 0.703553 0.329041
O O15 0.874498 0.924082 0.759657
#
# Coordination Sequence:
#
# PCOD9455351 Si02
#       8
#     8   8   8   8   8   8   8   4
#     4  11  21  37  60  89 124 157 196 248 303 366
#     4  11  21  39  59  87 125 161 196 246 307 362
#     4  11  20  39  59  83 121 161 193 246 303 354
#     4  10  23  35  58  90 120 156 203 251 295 353
#     4  11  21  37  58  91 119 152 203 255 292 353
#     4  10  23  38  61  89 120 158 207 244 301 362
#     4  11  21  36  62  86 116 158 199 248 297 353
#     4  10  20  38  60  90 114 160 204 254 280 366
#
# _framework density 25.470475
#
# number of rings (size 3 to 8) (size 9 to 14) (size 15 to 20)
#    0.000    1.333    6.667    0.800    0.000    0.000 
#    0.000    1.333    0.000    3.200    0.000    0.000 
#    0.000    0.000    0.000    0.000    0.000    0.000 
#
# Total GULP energy -334101.842929 kJ/mol
# GULP energy per Si atom -5568.364049 kJ/mol
# Density = 2.541250 g / cm^3
# Si number density = 25.470475 Si / 1000 Ang^3
#
#
#
# Elastic Constant Matrix: (Units=GPa)
#
#
# Indices 1 2 3 4 5 6 
#
# 1 26.6219 -6.8324 4.7400 0.0000 0.0000 0.0000
# 2 -6.8324 61.2297 5.1068 0.0000 0.0000 0.0000
# 3 4.7400 5.1068 73.1286 0.0000 0.0000 0.0000
# 4 0.0000 0.0000 0.0000 40.3440 0.0000 0.0000
# 5 0.0000 0.0000 0.0000 0.0000 22.3153 0.0000
# 6 0.0000 0.0000 0.0000 0.0000 0.0000 28.8905
#
#
#
# Elastic Compliance Matrix: (Units=1/GPa)
#
#
# Indices 1 2 3 4 5 6 
#
# 1 0.039259 0.004620 -0.002867 0.000000 0.000000 0.000000
# 2 0.004620 0.016971 -0.001485 0.000000 0.000000 0.000000
# 3 -0.002867 -0.001485 0.013964 0.000000 0.000000 0.000000
# 4 0.000000 0.000000 0.000000 0.024787 0.000000 0.000000
# 5 0.000000 0.000000 0.000000 0.000000 0.044812 0.000000
# 6 0.000000 0.000000 0.000000 0.000000 0.000000 0.034613
#
#
# Mechanical properties :
#
#
# Convention : Reuss Voigt Hill
#
# Bulk Modulus (GPa) = 14.13815 18.55656 16.34736
# Shear Modulus (GPa) = 25.32313 28.84102 27.08207
#
# Velocity S-wave (km/s) = 3.15654 3.36866 3.26432
# Velocity P-wave (km/s) = 4.34141 4.73623 4.54311
#
# Compressibility (1/GPa) = 0.07073060
#
# Stress axis : x y z
#
# Youngs Moduli (GPa) = 25.47174 58.92306 71.61244
#
# Poissons Ratio (x) = -0.27222 0.20533
# Poissons Ratio (y) = -0.11768 0.10632
# Poissons Ratio (z) = 0.07303 0.08748
#
# Static dielectric constant tensor:
#      x y z
#    x 1.617990 0.000000 0.000000 
#    y 0.000000 2.318870 0.000000 
#    z 0.000000 0.000000 2.119560 
# 
# From -- ./inp_files/17011.got.cif
#   From: 2010.05.17/outbox.cif.g08.bks.cpg/sg60_9_cif.got.tgz:17011.got - 2010.06.03 14:59:27.
