data_PCOD9455043
_publ_section_title
;
Structure prediction by ZEFSAII (Michael W. Deem and Ramdas Pophale) SiO2 
 PCOD9455043
Probable space group: P B C N
;
_chemical_formula_sum "Si O2"
_cell_formula_units_Z 36
_cell_length_a 20.344818
_cell_length_b 5.073591
_cell_length_c 19.811888
_cell_angle_alpha 90.000000
_cell_angle_beta 90.000000
_cell_angle_gamma 90.000000
_cell_volume 2045.008548
_symmetry_space_group_name_H-M "P B C N"
_symmetry_group_IT_number 60
_symmetry_cell_setting 'orthorhombic'
loop_
_space_group_symop_operation_xyz
x,y,z
1/2-x,1/2-y,1/2+z
1/2+x,1/2-y,-z
-x,y,1/2-z
-x,-y,-z
1/2+x,1/2+y,1/2-z
1/2-x,1/2+y,z
x,-y,1/2+z
loop_
_atom_site_type_symbol
_atom_site_label
_atom_site_fract_x
_atom_site_fract_y
_atom_site_fract_z
Si Si1 0.000000 0.919522 0.750000
Si Si2 0.872167 0.673673 0.796415
Si Si3 0.628885 0.342730 0.211859
Si Si4 0.294037 0.815392 0.919928
Si Si5 0.205510 0.217335 0.069280
O O1 0.949848 0.743716 0.793544
O O2 0.949135 0.095932 0.707527
O O3 0.860870 0.385928 0.766705
O O4 0.842537 0.719175 0.869519
O O5 0.842074 0.887860 0.743585
O O6 0.658907 0.256561 0.141483
O O7 0.232540 0.612663 0.915563
O O8 0.323177 0.765092 0.994468
O O9 0.266334 0.422458 0.074215
#
# Coordination Sequence:
#
# PCOD9455043 Si02
#       5
#     4   8   8   8   8
#     4   8  22  36  52  80 106 136 184 226 250 300
#     4  10  20  35  57  77 108 140 177 220 261 305
#     4  10  20  35  57  77 108 140 177 220 261 305
#     4  10  21  36  54  81 113 138 169 216 269 320
#     4  10  21  36  54  81 113 138 169 216 269 320
#
# _framework density 17.603839000000001
#
# number of rings (size 3 to 8) (size 9 to 14) (size 15 to 20)
#    1.333    0.889    0.000    3.333    0.000    5.333 
#    0.000    1.111    0.000    2.667    0.000    0.000 
#    0.000    0.000    0.000    0.000    0.000    0.000 
#
# Total GULP energy -200497.125383 kJ/mol
# GULP energy per Si atom -5569.364594 kJ/mol
# Density = 1.756377 g / cm^3
# Si number density = 17.603839 Si / 1000 Ang^3
#
#
#
# Elastic Constant Matrix: (Units=GPa)
#
#
# Indices 1 2 3 4 5 6 
#
# 1 30.1675 -14.9770 37.6483 0.0000 0.0000 0.0000
# 2 -14.9770 55.7996 -21.3023 0.0000 0.0000 0.0000
# 3 37.6483 -21.3023 99.1206 0.0000 0.0000 0.0000
# 4 0.0000 0.0000 0.0000 20.4366 0.0000 0.0000
# 5 0.0000 0.0000 0.0000 0.0000 -12.8163 0.0000
# 6 0.0000 0.0000 0.0000 0.0000 0.0000 -1.2572
#
#
#
# Elastic Compliance Matrix: (Units=1/GPa)
#
#
# Indices 1 2 3 4 5 6 
#
# 1 0.066925 0.008997 -0.023486 0.000000 0.000000 0.000000
# 2 0.008997 0.020733 0.001038 0.000000 0.000000 0.000000
# 3 -0.023486 0.001038 0.019232 0.000000 0.000000 0.000000
# 4 0.000000 0.000000 0.000000 0.048932 0.000000 0.000000
# 5 0.000000 0.000000 0.000000 0.000000 -0.078026 0.000000
# 6 0.000000 0.000000 0.000000 0.000000 0.000000 -0.795387
#
#
# Mechanical properties :
#
#
# Convention : Reuss Voigt Hill
#
# Bulk Modulus (GPa) = 12.50176 20.86951 16.68563
# Shear Modulus (GPa) = -7.52981 13.52054 2.99536
#
# Velocity S-wave (km/s) = -2.07042 2.77437 1.30585
# Velocity P-wave (km/s) = 1.18389 4.70571 3.43113
#
# Compressibility (1/GPa) = 0.07998877
#
# Stress axis : x y z
#
# Youngs Moduli (GPa) = 14.94211 48.23324 51.99553
#
# Poissons Ratio (x) = -0.43396 1.22117
# Poissons Ratio (y) = -0.13443 -0.05399
# Poissons Ratio (z) = 0.35093 -0.05009
#
# Static dielectric constant tensor:
#      x y z
#    x 1.591290 0.000000 0.000000 
#    y 0.000000 1.619050 0.000000 
#    z 0.000000 0.000000 1.582230 
# 
# From -- ./inp_files/17583.got.cif
#   From: 2010.05.17/outbox.cif.g08.bks.cpg/sg60_9_cif.got.tgz:17583.got - 2010.06.03 14:59:27.
