data_PCOD9455176
_publ_section_title
;
Structure prediction by ZEFSAII (Michael W. Deem and Ramdas Pophale) SiO2 
 PCOD9455176
Probable space group: P B C N
;
_chemical_formula_sum "Si O2"
_cell_formula_units_Z 56
_cell_length_a 13.314634
_cell_length_b 17.584123
_cell_length_c 13.146384
_cell_angle_alpha 90.000000
_cell_angle_beta 90.000000
_cell_angle_gamma 90.000000
_cell_volume 3077.912430
_symmetry_space_group_name_H-M "P B C N"
_symmetry_group_IT_number 60
_symmetry_cell_setting 'orthorhombic'
loop_
_space_group_symop_operation_xyz
x,y,z
1/2-x,1/2-y,1/2+z
1/2+x,1/2-y,-z
-x,y,1/2-z
-x,-y,-z
1/2+x,1/2+y,1/2-z
1/2-x,1/2+y,z
x,-y,1/2+z
loop_
_atom_site_type_symbol
_atom_site_label
_atom_site_fract_x
_atom_site_fract_y
_atom_site_fract_z
Si Si1 0.385876 0.473888 0.481337
Si Si2 0.241121 0.728301 0.318485
Si Si3 0.612446 0.804439 0.486046
Si Si4 0.794121 0.844533 0.889247
Si Si5 0.381138 0.772944 0.492068
Si Si6 0.203895 0.112265 0.568667
Si Si7 0.883671 0.121259 0.727001
O O1 0.500000 0.500000 0.500000
O O2 0.347630 0.420130 0.572748
O O3 0.319905 0.550355 0.483118
O O4 0.376915 0.425818 0.377383
O O5 0.167287 0.694299 0.404300
O O6 0.271796 0.671706 0.228609
O O7 0.338487 0.759008 0.378896
O O8 0.180024 0.801225 0.278935
O O9 0.638592 0.724939 0.431422
O O10 0.493603 0.803381 0.494958
O O11 0.678626 0.866510 0.425896
O O12 0.690372 0.832427 0.950402
O O13 0.358737 0.690366 0.544799
O O14 0.162310 0.080279 0.674617
O O15 0.000000 0.137625 0.750000
#
# Coordination Sequence:
#
# PCOD9455176 Si02
#       7
#     8   8   8   8   8   8   8
#     4  12  23  39  59  91 126 164 198 259 325 379
#     4  10  20  36  62  90 117 155 214 260 302 374
#     4  10  20  37  58  85 118 157 207 262 302 365
#     4  10  21  36  60  90 121 157 211 254 309 375
#     4  10  20  39  61  88 120 161 208 263 307 366
#     4  10  22  37  57  89 123 154 211 253 306 385
#     4  12  20  37  63  86 118 168 201 247 327 379
#
# _framework density 18.19415
#
# number of rings (size 3 to 8) (size 9 to 14) (size 15 to 20)
#    0.000    1.714    7.143    1.714    0.000    2.857 
#    0.000    0.714    0.000    0.000    0.000    0.000 
#    0.000    0.000    0.000    0.000    0.000    0.000 
#
# Total GULP energy -312168.197580 kJ/mol
# GULP energy per Si atom -5574.432100 kJ/mol
# Density = 1.815274 g / cm^3
# Si number density = 18.194150 Si / 1000 Ang^3
#
#
#
# Elastic Constant Matrix: (Units=GPa)
#
#
# Indices 1 2 3 4 5 6 
#
# 1 128.6726 31.8429 42.6717 0.0000 0.0000 0.0000
# 2 31.8429 75.1297 31.3945 0.0000 0.0000 0.0000
# 3 42.6717 31.3945 108.5480 0.0000 0.0000 0.0000
# 4 0.0000 0.0000 0.0000 25.5878 0.0000 0.0000
# 5 0.0000 0.0000 0.0000 0.0000 18.3531 0.0000
# 6 0.0000 0.0000 0.0000 0.0000 0.0000 12.4466
#
#
#
# Elastic Compliance Matrix: (Units=1/GPa)
#
#
# Indices 1 2 3 4 5 6 
#
# 1 0.009422 -0.002782 -0.002899 0.000000 0.000000 0.000000
# 2 -0.002782 0.015961 -0.003523 0.000000 0.000000 0.000000
# 3 -0.002899 -0.003523 0.011371 0.000000 0.000000 0.000000
# 4 0.000000 0.000000 0.000000 0.039081 0.000000 0.000000
# 5 0.000000 0.000000 0.000000 0.000000 0.054487 0.000000
# 6 0.000000 0.000000 0.000000 0.000000 0.000000 0.080343
#
#
# Mechanical properties :
#
#
# Convention : Reuss Voigt Hill
#
# Bulk Modulus (GPa) = 54.50631 58.24095 56.37363
# Shear Modulus (GPa) = 21.25957 25.04024 23.14991
#
# Velocity S-wave (km/s) = 3.42202 3.71385 3.57092
# Velocity P-wave (km/s) = 6.75550 7.10426 6.93208
#
# Compressibility (1/GPa) = 0.01834650
#
# Stress axis : x y z
#
# Youngs Moduli (GPa) = 106.14002 62.65102 87.94209
#
# Poissons Ratio (x) = 0.17428 0.25496
# Poissons Ratio (y) = 0.29525 0.30981
# Poissons Ratio (z) = 0.30772 0.22071
#
# Static dielectric constant tensor:
#      x y z
#    x 1.633260 0.000000 0.000000 
#    y 0.000000 1.640460 0.000000 
#    z 0.000000 0.000000 1.700020 
# 
# From -- ./inp_files/11201.got.cif
#   From: 2010.05.17/outbox.cif.g08.bks.cpg/sg60_6_cif.got.tgz:11201.got - 2010.06.03 14:59:27.
