data_PCOD9455888
_publ_section_title
;
Structure prediction by ZEFSAII (Michael W. Deem and Ramdas Pophale) SiO2 
 PCOD9455888
Probable space group: P B C N
;
_chemical_formula_sum "Si O2"
_cell_formula_units_Z 60
_cell_length_a 24.737763
_cell_length_b 19.014748
_cell_length_c 5.412439
_cell_angle_alpha 90.000000
_cell_angle_beta 90.000000
_cell_angle_gamma 90.000000
_cell_volume 2545.915665
_symmetry_space_group_name_H-M "P B C N"
_symmetry_group_IT_number 60
_symmetry_cell_setting 'orthorhombic'
loop_
_space_group_symop_operation_xyz
x,y,z
1/2-x,1/2-y,1/2+z
1/2+x,1/2-y,-z
-x,y,1/2-z
-x,-y,-z
1/2+x,1/2+y,1/2-z
1/2-x,1/2+y,z
x,-y,1/2+z
loop_
_atom_site_type_symbol
_atom_site_label
_atom_site_fract_x
_atom_site_fract_y
_atom_site_fract_z
Si Si1 0.281430 0.478149 0.436347
Si Si2 0.439534 0.674716 0.134397
Si Si3 0.322000 0.255331 0.153219
Si Si4 0.000000 0.230013 0.750000
Si Si5 0.577027 0.810995 0.083350
Si Si6 0.292434 0.324003 0.651079
Si Si7 0.061947 0.472968 0.450298
Si Si8 0.904548 0.028481 0.169452
O O1 0.256544 0.525103 0.659590
O O2 0.282749 0.403217 0.568291
O O3 0.342936 0.502974 0.378231
O O4 0.500000 0.664897 0.250000
O O5 0.418127 0.751896 0.206029
O O6 0.407282 0.608304 0.233473
O O7 0.451968 0.680459 0.844741
O O8 0.371119 0.203395 0.088718
O O9 0.316398 0.310113 0.924071
O O10 0.265843 0.213348 0.153384
O O11 0.325797 0.291635 0.420170
O O12 0.023800 0.282820 0.551603
O O13 0.567839 0.892410 0.136439
O O14 0.086161 0.481832 0.725005
O O15 0.000000 0.500000 0.500000
O O16 0.929532 0.984337 0.398247
#
# Coordination Sequence:
#
# PCOD9455888 Si02
#       8
#     8   8   8   4   8   8   8   8
#     4  10  21  36  63  92 129 174 226 268 334 400
#     4  10  25  41  60  92 134 173 229 283 325 391
#     4  10  24  40  71  97 136 174 226 288 347 410
#     4  10  24  42  64  94 140 174 234 290 334 396
#     4  11  25  40  71 101 131 183 233 281 348 416
#     4  10  22  44  64 102 136 175 222 291 348 405
#     4  10  23  40  65  91 132 170 214 272 337 415
#     4  10  24  38  59  88 124 177 224 268 324 386
#
# _framework density 23.567162
#
# number of rings (size 3 to 8) (size 9 to 14) (size 15 to 20)
#    0.000    1.867    0.000    1.600   20.533    0.533 
#    0.000    1.333    0.000    0.000    0.000    0.000 
#    0.000    0.000    0.000    0.000    0.000    0.000 
#
# Total GULP energy -334729.557611 kJ/mol
# GULP energy per Si atom -5578.825960 kJ/mol
# Density = 2.351352 g / cm^3
# Si number density = 23.567162 Si / 1000 Ang^3
#
#
#
# Elastic Constant Matrix: (Units=GPa)
#
#
# Indices 1 2 3 4 5 6 
#
# 1 16.8541 -4.1184 4.5984 0.0000 0.0000 0.0000
# 2 -4.1184 145.1897 44.1633 0.0000 0.0000 0.0000
# 3 4.5984 44.1633 161.4326 0.0000 0.0000 0.0000
# 4 0.0000 0.0000 0.0000 26.8300 0.0000 0.0000
# 5 0.0000 0.0000 0.0000 0.0000 23.5445 0.0000
# 6 0.0000 0.0000 0.0000 0.0000 0.0000 21.3145
#
#
#
# Elastic Compliance Matrix: (Units=1/GPa)
#
#
# Indices 1 2 3 4 5 6 
#
# 1 0.060584 0.002447 -0.002395 0.000000 0.000000 0.000000
# 2 0.002447 0.007612 -0.002152 0.000000 0.000000 0.000000
# 3 -0.002395 -0.002152 0.006851 0.000000 0.000000 0.000000
# 4 0.000000 0.000000 0.000000 0.037272 0.000000 0.000000
# 5 0.000000 0.000000 0.000000 0.000000 0.042473 0.000000
# 6 0.000000 0.000000 0.000000 0.000000 0.000000 0.046916
#
#
# Mechanical properties :
#
#
# Convention : Reuss Voigt Hill
#
# Bulk Modulus (GPa) = 14.11495 45.86253 29.98874
# Shear Modulus (GPa) = 21.78424 32.92669 27.35546
#
# Velocity S-wave (km/s) = 3.04361 3.74189 3.41067
# Velocity P-wave (km/s) = 4.28411 6.17832 5.31626
#
# Compressibility (1/GPa) = 0.07084686
#
# Stress axis : x y z
#
# Youngs Moduli (GPa) = 16.50600 131.37940 145.95377
#
# Poissons Ratio (x) = -0.32149 0.34958
# Poissons Ratio (y) = -0.04039 0.31409
# Poissons Ratio (z) = 0.03953 0.28273
#
# Static dielectric constant tensor:
#      x y z
#    x 1.973160 0.000000 0.000000 
#    y 0.000000 1.885300 0.000000 
#    z 0.000000 0.000000 1.879140 
# 
# From -- ./inp_files/2729.got.cif
#   From: 2010.05.17/outbox.cif.g08.bks.cpg/sg60_2_cif.got.tgz:2729.got - 2010.06.03 14:59:27.
