data_PCOD9455538
_publ_section_title
;
Structure prediction by ZEFSAII (Michael W. Deem and Ramdas Pophale) SiO2 
 PCOD9455538
Probable space group: P B C N
;
_chemical_formula_sum "Si O2"
_cell_formula_units_Z 64
_cell_length_a 8.693043
_cell_length_b 19.739255
_cell_length_c 14.386830
_cell_angle_alpha 90.000000
_cell_angle_beta 90.000000
_cell_angle_gamma 90.000000
_cell_volume 2468.696477
_symmetry_space_group_name_H-M "P B C N"
_symmetry_group_IT_number 60
_symmetry_cell_setting 'orthorhombic'
loop_
_space_group_symop_operation_xyz
x,y,z
1/2-x,1/2-y,1/2+z
1/2+x,1/2-y,-z
-x,y,1/2-z
-x,-y,-z
1/2+x,1/2+y,1/2-z
1/2-x,1/2+y,z
x,-y,1/2+z
loop_
_atom_site_type_symbol
_atom_site_label
_atom_site_fract_x
_atom_site_fract_y
_atom_site_fract_z
Si Si1 0.298489 0.771041 0.334508
Si Si2 0.682366 0.462832 0.258909
Si Si3 0.194490 0.712013 0.137051
Si Si4 0.142110 0.524574 0.921793
Si Si5 0.834018 0.824892 0.500970
Si Si6 0.089668 0.562292 0.154725
Si Si7 0.091245 0.636367 0.642586
Si Si8 0.142605 0.133720 0.985294
O O1 0.760446 0.750109 0.267987
O O2 0.306301 0.703214 0.397000
O O3 0.468714 0.804201 0.337346
O O4 0.195108 0.824620 0.393510
O O5 0.500000 0.451644 0.250000
O O6 0.730280 0.488736 0.156939
O O7 0.751420 0.519556 0.329387
O O8 0.776849 0.394351 0.288638
O O9 0.110094 0.762359 0.065432
O O10 0.107414 0.642813 0.156501
O O11 0.333651 0.683692 0.072984
O O12 0.241149 0.570568 0.992641
O O13 0.030626 0.459374 0.927534
O O14 0.020427 0.574259 0.873755
O O15 0.679064 0.845722 0.450894
O O16 0.962862 0.882151 0.487788
O O17 0.000000 0.544768 0.250000
#
# Coordination Sequence:
#
# PCOD9455538 Si02
#       8
#     8   8   8   8   8   8   8   8
#     4  10  23  42  64  98 144 189 223 289 364 427
#     4  10  20  39  70 104 133 176 247 299 340 411
#     4  11  25  42  71 100 148 193 228 290 364 438
#     4   9  20  41  70  97 139 177 236 301 336 414
#     4  11  24  40  63 104 144 182 237 288 353 440
#     4   9  21  43  68 103 139 190 237 284 365 427
#     4  10  21  39  68  95 136 186 229 287 355 411
#     4  10  23  42  63 104 137 179 248 289 343 418
#
# _framework density 25.924614999999999
#
# number of rings (size 3 to 8) (size 9 to 14) (size 15 to 20)
#    0.000    2.000    0.000    3.375    7.000    2.000 
#    4.500    0.000    2.750    3.750    0.000    0.000 
#    0.000    0.000    0.000    0.000    0.000    0.000 
#
# Total GULP energy -357536.013748 kJ/mol
# GULP energy per Si atom -5586.500215 kJ/mol
# Density = 2.586561 g / cm^3
# Si number density = 25.924615 Si / 1000 Ang^3
#
#
#
# Elastic Constant Matrix: (Units=GPa)
#
#
# Indices 1 2 3 4 5 6 
#
# 1 108.3101 20.9478 16.7904 0.0000 0.0000 0.0000
# 2 20.9478 107.8770 32.9773 0.0000 0.0000 0.0000
# 3 16.7904 32.9773 135.5411 0.0000 0.0000 0.0000
# 4 0.0000 0.0000 0.0000 36.3632 0.0000 0.0000
# 5 0.0000 0.0000 0.0000 0.0000 23.4853 0.0000
# 6 0.0000 0.0000 0.0000 0.0000 0.0000 31.3657
#
#
#
# Elastic Compliance Matrix: (Units=1/GPa)
#
#
# Indices 1 2 3 4 5 6 
#
# 1 0.009673 -0.001633 -0.000801 0.000000 0.000000 0.000000
# 2 -0.001633 0.010291 -0.002301 0.000000 0.000000 0.000000
# 3 -0.000801 -0.002301 0.008037 0.000000 0.000000 0.000000
# 4 0.000000 0.000000 0.000000 0.027500 0.000000 0.000000
# 5 0.000000 0.000000 0.000000 0.000000 0.042580 0.000000
# 6 0.000000 0.000000 0.000000 0.000000 0.000000 0.031882
#
#
# Mechanical properties :
#
#
# Convention : Reuss Voigt Hill
#
# Bulk Modulus (GPa) = 53.96939 54.79544 54.38242
# Shear Modulus (GPa) = 34.33828 36.97702 35.65765
#
# Velocity S-wave (km/s) = 3.64338 3.78077 3.71271
# Velocity P-wave (km/s) = 6.20983 6.34361 6.27707
#
# Compressibility (1/GPa) = 0.01852902
#
# Stress axis : x y z
#
# Youngs Moduli (GPa) = 103.38245 97.17684 124.42526
#
# Poissons Ratio (x) = 0.15874 0.09964
# Poissons Ratio (y) = 0.16887 0.28634
# Poissons Ratio (z) = 0.08279 0.22364
#
# Static dielectric constant tensor:
#      x y z
#    x 2.061680 0.000000 0.000000 
#    y 0.000000 2.063020 0.000000 
#    z 0.000000 0.000000 2.156480 
# 
# From -- ./inp_files/22444.got.cif
#   From: 2010.05.17/outbox.cif.g08.bks.cpg/sg60_12_cif.got.tgz:22444.got - 2010.06.03 14:59:27.
