data_PCOD9455501
_publ_section_title
;
Structure prediction by ZEFSAII (Michael W. Deem and Ramdas Pophale) SiO2 
 PCOD9455501
Probable space group: P B C N
;
_chemical_formula_sum "Si O2"
_cell_formula_units_Z 48
_cell_length_a 7.356626
_cell_length_b 22.040272
_cell_length_c 11.786204
_cell_angle_alpha 90.000000
_cell_angle_beta 90.000000
_cell_angle_gamma 90.000000
_cell_volume 1911.039137
_symmetry_space_group_name_H-M "P B C N"
_symmetry_group_IT_number 60
_symmetry_cell_setting 'orthorhombic'
loop_
_space_group_symop_operation_xyz
x,y,z
1/2-x,1/2-y,1/2+z
1/2+x,1/2-y,-z
-x,y,1/2-z
-x,-y,-z
1/2+x,1/2+y,1/2-z
1/2-x,1/2+y,z
x,-y,1/2+z
loop_
_atom_site_type_symbol
_atom_site_label
_atom_site_fract_x
_atom_site_fract_y
_atom_site_fract_z
Si Si1 0.388648 0.114867 0.361111
Si Si2 0.592175 0.712592 0.131500
Si Si3 0.310080 0.524256 0.204396
Si Si4 0.075233 0.887723 0.499605
Si Si5 0.824354 0.587327 0.909747
Si Si6 0.290431 0.668524 0.789299
O O1 0.500000 0.132562 0.250000
O O2 0.270862 0.173370 0.388962
O O3 0.271378 0.060363 0.309736
O O4 0.459585 0.095043 0.484449
O O5 0.500000 0.694162 0.250000
O O6 0.455781 0.683242 0.038848
O O7 0.669145 0.779386 0.152737
O O8 0.500000 0.497373 0.250000
O O9 0.351437 0.572639 0.103787
O O10 0.169763 0.474962 0.158313
O O11 0.185452 0.883679 0.383293
O O12 0.878305 0.914117 0.465531
O O13 0.811062 0.642359 0.821135
O O14 0.500000 0.685794 0.750000
#
# Coordination Sequence:
#
# PCOD9455501 Si02
#       6
#     8   8   8   8   8   8
#     4  11  24  43  63  95 133 177 226 277 347 403
#     4  11  21  43  65  95 126 173 234 269 338 413
#     4  12  20  40  70  95 128 171 233 280 330 412
#     4  10  20  39  63 100 120 172 222 276 341 398
#     4  10  23  39  68  98 132 175 225 280 341 409
#     4  10  23  41  62  99 138 171 220 287 354 406
#
# _framework density 25.117225999999999
#
# number of rings (size 3 to 8) (size 9 to 14) (size 15 to 20)
#    0.000    1.333    5.000    2.500    2.333    4.667 
#    6.000    0.833    0.000    0.000    0.000    0.000 
#    0.000    0.000    0.000    0.000    0.000    0.000 
#
# Total GULP energy -268150.322378 kJ/mol
# GULP energy per Si atom -5586.465050 kJ/mol
# Density = 2.506006 g / cm^3
# Si number density = 25.117226 Si / 1000 Ang^3
#
#
#
# Elastic Constant Matrix: (Units=GPa)
#
#
# Indices 1 2 3 4 5 6 
#
# 1 43.5121 12.9705 28.5446 0.0000 0.0000 0.0000
# 2 12.9705 102.9298 37.3707 0.0000 0.0000 0.0000
# 3 28.5446 37.3707 157.7313 0.0000 0.0000 0.0000
# 4 0.0000 0.0000 0.0000 20.3715 0.0000 0.0000
# 5 0.0000 0.0000 0.0000 0.0000 40.0647 0.0000
# 6 0.0000 0.0000 0.0000 0.0000 0.0000 -20.3472
#
#
#
# Elastic Compliance Matrix: (Units=1/GPa)
#
#
# Indices 1 2 3 4 5 6 
#
# 1 0.026360 -0.001739 -0.004358 0.000000 0.000000 0.000000
# 2 -0.001739 0.010745 -0.002231 0.000000 0.000000 0.000000
# 3 -0.004358 -0.002231 0.007657 0.000000 0.000000 0.000000
# 4 0.000000 0.000000 0.000000 0.049088 0.000000 0.000000
# 5 0.000000 0.000000 0.000000 0.000000 0.024960 0.000000
# 6 0.000000 0.000000 0.000000 0.000000 0.000000 -0.049147
#
#
# Mechanical properties :
#
#
# Convention : Reuss Voigt Hill
#
# Bulk Modulus (GPa) = 35.58151 51.32717 43.45434
# Shear Modulus (GPa) = 52.25356 23.03696 37.64526
#
# Velocity S-wave (km/s) = 4.56607 3.03178 3.87561
# Velocity P-wave (km/s) = 6.48040 5.72145 6.11272
#
# Compressibility (1/GPa) = 0.02810449
#
# Stress axis : x y z
#
# Youngs Moduli (GPa) = 37.93675 93.07080 130.59673
#
# Poissons Ratio (x) = 0.16188 0.56917
# Poissons Ratio (y) = 0.06598 0.29135
# Poissons Ratio (z) = 0.16534 0.20763
#
# Static dielectric constant tensor:
#      x y z
#    x 1.711940 0.000000 0.000000 
#    y 0.000000 1.979390 0.000000 
#    z 0.000000 0.000000 1.988490 
# 
# From -- ./inp_files/10088.got.cif
#   From: 2010.05.17/outbox.cif.g08.bks.cpg/sg60_6_cif.got.tgz:10088.got - 2010.06.03 14:59:27.
