data_PCOD9455852
_publ_section_title
;
Structure prediction by ZEFSAII (Michael W. Deem and Ramdas Pophale) SiO2 
 PCOD9455852
Probable space group: P B C N
;
_chemical_formula_sum "Si O2"
_cell_formula_units_Z 56
_cell_length_a 4.994545
_cell_length_b 16.821080
_cell_length_c 34.463980
_cell_angle_alpha 90.000000
_cell_angle_beta 90.000000
_cell_angle_gamma 90.000000
_cell_volume 2895.444443
_symmetry_space_group_name_H-M "P B C N"
_symmetry_group_IT_number 60
_symmetry_cell_setting 'orthorhombic'
loop_
_space_group_symop_operation_xyz
x,y,z
1/2-x,1/2-y,1/2+z
1/2+x,1/2-y,-z
-x,y,1/2-z
-x,-y,-z
1/2+x,1/2+y,1/2-z
1/2-x,1/2+y,z
x,-y,1/2+z
loop_
_atom_site_type_symbol
_atom_site_label
_atom_site_fract_x
_atom_site_fract_y
_atom_site_fract_z
Si Si1 0.758128 0.306263 0.604215
Si Si2 0.708613 0.445983 0.455980
Si Si3 0.248333 0.306991 0.807813
Si Si4 0.500000 0.938728 0.250000
Si Si5 0.000000 0.061267 0.250000
Si Si6 0.758140 0.193736 0.895784
Si Si7 0.708613 0.945982 0.544020
Si Si8 0.751686 0.193012 0.807813
O O1 0.820269 0.334721 0.648368
O O2 0.499993 0.250000 0.604358
O O3 0.728986 0.379701 0.575541
O O4 0.999993 0.249999 0.591359
O O5 0.771010 0.379703 0.424458
O O6 0.410252 0.479789 0.451604
O O7 0.750002 0.415770 0.500000
O O8 0.910252 0.520212 0.451604
O O9 0.370360 0.377235 0.781615
O O10 0.500015 0.250003 0.811541
O O11 0.000014 0.250000 0.794407
O O12 0.250000 0.999997 0.250000
O O13 0.370354 0.877231 0.218385
O O14 0.820282 0.165279 0.851631
#
# Coordination Sequence:
#
# PCOD9455852 Si02
#       8
#     8   8   8   4   4   8   8   8
#     4  10  21  37  59  85 111 148 197 241 283 339
#     4  10  21  36  55  82 117 155 190 231 291 349
#     4  10  22  41  61  82 115 157 193 233 297 361
#     4  12  25  38  59  92 118 144 194 248 291 346
#     4  12  25  38  59  92 118 144 194 248 291 346
#     4  10  21  37  59  85 111 148 197 241 283 339
#     4  10  21  36  55  82 117 155 190 231 291 349
#     4  10  22  41  61  82 115 157 193 233 297 361
#
# _framework density 19.340726
#
# number of rings (size 3 to 8) (size 9 to 14) (size 15 to 20)
#    0.000    1.714    0.000    3.857    0.000    4.571 
#    0.000    0.000    0.000    0.000    0.000    0.000 
#    0.000    0.000    0.000    0.000    0.000    0.000 
#
# Total GULP energy -311740.268233 kJ/mol
# GULP energy per Si atom -5566.790504 kJ/mol
# Density = 1.929671 g / cm^3
# Si number density = 19.340726 Si / 1000 Ang^3
#
#
#
# Elastic Constant Matrix: (Units=GPa)
#
#
# Indices 1 2 3 4 5 6 
#
# 1 117.1313 17.5356 13.5972 0.0000 0.0000 0.0000
# 2 17.5356 104.7663 87.2032 0.0000 0.0000 0.0000
# 3 13.5972 87.2032 128.8793 0.0000 0.0000 0.0000
# 4 0.0000 0.0000 0.0000 -94.5709 0.0000 0.0000
# 5 0.0000 0.0000 0.0000 0.0000 27.3240 0.0000
# 6 0.0000 0.0000 0.0000 0.0000 0.0000 33.7051
#
#
#
# Elastic Compliance Matrix: (Units=1/GPa)
#
#
# Indices 1 2 3 4 5 6 
#
# 1 0.008758 -0.001595 0.000155 0.000000 0.000000 0.000000
# 2 -0.001595 0.022143 -0.014814 0.000000 0.000000 0.000000
# 3 0.000155 -0.014814 0.017766 0.000000 0.000000 0.000000
# 4 0.000000 0.000000 0.000000 -0.010574 0.000000 0.000000
# 5 0.000000 0.000000 0.000000 0.000000 0.036598 0.000000
# 6 0.000000 0.000000 0.000000 0.000000 0.000000 0.029669
#
#
# Mechanical properties :
#
#
# Convention : Reuss Voigt Hill
#
# Bulk Modulus (GPa) = 61.88334 65.27209 63.57772
# Shear Modulus (GPa) = 35.14830 8.78770 21.96800
#
# Velocity S-wave (km/s) = 4.26763 2.13389 3.37388
# Velocity P-wave (km/s) = 7.50662 6.31610 6.93695
#
# Compressibility (1/GPa) = 0.01615944
#
# Stress axis : x y z
#
# Youngs Moduli (GPa) = 114.17850 45.16174 56.28618
#
# Poissons Ratio (x) = 0.07205 -0.00875
# Poissons Ratio (y) = 0.18215 0.83382
# Poissons Ratio (z) = -0.01774 0.66903
#
# Static dielectric constant tensor:
#      x y z
#    x 1.608680 0.000000 0.000000 
#    y 0.000000 1.618700 0.000000 
#    z 0.000000 0.000000 1.741230 
# 
# From -- ./inp_files/25743.got.cif
#   From: 2010.05.17/outbox.cif.g08.bks.cpg/sg60_13_cif.got.tgz:25743.got - 2010.06.03 14:59:27.
