data_PCOD9455636
_publ_section_title
;
Structure prediction by ZEFSAII (Michael W. Deem and Ramdas Pophale) SiO2 
 PCOD9455636
Probable space group: P B C N
;
_chemical_formula_sum "Si O2"
_cell_formula_units_Z 48
_cell_length_a 15.814988
_cell_length_b 14.207853
_cell_length_c 9.368707
_cell_angle_alpha 90.000000
_cell_angle_beta 90.000000
_cell_angle_gamma 90.000000
_cell_volume 2105.120588
_symmetry_space_group_name_H-M "P B C N"
_symmetry_group_IT_number 60
_symmetry_cell_setting 'orthorhombic'
loop_
_space_group_symop_operation_xyz
x,y,z
1/2-x,1/2-y,1/2+z
1/2+x,1/2-y,-z
-x,y,1/2-z
-x,-y,-z
1/2+x,1/2+y,1/2-z
1/2-x,1/2+y,z
x,-y,1/2+z
loop_
_atom_site_type_symbol
_atom_site_label
_atom_site_fract_x
_atom_site_fract_y
_atom_site_fract_z
Si Si1 0.558876 0.260823 0.118602
Si Si2 0.293053 0.553401 0.500772
Si Si3 0.411077 0.116912 0.784711
Si Si4 0.895109 0.561884 0.031478
Si Si5 0.024572 0.094176 0.413472
Si Si6 0.723131 0.370364 0.178063
O O1 0.500000 0.288071 0.250000
O O2 0.553210 0.150386 0.088165
O O3 0.653788 0.290494 0.158054
O O4 0.525475 0.320214 0.985042
O O5 0.203288 0.583812 0.435251
O O6 0.374785 0.603036 0.434441
O O7 0.293102 0.443966 0.451461
O O8 0.293272 0.575495 0.670658
O O9 0.500000 0.168179 0.750000
O O10 0.395988 0.059911 0.638748
O O11 0.320860 0.164587 0.818057
O O12 0.421530 0.037354 0.904461
O O13 0.000000 0.082245 0.250000
O O14 0.000000 0.000000 0.500000
#
# Coordination Sequence:
#
# PCOD9455636 Si02
#       6
#     8   8   8   8   8   8
#     4  12  24  43  63  97 138 171 221 278 338 394
#     4  10  20  41  61  95 127 172 217 255 328 402
#     4  10  21  44  68  91 123 170 224 267 328 398
#     4  10  24  43  68  95 128 171 226 273 333 395
#     4  12  23  39  67  98 134 178 217 265 334 403
#     4  10  21  38  66  93 128 168 213 267 321 401
#
# _framework density 22.801545000000001
#
# number of rings (size 3 to 8) (size 9 to 14) (size 15 to 20)
#    0.000    1.333    3.333    2.500    0.000    0.667 
#    9.000    0.000    0.000    0.000    0.000    0.000 
#    0.000    0.000    0.000    0.000    0.000    0.000 
#
# Total GULP energy -268230.692334 kJ/mol
# GULP energy per Si atom -5588.139424 kJ/mol
# Density = 2.274965 g / cm^3
# Si number density = 22.801545 Si / 1000 Ang^3
#
#
#
# Elastic Constant Matrix: (Units=GPa)
#
#
# Indices 1 2 3 4 5 6 
#
# 1 173.4977 18.0940 13.2401 0.0000 0.0000 0.0000
# 2 18.0940 57.4341 24.6563 0.0000 0.0000 0.0000
# 3 13.2401 24.6563 100.2383 0.0000 0.0000 0.0000
# 4 0.0000 0.0000 0.0000 16.1196 0.0000 0.0000
# 5 0.0000 0.0000 0.0000 0.0000 30.0513 0.0000
# 6 0.0000 0.0000 0.0000 0.0000 0.0000 23.3022
#
#
#
# Elastic Compliance Matrix: (Units=1/GPa)
#
#
# Indices 1 2 3 4 5 6 
#
# 1 0.005971 -0.001725 -0.000364 0.000000 0.000000 0.000000
# 2 -0.001725 0.019965 -0.004683 0.000000 0.000000 0.000000
# 3 -0.000364 -0.004683 0.011176 0.000000 0.000000 0.000000
# 4 0.000000 0.000000 0.000000 0.062036 0.000000 0.000000
# 5 0.000000 0.000000 0.000000 0.000000 0.033276 0.000000
# 6 0.000000 0.000000 0.000000 0.000000 0.000000 0.042914
#
#
# Mechanical properties :
#
#
# Convention : Reuss Voigt Hill
#
# Bulk Modulus (GPa) = 42.43030 49.23901 45.83466
# Shear Modulus (GPa) = 25.41414 32.23993 28.82704
#
# Velocity S-wave (km/s) = 3.34215 3.76431 3.55950
# Velocity P-wave (km/s) = 5.79157 6.36670 6.08593
#
# Compressibility (1/GPa) = 0.02356806
#
# Stress axis : x y z
#
# Youngs Moduli (GPa) = 167.46335 50.08744 89.47495
#
# Poissons Ratio (x) = 0.08639 0.03261
# Poissons Ratio (y) = 0.28884 0.41902
# Poissons Ratio (z) = 0.06104 0.23457
#
# Static dielectric constant tensor:
#      x y z
#    x 1.934300 0.000000 0.000000 
#    y 0.000000 1.813900 0.000000 
#    z 0.000000 0.000000 1.850040 
# 
# From -- ./inp_files/6707.got.cif
#   From: 2010.05.17/outbox.cif.g08.bks.cpg/sg60_4_cif.got.tgz:6707.got - 2010.06.03 14:59:27.
