data_PCOD9455354
_publ_section_title
;
Structure prediction by ZEFSAII (Michael W. Deem and Ramdas Pophale) SiO2 
 PCOD9455354
Probable space group: P B C N
;
_chemical_formula_sum "Si O2"
_cell_formula_units_Z 40
_cell_length_a 24.018575
_cell_length_b 5.200997
_cell_length_c 14.608430
_cell_angle_alpha 90.000000
_cell_angle_beta 90.000000
_cell_angle_gamma 90.000000
_cell_volume 1824.892913
_symmetry_space_group_name_H-M "P B C N"
_symmetry_group_IT_number 60
_symmetry_cell_setting 'orthorhombic'
loop_
_space_group_symop_operation_xyz
x,y,z
1/2-x,1/2-y,1/2+z
1/2+x,1/2-y,-z
-x,y,1/2-z
-x,-y,-z
1/2+x,1/2+y,1/2-z
1/2-x,1/2+y,z
x,-y,1/2+z
loop_
_atom_site_type_symbol
_atom_site_label
_atom_site_fract_x
_atom_site_fract_y
_atom_site_fract_z
Si Si1 0.533969 0.772760 0.598319
Si Si2 0.789052 0.677516 0.168994
Si Si3 0.418110 0.555996 0.569343
Si Si4 0.616878 0.526738 0.737754
Si Si5 0.372470 0.134473 0.920589
O O1 0.468137 0.746942 0.599683
O O2 0.556050 0.634195 0.505977
O O3 0.562705 0.638319 0.685714
O O4 0.563215 0.048797 0.593336
O O5 0.750268 0.426618 0.170378
O O6 0.836346 0.749159 0.244045
O O7 0.831245 0.608844 0.084613
O O8 0.396943 0.427337 0.661956
O O9 0.371080 0.712476 0.514685
O O10 0.639290 0.315369 0.666378
#
# Coordination Sequence:
#
# PCOD9455354 Si02
#       5
#     8   8   8   8   8
#     4   9  20  36  61  92 135 175 209 271 337 387
#     4  11  22  43  70  89 124 169 213 275 334 381
#     4  10  20  38  60  97 135 170 223 268 321 412
#     4  10  21  38  64  95 129 172 222 271 334 397
#     4  10  21  39  64  94 128 176 215 269 337 388
#
# _framework density 21.919094999999999
#
# number of rings (size 3 to 8) (size 9 to 14) (size 15 to 20)
#    0.000    2.000    2.000    1.200    0.000    3.200 
#    0.000   14.000    0.000    0.000    0.000    0.000 
#    0.000    0.000    0.000    0.000    0.000    0.000 
#
# Total GULP energy -222881.261154 kJ/mol
# GULP energy per Si atom -5572.031529 kJ/mol
# Density = 2.186921 g / cm^3
# Si number density = 21.919095 Si / 1000 Ang^3
#
#
#
# Elastic Constant Matrix: (Units=GPa)
#
#
# Indices 1 2 3 4 5 6 
#
# 1 67.2866 10.1578 39.0506 0.0000 0.0000 0.0000
# 2 10.1578 76.3359 31.3664 0.0000 0.0000 0.0000
# 3 39.0506 31.3664 127.0976 0.0000 0.0000 0.0000
# 4 0.0000 0.0000 0.0000 10.5499 0.0000 0.0000
# 5 0.0000 0.0000 0.0000 0.0000 6.6716 0.0000
# 6 0.0000 0.0000 0.0000 0.0000 0.0000 45.4233
#
#
#
# Elastic Compliance Matrix: (Units=1/GPa)
#
#
# Indices 1 2 3 4 5 6 
#
# 1 0.018088 -0.000137 -0.005524 0.000000 0.000000 0.000000
# 2 -0.000137 0.014579 -0.003556 0.000000 0.000000 0.000000
# 3 -0.005524 -0.003556 0.010443 0.000000 0.000000 0.000000
# 4 0.000000 0.000000 0.000000 0.094788 0.000000 0.000000
# 5 0.000000 0.000000 0.000000 0.000000 0.149888 0.000000
# 6 0.000000 0.000000 0.000000 0.000000 0.000000 0.022015
#
#
# Mechanical properties :
#
#
# Convention : Reuss Voigt Hill
#
# Bulk Modulus (GPa) = 40.52419 47.98552 44.25485
# Shear Modulus (GPa) = 14.86060 25.20532 20.03296
#
# Velocity S-wave (km/s) = 2.60662 3.39473 3.02644
# Velocity P-wave (km/s) = 5.25238 6.10780 5.69617
#
# Compressibility (1/GPa) = 0.02467662
#
# Stress axis : x y z
#
# Youngs Moduli (GPa) = 55.28443 68.59004 95.76079
#
# Poissons Ratio (x) = 0.00941 0.52896
# Poissons Ratio (y) = 0.00759 0.34051
# Poissons Ratio (z) = 0.30538 0.24390
#
# Static dielectric constant tensor:
#      x y z
#    x 1.857240 0.000000 0.000000 
#    y 0.000000 1.927830 0.000000 
#    z 0.000000 0.000000 1.787940 
# 
# From -- ./inp_files/17816.got.cif
#   From: 2010.05.17/outbox.cif.g08.bks.cpg/sg60_9_cif.got.tgz:17816.got - 2010.06.03 14:59:27.
