data_PCOD9455207
_publ_section_title
;
Structure prediction by ZEFSAII (Michael W. Deem and Ramdas Pophale) SiO2 
 PCOD9455207
Probable space group: P B C N
;
_chemical_formula_sum "Si O2"
_cell_formula_units_Z 56
_cell_length_a 23.281089
_cell_length_b 5.137381
_cell_length_c 24.233858
_cell_angle_alpha 90.000000
_cell_angle_beta 90.000000
_cell_angle_gamma 90.000000
_cell_volume 2898.462094
_symmetry_space_group_name_H-M "P B C N"
_symmetry_group_IT_number 60
_symmetry_cell_setting 'orthorhombic'
loop_
_space_group_symop_operation_xyz
x,y,z
1/2-x,1/2-y,1/2+z
1/2+x,1/2-y,-z
-x,y,1/2-z
-x,-y,-z
1/2+x,1/2+y,1/2-z
1/2-x,1/2+y,z
x,-y,1/2+z
loop_
_atom_site_type_symbol
_atom_site_label
_atom_site_fract_x
_atom_site_fract_y
_atom_site_fract_z
Si Si1 0.785600 0.334787 0.380524
Si Si2 0.899893 0.606953 0.405379
Si Si3 0.566319 0.426831 0.310790
Si Si4 0.539229 0.250867 0.511012
Si Si5 0.913477 0.563840 0.735500
Si Si6 0.985871 0.719402 0.630953
Si Si7 0.215272 0.359265 0.252673
O O1 0.760944 0.055145 0.395804
O O2 0.846445 0.414225 0.405695
O O3 0.791793 0.356273 0.313940
O O4 0.890219 0.826697 0.358236
O O5 0.911820 0.732702 0.464810
O O6 0.957215 0.447747 0.385871
O O7 0.579553 0.685082 0.275659
O O8 0.565752 0.189960 0.268235
O O9 0.510028 0.506652 0.345632
O O10 0.500000 0.500000 0.500000
O O11 0.552011 0.250755 0.576054
O O12 0.500000 0.000000 0.500000
O O13 0.950591 0.598094 0.680869
O O14 0.845791 0.555063 0.723424
O O15 0.236717 0.072144 0.267594
#
# Coordination Sequence:
#
# PCOD9455207 Si02
#       7
#     8   8   8   8   8   8   8
#     4  10  22  34  57  82 113 150 194 243 298 348
#     4  11  23  40  60  86 123 151 199 248 299 352
#     4  12  23  35  57  88 121 155 183 242 305 352
#     4  10  22  39  60  84 111 157 194 235 284 355
#     4  12  26  36  57  90 123 156 197 242 306 366
#     4  11  25  39  61  88 127 160 200 238 307 369
#     4  10  20  37  55  78 113 155 197 243 292 353
#
# _framework density 19.320591
#
# number of rings (size 3 to 8) (size 9 to 14) (size 15 to 20)
#    0.000    1.143    4.286    1.286   10.000    0.000 
#    0.000    0.000    0.000    1.714    0.000    0.000 
#    0.000    0.000    0.000    0.000    0.000    0.000 
#
# Total GULP energy -312919.634616 kJ/mol
# GULP energy per Si atom -5587.850618 kJ/mol
# Density = 1.927662 g / cm^3
# Si number density = 19.320591 Si / 1000 Ang^3
#
#
#
# Elastic Constant Matrix: (Units=GPa)
#
#
# Indices 1 2 3 4 5 6 
#
# 1 61.1628 0.6689 28.8423 0.0000 0.0000 0.0000
# 2 0.6689 106.1086 31.0098 0.0000 0.0000 0.0000
# 3 28.8423 31.0098 109.1533 0.0000 0.0000 0.0000
# 4 0.0000 0.0000 0.0000 14.3420 0.0000 0.0000
# 5 0.0000 0.0000 0.0000 0.0000 20.2523 0.0000
# 6 0.0000 0.0000 0.0000 0.0000 0.0000 23.7487
#
#
#
# Elastic Compliance Matrix: (Units=1/GPa)
#
#
# Indices 1 2 3 4 5 6 
#
# 1 0.018882 0.001460 -0.005404 0.000000 0.000000 0.000000
# 2 0.001460 0.010391 -0.003338 0.000000 0.000000 0.000000
# 3 -0.005404 -0.003338 0.011538 0.000000 0.000000 0.000000
# 4 0.000000 0.000000 0.000000 0.069725 0.000000 0.000000
# 5 0.000000 0.000000 0.000000 0.000000 0.049377 0.000000
# 6 0.000000 0.000000 0.000000 0.000000 0.000000 0.042108
#
#
# Mechanical properties :
#
#
# Convention : Reuss Voigt Hill
#
# Bulk Modulus (GPa) = 38.09937 44.16296 41.13116
# Shear Modulus (GPa) = 22.18938 26.06217 24.12578
#
# Velocity S-wave (km/s) = 3.39260 3.67677 3.53754
# Velocity P-wave (km/s) = 5.92526 6.39784 6.16608
#
# Compressibility (1/GPa) = 0.02624715
#
# Stress axis : x y z
#
# Youngs Moduli (GPa) = 52.95956 96.24129 86.67256
#
# Poissons Ratio (x) = -0.14055 0.46840
# Poissons Ratio (y) = -0.07734 0.28929
# Poissons Ratio (z) = 0.28621 0.32123
#
# Static dielectric constant tensor:
#      x y z
#    x 1.704820 0.000000 0.000000 
#    y 0.000000 1.721210 0.000000 
#    z 0.000000 0.000000 1.677060 
# 
# From -- ./inp_files/24573.got.cif
#   From: 2010.05.17/outbox.cif.g08.bks.cpg/sg60_13_cif.got.tgz:24573.got - 2010.06.03 14:59:27.
