data_PCOD9455676
_publ_section_title
;
Structure prediction by ZEFSAII (Michael W. Deem and Ramdas Pophale) SiO2 
 PCOD9455676
Probable space group: P B C N
;
_chemical_formula_sum "Si O2"
_cell_formula_units_Z 60
_cell_length_a 11.489820
_cell_length_b 21.394513
_cell_length_c 12.944593
_cell_angle_alpha 90.000000
_cell_angle_beta 90.000000
_cell_angle_gamma 90.000000
_cell_volume 3182.028245
_symmetry_space_group_name_H-M "P B C N"
_symmetry_group_IT_number 60
_symmetry_cell_setting 'orthorhombic'
loop_
_space_group_symop_operation_xyz
x,y,z
1/2-x,1/2-y,1/2+z
1/2+x,1/2-y,-z
-x,y,1/2-z
-x,-y,-z
1/2+x,1/2+y,1/2-z
1/2-x,1/2+y,z
x,-y,1/2+z
loop_
_atom_site_type_symbol
_atom_site_label
_atom_site_fract_x
_atom_site_fract_y
_atom_site_fract_z
Si Si1 0.624171 0.410384 0.689612
Si Si2 0.389553 0.295465 0.187955
Si Si3 0.000000 0.276837 0.250000
Si Si4 0.194749 0.624686 0.795133
Si Si5 0.785048 0.083155 0.495533
Si Si6 0.229912 0.014563 0.673912
Si Si7 0.691289 0.694517 0.336197
Si Si8 0.452109 0.591895 0.546510
O O1 0.500000 0.411042 0.750000
O O2 0.693502 0.470751 0.730422
O O3 0.688793 0.348415 0.732716
O O4 0.603279 0.409950 0.567817
O O5 0.500000 0.270327 0.250000
O O6 0.314992 0.340756 0.263685
O O7 0.298926 0.241779 0.157485
O O8 0.435818 0.338818 0.094510
O O9 0.096750 0.322820 0.295550
O O10 0.071000 0.233471 0.170211
O O11 0.183874 0.569124 0.711024
O O12 0.206244 0.594613 0.906435
O O13 0.802974 0.146229 0.429588
O O14 0.915619 0.068973 0.535115
O O15 0.734070 0.031558 0.418215
O O16 0.115952 0.047886 0.626471
#
# Coordination Sequence:
#
# PCOD9455676 Si02
#       8
#     8   8   4   8   8   8   8   8
#     4  11  20  34  55  86 117 148 186 242 285 348
#     4  10  21  37  55  81 115 144 190 238 283 349
#     4  10  20  42  60  76 116 166 194 234 280 358
#     4  10  22  37  59  83 113 155 192 237 291 338
#     4  11  20  33  56  87 114 144 191 239 286 349
#     4  10  22  33  56  85 119 146 190 236 298 337
#     4  10  21  37  58  83 114 150 193 232 291 341
#     4  11  20  33  55  86 113 149 186 231 298 343
#
# _framework density 18.855899000000001
#
# number of rings (size 3 to 8) (size 9 to 14) (size 15 to 20)
#    0.000    1.600    4.667    1.200    1.867    3.200 
#    0.000    0.667    5.867    0.000    0.000    0.000 
#    0.000    0.000    0.000    0.000    0.000    0.000 
#
# Total GULP energy -334870.754370 kJ/mol
# GULP energy per Si atom -5581.179239 kJ/mol
# Density = 1.881298 g / cm^3
# Si number density = 18.855899 Si / 1000 Ang^3
#
#
#
# Elastic Constant Matrix: (Units=GPa)
#
#
# Indices 1 2 3 4 5 6 
#
# 1 40.3235 18.2675 16.2806 0.0000 0.0000 0.0000
# 2 18.2675 97.4308 27.0735 0.0000 0.0000 0.0000
# 3 16.2806 27.0735 73.8200 0.0000 0.0000 0.0000
# 4 0.0000 0.0000 0.0000 17.3303 0.0000 0.0000
# 5 0.0000 0.0000 0.0000 0.0000 8.4166 0.0000
# 6 0.0000 0.0000 0.0000 0.0000 0.0000 13.0448
#
#
#
# Elastic Compliance Matrix: (Units=1/GPa)
#
#
# Indices 1 2 3 4 5 6 
#
# 1 0.028567 -0.004015 -0.004828 0.000000 0.000000 0.000000
# 2 -0.004015 0.011993 -0.003513 0.000000 0.000000 0.000000
# 3 -0.004828 -0.003513 0.015900 0.000000 0.000000 0.000000
# 4 0.000000 0.000000 0.000000 0.057703 0.000000 0.000000
# 5 0.000000 0.000000 0.000000 0.000000 0.118812 0.000000
# 6 0.000000 0.000000 0.000000 0.000000 0.000000 0.076659
#
#
# Mechanical properties :
#
#
# Convention : Reuss Voigt Hill
#
# Bulk Modulus (GPa) = 31.49744 37.20195 34.34969
# Shear Modulus (GPa) = 14.49581 17.75519 16.12550
#
# Velocity S-wave (km/s) = 2.77567 3.07192 2.92755
# Velocity P-wave (km/s) = 5.19741 5.68812 5.44829
#
# Compressibility (1/GPa) = 0.03174862
#
# Stress axis : x y z
#
# Youngs Moduli (GPa) = 35.00482 83.38522 62.89468
#
# Poissons Ratio (x) = 0.33476 0.30366
# Poissons Ratio (y) = 0.14053 0.22094
# Poissons Ratio (z) = 0.16900 0.29292
#
# Static dielectric constant tensor:
#      x y z
#    x 1.648980 0.000000 0.000000 
#    y 0.000000 1.693160 0.000000 
#    z 0.000000 0.000000 1.641660 
# 
# From -- ./inp_files/11248.got.cif
#   From: 2010.05.17/outbox.cif.g08.bks.cpg/sg60_6_cif.got.tgz:11248.got - 2010.06.03 14:59:27.
