data_PCOD9455464
_publ_section_title
;
Structure prediction by ZEFSAII (Michael W. Deem and Ramdas Pophale) SiO2 
 PCOD9455464
Probable space group: P B C N
;
_chemical_formula_sum "Si O2"
_cell_formula_units_Z 44
_cell_length_a 5.222883
_cell_length_b 10.944329
_cell_length_c 30.398234
_cell_angle_alpha 90.000000
_cell_angle_beta 90.000000
_cell_angle_gamma 90.000000
_cell_volume 1737.591930
_symmetry_space_group_name_H-M "P B C N"
_symmetry_group_IT_number 60
_symmetry_cell_setting 'orthorhombic'
loop_
_space_group_symop_operation_xyz
x,y,z
1/2-x,1/2-y,1/2+z
1/2+x,1/2-y,-z
-x,y,1/2-z
-x,-y,-z
1/2+x,1/2+y,1/2-z
1/2-x,1/2+y,z
x,-y,1/2+z
loop_
_atom_site_type_symbol
_atom_site_label
_atom_site_fract_x
_atom_site_fract_y
_atom_site_fract_z
Si Si1 0.455135 0.576680 0.956480
Si Si2 0.241196 0.722065 0.839436
Si Si3 0.115332 0.612404 0.208238
Si Si4 0.113165 0.009373 0.630437
Si Si5 0.047261 0.336833 0.080286
Si Si6 0.000000 0.691699 0.750000
O O1 0.467626 0.481452 0.915349
O O2 0.184238 0.643037 0.952839
O O3 0.686420 0.672519 0.945997
O O4 0.500000 0.500000 0.000000
O O5 0.383266 0.841542 0.821721
O O6 0.465003 0.634434 0.856915
O O7 0.044124 0.747317 0.879155
O O8 0.108531 0.654986 0.798359
O O9 0.324916 0.553789 0.176392
O O10 0.262024 0.724314 0.231990
O O11 0.000000 0.537734 0.250000
O O12 0.390811 0.041264 0.609282
#
# Coordination Sequence:
#
# PCOD9455464 Si02
#       6
#     8   8   8   8   8   4
#     4   9  18  34  61  96 122 158 207 260 319 389
#     4  10  20  39  57  90 121 169 214 259 322 380
#     4  10  22  41  55  88 125 170 217 267 317 381
#     4   9  21  38  60  95 118 170 210 264 326 384
#     4   9  19  35  59  92 120 160 203 248 324 372
#     4  10  22  38  58  82 124 172 210 270 314 372
#
# _framework density 25.322403000000001
#
# number of rings (size 3 to 8) (size 9 to 14) (size 15 to 20)
#    1.091    1.455    0.000    1.636    0.000    5.818 
#   21.273    0.000    0.000    0.000   47.273    0.000 
#    0.000    0.000    0.000    0.000    0.000    0.000 
#
# Total GULP energy -244975.972716 kJ/mol
# GULP energy per Si atom -5567.635744 kJ/mol
# Density = 2.526477 g / cm^3
# Si number density = 25.322403 Si / 1000 Ang^3
#
#
#
# Elastic Constant Matrix: (Units=GPa)
#
#
# Indices 1 2 3 4 5 6 
#
# 1 145.3302 0.0280 10.9678 0.0000 0.0000 0.0000
# 2 0.0280 -8.5210 27.7628 0.0000 0.0000 0.0000
# 3 10.9678 27.7628 97.7764 0.0000 0.0000 0.0000
# 4 0.0000 0.0000 0.0000 19.6179 0.0000 0.0000
# 5 0.0000 0.0000 0.0000 0.0000 39.6692 0.0000
# 6 0.0000 0.0000 0.0000 0.0000 0.0000 4.5008
#
#
#
# Elastic Compliance Matrix: (Units=1/GPa)
#
#
# Indices 1 2 3 4 5 6 
#
# 1 0.006912 -0.001300 -0.000406 0.000000 0.000000 0.000000
# 2 -0.001300 -0.060716 0.017386 0.000000 0.000000 0.000000
# 3 -0.000406 0.017386 0.005336 0.000000 0.000000 0.000000
# 4 0.000000 0.000000 0.000000 0.050974 0.000000 0.000000
# 5 0.000000 0.000000 0.000000 0.000000 0.025208 0.000000
# 6 0.000000 0.000000 0.000000 0.000000 0.000000 0.222183
#
#
# Mechanical properties :
#
#
# Convention : Reuss Voigt Hill
#
# Bulk Modulus (GPa) = -58.44771 34.67810 -11.88481
# Shear Modulus (GPa) = 23.49232 25.81272 24.65252
#
# Velocity S-wave (km/s) = 3.04917 3.19621 3.12355
# Velocity P-wave (km/s) = 3.27643 5.22928 2.88188
#
# Compressibility (1/GPa) = -0.01710931
#
# Stress axis : x y z
#
# Youngs Moduli (GPa) = 144.68054 -16.47011 187.39127
#
# Poissons Ratio (x) = -0.02142 0.07610
# Poissons Ratio (y) = 0.18814 -3.25793
# Poissons Ratio (z) = 0.05875 0.28634
#
# Static dielectric constant tensor:
#      x y z
#    x 2.069080 0.000000 0.000000 
#    y 0.000000 2.202930 0.000000 
#    z 0.000000 0.000000 2.067530 
# 
# From -- ./inp_files/25643.got.cif
#   From: 2010.05.17/outbox.cif.g08.bks.cpg/sg60_13_cif.got.tgz:25643.got - 2010.06.03 14:59:27.
