data_PCOD9455340
_publ_section_title
;
Structure prediction by ZEFSAII (Michael W. Deem and Ramdas Pophale) SiO2 
 PCOD9455340
Probable space group: P B C N
;
_chemical_formula_sum "Si O2"
_cell_formula_units_Z 40
_cell_length_a 8.168116
_cell_length_b 27.949510
_cell_length_c 9.085257
_cell_angle_alpha 90.000000
_cell_angle_beta 90.000000
_cell_angle_gamma 90.000000
_cell_volume 2074.117292
_symmetry_space_group_name_H-M "P B C N"
_symmetry_group_IT_number 60
_symmetry_cell_setting 'orthorhombic'
loop_
_space_group_symop_operation_xyz
x,y,z
1/2-x,1/2-y,1/2+z
1/2+x,1/2-y,-z
-x,y,1/2-z
-x,-y,-z
1/2+x,1/2+y,1/2-z
1/2-x,1/2+y,z
x,-y,1/2+z
loop_
_atom_site_type_symbol
_atom_site_label
_atom_site_fract_x
_atom_site_fract_y
_atom_site_fract_z
Si Si1 0.328425 0.385829 0.326727
Si Si2 0.309365 0.199451 0.988275
Si Si3 0.364519 0.141108 0.533343
Si Si4 0.685508 0.703509 0.192040
Si Si5 0.447593 0.048498 0.920557
O O1 0.500000 0.397584 0.250000
O O2 0.322661 0.340565 0.436805
O O3 0.237732 0.430472 0.406280
O O4 0.218497 0.367028 0.190649
O O5 0.488923 0.179013 0.953246
O O6 0.294962 0.206001 0.162146
O O7 0.287874 0.248849 0.903593
O O8 0.239771 0.159492 0.410722
O O9 0.451786 0.090865 0.500015
O O10 0.500000 0.700815 0.250000
O O11 0.500000 0.044403 0.750000
O O12 0.500000 0.000000 0.000000
#
# Coordination Sequence:
#
# PCOD9455340 Si02
#       5
#     8   8   8   8   8
#     4  10  20  38  60  84 112 147 191 241 284 333
#     4  11  22  36  56  79 113 156 191 233 287 345
#     4  10  22  40  57  81 115 152 192 234 289 346
#     4  12  23  35  54  83 114 151 195 240 283 338
#     4   9  20  39  62  83 112 150 187 232 290 350
#
# _framework density 19.285311
#
# number of rings (size 3 to 8) (size 9 to 14) (size 15 to 20)
#    0.000    1.600    0.000    7.200    0.000    4.800 
#    0.000    5.000    0.000    0.000    0.000    0.000 
#    0.000    0.000    0.000    0.000    0.000    0.000 
#
# Total GULP energy -223312.296866 kJ/mol
# GULP energy per Si atom -5582.807422 kJ/mol
# Density = 1.924142 g / cm^3
# Si number density = 19.285311 Si / 1000 Ang^3
#
#
#
# Elastic Constant Matrix: (Units=GPa)
#
#
# Indices 1 2 3 4 5 6 
#
# 1 71.4736 45.5468 24.4225 0.0000 0.0000 0.0000
# 2 45.5468 130.2675 53.6186 0.0000 0.0000 0.0000
# 3 24.4225 53.6186 95.4756 0.0000 0.0000 0.0000
# 4 0.0000 0.0000 0.0000 27.4157 0.0000 0.0000
# 5 0.0000 0.0000 0.0000 0.0000 21.5596 0.0000
# 6 0.0000 0.0000 0.0000 0.0000 0.0000 9.9081
#
#
#
# Elastic Compliance Matrix: (Units=1/GPa)
#
#
# Indices 1 2 3 4 5 6 
#
# 1 0.018146 -0.005767 -0.001403 0.000000 0.000000 0.000000
# 2 -0.005767 0.011817 -0.005161 0.000000 0.000000 0.000000
# 3 -0.001403 -0.005161 0.013731 0.000000 0.000000 0.000000
# 4 0.000000 0.000000 0.000000 0.036475 0.000000 0.000000
# 5 0.000000 0.000000 0.000000 0.000000 0.046383 0.000000
# 6 0.000000 0.000000 0.000000 0.000000 0.000000 0.100928
#
#
# Mechanical properties :
#
#
# Convention : Reuss Voigt Hill
#
# Bulk Modulus (GPa) = 52.54383 60.48807 56.51595
# Shear Modulus (GPa) = 19.34335 23.35192 21.34763
#
# Velocity S-wave (km/s) = 3.17047 3.48352 3.33068
# Velocity P-wave (km/s) = 6.38022 6.90021 6.64530
#
# Compressibility (1/GPa) = 0.01903173
#
# Stress axis : x y z
#
# Youngs Moduli (GPa) = 55.10984 84.62153 72.82617
#
# Poissons Ratio (x) = 0.48801 0.10217
# Poissons Ratio (y) = 0.31782 0.37588
# Poissons Ratio (z) = 0.07731 0.43676
#
# Static dielectric constant tensor:
#      x y z
#    x 1.727050 0.000000 0.000000 
#    y 0.000000 1.678280 0.000000 
#    z 0.000000 0.000000 1.651550 
# 
# From -- ./inp_files/3817.got.cif
#   From: 2010.05.17/outbox.cif.g08.bks.cpg/sg60_2_cif.got.tgz:3817.got - 2010.06.03 14:59:27.
