data_PCOD9455081
_publ_section_title
;
Structure prediction by ZEFSAII (Michael W. Deem and Ramdas Pophale) SiO2 
 PCOD9455081
Probable space group: P B C N
;
_chemical_formula_sum "Si O2"
_cell_formula_units_Z 64
_cell_length_a 8.610372
_cell_length_b 18.090595
_cell_length_c 21.580402
_cell_angle_alpha 90.000000
_cell_angle_beta 90.000000
_cell_angle_gamma 90.000000
_cell_volume 3361.509140
_symmetry_space_group_name_H-M "P B C N"
_symmetry_group_IT_number 60
_symmetry_cell_setting 'orthorhombic'
loop_
_space_group_symop_operation_xyz
x,y,z
1/2-x,1/2-y,1/2+z
1/2+x,1/2-y,-z
-x,y,1/2-z
-x,-y,-z
1/2+x,1/2+y,1/2-z
1/2-x,1/2+y,z
x,-y,1/2+z
loop_
_atom_site_type_symbol
_atom_site_label
_atom_site_fract_x
_atom_site_fract_y
_atom_site_fract_z
Si Si1 0.932210 0.858652 0.318861
Si Si2 0.676890 0.763650 0.270047
Si Si3 0.288475 0.566790 0.488649
Si Si4 0.028632 0.999045 0.602059
Si Si5 0.432396 0.728590 0.462314
Si Si6 0.498327 0.860506 0.942486
Si Si7 0.180287 0.150605 0.120824
Si Si8 0.827715 0.254451 0.636223
O O1 0.756289 0.831144 0.307946
O O2 0.000000 0.855373 0.250000
O O3 0.026481 0.801116 0.362046
O O4 0.966872 0.937704 0.347251
O O5 0.500000 0.776455 0.250000
O O6 0.700922 0.694508 0.315688
O O7 0.762003 0.747665 0.205224
O O8 0.368439 0.518310 0.434185
O O9 0.347498 0.526962 0.550496
O O10 0.361712 0.650590 0.487422
O O11 0.105378 0.579342 0.478291
O O12 0.076647 0.921230 0.630652
O O13 0.474887 0.789361 0.513150
O O14 0.586400 0.704945 0.425154
O O15 0.307080 0.762157 0.413758
O O16 0.664224 0.876707 0.913042
O O17 0.391425 0.833349 0.885389
#
# Coordination Sequence:
#
# PCOD9455081 Si02
#       8
#     8   8   8   8   8   8   8   8
#     4  10  22  40  64  87 116 164 208 255 308 372
#     4  11  22  39  65  90 121 156 209 267 308 366
#     4   9  21  37  58  84 126 167 201 251 313 386
#     4  10  22  41  57  84 127 167 204 248 319 377
#     4  10  20  35  60  95 119 158 202 264 314 365
#     4  11  21  35  60  94 121 158 209 256 318 366
#     4  11  22  37  59  93 123 160 204 254 316 374
#     4  10  20  37  60  90 118 154 208 256 308 361
#
# _framework density 19.039069000000001
#
# number of rings (size 3 to 8) (size 9 to 14) (size 15 to 20)
#    0.000    1.750    2.500    2.250    1.750    3.000 
#    0.000    2.500    0.000    0.000    0.000    0.000 
#    0.000    0.000    0.000    0.000    0.000    0.000 
#
# Total GULP energy -356911.420319 kJ/mol
# GULP energy per Si atom -5576.740942 kJ/mol
# Density = 1.899574 g / cm^3
# Si number density = 19.039069 Si / 1000 Ang^3
#
#
#
# Elastic Constant Matrix: (Units=GPa)
#
#
# Indices 1 2 3 4 5 6 
#
# 1 97.7242 7.2181 17.9968 0.0000 0.0000 0.0000
# 2 7.2181 58.9306 26.4714 0.0000 0.0000 0.0000
# 3 17.9968 26.4714 53.0030 0.0000 0.0000 0.0000
# 4 0.0000 0.0000 0.0000 21.1080 0.0000 0.0000
# 5 0.0000 0.0000 0.0000 0.0000 21.2858 0.0000
# 6 0.0000 0.0000 0.0000 0.0000 0.0000 16.0839
#
#
#
# Elastic Compliance Matrix: (Units=1/GPa)
#
#
# Indices 1 2 3 4 5 6 
#
# 1 0.010924 0.000423 -0.003920 0.000000 0.000000 0.000000
# 2 0.000423 0.021893 -0.011078 0.000000 0.000000 0.000000
# 3 -0.003920 -0.011078 0.025731 0.000000 0.000000 0.000000
# 4 0.000000 0.000000 0.000000 0.047375 0.000000 0.000000
# 5 0.000000 0.000000 0.000000 0.000000 0.046980 0.000000
# 6 0.000000 0.000000 0.000000 0.000000 0.000000 0.062174
#
#
# Mechanical properties :
#
#
# Convention : Reuss Voigt Hill
#
# Bulk Modulus (GPa) = 34.01679 34.78118 34.39899
# Shear Modulus (GPa) = 19.68300 22.22698 20.95499
#
# Velocity S-wave (km/s) = 3.21880 3.42049 3.32118
# Velocity P-wave (km/s) = 5.63204 5.82303 5.72833
#
# Compressibility (1/GPa) = 0.02939725
#
# Stress axis : x y z
#
# Youngs Moduli (GPa) = 91.54499 45.67573 38.86415
#
# Poissons Ratio (x) = -0.01932 0.15236
# Poissons Ratio (y) = -0.03872 0.43053
# Poissons Ratio (z) = 0.35888 0.50599
#
# Static dielectric constant tensor:
#      x y z
#    x 1.721770 0.000000 0.000000 
#    y 0.000000 1.663730 0.000000 
#    z 0.000000 0.000000 1.657300 
# 
# From -- ./inp_files/22371.got.cif
#   From: 2010.05.17/outbox.cif.g08.bks.cpg/sg60_12_cif.got.tgz:22371.got - 2010.06.03 14:59:27.
