data_PCOD9455181
_publ_section_title
;
Structure prediction by ZEFSAII (Michael W. Deem and Ramdas Pophale) SiO2 
 PCOD9455181
Probable space group: P B C N
;
_chemical_formula_sum "Si O2"
_cell_formula_units_Z 56
_cell_length_a 12.381428
_cell_length_b 14.338930
_cell_length_c 14.256907
_cell_angle_alpha 90.000000
_cell_angle_beta 90.000000
_cell_angle_gamma 90.000000
_cell_volume 2531.120363
_symmetry_space_group_name_H-M "P B C N"
_symmetry_group_IT_number 60
_symmetry_cell_setting 'orthorhombic'
loop_
_space_group_symop_operation_xyz
x,y,z
1/2-x,1/2-y,1/2+z
1/2+x,1/2-y,-z
-x,y,1/2-z
-x,-y,-z
1/2+x,1/2+y,1/2-z
1/2-x,1/2+y,z
x,-y,1/2+z
loop_
_atom_site_type_symbol
_atom_site_label
_atom_site_fract_x
_atom_site_fract_y
_atom_site_fract_z
Si Si1 0.003652 0.199781 0.550338
Si Si2 0.111630 0.467891 0.090097
Si Si3 0.212084 0.776064 0.179751
Si Si4 0.106360 0.926336 0.314084
Si Si5 0.461694 0.214874 0.645993
Si Si6 0.572307 0.102927 0.097827
Si Si7 0.274217 0.062431 0.245748
O O1 0.938901 0.108575 0.585520
O O2 0.004505 0.221452 0.439053
O O3 0.937059 0.286525 0.595110
O O4 0.120347 0.207184 0.600750
O O5 0.019493 0.394931 0.126207
O O6 0.208289 0.493172 0.158744
O O7 0.046901 0.564317 0.079378
O O8 0.144501 0.431924 0.988460
O O9 0.178114 0.843700 0.265902
O O10 0.331921 0.792762 0.141863
O O11 0.226050 0.669100 0.213124
O O12 0.000000 0.935856 0.250000
O O13 0.175117 0.021033 0.305319
O O14 0.500000 0.241534 0.750000
O O15 0.618934 0.061110 0.191620
#
# Coordination Sequence:
#
# PCOD9455181 Si02
#       7
#     8   8   8   8   8   8   8
#     4  10  22  43  66  94 135 178 225 272 339 416
#     4  10  21  35  58  97 130 153 209 282 342 388
#     4  11  23  40  67  97 129 179 226 274 338 407
#     4  10  23  42  63  93 132 181 224 270 337 417
#     4  11  24  42  63 100 137 170 220 287 338 392
#     4  10  20  36  62  96 125 159 215 282 338 397
#     4  12  21  38  68  91 129 171 222 277 340 396
#
# _framework density 22.124590000000001
#
# number of rings (size 3 to 8) (size 9 to 14) (size 15 to 20)
#    0.000    1.429    4.286    1.286    0.000    2.857 
#    0.000    0.000    0.000    3.429    0.000    0.000 
#    0.000    0.000    0.000    0.000    0.000    0.000 
#
# Total GULP energy -312304.498954 kJ/mol
# GULP energy per Si atom -5576.866053 kJ/mol
# Density = 2.207423 g / cm^3
# Si number density = 22.124590 Si / 1000 Ang^3
#
#
#
# Elastic Constant Matrix: (Units=GPa)
#
#
# Indices 1 2 3 4 5 6 
#
# 1 67.5391 24.6882 21.7282 0.0000 0.0000 0.0000
# 2 24.6882 38.9240 24.2362 0.0000 0.0000 0.0000
# 3 21.7282 24.2362 79.4597 0.0000 0.0000 0.0000
# 4 0.0000 0.0000 0.0000 12.3536 0.0000 0.0000
# 5 0.0000 0.0000 0.0000 0.0000 16.6179 0.0000
# 6 0.0000 0.0000 0.0000 0.0000 0.0000 24.5088
#
#
#
# Elastic Compliance Matrix: (Units=1/GPa)
#
#
# Indices 1 2 3 4 5 6 
#
# 1 0.019511 -0.011176 -0.001927 0.000000 0.000000 0.000000
# 2 -0.011176 0.038115 -0.008570 0.000000 0.000000 0.000000
# 3 -0.001927 -0.008570 0.015726 0.000000 0.000000 0.000000
# 4 0.000000 0.000000 0.000000 0.080948 0.000000 0.000000
# 5 0.000000 0.000000 0.000000 0.000000 0.060176 0.000000
# 6 0.000000 0.000000 0.000000 0.000000 0.000000 0.040802
#
#
# Mechanical properties :
#
#
# Convention : Reuss Voigt Hill
#
# Bulk Modulus (GPa) = 33.32408 36.35867 34.84137
# Shear Modulus (GPa) = 16.20092 18.38075 17.29084
#
# Velocity S-wave (km/s) = 2.70896 2.88546 2.79860
# Velocity P-wave (km/s) = 4.98792 5.25076 5.12103
#
# Compressibility (1/GPa) = 0.03000833
#
# Stress axis : x y z
#
# Youngs Moduli (GPa) = 51.25266 26.23617 63.59026
#
# Poissons Ratio (x) = 0.29321 0.12251
# Poissons Ratio (y) = 0.57278 0.54495
# Poissons Ratio (z) = 0.09874 0.22483
#
# Static dielectric constant tensor:
#      x y z
#    x 1.848280 0.000000 0.000000 
#    y 0.000000 1.972730 0.000000 
#    z 0.000000 0.000000 1.867790 
# 
# From -- ./inp_files/16136.got.cif
#   From: 2010.05.17/outbox.cif.g08.bks.cpg/sg60_9_cif.got.tgz:16136.got - 2010.06.03 14:59:27.
