data_PCOD9455615
_publ_section_title
;
Structure prediction by ZEFSAII (Michael W. Deem and Ramdas Pophale) SiO2 
 PCOD9455615
Probable space group: P B C N
;
_chemical_formula_sum "Si O2"
_cell_formula_units_Z 36
_cell_length_a 12.274536
_cell_length_b 9.467369
_cell_length_c 11.296297
_cell_angle_alpha 90.000000
_cell_angle_beta 90.000000
_cell_angle_gamma 90.000000
_cell_volume 1312.715130
_symmetry_space_group_name_H-M "P B C N"
_symmetry_group_IT_number 60
_symmetry_cell_setting 'orthorhombic'
loop_
_space_group_symop_operation_xyz
x,y,z
1/2-x,1/2-y,1/2+z
1/2+x,1/2-y,-z
-x,y,1/2-z
-x,-y,-z
1/2+x,1/2+y,1/2-z
1/2-x,1/2+y,z
x,-y,1/2+z
loop_
_atom_site_type_symbol
_atom_site_label
_atom_site_fract_x
_atom_site_fract_y
_atom_site_fract_z
Si Si1 0.500000 0.947363 0.250000
Si Si2 0.208932 0.023365 0.434797
Si Si3 0.430708 0.873174 0.946735
Si Si4 0.791255 0.278060 0.231195
Si Si5 0.423734 0.372939 0.137168
O O1 0.403016 0.840344 0.213439
O O2 0.574967 0.063257 0.185010
O O3 0.309957 0.109018 0.490598
O O4 0.179234 0.125333 0.323936
O O5 0.122473 0.015458 0.541319
O O6 0.252761 0.876995 0.380998
O O7 0.501313 0.734263 0.939026
O O8 0.500000 0.000000 0.000000
O O9 0.683561 0.292185 0.312011
O O10 0.500000 0.414230 0.250000
#
# Coordination Sequence:
#
# PCOD9455615 Si02
#       5
#     4   8   8   8   8
#     4  10  20  40  68  98 136 192 242 280 344 450
#     4  11  25  43  71 104 144 193 244 301 362 439
#     4  11  21  43  71 101 137 194 248 289 354 441
#     4  11  24  46  70 110 146 193 247 299 366 435
#     4  12  23  44  72 106 150 187 237 315 373 425
#
# _framework density 27.424078000000002
#
# number of rings (size 3 to 8) (size 9 to 14) (size 15 to 20)
#    0.000    0.889    3.333    5.333    0.000    2.667 
#    2.000    0.000    0.000    0.000    0.000    0.000 
#    0.000    0.000    0.000    0.000    0.000    0.000 
#
# Total GULP energy -200837.111350 kJ/mol
# GULP energy per Si atom -5578.808649 kJ/mol
# Density = 2.736166 g / cm^3
# Si number density = 27.424078 Si / 1000 Ang^3
#
#
#
# Elastic Constant Matrix: (Units=GPa)
#
#
# Indices 1 2 3 4 5 6 
#
# 1 190.2894 33.1815 45.4888 0.0000 0.0000 0.0000
# 2 33.1815 105.9498 29.5917 0.0000 0.0000 0.0000
# 3 45.4888 29.5917 57.4663 0.0000 0.0000 0.0000
# 4 0.0000 0.0000 0.0000 17.6181 0.0000 0.0000
# 5 0.0000 0.0000 0.0000 0.0000 53.9850 0.0000
# 6 0.0000 0.0000 0.0000 0.0000 0.0000 47.9349
#
#
#
# Elastic Compliance Matrix: (Units=1/GPa)
#
#
# Indices 1 2 3 4 5 6 
#
# 1 0.006526 -0.000702 -0.004804 0.000000 0.000000 0.000000
# 2 -0.000702 0.011099 -0.005160 0.000000 0.000000 0.000000
# 3 -0.004804 -0.005160 0.023862 0.000000 0.000000 0.000000
# 4 0.000000 0.000000 0.000000 0.056760 0.000000 0.000000
# 5 0.000000 0.000000 0.000000 0.000000 0.018524 0.000000
# 6 0.000000 0.000000 0.000000 0.000000 0.000000 0.020862
#
#
# Mechanical properties :
#
#
# Convention : Reuss Voigt Hill
#
# Bulk Modulus (GPa) = 49.61651 63.35882 56.48766
# Shear Modulus (GPa) = 30.17813 40.27049 35.22431
#
# Velocity S-wave (km/s) = 3.32086 3.83617 3.58778
# Velocity P-wave (km/s) = 5.73025 6.54027 6.14861
#
# Compressibility (1/GPa) = 0.02015458
#
# Stress axis : x y z
#
# Youngs Moduli (GPa) = 153.23210 90.09473 41.90844
#
# Poissons Ratio (x) = 0.06325 0.20134
# Poissons Ratio (y) = 0.10757 0.21624
# Poissons Ratio (z) = 0.73618 0.46488
#
# Static dielectric constant tensor:
#      x y z
#    x 2.192940 0.000000 0.000000 
#    y 0.000000 2.073790 0.000000 
#    z 0.000000 0.000000 2.548280 
# 
# From -- ./inp_files/10644.got.cif
#   From: 2010.05.17/outbox.cif.g08.bks.cpg/sg60_6_cif.got.tgz:10644.got - 2010.06.03 14:59:27.
