data_PCOD9455377
_publ_section_title
;
Structure prediction by ZEFSAII (Michael W. Deem and Ramdas Pophale) SiO2 
 PCOD9455377
Probable space group: P B C N
;
_chemical_formula_sum "Si O2"
_cell_formula_units_Z 24
_cell_length_a 4.899941
_cell_length_b 16.506123
_cell_length_c 14.868056
_cell_angle_alpha 90.000000
_cell_angle_beta 90.000000
_cell_angle_gamma 90.000000
_cell_volume 1202.513930
_symmetry_space_group_name_H-M "P B C N"
_symmetry_group_IT_number 60
_symmetry_cell_setting 'orthorhombic'
loop_
_space_group_symop_operation_xyz
x,y,z
1/2-x,1/2-y,1/2+z
1/2+x,1/2-y,-z
-x,y,1/2-z
-x,-y,-z
1/2+x,1/2+y,1/2-z
1/2-x,1/2+y,z
x,-y,1/2+z
loop_
_atom_site_type_symbol
_atom_site_label
_atom_site_fract_x
_atom_site_fract_y
_atom_site_fract_z
Si Si1 0.233402 0.664818 0.188996
Si Si2 0.950462 0.779217 0.054539
Si Si3 0.245541 0.059700 0.009602
O O1 0.500000 0.679856 0.250000
O O2 0.908820 0.743957 0.356337
O O3 0.274173 0.605828 0.104757
O O4 0.000000 0.626348 0.250000
O O5 0.704933 0.721638 0.016853
O O6 0.803847 0.865990 0.059847
O O7 0.500000 0.000000 0.000000
O O8 0.000000 0.000000 0.000000
#
# Coordination Sequence:
#
# PCOD9455377 Si02
#       3
#     8   8   8
#     4  11  22  39  63  91 122 163 211 264 310 362
#     4  10  20  38  62  89 122 166 212 248 303 389
#     4  11  22  39  63  90 124 167 207 252 316 387
#
# _framework density 19.958189999999998
#
# number of rings (size 3 to 8) (size 9 to 14) (size 15 to 20)
#    0.000    1.333    0.000   10.000    0.000    0.000 
#    0.000    6.667    0.000    8.000    0.000    0.000 
#    0.000    0.000    0.000    0.000    0.000    0.000 
#
# Total GULP energy -133776.926698 kJ/mol
# GULP energy per Si atom -5574.038612 kJ/mol
# Density = 1.991276 g / cm^3
# Si number density = 19.958190 Si / 1000 Ang^3
#
#
#
# Elastic Constant Matrix: (Units=GPa)
#
#
# Indices 1 2 3 4 5 6 
#
# 1 187.3622 60.9311 45.6352 0.0000 0.0000 0.0000
# 2 60.9311 138.2131 44.7107 0.0000 0.0000 0.0000
# 3 45.6352 44.7107 95.8442 0.0000 0.0000 0.0000
# 4 0.0000 0.0000 0.0000 9.7479 0.0000 0.0000
# 5 0.0000 0.0000 0.0000 0.0000 53.8904 0.0000
# 6 0.0000 0.0000 0.0000 0.0000 0.0000 42.7930
#
#
#
# Elastic Compliance Matrix: (Units=1/GPa)
#
#
# Indices 1 2 3 4 5 6 
#
# 1 0.006568 -0.002219 -0.002092 0.000000 0.000000 0.000000
# 2 -0.002219 0.009271 -0.003268 0.000000 0.000000 0.000000
# 3 -0.002092 -0.003268 0.012954 0.000000 0.000000 0.000000
# 4 0.000000 0.000000 0.000000 0.102586 0.000000 0.000000
# 5 0.000000 0.000000 0.000000 0.000000 0.018556 0.000000
# 6 0.000000 0.000000 0.000000 0.000000 0.000000 0.023368
#
#
# Mechanical properties :
#
#
# Convention : Reuss Voigt Hill
#
# Bulk Modulus (GPa) = 73.34269 80.44152 76.89210
# Shear Modulus (GPa) = 25.90569 39.29576 32.60073
#
# Velocity S-wave (km/s) = 3.60668 4.44205 4.04598
# Velocity P-wave (km/s) = 7.36017 8.16710 7.77411
#
# Compressibility (1/GPa) = 0.01363462
#
# Stress axis : x y z
#
# Youngs Moduli (GPa) = 152.24227 107.86785 77.19332
#
# Poissons Ratio (x) = 0.23934 0.16152
# Poissons Ratio (y) = 0.33780 0.25228
# Poissons Ratio (z) = 0.31856 0.35253
#
# Static dielectric constant tensor:
#      x y z
#    x 1.689370 0.000000 0.000000 
#    y 0.000000 1.622350 0.000000 
#    z 0.000000 0.000000 1.862570 
# 
# From -- ./inp_files/13511.got.cif
#   From: 2010.05.17/outbox.cif.g08.bks.cpg/sg60_7_cif.got.tgz:13511.got - 2010.06.03 14:59:27.
