data_PCOD9455212
_publ_section_title
;
Structure prediction by ZEFSAII (Michael W. Deem and Ramdas Pophale) SiO2 
 PCOD9455212
Probable space group: P B C N
;
_chemical_formula_sum "Si O2"
_cell_formula_units_Z 40
_cell_length_a 4.941635
_cell_length_b 27.484747
_cell_length_c 12.017564
_cell_angle_alpha 90.000000
_cell_angle_beta 90.000000
_cell_angle_gamma 90.000000
_cell_volume 1632.220588
_symmetry_space_group_name_H-M "P B C N"
_symmetry_group_IT_number 60
_symmetry_cell_setting 'orthorhombic'
loop_
_space_group_symop_operation_xyz
x,y,z
1/2-x,1/2-y,1/2+z
1/2+x,1/2-y,-z
-x,y,1/2-z
-x,-y,-z
1/2+x,1/2+y,1/2-z
1/2-x,1/2+y,z
x,-y,1/2+z
loop_
_atom_site_type_symbol
_atom_site_label
_atom_site_fract_x
_atom_site_fract_y
_atom_site_fract_z
Si Si1 0.246068 0.920312 0.176713
Si Si2 0.340157 0.761599 0.140391
Si Si3 0.826143 0.695424 0.085554
Si Si4 0.840472 0.089609 0.086233
Si Si5 0.874959 0.525835 0.387659
O O1 0.500000 0.904641 0.250000
O O2 0.221526 0.907677 0.046565
O O3 0.000000 0.901838 0.250000
O O4 0.253777 0.979371 0.173993
O O5 0.500000 0.778639 0.250000
O O6 0.535906 0.719241 0.099889
O O7 0.050574 0.732903 0.136538
O O8 0.365102 0.802964 0.047366
O O9 0.768688 0.641598 0.130404
O O10 0.648756 0.051930 0.150332
O O11 0.144177 0.067285 0.093581
O O12 0.000000 0.500000 0.500000
#
# Coordination Sequence:
#
# PCOD9455212 Si02
#       5
#     8   8   8   8   8
#     4  11  21  35  55  82 113 147 193 243 294 352
#     4  10  21  41  64  88 124 164 202 254 318 383
#     4  10  22  39  63  92 121 160 207 254 314 377
#     4  11  21  38  59  83 116 156 200 249 302 363
#     4  10  20  37  57  77 113 159 190 230 298 361
#
# _framework density 24.506491
#
# number of rings (size 3 to 8) (size 9 to 14) (size 15 to 20)
#    0.000    1.600    0.000    7.800    0.000    0.800 
#    0.000   14.000    0.000    0.000    0.000    0.000 
#    0.000    0.000    0.000    0.000    0.000    0.000 
#
# Total GULP energy -222809.249904 kJ/mol
# GULP energy per Si atom -5570.231248 kJ/mol
# Density = 2.445071 g / cm^3
# Si number density = 24.506491 Si / 1000 Ang^3
#
#
#
# Elastic Constant Matrix: (Units=GPa)
#
#
# Indices 1 2 3 4 5 6 
#
# 1 123.3511 14.1802 4.6884 0.0000 0.0000 0.0000
# 2 14.1802 100.9557 -20.2203 0.0000 0.0000 0.0000
# 3 4.6884 -20.2203 95.7966 0.0000 0.0000 0.0000
# 4 0.0000 0.0000 0.0000 9.4031 0.0000 0.0000
# 5 0.0000 0.0000 0.0000 0.0000 37.1253 0.0000
# 6 0.0000 0.0000 0.0000 0.0000 0.0000 0.8042
#
#
#
# Elastic Compliance Matrix: (Units=1/GPa)
#
#
# Indices 1 2 3 4 5 6 
#
# 1 0.008282 -0.001299 -0.000680 0.000000 0.000000 0.000000
# 2 -0.001299 0.010546 0.002290 0.000000 0.000000 0.000000
# 3 -0.000680 0.002290 0.010955 0.000000 0.000000 0.000000
# 4 0.000000 0.000000 0.000000 0.106348 0.000000 0.000000
# 5 0.000000 0.000000 0.000000 0.000000 0.026936 0.000000
# 6 0.000000 0.000000 0.000000 0.000000 0.000000 1.243422
#
#
# Mechanical properties :
#
#
# Convention : Reuss Voigt Hill
#
# Bulk Modulus (GPa) = 32.88903 35.26664 34.07784
# Shear Modulus (GPa) = 3.53106 30.89686 17.21396
#
# Velocity S-wave (km/s) = 1.20166 3.55457 2.65320
# Velocity P-wave (km/s) = 3.92110 5.59184 4.82927
#
# Compressibility (1/GPa) = 0.03040527
#
# Stress axis : x y z
#
# Youngs Moduli (GPa) = 120.74162 94.81858 91.27963
#
# Poissons Ratio (x) = 0.12321 0.06203
# Poissons Ratio (y) = 0.15689 -0.20900
# Poissons Ratio (z) = 0.08206 -0.21711
#
# Static dielectric constant tensor:
#      x y z
#    x 1.887950 0.000000 0.000000 
#    y 0.000000 2.143260 0.000000 
#    z 0.000000 0.000000 2.050940 
# 
# From -- ./inp_files/9191.got.cif
#   From: 2010.05.17/outbox.cif.g08.bks.cpg/sg60_5_cif.got.tgz:9191.got - 2010.06.03 14:59:27.
