data_PCOD9455573
_publ_section_title
;
Structure prediction by ZEFSAII (Michael W. Deem and Ramdas Pophale) SiO2 
 PCOD9455573
Probable space group: P B C N
;
_chemical_formula_sum "Si O2"
_cell_formula_units_Z 56
_cell_length_a 22.743142
_cell_length_b 10.303541
_cell_length_c 12.991278
_cell_angle_alpha 90.000000
_cell_angle_beta 90.000000
_cell_angle_gamma 90.000000
_cell_volume 3044.309780
_symmetry_space_group_name_H-M "P B C N"
_symmetry_group_IT_number 60
_symmetry_cell_setting 'orthorhombic'
loop_
_space_group_symop_operation_xyz
x,y,z
1/2-x,1/2-y,1/2+z
1/2+x,1/2-y,-z
-x,y,1/2-z
-x,-y,-z
1/2+x,1/2+y,1/2-z
1/2-x,1/2+y,z
x,-y,1/2+z
loop_
_atom_site_type_symbol
_atom_site_label
_atom_site_fract_x
_atom_site_fract_y
_atom_site_fract_z
Si Si1 0.500000 0.480016 0.250000
Si Si2 0.313767 0.849572 0.284407
Si Si3 0.580947 0.688026 0.136347
Si Si4 0.297597 0.957949 0.502386
Si Si5 0.222214 0.821707 0.110028
Si Si6 0.897264 0.471537 0.856318
Si Si7 0.500000 0.892360 0.250000
Si Si8 0.909124 0.826178 0.389197
O O1 0.548480 0.565628 0.188356
O O2 0.461512 0.399358 0.168213
O O3 0.354395 0.728932 0.322023
O O4 0.292095 0.926079 0.383779
O O5 0.259849 0.807678 0.213528
O O6 0.352929 0.951469 0.218908
O O7 0.541205 0.805294 0.178199
O O8 0.581527 0.678416 0.012797
O O9 0.283434 0.821844 0.560539
O O10 0.365479 0.989316 0.533258
O O11 0.257403 0.076424 0.538954
O O12 0.157008 0.879275 0.127187
O O13 0.960105 0.528892 0.829353
O O14 0.904019 0.318420 0.843449
#
# Coordination Sequence:
#
# PCOD9455573 Si02
#       8
#     4   8   8   8   8   8   4   8
#     4  11  25  38  62  90 125 165 208 244 312 377
#     4  10  20  40  64  84 125 157 201 259 313 362
#     4  10  21  41  62  83 124 161 199 250 307 361
#     4  10  21  40  57  91 123 158 203 260 309 370
#     4  10  23  36  64  88 119 163 208 251 309 377
#     4   9  19  37  58  89 117 153 205 247 305 362
#     4   9  19  36  64  88 107 165 196 242 300 367
#     4  11  22  42  57  90 125 157 202 260 298 370
#
# _framework density 18.394974999999999
#
# number of rings (size 3 to 8) (size 9 to 14) (size 15 to 20)
#    0.000    2.000    2.857    0.857    2.000    5.143 
#    2.571    0.000    0.000    0.000    0.000    0.000 
#    0.000    0.000    0.000    0.000    0.000    0.000 
#
# Total GULP energy -312056.114919 kJ/mol
# GULP energy per Si atom -5572.430624 kJ/mol
# Density = 1.835311 g / cm^3
# Si number density = 18.394975 Si / 1000 Ang^3
#
#
#
# Elastic Constant Matrix: (Units=GPa)
#
#
# Indices 1 2 3 4 5 6 
#
# 1 93.9935 16.8872 33.0371 0.0000 0.0000 0.0000
# 2 16.8872 51.5843 14.5271 0.0000 0.0000 0.0000
# 3 33.0371 14.5271 101.1603 0.0000 0.0000 0.0000
# 4 0.0000 0.0000 0.0000 10.3145 0.0000 0.0000
# 5 0.0000 0.0000 0.0000 0.0000 17.1118 0.0000
# 6 0.0000 0.0000 0.0000 0.0000 0.0000 14.5156
#
#
#
# Elastic Compliance Matrix: (Units=1/GPa)
#
#
# Indices 1 2 3 4 5 6 
#
# 1 0.012465 -0.003058 -0.003632 0.000000 0.000000 0.000000
# 2 -0.003058 0.020953 -0.002010 0.000000 0.000000 0.000000
# 3 -0.003632 -0.002010 0.011360 0.000000 0.000000 0.000000
# 4 0.000000 0.000000 0.000000 0.096951 0.000000 0.000000
# 5 0.000000 0.000000 0.000000 0.000000 0.058439 0.000000
# 6 0.000000 0.000000 0.000000 0.000000 0.000000 0.068891
#
#
# Mechanical properties :
#
#
# Convention : Reuss Voigt Hill
#
# Bulk Modulus (GPa) = 36.52548 41.73787 39.13167
# Shear Modulus (GPa) = 16.91559 20.54083 18.72821
#
# Velocity S-wave (km/s) = 3.03574 3.34526 3.19425
# Velocity P-wave (km/s) = 5.67336 6.13678 5.90961
#
# Compressibility (1/GPa) = 0.02737815
#
# Stress axis : x y z
#
# Youngs Moduli (GPa) = 80.22527 47.72597 88.02802
#
# Poissons Ratio (x) = 0.14594 0.31969
# Poissons Ratio (y) = 0.24532 0.17696
# Poissons Ratio (z) = 0.29135 0.09594
#
# Static dielectric constant tensor:
#      x y z
#    x 1.672900 0.000000 0.000000 
#    y 0.000000 1.630370 0.000000 
#    z 0.000000 0.000000 1.619840 
# 
# From -- ./inp_files/13134.got.cif
#   From: 2010.05.17/outbox.cif.g08.bks.cpg/sg60_7_cif.got.tgz:13134.got - 2010.06.03 14:59:27.
