data_PCOD9455359
_publ_section_title
;
Structure prediction by ZEFSAII (Michael W. Deem and Ramdas Pophale) SiO2 
 PCOD9455359
Probable space group: P B C N
;
_chemical_formula_sum "Si O2"
_cell_formula_units_Z 24
_cell_length_a 4.940687
_cell_length_b 18.187640
_cell_length_c 13.659667
_cell_angle_alpha 90.000000
_cell_angle_beta 90.000000
_cell_angle_gamma 90.000000
_cell_volume 1227.449980
_symmetry_space_group_name_H-M "P B C N"
_symmetry_group_IT_number 60
_symmetry_cell_setting 'orthorhombic'
loop_
_space_group_symop_operation_xyz
x,y,z
1/2-x,1/2-y,1/2+z
1/2+x,1/2-y,-z
-x,y,1/2-z
-x,-y,-z
1/2+x,1/2+y,1/2-z
1/2-x,1/2+y,z
x,-y,1/2+z
loop_
_atom_site_type_symbol
_atom_site_label
_atom_site_fract_x
_atom_site_fract_y
_atom_site_fract_z
Si Si1 0.000000 0.922572 0.250000
Si Si2 0.780019 0.713772 0.952515
Si Si3 0.500000 0.179443 0.750000
Si Si4 0.246037 0.038528 0.551571
O O1 0.246139 0.870449 0.288962
O O2 0.162187 0.966942 0.166654
O O3 0.883190 0.724065 0.841328
O O4 0.763193 0.625983 0.965353
O O5 0.494765 0.750795 0.974004
O O6 0.500000 0.000000 0.500000
O O7 0.000000 0.000000 0.500000
#
# Coordination Sequence:
#
# PCOD9455359 Si02
#       4
#     4   8   4   8
#     4  10  20  38  61  84 117 166 204 236 300 384
#     4  11  22  39  61  88 118 156 200 247 296 357
#     4  10  20  38  61  84 117 166 204 234 300 386
#     4  11  22  39  61  88 118 156 202 250 300 362
#
# _framework density 19.552733
#
# number of rings (size 3 to 8) (size 9 to 14) (size 15 to 20)
#    0.000    1.333    0.000   10.000    0.000    0.000 
#    0.000   10.000    0.000    0.000    0.000    0.000 
#    0.000    0.000    0.000    0.000    0.000    0.000 
#
# Total GULP energy -133798.000638 kJ/mol
# GULP energy per Si atom -5574.916693 kJ/mol
# Density = 1.950823 g / cm^3
# Si number density = 19.552733 Si / 1000 Ang^3
#
#
#
# Elastic Constant Matrix: (Units=GPa)
#
#
# Indices 1 2 3 4 5 6 
#
# 1 138.6647 29.3588 20.6785 0.0000 0.0000 0.0000
# 2 29.3588 87.7111 41.1904 0.0000 0.0000 0.0000
# 3 20.6785 41.1904 103.8821 0.0000 0.0000 0.0000
# 4 0.0000 0.0000 0.0000 28.1812 0.0000 0.0000
# 5 0.0000 0.0000 0.0000 0.0000 47.9260 0.0000
# 6 0.0000 0.0000 0.0000 0.0000 0.0000 53.8986
#
#
#
# Elastic Compliance Matrix: (Units=1/GPa)
#
#
# Indices 1 2 3 4 5 6 
#
# 1 0.007796 -0.002311 -0.000635 0.000000 0.000000 0.000000
# 2 -0.002311 0.014695 -0.005367 0.000000 0.000000 0.000000
# 3 -0.000635 -0.005367 0.011881 0.000000 0.000000 0.000000
# 4 0.000000 0.000000 0.000000 0.035485 0.000000 0.000000
# 5 0.000000 0.000000 0.000000 0.000000 0.020865 0.000000
# 6 0.000000 0.000000 0.000000 0.000000 0.000000 0.018553
#
#
# Mechanical properties :
#
#
# Convention : Reuss Voigt Hill
#
# Bulk Modulus (GPa) = 56.35358 56.96815 56.66087
# Shear Modulus (GPa) = 37.93165 41.93650 39.93408
#
# Velocity S-wave (km/s) = 4.40928 4.63621 4.52417
# Velocity P-wave (km/s) = 7.40313 7.60646 7.50548
#
# Compressibility (1/GPa) = 0.01774510
#
# Stress axis : x y z
#
# Youngs Moduli (GPa) = 128.27588 68.05102 84.16994
#
# Poissons Ratio (x) = 0.15726 0.05349
# Poissons Ratio (y) = 0.29644 0.45171
# Poissons Ratio (z) = 0.08152 0.36521
#
# Static dielectric constant tensor:
#      x y z
#    x 1.683950 0.000000 0.000000 
#    y 0.000000 1.656460 0.000000 
#    z 0.000000 0.000000 1.753110 
# 
# From -- ./inp_files/8687.got.cif
#   From: 2010.05.17/outbox.cif.g08.bks.cpg/sg60_5_cif.got.tgz:8687.got - 2010.06.03 14:59:27.
