data_PCOD9455727
_publ_section_title
;
Structure prediction by ZEFSAII (Michael W. Deem and Ramdas Pophale) SiO2 
 PCOD9455727
Probable space group: P B C N
;
_chemical_formula_sum "Si O2"
_cell_formula_units_Z 64
_cell_length_a 27.760540
_cell_length_b 9.314574
_cell_length_c 11.410544
_cell_angle_alpha 90.000000
_cell_angle_beta 90.000000
_cell_angle_gamma 90.000000
_cell_volume 2950.511129
_symmetry_space_group_name_H-M "P B C N"
_symmetry_group_IT_number 60
_symmetry_cell_setting 'orthorhombic'
loop_
_space_group_symop_operation_xyz
x,y,z
1/2-x,1/2-y,1/2+z
1/2+x,1/2-y,-z
-x,y,1/2-z
-x,-y,-z
1/2+x,1/2+y,1/2-z
1/2-x,1/2+y,z
x,-y,1/2+z
loop_
_atom_site_type_symbol
_atom_site_label
_atom_site_fract_x
_atom_site_fract_y
_atom_site_fract_z
Si Si1 0.930127 0.240665 0.577656
Si Si2 0.274538 0.229867 0.588478
Si Si3 0.761943 0.000461 0.546356
Si Si4 0.296134 0.168927 0.267992
Si Si5 0.484979 0.918514 0.619875
Si Si6 0.145806 0.963961 0.317921
Si Si7 0.380890 0.267883 0.660905
Si Si8 0.890384 0.535442 0.262602
O O1 0.902670 0.101780 0.626541
O O2 0.921508 0.236314 0.438983
O O3 0.904292 0.376807 0.644326
O O4 0.985653 0.269234 0.609814
O O5 0.258356 0.331734 0.480819
O O6 0.247724 0.080607 0.574524
O O7 0.253654 0.298696 0.704786
O O8 0.331608 0.229152 0.592207
O O9 0.719777 0.935569 0.626309
O O10 0.815538 0.967255 0.592321
O O11 0.323471 0.321951 0.281842
O O12 0.336692 0.078651 0.200816
O O13 0.500000 0.981067 0.750000
O O14 0.427931 0.913490 0.637862
O O15 0.500000 0.000000 0.500000
O O16 0.130038 0.080860 0.222372
O O17 0.391869 0.136319 0.748278
#
# Coordination Sequence:
#
# PCOD9455727 Si02
#       8
#     8   8   8   8   8   8   8   8
#     4  10  22  45  68  99 140 176 230 295 363 430
#     4  12  24  36  60  89 131 190 226 282 333 409
#     4  12  23  39  56  87 132 179 234 274 336 401
#     4  11  24  41  58  88 135 180 236 275 340 413
#     4  10  20  42  76 105 138 173 226 303 371 421
#     4  11  24  41  59  93 139 184 227 289 350 423
#     4  12  22  41  66  96 141 178 237 287 347 431
#     4  10  23  40  69 102 129 179 230 293 356 422
#
# _framework density 21.691157
#
# number of rings (size 3 to 8) (size 9 to 14) (size 15 to 20)
#    0.000    1.000    5.000    2.250    3.500    0.000 
#    0.000    0.000    0.000   23.250    0.000    0.000 
#    0.000    0.000    0.000    0.000    0.000    0.000 
#
# Total GULP energy -356744.088401 kJ/mol
# GULP energy per Si atom -5574.126381 kJ/mol
# Density = 2.164179 g / cm^3
# Si number density = 21.691157 Si / 1000 Ang^3
#
#
#
# Elastic Constant Matrix: (Units=GPa)
#
#
# Indices 1 2 3 4 5 6 
#
# 1 62.6245 14.6619 -6.1354 0.0000 0.0000 0.0000
# 2 14.6619 99.3056 17.1151 0.0000 0.0000 0.0000
# 3 -6.1354 17.1151 49.6350 0.0000 0.0000 0.0000
# 4 0.0000 0.0000 0.0000 23.3373 0.0000 0.0000
# 5 0.0000 0.0000 0.0000 0.0000 24.1068 0.0000
# 6 0.0000 0.0000 0.0000 0.0000 0.0000 30.3686
#
#
#
# Elastic Compliance Matrix: (Units=1/GPa)
#
#
# Indices 1 2 3 4 5 6 
#
# 1 0.016992 -0.003052 0.003153 0.000000 0.000000 0.000000
# 2 -0.003052 0.011254 -0.004258 0.000000 0.000000 0.000000
# 3 0.003153 -0.004258 0.022005 0.000000 0.000000 0.000000
# 4 0.000000 0.000000 0.000000 0.042850 0.000000 0.000000
# 5 0.000000 0.000000 0.000000 0.000000 0.041482 0.000000
# 6 0.000000 0.000000 0.000000 0.000000 0.000000 0.032929
#
#
# Mechanical properties :
#
#
# Convention : Reuss Voigt Hill
#
# Bulk Modulus (GPa) = 23.84564 29.20538 26.52551
# Shear Modulus (GPa) = 26.34281 27.95745 27.15013
#
# Velocity S-wave (km/s) = 3.48868 3.59400 3.54173
# Velocity P-wave (km/s) = 5.21967 5.54219 5.38335
#
# Compressibility (1/GPa) = 0.04193638
#
# Stress axis : x y z
#
# Youngs Moduli (GPa) = 58.85254 88.85409 45.44413
#
# Poissons Ratio (x) = 0.27119 -0.14327
# Poissons Ratio (y) = 0.17962 0.19350
# Poissons Ratio (z) = -0.18555 0.37834
#
# Static dielectric constant tensor:
#      x y z
#    x 1.818440 0.000000 0.000000 
#    y 0.000000 1.807000 0.000000 
#    z 0.000000 0.000000 1.897210 
# 
# From -- ./inp_files/13409.got.cif
#   From: 2010.05.17/outbox.cif.g08.bks.cpg/sg60_7_cif.got.tgz:13409.got - 2010.06.03 14:59:27.
