data_PCOD9455487
_publ_section_title
;
Structure prediction by ZEFSAII (Michael W. Deem and Ramdas Pophale) SiO2 
 PCOD9455487
Probable space group: P B C N
;
_chemical_formula_sum "Si O2"
_cell_formula_units_Z 40
_cell_length_a 24.470113
_cell_length_b 5.213643
_cell_length_c 13.876784
_cell_angle_alpha 90.000000
_cell_angle_beta 90.000000
_cell_angle_gamma 90.000000
_cell_volume 1770.378363
_symmetry_space_group_name_H-M "P B C N"
_symmetry_group_IT_number 60
_symmetry_cell_setting 'orthorhombic'
loop_
_space_group_symop_operation_xyz
x,y,z
1/2-x,1/2-y,1/2+z
1/2+x,1/2-y,-z
-x,y,1/2-z
-x,-y,-z
1/2+x,1/2+y,1/2-z
1/2-x,1/2+y,z
x,-y,1/2+z
loop_
_atom_site_type_symbol
_atom_site_label
_atom_site_fract_x
_atom_site_fract_y
_atom_site_fract_z
Si Si1 0.782506 0.226531 0.641163
Si Si2 0.451516 0.692949 0.980480
Si Si3 0.976765 0.443858 0.842024
Si Si4 0.835452 0.160720 0.441547
Si Si5 0.644548 0.822970 0.818288
O O1 0.736183 0.437445 0.663156
O O2 0.794535 0.234919 0.526982
O O3 0.832359 0.306822 0.710306
O O4 0.390792 0.597501 0.997060
O O5 0.458927 0.898882 0.065077
O O6 0.500000 0.500000 0.000000
O O7 0.468974 0.796705 0.877050
O O8 0.921387 0.287237 0.820118
O O9 0.000000 0.596330 0.750000
O O10 0.842965 0.403848 0.369998
O O11 0.826686 0.905151 0.378989
#
# Coordination Sequence:
#
# PCOD9455487 Si02
#       5
#     8   8   8   8   8
#     4  12  27  46  68  99 127 172 230 281 335 396
#     4  10  20  39  61  94 131 168 215 261 313 408
#     4  10  21  38  61  94 132 173 210 259 325 384
#     4  11  24  44  69  96 135 174 217 272 339 385
#     4  11  24  44  67  98 132 172 217 274 327 400
#
# _framework density 22.594041000000001
#
# number of rings (size 3 to 8) (size 9 to 14) (size 15 to 20)
#    0.000    1.200    2.000    3.600    0.000    5.600 
#   10.800    0.000    0.000    0.000    0.000    0.000 
#    0.000    0.000    0.000    0.000    0.000    0.000 
#
# Total GULP energy -223100.845441 kJ/mol
# GULP energy per Si atom -5577.521136 kJ/mol
# Density = 2.254262 g / cm^3
# Si number density = 22.594041 Si / 1000 Ang^3
#
#
#
# Elastic Constant Matrix: (Units=GPa)
#
#
# Indices 1 2 3 4 5 6 
#
# 1 35.8255 -0.7244 22.2927 0.0000 0.0000 0.0000
# 2 -0.7244 82.8862 18.0126 0.0000 0.0000 0.0000
# 3 22.2927 18.0126 101.9324 0.0000 0.0000 0.0000
# 4 0.0000 0.0000 0.0000 20.6455 0.0000 0.0000
# 5 0.0000 0.0000 0.0000 0.0000 36.8180 0.0000
# 6 0.0000 0.0000 0.0000 0.0000 0.0000 27.5791
#
#
#
# Elastic Compliance Matrix: (Units=1/GPa)
#
#
# Indices 1 2 3 4 5 6 
#
# 1 0.032598 0.001907 -0.007466 0.000000 0.000000 0.000000
# 2 0.001907 0.012658 -0.002654 0.000000 0.000000 0.000000
# 3 -0.007466 -0.002654 0.011912 0.000000 0.000000 0.000000
# 4 0.000000 0.000000 0.000000 0.048437 0.000000 0.000000
# 5 0.000000 0.000000 0.000000 0.000000 0.027161 0.000000
# 6 0.000000 0.000000 0.000000 0.000000 0.000000 0.036259
#
#
# Mechanical properties :
#
#
# Convention : Reuss Voigt Hill
#
# Bulk Modulus (GPa) = 24.54442 33.31176 28.92809
# Shear Modulus (GPa) = 25.12172 29.07939 27.10055
#
# Velocity S-wave (km/s) = 3.33809 3.59142 3.46707
# Velocity P-wave (km/s) = 5.07385 5.65450 5.37203
#
# Compressibility (1/GPa) = 0.04074247
#
# Stress axis : x y z
#
# Youngs Moduli (GPa) = 30.67717 79.00046 83.94707
#
# Poissons Ratio (x) = -0.15069 0.62676
# Poissons Ratio (y) = -0.05851 0.22279
# Poissons Ratio (z) = 0.22904 0.20967
#
# Static dielectric constant tensor:
#      x y z
#    x 1.888970 0.000000 0.000000 
#    y 0.000000 1.801430 0.000000 
#    z 0.000000 0.000000 1.981830 
# 
# From -- ./inp_files/13192.got.cif
#   From: 2010.05.17/outbox.cif.g08.bks.cpg/sg60_7_cif.got.tgz:13192.got - 2010.06.03 14:59:27.
