data_PCOD9455718
_publ_section_title
;
Structure prediction by ZEFSAII (Michael W. Deem and Ramdas Pophale) SiO2 
 PCOD9455718
Probable space group: P B C N
;
_chemical_formula_sum "Si O2"
_cell_formula_units_Z 40
_cell_length_a 5.205172
_cell_length_b 16.231110
_cell_length_c 18.470576
_cell_angle_alpha 90.000000
_cell_angle_beta 90.000000
_cell_angle_gamma 90.000000
_cell_volume 1560.499899
_symmetry_space_group_name_H-M "P B C N"
_symmetry_group_IT_number 60
_symmetry_cell_setting 'orthorhombic'
loop_
_space_group_symop_operation_xyz
x,y,z
1/2-x,1/2-y,1/2+z
1/2+x,1/2-y,-z
-x,y,1/2-z
-x,-y,-z
1/2+x,1/2+y,1/2-z
1/2-x,1/2+y,z
x,-y,1/2+z
loop_
_atom_site_type_symbol
_atom_site_label
_atom_site_fract_x
_atom_site_fract_y
_atom_site_fract_z
Si Si1 0.753948 0.071379 0.957244
Si Si2 0.556149 0.268132 0.045836
Si Si3 0.125686 0.344076 0.674804
Si Si4 0.929262 0.532919 0.673101
Si Si5 0.954300 0.931231 0.605791
O O1 0.968627 0.138834 0.938505
O O2 0.531807 0.080847 0.897283
O O3 0.733955 0.082971 0.044215
O O4 0.838177 0.976930 0.944781
O O5 0.503368 0.214150 0.116043
O O6 0.840099 0.261883 0.012691
O O7 0.425796 0.354733 0.649488
O O8 0.000000 0.315201 0.750000
O O9 0.058837 0.441655 0.675132
O O10 0.639122 0.501950 0.660934
O O11 0.000000 0.572855 0.750000
#
# Coordination Sequence:
#
# PCOD9455718 Si02
#       5
#     8   8   8   8   8
#     4  10  22  38  69  98 134 180 235 294 347 416
#     4  12  26  46  69 103 143 189 236 290 355 429
#     4  10  23  42  66 101 135 188 230 294 352 429
#     4  10  22  40  67  99 136 177 232 291 359 421
#     4  10  20  42  68  99 130 179 239 291 350 420
#
# _framework density 25.632809999999999
#
# number of rings (size 3 to 8) (size 9 to 14) (size 15 to 20)
#    0.000    1.600    2.000    1.800    2.800    7.200 
#    3.600    0.000    0.000    0.000    0.000    0.000 
#    0.000    0.000    0.000    0.000    0.000    0.000 
#
# Total GULP energy -222912.411912 kJ/mol
# GULP energy per Si atom -5572.810298 kJ/mol
# Density = 2.557447 g / cm^3
# Si number density = 25.632810 Si / 1000 Ang^3
#
#
#
# Elastic Constant Matrix: (Units=GPa)
#
#
# Indices 1 2 3 4 5 6 
#
# 1 78.8594 16.3292 72.5928 0.0000 0.0000 0.0000
# 2 16.3292 58.2947 43.1169 0.0000 0.0000 0.0000
# 3 72.5928 43.1169 232.6784 0.0000 0.0000 0.0000
# 4 0.0000 0.0000 0.0000 22.2945 0.0000 0.0000
# 5 0.0000 0.0000 0.0000 0.0000 21.3590 0.0000
# 6 0.0000 0.0000 0.0000 0.0000 0.0000 25.2283
#
#
#
# Elastic Compliance Matrix: (Units=1/GPa)
#
#
# Indices 1 2 3 4 5 6 
#
# 1 0.017842 -0.001021 -0.005377 0.000000 0.000000 0.000000
# 2 -0.001021 0.019937 -0.003376 0.000000 0.000000 0.000000
# 3 -0.005377 -0.003376 0.006601 0.000000 0.000000 0.000000
# 4 0.000000 0.000000 0.000000 0.044854 0.000000 0.000000
# 5 0.000000 0.000000 0.000000 0.000000 0.046819 0.000000
# 6 0.000000 0.000000 0.000000 0.000000 0.000000 0.039638
#
#
# Mechanical properties :
#
#
# Convention : Reuss Voigt Hill
#
# Bulk Modulus (GPa) = 40.27004 70.43449 55.35226
# Shear Modulus (GPa) = 24.56798 29.62926 27.09862
#
# Velocity S-wave (km/s) = 3.09926 3.40356 3.25497
# Velocity P-wave (km/s) = 5.34337 6.55618 5.98060
#
# Compressibility (1/GPa) = 0.02483236
#
# Stress axis : x y z
#
# Youngs Moduli (GPa) = 56.04676 50.15753 151.49015
#
# Poissons Ratio (x) = 0.05119 0.81463
# Poissons Ratio (y) = 0.05720 0.51145
# Poissons Ratio (z) = 0.30139 0.16934
#
# Static dielectric constant tensor:
#      x y z
#    x 2.311810 0.000000 0.000000 
#    y 0.000000 2.002800 0.000000 
#    z 0.000000 0.000000 2.092320 
# 
# From -- ./inp_files/18540.got.cif
#   From: 2010.05.17/outbox.cif.g08.bks.cpg/sg60_10_cif.got.tgz:18540.got - 2010.06.03 14:59:27.
