data_PCOD9455849
_publ_section_title
;
Structure prediction by ZEFSAII (Michael W. Deem and Ramdas Pophale) SiO2 
 PCOD9455849
Probable space group: P B C N
;
_chemical_formula_sum "Si O2"
_cell_formula_units_Z 32
_cell_length_a 7.788093
_cell_length_b 13.592082
_cell_length_c 10.489695
_cell_angle_alpha 90.000000
_cell_angle_beta 90.000000
_cell_angle_gamma 90.000000
_cell_volume 1110.401336
_symmetry_space_group_name_H-M "P B C N"
_symmetry_group_IT_number 60
_symmetry_cell_setting 'orthorhombic'
loop_
_space_group_symop_operation_xyz
x,y,z
1/2-x,1/2-y,1/2+z
1/2+x,1/2-y,-z
-x,y,1/2-z
-x,-y,-z
1/2+x,1/2+y,1/2-z
1/2-x,1/2+y,z
x,-y,1/2+z
loop_
_atom_site_type_symbol
_atom_site_label
_atom_site_fract_x
_atom_site_fract_y
_atom_site_fract_z
Si Si1 0.379824 0.804079 0.854948
Si Si2 0.996267 0.215817 0.110054
Si Si3 0.694046 0.468787 0.962772
Si Si4 0.802438 0.917769 0.231135
O O1 0.500000 0.855433 0.750000
O O2 0.189148 0.838231 0.893514
O O3 0.334788 0.697350 0.791907
O O4 0.481635 0.781856 0.985326
O O5 0.000000 0.263840 0.250000
O O6 0.152034 0.137589 0.100712
O O7 0.776800 0.542333 0.861355
O O8 0.500000 0.500000 0.000000
O O9 0.781158 0.454379 0.100033
O O10 0.000000 0.956689 0.250000
#
# Coordination Sequence:
#
# PCOD9455849 Si02
#       4
#     8   8   8   8
#     4  10  21  36  54  83 117 148 186 238 293 341
#     4  11  21  34  55  85 114 148 190 238 286 339
#     4   9  16  28  49  78 101 132 184 233 264 318
#     4   8  15  28  48  76 103 134 180 233 267 316
#
# _framework density 28.818408999999999
#
# number of rings (size 3 to 8) (size 9 to 14) (size 15 to 20)
#    0.000    2.500    0.000    5.250    0.000    0.000 
#    0.000    0.000    0.000    0.000    0.000  218.750 
#    0.000    0.000    0.000    0.000    0.000    0.000 
#
# Total GULP energy -178956.068416 kJ/mol
# GULP energy per Si atom -5592.377138 kJ/mol
# Density = 2.875282 g / cm^3
# Si number density = 28.818409 Si / 1000 Ang^3
#
#
#
# Elastic Constant Matrix: (Units=GPa)
#
#
# Indices 1 2 3 4 5 6 
#
# 1 143.1739 14.8130 65.7795 0.0000 0.0000 0.0000
# 2 14.8130 76.5205 59.4649 0.0000 0.0000 0.0000
# 3 65.7795 59.4649 241.9373 0.0000 0.0000 0.0000
# 4 0.0000 0.0000 0.0000 34.5920 0.0000 0.0000
# 5 0.0000 0.0000 0.0000 0.0000 24.7020 0.0000
# 6 0.0000 0.0000 0.0000 0.0000 0.0000 21.9128
#
#
#
# Elastic Compliance Matrix: (Units=1/GPa)
#
#
# Indices 1 2 3 4 5 6 
#
# 1 0.007983 0.000175 -0.002214 0.000000 0.000000 0.000000
# 2 0.000175 0.016158 -0.004019 0.000000 0.000000 0.000000
# 3 -0.002214 -0.004019 0.005723 0.000000 0.000000 0.000000
# 4 0.000000 0.000000 0.000000 0.028908 0.000000 0.000000
# 5 0.000000 0.000000 0.000000 0.000000 0.040483 0.000000
# 6 0.000000 0.000000 0.000000 0.000000 0.000000 0.045635
#
#
# Mechanical properties :
#
#
# Convention : Reuss Voigt Hill
#
# Bulk Modulus (GPa) = 56.34226 82.41628 69.37927
# Shear Modulus (GPa) = 30.68957 37.67966 34.18461
#
# Velocity S-wave (km/s) = 3.26687 3.61984 3.44787
# Velocity P-wave (km/s) = 5.81576 6.79202 6.32276
#
# Compressibility (1/GPa) = 0.01774867
#
# Stress axis : x y z
#
# Youngs Moduli (GPa) = 125.25968 61.89020 174.73650
#
# Poissons Ratio (x) = -0.01081 0.38678
# Poissons Ratio (y) = -0.02188 0.70224
# Poissons Ratio (z) = 0.27727 0.24873
#
# Static dielectric constant tensor:
#      x y z
#    x 2.349770 0.000000 0.000000 
#    y 0.000000 2.285190 0.000000 
#    z 0.000000 0.000000 2.277390 
# 
# From -- ./inp_files/9706.got.cif
#   From: 2010.05.17/outbox.cif.g08.bks.cpg/sg60_5_cif.got.tgz:9706.got - 2010.06.03 14:59:27.
