data_PCOD9455051
_publ_section_title
;
Structure prediction by ZEFSAII (Michael W. Deem and Ramdas Pophale) SiO2 
 PCOD9455051
Probable space group: P B C N
;
_chemical_formula_sum "Si O2"
_cell_formula_units_Z 48
_cell_length_a 9.060150
_cell_length_b 16.300050
_cell_length_c 16.829823
_cell_angle_alpha 90.000000
_cell_angle_beta 90.000000
_cell_angle_gamma 90.000000
_cell_volume 2485.443374
_symmetry_space_group_name_H-M "P B C N"
_symmetry_group_IT_number 60
_symmetry_cell_setting 'orthorhombic'
loop_
_space_group_symop_operation_xyz
x,y,z
1/2-x,1/2-y,1/2+z
1/2+x,1/2-y,-z
-x,y,1/2-z
-x,-y,-z
1/2+x,1/2+y,1/2-z
1/2-x,1/2+y,z
x,-y,1/2+z
loop_
_atom_site_type_symbol
_atom_site_label
_atom_site_fract_x
_atom_site_fract_y
_atom_site_fract_z
Si Si1 0.098233 0.433726 0.951491
Si Si2 0.412578 0.490427 0.416145
Si Si3 0.723962 0.728079 0.060899
Si Si4 0.156715 0.322218 0.591047
Si Si5 0.539288 0.314377 0.158400
Si Si6 0.529272 0.647527 0.339940
O O1 0.239685 0.485519 0.922398
O O2 0.184399 0.348470 0.978921
O O3 0.970195 0.390599 0.898973
O O4 0.000000 0.500000 0.000000
O O5 0.500000 0.500000 0.500000
O O6 0.436771 0.400062 0.384295
O O7 0.480881 0.554161 0.353769
O O8 0.818430 0.759412 0.136124
O O9 0.569402 0.696254 0.095432
O O10 0.699690 0.803018 0.000312
O O11 0.300904 0.344871 0.638693
O O12 0.093678 0.235756 0.619536
O O13 0.500000 0.323819 0.250000
O O14 0.500000 0.674187 0.250000
#
# Coordination Sequence:
#
# PCOD9455051 Si02
#       6
#     8   8   8   8   8   8
#     4  10  20  35  57  86 115 150 200 253 300 358
#     4  11  22  38  60  85 117 159 205 251 304 372
#     4  10  21  37  59  86 117 156 204 249 301 369
#     4  11  22  38  62  87 118 161 204 251 303 369
#     4  11  22  38  59  87 121 156 196 254 309 354
#     4  11  22  38  59  87 120 156 199 254 309 360
#
# _framework density 19.312449000000001
#
# number of rings (size 3 to 8) (size 9 to 14) (size 15 to 20)
#    0.000    1.333    0.000    8.500    0.000    0.000 
#    0.000    0.000    0.000    2.000    0.000    1.167 
#    0.000    0.000    0.000    0.000    0.000    0.000 
#
# Total GULP energy -267512.573042 kJ/mol
# GULP energy per Si atom -5573.178605 kJ/mol
# Density = 1.926849 g / cm^3
# Si number density = 19.312449 Si / 1000 Ang^3
#
#
#
# Elastic Constant Matrix: (Units=GPa)
#
#
# Indices 1 2 3 4 5 6 
#
# 1 177.6615 55.9902 39.5523 0.0000 0.0000 0.0000
# 2 55.9902 110.4499 25.4222 0.0000 0.0000 0.0000
# 3 39.5523 25.4222 82.4507 0.0000 0.0000 0.0000
# 4 0.0000 0.0000 0.0000 28.0306 0.0000 0.0000
# 5 0.0000 0.0000 0.0000 0.0000 19.4355 0.0000
# 6 0.0000 0.0000 0.0000 0.0000 0.0000 27.2995
#
#
#
# Elastic Compliance Matrix: (Units=1/GPa)
#
#
# Indices 1 2 3 4 5 6 
#
# 1 0.007143 -0.003049 -0.002487 0.000000 0.000000 0.000000
# 2 -0.003049 0.011047 -0.001944 0.000000 0.000000 0.000000
# 3 -0.002487 -0.001944 0.013921 0.000000 0.000000 0.000000
# 4 0.000000 0.000000 0.000000 0.035675 0.000000 0.000000
# 5 0.000000 0.000000 0.000000 0.000000 0.051452 0.000000
# 6 0.000000 0.000000 0.000000 0.000000 0.000000 0.036631
#
#
# Mechanical properties :
#
#
# Convention : Reuss Voigt Hill
#
# Bulk Modulus (GPa) = 58.30005 68.05462 63.17733
# Shear Modulus (GPa) = 28.32159 31.59294 29.95726
#
# Velocity S-wave (km/s) = 3.83364 4.04900 3.94279
# Velocity P-wave (km/s) = 7.06039 7.56137 7.31517
#
# Compressibility (1/GPa) = 0.01715264
#
# Stress axis : x y z
#
# Youngs Moduli (GPa) = 139.99602 90.52476 71.83617
#
# Poissons Ratio (x) = 0.27598 0.17863
# Poissons Ratio (y) = 0.42680 0.13962
# Poissons Ratio (z) = 0.34811 0.17594
#
# Static dielectric constant tensor:
#      x y z
#    x 1.689770 0.000000 0.000000 
#    y 0.000000 1.676840 0.000000 
#    z 0.000000 0.000000 1.620740 
# 
# From -- ./inp_files/19421.got.cif
#   From: 2010.05.17/outbox.cif.g08.bks.cpg/sg60_10_cif.got.tgz:19421.got - 2010.06.03 14:59:27.
