data_PCOD9455666
_publ_section_title
;
Structure prediction by ZEFSAII (Michael W. Deem and Ramdas Pophale) SiO2 
 PCOD9455666
Probable space group: P B C N
;
_chemical_formula_sum "Si O2"
_cell_formula_units_Z 64
_cell_length_a 10.934018
_cell_length_b 9.139320
_cell_length_c 27.087033
_cell_angle_alpha 90.000000
_cell_angle_beta 90.000000
_cell_angle_gamma 90.000000
_cell_volume 2706.793377
_symmetry_space_group_name_H-M "P B C N"
_symmetry_group_IT_number 60
_symmetry_cell_setting 'orthorhombic'
loop_
_space_group_symop_operation_xyz
x,y,z
1/2-x,1/2-y,1/2+z
1/2+x,1/2-y,-z
-x,y,1/2-z
-x,-y,-z
1/2+x,1/2+y,1/2-z
1/2-x,1/2+y,z
x,-y,1/2+z
loop_
_atom_site_type_symbol
_atom_site_label
_atom_site_fract_x
_atom_site_fract_y
_atom_site_fract_z
Si Si1 0.310917 0.554899 0.264413
Si Si2 0.587813 0.342770 0.028650
Si Si3 0.376311 0.463152 0.571502
Si Si4 0.546463 0.331256 0.647290
Si Si5 0.398696 0.992238 0.338783
Si Si6 0.247969 0.322205 0.197049
Si Si7 0.151436 0.417541 0.631554
Si Si8 0.251720 0.410313 0.926727
O O1 0.402951 0.569818 0.309299
O O2 0.174907 0.546634 0.290422
O O3 0.333819 0.404743 0.235925
O O4 0.318770 0.696321 0.228990
O O5 0.459023 0.395573 0.054031
O O6 0.652640 0.198453 0.049685
O O7 0.681291 0.479091 0.036619
O O8 0.585005 0.342257 0.969400
O O9 0.427817 0.403148 0.623547
O O10 0.230194 0.465354 0.583154
O O11 0.547359 0.168771 0.668714
O O12 0.641664 0.324478 0.601811
O O13 0.505586 0.086523 0.364080
O O14 0.301045 0.991217 0.382724
O O15 0.181443 0.461391 0.173388
O O16 0.306817 0.239295 0.151169
#
# Coordination Sequence:
#
# PCOD9455666 Si02
#       8
#     8   8   8   8   8   8   8   8
#     4  10  21  43  68  94 127 170 230 270 322 393
#     4  10  22  44  71  98 132 174 227 273 322 402
#     4  10  24  44  67  96 139 178 213 270 341 393
#     4  10  20  41  69  95 126 174 221 275 330 377
#     4  11  22  39  71  95 134 171 219 278 330 394
#     4  10  23  42  63  95 130 172 218 267 330 392
#     4  11  25  44  60  97 140 170 214 266 342 396
#     4  10  21  40  69 102 126 169 227 275 325 387
#
# _framework density 23.644213000000001
#
# number of rings (size 3 to 8) (size 9 to 14) (size 15 to 20)
#    0.000    1.750    2.500    0.750    1.750    4.000 
#    9.000    2.500    0.000    0.000    0.000    0.000 
#    0.000    0.000    0.000    0.000    0.000    0.000 
#
# Total GULP energy -356925.675043 kJ/mol
# GULP energy per Si atom -5576.963673 kJ/mol
# Density = 2.359040 g / cm^3
# Si number density = 23.644213 Si / 1000 Ang^3
#
#
#
# Elastic Constant Matrix: (Units=GPa)
#
#
# Indices 1 2 3 4 5 6 
#
# 1 52.7072 -3.4137 21.4701 0.0000 0.0000 0.0000
# 2 -3.4137 81.6747 16.0301 0.0000 0.0000 0.0000
# 3 21.4701 16.0301 92.7619 0.0000 0.0000 0.0000
# 4 0.0000 0.0000 0.0000 30.0534 0.0000 0.0000
# 5 0.0000 0.0000 0.0000 0.0000 28.8276 0.0000
# 6 0.0000 0.0000 0.0000 0.0000 0.0000 6.3984
#
#
#
# Elastic Compliance Matrix: (Units=1/GPa)
#
#
# Indices 1 2 3 4 5 6 
#
# 1 0.021234 0.001917 -0.005246 0.000000 0.000000 0.000000
# 2 0.001917 0.012847 -0.002664 0.000000 0.000000 0.000000
# 3 -0.005246 -0.002664 0.012455 0.000000 0.000000 0.000000
# 4 0.000000 0.000000 0.000000 0.033274 0.000000 0.000000
# 5 0.000000 0.000000 0.000000 0.000000 0.034689 0.000000
# 6 0.000000 0.000000 0.000000 0.000000 0.000000 0.156289
#
#
# Mechanical properties :
#
#
# Convention : Reuss Voigt Hill
#
# Bulk Modulus (GPa) = 28.94350 32.81300 30.87825
# Shear Modulus (GPa) = 16.99009 25.92637 21.45823
#
# Velocity S-wave (km/s) = 2.68353 3.31497 3.01582
# Velocity P-wave (km/s) = 4.67650 5.34415 5.02143
#
# Compressibility (1/GPa) = 0.03455007
#
# Stress axis : x y z
#
# Youngs Moduli (GPa) = 47.09467 77.84143 80.29028
#
# Poissons Ratio (x) = -0.14923 0.42120
# Poissons Ratio (y) = -0.09029 0.21387
# Poissons Ratio (z) = 0.24706 0.20735
#
# Static dielectric constant tensor:
#      x y z
#    x 2.035260 0.000000 0.000000 
#    y 0.000000 1.886810 0.000000 
#    z 0.000000 0.000000 1.921630 
# 
# From -- ./inp_files/26102.got.cif
#   From: 2010.05.17/outbox.cif.g08.bks.cpg/sg60_14_cif.got.tgz:26102.got - 2010.06.03 14:59:27.
