data_PCOD9455560
_publ_section_title
;
Structure prediction by ZEFSAII (Michael W. Deem and Ramdas Pophale) SiO2 
 PCOD9455560
Probable space group: P B C N
;
_chemical_formula_sum "Si O2"
_cell_formula_units_Z 36
_cell_length_a 18.812719
_cell_length_b 10.745287
_cell_length_c 8.425573
_cell_angle_alpha 90.000000
_cell_angle_beta 90.000000
_cell_angle_gamma 90.000000
_cell_volume 1703.213278
_symmetry_space_group_name_H-M "P B C N"
_symmetry_group_IT_number 60
_symmetry_cell_setting 'orthorhombic'
loop_
_space_group_symop_operation_xyz
x,y,z
1/2-x,1/2-y,1/2+z
1/2+x,1/2-y,-z
-x,y,1/2-z
-x,-y,-z
1/2+x,1/2+y,1/2-z
1/2-x,1/2+y,z
x,-y,1/2+z
loop_
_atom_site_type_symbol
_atom_site_label
_atom_site_fract_x
_atom_site_fract_y
_atom_site_fract_z
Si Si1 0.915929 0.351873 0.518800
Si Si2 0.245917 0.652196 0.556546
Si Si3 0.000000 0.469638 0.250000
Si Si4 0.204275 0.091900 0.220651
Si Si5 0.544485 0.396819 0.908156
O O1 0.831957 0.361977 0.521028
O O2 0.954346 0.443847 0.636228
O O3 0.943839 0.212906 0.535687
O O4 0.943415 0.389329 0.345129
O O5 0.258553 0.540886 0.682999
O O6 0.297608 0.628104 0.406845
O O7 0.243664 0.790594 0.633538
O O8 0.124627 0.077242 0.152301
O O9 0.500000 0.364326 0.750000
O O10 0.500000 0.500000 0.000000
#
# Coordination Sequence:
#
# PCOD9455560 Si02
#       5
#     8   8   4   8   8
#     4  10  22  40  64  92 127 164 211 268 318 387
#     4  11  23  43  64  98 129 172 221 267 337 383
#     4  10  20  40  62  94 122 164 212 260 328 374
#     4  11  24  43  67  95 131 174 218 277 324 398
#     4  11  24  43  62  92 129 169 217 262 322 384
#
# _framework density 21.136517999999999
#
# number of rings (size 3 to 8) (size 9 to 14) (size 15 to 20)
#    0.000    1.333    1.111    4.000    1.556    3.556 
#   12.000    0.000    0.000    0.000    0.000    0.000 
#    0.000    0.000    0.000    0.000    0.000    0.000 
#
# Total GULP energy -200993.080624 kJ/mol
# GULP energy per Si atom -5583.141128 kJ/mol
# Density = 2.108841 g / cm^3
# Si number density = 21.136518 Si / 1000 Ang^3
#
#
#
# Elastic Constant Matrix: (Units=GPa)
#
#
# Indices 1 2 3 4 5 6 
#
# 1 64.2776 37.3742 -3.0644 0.0000 0.0000 0.0000
# 2 37.3742 100.0174 2.0704 0.0000 0.0000 0.0000
# 3 -3.0644 2.0704 55.6933 0.0000 0.0000 0.0000
# 4 0.0000 0.0000 0.0000 42.0436 0.0000 0.0000
# 5 0.0000 0.0000 0.0000 0.0000 24.4103 0.0000
# 6 0.0000 0.0000 0.0000 0.0000 0.0000 14.7060
#
#
#
# Elastic Compliance Matrix: (Units=1/GPa)
#
#
# Indices 1 2 3 4 5 6 
#
# 1 0.019981 -0.007495 0.001378 0.000000 0.000000 0.000000
# 2 -0.007495 0.012817 -0.000889 0.000000 0.000000 0.000000
# 3 0.001378 -0.000889 0.018064 0.000000 0.000000 0.000000
# 4 0.000000 0.000000 0.000000 0.023785 0.000000 0.000000
# 5 0.000000 0.000000 0.000000 0.000000 0.040966 0.000000
# 6 0.000000 0.000000 0.000000 0.000000 0.000000 0.067999
#
#
# Mechanical properties :
#
#
# Convention : Reuss Voigt Hill
#
# Bulk Modulus (GPa) = 27.13618 32.52764 29.83191
# Shear Modulus (GPa) = 23.81986 28.47253 26.14620
#
# Velocity S-wave (km/s) = 3.36065 3.67424 3.52094
# Velocity P-wave (km/s) = 5.28442 5.78124 5.53840
#
# Compressibility (1/GPa) = 0.03685117
#
# Stress axis : x y z
#
# Youngs Moduli (GPa) = 50.04705 78.01908 55.35768
#
# Poissons Ratio (x) = 0.58476 -0.07629
# Poissons Ratio (y) = 0.37510 0.04921
# Poissons Ratio (z) = -0.06897 0.06935
#
# Static dielectric constant tensor:
#      x y z
#    x 1.736120 0.000000 0.000000 
#    y 0.000000 1.782460 0.000000 
#    z 0.000000 0.000000 1.605220 
# 
# From -- ./inp_files/7168.got.cif
#   From: 2010.05.17/outbox.cif.g08.bks.cpg/sg60_4_cif.got.tgz:7168.got - 2010.06.03 14:59:27.
