data_PCOD9455027
_publ_section_title
;
Structure prediction by ZEFSAII (Michael W. Deem and Ramdas Pophale) SiO2 
 PCOD9455027
Probable space group: P B C N
;
_chemical_formula_sum "Si O2"
_cell_formula_units_Z 56
_cell_length_a 23.890448
_cell_length_b 14.573459
_cell_length_c 9.121397
_cell_angle_alpha 90.000000
_cell_angle_beta 90.000000
_cell_angle_gamma 90.000000
_cell_volume 3175.764544
_symmetry_space_group_name_H-M "P B C N"
_symmetry_group_IT_number 60
_symmetry_cell_setting 'orthorhombic'
loop_
_space_group_symop_operation_xyz
x,y,z
1/2-x,1/2-y,1/2+z
1/2+x,1/2-y,-z
-x,y,1/2-z
-x,-y,-z
1/2+x,1/2+y,1/2-z
1/2-x,1/2+y,z
x,-y,1/2+z
loop_
_atom_site_type_symbol
_atom_site_label
_atom_site_fract_x
_atom_site_fract_y
_atom_site_fract_z
Si Si1 0.010181 0.400403 0.076647
Si Si2 0.410432 0.799514 0.570182
Si Si3 0.388143 0.124696 0.386510
Si Si4 0.232553 0.321255 0.810096
Si Si5 0.686832 0.678487 0.928177
Si Si6 0.666014 0.938430 0.110861
Si Si7 0.257925 0.013584 0.646010
O O1 0.000000 0.407166 0.250000
O O2 0.072371 0.370248 0.027043
O O3 0.000000 0.500000 0.000000
O O4 0.968083 0.324904 0.008014
O O5 0.413849 0.831295 0.739461
O O6 0.379124 0.701581 0.567843
O O7 0.365383 0.861603 0.481076
O O8 0.325671 0.165079 0.399636
O O9 0.378849 0.017224 0.352274
O O10 0.215612 0.245704 0.690968
O O11 0.248021 0.417801 0.732572
O O12 0.282496 0.298402 0.919124
O O13 0.703830 0.574477 0.887675
O O14 0.699896 0.922392 0.259360
O O15 0.711094 0.982606 0.000761
#
# Coordination Sequence:
#
# PCOD9455027 Si02
#       7
#     8   8   8   8   8   8   8
#     4  12  25  34  53  77 108 153 194 229 278 340
#     4  11  22  36  51  79 110 147 194 230 279 332
#     4  10  20  35  50  73 106 146 188 231 266 331
#     4  10  22  35  53  82 111 151 192 229 286 336
#     4  11  21  35  55  79 116 153 189 237 279 342
#     4  11  18  32  52  73 111 152 187 223 272 329
#     4  11  20  34  52  78 115 157 187 229 281 335
#
# _framework density 17.63355
#
# number of rings (size 3 to 8) (size 9 to 14) (size 15 to 20)
#    0.000    1.143    8.571    2.143    2.000    1.143 
#    0.000    0.000    0.000    0.000    0.000    0.000 
#    0.000   36.571    0.000    0.000    0.000    0.000 
#
# Total GULP energy -312238.407848 kJ/mol
# GULP energy per Si atom -5575.685854 kJ/mol
# Density = 1.759342 g / cm^3
# Si number density = 17.633550 Si / 1000 Ang^3
#
#
#
# Elastic Constant Matrix: (Units=GPa)
#
#
# Indices 1 2 3 4 5 6 
#
# 1 44.8131 20.5488 22.0864 0.0000 0.0000 0.0000
# 2 20.5488 42.6825 -2.1768 0.0000 0.0000 0.0000
# 3 22.0864 -2.1768 68.2834 0.0000 0.0000 0.0000
# 4 0.0000 0.0000 0.0000 23.9062 0.0000 0.0000
# 5 0.0000 0.0000 0.0000 0.0000 26.4335 0.0000
# 6 0.0000 0.0000 0.0000 0.0000 0.0000 27.3823
#
#
#
# Elastic Compliance Matrix: (Units=1/GPa)
#
#
# Indices 1 2 3 4 5 6 
#
# 1 0.036942 -0.018424 -0.012536 0.000000 0.000000 0.000000
# 2 -0.018424 0.032656 0.007000 0.000000 0.000000 0.000000
# 3 -0.012536 0.007000 0.018923 0.000000 0.000000 0.000000
# 4 0.000000 0.000000 0.000000 0.041830 0.000000 0.000000
# 5 0.000000 0.000000 0.000000 0.000000 0.037831 0.000000
# 6 0.000000 0.000000 0.000000 0.000000 0.000000 0.036520
#
#
# Mechanical properties :
#
#
# Convention : Reuss Voigt Hill
#
# Bulk Modulus (GPa) = 24.63038 26.29952 25.46495
# Shear Modulus (GPa) = 18.78603 23.23246 21.00924
#
# Velocity S-wave (km/s) = 3.26752 3.63370 3.45546
# Velocity P-wave (km/s) = 5.31355 5.70542 5.51297
#
# Compressibility (1/GPa) = 0.04060026
#
# Stress axis : x y z
#
# Youngs Moduli (GPa) = 27.06957 30.62234 52.84602
#
# Poissons Ratio (x) = 0.56420 0.66249
# Poissons Ratio (y) = 0.49874 -0.36994
# Poissons Ratio (z) = 0.33935 -0.21437
#
# Static dielectric constant tensor:
#      x y z
#    x 1.635420 0.000000 0.000000 
#    y 0.000000 1.643630 0.000000 
#    z 0.000000 0.000000 1.636350 
# 
# From -- ./inp_files/7436.got.cif
#   From: 2010.05.17/outbox.cif.g08.bks.cpg/sg60_4_cif.got.tgz:7436.got - 2010.06.03 14:59:27.
