data_PCOD9455305
_publ_section_title
;
Structure prediction by ZEFSAII (Michael W. Deem and Ramdas Pophale) SiO2 
 PCOD9455305
Probable space group: P B C N
;
_chemical_formula_sum "Si O2"
_cell_formula_units_Z 48
_cell_length_a 8.088511
_cell_length_b 22.980462
_cell_length_c 11.016470
_cell_angle_alpha 90.000000
_cell_angle_beta 90.000000
_cell_angle_gamma 90.000000
_cell_volume 2047.716322
_symmetry_space_group_name_H-M "P B C N"
_symmetry_group_IT_number 60
_symmetry_cell_setting 'orthorhombic'
loop_
_space_group_symop_operation_xyz
x,y,z
1/2-x,1/2-y,1/2+z
1/2+x,1/2-y,-z
-x,y,1/2-z
-x,-y,-z
1/2+x,1/2+y,1/2-z
1/2-x,1/2+y,z
x,-y,1/2+z
loop_
_atom_site_type_symbol
_atom_site_label
_atom_site_fract_x
_atom_site_fract_y
_atom_site_fract_z
Si Si1 0.000037 0.674295 0.607689
Si Si2 0.325377 0.535257 0.500812
Si Si3 0.677703 0.916692 0.979083
Si Si4 0.194524 0.121879 0.278740
Si Si5 0.504845 0.635109 0.612476
Si Si6 0.298533 0.718671 0.462645
O O1 0.981820 0.614237 0.534562
O O2 0.848070 0.716636 0.571761
O O3 0.000000 0.664355 0.750000
O O4 0.160226 0.709210 0.563802
O O5 0.500000 0.500000 0.500000
O O6 0.190827 0.486114 0.526053
O O7 0.296280 0.568480 0.374012
O O8 0.361350 0.585968 0.597783
O O9 0.712162 0.892402 0.844866
O O10 0.826449 0.895012 0.068177
O O11 0.251947 0.180717 0.345186
O O12 0.000000 0.128941 0.250000
O O13 0.500000 0.655628 0.750000
O O14 0.457082 0.685661 0.519373
#
# Coordination Sequence:
#
# PCOD9455305 Si02
#       6
#     8   8   8   8   8   8
#     4  12  28  48  70  97 138 176 229 290 344 413
#     4   9  19  32  64 102 132 179 223 271 327 387
#     4  11  23  40  68 100 136 183 225 281 344 394
#     4  11  20  41  69 102 141 175 229 285 330 409
#     4  10  20  37  66 103 137 175 230 277 333 403
#     4  11  25  44  70  98 131 181 226 283 352 401
#
# _framework density 23.440747000000002
#
# number of rings (size 3 to 8) (size 9 to 14) (size 15 to 20)
#    0.000    1.333    5.000    2.500    7.000    0.667 
#    0.000    3.333    0.000    0.000    0.000    0.000 
#    0.000    0.000    0.000    0.000    0.000    0.000 
#
# Total GULP energy -268655.132701 kJ/mol
# GULP energy per Si atom -5596.981931 kJ/mol
# Density = 2.338740 g / cm^3
# Si number density = 23.440747 Si / 1000 Ang^3
#
#
#
# Elastic Constant Matrix: (Units=GPa)
#
#
# Indices 1 2 3 4 5 6 
#
# 1 56.9366 -3.7649 1.1667 0.0000 0.0000 0.0000
# 2 -3.7649 107.6356 10.3572 0.0000 0.0000 0.0000
# 3 1.1667 10.3572 117.8633 0.0000 0.0000 0.0000
# 4 0.0000 0.0000 0.0000 8.3076 0.0000 0.0000
# 5 0.0000 0.0000 0.0000 0.0000 21.0401 0.0000
# 6 0.0000 0.0000 0.0000 0.0000 0.0000 34.9227
#
#
#
# Elastic Compliance Matrix: (Units=1/GPa)
#
#
# Indices 1 2 3 4 5 6 
#
# 1 0.017610 0.000638 -0.000230 0.000000 0.000000 0.000000
# 2 0.000638 0.009393 -0.000832 0.000000 0.000000 0.000000
# 3 -0.000230 -0.000832 0.008560 0.000000 0.000000 0.000000
# 4 0.000000 0.000000 0.000000 0.120372 0.000000 0.000000
# 5 0.000000 0.000000 0.000000 0.000000 0.047528 0.000000
# 6 0.000000 0.000000 0.000000 0.000000 0.000000 0.028635
#
#
# Mechanical properties :
#
#
# Convention : Reuss Voigt Hill
#
# Bulk Modulus (GPa) = 28.80590 33.10594 30.95592
# Shear Modulus (GPa) = 20.44843 31.16585 25.80714
#
# Velocity S-wave (km/s) = 2.95675 3.65027 3.32166
# Velocity P-wave (km/s) = 4.89612 5.64976 5.28639
#
# Compressibility (1/GPa) = 0.03471511
#
# Stress axis : x y z
#
# Youngs Moduli (GPa) = 56.78495 106.46271 116.82553
#
# Poissons Ratio (x) = -0.06794 0.02692
# Poissons Ratio (y) = -0.03624 0.09717
# Poissons Ratio (z) = 0.01308 0.08855
#
# Static dielectric constant tensor:
#      x y z
#    x 2.020020 0.000000 0.000000 
#    y 0.000000 1.896400 0.000000 
#    z 0.000000 0.000000 1.800330 
# 
# From -- ./inp_files/10103.got.cif
#   From: 2010.05.17/outbox.cif.g08.bks.cpg/sg60_6_cif.got.tgz:10103.got - 2010.06.03 14:59:27.
