data_PCOD9455145
_publ_section_title
;
Structure prediction by ZEFSAII (Michael W. Deem and Ramdas Pophale) SiO2 
 PCOD9455145
Probable space group: P B C N
;
_chemical_formula_sum "Si O2"
_cell_formula_units_Z 48
_cell_length_a 8.180724
_cell_length_b 14.834686
_cell_length_c 15.993461
_cell_angle_alpha 90.000000
_cell_angle_beta 90.000000
_cell_angle_gamma 90.000000
_cell_volume 1940.941986
_symmetry_space_group_name_H-M "P B C N"
_symmetry_group_IT_number 60
_symmetry_cell_setting 'orthorhombic'
loop_
_space_group_symop_operation_xyz
x,y,z
1/2-x,1/2-y,1/2+z
1/2+x,1/2-y,-z
-x,y,1/2-z
-x,-y,-z
1/2+x,1/2+y,1/2-z
1/2-x,1/2+y,z
x,-y,1/2+z
loop_
_atom_site_type_symbol
_atom_site_label
_atom_site_fract_x
_atom_site_fract_y
_atom_site_fract_z
Si Si1 0.657759 0.061586 0.505818
Si Si2 0.166183 0.961475 0.656417
Si Si3 0.431456 0.264209 0.042845
Si Si4 0.188340 0.732035 0.212780
Si Si5 0.220840 0.992064 0.829591
Si Si6 0.760933 0.795787 0.615660
O O1 0.781105 0.020847 0.437637
O O2 0.611691 0.161235 0.478504
O O3 0.500000 0.000000 0.500000
O O4 0.723068 0.059013 0.599528
O O5 0.227546 0.860432 0.680124
O O6 0.249839 0.016512 0.732913
O O7 0.973265 0.975211 0.663514
O O8 0.333133 0.290302 0.127601
O O9 0.619152 0.258223 0.068486
O O10 0.396239 0.313071 0.955552
O O11 0.293255 0.753719 0.296067
O O12 0.000000 0.724640 0.250000
O O13 0.298211 0.895075 0.854627
#
# Coordination Sequence:
#
# PCOD9455145 Si02
#       6
#     8   8   8   8   8   8
#     4  11  21  37  59  85 117 152 192 236 292 350
#     4   9  20  34  60  85 108 153 195 236 275 345
#     4  10  21  36  58  84 113 152 190 238 292 338
#     4   8  17  35  57  81 109 153 191 228 281 349
#     4  10  20  38  59  85 115 149 197 235 286 345
#     4  10  20  36  59  84 113 148 195 237 280 341
#
# _framework density 24.730257999999999
#
# number of rings (size 3 to 8) (size 9 to 14) (size 15 to 20)
#    0.000    2.333    1.667    0.500    7.000    0.000 
#    0.000    1.667   11.000    0.000    0.000    0.000 
#    0.000    0.000    0.000    0.000    0.000    0.000 
#
# Total GULP energy -267908.034960 kJ/mol
# GULP energy per Si atom -5581.417395 kJ/mol
# Density = 2.467397 g / cm^3
# Si number density = 24.730258 Si / 1000 Ang^3
#
#
#
# Elastic Constant Matrix: (Units=GPa)
#
#
# Indices 1 2 3 4 5 6 
#
# 1 28.6819 -1.7279 9.3590 0.0000 0.0000 0.0000
# 2 -1.7279 43.8573 28.9573 0.0000 0.0000 0.0000
# 3 9.3590 28.9573 134.4292 0.0000 0.0000 0.0000
# 4 0.0000 0.0000 0.0000 33.8561 0.0000 0.0000
# 5 0.0000 0.0000 0.0000 0.0000 42.8404 0.0000
# 6 0.0000 0.0000 0.0000 0.0000 0.0000 20.1948
#
#
#
# Elastic Compliance Matrix: (Units=1/GPa)
#
#
# Indices 1 2 3 4 5 6 
#
# 1 0.036156 0.003598 -0.003292 0.000000 0.000000 0.000000
# 2 0.003598 0.026940 -0.006054 0.000000 0.000000 0.000000
# 3 -0.003292 -0.006054 0.008972 0.000000 0.000000 0.000000
# 4 0.000000 0.000000 0.000000 0.029537 0.000000 0.000000
# 5 0.000000 0.000000 0.000000 0.000000 0.023342 0.000000
# 6 0.000000 0.000000 0.000000 0.000000 0.000000 0.049518
#
#
# Mechanical properties :
#
#
# Convention : Reuss Voigt Hill
#
# Bulk Modulus (GPa) = 16.50898 31.12722 23.81810
# Shear Modulus (GPa) = 24.25399 30.73693 27.49546
#
# Velocity S-wave (km/s) = 3.13508 3.52929 3.33801
# Velocity P-wave (km/s) = 4.44916 5.40572 4.95060
#
# Compressibility (1/GPa) = 0.06057309
#
# Stress axis : x y z
#
# Youngs Moduli (GPa) = 27.65768 37.11955 111.45695
#
# Poissons Ratio (x) = -0.13357 0.36695
# Poissons Ratio (y) = -0.09952 0.67472
# Poissons Ratio (z) = 0.09106 0.22471
#
# Static dielectric constant tensor:
#      x y z
#    x 1.993780 0.000000 0.000000 
#    y 0.000000 1.997920 0.000000 
#    z 0.000000 0.000000 2.068340 
# 
# From -- ./inp_files/15006.got.cif
#   From: 2010.05.17/outbox.cif.g08.bks.cpg/sg60_8_cif.got.tgz:15006.got - 2010.06.03 14:59:27.
