data_PCOD9455349
_publ_section_title
;
Structure prediction by ZEFSAII (Michael W. Deem and Ramdas Pophale) SiO2 
 PCOD9455349
Probable space group: P B C N
;
_chemical_formula_sum "Si O2"
_cell_formula_units_Z 56
_cell_length_a 5.452637
_cell_length_b 22.625706
_cell_length_c 22.908636
_cell_angle_alpha 90.000000
_cell_angle_beta 90.000000
_cell_angle_gamma 90.000000
_cell_volume 2826.232964
_symmetry_space_group_name_H-M "P B C N"
_symmetry_group_IT_number 60
_symmetry_cell_setting 'orthorhombic'
loop_
_space_group_symop_operation_xyz
x,y,z
1/2-x,1/2-y,1/2+z
1/2+x,1/2-y,-z
-x,y,1/2-z
-x,-y,-z
1/2+x,1/2+y,1/2-z
1/2-x,1/2+y,z
x,-y,1/2+z
loop_
_atom_site_type_symbol
_atom_site_label
_atom_site_fract_x
_atom_site_fract_y
_atom_site_fract_z
Si Si1 0.218931 0.452380 0.446353
Si Si2 0.468519 0.148544 0.620696
Si Si3 0.940032 0.426373 0.556304
Si Si4 0.103831 0.231157 0.427926
Si Si5 0.101829 0.679111 0.126021
Si Si6 0.395942 0.648918 0.531648
Si Si7 0.500000 0.193240 0.750000
Si Si8 0.000000 0.270073 0.750000
O O1 0.235489 0.519740 0.424912
O O2 0.436206 0.406356 0.452948
O O3 0.037458 0.416125 0.403090
O O4 0.140679 0.455754 0.514374
O O5 0.616732 0.198758 0.584323
O O6 0.203783 0.165457 0.595146
O O7 0.485235 0.156999 0.689452
O O8 0.802285 0.381630 0.512249
O O9 0.072505 0.388765 0.605863
O O10 0.870302 0.204375 0.391707
O O11 0.366572 0.208609 0.405782
O O12 0.042157 0.206836 0.493029
O O13 0.051522 0.690751 0.193411
O O14 0.751240 0.231121 0.743773
#
# Coordination Sequence:
#
# PCOD9455349 Si02
#       8
#     8   8   8   8   8   8   4   4
#     4  10  20  38  60  89 123 168 206 253 327 384
#     4  11  25  38  59  93 126 168 211 259 320 390
#     4   9  20  38  59  89 127 160 210 260 318 384
#     4  11  23  38  60  93 132 154 207 260 328 371
#     4  11  21  40  63  93 117 166 208 265 307 378
#     4  10  22  35  61  92 125 165 207 267 321 387
#     4  12  26  44  63  90 131 174 212 260 308 404
#     4  12  22  42  65  88 125 166 220 256 320 372
#
# _framework density 19.814360000000001
#
# number of rings (size 3 to 8) (size 9 to 14) (size 15 to 20)
#    0.000    1.429    4.286    0.429    6.000    0.000 
#    0.000    0.714    0.000    0.000    7.429    0.000 
#    0.000    0.000    0.000    0.000    0.000    0.000 
#
# Total GULP energy -311766.504522 kJ/mol
# GULP energy per Si atom -5567.259009 kJ/mol
# Density = 1.976926 g / cm^3
# Si number density = 19.814360 Si / 1000 Ang^3
#
#
#
# Elastic Constant Matrix: (Units=GPa)
#
#
# Indices 1 2 3 4 5 6 
#
# 1 58.8313 -2.5747 18.9656 0.0000 0.0000 0.0000
# 2 -2.5747 77.7289 35.7932 0.0000 0.0000 0.0000
# 3 18.9656 35.7932 144.4520 0.0000 0.0000 0.0000
# 4 0.0000 0.0000 0.0000 17.9444 0.0000 0.0000
# 5 0.0000 0.0000 0.0000 0.0000 28.3230 0.0000
# 6 0.0000 0.0000 0.0000 0.0000 0.0000 22.0259
#
#
#
# Elastic Compliance Matrix: (Units=1/GPa)
#
#
# Indices 1 2 3 4 5 6 
#
# 1 0.017994 0.001901 -0.002834 0.000000 0.000000 0.000000
# 2 0.001901 0.014723 -0.003898 0.000000 0.000000 0.000000
# 3 -0.002834 -0.003898 0.008261 0.000000 0.000000 0.000000
# 4 0.000000 0.000000 0.000000 0.055728 0.000000 0.000000
# 5 0.000000 0.000000 0.000000 0.000000 0.035307 0.000000
# 6 0.000000 0.000000 0.000000 0.000000 0.000000 0.045401
#
#
# Mechanical properties :
#
#
# Convention : Reuss Voigt Hill
#
# Bulk Modulus (GPa) = 31.93139 42.82004 37.37572
# Shear Modulus (GPa) = 25.31470 28.91386 27.11428
#
# Velocity S-wave (km/s) = 3.57822 3.82414 3.70322
# Velocity P-wave (km/s) = 5.76384 6.41532 6.09828
#
# Compressibility (1/GPa) = 0.03131714
#
# Stress axis : x y z
#
# Youngs Moduli (GPa) = 55.57283 67.92071 121.05737
#
# Poissons Ratio (x) = -0.12911 0.34302
# Poissons Ratio (y) = -0.10564 0.47185
# Poissons Ratio (z) = 0.15747 0.26474
#
# Static dielectric constant tensor:
#      x y z
#    x 1.885540 0.000000 0.000000 
#    y 0.000000 1.925510 0.000000 
#    z 0.000000 0.000000 1.682250 
# 
# From -- ./inp_files/21754.got.cif
#   From: 2010.05.17/outbox.cif.g08.bks.cpg/sg60_11_cif.got.tgz:21754.got - 2010.06.03 14:59:27.
