data_PCOD9455631
_publ_section_title
;
Structure prediction by ZEFSAII (Michael W. Deem and Ramdas Pophale) SiO2 
 PCOD9455631
Probable space group: P B C N
;
_chemical_formula_sum "Si O2"
_cell_formula_units_Z 48
_cell_length_a 8.700316
_cell_length_b 12.624149
_cell_length_c 17.615617
_cell_angle_alpha 90.000000
_cell_angle_beta 90.000000
_cell_angle_gamma 90.000000
_cell_volume 1934.795184
_symmetry_space_group_name_H-M "P B C N"
_symmetry_group_IT_number 60
_symmetry_cell_setting 'orthorhombic'
loop_
_space_group_symop_operation_xyz
x,y,z
1/2-x,1/2-y,1/2+z
1/2+x,1/2-y,-z
-x,y,1/2-z
-x,-y,-z
1/2+x,1/2+y,1/2-z
1/2-x,1/2+y,z
x,-y,1/2+z
loop_
_atom_site_type_symbol
_atom_site_label
_atom_site_fract_x
_atom_site_fract_y
_atom_site_fract_z
Si Si1 0.755123 0.519202 0.023214
Si Si2 0.678494 0.353452 0.831202
Si Si3 0.054463 0.794156 0.957886
Si Si4 0.458254 0.889369 0.583579
Si Si5 0.000000 0.953539 0.250000
Si Si6 0.000000 0.329334 0.250000
Si Si7 0.252323 0.856229 0.356523
O O1 0.628900 0.603863 0.004142
O O2 0.699370 0.417729 0.068260
O O3 0.869969 0.570516 0.085289
O O4 0.856921 0.484749 0.952362
O O5 0.597586 0.327883 0.912300
O O6 0.860603 0.356695 0.843867
O O7 0.605712 0.462221 0.798183
O O8 0.627494 0.252229 0.782176
O O9 0.173224 0.750268 0.893000
O O10 0.035722 0.703433 0.020213
O O11 0.889032 0.879222 0.199668
O O12 0.906302 0.395128 0.188369
#
# Coordination Sequence:
#
# PCOD9455631 Si02
#       7
#     8   8   8   8   4   4   8
#     4  10  21  40  59  88 123 153 200 253 297 362
#     4  10  21  40  61  87 120 161 200 250 301 361
#     4  10  20  41  60  86 123 153 195 254 304 352
#     4  10  22  37  63  90 118 158 200 243 311 363
#     4  11  22  40  59  86 122 160 209 246 301 364
#     4   9  22  40  63  84 122 160 203 250 301 360
#     4  10  22  39  60  85 118 162 199 250 299 355
#
# _framework density 24.808827000000001
#
# number of rings (size 3 to 8) (size 9 to 14) (size 15 to 20)
#    0.000    2.000    1.667    1.000    2.333    3.333 
#    3.000    0.833    0.000    0.000    0.000    0.000 
#    0.000    0.000    0.000    0.000    0.000    0.000 
#
# Total GULP energy -268083.132312 kJ/mol
# GULP energy per Si atom -5585.065257 kJ/mol
# Density = 2.475236 g / cm^3
# Si number density = 24.808827 Si / 1000 Ang^3
#
#
#
# Elastic Constant Matrix: (Units=GPa)
#
#
# Indices 1 2 3 4 5 6 
#
# 1 65.1097 20.0472 17.1670 0.0000 0.0000 0.0000
# 2 20.0472 48.1140 3.0926 0.0000 0.0000 0.0000
# 3 17.1670 3.0926 48.5958 0.0000 0.0000 0.0000
# 4 0.0000 0.0000 0.0000 9.0569 0.0000 0.0000
# 5 0.0000 0.0000 0.0000 0.0000 55.4874 0.0000
# 6 0.0000 0.0000 0.0000 0.0000 0.0000 20.5182
#
#
#
# Elastic Compliance Matrix: (Units=1/GPa)
#
#
# Indices 1 2 3 4 5 6 
#
# 1 0.019400 -0.007674 -0.006365 0.000000 0.000000 0.000000
# 2 -0.007674 0.023905 0.001190 0.000000 0.000000 0.000000
# 3 -0.006365 0.001190 0.022751 0.000000 0.000000 0.000000
# 4 0.000000 0.000000 0.000000 0.110412 0.000000 0.000000
# 5 0.000000 0.000000 0.000000 0.000000 0.018022 0.000000
# 6 0.000000 0.000000 0.000000 0.000000 0.000000 0.048737
#
#
# Mechanical properties :
#
#
# Convention : Reuss Voigt Hill
#
# Bulk Modulus (GPa) = 24.77885 26.93702 25.85794
# Shear Modulus (GPa) = 17.70679 25.11335 21.41007
#
# Velocity S-wave (km/s) = 2.67447 3.18508 2.94088
# Velocity P-wave (km/s) = 4.42116 4.94042 4.68798
#
# Compressibility (1/GPa) = 0.04035699
#
# Stress axis : x y z
#
# Youngs Moduli (GPa) = 51.54734 41.83234 43.95479
#
# Poissons Ratio (x) = 0.32102 0.27976
# Poissons Ratio (y) = 0.39557 -0.05229
# Poissons Ratio (z) = 0.32809 -0.04976
#
# Static dielectric constant tensor:
#      x y z
#    x 1.976430 0.000000 0.000000 
#    y 0.000000 1.971510 0.000000 
#    z 0.000000 0.000000 2.048030 
# 
# From -- ./inp_files/22091.got.cif
#   From: 2010.05.17/outbox.cif.g08.bks.cpg/sg60_12_cif.got.tgz:22091.got - 2010.06.03 14:59:27.
