data_PCOD9455057
_publ_section_title
;
Structure prediction by ZEFSAII (Michael W. Deem and Ramdas Pophale) SiO2 
 PCOD9455057
Probable space group: P B C N
;
_chemical_formula_sum "Si O2"
_cell_formula_units_Z 60
_cell_length_a 26.233079
_cell_length_b 18.736263
_cell_length_c 5.329275
_cell_angle_alpha 90.000000
_cell_angle_beta 90.000000
_cell_angle_gamma 90.000000
_cell_volume 2619.391249
_symmetry_space_group_name_H-M "P B C N"
_symmetry_group_IT_number 60
_symmetry_cell_setting 'orthorhombic'
loop_
_space_group_symop_operation_xyz
x,y,z
1/2-x,1/2-y,1/2+z
1/2+x,1/2-y,-z
-x,y,1/2-z
-x,-y,-z
1/2+x,1/2+y,1/2-z
1/2-x,1/2+y,z
x,-y,1/2+z
loop_
_atom_site_type_symbol
_atom_site_label
_atom_site_fract_x
_atom_site_fract_y
_atom_site_fract_z
Si Si1 0.681692 0.244699 0.704919
Si Si2 0.053152 0.817658 0.371319
Si Si3 0.204368 0.817503 0.295664
Si Si4 0.910407 0.315842 0.932927
Si Si5 0.414264 0.531009 0.048875
Si Si6 0.561485 0.956353 0.727258
Si Si7 0.000000 0.713778 0.750000
Si Si8 0.795374 0.973926 0.976667
O O1 0.737567 0.210129 0.701550
O O2 0.674292 0.273687 0.986698
O O3 0.638515 0.190874 0.609057
O O4 0.683895 0.305475 0.486175
O O5 0.079466 0.763255 0.178504
O O6 0.082423 0.886845 0.466198
O O7 0.000000 0.843581 0.250000
O O8 0.036454 0.765754 0.594370
O O9 0.205538 0.897486 0.392598
O O10 0.910150 0.379688 0.734880
O O11 0.962167 0.332204 0.085233
O O12 0.437160 0.515752 0.322253
O O13 0.354978 0.508461 0.072155
O O14 0.500000 0.947921 0.750000
O O15 0.575344 0.998255 0.474568
O O16 0.772480 0.976028 0.696359
#
# Coordination Sequence:
#
# PCOD9455057 Si02
#       8
#     8   8   8   8   8   8   4   8
#     4  10  23  38  67  90 123 158 201 255 317 361
#     4  10  23  39  57  85 119 163 206 255 306 352
#     4  10  21  42  60  95 122 156 204 256 306 378
#     4  11  24  40  64  94 122 166 207 264 308 381
#     4  10  23  37  56  84 118 159 209 248 297 360
#     4  10  23  40  62  88 124 164 205 252 311 376
#     4  10  24  38  60  90 126 156 218 256 312 360
#     4  10  20  35  58  85 116 157 196 242 297 359
#
# _framework density 22.906086999999999
#
# number of rings (size 3 to 8) (size 9 to 14) (size 15 to 20)
#    0.000    1.867    0.000    2.800   12.133    1.600 
#    0.000    1.333    0.000    0.000    0.000    0.000 
#    0.000    0.000    0.000    0.000    0.000    0.000 
#
# Total GULP energy -335252.127432 kJ/mol
# GULP energy per Si atom -5587.535457 kJ/mol
# Density = 2.285395 g / cm^3
# Si number density = 22.906087 Si / 1000 Ang^3
#
#
#
# Elastic Constant Matrix: (Units=GPa)
#
#
# Indices 1 2 3 4 5 6 
#
# 1 29.7135 10.7161 17.0662 0.0000 0.0000 0.0000
# 2 10.7161 46.5197 -9.2565 0.0000 0.0000 0.0000
# 3 17.0662 -9.2565 93.7018 0.0000 0.0000 0.0000
# 4 0.0000 0.0000 0.0000 30.4800 0.0000 0.0000
# 5 0.0000 0.0000 0.0000 0.0000 24.4276 0.0000
# 6 0.0000 0.0000 0.0000 0.0000 0.0000 4.5669
#
#
#
# Elastic Compliance Matrix: (Units=1/GPa)
#
#
# Indices 1 2 3 4 5 6 
#
# 1 0.043043 -0.011705 -0.008996 0.000000 0.000000 0.000000
# 2 -0.011705 0.025110 0.004612 0.000000 0.000000 0.000000
# 3 -0.008996 0.004612 0.012766 0.000000 0.000000 0.000000
# 4 0.000000 0.000000 0.000000 0.032808 0.000000 0.000000
# 5 0.000000 0.000000 0.000000 0.000000 0.040937 0.000000
# 6 0.000000 0.000000 0.000000 0.000000 0.000000 0.218965
#
#
# Mechanical properties :
#
#
# Convention : Reuss Voigt Hill
#
# Bulk Modulus (GPa) = 20.51598 22.99851 21.75724
# Shear Modulus (GPa) = 11.84678 21.98885 16.91782
#
# Velocity S-wave (km/s) = 2.27665 3.10168 2.72062
# Velocity P-wave (km/s) = 3.98583 4.78428 4.40319
#
# Compressibility (1/GPa) = 0.04874250
#
# Stress axis : x y z
#
# Youngs Moduli (GPa) = 23.23253 39.82411 78.33144
#
# Poissons Ratio (x) = 0.46615 0.70466
# Poissons Ratio (y) = 0.27194 -0.36130
# Poissons Ratio (z) = 0.20900 -0.18369
#
# Static dielectric constant tensor:
#      x y z
#    x 1.842840 0.000000 0.000000 
#    y 0.000000 1.826570 0.000000 
#    z 0.000000 0.000000 1.982010 
# 
# From -- ./inp_files/2606.got.cif
#   From: 2010.05.17/outbox.cif.g08.bks.cpg/sg60_2_cif.got.tgz:2606.got - 2010.06.03 14:59:27.
