data_PCOD9455766
_publ_section_title
;
Structure prediction by ZEFSAII (Michael W. Deem and Ramdas Pophale) SiO2 
 PCOD9455766
Probable space group: P B C N
;
_chemical_formula_sum "Si O2"
_cell_formula_units_Z 36
_cell_length_a 15.236206
_cell_length_b 10.140835
_cell_length_c 8.936176
_cell_angle_alpha 90.000000
_cell_angle_beta 90.000000
_cell_angle_gamma 90.000000
_cell_volume 1380.709351
_symmetry_space_group_name_H-M "P B C N"
_symmetry_group_IT_number 60
_symmetry_cell_setting 'orthorhombic'
loop_
_space_group_symop_operation_xyz
x,y,z
1/2-x,1/2-y,1/2+z
1/2+x,1/2-y,-z
-x,y,1/2-z
-x,-y,-z
1/2+x,1/2+y,1/2-z
1/2-x,1/2+y,z
x,-y,1/2+z
loop_
_atom_site_type_symbol
_atom_site_label
_atom_site_fract_x
_atom_site_fract_y
_atom_site_fract_z
Si Si1 0.000000 0.935087 0.750000
Si Si2 0.696685 0.258153 0.438492
Si Si3 0.717228 0.920021 0.663265
Si Si4 0.126543 0.966363 0.508269
Si Si5 0.056786 0.585402 0.884610
O O1 0.943954 0.012524 0.624420
O O2 0.077003 0.879885 0.635838
O O3 0.779063 0.309235 0.535235
O O4 0.734251 0.161168 0.313625
O O5 0.649397 0.396940 0.400642
O O6 0.619477 0.188257 0.532278
O O7 0.783129 0.029410 0.593855
O O8 0.624049 0.983276 0.689457
O O9 0.000000 0.642846 0.750000
O O10 0.000000 0.500000 0.000000
#
# Coordination Sequence:
#
# PCOD9455766 Si02
#       5
#     4   8   8   8   8
#     4  10  20  46  66 104 132 176 236 296 350 420
#     4  10  25  45  67 101 137 188 238 284 360 432
#     4  10  25  45  66 101 137 193 226 291 358 431
#     4   9  24  40  70  97 138 183 231 294 352 426
#     4  12  26  44  72 105 146 186 242 302 357 426
#
# _framework density 26.073553
#
# number of rings (size 3 to 8) (size 9 to 14) (size 15 to 20)
#    1.333    0.444    2.222    0.000    7.778    3.556 
#    4.000    0.000    0.000    0.000    0.000    0.000 
#    0.000    0.000    0.000    0.000    0.000    0.000 
#
# Total GULP energy -200417.914661 kJ/mol
# GULP energy per Si atom -5567.164296 kJ/mol
# Density = 2.601421 g / cm^3
# Si number density = 26.073553 Si / 1000 Ang^3
#
#
#
# Elastic Constant Matrix: (Units=GPa)
#
#
# Indices 1 2 3 4 5 6 
#
# 1 146.7741 24.2417 55.5356 0.0000 0.0000 0.0000
# 2 24.2417 85.8592 23.3075 0.0000 0.0000 0.0000
# 3 55.5356 23.3075 152.4952 0.0000 0.0000 0.0000
# 4 0.0000 0.0000 0.0000 39.0742 0.0000 0.0000
# 5 0.0000 0.0000 0.0000 0.0000 55.2801 0.0000
# 6 0.0000 0.0000 0.0000 0.0000 0.0000 13.0456
#
#
#
# Elastic Compliance Matrix: (Units=1/GPa)
#
#
# Indices 1 2 3 4 5 6 
#
# 1 0.008095 -0.001550 -0.002711 0.000000 0.000000 0.000000
# 2 -0.001550 0.012448 -0.001338 0.000000 0.000000 0.000000
# 3 -0.002711 -0.001338 0.007749 0.000000 0.000000 0.000000
# 4 0.000000 0.000000 0.000000 0.025592 0.000000 0.000000
# 5 0.000000 0.000000 0.000000 0.000000 0.018090 0.000000
# 6 0.000000 0.000000 0.000000 0.000000 0.000000 0.076654
#
#
# Mechanical properties :
#
#
# Convention : Reuss Voigt Hill
#
# Bulk Modulus (GPa) = 58.49912 65.69981 62.09947
# Shear Modulus (GPa) = 30.20698 40.28288 35.24493
#
# Velocity S-wave (km/s) = 3.40741 3.93488 3.68060
# Velocity P-wave (km/s) = 6.16161 6.77473 6.47543
#
# Compressibility (1/GPa) = 0.01709427
#
# Stress axis : x y z
#
# Youngs Moduli (GPa) = 123.53348 80.33579 129.04101
#
# Poissons Ratio (x) = 0.12449 0.34985
# Poissons Ratio (y) = 0.19142 0.17268
# Poissons Ratio (z) = 0.33492 0.10751
#
# Static dielectric constant tensor:
#      x y z
#    x 2.124450 0.000000 0.000000 
#    y 0.000000 2.242590 0.000000 
#    z 0.000000 0.000000 1.990350 
# 
# From -- ./inp_files/5622.got.cif
#   From: 2010.05.17/outbox.cif.g08.bks.cpg/sg60_3_cif.got.tgz:5622.got - 2010.06.03 14:59:27.
