data_PCOD9455764
_publ_section_title
;
Structure prediction by ZEFSAII (Michael W. Deem and Ramdas Pophale) SiO2 
 PCOD9455764
Probable space group: P B C N
;
_chemical_formula_sum "Si O2"
_cell_formula_units_Z 56
_cell_length_a 22.291022
_cell_length_b 8.568298
_cell_length_c 13.962715
_cell_angle_alpha 90.000000
_cell_angle_beta 90.000000
_cell_angle_gamma 90.000000
_cell_volume 2666.824379
_symmetry_space_group_name_H-M "P B C N"
_symmetry_group_IT_number 60
_symmetry_cell_setting 'orthorhombic'
loop_
_space_group_symop_operation_xyz
x,y,z
1/2-x,1/2-y,1/2+z
1/2+x,1/2-y,-z
-x,y,1/2-z
-x,-y,-z
1/2+x,1/2+y,1/2-z
1/2-x,1/2+y,z
x,-y,1/2+z
loop_
_atom_site_type_symbol
_atom_site_label
_atom_site_fract_x
_atom_site_fract_y
_atom_site_fract_z
Si Si1 0.311995 0.033004 0.111918
Si Si2 0.316869 0.841163 0.397132
Si Si3 0.500000 0.250000 0.750000
Si Si4 0.311995 0.533004 0.888082
Si Si5 0.910574 0.002125 0.758350
Si Si6 0.589426 0.997875 0.741650
Si Si7 0.816869 0.158836 0.397132
Si Si8 0.000000 0.750000 0.250000
O O1 0.313353 0.845248 0.107309
O O2 0.364468 0.078459 0.184315
O O3 0.246152 0.091160 0.141800
O O4 0.322241 0.103513 0.006697
O O5 0.313353 0.654751 0.392691
O O6 0.253848 0.908840 0.358200
O O7 0.370840 0.912003 0.335784
O O8 0.453171 0.374136 0.795239
O O9 0.546829 0.125864 0.795239
O O10 0.364468 0.578459 0.815685
O O11 0.322241 0.603513 0.993303
O O12 0.870840 0.912003 0.835784
O O13 0.954814 0.131712 0.802739
O O14 0.545186 0.868289 0.697261
#
# Coordination Sequence:
#
# PCOD9455764 Si02
#       8
#     8   8   4   8   8   8   8   4
#     4  11  23  40  66  96 126 158 202 257 314 373
#     4  11  23  40  66  96 126 158 202 257 314 373
#     4  10  20  46  60  86 116 172 208 244 298 366
#     4  11  23  40  66  96 126 158 202 257 314 373
#     4  11  23  44  65  86 128 164 206 257 308 356
#     4  11  23  44  65  86 128 164 206 257 308 356
#     4  11  23  40  66  96 126 158 202 257 314 373
#     4  10  28  38  68  90 120 168 220 252 286 378
#
# _framework density 20.998757999999999
#
# number of rings (size 3 to 8) (size 9 to 14) (size 15 to 20)
#    0.000    1.143    2.857    4.286    8.000    0.000 
#    0.000    8.571    0.000    0.000    0.000    0.000 
#    0.000    0.000    0.000    0.000    0.000    0.000 
#
# Total GULP energy -312366.994800 kJ/mol
# GULP energy per Si atom -5577.982050 kJ/mol
# Density = 2.095096 g / cm^3
# Si number density = 20.998758 Si / 1000 Ang^3
#
#
#
# Elastic Constant Matrix: (Units=GPa)
#
#
# Indices 1 2 3 4 5 6 
#
# 1 142.6769 68.5800 34.4331 0.0000 0.0000 0.0000
# 2 68.5800 128.0042 21.7256 0.0000 0.0000 0.0000
# 3 34.4331 21.7256 42.5799 0.0000 0.0000 0.0000
# 4 0.0000 0.0000 0.0000 27.5163 0.0000 0.0000
# 5 0.0000 0.0000 0.0000 0.0000 -20.1980 0.0000
# 6 0.0000 0.0000 0.0000 0.0000 0.0000 24.7586
#
#
#
# Elastic Compliance Matrix: (Units=1/GPa)
#
#
# Indices 1 2 3 4 5 6 
#
# 1 0.010802 -0.004713 -0.006331 0.000000 0.000000 0.000000
# 2 -0.004713 0.010609 -0.001602 0.000000 0.000000 0.000000
# 3 -0.006331 -0.001602 0.029422 0.000000 0.000000 0.000000
# 4 0.000000 0.000000 0.000000 0.036342 0.000000 0.000000
# 5 0.000000 0.000000 0.000000 0.000000 -0.049510 0.000000
# 6 0.000000 0.000000 0.000000 0.000000 0.000000 0.040390
#
#
# Mechanical properties :
#
#
# Convention : Reuss Voigt Hill
#
# Bulk Modulus (GPa) = 39.15078 62.52649 50.83863
# Shear Modulus (GPa) = 44.69873 18.98354 31.84114
#
# Velocity S-wave (km/s) = 4.61872 3.00997 3.89824
# Velocity P-wave (km/s) = 6.86500 6.47463 6.67267
#
# Compressibility (1/GPa) = 0.02554228
#
# Stress axis : x y z
#
# Youngs Moduli (GPa) = 92.57599 94.25872 33.98817
#
# Poissons Ratio (x) = 0.44422 0.21516
# Poissons Ratio (y) = 0.43629 0.05445
# Poissons Ratio (z) = 0.58606 0.15100
#
# Static dielectric constant tensor:
#      x y z
#    x 1.811360 0.000000 0.000000 
#    y 0.000000 1.784540 0.000000 
#    z 0.000000 0.000000 1.722060 
# 
# From -- ./inp_files/17763.got.cif
#   From: 2010.05.17/outbox.cif.g08.bks.cpg/sg60_9_cif.got.tgz:17763.got - 2010.06.03 14:59:27.
