data_PCOD9455001
_publ_section_title
;
Structure prediction by ZEFSAII (Michael W. Deem and Ramdas Pophale) SiO2 
 PCOD9455001
Probable space group: P B C N
;
_chemical_formula_sum "Si O2"
_cell_formula_units_Z 48
_cell_length_a 5.144343
_cell_length_b 21.603582
_cell_length_c 22.689508
_cell_angle_alpha 90.000000
_cell_angle_beta 90.000000
_cell_angle_gamma 90.000000
_cell_volume 2521.626512
_symmetry_space_group_name_H-M "P B C N"
_symmetry_group_IT_number 60
_symmetry_cell_setting 'orthorhombic'
loop_
_space_group_symop_operation_xyz
x,y,z
1/2-x,1/2-y,1/2+z
1/2+x,1/2-y,-z
-x,y,1/2-z
-x,-y,-z
1/2+x,1/2+y,1/2-z
1/2-x,1/2+y,z
x,-y,1/2+z
loop_
_atom_site_type_symbol
_atom_site_label
_atom_site_fract_x
_atom_site_fract_y
_atom_site_fract_z
Si Si1 0.374383 0.709236 0.010781
Si Si2 0.762983 0.829220 0.108786
Si Si3 0.236208 0.408563 0.788353
Si Si4 0.500000 0.972095 0.250000
Si Si5 0.500000 0.761430 0.250000
Si Si6 0.875620 0.806275 0.631480
Si Si7 0.249627 0.637012 0.682005
O O1 0.427385 0.686711 0.077140
O O2 0.147879 0.760696 0.009945
O O3 0.289493 0.660212 0.961014
O O4 0.796023 0.754141 0.114846
O O5 0.485134 0.846544 0.136483
O O6 0.984922 0.861021 0.146722
O O7 0.500000 0.407426 0.750000
O O8 0.152087 0.480365 0.792642
O O9 0.253966 0.371232 0.849166
O O10 0.000000 0.379310 0.750000
O O11 0.312052 0.927439 0.213475
O O12 0.514989 0.718146 0.193545
O O13 0.274349 0.809885 0.232272
#
# Coordination Sequence:
#
# PCOD9455001 Si02
#       7
#     8   8   8   4   4   8   8
#     4  10  20  35  54  81 117 152 181 220 280 350
#     4  10  21  34  56  83 110 145 184 223 286 325
#     4  10  23  36  56  80 115 150 184 225 281 347
#     4   9  24  38  58  80 112 149 200 224 298 319
#     4   9  18  30  50  82 110 131 176 214 294 325
#     4  10  20  34  58  83 121 141 180 228 284 349
#     4  10  21  34  56  78 109 145 181 243 264 334
#
# _framework density 19.035330999999999
#
# number of rings (size 3 to 8) (size 9 to 14) (size 15 to 20)
#    0.500    1.667    0.833    3.000    4.667    7.333 
#    0.000    0.000    0.000    2.000    0.000    0.000 
#    0.000    0.000    0.000    0.000    0.000    0.000 
#
# Total GULP energy -267320.758563 kJ/mol
# GULP energy per Si atom -5569.182470 kJ/mol
# Density = 1.899201 g / cm^3
# Si number density = 19.035331 Si / 1000 Ang^3
#
#
#
# Elastic Constant Matrix: (Units=GPa)
#
#
# Indices 1 2 3 4 5 6 
#
# 1 84.9551 2.7039 28.2242 0.0000 0.0000 0.0000
# 2 2.7039 91.4691 26.5238 0.0000 0.0000 0.0000
# 3 28.2242 26.5238 132.7656 0.0000 0.0000 0.0000
# 4 0.0000 0.0000 0.0000 11.2802 0.0000 0.0000
# 5 0.0000 0.0000 0.0000 0.0000 35.8422 0.0000
# 6 0.0000 0.0000 0.0000 0.0000 0.0000 5.8322
#
#
#
# Elastic Compliance Matrix: (Units=1/GPa)
#
#
# Indices 1 2 3 4 5 6 
#
# 1 0.012682 0.000432 -0.002782 0.000000 0.000000 0.000000
# 2 0.000432 0.011620 -0.002413 0.000000 0.000000 0.000000
# 3 -0.002782 -0.002413 0.008606 0.000000 0.000000 0.000000
# 4 0.000000 0.000000 0.000000 0.088651 0.000000 0.000000
# 5 0.000000 0.000000 0.000000 0.000000 0.027900 0.000000
# 6 0.000000 0.000000 0.000000 0.000000 0.000000 0.171462
#
#
# Mechanical properties :
#
#
# Convention : Reuss Voigt Hill
#
# Bulk Modulus (GPa) = 42.77195 47.12151 44.94673
# Shear Modulus (GPa) = 14.78238 27.37343 21.07791
#
# Velocity S-wave (km/s) = 2.78973 3.79625 3.33123
# Velocity P-wave (km/s) = 5.73545 6.63505 6.20158
#
# Compressibility (1/GPa) = 0.02337981
#
# Stress axis : x y z
#
# Youngs Moduli (GPa) = 78.85502 86.06108 116.20298
#
# Poissons Ratio (x) = -0.03717 0.32330
# Poissons Ratio (y) = -0.03406 0.28042
# Poissons Ratio (z) = 0.21939 0.20768
#
# Static dielectric constant tensor:
#      x y z
#    x 1.719590 0.000000 0.000000 
#    y 0.000000 1.679810 0.000000 
#    z 0.000000 0.000000 1.774570 
# 
# From -- ./inp_files/21706.got.cif
#   From: 2010.05.17/outbox.cif.g08.bks.cpg/sg60_11_cif.got.tgz:21706.got - 2010.06.03 14:59:27.
