data_PCOD9455289
_publ_section_title
;
Structure prediction by ZEFSAII (Michael W. Deem and Ramdas Pophale) SiO2 
 PCOD9455289
Probable space group: P B C N
;
_chemical_formula_sum "Si O2"
_cell_formula_units_Z 48
_cell_length_a 8.739428
_cell_length_b 14.159520
_cell_length_c 16.736021
_cell_angle_alpha 90.000000
_cell_angle_beta 90.000000
_cell_angle_gamma 90.000000
_cell_volume 2071.017421
_symmetry_space_group_name_H-M "P B C N"
_symmetry_group_IT_number 60
_symmetry_cell_setting 'orthorhombic'
loop_
_space_group_symop_operation_xyz
x,y,z
1/2-x,1/2-y,1/2+z
1/2+x,1/2-y,-z
-x,y,1/2-z
-x,-y,-z
1/2+x,1/2+y,1/2-z
1/2-x,1/2+y,z
x,-y,1/2+z
loop_
_atom_site_type_symbol
_atom_site_label
_atom_site_fract_x
_atom_site_fract_y
_atom_site_fract_z
Si Si1 0.104989 0.210663 0.820892
Si Si2 0.332855 0.903957 0.427314
Si Si3 0.842531 0.763569 0.787111
Si Si4 0.612683 0.955515 0.318907
Si Si5 0.162310 0.967924 0.042827
Si Si6 0.656538 0.244905 0.435607
O O1 0.200936 0.130913 0.866639
O O2 0.212071 0.286258 0.776615
O O3 0.000000 0.169051 0.750000
O O4 0.995661 0.263145 0.882826
O O5 0.489242 0.929637 0.385790
O O6 0.352086 0.815825 0.486070
O O7 0.280448 0.990590 0.480122
O O8 0.841605 0.648237 0.785444
O O9 0.796173 0.786146 0.877506
O O10 0.000000 0.797619 0.750000
O O11 0.500000 0.001467 0.250000
O O12 0.763043 0.994849 0.367902
O O13 0.165555 0.855248 0.045483
O O14 0.000000 0.000000 0.000000
#
# Coordination Sequence:
#
# PCOD9455289 Si02
#       6
#     8   8   8   8   8   8
#     4  10  20  37  63  95 127 171 215 260 325 390
#     4  12  23  40  69  95 129 171 215 263 329 388
#     4   9  17  36  63  91 122 170 218 252 320 393
#     4  10  21  40  64  91 129 177 213 260 333 399
#     4  11  24  41  65  99 128 161 222 276 322 387
#     4  10  24  39  65  95 133 166 211 273 322 377
#
# _framework density 23.177015000000001
#
# number of rings (size 3 to 8) (size 9 to 14) (size 15 to 20)
#    0.000    1.667    5.000    0.500    4.667    0.000 
#    0.000    2.500    0.000    6.000    0.000    0.000 
#    0.000    0.000    0.000    0.000    0.000    0.000 
#
# Total GULP energy -267634.047356 kJ/mol
# GULP energy per Si atom -5575.709320 kJ/mol
# Density = 2.312426 g / cm^3
# Si number density = 23.177015 Si / 1000 Ang^3
#
#
#
# Elastic Constant Matrix: (Units=GPa)
#
#
# Indices 1 2 3 4 5 6 
#
# 1 107.9265 36.8414 47.6624 0.0000 0.0000 0.0000
# 2 36.8414 53.5470 42.9667 0.0000 0.0000 0.0000
# 3 47.6624 42.9667 124.2884 0.0000 0.0000 0.0000
# 4 0.0000 0.0000 0.0000 378.9581 0.0000 0.0000
# 5 0.0000 0.0000 0.0000 0.0000 59.2756 0.0000
# 6 0.0000 0.0000 0.0000 0.0000 0.0000 -3.9541
#
#
#
# Elastic Compliance Matrix: (Units=1/GPa)
#
#
# Indices 1 2 3 4 5 6 
#
# 1 0.012669 -0.006668 -0.002553 0.000000 0.000000 0.000000
# 2 -0.006668 0.029354 -0.007591 0.000000 0.000000 0.000000
# 3 -0.002553 -0.007591 0.011649 0.000000 0.000000 0.000000
# 4 0.000000 0.000000 0.000000 0.002639 0.000000 0.000000
# 5 0.000000 0.000000 0.000000 0.000000 0.016870 0.000000
# 6 0.000000 0.000000 0.000000 0.000000 0.000000 -0.252899
#
#
# Mechanical properties :
#
#
# Convention : Reuss Voigt Hill
#
# Bulk Modulus (GPa) = 49.87953 60.07811 54.97882
# Shear Modulus (GPa) = -35.86503 97.40867 30.77182
#
# Velocity S-wave (km/s) = -3.93802 6.48994 3.64770
# Velocity P-wave (km/s) = 0.94368 9.06294 6.44311
#
# Compressibility (1/GPa) = 0.02004830
#
# Stress axis : x y z
#
# Youngs Moduli (GPa) = 78.93094 34.06737 85.84402
#
# Poissons Ratio (x) = 0.22716 0.21919
# Poissons Ratio (y) = 0.52630 0.65160
# Poissons Ratio (z) = 0.20154 0.25859
#
# Static dielectric constant tensor:
#      x y z
#    x 1.949420 0.000000 0.000000 
#    y 0.000000 1.931860 0.000000 
#    z 0.000000 0.000000 1.963720 
# 
# From -- ./inp_files/15008.got.cif
#   From: 2010.05.17/outbox.cif.g08.bks.cpg/sg60_8_cif.got.tgz:15008.got - 2010.06.03 14:59:27.
