data_PCOD9455761
_publ_section_title
;
Structure prediction by ZEFSAII (Michael W. Deem and Ramdas Pophale) SiO2 
 PCOD9455761
Probable space group: P B C N
;
_chemical_formula_sum "Si O2"
_cell_formula_units_Z 60
_cell_length_a 11.044147
_cell_length_b 23.100551
_cell_length_c 11.588475
_cell_angle_alpha 90.000000
_cell_angle_beta 90.000000
_cell_angle_gamma 90.000000
_cell_volume 2956.519894
_symmetry_space_group_name_H-M "P B C N"
_symmetry_group_IT_number 60
_symmetry_cell_setting 'orthorhombic'
loop_
_space_group_symop_operation_xyz
x,y,z
1/2-x,1/2-y,1/2+z
1/2+x,1/2-y,-z
-x,y,1/2-z
-x,-y,-z
1/2+x,1/2+y,1/2-z
1/2-x,1/2+y,z
x,-y,1/2+z
loop_
_atom_site_type_symbol
_atom_site_label
_atom_site_fract_x
_atom_site_fract_y
_atom_site_fract_z
Si Si1 0.646935 0.673718 0.944643
Si Si2 0.769016 0.415994 0.962337
Si Si3 0.160293 0.986388 0.352924
Si Si4 0.500000 0.609420 0.750000
Si Si5 0.131116 0.692011 0.113615
Si Si6 0.356002 0.851489 0.869976
Si Si7 0.371759 0.971197 0.744136
Si Si8 0.499586 0.601143 0.381251
O O1 0.601443 0.644051 0.823671
O O2 0.647206 0.741485 0.917997
O O3 0.768606 0.658479 0.019552
O O4 0.545633 0.650531 0.033631
O O5 0.799991 0.348803 0.978791
O O6 0.870809 0.436207 0.874374
O O7 0.634882 0.417201 0.909955
O O8 0.762002 0.462816 0.061411
O O9 0.067044 0.934505 0.336562
O O10 0.244741 0.995508 0.241778
O O11 0.087976 0.044385 0.385479
O O12 0.180275 0.677147 0.244301
O O13 0.989114 0.675010 0.110136
O O14 0.360031 0.920152 0.839821
O O15 0.500000 0.002881 0.750000
O O16 0.500000 0.621880 0.250000
#
# Coordination Sequence:
#
# PCOD9455761 Si02
#       8
#     8   8   8   4   8   8   8   8
#     4  12  26  41  75 100 138 187 231 292 360 410
#     4  11  22  39  66  92 132 174 226 287 343 408
#     4  12  24  39  65  99 142 174 227 296 349 418
#     4  12  26  44  62 108 138 174 228 296 360 400
#     4  10  23  44  68  96 134 177 239 289 335 429
#     4  10  20  45  68  92 132 184 232 278 350 425
#     4  11  21  41  64  93 128 184 230 273 346 433
#     4  12  22  40  67 101 134 183 235 279 353 427
#
# _framework density 20.294129999999999
#
# number of rings (size 3 to 8) (size 9 to 14) (size 15 to 20)
#    0.000    0.800    7.333    2.000    3.733    1.600 
#    2.400    0.000    0.000    0.000    0.000    0.000 
#    0.000    0.000    0.000    0.000    0.000    0.000 
#
# Total GULP energy -334124.189047 kJ/mol
# GULP energy per Si atom -5568.736484 kJ/mol
# Density = 2.024794 g / cm^3
# Si number density = 20.294130 Si / 1000 Ang^3
#
#
#
# Elastic Constant Matrix: (Units=GPa)
#
#
# Indices 1 2 3 4 5 6 
#
# 1 83.8242 19.7272 10.8654 0.0000 0.0000 0.0000
# 2 19.7272 62.2617 11.8381 0.0000 0.0000 0.0000
# 3 10.8654 11.8381 60.3255 0.0000 0.0000 0.0000
# 4 0.0000 0.0000 0.0000 33.8153 0.0000 0.0000
# 5 0.0000 0.0000 0.0000 0.0000 18.9736 0.0000
# 6 0.0000 0.0000 0.0000 0.0000 0.0000 16.9393
#
#
#
# Elastic Compliance Matrix: (Units=1/GPa)
#
#
# Indices 1 2 3 4 5 6 
#
# 1 0.013037 -0.003827 -0.001597 0.000000 0.000000 0.000000
# 2 -0.003827 0.017807 -0.002805 0.000000 0.000000 0.000000
# 3 -0.001597 -0.002805 0.017415 0.000000 0.000000 0.000000
# 4 0.000000 0.000000 0.000000 0.029572 0.000000 0.000000
# 5 0.000000 0.000000 0.000000 0.000000 0.052705 0.000000
# 6 0.000000 0.000000 0.000000 0.000000 0.000000 0.059034
#
#
# Mechanical properties :
#
#
# Convention : Reuss Voigt Hill
#
# Bulk Modulus (GPa) = 31.44594 32.36366 31.90480
# Shear Modulus (GPa) = 23.08080 24.87767 23.97923
#
# Velocity S-wave (km/s) = 3.37607 3.50502 3.44115
# Velocity P-wave (km/s) = 5.54309 5.68877 5.61640
#
# Compressibility (1/GPa) = 0.03180061
#
# Stress axis : x y z
#
# Youngs Moduli (GPa) = 76.70216 56.15704 57.42213
#
# Poissons Ratio (x) = 0.21492 0.09171
# Poissons Ratio (y) = 0.29355 0.16108
# Poissons Ratio (z) = 0.12251 0.15753
#
# Static dielectric constant tensor:
#      x y z
#    x 1.732710 0.000000 0.000000 
#    y 0.000000 1.747730 0.000000 
#    z 0.000000 0.000000 1.974970 
# 
# From -- ./inp_files/11263.got.cif
#   From: 2010.05.17/outbox.cif.g08.bks.cpg/sg60_6_cif.got.tgz:11263.got - 2010.06.03 14:59:27.
