data_PCOD9455841
_publ_section_title
;
Structure prediction by ZEFSAII (Michael W. Deem and Ramdas Pophale) SiO2 
 PCOD9455841
Probable space group: P B C N
;
_chemical_formula_sum "Si O2"
_cell_formula_units_Z 60
_cell_length_a 16.899481
_cell_length_b 21.799725
_cell_length_c 9.148624
_cell_angle_alpha 90.000000
_cell_angle_beta 90.000000
_cell_angle_gamma 90.000000
_cell_volume 3370.390028
_symmetry_space_group_name_H-M "P B C N"
_symmetry_group_IT_number 60
_symmetry_cell_setting 'orthorhombic'
loop_
_space_group_symop_operation_xyz
x,y,z
1/2-x,1/2-y,1/2+z
1/2+x,1/2-y,-z
-x,y,1/2-z
-x,-y,-z
1/2+x,1/2+y,1/2-z
1/2-x,1/2+y,z
x,-y,1/2+z
loop_
_atom_site_type_symbol
_atom_site_label
_atom_site_fract_x
_atom_site_fract_y
_atom_site_fract_z
Si Si1 0.000000 0.999344 0.250000
Si Si2 0.043271 0.744584 0.100609
Si Si3 0.283109 0.756867 0.261073
Si Si4 0.324894 0.593338 0.973852
Si Si5 0.566077 0.691999 0.363021
Si Si6 0.307576 0.823007 0.556678
Si Si7 0.608673 0.541055 0.007296
Si Si8 0.328122 0.647455 0.651374
O O1 0.063760 0.038707 0.339013
O O2 0.956894 0.960124 0.376822
O O3 0.099012 0.688115 0.051335
O O4 0.103239 0.801645 0.132399
O O5 0.000000 0.729085 0.250000
O O6 0.979808 0.767975 0.983790
O O7 0.369998 0.733714 0.221887
O O8 0.275256 0.777704 0.428063
O O9 0.224616 0.702766 0.210344
O O10 0.253510 0.815660 0.168775
O O11 0.385993 0.637096 0.060607
O O12 0.236729 0.613803 0.022112
O O13 0.344527 0.522883 0.002248
O O14 0.336493 0.610208 0.803311
O O15 0.500000 0.670214 0.250000
O O16 0.662466 0.599844 0.979962
#
# Coordination Sequence:
#
# PCOD9455841 Si02
#       8
#     4   8   8   8   8   8   8   8
#     4  10  24  32  48  68 112 126 178 220 236 290
#     4  11  21  33  55  78 107 138 168 209 270 318
#     4   9  19  36  51  72 102 136 173 218 255 313
#     4  10  21  36  53  70 106 142 175 212 252 303
#     4  11  21  33  53  81 105 129 175 216 259 310
#     4   9  19  36  51  73 101 137 174 213 259 308
#     4  11  22  37  49  74 100 146 181 207 255 301
#     4  10  21  37  53  69 105 147 174 204 262 309
#
# _framework density 17.802094
#
# number of rings (size 3 to 8) (size 9 to 14) (size 15 to 20)
#    0.000    1.867    4.000    0.000    7.467    0.000 
#    2.400    0.000    0.000    0.000    0.000    1.867 
#    0.000    0.000    0.000    0.000    0.000    0.000 
#
# Total GULP energy -334854.074597 kJ/mol
# GULP energy per Si atom -5580.901243 kJ/mol
# Density = 1.776158 g / cm^3
# Si number density = 17.802094 Si / 1000 Ang^3
#
#
#
# Elastic Constant Matrix: (Units=GPa)
#
#
# Indices 1 2 3 4 5 6 
#
# 1 55.7242 36.7580 2.0017 0.0000 0.0000 0.0000
# 2 36.7580 62.5002 6.1117 0.0000 0.0000 0.0000
# 3 2.0017 6.1117 48.5640 0.0000 0.0000 0.0000
# 4 0.0000 0.0000 0.0000 18.2662 0.0000 0.0000
# 5 0.0000 0.0000 0.0000 0.0000 26.1552 0.0000
# 6 0.0000 0.0000 0.0000 0.0000 0.0000 13.9651
#
#
#
# Elastic Compliance Matrix: (Units=1/GPa)
#
#
# Indices 1 2 3 4 5 6 
#
# 1 0.029366 -0.017366 0.000975 0.000000 0.000000 0.000000
# 2 -0.017366 0.026469 -0.002615 0.000000 0.000000 0.000000
# 3 0.000975 -0.002615 0.020880 0.000000 0.000000 0.000000
# 4 0.000000 0.000000 0.000000 0.054746 0.000000 0.000000
# 5 0.000000 0.000000 0.000000 0.000000 0.038233 0.000000
# 6 0.000000 0.000000 0.000000 0.000000 0.000000 0.071607
#
#
# Mechanical properties :
#
#
# Convention : Reuss Voigt Hill
#
# Bulk Modulus (GPa) = 25.83803 28.50346 27.17074
# Shear Modulus (GPa) = 17.11067 19.80511 18.45789
#
# Velocity S-wave (km/s) = 3.10362 3.33906 3.22349
# Velocity P-wave (km/s) = 5.23343 5.55984 5.39910
#
# Compressibility (1/GPa) = 0.03870265
#
# Stress axis : x y z
#
# Youngs Moduli (GPa) = 34.05304 37.77970 47.89197
#
# Poissons Ratio (x) = 0.65609 -0.04670
# Poissons Ratio (y) = 0.59137 0.12525
# Poissons Ratio (z) = -0.03321 0.09881
#
# Static dielectric constant tensor:
#      x y z
#    x 1.633170 0.000000 0.000000 
#    y 0.000000 1.606530 0.000000 
#    z 0.000000 0.000000 1.653560 
# 
# From -- ./inp_files/6273.got.cif
#   From: 2010.05.17/outbox.cif.g08.bks.cpg/sg60_4_cif.got.tgz:6273.got - 2010.06.03 14:59:27.
