data_PCOD9455020
_publ_section_title
;
Structure prediction by ZEFSAII (Michael W. Deem and Ramdas Pophale) SiO2 
 PCOD9455020
Probable space group: P B C N
;
_chemical_formula_sum "Si O2"
_cell_formula_units_Z 64
_cell_length_a 16.734472
_cell_length_b 19.570543
_cell_length_c 8.869490
_cell_angle_alpha 90.000000
_cell_angle_beta 90.000000
_cell_angle_gamma 90.000000
_cell_volume 2904.781957
_symmetry_space_group_name_H-M "P B C N"
_symmetry_group_IT_number 60
_symmetry_cell_setting 'orthorhombic'
loop_
_space_group_symop_operation_xyz
x,y,z
1/2-x,1/2-y,1/2+z
1/2+x,1/2-y,-z
-x,y,1/2-z
-x,-y,-z
1/2+x,1/2+y,1/2-z
1/2-x,1/2+y,z
x,-y,1/2+z
loop_
_atom_site_type_symbol
_atom_site_label
_atom_site_fract_x
_atom_site_fract_y
_atom_site_fract_z
Si Si1 0.288274 0.164278 0.016141
Si Si2 0.626835 0.595675 0.494910
Si Si3 0.663709 0.489493 0.263349
Si Si4 0.752691 0.791958 0.665848
Si Si5 0.938676 0.478949 0.632620
Si Si6 0.093645 0.374781 0.265491
Si Si7 0.269296 0.928666 0.978093
Si Si8 0.585961 0.728078 0.329447
O O1 0.224108 0.103690 0.023348
O O2 0.243747 0.219343 0.910871
O O3 0.367589 0.146176 0.925710
O O4 0.298692 0.193125 0.184084
O O5 0.609273 0.538107 0.368648
O O6 0.615581 0.564199 0.660019
O O7 0.588314 0.669657 0.459187
O O8 0.714398 0.536119 0.148767
O O9 0.729441 0.450821 0.365637
O O10 0.740523 0.848743 0.542515
O O11 0.844031 0.798375 0.720557
O O12 0.897635 0.542519 0.723962
O O13 0.862407 0.443220 0.556654
O O14 0.000000 0.442524 0.750000
O O15 0.000000 0.500000 0.500000
O O16 0.111641 0.308808 0.156003
O O17 0.000000 0.373184 0.250000
O O18 0.500000 0.726564 0.250000
#
# Coordination Sequence:
#
# PCOD9455020 Si02
#       8
#     8   8   8   8   8   8   8   8
#     4  10  20  37  59  89 125 158 226 268 316 384
#     4  10  20  37  59  91 123 155 210 262 324 386
#     4  10  20  34  62  87 117 158 205 263 325 391
#     4  10  22  37  61  92 118 165 213 275 326 385
#     4  11  24  38  57  91 131 178 225 261 322 394
#     4   9  19  37  62  89 123 178 217 258 325 394
#     4  11  21  39  60  87 127 166 211 272 323 384
#     4   9  18  39  65  88 122 163 212 265 329 397
#
# _framework density 22.032634000000002
#
# number of rings (size 3 to 8) (size 9 to 14) (size 15 to 20)
#    0.000    2.000    2.500    2.250    3.500    1.000 
#   15.750    0.625    0.000    0.000    3.250    0.000 
#    0.000    0.000    0.000    0.000    0.000    0.000 
#
# Total GULP energy -356276.585784 kJ/mol
# GULP energy per Si atom -5566.821653 kJ/mol
# Density = 2.198249 g / cm^3
# Si number density = 22.032634 Si / 1000 Ang^3
#
#
#
# Elastic Constant Matrix: (Units=GPa)
#
#
# Indices 1 2 3 4 5 6 
#
# 1 36.2658 12.5604 -8.3841 0.0000 0.0000 0.0000
# 2 12.5604 85.0387 24.2977 0.0000 0.0000 0.0000
# 3 -8.3841 24.2977 77.8270 0.0000 0.0000 0.0000
# 4 0.0000 0.0000 0.0000 52.4195 0.0000 0.0000
# 5 0.0000 0.0000 0.0000 0.0000 31.1636 0.0000
# 6 0.0000 0.0000 0.0000 0.0000 0.0000 17.8472
#
#
#
# Elastic Compliance Matrix: (Units=1/GPa)
#
#
# Indices 1 2 3 4 5 6 
#
# 1 0.030875 -0.006050 0.005215 0.000000 0.000000 0.000000
# 2 -0.006050 0.014097 -0.005053 0.000000 0.000000 0.000000
# 3 0.005215 -0.005053 0.014988 0.000000 0.000000 0.000000
# 4 0.000000 0.000000 0.000000 0.019077 0.000000 0.000000
# 5 0.000000 0.000000 0.000000 0.000000 0.032089 0.000000
# 6 0.000000 0.000000 0.000000 0.000000 0.000000 0.056031
#
#
# Mechanical properties :
#
#
# Convention : Reuss Voigt Hill
#
# Bulk Modulus (GPa) = 20.75377 28.45328 24.60353
# Shear Modulus (GPa) = 25.64172 31.66324 28.65248
#
# Velocity S-wave (km/s) = 3.41516 3.79503 3.61010
# Velocity P-wave (km/s) = 4.99911 5.66967 5.34492
#
# Compressibility (1/GPa) = 0.04818401
#
# Stress axis : x y z
#
# Youngs Moduli (GPa) = 32.38833 70.93845 66.71865
#
# Poissons Ratio (x) = 0.42921 -0.34794
# Poissons Ratio (y) = 0.19596 0.33712
# Poissons Ratio (z) = -0.16891 0.35844
#
# Static dielectric constant tensor:
#      x y z
#    x 1.784950 0.000000 0.000000 
#    y 0.000000 1.896610 0.000000 
#    z 0.000000 0.000000 1.880740 
# 
# From -- ./inp_files/7012.got.cif
#   From: 2010.05.17/outbox.cif.g08.bks.cpg/sg60_4_cif.got.tgz:7012.got - 2010.06.03 14:59:27.
