data_PCOD9455339
_publ_section_title
;
Structure prediction by ZEFSAII (Michael W. Deem and Ramdas Pophale) SiO2 
 PCOD9455339
Probable space group: P B C N
;
_chemical_formula_sum "Si O2"
_cell_formula_units_Z 40
_cell_length_a 13.360066
_cell_length_b 9.053381
_cell_length_c 17.540311
_cell_angle_alpha 90.000000
_cell_angle_beta 90.000000
_cell_angle_gamma 90.000000
_cell_volume 2121.566702
_symmetry_space_group_name_H-M "P B C N"
_symmetry_group_IT_number 60
_symmetry_cell_setting 'orthorhombic'
loop_
_space_group_symop_operation_xyz
x,y,z
1/2-x,1/2-y,1/2+z
1/2+x,1/2-y,-z
-x,y,1/2-z
-x,-y,-z
1/2+x,1/2+y,1/2-z
1/2-x,1/2+y,z
x,-y,1/2+z
loop_
_atom_site_type_symbol
_atom_site_label
_atom_site_fract_x
_atom_site_fract_y
_atom_site_fract_z
Si Si1 0.250218 0.055775 0.876896
Si Si2 0.433872 0.211121 0.643798
Si Si3 0.647240 0.314528 0.703960
Si Si4 0.469163 0.935623 0.917665
Si Si5 0.573885 0.635347 0.516462
O O1 0.282078 0.215287 0.848256
O O2 0.174491 0.070960 0.946885
O O3 0.190433 0.976033 0.808714
O O4 0.354234 0.976532 0.898858
O O5 0.536853 0.293300 0.668442
O O6 0.357752 0.252012 0.710771
O O7 0.404427 0.276517 0.561944
O O8 0.462244 0.036659 0.638238
O O9 0.474139 0.758586 0.926345
O O10 0.500000 0.000000 0.000000
O O11 0.500000 0.500000 0.500000
#
# Coordination Sequence:
#
# PCOD9455339 Si02
#       5
#     8   8   8   8   8
#     4  11  20  37  62  87 121 162 203 249 307 368
#     4   9  20  39  59  83 124 161 198 253 310 365
#     4  10  20  38  60  83 122 163 200 250 312 362
#     4   9  20  37  60  87 117 156 199 254 311 361
#     4  11  20  36  64  96 118 158 207 256 302 368
#
# _framework density 18.853991000000001
#
# number of rings (size 3 to 8) (size 9 to 14) (size 15 to 20)
#    0.000    2.000    4.000    0.000    0.000    0.000 
#    7.200    2.000    4.400    0.000    0.000    0.000 
#    0.000    0.000    0.000    0.000    0.000    0.000 
#
# Total GULP energy -222833.646279 kJ/mol
# GULP energy per Si atom -5570.841157 kJ/mol
# Density = 1.881108 g / cm^3
# Si number density = 18.853991 Si / 1000 Ang^3
#
#
#
# Elastic Constant Matrix: (Units=GPa)
#
#
# Indices 1 2 3 4 5 6 
#
# 1 52.5201 22.1278 30.3040 0.0000 0.0000 0.0000
# 2 22.1278 68.8062 6.7733 0.0000 0.0000 0.0000
# 3 30.3040 6.7733 82.4188 0.0000 0.0000 0.0000
# 4 0.0000 0.0000 0.0000 31.7182 0.0000 0.0000
# 5 0.0000 0.0000 0.0000 0.0000 32.4499 0.0000
# 6 0.0000 0.0000 0.0000 0.0000 0.0000 14.2540
#
#
#
# Elastic Compliance Matrix: (Units=1/GPa)
#
#
# Indices 1 2 3 4 5 6 
#
# 1 0.027990 -0.008053 -0.009629 0.000000 0.000000 0.000000
# 2 -0.008053 0.016969 0.001567 0.000000 0.000000 0.000000
# 3 -0.009629 0.001567 0.015545 0.000000 0.000000 0.000000
# 4 0.000000 0.000000 0.000000 0.031528 0.000000 0.000000
# 5 0.000000 0.000000 0.000000 0.000000 0.030817 0.000000
# 6 0.000000 0.000000 0.000000 0.000000 0.000000 0.070156
#
#
# Mechanical properties :
#
#
# Convention : Reuss Voigt Hill
#
# Bulk Modulus (GPa) = 35.37164 35.79503 35.58333
# Shear Modulus (GPa) = 21.30738 25.32041 23.31389
#
# Velocity S-wave (km/s) = 3.36538 3.66864 3.52028
# Velocity P-wave (km/s) = 5.82259 6.08044 5.95291
#
# Compressibility (1/GPa) = 0.02827124
#
# Stress axis : x y z
#
# Youngs Moduli (GPa) = 35.72761 58.92995 64.32945
#
# Poissons Ratio (x) = 0.47459 0.61946
# Poissons Ratio (y) = 0.28773 -0.10077
# Poissons Ratio (z) = 0.34404 -0.09232
#
# Static dielectric constant tensor:
#      x y z
#    x 1.618210 0.000000 0.000000 
#    y 0.000000 1.676810 0.000000 
#    z 0.000000 0.000000 1.670920 
# 
# From -- ./inp_files/19839.got.cif
#   From: 2010.05.17/outbox.cif.g08.bks.cpg/sg60_10_cif.got.tgz:19839.got - 2010.06.03 14:59:27.
