data_PCOD9455779
_publ_section_title
;
Structure prediction by ZEFSAII (Michael W. Deem and Ramdas Pophale) SiO2 
 PCOD9455779
Probable space group: P B C N
;
_chemical_formula_sum "Si O2"
_cell_formula_units_Z 64
_cell_length_a 12.327460
_cell_length_b 33.538850
_cell_length_c 9.107923
_cell_angle_alpha 90.000000
_cell_angle_beta 90.000000
_cell_angle_gamma 90.000000
_cell_volume 3765.660125
_symmetry_space_group_name_H-M "P B C N"
_symmetry_group_IT_number 60
_symmetry_cell_setting 'orthorhombic'
loop_
_space_group_symop_operation_xyz
x,y,z
1/2-x,1/2-y,1/2+z
1/2+x,1/2-y,-z
-x,y,1/2-z
-x,-y,-z
1/2+x,1/2+y,1/2-z
1/2-x,1/2+y,z
x,-y,1/2+z
loop_
_atom_site_type_symbol
_atom_site_label
_atom_site_fract_x
_atom_site_fract_y
_atom_site_fract_z
Si Si1 0.239884 0.180496 0.499705
Si Si2 0.629453 0.456036 0.106322
Si Si3 0.053296 0.723561 0.389009
Si Si4 0.308374 0.698154 0.826275
Si Si5 0.894726 0.871774 0.962769
Si Si6 0.861942 0.889148 0.618928
Si Si7 0.599455 0.748414 0.136318
Si Si8 0.129674 0.967709 0.063843
O O1 0.359016 0.199114 0.482567
O O2 0.189880 0.180972 0.662304
O O3 0.236943 0.135783 0.444408
O O4 0.164681 0.207590 0.392171
O O5 0.672600 0.459337 0.272294
O O6 0.500255 0.465891 0.094571
O O7 0.641056 0.411050 0.051366
O O8 0.672568 0.490353 0.997934
O O9 0.114118 0.763590 0.337186
O O10 0.000000 0.701827 0.250000
O O11 0.955995 0.738191 0.487726
O O12 0.188070 0.717370 0.833962
O O13 0.344294 0.666717 0.953351
O O14 0.865270 0.880614 0.792639
O O15 0.026521 0.871586 0.953782
O O16 0.854223 0.934317 0.562056
O O17 0.500000 0.743690 0.250000
#
# Coordination Sequence:
#
# PCOD9455779 Si02
#       8
#     8   8   8   8   8   8   8   8
#     4  11  23  35  54  74 100 131 173 211 257 308
#     4   9  16  28  46  67  97 135 167 204 243 302
#     4  11  23  38  54  74  98 134 169 214 260 308
#     4  11  23  36  52  76  98 133 172 212 257 309
#     4  10  21  32  48  72 105 134 171 210 254 296
#     4  10  21  32  47  74 102 136 169 213 250 299
#     4  11  23  38  54  71 100 132 169 212 261 306
#     4   9  16  28  46  67  98 133 171 200 248 297
#
# _framework density 16.995691000000001
#
# number of rings (size 3 to 8) (size 9 to 14) (size 15 to 20)
#    0.000    1.750    2.500    2.250    5.250    4.000 
#    0.000    0.000    0.000    0.000    0.000    0.000 
#    0.000    2.000    0.000    0.125    0.000    0.125 
#
# Total GULP energy -356410.948839 kJ/mol
# GULP energy per Si atom -5568.921076 kJ/mol
# Density = 1.695701 g / cm^3
# Si number density = 16.995691 Si / 1000 Ang^3
#
#
#
# Elastic Constant Matrix: (Units=GPa)
#
#
# Indices 1 2 3 4 5 6 
#
# 1 34.7279 16.9024 12.1967 0.0000 0.0000 0.0000
# 2 16.9024 57.6962 26.1841 0.0000 0.0000 0.0000
# 3 12.1967 26.1841 102.9355 0.0000 0.0000 0.0000
# 4 0.0000 0.0000 0.0000 25.3750 0.0000 0.0000
# 5 0.0000 0.0000 0.0000 0.0000 21.6071 0.0000
# 6 0.0000 0.0000 0.0000 0.0000 0.0000 10.1915
#
#
#
# Elastic Compliance Matrix: (Units=1/GPa)
#
#
# Indices 1 2 3 4 5 6 
#
# 1 0.033840 -0.009150 -0.001682 0.000000 0.000000 0.000000
# 2 -0.009150 0.022068 -0.004529 0.000000 0.000000 0.000000
# 3 -0.001682 -0.004529 0.011066 0.000000 0.000000 0.000000
# 4 0.000000 0.000000 0.000000 0.039409 0.000000 0.000000
# 5 0.000000 0.000000 0.000000 0.000000 0.046281 0.000000
# 6 0.000000 0.000000 0.000000 0.000000 0.000000 0.098121
#
#
# Mechanical properties :
#
#
# Convention : Reuss Voigt Hill
#
# Bulk Modulus (GPa) = 27.58547 33.99178 30.78863
# Shear Modulus (GPa) = 17.03045 20.77315 18.90180
#
# Velocity S-wave (km/s) = 3.16894 3.49988 3.33851
# Velocity P-wave (km/s) = 5.44571 6.03124 5.74594
#
# Compressibility (1/GPa) = 0.03625097
#
# Stress axis : x y z
#
# Youngs Moduli (GPa) = 29.55124 45.31385 90.36454
#
# Poissons Ratio (x) = 0.41463 0.15200
# Poissons Ratio (y) = 0.27040 0.40930
# Poissons Ratio (z) = 0.04971 0.20525
#
# Static dielectric constant tensor:
#      x y z
#    x 1.605720 0.000000 0.000000 
#    y 0.000000 1.585340 0.000000 
#    z 0.000000 0.000000 1.640680 
# 
# From -- ./inp_files/5339.got.cif
#   From: 2010.05.17/outbox.cif.g08.bks.cpg/sg60_3_cif.got.tgz:5339.got - 2010.06.03 14:59:27.
