data_PCOD9455698
_publ_section_title
;
Structure prediction by ZEFSAII (Michael W. Deem and Ramdas Pophale) SiO2 
 PCOD9455698
Probable space group: P B C N
;
_chemical_formula_sum "Si O2"
_cell_formula_units_Z 40
_cell_length_a 5.396934
_cell_length_b 18.504324
_cell_length_c 17.397775
_cell_angle_alpha 90.000000
_cell_angle_beta 90.000000
_cell_angle_gamma 90.000000
_cell_volume 1737.456904
_symmetry_space_group_name_H-M "P B C N"
_symmetry_group_IT_number 60
_symmetry_cell_setting 'orthorhombic'
loop_
_space_group_symop_operation_xyz
x,y,z
1/2-x,1/2-y,1/2+z
1/2+x,1/2-y,-z
-x,y,1/2-z
-x,-y,-z
1/2+x,1/2+y,1/2-z
1/2-x,1/2+y,z
x,-y,1/2+z
loop_
_atom_site_type_symbol
_atom_site_label
_atom_site_fract_x
_atom_site_fract_y
_atom_site_fract_z
Si Si1 0.833356 0.489940 0.814155
Si Si2 0.556302 0.588568 0.914666
Si Si3 0.235053 0.547943 0.432531
Si Si4 0.906138 0.150681 0.326464
Si Si5 0.636566 0.253243 0.449116
O O1 0.638311 0.549000 0.838070
O O2 0.733417 0.414749 0.783232
O O3 0.000000 0.524406 0.750000
O O4 0.981553 0.462437 0.888399
O O5 0.337565 0.534601 0.939618
O O6 0.534773 0.673540 0.909436
O O7 0.758797 0.577944 0.982066
O O8 0.406568 0.604572 0.382966
O O9 0.731983 0.197179 0.383748
O O10 0.000000 0.193688 0.250000
O O11 0.392211 0.233170 0.500841
#
# Coordination Sequence:
#
# PCOD9455698 Si02
#       5
#     8   8   8   8   8
#     4  11  22  38  70  96 135 175 235 293 351 415
#     4  10  23  38  67  98 131 179 227 292 343 412
#     4  10  20  42  65  99 127 175 234 285 345 411
#     4  11  23  41  69  99 135 185 234 291 355 427
#     4  12  27  46  70 102 145 189 233 289 353 431
#
# _framework density 23.022155000000001
#
# number of rings (size 3 to 8) (size 9 to 14) (size 15 to 20)
#    0.000    1.200    4.000    1.800    2.800    0.800 
#    0.000    0.000    8.800    0.000    0.000    0.000 
#    0.000    0.000    0.000    0.000    0.000    0.000 
#
# Total GULP energy -222740.511962 kJ/mol
# GULP energy per Si atom -5568.512799 kJ/mol
# Density = 2.296976 g / cm^3
# Si number density = 23.022155 Si / 1000 Ang^3
#
#
#
# Elastic Constant Matrix: (Units=GPa)
#
#
# Indices 1 2 3 4 5 6 
#
# 1 59.8940 16.2975 4.0868 0.0000 0.0000 0.0000
# 2 16.2975 148.3725 17.0865 0.0000 0.0000 0.0000
# 3 4.0868 17.0865 71.4059 0.0000 0.0000 0.0000
# 4 0.0000 0.0000 0.0000 -7.6430 0.0000 0.0000
# 5 0.0000 0.0000 0.0000 0.0000 41.6532 0.0000
# 6 0.0000 0.0000 0.0000 0.0000 0.0000 9.1768
#
#
#
# Elastic Compliance Matrix: (Units=1/GPa)
#
#
# Indices 1 2 3 4 5 6 
#
# 1 0.017231 -0.001830 -0.000548 0.000000 0.000000 0.000000
# 2 -0.001830 0.007125 -0.001600 0.000000 0.000000 0.000000
# 3 -0.000548 -0.001600 0.014419 0.000000 0.000000 0.000000
# 4 0.000000 0.000000 0.000000 -0.130839 0.000000 0.000000
# 5 0.000000 0.000000 0.000000 0.000000 0.024008 0.000000
# 6 0.000000 0.000000 0.000000 0.000000 0.000000 0.108971
#
#
# Mechanical properties :
#
#
# Convention : Reuss Voigt Hill
#
# Bulk Modulus (GPa) = 32.44773 39.40155 35.92464
# Shear Modulus (GPa) = 84.53957 24.78418 54.66187
#
# Velocity S-wave (km/s) = 6.06636 3.28462 4.87798
# Velocity P-wave (km/s) = 7.94936 5.61576 6.88219
#
# Compressibility (1/GPa) = 0.03081880
#
# Stress axis : x y z
#
# Youngs Moduli (GPa) = 58.03351 140.35013 69.35421
#
# Poissons Ratio (x) = 0.25678 0.03803
# Poissons Ratio (y) = 0.10618 0.11098
# Poissons Ratio (z) = 0.03183 0.22459
#
# Static dielectric constant tensor:
#      x y z
#    x 1.969630 0.000000 0.000000 
#    y 0.000000 1.857270 0.000000 
#    z 0.000000 0.000000 1.887490 
# 
# From -- ./inp_files/18503.got.cif
#   From: 2010.05.17/outbox.cif.g08.bks.cpg/sg60_10_cif.got.tgz:18503.got - 2010.06.03 14:59:27.
