data_PCOD9455054
_publ_section_title
;
Structure prediction by ZEFSAII (Michael W. Deem and Ramdas Pophale) SiO2 
 PCOD9455054
Probable space group: P B C N
;
_chemical_formula_sum "Si O2"
_cell_formula_units_Z 44
_cell_length_a 22.260204
_cell_length_b 11.877693
_cell_length_c 8.580534
_cell_angle_alpha 90.000000
_cell_angle_beta 90.000000
_cell_angle_gamma 90.000000
_cell_volume 2268.692068
_symmetry_space_group_name_H-M "P B C N"
_symmetry_group_IT_number 60
_symmetry_cell_setting 'orthorhombic'
loop_
_space_group_symop_operation_xyz
x,y,z
1/2-x,1/2-y,1/2+z
1/2+x,1/2-y,-z
-x,y,1/2-z
-x,-y,-z
1/2+x,1/2+y,1/2-z
1/2-x,1/2+y,z
x,-y,1/2+z
loop_
_atom_site_type_symbol
_atom_site_label
_atom_site_fract_x
_atom_site_fract_y
_atom_site_fract_z
Si Si1 0.500000 0.499901 0.750000
Si Si2 0.445846 0.353644 0.485910
Si Si3 0.327238 0.885457 0.163278
Si Si4 0.250312 0.994648 0.913661
Si Si5 0.465940 0.103647 0.585373
Si Si6 0.679882 0.628327 0.340138
O O1 0.489933 0.416434 0.606134
O O2 0.549617 0.586906 0.682298
O O3 0.462681 0.221435 0.488736
O O4 0.382712 0.379629 0.568454
O O5 0.301490 0.962033 0.298986
O O6 0.395340 0.918590 0.120510
O O7 0.320983 0.756696 0.214132
O O8 0.282027 0.900338 0.018296
O O9 0.195513 0.948871 0.808436
O O10 0.228564 0.091934 0.030555
O O11 0.500000 0.123513 0.750000
O O12 0.500000 0.000000 0.500000
#
# Coordination Sequence:
#
# PCOD9455054 Si02
#       6
#     4   8   8   8   8   8
#     4  10  20  38  58  82 118 144 200 234 294 338
#     4  10  21  37  59  85 114 155 187 245 284 348
#     4  10  21  37  57  81 113 147 188 232 279 337
#     4  10  20  36  57  84 111 148 181 234 281 337
#     4  11  23  39  58  83 117 155 197 239 286 344
#     4  10  20  35  58  82 114 143 187 227 286 335
#
# _framework density 19.394435000000001
#
# number of rings (size 3 to 8) (size 9 to 14) (size 15 to 20)
#    0.000    1.818    0.909    3.273    1.273    0.000 
#    0.000    0.000   12.000    0.000    0.000    0.000 
#    0.000    0.000    0.000    0.000    0.000    0.000 
#
# Total GULP energy -244987.763567 kJ/mol
# GULP energy per Si atom -5567.903717 kJ/mol
# Density = 1.935029 g / cm^3
# Si number density = 19.394435 Si / 1000 Ang^3
#
#
#
# Elastic Constant Matrix: (Units=GPa)
#
#
# Indices 1 2 3 4 5 6 
#
# 1 57.3020 16.2816 -12.1233 0.0000 0.0000 0.0000
# 2 16.2816 57.6961 -3.0069 0.0000 0.0000 0.0000
# 3 -12.1233 -3.0069 32.2379 0.0000 0.0000 0.0000
# 4 0.0000 0.0000 0.0000 119.8693 0.0000 0.0000
# 5 0.0000 0.0000 0.0000 0.0000 21.7844 0.0000
# 6 0.0000 0.0000 0.0000 0.0000 0.0000 25.6572
#
#
#
# Elastic Compliance Matrix: (Units=1/GPa)
#
#
# Indices 1 2 3 4 5 6 
#
# 1 0.020515 -0.005413 0.007210 0.000000 0.000000 0.000000
# 2 -0.005413 0.018845 -0.000278 0.000000 0.000000 0.000000
# 3 0.007210 -0.000278 0.033705 0.000000 0.000000 0.000000
# 4 0.000000 0.000000 0.000000 0.008342 0.000000 0.000000
# 5 0.000000 0.000000 0.000000 0.000000 0.045904 0.000000
# 6 0.000000 0.000000 0.000000 0.000000 0.000000 0.038975
#
#
# Mechanical properties :
#
#
# Convention : Reuss Voigt Hill
#
# Bulk Modulus (GPa) = 13.14029 16.61541 14.87785
# Shear Modulus (GPa) = 26.50863 43.20115 34.85489
#
# Velocity S-wave (km/s) = 3.70106 4.72476 4.24389
# Velocity P-wave (km/s) = 5.00537 6.19275 5.63045
#
# Compressibility (1/GPa) = 0.07610185
#
# Stress axis : x y z
#
# Youngs Moduli (GPa) = 48.74498 53.06341 29.66940
#
# Poissons Ratio (x) = 0.28726 -0.21391
# Poissons Ratio (y) = 0.26388 0.00825
# Poissons Ratio (z) = -0.35144 0.01475
#
# Static dielectric constant tensor:
#      x y z
#    x 1.711100 0.000000 0.000000 
#    y 0.000000 1.671220 0.000000 
#    z 0.000000 0.000000 1.676870 
# 
# From -- ./inp_files/7812.got.cif
#   From: 2010.05.17/outbox.cif.g08.bks.cpg/sg60_4_cif.got.tgz:7812.got - 2010.06.03 14:59:27.
