data_PCOD9455634
_publ_section_title
;
Structure prediction by ZEFSAII (Michael W. Deem and Ramdas Pophale) SiO2 
 PCOD9455634
Probable space group: P B C N
;
_chemical_formula_sum "Si O2"
_cell_formula_units_Z 64
_cell_length_a 26.647516
_cell_length_b 12.019225
_cell_length_c 9.356208
_cell_angle_alpha 90.000000
_cell_angle_beta 90.000000
_cell_angle_gamma 90.000000
_cell_volume 2996.629600
_symmetry_space_group_name_H-M "P B C N"
_symmetry_group_IT_number 60
_symmetry_cell_setting 'orthorhombic'
loop_
_space_group_symop_operation_xyz
x,y,z
1/2-x,1/2-y,1/2+z
1/2+x,1/2-y,-z
-x,y,1/2-z
-x,-y,-z
1/2+x,1/2+y,1/2-z
1/2-x,1/2+y,z
x,-y,1/2+z
loop_
_atom_site_type_symbol
_atom_site_label
_atom_site_fract_x
_atom_site_fract_y
_atom_site_fract_z
Si Si1 0.711870 0.338724 0.691500
Si Si2 0.442850 0.640903 0.271944
Si Si3 0.853906 0.023160 0.785689
Si Si4 0.761240 0.124001 0.683427
Si Si5 0.721620 0.020235 0.968557
Si Si6 0.057655 0.616510 0.699561
Si Si7 0.889654 0.533973 0.514143
Si Si8 0.121591 0.777813 0.003259
O O1 0.684376 0.419019 0.805175
O O2 0.750970 0.246797 0.740434
O O3 0.741625 0.404438 0.566617
O O4 0.664280 0.277503 0.619245
O O5 0.500000 0.607729 0.250000
O O6 0.405387 0.537662 0.252404
O O7 0.432266 0.751355 0.176455
O O8 0.430972 0.689988 0.428892
O O9 0.819710 0.091772 0.673104
O O10 0.863458 0.116187 0.902839
O O11 0.735877 0.100885 0.531398
O O12 0.732905 0.049133 0.804508
O O13 0.663013 0.031072 0.003822
O O14 0.092925 0.569039 0.827200
O O15 0.069366 0.542080 0.562693
O O16 0.000000 0.608686 0.750000
O O17 0.882355 0.654010 0.435141
#
# Coordination Sequence:
#
# PCOD9455634 Si02
#       8
#     8   8   8   8   8   8   8   8
#     4  10  22  41  59  90 132 175 215 264 317 393
#     4   9  21  42  65  88 124 169 218 270 328 389
#     4  10  22  38  62  88 122 171 217 262 321 385
#     4  11  23  41  61  93 134 177 214 265 321 389
#     4  11  23  38  63  92 129 175 216 260 319 387
#     4  10  22  43  67  95 127 167 212 272 332 385
#     4  11  22  38  66  94 129 163 215 264 325 385
#     4  10  20  41  61  88 130 169 206 274 325 380
#
# _framework density 21.357327000000002
#
# number of rings (size 3 to 8) (size 9 to 14) (size 15 to 20)
#    0.000    1.750    2.500    1.125    3.500    5.500 
#    0.000    3.125    0.000    0.000    0.000    0.000 
#    0.000    0.000    0.000    0.000    0.000    0.000 
#
# Total GULP energy -356505.218027 kJ/mol
# GULP energy per Si atom -5570.394032 kJ/mol
# Density = 2.130872 g / cm^3
# Si number density = 21.357327 Si / 1000 Ang^3
#
#
#
# Elastic Constant Matrix: (Units=GPa)
#
#
# Indices 1 2 3 4 5 6 
#
# 1 102.1290 6.2840 -13.5694 0.0000 0.0000 0.0000
# 2 6.2840 75.9981 1.6933 0.0000 0.0000 0.0000
# 3 -13.5694 1.6933 33.2200 0.0000 0.0000 0.0000
# 4 0.0000 0.0000 0.0000 23.6672 0.0000 0.0000
# 5 0.0000 0.0000 0.0000 0.0000 26.3084 0.0000
# 6 0.0000 0.0000 0.0000 0.0000 0.0000 33.6650
#
#
#
# Elastic Compliance Matrix: (Units=1/GPa)
#
#
# Indices 1 2 3 4 5 6 
#
# 1 0.010423 -0.000958 0.004306 0.000000 0.000000 0.000000
# 2 -0.000958 0.013261 -0.001067 0.000000 0.000000 0.000000
# 3 0.004306 -0.001067 0.031916 0.000000 0.000000 0.000000
# 4 0.000000 0.000000 0.000000 0.042253 0.000000 0.000000
# 5 0.000000 0.000000 0.000000 0.000000 0.038011 0.000000
# 6 0.000000 0.000000 0.000000 0.000000 0.000000 0.029704
#
#
# Mechanical properties :
#
#
# Convention : Reuss Voigt Hill
#
# Bulk Modulus (GPa) = 16.62180 22.24031 19.43106
# Shear Modulus (GPa) = 27.61536 31.19074 29.40305
#
# Velocity S-wave (km/s) = 3.59975 3.82569 3.71444
# Velocity P-wave (km/s) = 5.00772 5.47272 5.24537
#
# Compressibility (1/GPa) = 0.06016195
#
# Stress axis : x y z
#
# Youngs Moduli (GPa) = 95.94529 75.40799 31.33256
#
# Poissons Ratio (x) = 0.07222 -0.13492
# Poissons Ratio (y) = 0.09189 0.03344
# Poissons Ratio (z) = -0.41315 0.08047
#
# Static dielectric constant tensor:
#      x y z
#    x 1.782150 0.000000 0.000000 
#    y 0.000000 1.891650 0.000000 
#    z 0.000000 0.000000 1.802200 
# 
# From -- ./inp_files/13320.got.cif
#   From: 2010.05.17/outbox.cif.g08.bks.cpg/sg60_7_cif.got.tgz:13320.got - 2010.06.03 14:59:27.
