data_PCOD9455247
_publ_section_title
;
Structure prediction by ZEFSAII (Michael W. Deem and Ramdas Pophale) SiO2 
 PCOD9455247
Probable space group: P B C N
;
_chemical_formula_sum "Si O2"
_cell_formula_units_Z 36
_cell_length_a 12.537910
_cell_length_b 12.659762
_cell_length_c 8.843872
_cell_angle_alpha 90.000000
_cell_angle_beta 90.000000
_cell_angle_gamma 90.000000
_cell_volume 1403.760887
_symmetry_space_group_name_H-M "P B C N"
_symmetry_group_IT_number 60
_symmetry_cell_setting 'orthorhombic'
loop_
_space_group_symop_operation_xyz
x,y,z
1/2-x,1/2-y,1/2+z
1/2+x,1/2-y,-z
-x,y,1/2-z
-x,-y,-z
1/2+x,1/2+y,1/2-z
1/2-x,1/2+y,z
x,-y,1/2+z
loop_
_atom_site_type_symbol
_atom_site_label
_atom_site_fract_x
_atom_site_fract_y
_atom_site_fract_z
Si Si1 0.880946 0.196671 0.065430
Si Si2 0.341590 0.356784 0.270716
Si Si3 0.137538 0.421673 0.467206
Si Si4 0.155208 0.365091 0.813380
Si Si5 0.000000 0.043839 0.250000
O O1 0.922782 0.315740 0.086780
O O2 0.781068 0.164064 0.171429
O O3 0.975419 0.116949 0.106300
O O4 0.825186 0.184427 0.901234
O O5 0.249927 0.394536 0.384142
O O6 0.396093 0.250921 0.339419
O O7 0.404289 0.462894 0.237051
O O8 0.139510 0.412134 0.646956
O O9 0.114283 0.541727 0.421401
#
# Coordination Sequence:
#
# PCOD9455247 Si02
#       5
#     8   8   8   8   4
#     4  10  22  37  57  87 120 154 194 241 294 345
#     4  10  22  37  57  87 120 154 194 241 294 345
#     4  10  20  37  60  85 116 155 198 241 286 347
#     4  10  20  37  60  85 116 155 198 241 286 347
#     4  12  22  36  62  90 122 154 190 246 298 348
#
# _framework density 25.645392999999999
#
# number of rings (size 3 to 8) (size 9 to 14) (size 15 to 20)
#    0.000    1.778    2.222    2.000    0.000    3.556 
#    0.000    1.111    0.000    5.333    0.000    0.000 
#    0.000    0.000    0.000    0.000    0.000    0.000 
#
# Total GULP energy -200987.057313 kJ/mol
# GULP energy per Si atom -5582.973814 kJ/mol
# Density = 2.558702 g / cm^3
# Si number density = 25.645393 Si / 1000 Ang^3
#
#
#
# Elastic Constant Matrix: (Units=GPa)
#
#
# Indices 1 2 3 4 5 6 
#
# 1 38.1414 26.9538 -0.2074 0.0000 0.0000 0.0000
# 2 26.9538 229.0611 41.3259 0.0000 0.0000 0.0000
# 3 -0.2074 41.3259 81.6774 0.0000 0.0000 0.0000
# 4 0.0000 0.0000 0.0000 69.4940 0.0000 0.0000
# 5 0.0000 0.0000 0.0000 0.0000 20.0035 0.0000
# 6 0.0000 0.0000 0.0000 0.0000 0.0000 10.1422
#
#
#
# Elastic Compliance Matrix: (Units=1/GPa)
#
#
# Indices 1 2 3 4 5 6 
#
# 1 0.028882 -0.003755 0.001973 0.000000 0.000000 0.000000
# 2 -0.003755 0.005292 -0.002687 0.000000 0.000000 0.000000
# 3 0.001973 -0.002687 0.013608 0.000000 0.000000 0.000000
# 4 0.000000 0.000000 0.000000 0.014390 0.000000 0.000000
# 5 0.000000 0.000000 0.000000 0.000000 0.049991 0.000000
# 6 0.000000 0.000000 0.000000 0.000000 0.000000 0.098597
#
#
# Mechanical properties :
#
#
# Convention : Reuss Voigt Hill
#
# Bulk Modulus (GPa) = 25.74338 53.89160 39.81749
# Shear Modulus (GPa) = 21.49179 38.64843 30.07011
#
# Velocity S-wave (km/s) = 2.89803 3.88626 3.42794
# Velocity P-wave (km/s) = 4.61065 6.41850 5.58817
#
# Compressibility (1/GPa) = 0.03884494
#
# Stress axis : x y z
#
# Youngs Moduli (GPa) = 34.62332 188.95497 73.48643
#
# Poissons Ratio (x) = 0.70944 -0.14499
# Poissons Ratio (y) = 0.13000 0.19748
# Poissons Ratio (z) = -0.06831 0.50777
#
# Static dielectric constant tensor:
#      x y z
#    x 2.225710 0.000000 0.000000 
#    y 0.000000 2.068990 0.000000 
#    z 0.000000 0.000000 2.021260 
# 
# From -- ./inp_files/11630.got.cif
#   From: 2010.05.17/outbox.cif.g08.bks.cpg/sg60_6_cif.got.tgz:11630.got - 2010.06.03 14:59:27.
