data_PCOD9455968
_publ_section_title
;
Structure prediction by ZEFSAII (Michael W. Deem and Ramdas Pophale) SiO2 
 PCOD9455968
Probable space group: P B C N
;
_chemical_formula_sum "Si O2"
_cell_formula_units_Z 32
_cell_length_a 9.939296
_cell_length_b 8.689178
_cell_length_c 16.173771
_cell_angle_alpha 90.000000
_cell_angle_beta 90.000000
_cell_angle_gamma 90.000000
_cell_volume 1396.836607
_symmetry_space_group_name_H-M "P B C N"
_symmetry_group_IT_number 60
_symmetry_cell_setting 'orthorhombic'
loop_
_space_group_symop_operation_xyz
x,y,z
1/2-x,1/2-y,1/2+z
1/2+x,1/2-y,-z
-x,y,1/2-z
-x,-y,-z
1/2+x,1/2+y,1/2-z
1/2-x,1/2+y,z
x,-y,1/2+z
loop_
_atom_site_type_symbol
_atom_site_label
_atom_site_fract_x
_atom_site_fract_y
_atom_site_fract_z
Si Si1 0.336542 0.767941 0.873754
Si Si2 0.159983 0.188521 0.068413
Si Si3 0.436336 0.017271 0.092050
Si Si4 0.067424 0.943319 0.834791
O O1 0.444454 0.902962 0.857356
O O2 0.188978 0.831674 0.857903
O O3 0.374373 0.614464 0.825482
O O4 0.343251 0.719365 0.970449
O O5 0.307819 0.129058 0.090415
O O6 0.117337 0.347658 0.112823
O O7 0.048325 0.065454 0.095805
O O8 0.500000 0.000000 0.000000
O O9 0.000000 0.894501 0.750000
#
# Coordination Sequence:
#
# PCOD9455968 Si02
#       4
#     8   8   8   8
#     4  11  22  44  68  96 134 178 229 277 338 416
#     4  11  21  41  69 100 131 176 230 280 338 411
#     4  10  21  37  66  99 128 167 222 281 327 387
#     4  12  27  44  67 101 140 181 226 290 355 412
#
# _framework density 22.908906999999999
#
# number of rings (size 3 to 8) (size 9 to 14) (size 15 to 20)
#    0.000    1.000    0.000    9.750    0.000    4.000 
#    0.000    2.500    0.000    0.000    0.000    0.000 
#    0.000    0.000    0.000    0.000    0.000    0.000 
#
# Total GULP energy -179169.489842 kJ/mol
# GULP energy per Si atom -5599.046558 kJ/mol
# Density = 2.285677 g / cm^3
# Si number density = 22.908907 Si / 1000 Ang^3
#
#
#
# Elastic Constant Matrix: (Units=GPa)
#
#
# Indices 1 2 3 4 5 6 
#
# 1 179.0864 22.4953 42.5944 0.0000 0.0000 0.0000
# 2 22.4953 51.8661 16.7545 0.0000 0.0000 0.0000
# 3 42.5944 16.7545 55.6762 0.0000 0.0000 0.0000
# 4 0.0000 0.0000 0.0000 -4.8851 0.0000 0.0000
# 5 0.0000 0.0000 0.0000 0.0000 14.1564 0.0000
# 6 0.0000 0.0000 0.0000 0.0000 0.0000 56.2415
#
#
#
# Elastic Compliance Matrix: (Units=1/GPa)
#
#
# Indices 1 2 3 4 5 6 
#
# 1 0.006920 -0.001430 -0.004864 0.000000 0.000000 0.000000
# 2 -0.001430 0.021652 -0.005422 0.000000 0.000000 0.000000
# 3 -0.004864 -0.005422 0.023314 0.000000 0.000000 0.000000
# 4 0.000000 0.000000 0.000000 -0.204704 0.000000 0.000000
# 5 0.000000 0.000000 0.000000 0.000000 0.070639 0.000000
# 6 0.000000 0.000000 0.000000 0.000000 0.000000 0.017780
#
#
# Mechanical properties :
#
#
# Convention : Reuss Voigt Hill
#
# Bulk Modulus (GPa) = 35.14370 50.03523 42.58946
# Shear Modulus (GPa) = -158.82446 26.75485 -66.03480
#
# Velocity S-wave (km/s) = -8.33542 3.42113 -5.37471
# Velocity P-wave (km/s) = 8.79005 6.12323 4.45932
#
# Compressibility (1/GPa) = 0.02845460
#
# Stress axis : x y z
#
# Youngs Moduli (GPa) = 144.50004 46.18491 42.89342
#
# Poissons Ratio (x) = 0.06606 0.20863
# Poissons Ratio (y) = 0.20668 0.23255
# Poissons Ratio (z) = 0.70284 0.25039
#
# Static dielectric constant tensor:
#      x y z
#    x 1.859280 0.000000 0.000000 
#    y 0.000000 1.892560 0.000000 
#    z 0.000000 0.000000 1.866400 
# 
# From -- ./inp_files/21881.got.cif
#   From: 2010.05.17/outbox.cif.g08.bks.cpg/sg60_11_cif.got.tgz:21881.got - 2010.06.03 14:59:27.
