data_PCOD9455375
_publ_section_title
;
Structure prediction by ZEFSAII (Michael W. Deem and Ramdas Pophale) SiO2 
 PCOD9455375
Probable space group: P B C N
;
_chemical_formula_sum "Si O2"
_cell_formula_units_Z 48
_cell_length_a 14.219647
_cell_length_b 9.572660
_cell_length_c 16.090925
_cell_angle_alpha 90.000000
_cell_angle_beta 90.000000
_cell_angle_gamma 90.000000
_cell_volume 2190.294234
_symmetry_space_group_name_H-M "P B C N"
_symmetry_group_IT_number 60
_symmetry_cell_setting 'orthorhombic'
loop_
_space_group_symop_operation_xyz
x,y,z
1/2-x,1/2-y,1/2+z
1/2+x,1/2-y,-z
-x,y,1/2-z
-x,-y,-z
1/2+x,1/2+y,1/2-z
1/2-x,1/2+y,z
x,-y,1/2+z
loop_
_atom_site_type_symbol
_atom_site_label
_atom_site_fract_x
_atom_site_fract_y
_atom_site_fract_z
Si Si1 0.149446 0.539089 0.122733
Si Si2 0.255499 0.742021 0.330670
Si Si3 0.835190 0.218877 0.330012
Si Si4 0.409632 0.296155 0.201139
Si Si5 0.713308 0.992490 0.052269
Si Si6 0.093749 0.013157 0.052547
O O1 0.163436 0.386016 0.161080
O O2 0.241677 0.638101 0.136356
O O3 0.074365 0.636968 0.168447
O O4 0.141578 0.515997 0.024391
O O5 0.334106 0.682249 0.267491
O O6 0.175626 0.797875 0.267314
O O7 0.210049 0.629395 0.391528
O O8 0.296794 0.862553 0.387131
O O9 0.911246 0.152132 0.390754
O O10 0.500000 0.348126 0.250000
O O11 0.392619 0.389513 0.119720
O O12 0.817054 0.987915 0.009576
O O13 0.000000 0.000000 0.000000
#
# Coordination Sequence:
#
# PCOD9455375 Si02
#       6
#     8   8   8   8   8   8
#     4  10  20  38  62  88 120 159 204 251 301 364
#     4  11  20  35  60  89 117 153 199 250 305 365
#     4  10  20  38  62  89 121 159 201 251 303 363
#     4  11  23  41  59  84 123 166 204 255 314 368
#     4  11  20  35  61  91 116 153 203 253 303 364
#     4  11  23  41  62  89 124 166 209 256 308 368
#
# _framework density 21.914864000000001
#
# number of rings (size 3 to 8) (size 9 to 14) (size 15 to 20)
#    0.000    1.333    0.000   11.000    0.000    0.000 
#    0.000    7.500    0.000    0.000    0.000    0.000 
#    0.000    0.000    0.000    0.000    0.000    0.000 
#
# Total GULP energy -267992.250247 kJ/mol
# GULP energy per Si atom -5583.171880 kJ/mol
# Density = 2.186498 g / cm^3
# Si number density = 21.914864 Si / 1000 Ang^3
#
#
#
# Elastic Constant Matrix: (Units=GPa)
#
#
# Indices 1 2 3 4 5 6 
#
# 1 30.4558 -24.5730 7.5702 0.0000 0.0000 0.0000
# 2 -24.5730 102.2789 17.3623 0.0000 0.0000 0.0000
# 3 7.5702 17.3623 144.0009 0.0000 0.0000 0.0000
# 4 0.0000 0.0000 0.0000 67.0719 0.0000 0.0000
# 5 0.0000 0.0000 0.0000 0.0000 27.5959 0.0000
# 6 0.0000 0.0000 0.0000 0.0000 0.0000 10.4203
#
#
#
# Elastic Compliance Matrix: (Units=1/GPa)
#
#
# Indices 1 2 3 4 5 6 
#
# 1 0.042418 0.010791 -0.003531 0.000000 0.000000 0.000000
# 2 0.010791 0.012726 -0.002102 0.000000 0.000000 0.000000
# 3 -0.003531 -0.002102 0.007383 0.000000 0.000000 0.000000
# 4 0.000000 0.000000 0.000000 0.014909 0.000000 0.000000
# 5 0.000000 0.000000 0.000000 0.000000 0.036237 0.000000
# 6 0.000000 0.000000 0.000000 0.000000 0.000000 0.095966
#
#
# Mechanical properties :
#
#
# Convention : Reuss Voigt Hill
#
# Bulk Modulus (GPa) = 13.72793 30.82830 22.27812
# Shear Modulus (GPa) = 22.36066 39.44269 30.90167
#
# Velocity S-wave (km/s) = 3.19774 4.24702 3.75917
# Velocity P-wave (km/s) = 4.46228 6.17636 5.38792
#
# Compressibility (1/GPa) = 0.07284418
#
# Stress axis : x y z
#
# Youngs Moduli (GPa) = 23.57466 78.57638 135.43829
#
# Poissons Ratio (x) = -0.84789 0.47823
# Poissons Ratio (y) = -0.25439 0.28465
# Poissons Ratio (z) = 0.08324 0.16515
#
# Static dielectric constant tensor:
#      x y z
#    x 1.901080 0.000000 0.000000 
#    y 0.000000 1.826690 0.000000 
#    z 0.000000 0.000000 1.798490 
# 
# From -- ./inp_files/20812.got.cif
#   From: 2010.05.17/outbox.cif.g08.bks.cpg/sg60_11_cif.got.tgz:20812.got - 2010.06.03 14:59:27.
