data_PCOD9455466
_publ_section_title
;
Structure prediction by ZEFSAII (Michael W. Deem and Ramdas Pophale) SiO2 
 PCOD9455466
Probable space group: P B C N
;
_chemical_formula_sum "Si O2"
_cell_formula_units_Z 60
_cell_length_a 24.468810
_cell_length_b 11.322395
_cell_length_c 9.001919
_cell_angle_alpha 90.000000
_cell_angle_beta 90.000000
_cell_angle_gamma 90.000000
_cell_volume 2493.941438
_symmetry_space_group_name_H-M "P B C N"
_symmetry_group_IT_number 60
_symmetry_cell_setting 'orthorhombic'
loop_
_space_group_symop_operation_xyz
x,y,z
1/2-x,1/2-y,1/2+z
1/2+x,1/2-y,-z
-x,y,1/2-z
-x,-y,-z
1/2+x,1/2+y,1/2-z
1/2-x,1/2+y,z
x,-y,1/2+z
loop_
_atom_site_type_symbol
_atom_site_label
_atom_site_fract_x
_atom_site_fract_y
_atom_site_fract_z
Si Si1 0.916763 0.154785 0.496426
Si Si2 0.736807 0.975968 0.429699
Si Si3 0.087653 0.231686 0.458894
Si Si4 0.495700 0.876972 0.916033
Si Si5 0.729495 0.163684 0.224512
Si Si6 0.838026 0.705461 0.781342
Si Si7 0.500000 0.394380 0.750000
Si Si8 0.653125 0.371535 0.279162
O O1 0.949820 0.276730 0.542263
O O2 0.867961 0.201461 0.390392
O O3 0.958290 0.073879 0.394103
O O4 0.889445 0.094528 0.644800
O O5 0.735127 0.936612 0.599699
O O6 0.684506 0.907873 0.363926
O O7 0.792482 0.940646 0.338972
O O8 0.729118 0.111617 0.390713
O O9 0.122471 0.317490 0.354860
O O10 0.122233 0.148503 0.565726
O O11 0.051385 0.306568 0.566285
O O12 0.045934 0.169984 0.346469
O O13 0.500000 0.916455 0.750000
O O14 0.500000 0.000000 0.000000
O O15 0.784724 0.235642 0.212283
O O16 0.678280 0.249770 0.213428
#
# Coordination Sequence:
#
# PCOD9455466 Si02
#       8
#     8   8   8   8   8   8   4   8
#     4  10  20  39  58  83 114 164 197 240 300 361
#     4  11  25  39  59  91 127 158 210 259 308 355
#     4  10  20  39  58  82 114 162 200 243 297 361
#     4  11  24  35  53  86 122 151 197 250 296 363
#     4  11  25  39  59  92 124 164 205 262 305 359
#     4  10  22  41  61  82 123 162 208 241 307 367
#     4   8  20  34  60  86 112 142 200 252 300 360
#     4  11  22  40  63  87 125 168 212 250 301 376
#
# _framework density 24.058304
#
# number of rings (size 3 to 8) (size 9 to 14) (size 15 to 20)
#    0.000    1.600    4.000    0.000    9.333    2.133 
#    0.000    0.000    0.000    0.000    0.000   39.200 
#    0.000    0.000    0.000    0.000    0.000    0.000 
#
# Total GULP energy -334362.548261 kJ/mol
# GULP energy per Si atom -5572.709138 kJ/mol
# Density = 2.400355 g / cm^3
# Si number density = 24.058304 Si / 1000 Ang^3
#
#
#
# Elastic Constant Matrix: (Units=GPa)
#
#
# Indices 1 2 3 4 5 6 
#
# 1 107.8947 11.5040 34.7879 0.0000 0.0000 0.0000
# 2 11.5040 30.3609 13.7422 0.0000 0.0000 0.0000
# 3 34.7879 13.7422 138.1320 0.0000 0.0000 0.0000
# 4 0.0000 0.0000 0.0000 29.8965 0.0000 0.0000
# 5 0.0000 0.0000 0.0000 0.0000 36.8832 0.0000
# 6 0.0000 0.0000 0.0000 0.0000 0.0000 -7.7624
#
#
#
# Elastic Compliance Matrix: (Units=1/GPa)
#
#
# Indices 1 2 3 4 5 6 
#
# 1 0.010320 -0.002863 -0.002314 0.000000 0.000000 0.000000
# 2 -0.002863 0.035284 -0.002789 0.000000 0.000000 0.000000
# 3 -0.002314 -0.002789 0.008100 0.000000 0.000000 0.000000
# 4 0.000000 0.000000 0.000000 0.033449 0.000000 0.000000
# 5 0.000000 0.000000 0.000000 0.000000 0.027113 0.000000
# 6 0.000000 0.000000 0.000000 0.000000 0.000000 -0.128827
#
#
# Mechanical properties :
#
#
# Convention : Reuss Voigt Hill
#
# Bulk Modulus (GPa) = 26.47513 44.05064 35.26289
# Shear Modulus (GPa) = 358.12972 26.22704 192.17838
#
# Velocity S-wave (km/s) = 12.21402 3.30532 8.94727
# Velocity P-wave (km/s) = 14.48924 5.73729 11.01941
#
# Compressibility (1/GPa) = 0.03777129
#
# Stress axis : x y z
#
# Youngs Moduli (GPa) = 96.90232 28.34120 123.46037
#
# Poissons Ratio (x) = 0.08113 0.28571
# Poissons Ratio (y) = 0.27741 0.34437
# Poissons Ratio (z) = 0.22425 0.07905
#
# Static dielectric constant tensor:
#      x y z
#    x 1.980550 0.000000 0.000000 
#    y 0.000000 1.943320 0.000000 
#    z 0.000000 0.000000 2.016570 
# 
# From -- ./inp_files/7937.got.cif
#   From: 2010.05.17/outbox.cif.g08.bks.cpg/sg60_4_cif.got.tgz:7937.got - 2010.06.03 14:59:27.
