data_PCOD9455656
_publ_section_title
;
Structure prediction by ZEFSAII (Michael W. Deem and Ramdas Pophale) SiO2 
 PCOD9455656
Probable space group: P B C N
;
_chemical_formula_sum "Si O2"
_cell_formula_units_Z 48
_cell_length_a 20.697441
_cell_length_b 5.568928
_cell_length_c 14.750040
_cell_angle_alpha 90.000000
_cell_angle_beta 90.000000
_cell_angle_gamma 90.000000
_cell_volume 1700.127352
_symmetry_space_group_name_H-M "P B C N"
_symmetry_group_IT_number 60
_symmetry_cell_setting 'orthorhombic'
loop_
_space_group_symop_operation_xyz
x,y,z
1/2-x,1/2-y,1/2+z
1/2+x,1/2-y,-z
-x,y,1/2-z
-x,-y,-z
1/2+x,1/2+y,1/2-z
1/2-x,1/2+y,z
x,-y,1/2+z
loop_
_atom_site_type_symbol
_atom_site_label
_atom_site_fract_x
_atom_site_fract_y
_atom_site_fract_z
Si Si1 0.408169 0.983440 0.252382
Si Si2 0.335483 0.755892 0.470922
Si Si3 0.302314 0.259294 0.404072
Si Si4 0.731970 0.201904 0.793254
Si Si5 0.555039 0.485194 0.173233
Si Si6 0.965151 0.332924 0.927256
O O1 0.340138 0.015994 0.423284
O O2 0.340351 0.894080 0.211731
O O3 0.423107 0.761344 0.319469
O O4 0.543689 0.021224 0.332655
O O5 0.343641 0.499294 0.420107
O O6 0.256848 0.752459 0.477875
O O7 0.392058 0.760275 0.544928
O O8 0.263679 0.264644 0.308036
O O9 0.486584 0.389014 0.410759
O O10 0.731615 0.469904 0.833666
O O11 0.902628 0.245611 0.707805
O O12 0.500000 0.489715 0.250000
O O13 0.000000 0.500000 0.000000
#
# Coordination Sequence:
#
# PCOD9455656 Si02
#       6
#     8   8   8   8   8   8
#     4  11  26  48  74 104 155 201 255 324 374 470
#     4  10  21  41  66 102 148 182 250 308 382 454
#     4  10  20  41  67 102 138 199 238 304 390 460
#     4  12  22  41  73 105 139 198 267 301 385 469
#     4  10  23  48  73 101 149 202 252 301 386 459
#     4  11  27  49  77 121 156 207 264 329 400 466
#
# _framework density 28.233177999999999
#
# number of rings (size 3 to 8) (size 9 to 14) (size 15 to 20)
#    0.000    1.333    3.333    2.500    2.333    5.333 
#    6.000   11.667    0.000    0.000    0.000    0.000 
#    0.000    0.000    0.000    0.000    0.000    0.000 
#
# Total GULP energy -268463.897658 kJ/mol
# GULP energy per Si atom -5592.997868 kJ/mol
# Density = 2.816892 g / cm^3
# Si number density = 28.233178 Si / 1000 Ang^3
#
#
#
# Elastic Constant Matrix: (Units=GPa)
#
#
# Indices 1 2 3 4 5 6 
#
# 1 104.2752 71.0252 27.8075 0.0000 0.0000 0.0000
# 2 71.0252 278.3350 68.7506 0.0000 0.0000 0.0000
# 3 27.8075 68.7506 116.7453 0.0000 0.0000 0.0000
# 4 0.0000 0.0000 0.0000 46.9338 0.0000 0.0000
# 5 0.0000 0.0000 0.0000 0.0000 38.6522 0.0000
# 6 0.0000 0.0000 0.0000 0.0000 0.0000 81.0115
#
#
#
# Elastic Compliance Matrix: (Units=1/GPa)
#
#
# Indices 1 2 3 4 5 6 
#
# 1 0.011752 -0.002700 -0.001209 0.000000 0.000000 0.000000
# 2 -0.002700 0.004825 -0.002198 0.000000 0.000000 0.000000
# 3 -0.001209 -0.002198 0.010148 0.000000 0.000000 0.000000
# 4 0.000000 0.000000 0.000000 0.021307 0.000000 0.000000
# 5 0.000000 0.000000 0.000000 0.000000 0.025872 0.000000
# 6 0.000000 0.000000 0.000000 0.000000 0.000000 0.012344
#
#
# Mechanical properties :
#
#
# Convention : Reuss Voigt Hill
#
# Bulk Modulus (GPa) = 68.91851 92.72467 80.82159
# Shear Modulus (GPa) = 48.40373 55.43765 51.92069
#
# Velocity S-wave (km/s) = 4.14506 4.43602 4.29300
# Velocity P-wave (km/s) = 6.88274 7.69100 7.29807
#
# Compressibility (1/GPa) = 0.01450989
#
# Stress axis : x y z
#
# Youngs Moduli (GPa) = 85.09516 207.26433 98.54062
#
# Poissons Ratio (x) = 0.55964 0.11914
# Poissons Ratio (y) = 0.22977 0.21661
# Poissons Ratio (z) = 0.10288 0.45559
#
# Static dielectric constant tensor:
#      x y z
#    x 2.733540 0.000000 0.000000 
#    y 0.000000 2.156930 0.000000 
#    z 0.000000 0.000000 2.282160 
# 
# From -- ./inp_files/24369.got.cif
#   From: 2010.05.17/outbox.cif.g08.bks.cpg/sg60_13_cif.got.tgz:24369.got - 2010.06.03 14:59:27.
