data_PCOD9455025
_publ_section_title
;
Structure prediction by ZEFSAII (Michael W. Deem and Ramdas Pophale) SiO2 
 PCOD9455025
Probable space group: P B C N
;
_chemical_formula_sum "Si O2"
_cell_formula_units_Z 40
_cell_length_a 16.619828
_cell_length_b 27.480699
_cell_length_c 5.276946
_cell_angle_alpha 90.000000
_cell_angle_beta 90.000000
_cell_angle_gamma 90.000000
_cell_volume 2410.110474
_symmetry_space_group_name_H-M "P B C N"
_symmetry_group_IT_number 60
_symmetry_cell_setting 'orthorhombic'
loop_
_space_group_symop_operation_xyz
x,y,z
1/2-x,1/2-y,1/2+z
1/2+x,1/2-y,-z
-x,y,1/2-z
-x,-y,-z
1/2+x,1/2+y,1/2-z
1/2-x,1/2+y,z
x,-y,1/2+z
loop_
_atom_site_type_symbol
_atom_site_label
_atom_site_fract_x
_atom_site_fract_y
_atom_site_fract_z
Si Si1 0.323337 0.701235 0.280018
Si Si2 0.920941 0.633518 0.930067
Si Si3 0.271235 0.185478 0.782549
Si Si4 0.000000 0.775728 0.750000
Si Si5 0.408830 0.021275 0.480405
Si Si6 0.500000 0.790488 0.750000
O O1 0.292330 0.683195 0.551608
O O2 0.307733 0.759719 0.273295
O O3 0.417662 0.694595 0.228237
O O4 0.271224 0.679387 0.051790
O O5 0.843514 0.648693 0.770346
O O6 0.000000 0.636222 0.750000
O O7 0.914289 0.579112 0.034249
O O8 0.930375 0.672657 0.157259
O O9 0.987459 0.742729 0.497314
O O10 0.500000 0.000000 0.500000
O O11 0.369317 0.003529 0.739204
#
# Coordination Sequence:
#
# PCOD9455025 Si02
#       6
#     8   8   8   4   8   4
#     4  10  21  37  48  69 101 129 169 218 273 291
#     4  12  23  33  55  74 104 138 185 212 245 313
#     4  10  22  33  49  72 101 129 166 226 255 289
#     4  12  22  36  56  69  96 138 178 219 268 314
#     4  10  20  35  48  70  99 135 172 205 258 286
#     4  12  22  30  50  79  88 130 192 213 240 296
#
# _framework density 16.596748000000002
#
# number of rings (size 3 to 8) (size 9 to 14) (size 15 to 20)
#    0.000    1.200    5.000    2.400    8.400    0.000 
#    0.000    0.000    0.000    0.000    0.000    0.000 
#    0.000    0.000    0.000   18.000    0.000    0.000 
#
# Total GULP energy -223297.794229 kJ/mol
# GULP energy per Si atom -5582.444856 kJ/mol
# Density = 1.655897 g / cm^3
# Si number density = 16.596748 Si / 1000 Ang^3
#
#
#
# Elastic Constant Matrix: (Units=GPa)
#
#
# Indices 1 2 3 4 5 6 
#
# 1 70.7228 7.0165 1.9654 0.0000 0.0000 0.0000
# 2 7.0165 39.3564 1.2381 0.0000 0.0000 0.0000
# 3 1.9654 1.2381 98.0634 0.0000 0.0000 0.0000
# 4 0.0000 0.0000 0.0000 2.3995 0.0000 0.0000
# 5 0.0000 0.0000 0.0000 0.0000 20.3097 0.0000
# 6 0.0000 0.0000 0.0000 0.0000 0.0000 2.7187
#
#
#
# Elastic Compliance Matrix: (Units=1/GPa)
#
#
# Indices 1 2 3 4 5 6 
#
# 1 0.014401 -0.002559 -0.000256 0.000000 0.000000 0.000000
# 2 -0.002559 0.025874 -0.000275 0.000000 0.000000 0.000000
# 3 -0.000256 -0.000275 0.010206 0.000000 0.000000 0.000000
# 4 0.000000 0.000000 0.000000 0.416749 0.000000 0.000000
# 5 0.000000 0.000000 0.000000 0.000000 0.049238 0.000000
# 6 0.000000 0.000000 0.000000 0.000000 0.000000 0.367823
#
#
# Mechanical properties :
#
#
# Convention : Reuss Voigt Hill
#
# Bulk Modulus (GPa) = 22.57408 25.39807 23.98607
# Shear Modulus (GPa) = 5.52341 18.28042 11.90191
#
# Velocity S-wave (km/s) = 1.82626 3.32240 2.68082
# Velocity P-wave (km/s) = 4.25182 5.48216 4.90572
#
# Compressibility (1/GPa) = 0.04429860
#
# Stress axis : x y z
#
# Youngs Moduli (GPa) = 69.44086 38.64920 97.98059
#
# Poissons Ratio (x) = 0.09892 0.02511
# Poissons Ratio (y) = 0.17772 0.02698
# Poissons Ratio (z) = 0.01780 0.01064
#
# Static dielectric constant tensor:
#      x y z
#    x 1.561170 0.000000 0.000000 
#    y 0.000000 1.529910 0.000000 
#    z 0.000000 0.000000 1.605020 
# 
# From -- ./inp_files/1222.got.cif
#   From: 2010.05.17/outbox.cif.g08.bks.cpg/sg60_1_cif.got.tgz:1222.got - 2010.06.03 14:59:27.
