data_PCOD9455462
_publ_section_title
;
Structure prediction by ZEFSAII (Michael W. Deem and Ramdas Pophale) SiO2 
 PCOD9455462
Probable space group: P B C N
;
_chemical_formula_sum "Si O2"
_cell_formula_units_Z 60
_cell_length_a 6.923121
_cell_length_b 24.241426
_cell_length_c 13.250652
_cell_angle_alpha 90.000000
_cell_angle_beta 90.000000
_cell_angle_gamma 90.000000
_cell_volume 2223.808234
_symmetry_space_group_name_H-M "P B C N"
_symmetry_group_IT_number 60
_symmetry_cell_setting 'orthorhombic'
loop_
_space_group_symop_operation_xyz
x,y,z
1/2-x,1/2-y,1/2+z
1/2+x,1/2-y,-z
-x,y,1/2-z
-x,-y,-z
1/2+x,1/2+y,1/2-z
1/2-x,1/2+y,z
x,-y,1/2+z
loop_
_atom_site_type_symbol
_atom_site_label
_atom_site_fract_x
_atom_site_fract_y
_atom_site_fract_z
Si Si1 0.500000 0.678981 0.750000
Si Si2 0.826162 0.674075 0.983383
Si Si3 0.378485 0.033902 0.347263
Si Si4 0.817728 0.790006 0.890109
Si Si5 0.759945 0.279859 0.678890
Si Si6 0.002670 0.021258 0.865086
Si Si7 0.078813 0.436404 0.075112
Si Si8 0.554587 0.375823 0.036339
O O1 0.328194 0.720774 0.780761
O O2 0.503522 0.643379 0.851137
O O3 0.899427 0.697732 0.090630
O O4 0.753438 0.729822 0.929408
O O5 0.930720 0.630052 0.911407
O O6 0.647935 0.635426 0.018671
O O7 0.500000 0.054836 0.250000
O O8 0.429153 0.968713 0.355896
O O9 0.143331 0.032130 0.350735
O O10 0.453278 0.056896 0.454431
O O11 0.743716 0.813030 0.783356
O O12 0.045081 0.776835 0.865657
O O13 0.803813 0.834788 0.978940
O O14 0.778525 0.030976 0.897291
O O15 0.000000 0.041586 0.750000
O O16 0.098665 0.060436 0.951382
#
# Coordination Sequence:
#
# PCOD9455462 Si02
#       8
#     4   8   8   8   8   8   8   8
#     4  12  18  32  52  84 116 160 200 254 302 348
#     4  10  20  40  59  88 123 167 205 260 313 374
#     4  11  23  45  69  96 127 167 214 278 335 391
#     4  10  20  39  57  84 127 169 207 253 303 370
#     4  10  22  35  57  84 122 167 211 247 303 370
#     4  11  21  40  69  98 126 168 213 266 330 389
#     4  10  24  44  66  96 133 162 217 273 331 394
#     4  10  21  34  58  89 128 158 209 261 306 372
#
# _framework density 26.980743
#
# number of rings (size 3 to 8) (size 9 to 14) (size 15 to 20)
#    0.000    1.600    4.667    0.400    0.000    1.067 
#    6.000    1.333    5.867    0.000    0.000    0.000 
#    0.000    0.000    0.000    0.000    0.000    0.000 
#
# Total GULP energy -334352.923389 kJ/mol
# GULP energy per Si atom -5572.548723 kJ/mol
# Density = 2.691933 g / cm^3
# Si number density = 26.980743 Si / 1000 Ang^3
#
#
#
# Elastic Constant Matrix: (Units=GPa)
#
#
# Indices 1 2 3 4 5 6 
#
# 1 84.7250 7.4123 13.5466 0.0000 0.0000 0.0000
# 2 7.4123 45.2852 7.5291 0.0000 0.0000 0.0000
# 3 13.5466 7.5291 142.0277 0.0000 0.0000 0.0000
# 4 0.0000 0.0000 0.0000 29.0939 0.0000 0.0000
# 5 0.0000 0.0000 0.0000 0.0000 48.8785 0.0000
# 6 0.0000 0.0000 0.0000 0.0000 0.0000 28.7511
#
#
#
# Elastic Compliance Matrix: (Units=1/GPa)
#
#
# Indices 1 2 3 4 5 6 
#
# 1 0.012131 -0.001809 -0.001061 0.000000 0.000000 0.000000
# 2 -0.001809 0.022548 -0.001023 0.000000 0.000000 0.000000
# 3 -0.001061 -0.001023 0.007196 0.000000 0.000000 0.000000
# 4 0.000000 0.000000 0.000000 0.034371 0.000000 0.000000
# 5 0.000000 0.000000 0.000000 0.000000 0.020459 0.000000
# 6 0.000000 0.000000 0.000000 0.000000 0.000000 0.034781
#
#
# Mechanical properties :
#
#
# Convention : Reuss Voigt Hill
#
# Bulk Modulus (GPa) = 29.33457 36.55709 32.94583
# Shear Modulus (GPa) = 33.19248 37.58135 35.38692
#
# Velocity S-wave (km/s) = 3.51127 3.73620 3.62548
# Velocity P-wave (km/s) = 5.22826 5.67371 5.45553
#
# Compressibility (1/GPa) = 0.03408948
#
# Stress axis : x y z
#
# Youngs Moduli (GPa) = 82.43454 44.34892 138.96009
#
# Poissons Ratio (x) = 0.08023 0.14746
# Poissons Ratio (y) = 0.14914 0.14212
# Poissons Ratio (z) = 0.08747 0.04536
#
# Static dielectric constant tensor:
#      x y z
#    x 2.310030 0.000000 0.000000 
#    y 0.000000 2.194550 0.000000 
#    z 0.000000 0.000000 2.184860 
# 
# From -- ./inp_files/10292.got.cif
#   From: 2010.05.17/outbox.cif.g08.bks.cpg/sg60_6_cif.got.tgz:10292.got - 2010.06.03 14:59:27.
