data_PCOD9455063
_publ_section_title
;
Structure prediction by ZEFSAII (Michael W. Deem and Ramdas Pophale) SiO2 
 PCOD9455063
Probable space group: P B C N
;
_chemical_formula_sum "Si O2"
_cell_formula_units_Z 48
_cell_length_a 8.784003
_cell_length_b 29.536729
_cell_length_c 7.471899
_cell_angle_alpha 90.000000
_cell_angle_beta 90.000000
_cell_angle_gamma 90.000000
_cell_volume 1938.589547
_symmetry_space_group_name_H-M "P B C N"
_symmetry_group_IT_number 60
_symmetry_cell_setting 'orthorhombic'
loop_
_space_group_symop_operation_xyz
x,y,z
1/2-x,1/2-y,1/2+z
1/2+x,1/2-y,-z
-x,y,1/2-z
-x,-y,-z
1/2+x,1/2+y,1/2-z
1/2-x,1/2+y,z
x,-y,1/2+z
loop_
_atom_site_type_symbol
_atom_site_label
_atom_site_fract_x
_atom_site_fract_y
_atom_site_fract_z
Si Si1 0.164805 0.835628 0.194058
Si Si2 0.091585 0.273052 0.065629
Si Si3 0.595850 0.045836 0.012509
Si Si4 0.698675 0.087969 0.365009
Si Si5 0.841243 0.936113 0.232135
Si Si6 0.202163 0.314496 0.566450
O O1 0.261424 0.806110 0.056371
O O2 0.138090 0.888313 0.158860
O O3 0.270982 0.835355 0.369097
O O4 0.000000 0.816182 0.250000
O O5 0.000000 0.276139 0.250000
O O6 0.960663 0.289569 0.930624
O O7 0.167729 0.223633 0.073617
O O8 0.694791 0.055534 0.191551
O O9 0.467729 0.084547 0.038961
O O10 0.696465 0.045349 0.835693
O O11 0.500000 0.000000 0.000000
O O12 0.810108 0.071840 0.522542
O O13 0.721816 0.140635 0.314500
O O14 0.000000 0.961945 0.250000
#
# Coordination Sequence:
#
# PCOD9455063 Si02
#       6
#     8   8   8   8   8   8
#     4   9  18  36  59  89 126 181 235 269 351 415
#     4  10  20  35  58  90 134 190 236 291 340 417
#     4  11  25  45  75 105 135 185 250 300 367 460
#     4  10  24  44  71 107 138 189 245 299 368 442
#     4  10  22  43  72 105 146 187 225 306 376 438
#     4  10  20  39  57  95 137 180 240 285 353 420
#
# _framework density 24.760270999999999
#
# number of rings (size 3 to 8) (size 9 to 14) (size 15 to 20)
#    0.000    2.000    0.000    2.500    4.667    3.333 
#   30.000    0.833    0.000    0.000    0.000    0.000 
#    0.000    0.000    0.000    0.000    0.000    0.000 
#
# Total GULP energy -267913.466362 kJ/mol
# GULP energy per Si atom -5581.530549 kJ/mol
# Density = 2.470392 g / cm^3
# Si number density = 24.760271 Si / 1000 Ang^3
#
#
#
# Elastic Constant Matrix: (Units=GPa)
#
#
# Indices 1 2 3 4 5 6 
#
# 1 109.9100 30.6632 23.4534 0.0000 0.0000 0.0000
# 2 30.6632 104.1354 37.0121 0.0000 0.0000 0.0000
# 3 23.4534 37.0121 108.4468 0.0000 0.0000 0.0000
# 4 0.0000 0.0000 0.0000 18.3322 0.0000 0.0000
# 5 0.0000 0.0000 0.0000 0.0000 26.7965 0.0000
# 6 0.0000 0.0000 0.0000 0.0000 0.0000 28.7208
#
#
#
# Elastic Compliance Matrix: (Units=1/GPa)
#
#
# Indices 1 2 3 4 5 6 
#
# 1 0.010078 -0.002496 -0.001328 0.000000 0.000000 0.000000
# 2 -0.002496 0.011547 -0.003401 0.000000 0.000000 0.000000
# 3 -0.001328 -0.003401 0.010669 0.000000 0.000000 0.000000
# 4 0.000000 0.000000 0.000000 0.054549 0.000000 0.000000
# 5 0.000000 0.000000 0.000000 0.000000 0.037318 0.000000
# 6 0.000000 0.000000 0.000000 0.000000 0.000000 0.034818
#
#
# Mechanical properties :
#
#
# Convention : Reuss Voigt Hill
#
# Bulk Modulus (GPa) = 56.03918 56.08328 56.06123
# Shear Modulus (GPa) = 27.87446 30.19412 29.03429
#
# Velocity S-wave (km/s) = 3.35890 3.49586 3.42806
# Velocity P-wave (km/s) = 6.14205 6.24455 6.19351
#
# Compressibility (1/GPa) = 0.01784466
#
# Stress axis : x y z
#
# Youngs Moduli (GPa) = 99.22690 86.60614 93.72936
#
# Poissons Ratio (x) = 0.21613 0.12445
# Poissons Ratio (y) = 0.24763 0.31878
# Poissons Ratio (z) = 0.13175 0.29455
#
# Static dielectric constant tensor:
#      x y z
#    x 2.032680 0.000000 0.000000 
#    y 0.000000 2.059560 0.000000 
#    z 0.000000 0.000000 2.037580 
# 
# From -- ./inp_files/4241.got.cif
#   From: 2010.05.17/outbox.cif.g08.bks.cpg/sg60_3_cif.got.tgz:4241.got - 2010.06.03 14:59:27.
