data_PCOD9455147
_publ_section_title
;
Structure prediction by ZEFSAII (Michael W. Deem and Ramdas Pophale) SiO2 
 PCOD9455147
Probable space group: P B C N
;
_chemical_formula_sum "Si O2"
_cell_formula_units_Z 48
_cell_length_a 8.384383
_cell_length_b 9.693624
_cell_length_c 27.302100
_cell_angle_alpha 90.000000
_cell_angle_beta 90.000000
_cell_angle_gamma 90.000000
_cell_volume 2218.979714
_symmetry_space_group_name_H-M "P B C N"
_symmetry_group_IT_number 60
_symmetry_cell_setting 'orthorhombic'
loop_
_space_group_symop_operation_xyz
x,y,z
1/2-x,1/2-y,1/2+z
1/2+x,1/2-y,-z
-x,y,1/2-z
-x,-y,-z
1/2+x,1/2+y,1/2-z
1/2-x,1/2+y,z
x,-y,1/2+z
loop_
_atom_site_type_symbol
_atom_site_label
_atom_site_fract_x
_atom_site_fract_y
_atom_site_fract_z
Si Si1 0.423908 0.551884 0.298170
Si Si2 0.496228 0.279175 0.152951
Si Si3 0.132240 0.734916 0.877183
Si Si4 0.946362 0.499226 0.697458
Si Si5 0.144904 0.110760 0.555487
Si Si6 0.432154 0.300307 0.532070
O O1 0.500000 0.615005 0.250000
O O2 0.493821 0.400722 0.307475
O O3 0.443715 0.637828 0.347538
O O4 0.234909 0.545328 0.292026
O O5 0.676500 0.266358 0.130361
O O6 0.381636 0.328574 0.109640
O O7 0.458013 0.135270 0.179293
O O8 0.063959 0.603342 0.848054
O O9 0.075847 0.751590 0.932461
O O10 0.000000 0.555842 0.750000
O O11 0.303758 0.178909 0.533799
O O12 0.000716 0.164099 0.521118
O O13 0.141163 0.944703 0.552384
#
# Coordination Sequence:
#
# PCOD9455147 Si02
#       6
#     8   8   8   8   8   8
#     4  10  20  36  59  84 123 166 205 256 310 360
#     4  10  21  40  62  89 124 167 205 255 312 363
#     4  10  21  40  62  89 124 167 205 255 312 363
#     4  10  22  36  59  92 123 162 213 256 304 366
#     4  11  25  44  66  95 127 162 204 255 311 371
#     4  11  25  44  66  95 127 162 204 255 311 371
#
# _framework density 21.631564000000001
#
# number of rings (size 3 to 8) (size 9 to 14) (size 15 to 20)
#    0.000    1.667    1.667    2.000    2.333    3.333 
#    0.000    0.000    0.000    0.000    0.000    0.000 
#    0.000    0.000    0.000    0.000    0.000    0.000 
#
# Total GULP energy -268178.810411 kJ/mol
# GULP energy per Si atom -5587.058550 kJ/mol
# Density = 2.158233 g / cm^3
# Si number density = 21.631564 Si / 1000 Ang^3
#
#
#
# Elastic Constant Matrix: (Units=GPa)
#
#
# Indices 1 2 3 4 5 6 
#
# 1 11.4082 -1.0211 2.6611 0.0000 0.0000 0.0000
# 2 -1.0211 48.7555 -7.8024 0.0000 0.0000 0.0000
# 3 2.6611 -7.8024 65.2234 0.0000 0.0000 0.0000
# 4 0.0000 0.0000 0.0000 31.6024 0.0000 0.0000
# 5 0.0000 0.0000 0.0000 0.0000 28.7576 0.0000
# 6 0.0000 0.0000 0.0000 0.0000 0.0000 51.0994
#
#
#
# Elastic Compliance Matrix: (Units=1/GPa)
#
#
# Indices 1 2 3 4 5 6 
#
# 1 0.088580 0.001302 -0.003458 0.000000 0.000000 0.000000
# 2 0.001302 0.020930 0.002451 0.000000 0.000000 0.000000
# 3 -0.003458 0.002451 0.015766 0.000000 0.000000 0.000000
# 4 0.000000 0.000000 0.000000 0.031643 0.000000 0.000000
# 5 0.000000 0.000000 0.000000 0.000000 0.034773 0.000000
# 6 0.000000 0.000000 0.000000 0.000000 0.000000 0.019570
#
#
# Mechanical properties :
#
#
# Convention : Reuss Voigt Hill
#
# Bulk Modulus (GPa) = 7.94510 12.56249 10.25380
# Shear Modulus (GPa) = 19.79189 31.06183 25.42686
#
# Velocity S-wave (km/s) = 3.02810 3.79350 3.43221
# Velocity P-wave (km/s) = 3.98833 5.00076 4.52296
#
# Compressibility (1/GPa) = 0.12586371
#
# Stress axis : x y z
#
# Youngs Moduli (GPa) = 11.28927 47.77845 63.42690
#
# Poissons Ratio (x) = -0.06219 0.21935
# Poissons Ratio (y) = -0.01469 -0.15544
# Poissons Ratio (z) = 0.03904 -0.11709
#
# Static dielectric constant tensor:
#      x y z
#    x 1.770700 0.000000 0.000000 
#    y 0.000000 1.797740 0.000000 
#    z 0.000000 0.000000 1.824010 
# 
# From -- ./inp_files/25904.got.cif
#   From: 2010.05.17/outbox.cif.g08.bks.cpg/sg60_13_cif.got.tgz:25904.got - 2010.06.03 14:59:27.
