data_PCOD9455199
_publ_section_title
;
Structure prediction by ZEFSAII (Michael W. Deem and Ramdas Pophale) SiO2 
 PCOD9455199
Probable space group: P B C N
;
_chemical_formula_sum "Si O2"
_cell_formula_units_Z 60
_cell_length_a 25.064692
_cell_length_b 9.154668
_cell_length_c 10.761626
_cell_angle_alpha 90.000000
_cell_angle_beta 90.000000
_cell_angle_gamma 90.000000
_cell_volume 2469.351228
_symmetry_space_group_name_H-M "P B C N"
_symmetry_group_IT_number 60
_symmetry_cell_setting 'orthorhombic'
loop_
_space_group_symop_operation_xyz
x,y,z
1/2-x,1/2-y,1/2+z
1/2+x,1/2-y,-z
-x,y,1/2-z
-x,-y,-z
1/2+x,1/2+y,1/2-z
1/2-x,1/2+y,z
x,-y,1/2+z
loop_
_atom_site_type_symbol
_atom_site_label
_atom_site_fract_x
_atom_site_fract_y
_atom_site_fract_z
Si Si1 0.404354 0.063938 0.897060
Si Si2 0.000000 0.568067 0.250000
Si Si3 0.578420 0.265860 0.392463
Si Si4 0.625670 0.454004 0.823508
Si Si5 0.185213 0.945060 0.932251
Si Si6 0.147992 0.344366 0.057879
Si Si7 0.176889 0.588060 0.220468
Si Si8 0.262720 0.280621 0.378067
O O1 0.351146 0.019452 0.822090
O O2 0.454549 0.029793 0.811798
O O3 0.400727 0.939672 0.004775
O O4 0.409460 0.218948 0.965613
O O5 0.027064 0.676183 0.150243
O O6 0.577088 0.436527 0.356724
O O7 0.628416 0.196325 0.317004
O O8 0.666682 0.512809 0.930189
O O9 0.624659 0.281754 0.853788
O O10 0.643725 0.470063 0.680804
O O11 0.209538 0.784341 0.933899
O O12 0.233969 0.047459 0.884911
O O13 0.183868 0.266174 0.953856
O O14 0.186857 0.466557 0.116502
O O15 0.225826 0.695805 0.249728
#
# Coordination Sequence:
#
# PCOD9455199 Si02
#       8
#     8   4   8   8   8   8   8   8
#     4   9  19  36  63  97 119 162 203 266 315 389
#     4  10  20  36  68  94 128 158 214 272 322 392
#     4  10  20  39  64  88 127 164 209 259 331 379
#     4  11  25  42  62  91 127 170 212 265 321 382
#     4  11  26  40  62  90 127 168 215 269 313 378
#     4   9  21  38  59  87 125 167 209 255 315 385
#     4   9  18  36  61  85 120 163 206 252 316 375
#     4  10  22  38  56  89 126 161 214 261 315 364
#
# _framework density 24.297881
#
# number of rings (size 3 to 8) (size 9 to 14) (size 15 to 20)
#    0.000    2.133    1.333    0.400    7.467    3.200 
#    0.000    0.667    0.000    4.000    0.000    0.000 
#    0.000    0.000    0.000    0.000    0.000    0.000 
#
# Total GULP energy -335053.155886 kJ/mol
# GULP energy per Si atom -5584.219265 kJ/mol
# Density = 2.424258 g / cm^3
# Si number density = 24.297881 Si / 1000 Ang^3
#
#
#
# Elastic Constant Matrix: (Units=GPa)
#
#
# Indices 1 2 3 4 5 6 
#
# 1 55.2499 -1.4651 16.7667 0.0000 0.0000 0.0000
# 2 -1.4651 96.4553 23.4853 0.0000 0.0000 0.0000
# 3 16.7667 23.4853 82.3409 0.0000 0.0000 0.0000
# 4 0.0000 0.0000 0.0000 33.5849 0.0000 0.0000
# 5 0.0000 0.0000 0.0000 0.0000 28.4065 0.0000
# 6 0.0000 0.0000 0.0000 0.0000 0.0000 25.5539
#
#
#
# Elastic Compliance Matrix: (Units=1/GPa)
#
#
# Indices 1 2 3 4 5 6 
#
# 1 0.019455 0.001354 -0.004348 0.000000 0.000000 0.000000
# 2 0.001354 0.011235 -0.003480 0.000000 0.000000 0.000000
# 3 -0.004348 -0.003480 0.014023 0.000000 0.000000 0.000000
# 4 0.000000 0.000000 0.000000 0.029775 0.000000 0.000000
# 5 0.000000 0.000000 0.000000 0.000000 0.035203 0.000000
# 6 0.000000 0.000000 0.000000 0.000000 0.000000 0.039133
#
#
# Mechanical properties :
#
#
# Convention : Reuss Voigt Hill
#
# Bulk Modulus (GPa) = 31.48108 34.62442 33.05275
# Shear Modulus (GPa) = 29.00892 30.52632 29.76762
#
# Velocity S-wave (km/s) = 3.45902 3.54833 3.50396
# Velocity P-wave (km/s) = 5.37936 5.57391 5.47750
#
# Compressibility (1/GPa) = 0.03176511
#
# Stress axis : x y z
#
# Youngs Moduli (GPa) = 51.40090 89.00383 71.31342
#
# Poissons Ratio (x) = -0.12052 0.31005
# Poissons Ratio (y) = -0.06960 0.24819
# Poissons Ratio (z) = 0.22348 0.30976
#
# Static dielectric constant tensor:
#      x y z
#    x 1.895080 0.000000 0.000000 
#    y 0.000000 1.997710 0.000000 
#    z 0.000000 0.000000 2.077640 
# 
# From -- ./inp_files/13373.got.cif
#   From: 2010.05.17/outbox.cif.g08.bks.cpg/sg60_7_cif.got.tgz:13373.got - 2010.06.03 14:59:27.
