data_PCOD9455516
_publ_section_title
;
Structure prediction by ZEFSAII (Michael W. Deem and Ramdas Pophale) SiO2 
 PCOD9455516
Probable space group: P B C N
;
_chemical_formula_sum "Si O2"
_cell_formula_units_Z 40
_cell_length_a 8.309809
_cell_length_b 24.541564
_cell_length_c 10.317203
_cell_angle_alpha 90.000000
_cell_angle_beta 90.000000
_cell_angle_gamma 90.000000
_cell_volume 2104.046113
_symmetry_space_group_name_H-M "P B C N"
_symmetry_group_IT_number 60
_symmetry_cell_setting 'orthorhombic'
loop_
_space_group_symop_operation_xyz
x,y,z
1/2-x,1/2-y,1/2+z
1/2+x,1/2-y,-z
-x,y,1/2-z
-x,-y,-z
1/2+x,1/2+y,1/2-z
1/2-x,1/2+y,z
x,-y,1/2+z
loop_
_atom_site_type_symbol
_atom_site_label
_atom_site_fract_x
_atom_site_fract_y
_atom_site_fract_z
Si Si1 0.866712 0.528631 0.362370
Si Si2 0.414468 0.197615 0.617877
Si Si3 0.313150 0.622890 0.264786
Si Si4 0.641094 0.084393 0.976148
Si Si5 0.380106 0.223349 0.138212
O O1 0.728185 0.567125 0.309280
O O2 0.798383 0.472329 0.417054
O O3 0.000000 0.516924 0.250000
O O4 0.969885 0.564331 0.464705
O O5 0.500000 0.215659 0.750000
O O6 0.380223 0.133190 0.623887
O O7 0.252307 0.231956 0.603901
O O8 0.523561 0.207443 0.491114
O O9 0.500000 0.636455 0.250000
O O10 0.249968 0.610147 0.409666
O O11 0.206624 0.670697 0.201409
O O12 0.500000 0.244205 0.250000
#
# Coordination Sequence:
#
# PCOD9455516 Si02
#       5
#     8   8   8   8   8
#     4   9  18  38  65  93 124 165 212 262 318 387
#     4  12  25  40  66  98 125 169 217 271 315 383
#     4  11  22  39  66  92 129 176 211 259 326 388
#     4  10  20  39  65  91 125 168 217 262 319 382
#     4  12  24  46  65  91 130 171 218 264 325 393
#
# _framework density 19.01099
#
# number of rings (size 3 to 8) (size 9 to 14) (size 15 to 20)
#    0.000    1.200    4.000    3.000    2.800    0.800 
#    0.000    1.000    0.000    0.000    0.000    0.000 
#    0.000    0.000    0.000    0.000    0.000    0.000 
#
# Total GULP energy -223370.389425 kJ/mol
# GULP energy per Si atom -5584.259736 kJ/mol
# Density = 1.896772 g / cm^3
# Si number density = 19.010990 Si / 1000 Ang^3
#
#
#
# Elastic Constant Matrix: (Units=GPa)
#
#
# Indices 1 2 3 4 5 6 
#
# 1 93.4243 42.0277 30.3948 0.0000 0.0000 0.0000
# 2 42.0277 114.1466 31.5637 0.0000 0.0000 0.0000
# 3 30.3948 31.5637 64.4698 0.0000 0.0000 0.0000
# 4 0.0000 0.0000 0.0000 14.2703 0.0000 0.0000
# 5 0.0000 0.0000 0.0000 0.0000 18.5296 0.0000
# 6 0.0000 0.0000 0.0000 0.0000 0.0000 17.6688
#
#
#
# Elastic Compliance Matrix: (Units=1/GPa)
#
#
# Indices 1 2 3 4 5 6 
#
# 1 0.013961 -0.003840 -0.004702 0.000000 0.000000 0.000000
# 2 -0.003840 0.011189 -0.003667 0.000000 0.000000 0.000000
# 3 -0.004702 -0.003667 0.019523 0.000000 0.000000 0.000000
# 4 0.000000 0.000000 0.000000 0.070075 0.000000 0.000000
# 5 0.000000 0.000000 0.000000 0.000000 0.053968 0.000000
# 6 0.000000 0.000000 0.000000 0.000000 0.000000 0.056597
#
#
# Mechanical properties :
#
#
# Convention : Reuss Voigt Hill
#
# Bulk Modulus (GPa) = 49.37252 53.33481 51.35367
# Shear Modulus (GPa) = 19.49441 21.29738 20.39589
#
# Velocity S-wave (km/s) = 3.20571 3.35067 3.27899
# Velocity P-wave (km/s) = 6.30309 6.56391 6.43482
#
# Compressibility (1/GPa) = 0.02025418
#
# Stress axis : x y z
#
# Youngs Moduli (GPa) = 71.62736 89.37606 51.22046
#
# Poissons Ratio (x) = 0.34322 0.24084
# Poissons Ratio (y) = 0.27506 0.18784
# Poissons Ratio (z) = 0.33679 0.32778
#
# Static dielectric constant tensor:
#      x y z
#    x 1.645430 0.000000 0.000000 
#    y 0.000000 1.646100 0.000000 
#    z 0.000000 0.000000 1.701170 
# 
# From -- ./inp_files/9916.got.cif
#   From: 2010.05.17/outbox.cif.g08.bks.cpg/sg60_5_cif.got.tgz:9916.got - 2010.06.03 14:59:27.
