data_PCOD9455297
_publ_section_title
;
Structure prediction by ZEFSAII (Michael W. Deem and Ramdas Pophale) SiO2 
 PCOD9455297
Probable space group: P B C N
;
_chemical_formula_sum "Si O2"
_cell_formula_units_Z 40
_cell_length_a 12.684072
_cell_length_b 10.814534
_cell_length_c 13.180112
_cell_angle_alpha 90.000000
_cell_angle_beta 90.000000
_cell_angle_gamma 90.000000
_cell_volume 1807.946645
_symmetry_space_group_name_H-M "P B C N"
_symmetry_group_IT_number 60
_symmetry_cell_setting 'orthorhombic'
loop_
_space_group_symop_operation_xyz
x,y,z
1/2-x,1/2-y,1/2+z
1/2+x,1/2-y,-z
-x,y,1/2-z
-x,-y,-z
1/2+x,1/2+y,1/2-z
1/2-x,1/2+y,z
x,-y,1/2+z
loop_
_atom_site_type_symbol
_atom_site_label
_atom_site_fract_x
_atom_site_fract_y
_atom_site_fract_z
Si Si1 0.756461 0.555819 0.540457
Si Si2 0.618089 0.356714 0.211058
Si Si3 0.703597 0.307171 0.424917
Si Si4 0.013885 0.306903 0.940639
Si Si5 0.490700 0.930785 0.366538
O O1 0.670421 0.552071 0.630446
O O2 0.744148 0.432138 0.475816
O O3 0.748047 0.679795 0.470475
O O4 0.869525 0.564783 0.596376
O O5 0.500000 0.391772 0.250000
O O6 0.696642 0.325011 0.303198
O O7 0.598260 0.236372 0.140942
O O8 0.578520 0.292248 0.449723
O O9 0.966444 0.432114 0.890894
O O10 0.046546 0.339272 0.054615
O O11 0.500000 0.899163 0.250000
#
# Coordination Sequence:
#
# PCOD9455297 Si02
#       5
#     8   8   8   8   8
#     4  11  24  40  63  98 130 167 224 269 319 398
#     4  10  22  41  64  91 133 177 213 269 337 387
#     4  10  23  41  63  92 128 170 215 269 325 384
#     4   9  20  38  60  89 126 170 218 263 322 389
#     4  10  20  37  64  95 132 177 222 271 324 385
#
# _framework density 22.124548000000001
#
# number of rings (size 3 to 8) (size 9 to 14) (size 15 to 20)
#    0.000    2.000    0.000    3.000    0.000   12.800 
#    0.000    6.000    0.000    0.000    0.000    7.000 
#    0.000    0.000    0.000    0.000    0.000    0.000 
#
# Total GULP energy -223189.833254 kJ/mol
# GULP energy per Si atom -5579.745831 kJ/mol
# Density = 2.207419 g / cm^3
# Si number density = 22.124548 Si / 1000 Ang^3
#
#
#
# Elastic Constant Matrix: (Units=GPa)
#
#
# Indices 1 2 3 4 5 6 
#
# 1 74.6101 41.2141 52.2467 0.0000 0.0000 0.0000
# 2 41.2141 111.9950 67.9999 0.0000 0.0000 0.0000
# 3 52.2467 67.9999 209.8996 0.0000 0.0000 0.0000
# 4 0.0000 0.0000 0.0000 21.6138 0.0000 0.0000
# 5 0.0000 0.0000 0.0000 0.0000 42.9906 0.0000
# 6 0.0000 0.0000 0.0000 0.0000 0.0000 22.5286
#
#
#
# Elastic Compliance Matrix: (Units=1/GPa)
#
#
# Indices 1 2 3 4 5 6 
#
# 1 0.018166 -0.004904 -0.002933 0.000000 0.000000 0.000000
# 2 -0.004904 0.012439 -0.002809 0.000000 0.000000 0.000000
# 3 -0.002933 -0.002809 0.006404 0.000000 0.000000 0.000000
# 4 0.000000 0.000000 0.000000 0.046267 0.000000 0.000000
# 5 0.000000 0.000000 0.000000 0.000000 0.023261 0.000000
# 6 0.000000 0.000000 0.000000 0.000000 0.000000 0.044388
#
#
# Mechanical properties :
#
#
# Convention : Reuss Voigt Hill
#
# Bulk Modulus (GPa) = 63.62591 79.93622 71.78107
# Shear Modulus (GPa) = 28.17584 33.09619 30.63602
#
# Velocity S-wave (km/s) = 3.57250 3.87189 3.72520
# Velocity P-wave (km/s) = 6.77034 7.49648 7.14264
#
# Compressibility (1/GPa) = 0.01571687
#
# Stress axis : x y z
#
# Youngs Moduli (GPa) = 55.04813 80.38991 156.14509
#
# Poissons Ratio (x) = 0.39425 0.45796
# Poissons Ratio (y) = 0.26997 0.43864
# Poissons Ratio (z) = 0.16145 0.22583
#
# Static dielectric constant tensor:
#      x y z
#    x 1.960770 0.000000 0.000000 
#    y 0.000000 1.812730 0.000000 
#    z 0.000000 0.000000 1.825600 
# 
# From -- ./inp_files/11682.got.cif
#   From: 2010.05.17/outbox.cif.g08.bks.cpg/sg60_6_cif.got.tgz:11682.got - 2010.06.03 14:59:27.
