data_PCOD9455046
_publ_section_title
;
Structure prediction by ZEFSAII (Michael W. Deem and Ramdas Pophale) SiO2 
 PCOD9455046
Probable space group: P B C N
;
_chemical_formula_sum "Si O2"
_cell_formula_units_Z 64
_cell_length_a 16.133909
_cell_length_b 8.389070
_cell_length_c 24.167285
_cell_angle_alpha 90.000000
_cell_angle_beta 90.000000
_cell_angle_gamma 90.000000
_cell_volume 3271.005580
_symmetry_space_group_name_H-M "P B C N"
_symmetry_group_IT_number 60
_symmetry_cell_setting 'orthorhombic'
loop_
_space_group_symop_operation_xyz
x,y,z
1/2-x,1/2-y,1/2+z
1/2+x,1/2-y,-z
-x,y,1/2-z
-x,-y,-z
1/2+x,1/2+y,1/2-z
1/2-x,1/2+y,z
x,-y,1/2+z
loop_
_atom_site_type_symbol
_atom_site_label
_atom_site_fract_x
_atom_site_fract_y
_atom_site_fract_z
Si Si1 0.817414 0.739676 0.420118
Si Si2 0.722411 0.289953 0.538451
Si Si3 0.632205 0.803264 0.286843
Si Si4 0.631386 0.030224 0.076775
Si Si5 0.442046 0.571215 0.426723
Si Si6 0.450693 0.176323 0.832233
Si Si7 0.003425 0.743094 0.031947
Si Si8 0.223209 0.992814 0.660583
O O1 0.760850 0.790542 0.472777
O O2 0.774194 0.600851 0.386368
O O3 0.905494 0.698804 0.446817
O O4 0.827550 0.878140 0.374671
O O5 0.800242 0.330889 0.576489
O O6 0.651600 0.420986 0.550359
O O7 0.680350 0.122409 0.553490
O O8 0.602462 0.804036 0.223493
O O9 0.547849 0.849320 0.319403
O O10 0.665273 0.630974 0.307013
O O11 0.708558 0.921152 0.300671
O O12 0.559187 0.098349 0.038204
O O13 0.588439 0.968251 0.132488
O O14 0.444527 0.663196 0.368971
O O15 0.492309 0.681497 0.470654
O O16 0.474138 0.392325 0.430081
#
# Coordination Sequence:
#
# PCOD9455046 Si02
#       8
#     8   8   8   8   8   8   8   8
#     4  10  20  35  57  84 112 142 184 240 291 344
#     4  10  21  34  52  84 117 151 189 228 288 360
#     4  10  22  40  59  84 110 147 201 247 290 339
#     4  11  22  36  57  83 119 158 190 234 289 354
#     4   9  20  36  56  82 117 153 187 233 286 347
#     4  10  22  39  59  82 116 154 193 241 289 341
#     4  10  20  35  57  87 116 148 190 229 285 358
#     4  10  21  37  61  83 109 146 190 244 294 336
#
# _framework density 19.565849
#
# number of rings (size 3 to 8) (size 9 to 14) (size 15 to 20)
#    0.000    2.000    0.000    3.000    0.000   11.500 
#    0.000    2.500    0.000    9.000    0.000    0.000 
#    0.000    0.000    0.000    0.000    0.000    0.000 
#
# Total GULP energy -357225.740450 kJ/mol
# GULP energy per Si atom -5581.652195 kJ/mol
# Density = 1.952132 g / cm^3
# Si number density = 19.565849 Si / 1000 Ang^3
#
#
#
# Elastic Constant Matrix: (Units=GPa)
#
#
# Indices 1 2 3 4 5 6 
#
# 1 102.9990 49.2349 51.4033 0.0000 0.0000 0.0000
# 2 49.2349 69.8990 36.3724 0.0000 0.0000 0.0000
# 3 51.4033 36.3724 103.2365 0.0000 0.0000 0.0000
# 4 0.0000 0.0000 0.0000 17.4217 0.0000 0.0000
# 5 0.0000 0.0000 0.0000 0.0000 22.9332 0.0000
# 6 0.0000 0.0000 0.0000 0.0000 0.0000 30.0497
#
#
#
# Elastic Compliance Matrix: (Units=1/GPa)
#
#
# Indices 1 2 3 4 5 6 
#
# 1 0.016547 -0.009022 -0.005060 0.000000 0.000000 0.000000
# 2 -0.009022 0.022437 -0.003413 0.000000 0.000000 0.000000
# 3 -0.005060 -0.003413 0.013409 0.000000 0.000000 0.000000
# 4 0.000000 0.000000 0.000000 0.057400 0.000000 0.000000
# 5 0.000000 0.000000 0.000000 0.000000 0.043605 0.000000
# 6 0.000000 0.000000 0.000000 0.000000 0.000000 0.033278
#
#
# Mechanical properties :
#
#
# Convention : Reuss Voigt Hill
#
# Bulk Modulus (GPa) = 57.46415 61.12841 59.29628
# Shear Modulus (GPa) = 21.98126 23.35585 22.66855
#
# Velocity S-wave (km/s) = 3.35543 3.45875 3.40748
# Velocity P-wave (km/s) = 6.66673 6.87465 6.77149
#
# Compressibility (1/GPa) = 0.01740215
#
# Stress axis : x y z
#
# Youngs Moduli (GPa) = 60.43412 44.56903 74.57924
#
# Poissons Ratio (x) = 0.40210 0.37740
# Poissons Ratio (y) = 0.54524 0.25453
# Poissons Ratio (z) = 0.30582 0.15211
#
# Static dielectric constant tensor:
#      x y z
#    x 1.707560 0.000000 0.000000 
#    y 0.000000 1.718780 0.000000 
#    z 0.000000 0.000000 1.664050 
# 
# From -- ./inp_files/23111.got.cif
#   From: 2010.05.17/outbox.cif.g08.bks.cpg/sg60_12_cif.got.tgz:23111.got - 2010.06.03 14:59:27.
