data_PCOD9455473
_publ_section_title
;
Structure prediction by ZEFSAII (Michael W. Deem and Ramdas Pophale) SiO2 
 PCOD9455473
Probable space group: P B C N
;
_chemical_formula_sum "Si O2"
_cell_formula_units_Z 48
_cell_length_a 5.632770
_cell_length_b 30.487191
_cell_length_c 14.204564
_cell_angle_alpha 90.000000
_cell_angle_beta 90.000000
_cell_angle_gamma 90.000000
_cell_volume 2439.311918
_symmetry_space_group_name_H-M "P B C N"
_symmetry_group_IT_number 60
_symmetry_cell_setting 'orthorhombic'
loop_
_space_group_symop_operation_xyz
x,y,z
1/2-x,1/2-y,1/2+z
1/2+x,1/2-y,-z
-x,y,1/2-z
-x,-y,-z
1/2+x,1/2+y,1/2-z
1/2-x,1/2+y,z
x,-y,1/2+z
loop_
_atom_site_type_symbol
_atom_site_label
_atom_site_fract_x
_atom_site_fract_y
_atom_site_fract_z
Si Si1 0.500000 0.735856 0.750000
Si Si2 0.030370 0.639114 0.559584
Si Si3 0.000000 0.683902 0.750000
Si Si4 0.536591 0.769985 0.541248
Si Si5 0.383400 0.415991 0.151543
Si Si6 0.087532 0.498564 0.653273
Si Si7 0.734280 0.951020 0.015749
O O1 0.245253 0.710821 0.731976
O O2 0.539670 0.762219 0.653048
O O3 0.923825 0.655114 0.659303
O O4 0.025620 0.679052 0.488335
O O5 0.288856 0.626212 0.597525
O O6 0.919552 0.593848 0.521763
O O7 0.288678 0.748981 0.500089
O O8 0.500000 0.403881 0.250000
O O9 0.197636 0.454144 0.178778
O O10 0.532456 0.439511 0.071366
O O11 0.255215 0.467949 0.590327
O O12 0.000000 0.477882 0.750000
O O13 0.879327 0.510944 0.580871
#
# Coordination Sequence:
#
# PCOD9455473 Si02
#       7
#     4   8   4   8   8   8   8
#     4  12  24  46  68  98 129 178 225 276 336 412
#     4  11  25  38  62  97 129 164 216 278 333 396
#     4  12  24  40  72  98 129 172 225 280 344 394
#     4  12  25  45  70  98 134 179 223 274 344 410
#     4  11  21  36  64  96 128 165 213 275 336 395
#     4  10  20  39  60  86 123 168 214 259 324 399
#     4  10  22  38  59  88 125 164 211 266 329 392
#
# _framework density 19.677682000000001
#
# number of rings (size 3 to 8) (size 9 to 14) (size 15 to 20)
#    0.000    1.000    5.000    1.500    8.167    0.000 
#    1.500    0.000    0.000    0.000    0.000    0.000 
#    0.000    0.000    0.000    0.000    0.000    0.000 
#
# Total GULP energy -267418.636449 kJ/mol
# GULP energy per Si atom -5571.221593 kJ/mol
# Density = 1.963289 g / cm^3
# Si number density = 19.677682 Si / 1000 Ang^3
#
#
#
# Elastic Constant Matrix: (Units=GPa)
#
#
# Indices 1 2 3 4 5 6 
#
# 1 79.0193 20.0938 34.1967 0.0000 0.0000 0.0000
# 2 20.0938 68.9626 38.4675 0.0000 0.0000 0.0000
# 3 34.1967 38.4675 133.1407 0.0000 0.0000 0.0000
# 4 0.0000 0.0000 0.0000 -39.8692 0.0000 0.0000
# 5 0.0000 0.0000 0.0000 0.0000 29.9863 0.0000
# 6 0.0000 0.0000 0.0000 0.0000 0.0000 26.7867
#
#
#
# Elastic Compliance Matrix: (Units=1/GPa)
#
#
# Indices 1 2 3 4 5 6 
#
# 1 0.014613 -0.002580 -0.003008 0.000000 0.000000 0.000000
# 2 -0.002580 0.017742 -0.004463 0.000000 0.000000 0.000000
# 3 -0.003008 -0.004463 0.009573 0.000000 0.000000 0.000000
# 4 0.000000 0.000000 0.000000 -0.025082 0.000000 0.000000
# 5 0.000000 0.000000 0.000000 0.000000 0.033349 0.000000
# 6 0.000000 0.000000 0.000000 0.000000 0.000000 0.037332
#
#
# Mechanical properties :
#
#
# Convention : Reuss Voigt Hill
#
# Bulk Modulus (GPa) = 45.81821 51.84873 48.83347
# Shear Modulus (GPa) = 43.51449 15.93838 29.72644
#
# Velocity S-wave (km/s) = 4.70761 2.84909 3.89095
# Velocity P-wave (km/s) = 7.27212 6.10158 6.71242
#
# Compressibility (1/GPa) = 0.02182538
#
# Stress axis : x y z
#
# Youngs Moduli (GPa) = 68.43267 56.36322 104.46050
#
# Poissons Ratio (x) = 0.14542 0.31420
# Poissons Ratio (y) = 0.17656 0.46625
# Poissons Ratio (z) = 0.20584 0.25157
#
# Static dielectric constant tensor:
#      x y z
#    x 1.533140 0.000000 0.000000 
#    y 0.000000 1.746580 0.000000 
#    z 0.000000 0.000000 1.743070 
# 
# From -- ./inp_files/13959.got.cif
#   From: 2010.05.17/outbox.cif.g08.bks.cpg/sg60_7_cif.got.tgz:13959.got - 2010.06.03 14:59:27.
