data_PCOD9455133
_publ_section_title
;
Structure prediction by ZEFSAII (Michael W. Deem and Ramdas Pophale) SiO2 
 PCOD9455133
Probable space group: P B C N
;
_chemical_formula_sum "Si O2"
_cell_formula_units_Z 48
_cell_length_a 5.341617
_cell_length_b 24.727861
_cell_length_c 15.949889
_cell_angle_alpha 90.000000
_cell_angle_beta 90.000000
_cell_angle_gamma 90.000000
_cell_volume 2106.769203
_symmetry_space_group_name_H-M "P B C N"
_symmetry_group_IT_number 60
_symmetry_cell_setting 'orthorhombic'
loop_
_space_group_symop_operation_xyz
x,y,z
1/2-x,1/2-y,1/2+z
1/2+x,1/2-y,-z
-x,y,1/2-z
-x,-y,-z
1/2+x,1/2+y,1/2-z
1/2-x,1/2+y,z
x,-y,1/2+z
loop_
_atom_site_type_symbol
_atom_site_label
_atom_site_fract_x
_atom_site_fract_y
_atom_site_fract_z
Si Si1 0.071387 0.334251 0.951705
Si Si2 0.212036 0.725068 0.911939
Si Si3 0.962893 0.122971 0.927536
Si Si4 0.407879 0.544486 0.064386
Si Si5 0.571116 0.063902 0.153864
Si Si6 0.500000 0.392242 0.250000
Si Si7 0.000000 0.678460 0.750000
O O1 0.255387 0.288885 0.914538
O O2 0.013052 0.375108 0.877430
O O3 0.194731 0.368811 0.028259
O O4 0.878333 0.294700 0.997238
O O5 0.442671 0.682706 0.900223
O O6 0.028827 0.712184 0.834850
O O7 0.995177 0.084769 0.845394
O O8 0.118395 0.097610 0.004630
O O9 0.638944 0.553255 0.129423
O O10 0.139373 0.530335 0.103132
O O11 0.500000 0.500000 0.000000
O O12 0.500000 0.056894 0.250000
O O13 0.243279 0.358855 0.245499
#
# Coordination Sequence:
#
# PCOD9455133 Si02
#       7
#     8   8   8   8   8   4   4
#     4  11  21  38  62  89 132 181 224 266 336 400
#     4  11  20  38  58  89 128 174 226 270 326 398
#     4  10  21  38  61  88 131 168 215 277 337 394
#     4  11  24  46  77 100 133 178 229 283 350 413
#     4  11  25  48  70 103 142 179 225 285 343 413
#     4  10  20  36  58  84 121 162 207 274 332 386
#     4  10  22  36  56  84 125 162 221 270 322 376
#
# _framework density 22.783701000000001
#
# number of rings (size 3 to 8) (size 9 to 14) (size 15 to 20)
#    0.000    1.333    5.000    1.000    0.000    0.000 
#   18.000    0.000    1.833    0.000    0.000    0.000 
#    0.000    0.000    0.000    0.000    0.000    0.000 
#
# Total GULP energy -267496.284776 kJ/mol
# GULP energy per Si atom -5572.839266 kJ/mol
# Density = 2.273184 g / cm^3
# Si number density = 22.783701 Si / 1000 Ang^3
#
#
#
# Elastic Constant Matrix: (Units=GPa)
#
#
# Indices 1 2 3 4 5 6 
#
# 1 77.0898 -12.0203 13.9705 0.0000 0.0000 0.0000
# 2 -12.0203 38.1889 -5.6636 0.0000 0.0000 0.0000
# 3 13.9705 -5.6636 108.6995 0.0000 0.0000 0.0000
# 4 0.0000 0.0000 0.0000 18.2901 0.0000 0.0000
# 5 0.0000 0.0000 0.0000 0.0000 31.0757 0.0000
# 6 0.0000 0.0000 0.0000 0.0000 0.0000 22.5894
#
#
#
# Elastic Compliance Matrix: (Units=1/GPa)
#
#
# Indices 1 2 3 4 5 6 
#
# 1 0.013903 0.004143 -0.001571 0.000000 0.000000 0.000000
# 2 0.004143 0.027624 0.000907 0.000000 0.000000 0.000000
# 3 -0.001571 0.000907 0.009449 0.000000 0.000000 0.000000
# 4 0.000000 0.000000 0.000000 0.054674 0.000000 0.000000
# 5 0.000000 0.000000 0.000000 0.000000 0.032179 0.000000
# 6 0.000000 0.000000 0.000000 0.000000 0.000000 0.044269
#
#
# Mechanical properties :
#
#
# Convention : Reuss Voigt Hill
#
# Bulk Modulus (GPa) = 17.26124 24.06127 20.66125
# Shear Modulus (GPa) = 25.71336 29.57047 27.64192
#
# Velocity S-wave (km/s) = 3.36309 3.60652 3.48693
# Velocity P-wave (km/s) = 4.76162 5.28453 5.02988
#
# Compressibility (1/GPa) = 0.05793328
#
# Stress axis : x y z
#
# Youngs Moduli (GPa) = 71.92918 36.20020 105.83316
#
# Poissons Ratio (x) = -0.14998 0.16626
# Poissons Ratio (y) = -0.29800 -0.09597
# Poissons Ratio (z) = 0.11300 -0.03283
#
# Static dielectric constant tensor:
#      x y z
#    x 1.963240 0.000000 0.000000 
#    y 0.000000 1.908520 0.000000 
#    z 0.000000 0.000000 1.925210 
# 
# From -- ./inp_files/13989.got.cif
#   From: 2010.05.17/outbox.cif.g08.bks.cpg/sg60_7_cif.got.tgz:13989.got - 2010.06.03 14:59:27.
