data_PCOD9455733
_publ_section_title
;
Structure prediction by ZEFSAII (Michael W. Deem and Ramdas Pophale) SiO2 
 PCOD9455733
Probable space group: P B C N
;
_chemical_formula_sum "Si O2"
_cell_formula_units_Z 40
_cell_length_a 16.020721
_cell_length_b 8.756092
_cell_length_c 13.498163
_cell_angle_alpha 90.000000
_cell_angle_beta 90.000000
_cell_angle_gamma 90.000000
_cell_volume 1893.507552
_symmetry_space_group_name_H-M "P B C N"
_symmetry_group_IT_number 60
_symmetry_cell_setting 'orthorhombic'
loop_
_space_group_symop_operation_xyz
x,y,z
1/2-x,1/2-y,1/2+z
1/2+x,1/2-y,-z
-x,y,1/2-z
-x,-y,-z
1/2+x,1/2+y,1/2-z
1/2-x,1/2+y,z
x,-y,1/2+z
loop_
_atom_site_type_symbol
_atom_site_label
_atom_site_fract_x
_atom_site_fract_y
_atom_site_fract_z
Si Si1 0.749550 0.749682 0.626814
Si Si2 0.977947 0.066150 0.894062
Si Si3 0.977904 0.430103 0.864851
Si Si4 0.858618 0.502806 0.519396
Si Si5 0.358933 0.499011 0.766305
O O1 0.802963 0.645487 0.552290
O O2 0.695602 0.643922 0.699865
O O3 0.689907 0.855635 0.559965
O O4 0.808645 0.853482 0.695318
O O5 0.055796 0.013749 0.827807
O O6 0.975616 0.250097 0.891522
O O7 0.891229 0.006027 0.846554
O O8 0.000000 0.000000 0.000000
O O9 0.000000 0.443644 0.750000
O O10 0.054832 0.510293 0.919993
O O11 0.890515 0.497210 0.905951
#
# Coordination Sequence:
#
# PCOD9455733 Si02
#       5
#     8   8   8   8   8
#     4  10  20  43  67 104 132 169 219 282 335 389
#     4  11  21  40  67  95 130 179 219 272 327 404
#     4  11  21  43  66  95 132 182 217 272 331 406
#     4  10  22  40  69  94 136 170 219 274 331 400
#     4  10  21  41  67  93 139 165 219 278 331 393
#
# _framework density 21.124815999999999
#
# number of rings (size 3 to 8) (size 9 to 14) (size 15 to 20)
#    0.000    1.600    4.000    1.200    0.000    0.000 
#   10.800   22.000    0.000    0.000    0.000    0.000 
#    0.000    0.000    0.000    0.000    0.000    0.000 
#
# Total GULP energy -223470.000101 kJ/mol
# GULP energy per Si atom -5586.750003 kJ/mol
# Density = 2.107674 g / cm^3
# Si number density = 21.124816 Si / 1000 Ang^3
#
#
#
# Elastic Constant Matrix: (Units=GPa)
#
#
# Indices 1 2 3 4 5 6 
#
# 1 127.8334 55.9789 47.7463 0.0000 0.0000 0.0000
# 2 55.9789 69.9878 39.1991 0.0000 0.0000 0.0000
# 3 47.7463 39.1991 110.8102 0.0000 0.0000 0.0000
# 4 0.0000 0.0000 0.0000 19.3445 0.0000 0.0000
# 5 0.0000 0.0000 0.0000 0.0000 46.8587 0.0000
# 6 0.0000 0.0000 0.0000 0.0000 0.0000 13.5896
#
#
#
# Elastic Compliance Matrix: (Units=1/GPa)
#
#
# Indices 1 2 3 4 5 6 
#
# 1 0.012495 -0.008703 -0.002305 0.000000 0.000000 0.000000
# 2 -0.008703 0.023880 -0.004698 0.000000 0.000000 0.000000
# 3 -0.002305 -0.004698 0.011680 0.000000 0.000000 0.000000
# 4 0.000000 0.000000 0.000000 0.051694 0.000000 0.000000
# 5 0.000000 0.000000 0.000000 0.000000 0.021341 0.000000
# 6 0.000000 0.000000 0.000000 0.000000 0.000000 0.073586
#
#
# Mechanical properties :
#
#
# Convention : Reuss Voigt Hill
#
# Bulk Modulus (GPa) = 60.08488 66.05331 63.06910
# Shear Modulus (GPa) = 21.58582 27.00570 24.29576
#
# Velocity S-wave (km/s) = 3.20006 3.57933 3.39500
# Velocity P-wave (km/s) = 6.49295 6.95832 6.72966
#
# Compressibility (1/GPa) = 0.01664312
#
# Stress axis : x y z
#
# Youngs Moduli (GPa) = 80.03491 41.87620 85.61985
#
# Poissons Ratio (x) = 0.36443 0.19737
# Poissons Ratio (y) = 0.69650 0.40222
# Poissons Ratio (z) = 0.18450 0.19672
#
# Static dielectric constant tensor:
#      x y z
#    x 1.762700 0.000000 0.000000 
#    y 0.000000 1.743460 0.000000 
#    z 0.000000 0.000000 1.766760 
# 
# From -- ./inp_files/17209.got.cif
#   From: 2010.05.17/outbox.cif.g08.bks.cpg/sg60_9_cif.got.tgz:17209.got - 2010.06.03 14:59:27.
