data_PCOD9455601
_publ_section_title
;
Structure prediction by ZEFSAII (Michael W. Deem and Ramdas Pophale) SiO2 
 PCOD9455601
Probable space group: P B C N
;
_chemical_formula_sum "Si O2"
_cell_formula_units_Z 48
_cell_length_a 8.470179
_cell_length_b 9.964975
_cell_length_c 30.012323
_cell_angle_alpha 90.000000
_cell_angle_beta 90.000000
_cell_angle_gamma 90.000000
_cell_volume 2533.193784
_symmetry_space_group_name_H-M "P B C N"
_symmetry_group_IT_number 60
_symmetry_cell_setting 'orthorhombic'
loop_
_space_group_symop_operation_xyz
x,y,z
1/2-x,1/2-y,1/2+z
1/2+x,1/2-y,-z
-x,y,1/2-z
-x,-y,-z
1/2+x,1/2+y,1/2-z
1/2-x,1/2+y,z
x,-y,1/2+z
loop_
_atom_site_type_symbol
_atom_site_label
_atom_site_fract_x
_atom_site_fract_y
_atom_site_fract_z
Si Si1 0.943579 0.222269 0.393314
Si Si2 0.439866 0.040864 0.951819
Si Si3 0.343579 0.855890 0.323802
Si Si4 0.407401 0.147858 0.294419
Si Si5 0.572130 0.806998 0.889178
Si Si6 0.374611 0.554344 0.907224
O O1 0.760128 0.187961 0.391191
O O2 0.982647 0.322380 0.433873
O O3 0.002263 0.297002 0.348332
O O4 0.048400 0.089624 0.399490
O O5 0.493513 0.925749 0.917372
O O6 0.250269 0.053848 0.947597
O O7 0.500000 0.000000 0.000000
O O8 0.250405 0.737011 0.299219
O O9 0.373742 0.988489 0.295143
O O10 0.231841 0.905302 0.364530
O O11 0.500000 0.185161 0.250000
O O12 0.510445 0.178486 0.338611
O O13 0.507791 0.667783 0.909517
#
# Coordination Sequence:
#
# PCOD9455601 Si02
#       6
#     8   8   8   8   8   8
#     4  11  21  39  67  92 130 169 213 265 322 384
#     4  11  23  41  64  93 127 171 219 264 325 389
#     4  10  20  42  63  91 125 175 211 259 325 374
#     4  11  23  42  66  93 129 168 221 265 323 387
#     4  11  23  40  63  96 127 169 217 266 325 387
#     4  10  20  40  67  85 126 171 208 257 321 381
#
# _framework density 18.948412999999999
#
# number of rings (size 3 to 8) (size 9 to 14) (size 15 to 20)
#    0.000    1.333    5.000    3.000    0.000    4.000 
#    3.000    3.333    0.000    0.000    0.000    0.000 
#    0.000    0.000    0.000    0.000    0.000    0.000 
#
# Total GULP energy -268163.505886 kJ/mol
# GULP energy per Si atom -5586.739706 kJ/mol
# Density = 1.890529 g / cm^3
# Si number density = 18.948413 Si / 1000 Ang^3
#
#
#
# Elastic Constant Matrix: (Units=GPa)
#
#
# Indices 1 2 3 4 5 6 
#
# 1 78.6277 3.8930 17.6720 0.0000 0.0000 0.0000
# 2 3.8930 81.6226 -2.2160 0.0000 0.0000 0.0000
# 3 17.6720 -2.2160 72.4221 0.0000 0.0000 0.0000
# 4 0.0000 0.0000 0.0000 2.3956 0.0000 0.0000
# 5 0.0000 0.0000 0.0000 0.0000 20.3717 0.0000
# 6 0.0000 0.0000 0.0000 0.0000 0.0000 22.8401
#
#
#
# Elastic Compliance Matrix: (Units=1/GPa)
#
#
# Indices 1 2 3 4 5 6 
#
# 1 0.013500 -0.000734 -0.003317 0.000000 0.000000 0.000000
# 2 -0.000734 0.012302 0.000556 0.000000 0.000000 0.000000
# 3 -0.003317 0.000556 0.014634 0.000000 0.000000 0.000000
# 4 0.000000 0.000000 0.000000 0.417433 0.000000 0.000000
# 5 0.000000 0.000000 0.000000 0.000000 0.049088 0.000000
# 6 0.000000 0.000000 0.000000 0.000000 0.000000 0.043783
#
#
# Mechanical properties :
#
#
# Convention : Reuss Voigt Hill
#
# Bulk Modulus (GPa) = 29.89923 30.15224 30.02574
# Shear Modulus (GPa) = 8.78924 23.34304 16.06614
#
# Velocity S-wave (km/s) = 2.15606 3.51369 2.91501
# Velocity P-wave (km/s) = 4.69166 5.69286 5.21634
#
# Compressibility (1/GPa) = 0.03344568
#
# Stress axis : x y z
#
# Youngs Moduli (GPa) = 74.07444 81.29023 68.33295
#
# Poissons Ratio (x) = 0.05966 0.22663
# Poissons Ratio (y) = 0.05436 -0.03796
# Poissons Ratio (z) = 0.24568 -0.04516
#
# Static dielectric constant tensor:
#      x y z
#    x 1.647090 0.000000 0.000000 
#    y 0.000000 1.667370 0.000000 
#    z 0.000000 0.000000 1.643030 
# 
# From -- ./inp_files/25926.got.cif
#   From: 2010.05.17/outbox.cif.g08.bks.cpg/sg60_13_cif.got.tgz:25926.got - 2010.06.03 14:59:27.
