data_PCOD9455471
_publ_section_title
;
Structure prediction by ZEFSAII (Michael W. Deem and Ramdas Pophale) SiO2 
 PCOD9455471
Probable space group: P B C N
;
_chemical_formula_sum "Si O2"
_cell_formula_units_Z 60
_cell_length_a 20.669663
_cell_length_b 11.212066
_cell_length_c 13.993328
_cell_angle_alpha 90.000000
_cell_angle_beta 90.000000
_cell_angle_gamma 90.000000
_cell_volume 3242.948527
_symmetry_space_group_name_H-M "P B C N"
_symmetry_group_IT_number 60
_symmetry_cell_setting 'orthorhombic'
loop_
_space_group_symop_operation_xyz
x,y,z
1/2-x,1/2-y,1/2+z
1/2+x,1/2-y,-z
-x,y,1/2-z
-x,-y,-z
1/2+x,1/2+y,1/2-z
1/2-x,1/2+y,z
x,-y,1/2+z
loop_
_atom_site_type_symbol
_atom_site_label
_atom_site_fract_x
_atom_site_fract_y
_atom_site_fract_z
Si Si1 0.638825 0.000192 0.737534
Si Si2 0.075268 0.899922 0.873458
Si Si3 0.796545 0.512587 0.444133
Si Si4 0.200418 0.316989 0.897455
Si Si5 0.500000 0.892032 0.250000
Si Si6 0.936490 0.162959 0.342537
Si Si7 0.157278 0.915670 0.497523
Si Si8 0.668198 0.206052 0.592924
O O1 0.561732 0.024322 0.726576
O O2 0.669864 0.108186 0.676427
O O3 0.663006 0.877537 0.689554
O O4 0.668185 0.002855 0.843603
O O5 0.087513 0.891267 0.758750
O O6 0.099748 0.771194 0.909502
O O7 0.998321 0.911452 0.878924
O O8 0.112912 0.994570 0.937238
O O9 0.813831 0.402552 0.512892
O O10 0.718389 0.522318 0.449987
O O11 0.818993 0.634932 0.495586
O O12 0.181608 0.182648 0.922356
O O13 0.277877 0.306335 0.885393
O O14 0.465250 0.795411 0.178582
O O15 0.882285 0.153547 0.421363
#
# Coordination Sequence:
#
# PCOD9455471 Si02
#       8
#     8   8   8   8   4   8   8   8
#     4  11  22  41  62  86 120 162 197 249 310 367
#     4  10  20  40  58  90 120 155 202 249 296 358
#     4  10  23  37  60  89 118 155 204 247 306 365
#     4  10  23  38  58  90 118 155 196 254 308 352
#     4  10  20  40  62  86 120 154 210 246 286 384
#     4  10  21  37  67  86 114 172 207 236 312 367
#     4  11  22  39  60  90 126 155 206 257 301 369
#     4  10  20  39  60  85 121 151 197 253 294 356
#
# _framework density 18.501681000000001
#
# number of rings (size 3 to 8) (size 9 to 14) (size 15 to 20)
#    0.000    1.867    4.000    1.200    1.867    1.067 
#    4.800    3.333    0.000    0.000    0.000    0.000 
#    0.000    0.000    0.000    0.000    0.000    0.000 
#
# Total GULP energy -334196.008888 kJ/mol
# GULP energy per Si atom -5569.933481 kJ/mol
# Density = 1.845957 g / cm^3
# Si number density = 18.501681 Si / 1000 Ang^3
#
#
#
# Elastic Constant Matrix: (Units=GPa)
#
#
# Indices 1 2 3 4 5 6 
#
# 1 60.7495 8.3633 38.3598 0.0000 0.0000 0.0000
# 2 8.3633 41.3592 8.6923 0.0000 0.0000 0.0000
# 3 38.3598 8.6923 78.5370 0.0000 0.0000 0.0000
# 4 0.0000 0.0000 0.0000 13.2436 0.0000 0.0000
# 5 0.0000 0.0000 0.0000 0.0000 26.0167 0.0000
# 6 0.0000 0.0000 0.0000 0.0000 0.0000 25.7827
#
#
#
# Elastic Compliance Matrix: (Units=1/GPa)
#
#
# Indices 1 2 3 4 5 6 
#
# 1 0.024042 -0.002451 -0.011472 0.000000 0.000000 0.000000
# 2 -0.002451 0.025004 -0.001570 0.000000 0.000000 0.000000
# 3 -0.011472 -0.001570 0.018510 0.000000 0.000000 0.000000
# 4 0.000000 0.000000 0.000000 0.075508 0.000000 0.000000
# 5 0.000000 0.000000 0.000000 0.000000 0.038437 0.000000
# 6 0.000000 0.000000 0.000000 0.000000 0.000000 0.038786
#
#
# Mechanical properties :
#
#
# Convention : Reuss Voigt Hill
#
# Bulk Modulus (GPa) = 27.34448 32.38628 29.86538
# Shear Modulus (GPa) = 18.97806 21.35728 20.16767
#
# Velocity S-wave (km/s) = 3.20620 3.40125 3.30517
# Velocity P-wave (km/s) = 5.34021 5.74170 5.54459
#
# Compressibility (1/GPa) = 0.03657045
#
# Stress axis : x y z
#
# Youngs Moduli (GPa) = 41.59375 39.99354 54.02561
#
# Poissons Ratio (x) = 0.09801 0.61976
# Poissons Ratio (y) = 0.10193 0.08484
# Poissons Ratio (z) = 0.47715 0.06281
#
# Static dielectric constant tensor:
#      x y z
#    x 1.696510 0.000000 0.000000 
#    y 0.000000 1.651670 0.000000 
#    z 0.000000 0.000000 1.638460 
# 
# From -- ./inp_files/12865.got.cif
#   From: 2010.05.17/outbox.cif.g08.bks.cpg/sg60_7_cif.got.tgz:12865.got - 2010.06.03 14:59:27.
