data_PCOD9455854
_publ_section_title
;
Structure prediction by ZEFSAII (Michael W. Deem and Ramdas Pophale) SiO2 
 PCOD9455854
Probable space group: P B C N
;
_chemical_formula_sum "Si O2"
_cell_formula_units_Z 36
_cell_length_a 14.052549
_cell_length_b 9.888958
_cell_length_c 9.195255
_cell_angle_alpha 90.000000
_cell_angle_beta 90.000000
_cell_angle_gamma 90.000000
_cell_volume 1277.819226
_symmetry_space_group_name_H-M "P B C N"
_symmetry_group_IT_number 60
_symmetry_cell_setting 'orthorhombic'
loop_
_space_group_symop_operation_xyz
x,y,z
1/2-x,1/2-y,1/2+z
1/2+x,1/2-y,-z
-x,y,1/2-z
-x,-y,-z
1/2+x,1/2+y,1/2-z
1/2-x,1/2+y,z
x,-y,1/2+z
loop_
_atom_site_type_symbol
_atom_site_label
_atom_site_fract_x
_atom_site_fract_y
_atom_site_fract_z
Si Si1 0.482639 0.812072 0.454550
Si Si2 0.706608 0.786782 0.943029
Si Si3 0.500000 0.434118 0.750000
Si Si4 0.201280 0.017881 0.355260
Si Si5 0.149322 0.598388 0.688354
O O1 0.407322 0.810653 0.584777
O O2 0.512426 0.664562 0.391125
O O3 0.418484 0.873562 0.324166
O O4 0.580686 0.895953 0.452515
O O5 0.761522 0.897581 0.041497
O O6 0.696062 0.650986 0.047610
O O7 0.778308 0.722201 0.828045
O O8 0.401356 0.509187 0.782242
O O9 0.282802 0.025554 0.229826
#
# Coordination Sequence:
#
# PCOD9455854 Si02
#       5
#     8   8   4   8   8
#     4   8  18  38  57  81 116 157 184 218 297 351
#     4  10  21  36  58  84 111 147 194 233 279 339
#     4   8  16  34  56  78 112 142 184 238 268 320
#     4  10  21  36  55  86 114 147 193 232 281 339
#     4   9  18  36  58  79 114 151 182 233 280 331
#
# _framework density 28.173002
#
# number of rings (size 3 to 8) (size 9 to 14) (size 15 to 20)
#    0.000    3.111    0.000    1.333    0.000    8.889 
#    0.000   22.222    0.000    0.000    0.000    0.000 
#    0.000    0.000    0.000    0.000    0.000    0.000 
#
# Total GULP energy -201300.212401 kJ/mol
# GULP energy per Si atom -5591.672567 kJ/mol
# Density = 2.810888 g / cm^3
# Si number density = 28.173002 Si / 1000 Ang^3
#
#
#
# Elastic Constant Matrix: (Units=GPa)
#
#
# Indices 1 2 3 4 5 6 
#
# 1 107.9558 -2.8955 -4.0480 0.0000 0.0000 0.0000
# 2 -2.8955 72.8401 -28.3649 0.0000 0.0000 0.0000
# 3 -4.0480 -28.3649 52.9063 0.0000 0.0000 0.0000
# 4 0.0000 0.0000 0.0000 32.2735 0.0000 0.0000
# 5 0.0000 0.0000 0.0000 0.0000 48.6765 0.0000
# 6 0.0000 0.0000 0.0000 0.0000 0.0000 48.8083
#
#
#
# Elastic Compliance Matrix: (Units=1/GPa)
#
#
# Indices 1 2 3 4 5 6 
#
# 1 0.009328 0.000820 0.001153 0.000000 0.000000 0.000000
# 2 0.000820 0.017423 0.009404 0.000000 0.000000 0.000000
# 3 0.001153 0.009404 0.024031 0.000000 0.000000 0.000000
# 4 0.000000 0.000000 0.000000 0.030985 0.000000 0.000000
# 5 0.000000 0.000000 0.000000 0.000000 0.020544 0.000000
# 6 0.000000 0.000000 0.000000 0.000000 0.000000 0.020488
#
#
# Mechanical properties :
#
#
# Convention : Reuss Voigt Hill
#
# Bulk Modulus (GPa) = 13.59850 18.12060 15.85955
# Shear Modulus (GPa) = 40.14186 43.88571 42.01379
#
# Velocity S-wave (km/s) = 3.77879 3.95108 3.86590
# Velocity P-wave (km/s) = 4.88634 5.22117 5.05652
#
# Compressibility (1/GPa) = 0.07353751
#
# Stress axis : x y z
#
# Youngs Moduli (GPa) = 107.20080 57.39425 41.61226
#
# Poissons Ratio (x) = -0.04706 -0.04799
# Poissons Ratio (y) = -0.08790 -0.39132
# Poissons Ratio (z) = -0.12364 -0.53974
#
# Static dielectric constant tensor:
#      x y z
#    x 2.278000 0.000000 0.000000 
#    y 0.000000 2.410000 0.000000 
#    z 0.000000 0.000000 2.451040 
# 
# From -- ./inp_files/11643.got.cif
#   From: 2010.05.17/outbox.cif.g08.bks.cpg/sg60_6_cif.got.tgz:11643.got - 2010.06.03 14:59:27.
