data_PCOD9455350
_publ_section_title
;
Structure prediction by ZEFSAII (Michael W. Deem and Ramdas Pophale) SiO2 
 PCOD9455350
Probable space group: P B C N
;
_chemical_formula_sum "Si O2"
_cell_formula_units_Z 60
_cell_length_a 6.714810
_cell_length_b 17.908449
_cell_length_c 23.685577
_cell_angle_alpha 90.000000
_cell_angle_beta 90.000000
_cell_angle_gamma 90.000000
_cell_volume 2848.234036
_symmetry_space_group_name_H-M "P B C N"
_symmetry_group_IT_number 60
_symmetry_cell_setting 'orthorhombic'
loop_
_space_group_symop_operation_xyz
x,y,z
1/2-x,1/2-y,1/2+z
1/2+x,1/2-y,-z
-x,y,1/2-z
-x,-y,-z
1/2+x,1/2+y,1/2-z
1/2-x,1/2+y,z
x,-y,1/2+z
loop_
_atom_site_type_symbol
_atom_site_label
_atom_site_fract_x
_atom_site_fract_y
_atom_site_fract_z
Si Si1 0.560428 0.400011 0.016285
Si Si2 0.062557 0.287442 0.670354
Si Si3 0.500000 0.333507 0.250000
Si Si4 0.187397 0.458264 0.973629
Si Si5 0.359400 0.911137 0.305304
Si Si6 0.442881 0.655713 0.105450
Si Si7 0.811452 0.420950 0.651731
Si Si8 0.715252 0.204518 0.601448
O O1 0.318448 0.405616 0.015304
O O2 0.609409 0.390936 0.950176
O O3 0.654002 0.476142 0.040426
O O4 0.674690 0.336252 0.050110
O O5 0.133010 0.226634 0.715959
O O6 0.248716 0.315098 0.635587
O O7 0.940813 0.361822 0.686681
O O8 0.895309 0.242209 0.635957
O O9 0.639724 0.385833 0.213641
O O10 0.129879 0.418718 0.915190
O O11 0.000000 0.500000 0.000000
O O12 0.500000 0.903812 0.250000
O O13 0.398979 0.854962 0.357968
O O14 0.349779 0.996167 0.326315
O O15 0.583002 0.607298 0.147411
O O16 0.569599 0.727969 0.085743
#
# Coordination Sequence:
#
# PCOD9455350 Si02
#       8
#     8   8   4   8   8   8   8   8
#     4  10  21  36  58  91 126 160 211 260 309 391
#     4  10  22  41  63  89 124 168 207 266 321 391
#     4  10  24  44  66  92 122 160 220 260 334 388
#     4  10  20  38  60  89 127 168 199 255 323 381
#     4  11  23  43  65  90 125 164 214 278 325 384
#     4  10  22  39  62  89 130 171 206 265 332 385
#     4  10  22  41  61  95 128 156 219 262 316 400
#     4  10  22  40  59  92 128 164 220 266 312 395
#
# _framework density 21.065684000000001
#
# number of rings (size 3 to 8) (size 9 to 14) (size 15 to 20)
#    0.000    1.867    1.333    1.600    2.800    2.133 
#    4.800    0.000    0.000    0.000    0.000    0.000 
#    0.000    0.000    0.000    0.000    0.000    0.000 
#
# Total GULP energy -334602.168829 kJ/mol
# GULP energy per Si atom -5576.702814 kJ/mol
# Density = 2.101774 g / cm^3
# Si number density = 21.065684 Si / 1000 Ang^3
#
#
#
# Elastic Constant Matrix: (Units=GPa)
#
#
# Indices 1 2 3 4 5 6 
#
# 1 73.1206 23.9370 24.3092 0.0000 0.0000 0.0000
# 2 23.9370 86.8903 12.2441 0.0000 0.0000 0.0000
# 3 24.3092 12.2441 49.2482 0.0000 0.0000 0.0000
# 4 0.0000 0.0000 0.0000 24.5080 0.0000 0.0000
# 5 0.0000 0.0000 0.0000 0.0000 24.5815 0.0000
# 6 0.0000 0.0000 0.0000 0.0000 0.0000 18.8315
#
#
#
# Elastic Compliance Matrix: (Units=1/GPa)
#
#
# Indices 1 2 3 4 5 6 
#
# 1 0.017451 -0.003724 -0.007688 0.000000 0.000000 0.000000
# 2 -0.003724 0.012721 -0.001325 0.000000 0.000000 0.000000
# 3 -0.007688 -0.001325 0.024430 0.000000 0.000000 0.000000
# 4 0.000000 0.000000 0.000000 0.040803 0.000000 0.000000
# 5 0.000000 0.000000 0.000000 0.000000 0.040681 0.000000
# 6 0.000000 0.000000 0.000000 0.000000 0.000000 0.053103
#
#
# Mechanical properties :
#
#
# Convention : Reuss Voigt Hill
#
# Bulk Modulus (GPa) = 34.33068 36.69330 35.51199
# Shear Modulus (GPa) = 22.28444 23.50210 22.89327
#
# Velocity S-wave (km/s) = 3.25600 3.34377 3.30018
# Velocity P-wave (km/s) = 5.51976 5.68894 5.60499
#
# Compressibility (1/GPa) = 0.02912847
#
# Stress axis : x y z
#
# Youngs Moduli (GPa) = 57.30287 78.60796 40.93408
#
# Poissons Ratio (x) = 0.29275 0.31471
# Poissons Ratio (y) = 0.21341 0.05422
# Poissons Ratio (z) = 0.44055 0.10412
#
# Static dielectric constant tensor:
#      x y z
#    x 1.750680 0.000000 0.000000 
#    y 0.000000 1.763000 0.000000 
#    z 0.000000 0.000000 1.806630 
# 
# From -- ./inp_files/25002.got.cif
#   From: 2010.05.17/outbox.cif.g08.bks.cpg/sg60_13_cif.got.tgz:25002.got - 2010.06.03 14:59:27.
