data_PCOD9455436
_publ_section_title
;
Structure prediction by ZEFSAII (Michael W. Deem and Ramdas Pophale) SiO2 
 PCOD9455436
Probable space group: P B C N
;
_chemical_formula_sum "Si O2"
_cell_formula_units_Z 44
_cell_length_a 23.426580
_cell_length_b 13.321910
_cell_length_c 5.467994
_cell_angle_alpha 90.000000
_cell_angle_beta 90.000000
_cell_angle_gamma 90.000000
_cell_volume 1706.488697
_symmetry_space_group_name_H-M "P B C N"
_symmetry_group_IT_number 60
_symmetry_cell_setting 'orthorhombic'
loop_
_space_group_symop_operation_xyz
x,y,z
1/2-x,1/2-y,1/2+z
1/2+x,1/2-y,-z
-x,y,1/2-z
-x,-y,-z
1/2+x,1/2+y,1/2-z
1/2-x,1/2+y,z
x,-y,1/2+z
loop_
_atom_site_type_symbol
_atom_site_label
_atom_site_fract_x
_atom_site_fract_y
_atom_site_fract_z
Si Si1 0.622347 0.244753 0.236931
Si Si2 0.216125 0.634560 0.987877
Si Si3 0.378162 0.532251 0.950266
Si Si4 0.256565 0.418327 0.986623
Si Si5 0.415032 0.060990 0.521744
Si Si6 0.500000 0.180592 0.250000
O O1 0.662076 0.204149 0.455086
O O2 0.632110 0.352051 0.117022
O O3 0.522745 0.110571 0.030653
O O4 0.556170 0.241478 0.321892
O O5 0.252123 0.642718 0.238191
O O6 0.125780 0.656381 0.466915
O O7 0.245699 0.646216 0.726806
O O8 0.407304 0.482163 0.713329
O O9 0.318250 0.527997 0.487545
O O10 0.211464 0.511455 0.986533
O O11 0.408181 0.011804 0.784950
#
# Coordination Sequence:
#
# PCOD9455436 Si02
#       6
#     8   8   8   8   8   4
#     4  10  26  42  75 109 145 193 252 296 379 440
#     4  10  20  38  65  99 131 174 226 288 357 421
#     4  12  24  50  71  96 145 198 244 309 360 422
#     4  10  20  41  66  94 137 176 224 296 341 441
#     4  10  22  41  68 102 149 189 226 297 374 440
#     4   8  22  46  66 114 152 186 252 300 370 464
#
# _framework density 25.783937999999999
#
# number of rings (size 3 to 8) (size 9 to 14) (size 15 to 20)
#    1.091    0.727    3.636    0.545    5.091    2.909 
#    3.273    0.909    0.000    0.000    0.000    0.000 
#    0.000    0.000    0.000    0.000    0.000    0.000 
#
# Total GULP energy -245755.752055 kJ/mol
# GULP energy per Si atom -5585.358001 kJ/mol
# Density = 2.572525 g / cm^3
# Si number density = 25.783938 Si / 1000 Ang^3
#
#
#
# Elastic Constant Matrix: (Units=GPa)
#
#
# Indices 1 2 3 4 5 6 
#
# 1 70.2817 19.1300 24.1288 0.0000 0.0000 0.0000
# 2 19.1300 186.0523 55.8086 0.0000 0.0000 0.0000
# 3 24.1288 55.8086 213.4710 0.0000 0.0000 0.0000
# 4 0.0000 0.0000 0.0000 5.9158 0.0000 0.0000
# 5 0.0000 0.0000 0.0000 0.0000 2.9851 0.0000
# 6 0.0000 0.0000 0.0000 0.0000 0.0000 28.3641
#
#
#
# Elastic Compliance Matrix: (Units=1/GPa)
#
#
# Indices 1 2 3 4 5 6 
#
# 1 0.015016 -0.001123 -0.001404 0.000000 0.000000 0.000000
# 2 -0.001123 0.005916 -0.001420 0.000000 0.000000 0.000000
# 3 -0.001404 -0.001420 0.005214 0.000000 0.000000 0.000000
# 4 0.000000 0.000000 0.000000 0.169040 0.000000 0.000000
# 5 0.000000 0.000000 0.000000 0.000000 0.334996 0.000000
# 6 0.000000 0.000000 0.000000 0.000000 0.000000 0.035256
#
#
# Mechanical properties :
#
#
# Convention : Reuss Voigt Hill
#
# Bulk Modulus (GPa) = 54.78326 74.21554 64.49940
# Shear Modulus (GPa) = 8.62939 32.16884 20.39912
#
# Velocity S-wave (km/s) = 1.83141 3.53601 2.81580
# Velocity P-wave (km/s) = 5.07595 6.74665 5.97003
#
# Compressibility (1/GPa) = 0.01825375
#
# Stress axis : x y z
#
# Youngs Moduli (GPa) = 66.59555 169.02836 191.77979
#
# Poissons Ratio (x) = 0.18980 0.26920
# Poissons Ratio (y) = 0.07478 0.27228
# Poissons Ratio (z) = 0.09348 0.23998
#
# Static dielectric constant tensor:
#      x y z
#    x 2.239760 0.000000 0.000000 
#    y 0.000000 2.042130 0.000000 
#    z 0.000000 0.000000 2.069180 
# 
# From -- ./inp_files/2535.got.cif
#   From: 2010.05.17/outbox.cif.g08.bks.cpg/sg60_2_cif.got.tgz:2535.got - 2010.06.03 14:59:27.
