data_PCOD9455801
_publ_section_title
;
Structure prediction by ZEFSAII (Michael W. Deem and Ramdas Pophale) SiO2 
 PCOD9455801
Probable space group: P B C N
;
_chemical_formula_sum "Si O2"
_cell_formula_units_Z 44
_cell_length_a 20.881760
_cell_length_b 19.848395
_cell_length_c 5.407403
_cell_angle_alpha 90.000000
_cell_angle_beta 90.000000
_cell_angle_gamma 90.000000
_cell_volume 2241.203189
_symmetry_space_group_name_H-M "P B C N"
_symmetry_group_IT_number 60
_symmetry_cell_setting 'orthorhombic'
loop_
_space_group_symop_operation_xyz
x,y,z
1/2-x,1/2-y,1/2+z
1/2+x,1/2-y,-z
-x,y,1/2-z
-x,-y,-z
1/2+x,1/2+y,1/2-z
1/2-x,1/2+y,z
x,-y,1/2+z
loop_
_atom_site_type_symbol
_atom_site_label
_atom_site_fract_x
_atom_site_fract_y
_atom_site_fract_z
Si Si1 0.000000 0.339889 0.250000
Si Si2 0.915271 0.538948 0.909025
Si Si3 0.741794 0.161466 0.487269
Si Si4 0.464267 0.706963 0.495512
Si Si5 0.225145 0.485839 0.570550
Si Si6 0.316246 0.692214 0.511646
O O1 0.946875 0.388261 0.373516
O O2 0.032183 0.288134 0.443999
O O3 0.934218 0.496344 0.665424
O O4 0.837641 0.533468 0.918895
O O5 0.704492 0.091704 0.452932
O O6 0.698187 0.227548 0.482619
O O7 0.780520 0.162400 0.746605
O O8 0.787440 0.166945 0.247728
O O9 0.500000 0.692349 0.750000
O O10 0.391814 0.682901 0.515090
O O11 0.500000 0.679406 0.250000
O O12 0.262125 0.504102 0.323607
#
# Coordination Sequence:
#
# PCOD9455801 Si02
#       6
#     4   8   8   8   8   8
#     4  10  24  34  54  76 120 156 200 230 266 334
#     4  10  22  34  48  72 109 156 199 227 269 316
#     4  10  21  37  58  80 112 153 205 245 288 343
#     4  10  23  35  57  83 115 148 194 240 289 335
#     4  10  21  34  54  81 111 149 189 238 289 337
#     4  10  21  38  58  81 110 155 199 251 293 336
#
# _framework density 19.632311000000001
#
# number of rings (size 3 to 8) (size 9 to 14) (size 15 to 20)
#    0.545    1.455    0.000    2.727    7.636    1.455 
#    3.273    0.000    0.000    0.000    0.000    0.000 
#    0.000   50.909    0.000    0.000    0.000    0.000 
#
# Total GULP energy -245331.579776 kJ/mol
# GULP energy per Si atom -5575.717722 kJ/mol
# Density = 1.958763 g / cm^3
# Si number density = 19.632311 Si / 1000 Ang^3
#
#
#
# Elastic Constant Matrix: (Units=GPa)
#
#
# Indices 1 2 3 4 5 6 
#
# 1 83.8340 -10.4632 30.9327 0.0000 0.0000 0.0000
# 2 -10.4632 37.9864 -4.2667 0.0000 0.0000 0.0000
# 3 30.9327 -4.2667 178.0999 0.0000 0.0000 0.0000
# 4 0.0000 0.0000 0.0000 9.1575 0.0000 0.0000
# 5 0.0000 0.0000 0.0000 0.0000 19.1468 0.0000
# 6 0.0000 0.0000 0.0000 0.0000 0.0000 9.1540
#
#
#
# Elastic Compliance Matrix: (Units=1/GPa)
#
#
# Indices 1 2 3 4 5 6 
#
# 1 0.013164 0.003378 -0.002205 0.000000 0.000000 0.000000
# 2 0.003378 0.027263 0.000066 0.000000 0.000000 0.000000
# 3 -0.002205 0.000066 0.005999 0.000000 0.000000 0.000000
# 4 0.000000 0.000000 0.000000 0.109200 0.000000 0.000000
# 5 0.000000 0.000000 0.000000 0.000000 0.052228 0.000000
# 6 0.000000 0.000000 0.000000 0.000000 0.000000 0.109242
#
#
# Mechanical properties :
#
#
# Convention : Reuss Voigt Hill
#
# Bulk Modulus (GPa) = 20.44789 36.92508 28.68648
# Shear Modulus (GPa) = 15.10939 26.40614 20.75776
#
# Velocity S-wave (km/s) = 2.77721 3.67145 3.25518
# Velocity P-wave (km/s) = 4.55213 6.06810 5.36394
#
# Compressibility (1/GPa) = 0.04890481
#
# Stress axis : x y z
#
# Youngs Moduli (GPa) = 75.96652 36.67949 166.68196
#
# Poissons Ratio (x) = -0.12391 0.36759
# Poissons Ratio (y) = -0.25663 -0.01107
# Poissons Ratio (z) = 0.16753 -0.00244
#
# Static dielectric constant tensor:
#      x y z
#    x 1.684000 0.000000 0.000000 
#    y 0.000000 1.700750 0.000000 
#    z 0.000000 0.000000 1.769030 
# 
# From -- ./inp_files/1731.got.cif
#   From: 2010.05.17/outbox.cif.g08.bks.cpg/sg60_1_cif.got.tgz:1731.got - 2010.06.03 14:59:27.
