data_PCOD9455243
_publ_section_title
;
Structure prediction by ZEFSAII (Michael W. Deem and Ramdas Pophale) SiO2 
 PCOD9455243
Probable space group: P B C N
;
_chemical_formula_sum "Si O2"
_cell_formula_units_Z 44
_cell_length_a 4.981369
_cell_length_b 23.254168
_cell_length_c 15.463609
_cell_angle_alpha 90.000000
_cell_angle_beta 90.000000
_cell_angle_gamma 90.000000
_cell_volume 1791.267224
_symmetry_space_group_name_H-M "P B C N"
_symmetry_group_IT_number 60
_symmetry_cell_setting 'orthorhombic'
loop_
_space_group_symop_operation_xyz
x,y,z
1/2-x,1/2-y,1/2+z
1/2+x,1/2-y,-z
-x,y,1/2-z
-x,-y,-z
1/2+x,1/2+y,1/2-z
1/2-x,1/2+y,z
x,-y,1/2+z
loop_
_atom_site_type_symbol
_atom_site_label
_atom_site_fract_x
_atom_site_fract_y
_atom_site_fract_z
Si Si1 0.666946 0.928642 0.335622
Si Si2 0.485118 0.930762 0.510622
Si Si3 0.672404 0.782037 0.102826
Si Si4 0.761235 0.056482 0.311883
Si Si5 0.833756 0.173643 0.001378
Si Si6 0.000000 0.834707 0.250000
O O1 0.500000 0.932164 0.250000
O O2 0.445703 0.917205 0.409578
O O3 0.870425 0.877332 0.320387
O O4 0.816552 0.989918 0.340663
O O5 0.313113 0.915924 0.595251
O O6 0.757002 0.892522 0.520443
O O7 0.500000 0.000000 0.500000
O O8 0.378501 0.799743 0.068690
O O9 0.873568 0.813622 0.035535
O O10 0.776087 0.798799 0.197952
O O11 0.702705 0.713985 0.085251
O O12 0.500000 0.057712 0.250000
O O13 0.000000 0.077181 0.250000
#
# Coordination Sequence:
#
# PCOD9455243 Si02
#       6
#     8   8   8   8   8   4
#     4  10  20  37  59  95 130 160 214 286 326 396
#     4  10  21  40  67  95 132 182 224 274 349 408
#     4  10  23  37  67  86 125 163 205 275 331 388
#     4  10  22  41  58  88 128 174 217 266 326 398
#     4  10  21  44  58  92 125 164 213 266 329 398
#     4  12  20  34  64  94 120 162 216 268 344 380
#
# _framework density 24.563618000000002
#
# number of rings (size 3 to 8) (size 9 to 14) (size 15 to 20)
#    0.000    1.818    2.727    1.091    0.000    1.455 
#    4.909    4.545    0.000    0.000    0.000    0.000 
#    0.000    0.000    0.000    0.000    0.000    0.000 
#
# Total GULP energy -245410.702873 kJ/mol
# GULP energy per Si atom -5577.515974 kJ/mol
# Density = 2.450771 g / cm^3
# Si number density = 24.563618 Si / 1000 Ang^3
#
#
#
# Elastic Constant Matrix: (Units=GPa)
#
#
# Indices 1 2 3 4 5 6 
#
# 1 102.8525 8.0711 44.5658 0.0000 0.0000 0.0000
# 2 8.0711 86.0190 2.9630 0.0000 0.0000 0.0000
# 3 44.5658 2.9630 179.5002 0.0000 0.0000 0.0000
# 4 0.0000 0.0000 0.0000 14.5079 0.0000 0.0000
# 5 0.0000 0.0000 0.0000 0.0000 37.3079 0.0000
# 6 0.0000 0.0000 0.0000 0.0000 0.0000 15.5827
#
#
#
# Elastic Compliance Matrix: (Units=1/GPa)
#
#
# Indices 1 2 3 4 5 6 
#
# 1 0.010969 -0.000936 -0.002708 0.000000 0.000000 0.000000
# 2 -0.000936 0.011712 0.000039 0.000000 0.000000 0.000000
# 3 -0.002708 0.000039 0.006243 0.000000 0.000000 0.000000
# 4 0.000000 0.000000 0.000000 0.068928 0.000000 0.000000
# 5 0.000000 0.000000 0.000000 0.000000 0.026804 0.000000
# 6 0.000000 0.000000 0.000000 0.000000 0.000000 0.064174
#
#
# Mechanical properties :
#
#
# Convention : Reuss Voigt Hill
#
# Bulk Modulus (GPa) = 46.05298 53.28574 49.66936
# Shear Modulus (GPa) = 24.59694 34.33116 29.46405
#
# Velocity S-wave (km/s) = 3.16785 3.74256 3.46714
# Velocity P-wave (km/s) = 5.67182 6.35734 6.02434
#
# Compressibility (1/GPa) = 0.02171412
#
# Stress axis : x y z
#
# Youngs Moduli (GPa) = 91.16192 85.38387 160.18655
#
# Poissons Ratio (x) = 0.07992 0.43379
# Poissons Ratio (y) = 0.08533 -0.00626
# Poissons Ratio (z) = 0.24687 -0.00333
#
# Static dielectric constant tensor:
#      x y z
#    x 1.991410 0.000000 0.000000 
#    y 0.000000 2.076050 0.000000 
#    z 0.000000 0.000000 2.005700 
# 
# From -- ./inp_files/13903.got.cif
#   From: 2010.05.17/outbox.cif.g08.bks.cpg/sg60_7_cif.got.tgz:13903.got - 2010.06.03 14:59:27.
