data_PCOD9455267
_publ_section_title
;
Structure prediction by ZEFSAII (Michael W. Deem and Ramdas Pophale) SiO2 
 PCOD9455267
Probable space group: P B C N
;
_chemical_formula_sum "Si O2"
_cell_formula_units_Z 40
_cell_length_a 5.138558
_cell_length_b 27.520160
_cell_length_c 12.258357
_cell_angle_alpha 90.000000
_cell_angle_beta 90.000000
_cell_angle_gamma 90.000000
_cell_volume 1733.502541
_symmetry_space_group_name_H-M "P B C N"
_symmetry_group_IT_number 60
_symmetry_cell_setting 'orthorhombic'
loop_
_space_group_symop_operation_xyz
x,y,z
1/2-x,1/2-y,1/2+z
1/2+x,1/2-y,-z
-x,y,1/2-z
-x,-y,-z
1/2+x,1/2+y,1/2-z
1/2-x,1/2+y,z
x,-y,1/2+z
loop_
_atom_site_type_symbol
_atom_site_label
_atom_site_fract_x
_atom_site_fract_y
_atom_site_fract_z
Si Si1 0.564221 0.282640 0.495382
Si Si2 0.113299 0.647193 0.635731
Si Si3 0.805952 0.053153 0.946341
Si Si4 0.802664 0.871235 0.946665
Si Si5 0.121314 0.540744 0.138868
O O1 0.316209 0.248682 0.473294
O O2 0.474115 0.324372 0.580075
O O3 0.652543 0.316704 0.394844
O O4 0.919662 0.647243 0.530594
O O5 0.000000 0.663192 0.750000
O O6 0.191143 0.590654 0.642464
O O7 0.042686 0.085971 0.988950
O O8 0.834060 0.999669 0.896493
O O9 0.597165 0.046099 0.044228
O O10 0.712937 0.903718 0.845812
O O11 0.000000 0.522367 0.250000
#
# Coordination Sequence:
#
# PCOD9455267 Si02
#       5
#     8   8   8   8   8
#     4  11  22  42  70  91 127 176 215 277 340 387
#     4  10  21  39  68  99 130 166 221 274 331 390
#     4   9  20  36  60  94 133 175 211 269 324 382
#     4  10  21  39  65  90 131 175 214 275 330 387
#     4  10  20  37  61  93 135 176 220 259 321 400
#
# _framework density 23.074672
#
# number of rings (size 3 to 8) (size 9 to 14) (size 15 to 20)
#    0.000    2.000    2.000    1.200    0.000    4.000 
#    0.000    2.000   17.600    0.000    0.000    0.000 
#    0.000    0.000    0.000    0.000    0.000    0.000 
#
# Total GULP energy -222972.056771 kJ/mol
# GULP energy per Si atom -5574.301419 kJ/mol
# Density = 2.302215 g / cm^3
# Si number density = 23.074672 Si / 1000 Ang^3
#
#
#
# Elastic Constant Matrix: (Units=GPa)
#
#
# Indices 1 2 3 4 5 6 
#
# 1 91.1625 61.3325 -3.7493 0.0000 0.0000 0.0000
# 2 61.3325 195.9146 25.4913 0.0000 0.0000 0.0000
# 3 -3.7493 25.4913 19.2689 0.0000 0.0000 0.0000
# 4 0.0000 0.0000 0.0000 6.3865 0.0000 0.0000
# 5 0.0000 0.0000 0.0000 0.0000 18.2803 0.0000
# 6 0.0000 0.0000 0.0000 0.0000 0.0000 42.6783
#
#
#
# Elastic Compliance Matrix: (Units=1/GPa)
#
#
# Indices 1 2 3 4 5 6 
#
# 1 0.015789 -0.006453 0.011609 0.000000 0.000000 0.000000
# 2 -0.006453 0.008803 -0.012902 0.000000 0.000000 0.000000
# 3 0.011609 -0.012902 0.071224 0.000000 0.000000 0.000000
# 4 0.000000 0.000000 0.000000 0.156581 0.000000 0.000000
# 5 0.000000 0.000000 0.000000 0.000000 0.054704 0.000000
# 6 0.000000 0.000000 0.000000 0.000000 0.000000 0.023431
#
#
# Mechanical properties :
#
#
# Convention : Reuss Voigt Hill
#
# Bulk Modulus (GPa) = 12.44954 52.49944 32.47449
# Shear Modulus (GPa) = 13.41211 28.35379 20.88295
#
# Velocity S-wave (km/s) = 2.41352 3.50920 3.01161
# Velocity P-wave (km/s) = 3.62958 6.26265 5.11833
#
# Compressibility (1/GPa) = 0.08032428
#
# Stress axis : x y z
#
# Youngs Moduli (GPa) = 63.33722 113.59536 14.04025
#
# Poissons Ratio (x) = 0.73306 -0.16300
# Poissons Ratio (y) = 0.40873 0.18114
# Poissons Ratio (z) = -0.73529 1.46556
#
# Static dielectric constant tensor:
#      x y z
#    x 2.006630 0.000000 0.000000 
#    y 0.000000 1.912730 0.000000 
#    z 0.000000 0.000000 1.929620 
# 
# From -- ./inp_files/9079.got.cif
#   From: 2010.05.17/outbox.cif.g08.bks.cpg/sg60_5_cif.got.tgz:9079.got - 2010.06.03 14:59:27.
