data_PCOD9455009
_publ_section_title
;
Structure prediction by ZEFSAII (Michael W. Deem and Ramdas Pophale) SiO2 
 PCOD9455009
Probable space group: P B C N
;
_chemical_formula_sum "Si O2"
_cell_formula_units_Z 64
_cell_length_a 29.023318
_cell_length_b 11.180218
_cell_length_c 9.566284
_cell_angle_alpha 90.000000
_cell_angle_beta 90.000000
_cell_angle_gamma 90.000000
_cell_volume 3104.135010
_symmetry_space_group_name_H-M "P B C N"
_symmetry_group_IT_number 60
_symmetry_cell_setting 'orthorhombic'
loop_
_space_group_symop_operation_xyz
x,y,z
1/2-x,1/2-y,1/2+z
1/2+x,1/2-y,-z
-x,y,1/2-z
-x,-y,-z
1/2+x,1/2+y,1/2-z
1/2-x,1/2+y,z
x,-y,1/2+z
loop_
_atom_site_type_symbol
_atom_site_label
_atom_site_fract_x
_atom_site_fract_y
_atom_site_fract_z
Si Si1 0.691272 0.504797 0.097398
Si Si2 0.530630 0.869302 0.629462
Si Si3 0.034765 0.646598 0.864734
Si Si4 0.662644 0.919064 0.931876
Si Si5 0.750561 0.915209 0.364191
Si Si6 0.629323 0.127267 0.125201
Si Si7 0.867827 0.773468 0.640023
Si Si8 0.317494 0.726960 0.080268
O O1 0.715973 0.449321 0.234832
O O2 0.646561 0.586902 0.125397
O O3 0.726841 0.589388 0.016789
O O4 0.684249 0.406749 0.975472
O O5 0.500000 0.813183 0.750000
O O6 0.496552 0.866808 0.500587
O O7 0.579948 0.812127 0.600798
O O8 0.544435 0.006487 0.674023
O O9 0.080230 0.726380 0.883967
O O10 0.000000 0.698280 0.750000
O O11 0.636374 0.892935 0.788454
O O12 0.709649 0.985668 0.883611
O O13 0.663598 0.802535 0.030720
O O14 0.634140 0.009795 0.029947
O O15 0.727292 0.784888 0.347982
O O16 0.670161 0.205209 0.061907
O O17 0.855543 0.746779 0.801584
#
# Coordination Sequence:
#
# PCOD9455009 Si02
#       8
#     8   8   8   8   8   8   8   8
#     4  12  27  44  65  97 127 177 230 278 337 413
#     4  10  20  34  58  99 132 166 220 275 338 402
#     4  10  21  36  64  92 132 172 219 278 343 408
#     4  11  23  40  65  98 135 182 223 278 348 406
#     4  11  25  44  65  91 130 174 228 279 331 396
#     4  11  22  38  65  96 137 176 226 283 340 409
#     4  12  24  43  67  95 138 176 222 283 350 414
#     4  11  26  43  66  93 130 177 231 281 334 409
#
# _framework density 20.617657999999999
#
# number of rings (size 3 to 8) (size 9 to 14) (size 15 to 20)
#    0.000    1.000    2.500    5.250    8.750    0.000 
#    0.000    0.000    0.000    3.750    0.000    0.000 
#    0.000    0.000    0.000    0.000    0.000    0.000 
#
# Total GULP energy -356815.133247 kJ/mol
# GULP energy per Si atom -5575.236457 kJ/mol
# Density = 2.057073 g / cm^3
# Si number density = 20.617658 Si / 1000 Ang^3
#
#
#
# Elastic Constant Matrix: (Units=GPa)
#
#
# Indices 1 2 3 4 5 6 
#
# 1 88.5584 36.7923 23.6098 0.0000 0.0000 0.0000
# 2 36.7923 72.7660 26.7684 0.0000 0.0000 0.0000
# 3 23.6098 26.7684 121.4869 0.0000 0.0000 0.0000
# 4 0.0000 0.0000 0.0000 18.9104 0.0000 0.0000
# 5 0.0000 0.0000 0.0000 0.0000 27.1955 0.0000
# 6 0.0000 0.0000 0.0000 0.0000 0.0000 7.8175
#
#
#
# Elastic Compliance Matrix: (Units=1/GPa)
#
#
# Indices 1 2 3 4 5 6 
#
# 1 0.014483 -0.006842 -0.001307 0.000000 0.000000 0.000000
# 2 -0.006842 0.018187 -0.002678 0.000000 0.000000 0.000000
# 3 -0.001307 -0.002678 0.009075 0.000000 0.000000 0.000000
# 4 0.000000 0.000000 0.000000 0.052881 0.000000 0.000000
# 5 0.000000 0.000000 0.000000 0.000000 0.036771 0.000000
# 6 0.000000 0.000000 0.000000 0.000000 0.000000 0.127919
#
#
# Mechanical properties :
#
#
# Convention : Reuss Voigt Hill
#
# Bulk Modulus (GPa) = 49.77123 50.79470 50.28296
# Shear Modulus (GPa) = 17.38118 23.82740 20.60429
#
# Velocity S-wave (km/s) = 2.90664 3.40322 3.16468
# Velocity P-wave (km/s) = 5.95460 6.33502 6.14775
#
# Compressibility (1/GPa) = 0.02009193
#
# Stress axis : x y z
#
# Youngs Moduli (GPa) = 69.04608 54.98345 110.18856
#
# Poissons Ratio (x) = 0.37621 0.14402
# Poissons Ratio (y) = 0.47243 0.29505
# Poissons Ratio (z) = 0.09025 0.14723
#
# Static dielectric constant tensor:
#      x y z
#    x 1.807800 0.000000 0.000000 
#    y 0.000000 1.856740 0.000000 
#    z 0.000000 0.000000 1.718740 
# 
# From -- ./inp_files/8499.got.cif
#   From: 2010.05.17/outbox.cif.g08.bks.cpg/sg60_5_cif.got.tgz:8499.got - 2010.06.03 14:59:27.
