data_PCOD9455808
_publ_section_title
;
Structure prediction by ZEFSAII (Michael W. Deem and Ramdas Pophale) SiO2 
 PCOD9455808
Probable space group: P B C N
;
_chemical_formula_sum "Si O2"
_cell_formula_units_Z 44
_cell_length_a 17.163854
_cell_length_b 17.511057
_cell_length_c 5.747225
_cell_angle_alpha 90.000000
_cell_angle_beta 90.000000
_cell_angle_gamma 90.000000
_cell_volume 1727.370002
_symmetry_space_group_name_H-M "P B C N"
_symmetry_group_IT_number 60
_symmetry_cell_setting 'orthorhombic'
loop_
_space_group_symop_operation_xyz
x,y,z
1/2-x,1/2-y,1/2+z
1/2+x,1/2-y,-z
-x,y,1/2-z
-x,-y,-z
1/2+x,1/2+y,1/2-z
1/2-x,1/2+y,z
x,-y,1/2+z
loop_
_atom_site_type_symbol
_atom_site_label
_atom_site_fract_x
_atom_site_fract_y
_atom_site_fract_z
Si Si1 0.132174 0.493571 0.772170
Si Si2 0.921575 0.744937 0.638872
Si Si3 0.923349 0.085889 0.358264
Si Si4 0.000000 0.824317 0.250000
Si Si5 0.271138 0.617334 0.264759
Si Si6 0.729932 0.147403 0.731532
O O1 0.090766 0.500139 0.522223
O O2 0.184027 0.417152 0.769105
O O3 0.197025 0.560891 0.772470
O O4 0.917071 0.831330 0.733025
O O5 0.846935 0.698804 0.712362
O O6 0.000000 0.709470 0.750000
O O7 0.942011 0.764536 0.374925
O O8 0.945454 0.116197 0.610610
O O9 0.839894 0.054258 0.280218
O O10 0.000000 0.047058 0.250000
O O11 0.274857 0.655344 0.522103
O O12 0.273936 0.660703 0.014355
#
# Coordination Sequence:
#
# PCOD9455808 Si02
#       6
#     8   8   8   4   8   8
#     4   8  16  34  52  76 104 140 178 224 278 324
#     4   9  20  35  54  78 112 150 187 227 276 340
#     4   9  20  35  54  78 112 150 187 227 276 340
#     4   8  18  36  56  74 116 156 188 224 286 342
#     4  10  21  34  58  83 109 145 186 234 281 328
#     4  10  21  34  58  83 109 145 186 234 281 328
#
# _framework density 25.472249999999999
#
# number of rings (size 3 to 8) (size 9 to 14) (size 15 to 20)
#    0.000    3.273    0.000    0.000   10.182    1.455 
#    0.000    0.000    0.000   19.636    0.000    0.000 
#    0.000    0.000    0.000    0.000    0.000    0.000 
#
# Total GULP energy -244970.751804 kJ/mol
# GULP energy per Si atom -5567.517086 kJ/mol
# Density = 2.541427 g / cm^3
# Si number density = 25.472250 Si / 1000 Ang^3
#
#
#
# Elastic Constant Matrix: (Units=GPa)
#
#
# Indices 1 2 3 4 5 6 
#
# 1 119.4413 16.5878 59.8432 0.0000 0.0000 0.0000
# 2 16.5878 46.3840 12.6205 0.0000 0.0000 0.0000
# 3 59.8432 12.6205 236.7739 0.0000 0.0000 0.0000
# 4 0.0000 0.0000 0.0000 4.0639 0.0000 0.0000
# 5 0.0000 0.0000 0.0000 0.0000 -1.4866 0.0000
# 6 0.0000 0.0000 0.0000 0.0000 0.0000 -22.0844
#
#
#
# Elastic Compliance Matrix: (Units=1/GPa)
#
#
# Indices 1 2 3 4 5 6 
#
# 1 0.009961 -0.002920 -0.002362 0.000000 0.000000 0.000000
# 2 -0.002920 0.022732 -0.000474 0.000000 0.000000 0.000000
# 3 -0.002362 -0.000474 0.004846 0.000000 0.000000 0.000000
# 4 0.000000 0.000000 0.000000 0.246066 0.000000 0.000000
# 5 0.000000 0.000000 0.000000 0.000000 -0.672689 0.000000
# 6 0.000000 0.000000 0.000000 0.000000 0.000000 -0.045281
#
#
# Mechanical properties :
#
#
# Convention : Reuss Voigt Hill
#
# Bulk Modulus (GPa) = 38.41978 64.52248 51.47113
# Shear Modulus (GPa) = -12.07211 17.00177 2.46483
#
# Velocity S-wave (km/s) = -2.17936 2.58633 0.98476
# Velocity P-wave (km/s) = 2.96360 5.85699 4.64151
#
# Compressibility (1/GPa) = 0.02602826
#
# Stress axis : x y z
#
# Youngs Moduli (GPa) = 100.38930 43.99049 206.36960
#
# Poissons Ratio (x) = 0.12844 0.48745
# Poissons Ratio (y) = 0.29310 0.09777
# Poissons Ratio (z) = 0.23712 0.02084
#
# Static dielectric constant tensor:
#      x y z
#    x 4.907670 0.000000 0.000000 
#    y 0.000000 2.010790 0.000000 
#    z 0.000000 0.000000 2.203440 
# 
# From -- ./inp_files/1729.got.cif
#   From: 2010.05.17/outbox.cif.g08.bks.cpg/sg60_1_cif.got.tgz:1729.got - 2010.06.03 14:59:27.
