data_PCOD9455625
_publ_section_title
;
Structure prediction by ZEFSAII (Michael W. Deem and Ramdas Pophale) SiO2 
 PCOD9455625
Probable space group: P B C N
;
_chemical_formula_sum "Si O2"
_cell_formula_units_Z 44
_cell_length_a 27.590844
_cell_length_b 8.424061
_cell_length_c 8.842398
_cell_angle_alpha 90.000000
_cell_angle_beta 90.000000
_cell_angle_gamma 90.000000
_cell_volume 2055.211623
_symmetry_space_group_name_H-M "P B C N"
_symmetry_group_IT_number 60
_symmetry_cell_setting 'orthorhombic'
loop_
_space_group_symop_operation_xyz
x,y,z
1/2-x,1/2-y,1/2+z
1/2+x,1/2-y,-z
-x,y,1/2-z
-x,-y,-z
1/2+x,1/2+y,1/2-z
1/2-x,1/2+y,z
x,-y,1/2+z
loop_
_atom_site_type_symbol
_atom_site_label
_atom_site_fract_x
_atom_site_fract_y
_atom_site_fract_z
Si Si1 0.936331 0.647804 0.483100
Si Si2 0.721573 0.838004 0.039091
Si Si3 0.688393 0.333056 0.829623
Si Si4 0.500000 0.054638 0.750000
Si Si5 0.857524 0.830104 0.327356
Si Si6 0.146982 0.603864 0.455382
O O1 0.971487 0.660540 0.627057
O O2 0.906494 0.800168 0.423985
O O3 0.895168 0.523561 0.534103
O O4 0.965325 0.561477 0.347625
O O5 0.718704 0.733662 0.189551
O O6 0.696435 0.006606 0.072090
O O7 0.773984 0.861616 0.966658
O O8 0.686578 0.749994 0.919925
O O9 0.658161 0.490359 0.796423
O O10 0.652990 0.194400 0.886237
O O11 0.862806 0.730630 0.174223
#
# Coordination Sequence:
#
# PCOD9455625 Si02
#       6
#     8   8   8   4   8   8
#     4  10  21  40  70 103 125 172 217 267 327 400
#     4  11  24  41  63  90 127 181 224 257 315 395
#     4  12  25  41  65  92 133 174 217 276 328 373
#     4  10  20  40  74 100 128 170 228 266 320 422
#     4  11  23  40  62  97 133 168 218 278 325 382
#     4  11  23  41  63  94 129 168 221 266 316 399
#
# _framework density 21.408988999999998
#
# number of rings (size 3 to 8) (size 9 to 14) (size 15 to 20)
#    0.000    1.091    1.818    5.455    2.545    4.364 
#    0.000    1.818    0.000    6.545    0.000    0.000 
#    0.000    0.000    0.000    0.000    0.000    0.000 
#
# Total GULP energy -246291.630368 kJ/mol
# GULP energy per Si atom -5597.537054 kJ/mol
# Density = 2.136026 g / cm^3
# Si number density = 21.408989 Si / 1000 Ang^3
#
#
#
# Elastic Constant Matrix: (Units=GPa)
#
#
# Indices 1 2 3 4 5 6 
#
# 1 59.0489 17.7215 19.6559 0.0000 0.0000 0.0000
# 2 17.7215 106.8697 26.2864 0.0000 0.0000 0.0000
# 3 19.6559 26.2864 101.0696 0.0000 0.0000 0.0000
# 4 0.0000 0.0000 0.0000 22.5451 0.0000 0.0000
# 5 0.0000 0.0000 0.0000 0.0000 39.7398 0.0000
# 6 0.0000 0.0000 0.0000 0.0000 0.0000 -14.4228
#
#
#
# Elastic Compliance Matrix: (Units=1/GPa)
#
#
# Indices 1 2 3 4 5 6 
#
# 1 0.018644 -0.002350 -0.003015 0.000000 0.000000 0.000000
# 2 -0.002350 0.010293 -0.002220 0.000000 0.000000 0.000000
# 3 -0.003015 -0.002220 0.011058 0.000000 0.000000 0.000000
# 4 0.000000 0.000000 0.000000 0.044356 0.000000 0.000000
# 5 0.000000 0.000000 0.000000 0.000000 0.025164 0.000000
# 6 0.000000 0.000000 0.000000 0.000000 0.000000 -0.069335
#
#
# Mechanical properties :
#
#
# Convention : Reuss Voigt Hill
#
# Bulk Modulus (GPa) = 40.28149 43.81286 42.04717
# Shear Modulus (GPa) = 78.58702 23.12737 50.85719
#
# Velocity S-wave (km/s) = 6.06524 3.29030 4.87920
# Velocity P-wave (km/s) = 8.24049 5.91134 7.17111
#
# Compressibility (1/GPa) = 0.02482530
#
# Stress axis : x y z
#
# Youngs Moduli (GPa) = 53.63677 97.15411 90.43365
#
# Poissons Ratio (x) = 0.22832 0.27262
# Poissons Ratio (y) = 0.12605 0.20076
# Poissons Ratio (z) = 0.16170 0.21568
#
# Static dielectric constant tensor:
#      x y z
#    x 1.787050 0.000000 0.000000 
#    y 0.000000 1.766580 0.000000 
#    z 0.000000 0.000000 1.813900 
# 
# From -- ./inp_files/8341.got.cif
#   From: 2010.05.17/outbox.cif.g08.bks.cpg/sg60_5_cif.got.tgz:8341.got - 2010.06.03 14:59:27.
