data_PCOD9455643
_publ_section_title
;
Structure prediction by ZEFSAII (Michael W. Deem and Ramdas Pophale) SiO2 
 PCOD9455643
Probable space group: P B C N
;
_chemical_formula_sum "Si O2"
_cell_formula_units_Z 48
_cell_length_a 15.326555
_cell_length_b 13.419279
_cell_length_c 10.242650
_cell_angle_alpha 90.000000
_cell_angle_beta 90.000000
_cell_angle_gamma 90.000000
_cell_volume 2106.619322
_symmetry_space_group_name_H-M "P B C N"
_symmetry_group_IT_number 60
_symmetry_cell_setting 'orthorhombic'
loop_
_space_group_symop_operation_xyz
x,y,z
1/2-x,1/2-y,1/2+z
1/2+x,1/2-y,-z
-x,y,1/2-z
-x,-y,-z
1/2+x,1/2+y,1/2-z
1/2-x,1/2+y,z
x,-y,1/2+z
loop_
_atom_site_type_symbol
_atom_site_label
_atom_site_fract_x
_atom_site_fract_y
_atom_site_fract_z
Si Si1 0.274323 0.471067 0.111609
Si Si2 0.433940 0.412682 0.533806
Si Si3 0.197788 0.818176 0.335343
Si Si4 0.333287 0.109900 0.415078
Si Si5 0.021870 0.695851 0.601065
Si Si6 0.642845 0.096283 0.512666
O O1 0.358277 0.539695 0.122552
O O2 0.279723 0.380410 0.208624
O O3 0.262626 0.423106 0.966960
O O4 0.188800 0.542228 0.110732
O O5 0.500000 0.500000 0.500000
O O6 0.383065 0.371522 0.406588
O O7 0.476385 0.315191 0.595494
O O8 0.175108 0.702370 0.318889
O O9 0.282337 0.833163 0.427711
O O10 0.387961 0.155524 0.538716
O O11 0.373816 0.000657 0.393097
O O12 0.000000 0.665704 0.750000
O O13 0.946589 0.654224 0.505603
#
# Coordination Sequence:
#
# PCOD9455643 Si02
#       6
#     8   8   8   8   8   8
#     4   9  21  41  64  91 129 174 214 267 338 386
#     4  10  24  40  61  96 129 167 224 280 315 400
#     4  10  20  41  63  91 130 170 219 265 332 387
#     4   9  21  41  59  97 132 161 219 270 314 402
#     4  11  22  38  67  95 129 178 218 267 345 390
#     4   9  21  39  63  94 130 165 220 272 318 404
#
# _framework density 22.785322000000001
#
# number of rings (size 3 to 8) (size 9 to 14) (size 15 to 20)
#    1.000    1.333    0.000    1.500    4.667    0.000 
#    9.000    0.000    3.667    0.000    0.000    0.000 
#    0.000    0.000    0.000    0.000    0.000    0.000 
#
# Total GULP energy -267505.623696 kJ/mol
# GULP energy per Si atom -5573.033827 kJ/mol
# Density = 2.273346 g / cm^3
# Si number density = 22.785322 Si / 1000 Ang^3
#
#
#
# Elastic Constant Matrix: (Units=GPa)
#
#
# Indices 1 2 3 4 5 6 
#
# 1 72.9427 62.1931 21.1985 0.0000 0.0000 0.0000
# 2 62.1931 154.7375 16.0513 0.0000 0.0000 0.0000
# 3 21.1985 16.0513 27.0559 0.0000 0.0000 0.0000
# 4 0.0000 0.0000 0.0000 31.0410 0.0000 0.0000
# 5 0.0000 0.0000 0.0000 0.0000 11.6353 0.0000
# 6 0.0000 0.0000 0.0000 0.0000 0.0000 38.7800
#
#
#
# Elastic Compliance Matrix: (Units=1/GPa)
#
#
# Indices 1 2 3 4 5 6 
#
# 1 0.025393 -0.008676 -0.014748 0.000000 0.000000 0.000000
# 2 -0.008676 0.009851 0.000954 0.000000 0.000000 0.000000
# 3 -0.014748 0.000954 0.047950 0.000000 0.000000 0.000000
# 4 0.000000 0.000000 0.000000 0.032215 0.000000 0.000000
# 5 0.000000 0.000000 0.000000 0.000000 0.085945 0.000000
# 6 0.000000 0.000000 0.000000 0.000000 0.000000 0.025787
#
#
# Mechanical properties :
#
#
# Convention : Reuss Voigt Hill
#
# Bulk Modulus (GPa) = 26.14219 50.40243 38.27231
# Shear Modulus (GPa) = 17.55405 26.64412 22.09909
#
# Velocity S-wave (km/s) = 2.77864 3.42329 3.11767
# Velocity P-wave (km/s) = 4.66825 6.14767 5.45832
#
# Compressibility (1/GPa) = 0.03825234
#
# Stress axis : x y z
#
# Youngs Moduli (GPa) = 39.38049 101.51392 20.85496
#
# Poissons Ratio (x) = 0.88077 0.30758
# Poissons Ratio (y) = 0.34168 -0.01989
# Poissons Ratio (z) = 0.58080 -0.09682
#
# Static dielectric constant tensor:
#      x y z
#    x 1.861780 0.000000 0.000000 
#    y 0.000000 1.841790 0.000000 
#    z 0.000000 0.000000 1.950550 
# 
# From -- ./inp_files/11901.got.cif
#   From: 2010.05.17/outbox.cif.g08.bks.cpg/sg60_6_cif.got.tgz:11901.got - 2010.06.03 14:59:27.
