data_PCOD9455457
_publ_section_title
;
Structure prediction by ZEFSAII (Michael W. Deem and Ramdas Pophale) SiO2 
 PCOD9455457
Probable space group: P B C N
;
_chemical_formula_sum "Si O2"
_cell_formula_units_Z 44
_cell_length_a 27.122631
_cell_length_b 8.095963
_cell_length_c 9.378616
_cell_angle_alpha 90.000000
_cell_angle_beta 90.000000
_cell_angle_gamma 90.000000
_cell_volume 2059.392300
_symmetry_space_group_name_H-M "P B C N"
_symmetry_group_IT_number 60
_symmetry_cell_setting 'orthorhombic'
loop_
_space_group_symop_operation_xyz
x,y,z
1/2-x,1/2-y,1/2+z
1/2+x,1/2-y,-z
-x,y,1/2-z
-x,-y,-z
1/2+x,1/2+y,1/2-z
1/2-x,1/2+y,z
x,-y,1/2+z
loop_
_atom_site_type_symbol
_atom_site_label
_atom_site_fract_x
_atom_site_fract_y
_atom_site_fract_z
Si Si1 0.313284 0.980254 0.275210
Si Si2 0.067669 0.081410 0.999341
Si Si3 0.500000 0.521969 0.750000
Si Si4 0.647549 0.335057 0.561742
Si Si5 0.297647 0.508197 0.688161
Si Si6 0.834251 0.290714 0.484039
O O1 0.341343 0.838589 0.365312
O O2 0.333699 0.951097 0.117398
O O3 0.254821 0.955204 0.256820
O O4 0.320335 0.149828 0.359274
O O5 0.112859 0.204906 0.018815
O O6 0.033790 0.079385 0.139233
O O7 0.093153 0.899584 0.979564
O O8 0.036061 0.118164 0.858059
O O9 0.665153 0.464617 0.684238
O O10 0.681481 0.359525 0.422832
O O11 0.297239 0.340782 0.590060
#
# Coordination Sequence:
#
# PCOD9455457 Si02
#       6
#     8   8   4   8   8   8
#     4  11  23  38  59  86 122 168 202 241 289 345
#     4  10  21  41  64  93 114 150 194 255 310 365
#     4  10  20  38  72  90 110 144 202 248 310 384
#     4  10  22  39  60  86 124 155 200 248 292 347
#     4  10  22  38  55  84 122 166 204 235 276 340
#     4  10  24  40  58  85 125 158 203 249 294 351
#
# _framework density 21.365527
#
# number of rings (size 3 to 8) (size 9 to 14) (size 15 to 20)
#    0.000    1.818    0.000    4.364    0.000   20.364 
#    0.000    0.000    0.000   18.545    0.000    0.000 
#    0.000    0.000    0.000    0.000    0.000    0.000 
#
# Total GULP energy -245777.995445 kJ/mol
# GULP energy per Si atom -5585.863533 kJ/mol
# Density = 2.131690 g / cm^3
# Si number density = 21.365527 Si / 1000 Ang^3
#
#
#
# Elastic Constant Matrix: (Units=GPa)
#
#
# Indices 1 2 3 4 5 6 
#
# 1 94.8254 10.3278 20.4103 0.0000 0.0000 0.0000
# 2 10.3278 41.5845 12.0074 0.0000 0.0000 0.0000
# 3 20.4103 12.0074 120.4099 0.0000 0.0000 0.0000
# 4 0.0000 0.0000 0.0000 35.7849 0.0000 0.0000
# 5 0.0000 0.0000 0.0000 0.0000 42.9479 0.0000
# 6 0.0000 0.0000 0.0000 0.0000 0.0000 4.8221
#
#
#
# Elastic Compliance Matrix: (Units=1/GPa)
#
#
# Indices 1 2 3 4 5 6 
#
# 1 0.011153 -0.002290 -0.001662 0.000000 0.000000 0.000000
# 2 -0.002290 0.025231 -0.002128 0.000000 0.000000 0.000000
# 3 -0.001662 -0.002128 0.008799 0.000000 0.000000 0.000000
# 4 0.000000 0.000000 0.000000 0.027945 0.000000 0.000000
# 5 0.000000 0.000000 0.000000 0.000000 0.023284 0.000000
# 6 0.000000 0.000000 0.000000 0.000000 0.000000 0.207377
#
#
# Mechanical properties :
#
#
# Convention : Reuss Voigt Hill
#
# Bulk Modulus (GPa) = 30.28244 38.03453 34.15849
# Shear Modulus (GPa) = 15.29260 30.98260 23.13760
#
# Velocity S-wave (km/s) = 2.67827 3.81218 3.29438
# Velocity P-wave (km/s) = 4.87529 6.10061 5.52204
#
# Compressibility (1/GPa) = 0.03302244
#
# Stress axis : x y z
#
# Youngs Moduli (GPa) = 89.66302 39.63446 113.65054
#
# Poissons Ratio (x) = 0.09076 0.18890
# Poissons Ratio (y) = 0.20533 0.24183
# Poissons Ratio (z) = 0.14903 0.08434
#
# Static dielectric constant tensor:
#      x y z
#    x 1.777380 0.000000 0.000000 
#    y 0.000000 1.841820 0.000000 
#    z 0.000000 0.000000 1.806580 
# 
# From -- ./inp_files/8359.got.cif
#   From: 2010.05.17/outbox.cif.g08.bks.cpg/sg60_5_cif.got.tgz:8359.got - 2010.06.03 14:59:27.
