data_PCOD9455129
_publ_section_title
;
Structure prediction by ZEFSAII (Michael W. Deem and Ramdas Pophale) SiO2 
 PCOD9455129
Probable space group: P B C N
;
_chemical_formula_sum "Si O2"
_cell_formula_units_Z 64
_cell_length_a 22.516149
_cell_length_b 10.245941
_cell_length_c 14.511940
_cell_angle_alpha 90.000000
_cell_angle_beta 90.000000
_cell_angle_gamma 90.000000
_cell_volume 3347.891994
_symmetry_space_group_name_H-M "P B C N"
_symmetry_group_IT_number 60
_symmetry_cell_setting 'orthorhombic'
loop_
_space_group_symop_operation_xyz
x,y,z
1/2-x,1/2-y,1/2+z
1/2+x,1/2-y,-z
-x,y,1/2-z
-x,-y,-z
1/2+x,1/2+y,1/2-z
1/2-x,1/2+y,z
x,-y,1/2+z
loop_
_atom_site_type_symbol
_atom_site_label
_atom_site_fract_x
_atom_site_fract_y
_atom_site_fract_z
Si Si1 0.068164 0.836543 0.637151
Si Si2 0.704823 0.019683 0.277515
Si Si3 0.073003 0.159642 0.351690
Si Si4 0.351840 0.102468 0.901999
Si Si5 0.731402 0.685050 0.501189
Si Si6 0.208670 0.802774 0.168932
Si Si7 0.141911 0.608985 0.545716
Si Si8 0.642044 0.539475 0.979909
O O1 0.085693 0.861796 0.743626
O O2 0.094381 0.700480 0.597538
O O3 0.997271 0.847926 0.632445
O O4 0.098491 0.944616 0.574450
O O5 0.671297 0.962362 0.190608
O O6 0.766817 0.935040 0.283260
O O7 0.675860 0.972272 0.374077
O O8 0.697941 0.176877 0.267467
O O9 0.096065 0.302314 0.374488
O O10 0.110563 0.075850 0.424735
O O11 0.293205 0.176562 0.944155
O O12 0.377647 0.002240 0.975899
O O13 0.743088 0.729420 0.396017
O O14 0.682979 0.797168 0.520163
O O15 0.701648 0.542822 0.502174
O O16 0.159616 0.847942 0.093832
#
# Coordination Sequence:
#
# PCOD9455129 Si02
#       8
#     8   8   8   8   8   8   8   8
#     4  10  24  44  65  92 126 168 222 282 321 381
#     4  11  23  35  58  91 134 169 205 255 332 380
#     4  11  23  42  68  94 120 172 228 265 329 389
#     4  12  23  36  62  92 123 172 212 258 329 401
#     4  10  20  36  57  91 127 162 199 259 313 393
#     4  11  20  38  57  90 133 172 202 259 316 394
#     4  10  21  41  58  88 130 160 211 265 318 380
#     4  11  21  40  68  89 130 170 216 265 328 380
#
# _framework density 19.116506999999999
#
# number of rings (size 3 to 8) (size 9 to 14) (size 15 to 20)
#    0.000    1.250    5.000    1.125    1.750    1.500 
#    2.250    0.000    0.000    0.000    0.000    0.000 
#    0.000    0.000    0.000    0.000    0.000    0.000 
#
# Total GULP energy -356451.196447 kJ/mol
# GULP energy per Si atom -5569.549944 kJ/mol
# Density = 1.907300 g / cm^3
# Si number density = 19.116507 Si / 1000 Ang^3
#
#
#
# Elastic Constant Matrix: (Units=GPa)
#
#
# Indices 1 2 3 4 5 6 
#
# 1 52.1268 23.1185 26.9883 0.0000 0.0000 0.0000
# 2 23.1185 125.7862 23.7825 0.0000 0.0000 0.0000
# 3 26.9883 23.7825 96.2779 0.0000 0.0000 0.0000
# 4 0.0000 0.0000 0.0000 41.2550 0.0000 0.0000
# 5 0.0000 0.0000 0.0000 0.0000 22.6189 0.0000
# 6 0.0000 0.0000 0.0000 0.0000 0.0000 11.6614
#
#
#
# Elastic Compliance Matrix: (Units=1/GPa)
#
#
# Indices 1 2 3 4 5 6 
#
# 1 0.023638 -0.003243 -0.005825 0.000000 0.000000 0.000000
# 2 -0.003243 0.008784 -0.001261 0.000000 0.000000 0.000000
# 3 -0.005825 -0.001261 0.012331 0.000000 0.000000 0.000000
# 4 0.000000 0.000000 0.000000 0.024239 0.000000 0.000000
# 5 0.000000 0.000000 0.000000 0.000000 0.044211 0.000000
# 6 0.000000 0.000000 0.000000 0.000000 0.000000 0.085753
#
#
# Mechanical properties :
#
#
# Convention : Reuss Voigt Hill
#
# Bulk Modulus (GPa) = 41.50154 46.88551 44.19352
# Shear Modulus (GPa) = 21.96386 28.46050 25.21218
#
# Velocity S-wave (km/s) = 3.39329 3.86267 3.63556
# Velocity P-wave (km/s) = 6.09175 6.66881 6.38681
#
# Compressibility (1/GPa) = 0.02409549
#
# Stress axis : x y z
#
# Youngs Moduli (GPa) = 42.30429 113.83755 81.09697
#
# Poissons Ratio (x) = 0.36919 0.47240
# Poissons Ratio (y) = 0.13720 0.10225
# Poissons Ratio (z) = 0.24643 0.14353
#
# Static dielectric constant tensor:
#      x y z
#    x 1.692810 0.000000 0.000000 
#    y 0.000000 1.758430 0.000000 
#    z 0.000000 0.000000 1.676300 
# 
# From -- ./inp_files/17945.got.cif
#   From: 2010.05.17/outbox.cif.g08.bks.cpg/sg60_9_cif.got.tgz:17945.got - 2010.06.03 14:59:27.
