data_PCOD9455699
_publ_section_title
;
Structure prediction by ZEFSAII (Michael W. Deem and Ramdas Pophale) SiO2 
 PCOD9455699
Probable space group: P B C N
;
_chemical_formula_sum "Si O2"
_cell_formula_units_Z 60
_cell_length_a 11.927994
_cell_length_b 10.522870
_cell_length_c 20.161264
_cell_angle_alpha 90.000000
_cell_angle_beta 90.000000
_cell_angle_gamma 90.000000
_cell_volume 2530.575934
_symmetry_space_group_name_H-M "P B C N"
_symmetry_group_IT_number 60
_symmetry_cell_setting 'orthorhombic'
loop_
_space_group_symop_operation_xyz
x,y,z
1/2-x,1/2-y,1/2+z
1/2+x,1/2-y,-z
-x,y,1/2-z
-x,-y,-z
1/2+x,1/2+y,1/2-z
1/2-x,1/2+y,z
x,-y,1/2+z
loop_
_atom_site_type_symbol
_atom_site_label
_atom_site_fract_x
_atom_site_fract_y
_atom_site_fract_z
Si Si1 0.425370 0.729469 0.395965
Si Si2 0.718492 0.903761 0.577859
Si Si3 0.703830 0.896287 0.199552
Si Si4 0.000000 0.458950 0.750000
Si Si5 0.830014 0.108969 0.824954
Si Si6 0.316205 0.665956 0.111985
Si Si7 0.013927 0.278696 0.875472
Si Si8 0.140673 0.400520 0.513140
O O1 0.348359 0.625385 0.431305
O O2 0.356899 0.771341 0.330182
O O3 0.552278 0.692766 0.386433
O O4 0.414773 0.844639 0.447134
O O5 0.642441 0.783463 0.600363
O O6 0.716664 0.005479 0.638473
O O7 0.667188 0.957270 0.509731
O O8 0.813946 0.882735 0.245083
O O9 0.610442 0.955701 0.248492
O O10 0.005659 0.368280 0.812260
O O11 0.748025 0.219189 0.852133
O O12 0.950865 0.149587 0.855402
O O13 0.798605 0.969491 0.851427
O O14 0.259771 0.653523 0.039252
O O15 0.942708 0.357575 0.929593
#
# Coordination Sequence:
#
# PCOD9455699 Si02
#       8
#     8   8   8   4   8   8   8   8
#     4  11  26  43  67 108 143 188 242 315 356 433
#     4  10  24  43  67  99 147 191 243 293 368 436
#     4  10  22  42  67  97 147 190 239 291 374 425
#     4  10  20  42  66 100 136 194 236 296 354 456
#     4  11  25  46  75 106 145 192 241 303 352 458
#     4  11  27  48  74 109 144 189 250 297 380 430
#     4  10  23  41  72 103 132 186 247 295 358 436
#     4  10  24  44  70  99 140 198 237 303 356 449
#
# _framework density 23.710017000000001
#
# number of rings (size 3 to 8) (size 9 to 14) (size 15 to 20)
#    0.000    1.600    0.000    2.800   11.200    6.933 
#    0.000    0.000    0.000    0.000    0.000    0.000 
#    0.000    0.000    0.000    0.000    0.000    0.000 
#
# Total GULP energy -335291.631738 kJ/mol
# GULP energy per Si atom -5588.193862 kJ/mol
# Density = 2.365605 g / cm^3
# Si number density = 23.710017 Si / 1000 Ang^3
#
#
#
# Elastic Constant Matrix: (Units=GPa)
#
#
# Indices 1 2 3 4 5 6 
#
# 1 122.0112 34.3354 4.9562 0.0000 0.0000 0.0000
# 2 34.3354 88.5260 12.8001 0.0000 0.0000 0.0000
# 3 4.9562 12.8001 64.3054 0.0000 0.0000 0.0000
# 4 0.0000 0.0000 0.0000 79.6995 0.0000 0.0000
# 5 0.0000 0.0000 0.0000 0.0000 27.2817 0.0000
# 6 0.0000 0.0000 0.0000 0.0000 0.0000 1.6924
#
#
#
# Elastic Compliance Matrix: (Units=1/GPa)
#
#
# Indices 1 2 3 4 5 6 
#
# 1 0.009200 -0.003569 0.000001 0.000000 0.000000 0.000000
# 2 -0.003569 0.013015 -0.002316 0.000000 0.000000 0.000000
# 3 0.000001 -0.002316 0.016012 0.000000 0.000000 0.000000
# 4 0.000000 0.000000 0.000000 0.012547 0.000000 0.000000
# 5 0.000000 0.000000 0.000000 0.000000 0.036655 0.000000
# 6 0.000000 0.000000 0.000000 0.000000 0.000000 0.590862
#
#
# Mechanical properties :
#
#
# Convention : Reuss Voigt Hill
#
# Bulk Modulus (GPa) = 37.79150 42.11399 39.95274
# Shear Modulus (GPa) = 7.15434 36.58478 21.86956
#
# Velocity S-wave (km/s) = 1.73896 3.93238 3.04036
# Velocity P-wave (km/s) = 4.47276 6.19829 5.40483
#
# Compressibility (1/GPa) = 0.02646098
#
# Stress axis : x y z
#
# Youngs Moduli (GPa) = 108.69396 76.83443 62.45463
#
# Poissons Ratio (x) = 0.27418 -0.00008
# Poissons Ratio (y) = 0.38788 0.14462
# Poissons Ratio (z) = -0.00013 0.17792
#
# Static dielectric constant tensor:
#      x y z
#    x 1.934090 0.000000 0.000000 
#    y 0.000000 1.957520 0.000000 
#    z 0.000000 0.000000 1.912150 
# 
# From -- ./inp_files/22665.got.cif
#   From: 2010.05.17/outbox.cif.g08.bks.cpg/sg60_12_cif.got.tgz:22665.got - 2010.06.03 14:59:27.
