data_PCOD9455104
_publ_section_title
;
Structure prediction by ZEFSAII (Michael W. Deem and Ramdas Pophale) SiO2 
 PCOD9455104
Probable space group: P B C N
;
_chemical_formula_sum "Si O2"
_cell_formula_units_Z 64
_cell_length_a 13.446313
_cell_length_b 31.218886
_cell_length_c 9.955246
_cell_angle_alpha 90.000000
_cell_angle_beta 90.000000
_cell_angle_gamma 90.000000
_cell_volume 4179.002341
_symmetry_space_group_name_H-M "P B C N"
_symmetry_group_IT_number 60
_symmetry_cell_setting 'orthorhombic'
loop_
_space_group_symop_operation_xyz
x,y,z
1/2-x,1/2-y,1/2+z
1/2+x,1/2-y,-z
-x,y,1/2-z
-x,-y,-z
1/2+x,1/2+y,1/2-z
1/2-x,1/2+y,z
x,-y,1/2+z
loop_
_atom_site_type_symbol
_atom_site_label
_atom_site_fract_x
_atom_site_fract_y
_atom_site_fract_z
Si Si1 0.379193 0.868307 0.764048
Si Si2 0.313808 0.814370 0.011423
Si Si3 0.798364 0.679210 0.479359
Si Si4 0.618755 0.865154 0.234534
Si Si5 0.605646 0.275259 0.063639
Si Si6 0.071246 0.453529 0.877709
Si Si7 0.073571 0.548356 0.875046
Si Si8 0.121899 0.770245 0.115471
O O1 0.500000 0.863709 0.750000
O O2 0.336405 0.833797 0.866804
O O3 0.327331 0.858931 0.622301
O O4 0.359677 0.914525 0.832171
O O5 0.376178 0.770003 0.011990
O O6 0.341243 0.849825 0.122293
O O7 0.202305 0.799623 0.041674
O O8 0.841699 0.667709 0.624332
O O9 0.682059 0.691224 0.496122
O O10 0.854392 0.721442 0.425520
O O11 0.500000 0.863607 0.250000
O O12 0.642284 0.912513 0.173919
O O13 0.633409 0.272459 0.222681
O O14 0.488252 0.283456 0.069294
O O15 0.115923 0.500763 0.905936
O O16 0.000000 0.458177 0.750000
O O17 0.998575 0.440238 0.000098
O O18 0.000000 0.543182 0.750000
#
# Coordination Sequence:
#
# PCOD9455104 Si02
#       8
#     8   8   8   8   8   8   8   8
#     4  11  19  31  49  70 100 131 161 191 234 283
#     4  11  21  32  49  72  91 125 164 199 237 284
#     4  11  21  32  49  72  91 125 166 201 232 291
#     4  11  19  29  45  72 100 123 159 203 229 269
#     4  10  20  36  51  66  94 128 159 203 249 280
#     4   9  17  29  45  65  93 138 161 182 233 288
#     4   9  17  29  43  65  99 128 163 192 227 280
#     4  10  20  36  51  66  94 128 159 203 249 282
#
# _framework density 15.31466
#
# number of rings (size 3 to 8) (size 9 to 14) (size 15 to 20)
#    0.000    1.750    2.500    5.250    0.000    0.000 
#    0.000    1.875    0.000    0.000    0.000    0.000 
#    0.000    6.000    0.000    0.000    0.000    0.000 
#
# Total GULP energy -356277.601250 kJ/mol
# GULP energy per Si atom -5566.837520 kJ/mol
# Density = 1.527980 g / cm^3
# Si number density = 15.314660 Si / 1000 Ang^3
#
#
#
# Elastic Constant Matrix: (Units=GPa)
#
#
# Indices 1 2 3 4 5 6 
#
# 1 69.0076 30.4718 18.6426 0.0000 0.0000 0.0000
# 2 30.4718 63.8320 2.5049 0.0000 0.0000 0.0000
# 3 18.6426 2.5049 73.2470 0.0000 0.0000 0.0000
# 4 0.0000 0.0000 0.0000 22.4232 0.0000 0.0000
# 5 0.0000 0.0000 0.0000 0.0000 23.8176 0.0000
# 6 0.0000 0.0000 0.0000 0.0000 0.0000 13.1177
#
#
#
# Elastic Compliance Matrix: (Units=1/GPa)
#
#
# Indices 1 2 3 4 5 6 
#
# 1 0.019881 -0.009304 -0.004742 0.000000 0.000000 0.000000
# 2 -0.009304 0.020042 0.001683 0.000000 0.000000 0.000000
# 3 -0.004742 0.001683 0.014802 0.000000 0.000000 0.000000
# 4 0.000000 0.000000 0.000000 0.044597 0.000000 0.000000
# 5 0.000000 0.000000 0.000000 0.000000 0.041986 0.000000
# 6 0.000000 0.000000 0.000000 0.000000 0.000000 0.076233
#
#
# Mechanical properties :
#
#
# Convention : Reuss Voigt Hill
#
# Bulk Modulus (GPa) = 33.33635 34.36946 33.85290
# Shear Modulus (GPa) = 19.82036 22.16952 20.99494
#
# Velocity S-wave (km/s) = 3.60141 3.80886 3.70659
# Velocity P-wave (km/s) = 6.25367 6.46793 6.36171
#
# Compressibility (1/GPa) = 0.02999728
#
# Stress axis : x y z
#
# Youngs Moduli (GPa) = 50.29983 49.89570 67.55955
#
# Poissons Ratio (x) = 0.46425 0.32035
# Poissons Ratio (y) = 0.46801 -0.11369
# Poissons Ratio (z) = 0.23851 -0.08396
#
# Static dielectric constant tensor:
#      x y z
#    x 1.475460 0.000000 0.000000 
#    y 0.000000 1.588480 0.000000 
#    z 0.000000 0.000000 1.498770 
# 
# From -- ./inp_files/6403.got.cif
#   From: 2010.05.17/outbox.cif.g08.bks.cpg/sg60_4_cif.got.tgz:6403.got - 2010.06.03 14:59:27.
