data_PCOD9455606
_publ_section_title
;
Structure prediction by ZEFSAII (Michael W. Deem and Ramdas Pophale) SiO2 
 PCOD9455606
Probable space group: P B C N
;
_chemical_formula_sum "Si O2"
_cell_formula_units_Z 56
_cell_length_a 8.882199
_cell_length_b 19.302356
_cell_length_c 16.673690
_cell_angle_alpha 90.000000
_cell_angle_beta 90.000000
_cell_angle_gamma 90.000000
_cell_volume 2858.660251
_symmetry_space_group_name_H-M "P B C N"
_symmetry_group_IT_number 60
_symmetry_cell_setting 'orthorhombic'
loop_
_space_group_symop_operation_xyz
x,y,z
1/2-x,1/2-y,1/2+z
1/2+x,1/2-y,-z
-x,y,1/2-z
-x,-y,-z
1/2+x,1/2+y,1/2-z
1/2-x,1/2+y,z
x,-y,1/2+z
loop_
_atom_site_type_symbol
_atom_site_label
_atom_site_fract_x
_atom_site_fract_y
_atom_site_fract_z
Si Si1 0.500000 0.878717 0.750000
Si Si2 0.806964 0.439781 0.483730
Si Si3 0.763289 0.700976 0.362228
Si Si4 0.855005 0.397104 0.005954
Si Si5 0.314105 0.603998 0.828237
Si Si6 0.000000 0.840100 0.750000
Si Si7 0.839353 0.855903 0.346586
Si Si8 0.773607 0.941582 0.660944
O O1 0.610694 0.831015 0.802339
O O2 0.605175 0.925616 0.692980
O O3 0.825072 0.522858 0.481243
O O4 0.724946 0.413546 0.405359
O O5 0.719334 0.427983 0.566384
O O6 0.963928 0.397900 0.490591
O O7 0.779114 0.653661 0.441394
O O8 0.603401 0.698603 0.315686
O O9 0.803404 0.780086 0.379480
O O10 0.789157 0.382135 0.094415
O O11 0.481889 0.632166 0.842475
O O12 0.269496 0.635722 0.742440
O O13 0.315633 0.520642 0.820369
O O14 0.115494 0.889519 0.795943
#
# Coordination Sequence:
#
# PCOD9455606 Si02
#       8
#     4   8   8   8   8   4   8   8
#     4  10  20  40  68  88 134 166 212 264 328 392
#     4  10  23  41  64  95 129 166 219 267 327 381
#     4  11  24  43  64  95 131 173 214 270 329 395
#     4  10  23  42  65  97 128 166 219 272 319 389
#     4  10  24  41  65  93 127 166 212 269 327 383
#     4  10  24  38  66  96 124 168 226 264 318 396
#     4  11  25  43  62  92 132 174 211 266 334 390
#     4  10  21  40  66 100 122 168 215 273 323 380
#
# _framework density 19.589597000000001
#
# number of rings (size 3 to 8) (size 9 to 14) (size 15 to 20)
#    0.000    1.714    1.429    1.714    8.000    4.000 
#    5.143    0.000    0.000    0.000    0.000    0.000 
#    0.000    0.000    0.000    0.000    0.000    0.000 
#
# Total GULP energy -312700.357160 kJ/mol
# GULP energy per Si atom -5583.934949 kJ/mol
# Density = 1.954501 g / cm^3
# Si number density = 19.589597 Si / 1000 Ang^3
#
#
#
# Elastic Constant Matrix: (Units=GPa)
#
#
# Indices 1 2 3 4 5 6 
#
# 1 56.1430 11.5574 15.7074 0.0000 0.0000 0.0000
# 2 11.5574 37.6114 20.5114 0.0000 0.0000 0.0000
# 3 15.7074 20.5114 99.9094 0.0000 0.0000 0.0000
# 4 0.0000 0.0000 0.0000 35.6410 0.0000 0.0000
# 5 0.0000 0.0000 0.0000 0.0000 8.3119 0.0000
# 6 0.0000 0.0000 0.0000 0.0000 0.0000 69.1885
#
#
#
# Elastic Compliance Matrix: (Units=1/GPa)
#
#
# Indices 1 2 3 4 5 6 
#
# 1 0.019382 -0.004835 -0.002054 0.000000 0.000000 0.000000
# 2 -0.004835 0.031146 -0.005634 0.000000 0.000000 0.000000
# 3 -0.002054 -0.005634 0.011489 0.000000 0.000000 0.000000
# 4 0.000000 0.000000 0.000000 0.028058 0.000000 0.000000
# 5 0.000000 0.000000 0.000000 0.000000 0.120310 0.000000
# 6 0.000000 0.000000 0.000000 0.000000 0.000000 0.014453
#
#
# Mechanical properties :
#
#
# Convention : Reuss Voigt Hill
#
# Bulk Modulus (GPa) = 27.04979 32.13512 29.59245
# Shear Modulus (GPa) = 19.06885 32.35413 25.71149
#
# Velocity S-wave (km/s) = 3.12335 4.06839 3.62678
# Velocity P-wave (km/s) = 5.18124 6.20555 5.71639
#
# Compressibility (1/GPa) = 0.03696887
#
# Stress axis : x y z
#
# Youngs Moduli (GPa) = 51.59477 32.10685 87.04175
#
# Poissons Ratio (x) = 0.15525 0.17882
# Poissons Ratio (y) = 0.24948 0.49040
# Poissons Ratio (z) = 0.10600 0.18089
#
# Static dielectric constant tensor:
#      x y z
#    x 1.694420 0.000000 0.000000 
#    y 0.000000 1.651900 0.000000 
#    z 0.000000 0.000000 1.693700 
# 
# From -- ./inp_files/15309.got.cif
#   From: 2010.05.17/outbox.cif.g08.bks.cpg/sg60_8_cif.got.tgz:15309.got - 2010.06.03 14:59:27.
