data_PCOD9455353
_publ_section_title
;
Structure prediction by ZEFSAII (Michael W. Deem and Ramdas Pophale) SiO2 
 PCOD9455353
Probable space group: P B C N
;
_chemical_formula_sum "Si O2"
_cell_formula_units_Z 64
_cell_length_a 15.896557
_cell_length_b 17.136638
_cell_length_c 10.846276
_cell_angle_alpha 90.000000
_cell_angle_beta 90.000000
_cell_angle_gamma 90.000000
_cell_volume 2954.672471
_symmetry_space_group_name_H-M "P B C N"
_symmetry_group_IT_number 60
_symmetry_cell_setting 'orthorhombic'
loop_
_space_group_symop_operation_xyz
x,y,z
1/2-x,1/2-y,1/2+z
1/2+x,1/2-y,-z
-x,y,1/2-z
-x,-y,-z
1/2+x,1/2+y,1/2-z
1/2-x,1/2+y,z
x,-y,1/2+z
loop_
_atom_site_type_symbol
_atom_site_label
_atom_site_fract_x
_atom_site_fract_y
_atom_site_fract_z
Si Si1 0.699838 0.440585 0.861018
Si Si2 0.719676 0.283978 0.236475
Si Si3 0.853467 0.890259 0.425961
Si Si4 0.445944 0.004175 0.375031
Si Si5 0.790560 0.614239 0.127784
Si Si6 0.668239 0.128806 0.543048
Si Si7 0.618035 0.276471 0.840463
Si Si8 0.947732 0.234483 0.057797
O O1 0.650820 0.518754 0.894909
O O2 0.737195 0.439325 0.723310
O O3 0.639754 0.365630 0.870576
O O4 0.782534 0.424225 0.945075
O O5 0.653956 0.339411 0.302126
O O6 0.695309 0.198447 0.190099
O O7 0.760645 0.329671 0.123208
O O8 0.794364 0.268346 0.335378
O O9 0.771049 0.877840 0.511950
O O10 0.929406 0.849679 0.499227
O O11 0.500000 0.012373 0.250000
O O12 0.379032 0.073232 0.391741
O O13 0.500000 0.000000 0.500000
O O14 0.391178 0.924704 0.372313
O O15 0.608119 0.198271 0.493172
O O16 0.585835 0.270436 0.698952
O O17 0.545795 0.246183 0.930393
#
# Coordination Sequence:
#
# PCOD9455353 Si02
#       8
#     8   8   8   8   8   8   8   8
#     4  11  22  40  66  94 132 170 223 280 338 399
#     4  10  23  39  69  93 123 176 229 270 326 401
#     4  12  22  38  68  94 125 174 221 272 334 405
#     4  12  28  44  66 105 144 184 218 287 362 415
#     4  11  23  45  63  96 133 171 227 274 326 414
#     4  11  22  40  66  95 129 174 229 269 328 420
#     4   9  20  37  61  90 127 161 211 280 328 386
#     4  10  20  38  60  95 124 164 216 276 329 393
#
# _framework density 21.660606000000001
#
# number of rings (size 3 to 8) (size 9 to 14) (size 15 to 20)
#    0.000    1.250    5.000    3.000    5.250    0.500 
#    0.000    0.000    0.000    0.000    0.000    0.000 
#    0.000    0.000    0.000    0.000    0.000    0.000 
#
# Total GULP energy -357634.877912 kJ/mol
# GULP energy per Si atom -5588.044967 kJ/mol
# Density = 2.161131 g / cm^3
# Si number density = 21.660606 Si / 1000 Ang^3
#
#
#
# Elastic Constant Matrix: (Units=GPa)
#
#
# Indices 1 2 3 4 5 6 
#
# 1 44.8826 6.7051 3.8063 0.0000 0.0000 0.0000
# 2 6.7051 65.8850 12.6060 0.0000 0.0000 0.0000
# 3 3.8063 12.6060 51.5034 0.0000 0.0000 0.0000
# 4 0.0000 0.0000 0.0000 27.0546 0.0000 0.0000
# 5 0.0000 0.0000 0.0000 0.0000 4.4235 0.0000
# 6 0.0000 0.0000 0.0000 0.0000 0.0000 9.4738
#
#
#
# Elastic Compliance Matrix: (Units=1/GPa)
#
#
# Indices 1 2 3 4 5 6 
#
# 1 0.022691 -0.002086 -0.001166 0.000000 0.000000 0.000000
# 2 -0.002086 0.016115 -0.003790 0.000000 0.000000 0.000000
# 3 -0.001166 -0.003790 0.020430 0.000000 0.000000 0.000000
# 4 0.000000 0.000000 0.000000 0.036962 0.000000 0.000000
# 5 0.000000 0.000000 0.000000 0.000000 0.226067 0.000000
# 6 0.000000 0.000000 0.000000 0.000000 0.000000 0.105555
#
#
# Mechanical properties :
#
#
# Convention : Reuss Voigt Hill
#
# Bulk Modulus (GPa) = 22.14787 23.16732 22.65759
# Shear Modulus (GPa) = 10.94198 17.46727 14.20462
#
# Velocity S-wave (km/s) = 2.25001 2.84281 2.56360
# Velocity P-wave (km/s) = 4.12276 4.63619 4.38699
#
# Compressibility (1/GPa) = 0.04515107
#
# Stress axis : x y z
#
# Youngs Moduli (GPa) = 44.07054 62.05217 48.94738
#
# Poissons Ratio (x) = 0.12945 0.05709
# Poissons Ratio (y) = 0.09194 0.18552
# Poissons Ratio (z) = 0.05140 0.23519
#
# Static dielectric constant tensor:
#      x y z
#    x 1.794560 0.000000 0.000000 
#    y 0.000000 1.796060 0.000000 
#    z 0.000000 0.000000 1.822490 
# 
# From -- ./inp_files/12538.got.cif
#   From: 2010.05.17/outbox.cif.g08.bks.cpg/sg60_7_cif.got.tgz:12538.got - 2010.06.03 14:59:27.
