data_PCOD9455220
_publ_section_title
;
Structure prediction by ZEFSAII (Michael W. Deem and Ramdas Pophale) SiO2 
 PCOD9455220
Probable space group: P B C N
;
_chemical_formula_sum "Si O2"
_cell_formula_units_Z 48
_cell_length_a 9.140457
_cell_length_b 29.772337
_cell_length_c 9.379758
_cell_angle_alpha 90.000000
_cell_angle_beta 90.000000
_cell_angle_gamma 90.000000
_cell_volume 2552.539490
_symmetry_space_group_name_H-M "P B C N"
_symmetry_group_IT_number 60
_symmetry_cell_setting 'orthorhombic'
loop_
_space_group_symop_operation_xyz
x,y,z
1/2-x,1/2-y,1/2+z
1/2+x,1/2-y,-z
-x,y,1/2-z
-x,-y,-z
1/2+x,1/2+y,1/2-z
1/2-x,1/2+y,z
x,-y,1/2+z
loop_
_atom_site_type_symbol
_atom_site_label
_atom_site_fract_x
_atom_site_fract_y
_atom_site_fract_z
Si Si1 0.500000 0.021896 0.250000
Si Si2 0.998638 0.684494 0.499945
Si Si3 0.500000 0.113238 0.750000
Si Si4 0.275237 0.422609 0.866622
Si Si5 0.720269 0.951261 0.334958
Si Si6 0.500000 0.509254 0.250000
Si Si7 0.000000 0.242620 0.250000
Si Si8 0.233014 0.325521 0.750586
O O1 0.373542 0.052739 0.315518
O O2 0.594561 0.989475 0.354956
O O3 0.988894 0.726917 0.606910
O O4 0.131337 0.686474 0.387026
O O5 0.016209 0.643781 0.611029
O O6 0.860730 0.676729 0.395115
O O7 0.358966 0.081376 0.777166
O O8 0.412374 0.456251 0.850774
O O9 0.289442 0.376075 0.782846
O O10 0.252669 0.418903 0.033933
O O11 0.868923 0.977351 0.301789
O O12 0.860478 0.210518 0.259544
#
# Coordination Sequence:
#
# PCOD9455220 Si02
#       8
#     4   8   4   8   8   4   4   8
#     4   9  20  33  58  88 112 164 206 257 286 349
#     4  10  22  41  65  89 122 153 202 246 307 359
#     4  10  20  40  61  88 112 162 205 262 280 362
#     4  11  20  37  58  87 121 155 210 247 302 350
#     4  10  20  37  58  83 122 160 211 242 307 342
#     4  10  23  38  51  88 124 172 187 262 299 360
#     4  11  23  41  64  94 124 154 192 247 315 377
#     4  11  22  40  65  94 119 160 197 253 300 366
#
# _framework density 18.804801000000001
#
# number of rings (size 3 to 8) (size 9 to 14) (size 15 to 20)
#    0.000    1.667    1.667    3.500    0.000    0.000 
#   12.000    0.000    0.000    0.000    0.000    0.000 
#    0.000    0.000    0.000    0.000    0.000    0.000 
#
# Total GULP energy -267309.245459 kJ/mol
# GULP energy per Si atom -5568.942614 kJ/mol
# Density = 1.876200 g / cm^3
# Si number density = 18.804801 Si / 1000 Ang^3
#
#
#
# Elastic Constant Matrix: (Units=GPa)
#
#
# Indices 1 2 3 4 5 6 
#
# 1 125.8743 67.3833 41.4582 0.0000 0.0000 0.0000
# 2 67.3833 139.0152 55.8683 0.0000 0.0000 0.0000
# 3 41.4582 55.8683 97.0265 0.0000 0.0000 0.0000
# 4 0.0000 0.0000 0.0000 -4.4394 0.0000 0.0000
# 5 0.0000 0.0000 0.0000 0.0000 12.6996 0.0000
# 6 0.0000 0.0000 0.0000 0.0000 0.0000 18.8926
#
#
#
# Elastic Compliance Matrix: (Units=1/GPa)
#
#
# Indices 1 2 3 4 5 6 
#
# 1 0.011057 -0.004503 -0.002132 0.000000 0.000000 0.000000
# 2 -0.004503 0.011193 -0.004521 0.000000 0.000000 0.000000
# 3 -0.002132 -0.004521 0.013821 0.000000 0.000000 0.000000
# 4 0.000000 0.000000 0.000000 -0.225254 0.000000 0.000000
# 5 0.000000 0.000000 0.000000 0.000000 0.078743 0.000000
# 6 0.000000 0.000000 0.000000 0.000000 0.000000 0.052931
#
#
# Mechanical properties :
#
#
# Convention : Reuss Voigt Hill
#
# Bulk Modulus (GPa) = 72.67759 76.81508 74.74633
# Shear Modulus (GPa) = -163.33250 18.57763 -72.37743
#
# Velocity S-wave (km/s) = -9.32981 3.14653 -6.21067
# Velocity P-wave (km/s) = 8.79364 7.35787 3.40514
#
# Compressibility (1/GPa) = 0.01375940
#
# Stress axis : x y z
#
# Youngs Moduli (GPa) = 90.44033 89.34179 72.35607
#
# Poissons Ratio (x) = 0.40229 0.15425
# Poissons Ratio (y) = 0.40724 0.32712
# Poissons Ratio (z) = 0.19280 0.40391
#
# Static dielectric constant tensor:
#      x y z
#    x 1.656680 0.000000 0.000000 
#    y 0.000000 1.655620 0.000000 
#    z 0.000000 0.000000 1.676050 
# 
# From -- ./inp_files/4303.got.cif
#   From: 2010.05.17/outbox.cif.g08.bks.cpg/sg60_3_cif.got.tgz:4303.got - 2010.06.03 14:59:27.
