data_PCOD9455729
_publ_section_title
;
Structure prediction by ZEFSAII (Michael W. Deem and Ramdas Pophale) SiO2 
 PCOD9455729
Probable space group: P B C N
;
_chemical_formula_sum "Si O2"
_cell_formula_units_Z 48
_cell_length_a 9.597234
_cell_length_b 26.892853
_cell_length_c 9.414875
_cell_angle_alpha 90.000000
_cell_angle_beta 90.000000
_cell_angle_gamma 90.000000
_cell_volume 2429.951023
_symmetry_space_group_name_H-M "P B C N"
_symmetry_group_IT_number 60
_symmetry_cell_setting 'orthorhombic'
loop_
_space_group_symop_operation_xyz
x,y,z
1/2-x,1/2-y,1/2+z
1/2+x,1/2-y,-z
-x,y,1/2-z
-x,-y,-z
1/2+x,1/2+y,1/2-z
1/2-x,1/2+y,z
x,-y,1/2+z
loop_
_atom_site_type_symbol
_atom_site_label
_atom_site_fract_x
_atom_site_fract_y
_atom_site_fract_z
Si Si1 0.342267 0.121802 0.239341
Si Si2 0.844336 0.099121 0.798272
Si Si3 0.859369 0.783151 0.338165
Si Si4 0.832392 0.451882 0.513815
Si Si5 0.851141 0.212294 0.175057
Si Si6 0.141469 0.568550 0.952434
O O1 0.500000 0.142265 0.250000
O O2 0.341375 0.070585 0.328645
O O3 0.235814 0.161192 0.304589
O O4 0.316164 0.106349 0.077611
O O5 0.835787 0.158000 0.821314
O O6 0.802138 0.070666 0.940115
O O7 0.731615 0.082485 0.682561
O O8 0.000000 0.086808 0.750000
O O9 0.735881 0.753196 0.262700
O O10 0.866744 0.773778 0.508162
O O11 0.000000 0.770938 0.250000
O O12 0.830251 0.511059 0.508654
O O13 0.973384 0.431064 0.438971
O O14 0.000000 0.206548 0.250000
#
# Coordination Sequence:
#
# PCOD9455729 Si02
#       6
#     8   8   8   8   8   8
#     4  10  22  39  64  95 130 167 216 268 323 384
#     4  11  24  40  63  94 134 168 210 267 324 388
#     4  11  26  47  67  97 135 168 219 267 329 402
#     4  10  20  43  61  95 127 170 224 266 321 375
#     4  12  26  44  72  96 130 173 214 274 330 392
#     4  10  22  37  69  91 128 174 217 272 313 385
#
# _framework density 19.753484
#
# number of rings (size 3 to 8) (size 9 to 14) (size 15 to 20)
#    0.000    1.333    1.667    3.000    7.000    4.667 
#    0.000    1.667    0.000    0.000    0.000    0.000 
#    0.000    0.000    0.000    0.000    0.000    0.000 
#
# Total GULP energy -268181.582693 kJ/mol
# GULP energy per Si atom -5587.116306 kJ/mol
# Density = 1.970852 g / cm^3
# Si number density = 19.753484 Si / 1000 Ang^3
#
#
#
# Elastic Constant Matrix: (Units=GPa)
#
#
# Indices 1 2 3 4 5 6 
#
# 1 97.3932 37.5166 49.3059 0.0000 0.0000 0.0000
# 2 37.5166 46.2447 18.9498 0.0000 0.0000 0.0000
# 3 49.3059 18.9498 127.9229 0.0000 0.0000 0.0000
# 4 0.0000 0.0000 0.0000 25.9262 0.0000 0.0000
# 5 0.0000 0.0000 0.0000 0.0000 31.7621 0.0000
# 6 0.0000 0.0000 0.0000 0.0000 0.0000 129.2914
#
#
#
# Elastic Compliance Matrix: (Units=1/GPa)
#
#
# Indices 1 2 3 4 5 6 
#
# 1 0.017429 -0.012123 -0.004922 0.000000 0.000000 0.000000
# 2 -0.012123 0.031453 0.000013 0.000000 0.000000 0.000000
# 3 -0.004922 0.000013 0.009712 0.000000 0.000000 0.000000
# 4 0.000000 0.000000 0.000000 0.038571 0.000000 0.000000
# 5 0.000000 0.000000 0.000000 0.000000 0.031484 0.000000
# 6 0.000000 0.000000 0.000000 0.000000 0.000000 0.007734
#
#
# Mechanical properties :
#
#
# Convention : Reuss Voigt Hill
#
# Bulk Modulus (GPa) = 40.76338 53.67838 47.22088
# Shear Modulus (GPa) = 27.99156 48.44850 38.22003
#
# Velocity S-wave (km/s) = 3.76845 4.95780 4.40347
# Velocity P-wave (km/s) = 6.29411 7.74637 7.05769
#
# Compressibility (1/GPa) = 0.02453182
#
# Stress axis : x y z
#
# Youngs Moduli (GPa) = 57.37474 31.79302 102.96142
#
# Poissons Ratio (x) = 0.38542 0.50678
# Poissons Ratio (y) = 0.69554 -0.00136
# Poissons Ratio (z) = 0.28240 -0.00042
#
# Static dielectric constant tensor:
#      x y z
#    x 1.678000 0.000000 0.000000 
#    y 0.000000 1.665400 0.000000 
#    z 0.000000 0.000000 1.668810 
# 
# From -- ./inp_files/4174.got.cif
#   From: 2010.05.17/outbox.cif.g08.bks.cpg/sg60_3_cif.got.tgz:4174.got - 2010.06.03 14:59:27.
