data_PCOD9455142
_publ_section_title
;
Structure prediction by ZEFSAII (Michael W. Deem and Ramdas Pophale) SiO2 
 PCOD9455142
Probable space group: P B C N
;
_chemical_formula_sum "Si O2"
_cell_formula_units_Z 36
_cell_length_a 19.494386
_cell_length_b 16.825159
_cell_length_c 5.238549
_cell_angle_alpha 90.000000
_cell_angle_beta 90.000000
_cell_angle_gamma 90.000000
_cell_volume 1718.223872
_symmetry_space_group_name_H-M "P B C N"
_symmetry_group_IT_number 60
_symmetry_cell_setting 'orthorhombic'
loop_
_space_group_symop_operation_xyz
x,y,z
1/2-x,1/2-y,1/2+z
1/2+x,1/2-y,-z
-x,y,1/2-z
-x,-y,-z
1/2+x,1/2+y,1/2-z
1/2-x,1/2+y,z
x,-y,1/2+z
loop_
_atom_site_type_symbol
_atom_site_label
_atom_site_fract_x
_atom_site_fract_y
_atom_site_fract_z
Si Si1 0.000000 0.668388 0.250000
Si Si2 0.903810 0.952549 0.862291
Si Si3 0.738205 0.047303 0.359087
Si Si4 0.139991 0.688949 0.087015
Si Si5 0.092681 0.229756 0.070113
O O1 0.927663 0.633546 0.345508
O O2 0.024600 0.723649 0.482799
O O3 0.924821 0.861704 0.893507
O O4 0.925062 0.992643 0.598445
O O5 0.820508 0.948668 0.862747
O O6 0.705206 0.132852 0.405877
O O7 0.716634 0.011484 0.087193
O O8 0.127533 0.732183 0.818825
O O9 0.139445 0.753035 0.317835
#
# Coordination Sequence:
#
# PCOD9455142 Si02
#       5
#     4   8   8   8   8
#     4   8  22  36  58  80 110 144 188 238 262 312
#     4  10  21  37  56  83 117 145 178 228 281 330
#     4  10  21  37  56  83 117 145 178 228 281 330
#     4  10  20  36  59  80 111 145 187 227 273 320
#     4  10  20  36  59  80 111 145 187 227 273 320
#
# _framework density 20.951865999999999
#
# number of rings (size 3 to 8) (size 9 to 14) (size 15 to 20)
#    1.333    0.889    0.000    3.333    0.000    1.778 
#    0.000    2.222    0.000    0.000    0.000    0.000 
#    0.000    0.000    0.000    0.000    0.000    0.000 
#
# Total GULP energy -200706.115817 kJ/mol
# GULP energy per Si atom -5575.169884 kJ/mol
# Density = 2.090418 g / cm^3
# Si number density = 20.951866 Si / 1000 Ang^3
#
#
#
# Elastic Constant Matrix: (Units=GPa)
#
#
# Indices 1 2 3 4 5 6 
#
# 1 45.2802 23.2176 34.3172 0.0000 0.0000 0.0000
# 2 23.2176 44.5405 20.1410 0.0000 0.0000 0.0000
# 3 34.3172 20.1410 138.8193 0.0000 0.0000 0.0000
# 4 0.0000 0.0000 0.0000 81.2468 0.0000 0.0000
# 5 0.0000 0.0000 0.0000 0.0000 15.1039 0.0000
# 6 0.0000 0.0000 0.0000 0.0000 0.0000 -4.7629
#
#
#
# Elastic Compliance Matrix: (Units=1/GPa)
#
#
# Indices 1 2 3 4 5 6 
#
# 1 0.034718 -0.015214 -0.006375 0.000000 0.000000 0.000000
# 2 -0.015214 0.030695 -0.000692 0.000000 0.000000 0.000000
# 3 -0.006375 -0.000692 0.008880 0.000000 0.000000 0.000000
# 4 0.000000 0.000000 0.000000 0.012308 0.000000 0.000000
# 5 0.000000 0.000000 0.000000 0.000000 0.066208 0.000000
# 6 0.000000 0.000000 0.000000 0.000000 0.000000 -0.209958
#
#
# Mechanical properties :
#
#
# Convention : Reuss Voigt Hill
#
# Bulk Modulus (GPa) = 33.63691 42.66571 38.15131
# Shear Modulus (GPa) = -1868.77487 28.38185 -920.19651
#
# Velocity S-wave (km/s) = -29.89772 3.68451 -20.97973
# Velocity P-wave (km/s) = 34.28910 6.20554 23.84569
#
# Compressibility (1/GPa) = 0.02972925
#
# Stress axis : x y z
#
# Youngs Moduli (GPa) = 28.80389 32.57816 112.61244
#
# Poissons Ratio (x) = 0.49566 0.71790
# Poissons Ratio (y) = 0.43824 0.07797
# Poissons Ratio (z) = 0.18362 0.02256
#
# Static dielectric constant tensor:
#      x y z
#    x 1.824540 0.000000 0.000000 
#    y 0.000000 1.699210 0.000000 
#    z 0.000000 0.000000 1.741270 
# 
# From -- ./inp_files/2291.got.cif
#   From: 2010.05.17/outbox.cif.g08.bks.cpg/sg60_2_cif.got.tgz:2291.got - 2010.06.03 14:59:27.
