data_PCOD9455153
_publ_section_title
;
Structure prediction by ZEFSAII (Michael W. Deem and Ramdas Pophale) SiO2 
 PCOD9455153
Probable space group: P B C N
;
_chemical_formula_sum "Si O2"
_cell_formula_units_Z 56
_cell_length_a 19.713406
_cell_length_b 13.352936
_cell_length_c 8.712434
_cell_angle_alpha 90.000000
_cell_angle_beta 90.000000
_cell_angle_gamma 90.000000
_cell_volume 2293.390108
_symmetry_space_group_name_H-M "P B C N"
_symmetry_group_IT_number 60
_symmetry_cell_setting 'orthorhombic'
loop_
_space_group_symop_operation_xyz
x,y,z
1/2-x,1/2-y,1/2+z
1/2+x,1/2-y,-z
-x,y,1/2-z
-x,-y,-z
1/2+x,1/2+y,1/2-z
1/2-x,1/2+y,z
x,-y,1/2+z
loop_
_atom_site_type_symbol
_atom_site_label
_atom_site_fract_x
_atom_site_fract_y
_atom_site_fract_z
Si Si1 0.162342 0.750531 0.054461
Si Si2 0.699484 0.422577 0.642336
Si Si3 0.609483 0.450624 0.912788
Si Si4 0.410312 0.939485 0.921120
Si Si5 0.180253 0.458235 0.649126
Si Si6 0.071535 0.143181 0.781633
Si Si7 0.027232 0.664215 0.916118
O O1 0.198144 0.643271 0.061414
O O2 0.138063 0.799804 0.216250
O O3 0.210211 0.824033 0.957961
O O4 0.089167 0.732424 0.972388
O O5 0.646324 0.393725 0.775520
O O6 0.665199 0.496995 0.522026
O O7 0.760012 0.477369 0.731490
O O8 0.571348 0.540944 0.823635
O O9 0.571824 0.384010 0.038154
O O10 0.382788 0.921259 0.752534
O O11 0.442764 0.050439 0.907624
O O12 0.462180 0.856442 0.977166
O O13 0.348747 0.954715 0.042626
O O14 0.000000 0.195074 0.750000
O O15 0.000000 0.695499 0.750000
#
# Coordination Sequence:
#
# PCOD9455153 Si02
#       7
#     8   8   8   8   8   8   8
#     4  10  25  37  55  90 126 159 198 249 319 373
#     4  10  21  42  60  88 121 161 209 257 302 367
#     4   9  20  39  64  83 114 156 211 251 298 360
#     4  10  21  37  66  91 114 164 207 257 304 357
#     4  11  22  40  61  90 122 160 212 250 305 367
#     4  10  20  36  59  89 115 155 199 253 309 363
#     4  10  20  39  60  90 128 153 206 256 307 378
#
# _framework density 24.418001
#
# number of rings (size 3 to 8) (size 9 to 14) (size 15 to 20)
#    0.000    2.000    1.429    1.286    2.000    2.286 
#    2.571    4.286    0.000    0.000    0.000    0.000 
#    0.000    0.000    0.000    0.000    0.000    0.000 
#
# Total GULP energy -312848.057161 kJ/mol
# GULP energy per Si atom -5586.572449 kJ/mol
# Density = 2.436242 g / cm^3
# Si number density = 24.418001 Si / 1000 Ang^3
#
#
#
# Elastic Constant Matrix: (Units=GPa)
#
#
# Indices 1 2 3 4 5 6 
#
# 1 48.6969 7.1491 16.4162 0.0000 0.0000 0.0000
# 2 7.1491 50.7652 12.8859 0.0000 0.0000 0.0000
# 3 16.4162 12.8859 108.3973 0.0000 0.0000 0.0000
# 4 0.0000 0.0000 0.0000 13.3297 0.0000 0.0000
# 5 0.0000 0.0000 0.0000 0.0000 51.4503 0.0000
# 6 0.0000 0.0000 0.0000 0.0000 0.0000 21.7835
#
#
#
# Elastic Compliance Matrix: (Units=1/GPa)
#
#
# Indices 1 2 3 4 5 6 
#
# 1 0.021900 -0.002312 -0.003042 0.000000 0.000000 0.000000
# 2 -0.002312 0.020555 -0.002093 0.000000 0.000000 0.000000
# 3 -0.003042 -0.002093 0.009935 0.000000 0.000000 0.000000
# 4 0.000000 0.000000 0.000000 0.075020 0.000000 0.000000
# 5 0.000000 0.000000 0.000000 0.000000 0.019436 0.000000
# 6 0.000000 0.000000 0.000000 0.000000 0.000000 0.045906
#
#
# Mechanical properties :
#
#
# Convention : Reuss Voigt Hill
#
# Bulk Modulus (GPa) = 26.66959 31.19577 28.93268
# Shear Modulus (GPa) = 22.71215 28.73992 25.72603
#
# Velocity S-wave (km/s) = 3.05313 3.43446 3.24939
# Velocity P-wave (km/s) = 4.83473 5.34143 5.09438
#
# Compressibility (1/GPa) = 0.03749589
#
# Stress axis : x y z
#
# Youngs Moduli (GPa) = 45.66201 48.64879 100.65576
#
# Poissons Ratio (x) = 0.11248 0.30618
# Poissons Ratio (y) = 0.10557 0.21072
# Poissons Ratio (z) = 0.13890 0.10184
#
# Static dielectric constant tensor:
#      x y z
#    x 2.005660 0.000000 0.000000 
#    y 0.000000 1.936860 0.000000 
#    z 0.000000 0.000000 1.953540 
# 
# From -- ./inp_files/7441.got.cif
#   From: 2010.05.17/outbox.cif.g08.bks.cpg/sg60_4_cif.got.tgz:7441.got - 2010.06.03 14:59:27.
