data_PCOD9455957
_publ_section_title
;
Structure prediction by ZEFSAII (Michael W. Deem and Ramdas Pophale) SiO2 
 PCOD9455957
Probable space group: P B C N
;
_chemical_formula_sum "Si O2"
_cell_formula_units_Z 60
_cell_length_a 5.434338
_cell_length_b 23.281781
_cell_length_c 20.242625
_cell_angle_alpha 90.000000
_cell_angle_beta 90.000000
_cell_angle_gamma 90.000000
_cell_volume 2561.118518
_symmetry_space_group_name_H-M "P B C N"
_symmetry_group_IT_number 60
_symmetry_cell_setting 'orthorhombic'
loop_
_space_group_symop_operation_xyz
x,y,z
1/2-x,1/2-y,1/2+z
1/2+x,1/2-y,-z
-x,y,1/2-z
-x,-y,-z
1/2+x,1/2+y,1/2-z
1/2-x,1/2+y,z
x,-y,1/2+z
loop_
_atom_site_type_symbol
_atom_site_label
_atom_site_fract_x
_atom_site_fract_y
_atom_site_fract_z
Si Si1 0.671876 0.207395 0.811129
Si Si2 0.552283 0.676829 0.489079
Si Si3 0.168148 0.054528 0.994680
Si Si4 0.500000 0.616014 0.750000
Si Si5 0.725507 0.757792 0.094985
Si Si6 0.700828 0.475627 0.152996
Si Si7 0.120620 0.679590 0.143585
Si Si8 0.179341 0.453012 0.637446
O O1 0.500000 0.194746 0.750000
O O2 0.503052 0.208506 0.875308
O O3 0.752270 0.273952 0.809151
O O4 0.879104 0.159677 0.802863
O O5 0.502675 0.609845 0.489050
O O6 0.606579 0.694101 0.563645
O O7 0.341691 0.719020 0.467253
O O8 0.759842 0.684577 0.430877
O O9 0.249685 0.054123 0.918680
O O10 0.353043 0.050689 0.056863
O O11 0.000000 0.000000 0.000000
O O12 0.328386 0.573061 0.791574
O O13 0.851367 0.709384 0.140421
O O14 0.442744 0.513967 0.150542
O O15 0.942269 0.513988 0.165123
O O16 0.162760 0.613367 0.161594
#
# Coordination Sequence:
#
# PCOD9455957 Si02
#       8
#     8   8   8   4   8   8   8   8
#     4  11  27  47  71  98 144 191 246 304 364 445
#     4  10  21  37  63 107 141 183 232 296 367 443
#     4   9  21  40  68 103 144 191 238 297 375 441
#     4  12  30  50  68 106 144 194 256 298 372 454
#     4  11  22  39  69 104 144 185 236 301 379 432
#     4  11  26  47  73 103 151 197 248 306 369 440
#     4  10  23  44  71 105 141 183 239 307 371 436
#     4  10  24  47  75 109 142 187 251 312 373 446
#
# _framework density 23.427263
#
# number of rings (size 3 to 8) (size 9 to 14) (size 15 to 20)
#    0.000    1.600    1.333    1.200   13.067    0.000 
#    3.600    1.333    0.000    0.000    0.000    0.000 
#    0.000    0.000    0.000    0.000    0.000    0.000 
#
# Total GULP energy -334525.143457 kJ/mol
# GULP energy per Si atom -5575.419058 kJ/mol
# Density = 2.337394 g / cm^3
# Si number density = 23.427263 Si / 1000 Ang^3
#
#
#
# Elastic Constant Matrix: (Units=GPa)
#
#
# Indices 1 2 3 4 5 6 
#
# 1 86.1633 47.8169 14.1760 0.0000 0.0000 0.0000
# 2 47.8169 147.9794 38.4613 0.0000 0.0000 0.0000
# 3 14.1760 38.4613 56.2885 0.0000 0.0000 0.0000
# 4 0.0000 0.0000 0.0000 24.5621 0.0000 0.0000
# 5 0.0000 0.0000 0.0000 0.0000 22.4693 0.0000
# 6 0.0000 0.0000 0.0000 0.0000 0.0000 2.7742
#
#
#
# Elastic Compliance Matrix: (Units=1/GPa)
#
#
# Indices 1 2 3 4 5 6 
#
# 1 0.014155 -0.004435 -0.000534 0.000000 0.000000 0.000000
# 2 -0.004435 0.009607 -0.005447 0.000000 0.000000 0.000000
# 3 -0.000534 -0.005447 0.021622 0.000000 0.000000 0.000000
# 4 0.000000 0.000000 0.000000 0.040713 0.000000 0.000000
# 5 0.000000 0.000000 0.000000 0.000000 0.044505 0.000000
# 6 0.000000 0.000000 0.000000 0.000000 0.000000 0.360465
#
#
# Mechanical properties :
#
#
# Convention : Reuss Voigt Hill
#
# Bulk Modulus (GPa) = 40.73231 54.59329 47.66280
# Shear Modulus (GPa) = 9.61383 22.62625 16.12004
#
# Velocity S-wave (km/s) = 2.02795 3.11112 2.62599
# Velocity P-wave (km/s) = 4.78622 6.02157 5.43908
#
# Compressibility (1/GPa) = 0.02455053
#
# Stress axis : x y z
#
# Youngs Moduli (GPa) = 70.64615 104.09566 46.24881
#
# Poissons Ratio (x) = 0.46167 0.02472
# Poissons Ratio (y) = 0.31332 0.25192
# Poissons Ratio (z) = 0.03776 0.56702
#
# Static dielectric constant tensor:
#      x y z
#    x 2.054540 0.000000 0.000000 
#    y 0.000000 1.829700 0.000000 
#    z 0.000000 0.000000 1.906070 
# 
# From -- ./inp_files/21763.got.cif
#   From: 2010.05.17/outbox.cif.g08.bks.cpg/sg60_11_cif.got.tgz:21763.got - 2010.06.03 14:59:27.
