data_PCOD9455461
_publ_section_title
;
Structure prediction by ZEFSAII (Michael W. Deem and Ramdas Pophale) SiO2 
 PCOD9455461
Probable space group: P B C N
;
_chemical_formula_sum "Si O2"
_cell_formula_units_Z 48
_cell_length_a 15.214633
_cell_length_b 18.246622
_cell_length_c 8.243145
_cell_angle_alpha 90.000000
_cell_angle_beta 90.000000
_cell_angle_gamma 90.000000
_cell_volume 2288.426117
_symmetry_space_group_name_H-M "P B C N"
_symmetry_group_IT_number 60
_symmetry_cell_setting 'orthorhombic'
loop_
_space_group_symop_operation_xyz
x,y,z
1/2-x,1/2-y,1/2+z
1/2+x,1/2-y,-z
-x,y,1/2-z
-x,-y,-z
1/2+x,1/2+y,1/2-z
1/2-x,1/2+y,z
x,-y,1/2+z
loop_
_atom_site_type_symbol
_atom_site_label
_atom_site_fract_x
_atom_site_fract_y
_atom_site_fract_z
Si Si1 0.000000 0.918364 0.750000
Si Si2 0.820946 0.840958 0.099830
Si Si3 0.082198 0.211638 0.434646
Si Si4 0.500000 0.703770 0.750000
Si Si5 0.251424 0.608405 0.463128
Si Si6 0.333113 0.788289 0.159799
Si Si7 0.688538 0.467938 0.855612
O O1 0.026244 0.861016 0.890663
O O2 0.086551 0.962850 0.701414
O O3 0.748562 0.811339 0.225022
O O4 0.915500 0.840523 0.186820
O O5 0.823110 0.784839 0.947517
O O6 0.802363 0.918539 0.017033
O O7 0.178521 0.175298 0.455038
O O8 0.092021 0.267972 0.287987
O O9 0.039985 0.245513 0.595090
O O10 0.162880 0.645986 0.529298
O O11 0.283846 0.548605 0.592863
O O12 0.255220 0.569383 0.288473
#
# Coordination Sequence:
#
# PCOD9455461 Si02
#       7
#     4   8   8   4   8   8   8
#     4  10  20  39  56  86 132 177 206 252 310 391
#     4  12  21  38  61  86 130 166 220 265 325 381
#     4  11  21  36  57  84 122 173 214 262 308 373
#     4  12  22  35  60  94 118 169 212 270 316 385
#     4  11  23  37  58  88 126 180 213 256 317 375
#     4  12  21  40  59  86 126 179 217 275 308 381
#     4  11  23  38  57  89 131 173 214 255 316 403
#
# _framework density 20.975114000000001
#
# number of rings (size 3 to 8) (size 9 to 14) (size 15 to 20)
#    0.000    0.667    8.333    1.000    0.000    3.333 
#    0.000    0.000    0.000    0.000    0.000    0.000 
#    0.000  140.000    0.000    0.000    0.000    0.000 
#
# Total GULP energy -267985.939373 kJ/mol
# GULP energy per Si atom -5583.040404 kJ/mol
# Density = 2.092737 g / cm^3
# Si number density = 20.975114 Si / 1000 Ang^3
#
#
#
# Elastic Constant Matrix: (Units=GPa)
#
#
# Indices 1 2 3 4 5 6 
#
# 1 52.1116 39.0950 28.9595 0.0000 0.0000 0.0000
# 2 39.0950 93.3600 23.9163 0.0000 0.0000 0.0000
# 3 28.9595 23.9163 106.2640 0.0000 0.0000 0.0000
# 4 0.0000 0.0000 0.0000 33.0079 0.0000 0.0000
# 5 0.0000 0.0000 0.0000 0.0000 48.0318 0.0000
# 6 0.0000 0.0000 0.0000 0.0000 0.0000 11.2501
#
#
#
# Elastic Compliance Matrix: (Units=1/GPa)
#
#
# Indices 1 2 3 4 5 6 
#
# 1 0.031098 -0.011515 -0.005883 0.000000 0.000000 0.000000
# 2 -0.011515 0.015631 -0.000380 0.000000 0.000000 0.000000
# 3 -0.005883 -0.000380 0.011099 0.000000 0.000000 0.000000
# 4 0.000000 0.000000 0.000000 0.030296 0.000000 0.000000
# 5 0.000000 0.000000 0.000000 0.000000 0.020820 0.000000
# 6 0.000000 0.000000 0.000000 0.000000 0.000000 0.088888
#
#
# Mechanical properties :
#
#
# Convention : Reuss Voigt Hill
#
# Bulk Modulus (GPa) = 44.90071 48.40858 46.65465
# Shear Modulus (GPa) = 20.76313 29.10894 24.93604
#
# Velocity S-wave (km/s) = 3.14967 3.72934 3.45170
# Velocity P-wave (km/s) = 5.88900 6.45547 6.17873
#
# Compressibility (1/GPa) = 0.02227136
#
# Stress axis : x y z
#
# Youngs Moduli (GPa) = 32.15634 63.97704 90.09564
#
# Poissons Ratio (x) = 0.73672 0.53006
# Poissons Ratio (y) = 0.37029 0.03421
# Poissons Ratio (z) = 0.18918 0.02429
#
# Static dielectric constant tensor:
#      x y z
#    x 1.811330 0.000000 0.000000 
#    y 0.000000 1.724570 0.000000 
#    z 0.000000 0.000000 1.856600 
# 
# From -- ./inp_files/5956.got.cif
#   From: 2010.05.17/outbox.cif.g08.bks.cpg/sg60_3_cif.got.tgz:5956.got - 2010.06.03 14:59:27.
