data_PCOD9455800
_publ_section_title
;
Structure prediction by ZEFSAII (Michael W. Deem and Ramdas Pophale) SiO2 
 PCOD9455800
Probable space group: P B C N
;
_chemical_formula_sum "Si O2"
_cell_formula_units_Z 48
_cell_length_a 11.673079
_cell_length_b 14.251045
_cell_length_c 11.493939
_cell_angle_alpha 90.000000
_cell_angle_beta 90.000000
_cell_angle_gamma 90.000000
_cell_volume 1912.057833
_symmetry_space_group_name_H-M "P B C N"
_symmetry_group_IT_number 60
_symmetry_cell_setting 'orthorhombic'
loop_
_space_group_symop_operation_xyz
x,y,z
1/2-x,1/2-y,1/2+z
1/2+x,1/2-y,-z
-x,y,1/2-z
-x,-y,-z
1/2+x,1/2+y,1/2-z
1/2-x,1/2+y,z
x,-y,1/2+z
loop_
_atom_site_type_symbol
_atom_site_label
_atom_site_fract_x
_atom_site_fract_y
_atom_site_fract_z
Si Si1 0.606344 0.835609 0.166712
Si Si2 0.537587 0.412246 0.575420
Si Si3 0.430123 0.235042 0.081946
Si Si4 0.289483 0.358422 0.597291
Si Si5 0.819837 0.282704 0.616221
Si Si6 0.236675 0.508368 0.401149
O O1 0.500000 0.824975 0.250000
O O2 0.559628 0.828688 0.034850
O O3 0.705320 0.756663 0.181345
O O4 0.671089 0.934524 0.179103
O O5 0.500000 0.500000 0.500000
O O6 0.588988 0.336150 0.482762
O O7 0.422359 0.372221 0.634356
O O8 0.640911 0.457367 0.648669
O O9 0.330676 0.178995 0.153935
O O10 0.551172 0.247619 0.144755
O O11 0.302422 0.274375 0.504402
O O12 0.257770 0.452308 0.522187
O O13 0.825500 0.392901 0.591607
#
# Coordination Sequence:
#
# PCOD9455800 Si02
#       6
#     8   8   8   8   8   8
#     4  10  21  34  53  89 124 163 201 252 312 371
#     4   9  14  25  47  79 113 148 197 242 293 349
#     4   9  16  30  50  84 122 152 200 247 301 353
#     4   8  16  23  43  83 116 142 184 241 296 342
#     4   9  16  30  53  81 113 154 194 252 294 346
#     4   9  15  29  51  77 110 151 191 236 299 349
#
# _framework density 25.103845
#
# number of rings (size 3 to 8) (size 9 to 14) (size 15 to 20)
#    0.000    3.333    3.333    1.000    0.000    2.667 
#    0.000    0.000    0.000   14.000    0.000    2.333 
#    0.000    0.000    0.000    0.000    0.000    0.000 
#
# Total GULP energy -267235.734386 kJ/mol
# GULP energy per Si atom -5567.411133 kJ/mol
# Density = 2.504671 g / cm^3
# Si number density = 25.103845 Si / 1000 Ang^3
#
#
#
# Elastic Constant Matrix: (Units=GPa)
#
#
# Indices 1 2 3 4 5 6 
#
# 1 210.6166 54.3455 44.4209 0.0000 0.0000 0.0000
# 2 54.3455 195.6413 15.1392 0.0000 0.0000 0.0000
# 3 44.4209 15.1392 33.8078 0.0000 0.0000 0.0000
# 4 0.0000 0.0000 0.0000 -1.1000 0.0000 0.0000
# 5 0.0000 0.0000 0.0000 0.0000 52.0507 0.0000
# 6 0.0000 0.0000 0.0000 0.0000 0.0000 50.9070
#
#
#
# Elastic Compliance Matrix: (Units=1/GPa)
#
#
# Indices 1 2 3 4 5 6 
#
# 1 0.006851 -0.001250 -0.008442 0.000000 0.000000 0.000000
# 2 -0.001250 0.005523 -0.000831 0.000000 0.000000 0.000000
# 3 -0.008442 -0.000831 0.041043 0.000000 0.000000 0.000000
# 4 0.000000 0.000000 0.000000 -0.909097 0.000000 0.000000
# 5 0.000000 0.000000 0.000000 0.000000 0.019212 0.000000
# 6 0.000000 0.000000 0.000000 0.000000 0.000000 0.019644
#
#
# Mechanical properties :
#
#
# Convention : Reuss Voigt Hill
#
# Bulk Modulus (GPa) = 30.89139 74.20853 52.54996
# Shear Modulus (GPa) = -6.36952 42.11556 17.87302
#
# Velocity S-wave (km/s) = -1.59461 4.10036 2.67116
# Velocity P-wave (km/s) = 2.99028 7.21402 5.52195
#
# Compressibility (1/GPa) = 0.03237148
#
# Stress axis : x y z
#
# Youngs Moduli (GPa) = 145.96551 181.06519 24.36457
#
# Poissons Ratio (x) = 0.22630 0.20568
# Poissons Ratio (y) = 0.18243 0.02025
# Poissons Ratio (z) = 1.23223 0.15047
#
# Static dielectric constant tensor:
#      x y z
#    x 2.281530 0.000000 0.000000 
#    y 0.000000 1.925180 0.000000 
#    z 0.000000 0.000000 2.187220 
# 
# From -- ./inp_files/20079.got.cif
#   From: 2010.05.17/outbox.cif.g08.bks.cpg/sg60_11_cif.got.tgz:20079.got - 2010.06.03 14:59:27.
