data_PCOD9455278
_publ_section_title
;
Structure prediction by ZEFSAII (Michael W. Deem and Ramdas Pophale) SiO2 
 PCOD9455278
Probable space group: P B C N
;
_chemical_formula_sum "Si O2"
_cell_formula_units_Z 64
_cell_length_a 16.584565
_cell_length_b 22.565211
_cell_length_c 9.022006
_cell_angle_alpha 90.000000
_cell_angle_beta 90.000000
_cell_angle_gamma 90.000000
_cell_volume 3376.343275
_symmetry_space_group_name_H-M "P B C N"
_symmetry_group_IT_number 60
_symmetry_cell_setting 'orthorhombic'
loop_
_space_group_symop_operation_xyz
x,y,z
1/2-x,1/2-y,1/2+z
1/2+x,1/2-y,-z
-x,y,1/2-z
-x,-y,-z
1/2+x,1/2+y,1/2-z
1/2-x,1/2+y,z
x,-y,1/2+z
loop_
_atom_site_type_symbol
_atom_site_label
_atom_site_fract_x
_atom_site_fract_y
_atom_site_fract_z
Si Si1 0.948360 0.043072 0.103849
Si Si2 0.223074 0.993544 0.276054
Si Si3 0.248736 0.191616 0.353800
Si Si4 0.412302 0.837748 0.691766
Si Si5 0.915446 0.206121 0.733148
Si Si6 0.690521 0.699871 0.470179
Si Si7 0.290113 0.082204 0.035392
Si Si8 0.661108 0.613395 0.922027
O O1 0.000000 0.057412 0.250000
O O2 0.862145 0.014716 0.152659
O O3 0.923328 0.097145 0.999067
O O4 0.000000 0.000000 0.000000
O O5 0.281010 0.963639 0.399323
O O6 0.198025 0.942942 0.158973
O O7 0.265056 0.045759 0.182585
O O8 0.337946 0.169740 0.306583
O O9 0.253553 0.250316 0.453647
O O10 0.213529 0.138168 0.445585
O O11 0.197540 0.206144 0.206499
O O12 0.500000 0.858608 0.750000
O O13 0.423947 0.766511 0.669587
O O14 0.373019 0.881140 0.568331
O O15 0.891811 0.211192 0.560321
O O16 0.847532 0.165918 0.804915
O O17 0.000000 0.174341 0.750000
O O18 0.724215 0.633706 0.494051
#
# Coordination Sequence:
#
# PCOD9455278 Si02
#       8
#     8   8   8   8   8   8   8   8
#     4  12  24  38  54  82 126 174 212 250 297 353
#     4  12  24  38  58  89 118 169 214 247 304 358
#     4  10  21  37  64  94 119 155 211 253 315 376
#     4   9  20  41  66  90 119 156 195 260 330 374
#     4  10  22  38  63  95 127 169 203 247 320 372
#     4  10  20  37  62  90 123 162 206 259 306 368
#     4  11  22  39  63  84 125 159 212 255 306 369
#     4  12  23  37  59  87 126 163 214 253 294 372
#
# _framework density 18.955418999999999
#
# number of rings (size 3 to 8) (size 9 to 14) (size 15 to 20)
#    0.000    1.250    3.750    3.750    1.750    2.000 
#    0.000    0.625    0.000    0.000    0.000    0.000 
#    0.000    0.000    0.000    0.000    0.000    0.000 
#
# Total GULP energy -356426.638682 kJ/mol
# GULP energy per Si atom -5569.166229 kJ/mol
# Density = 1.891228 g / cm^3
# Si number density = 18.955419 Si / 1000 Ang^3
#
#
#
# Elastic Constant Matrix: (Units=GPa)
#
#
# Indices 1 2 3 4 5 6 
#
# 1 50.1115 17.1521 19.2395 0.0000 0.0000 0.0000
# 2 17.1521 77.5055 38.7838 0.0000 0.0000 0.0000
# 3 19.2395 38.7838 105.6031 0.0000 0.0000 0.0000
# 4 0.0000 0.0000 0.0000 36.5288 0.0000 0.0000
# 5 0.0000 0.0000 0.0000 0.0000 22.2393 0.0000
# 6 0.0000 0.0000 0.0000 0.0000 0.0000 26.9085
#
#
#
# Elastic Compliance Matrix: (Units=1/GPa)
#
#
# Indices 1 2 3 4 5 6 
#
# 1 0.022223 -0.003543 -0.002747 0.000000 0.000000 0.000000
# 2 -0.003543 0.016372 -0.005367 0.000000 0.000000 0.000000
# 3 -0.002747 -0.005367 0.011941 0.000000 0.000000 0.000000
# 4 0.000000 0.000000 0.000000 0.027376 0.000000 0.000000
# 5 0.000000 0.000000 0.000000 0.000000 0.044965 0.000000
# 6 0.000000 0.000000 0.000000 0.000000 0.000000 0.037163
#
#
# Mechanical properties :
#
#
# Convention : Reuss Voigt Hill
#
# Bulk Modulus (GPa) = 36.73700 42.61899 39.67799
# Shear Modulus (GPa) = 25.98347 27.67166 26.82756
#
# Velocity S-wave (km/s) = 3.70640 3.82491 3.76613
# Velocity P-wave (km/s) = 6.14324 6.48377 6.31580
#
# Compressibility (1/GPa) = 0.02722051
#
# Stress axis : x y z
#
# Youngs Moduli (GPa) = 44.99823 61.07892 83.74376
#
# Poissons Ratio (x) = 0.21641 0.23008
# Poissons Ratio (y) = 0.15944 0.44948
# Poissons Ratio (z) = 0.12363 0.32783
#
# Static dielectric constant tensor:
#      x y z
#    x 1.724710 0.000000 0.000000 
#    y 0.000000 1.725030 0.000000 
#    z 0.000000 0.000000 1.694160 
# 
# From -- ./inp_files/7093.got.cif
#   From: 2010.05.17/outbox.cif.g08.bks.cpg/sg60_4_cif.got.tgz:7093.got - 2010.06.03 14:59:27.
