data_PCOD9455593
_publ_section_title
;
Structure prediction by ZEFSAII (Michael W. Deem and Ramdas Pophale) SiO2 
 PCOD9455593
Probable space group: P B C N
;
_chemical_formula_sum "Si O2"
_cell_formula_units_Z 56
_cell_length_a 31.654778
_cell_length_b 5.321458
_cell_length_c 14.117413
_cell_angle_alpha 90.000000
_cell_angle_beta 90.000000
_cell_angle_gamma 90.000000
_cell_volume 2378.072172
_symmetry_space_group_name_H-M "P B C N"
_symmetry_group_IT_number 60
_symmetry_cell_setting 'orthorhombic'
loop_
_space_group_symop_operation_xyz
x,y,z
1/2-x,1/2-y,1/2+z
1/2+x,1/2-y,-z
-x,y,1/2-z
-x,-y,-z
1/2+x,1/2+y,1/2-z
1/2-x,1/2+y,z
x,-y,1/2+z
loop_
_atom_site_type_symbol
_atom_site_label
_atom_site_fract_x
_atom_site_fract_y
_atom_site_fract_z
Si Si1 0.778512 0.788834 0.777596
Si Si2 0.970406 0.781571 0.099512
Si Si3 0.276253 0.299431 0.506591
Si Si4 0.091079 0.156679 0.435895
Si Si5 0.597123 0.957023 0.729499
Si Si6 0.559329 0.030175 0.416314
Si Si7 0.837336 0.880052 0.155996
O O1 0.743934 0.017103 0.765509
O O2 0.814903 0.882565 0.706268
O O3 0.794621 0.783091 0.886737
O O4 0.942350 0.707000 0.190148
O O5 0.017581 0.686962 0.111323
O O6 0.957558 0.070669 0.082537
O O7 0.953174 0.650771 0.002861
O O8 0.259417 0.584826 0.501182
O O9 0.304491 0.251135 0.414577
O O10 0.102853 0.350396 0.355002
O O11 0.092378 0.275105 0.538328
O O12 0.124561 0.942176 0.416782
O O13 0.581297 0.085975 0.825151
O O14 0.639433 0.791177 0.734280
#
# Coordination Sequence:
#
# PCOD9455593 Si02
#       7
#     8   8   8   8   8   8   8
#     4  10  23  43  67  99 126 172 230 270 334 407
#     4   9  20  40  62  93 122 169 218 273 324 385
#     4  10  23  43  69  97 127 175 225 276 335 408
#     4  10  23  40  59  96 126 169 217 259 340 393
#     4  10  23  39  58  96 128 170 213 268 332 399
#     4  10  20  40  66  86 129 167 222 274 320 394
#     4  11  24  39  62  92 134 168 212 278 336 394
#
# _framework density 23.548487000000002
#
# number of rings (size 3 to 8) (size 9 to 14) (size 15 to 20)
#    0.000    2.000    0.000    1.714    6.000    2.286 
#    5.143    8.571    0.000    0.000    0.000    0.000 
#    0.000    0.000    0.000    0.000    0.000    0.000 
#
# Total GULP energy -312537.234117 kJ/mol
# GULP energy per Si atom -5581.022038 kJ/mol
# Density = 2.349489 g / cm^3
# Si number density = 23.548487 Si / 1000 Ang^3
#
#
#
# Elastic Constant Matrix: (Units=GPa)
#
#
# Indices 1 2 3 4 5 6 
#
# 1 55.9639 -1.2596 49.6845 0.0000 0.0000 0.0000
# 2 -1.2596 48.0928 3.3388 0.0000 0.0000 0.0000
# 3 49.6845 3.3388 90.1835 0.0000 0.0000 0.0000
# 4 0.0000 0.0000 0.0000 16.2277 0.0000 0.0000
# 5 0.0000 0.0000 0.0000 0.0000 21.3272 0.0000
# 6 0.0000 0.0000 0.0000 0.0000 0.0000 20.5023
#
#
#
# Elastic Compliance Matrix: (Units=1/GPa)
#
#
# Indices 1 2 3 4 5 6 
#
# 1 0.035222 0.002276 -0.019489 0.000000 0.000000 0.000000
# 2 0.002276 0.020994 -0.002031 0.000000 0.000000 0.000000
# 3 -0.019489 -0.002031 0.021901 0.000000 0.000000 0.000000
# 4 0.000000 0.000000 0.000000 0.061623 0.000000 0.000000
# 5 0.000000 0.000000 0.000000 0.000000 0.046888 0.000000
# 6 0.000000 0.000000 0.000000 0.000000 0.000000 0.048775
#
#
# Mechanical properties :
#
#
# Convention : Reuss Voigt Hill
#
# Bulk Modulus (GPa) = 25.23483 33.08530 29.16007
# Shear Modulus (GPa) = 17.41543 21.10987 19.26265
#
# Velocity S-wave (km/s) = 2.72243 2.99731 2.86317
# Velocity P-wave (km/s) = 4.54109 5.10479 4.83117
#
# Compressibility (1/GPa) = 0.03962776
#
# Stress axis : x y z
#
# Youngs Moduli (GPa) = 28.39112 47.63331 45.66049
#
# Poissons Ratio (x) = -0.10839 0.88988
# Poissons Ratio (y) = -0.06460 0.09273
# Poissons Ratio (z) = 0.55332 0.09674
#
# Static dielectric constant tensor:
#      x y z
#    x 1.941410 0.000000 0.000000 
#    y 0.000000 1.970040 0.000000 
#    z 0.000000 0.000000 1.879710 
# 
# From -- ./inp_files/18156.got.cif
#   From: 2010.05.17/outbox.cif.g08.bks.cpg/sg60_10_cif.got.tgz:18156.got - 2010.06.03 14:59:27.
