data_PCOD9455137
_publ_section_title
;
Structure prediction by ZEFSAII (Michael W. Deem and Ramdas Pophale) SiO2 
 PCOD9455137
Probable space group: P B C N
;
_chemical_formula_sum "Si O2"
_cell_formula_units_Z 36
_cell_length_a 5.137680
_cell_length_b 23.417859
_cell_length_c 12.643175
_cell_angle_alpha 90.000000
_cell_angle_beta 90.000000
_cell_angle_gamma 90.000000
_cell_volume 1521.144203
_symmetry_space_group_name_H-M "P B C N"
_symmetry_group_IT_number 60
_symmetry_cell_setting 'orthorhombic'
loop_
_space_group_symop_operation_xyz
x,y,z
1/2-x,1/2-y,1/2+z
1/2+x,1/2-y,-z
-x,y,1/2-z
-x,-y,-z
1/2+x,1/2+y,1/2-z
1/2-x,1/2+y,z
x,-y,1/2+z
loop_
_atom_site_type_symbol
_atom_site_label
_atom_site_fract_x
_atom_site_fract_y
_atom_site_fract_z
Si Si1 0.880045 0.026427 0.849467
Si Si2 0.000000 0.566259 0.250000
Si Si3 0.607727 0.324908 0.008826
Si Si4 0.099928 0.712996 0.629551
Si Si5 0.197967 0.928613 0.943715
O O1 0.709585 0.975470 0.802869
O O2 0.000000 0.060218 0.750000
O O3 0.115991 0.991915 0.904886
O O4 0.714929 0.060423 0.935774
O O5 0.870424 0.597494 0.150266
O O6 0.889335 0.321388 0.060328
O O7 0.387065 0.309348 0.097164
O O8 0.586840 0.277399 0.916989
O O9 0.542007 0.386252 0.961183
O O10 0.000000 0.710701 0.750000
#
# Coordination Sequence:
#
# PCOD9455137 Si02
#       5
#     8   4   8   8   8
#     4   9  20  37  57  86 122 161 203 256 312 367
#     4  10  20  36  58  88 114 166 204 254 314 364
#     4  10  23  41  64  95 122 162 212 253 316 372
#     4  10  22  43  64  90 127 163 203 263 312 375
#     4  10  21  38  59  86 126 157 209 258 306 383
#
# _framework density 23.666395999999999
#
# number of rings (size 3 to 8) (size 9 to 14) (size 15 to 20)
#    0.000    2.222    0.000    1.333    3.111    4.444 
#   10.000    0.000    0.000    0.000    0.000    0.000 
#    0.000    0.000    0.000    0.000    0.000    0.000 
#
# Total GULP energy -200883.106515 kJ/mol
# GULP energy per Si atom -5580.086292 kJ/mol
# Density = 2.361253 g / cm^3
# Si number density = 23.666396 Si / 1000 Ang^3
#
#
#
# Elastic Constant Matrix: (Units=GPa)
#
#
# Indices 1 2 3 4 5 6 
#
# 1 55.5152 -4.4769 9.6009 0.0000 0.0000 0.0000
# 2 -4.4769 64.0940 26.4713 0.0000 0.0000 0.0000
# 3 9.6009 26.4713 154.7243 0.0000 0.0000 0.0000
# 4 0.0000 0.0000 0.0000 -0.5600 0.0000 0.0000
# 5 0.0000 0.0000 0.0000 0.0000 24.4655 0.0000
# 6 0.0000 0.0000 0.0000 0.0000 0.0000 126.2654
#
#
#
# Elastic Compliance Matrix: (Units=1/GPa)
#
#
# Indices 1 2 3 4 5 6 
#
# 1 0.018419 0.001892 -0.001467 0.000000 0.000000 0.000000
# 2 0.001892 0.016983 -0.003023 0.000000 0.000000 0.000000
# 3 -0.001467 -0.003023 0.007071 0.000000 0.000000 0.000000
# 4 0.000000 0.000000 0.000000 -1.785822 0.000000 0.000000
# 5 0.000000 0.000000 0.000000 0.000000 0.040874 0.000000
# 6 0.000000 0.000000 0.000000 0.000000 0.000000 0.007920
#
#
# Mechanical properties :
#
#
# Convention : Reuss Voigt Hill
#
# Bulk Modulus (GPa) = 26.82494 37.50270 32.16382
# Shear Modulus (GPa) = -2.98163 46.21672 21.61754
#
# Velocity S-wave (km/s) = -1.12365 4.42389 3.02558
# Velocity P-wave (km/s) = 3.11059 6.47883 5.08188
#
# Compressibility (1/GPa) = 0.03727874
#
# Stress axis : x y z
#
# Youngs Moduli (GPa) = 54.29078 58.88326 141.41659
#
# Poissons Ratio (x) = -0.11143 0.20742
# Poissons Ratio (y) = -0.10274 0.42749
# Poissons Ratio (z) = 0.07963 0.17800
#
# Static dielectric constant tensor:
#      x y z
#    x 1.954480 0.000000 0.000000 
#    y 0.000000 1.864070 0.000000 
#    z 0.000000 0.000000 2.013150 
# 
# From -- ./inp_files/8959.got.cif
#   From: 2010.05.17/outbox.cif.g08.bks.cpg/sg60_5_cif.got.tgz:8959.got - 2010.06.03 14:59:27.
