data_PCOD9455689
_publ_section_title
;
Structure prediction by ZEFSAII (Michael W. Deem and Ramdas Pophale) SiO2 
 PCOD9455689
Probable space group: P B C N
;
_chemical_formula_sum "Si O2"
_cell_formula_units_Z 36
_cell_length_a 9.096636
_cell_length_b 12.092683
_cell_length_c 13.832336
_cell_angle_alpha 90.000000
_cell_angle_beta 90.000000
_cell_angle_gamma 90.000000
_cell_volume 1521.594799
_symmetry_space_group_name_H-M "P B C N"
_symmetry_group_IT_number 60
_symmetry_cell_setting 'orthorhombic'
loop_
_space_group_symop_operation_xyz
x,y,z
1/2-x,1/2-y,1/2+z
1/2+x,1/2-y,-z
-x,y,1/2-z
-x,-y,-z
1/2+x,1/2+y,1/2-z
1/2-x,1/2+y,z
x,-y,1/2+z
loop_
_atom_site_type_symbol
_atom_site_label
_atom_site_fract_x
_atom_site_fract_y
_atom_site_fract_z
Si Si1 0.446951 0.181940 0.557246
Si Si2 0.063059 0.868853 0.399365
Si Si3 0.200790 0.789404 0.202954
Si Si4 0.500000 0.903136 0.750000
Si Si5 0.179212 0.506425 0.922760
O O1 0.442103 0.290708 0.492120
O O2 0.362422 0.204531 0.658328
O O3 0.607958 0.126830 0.557199
O O4 0.360397 0.083927 0.502115
O O5 0.165611 0.812881 0.314962
O O6 0.146645 0.982190 0.417261
O O7 0.902062 0.876182 0.354054
O O8 0.114163 0.673063 0.189103
O O9 0.599500 0.970666 0.676161
#
# Coordination Sequence:
#
# PCOD9455689 Si02
#       5
#     8   8   8   4   8
#     4  11  22  37  63  96 116 161 207 250 307 368
#     4  10  21  40  61  88 127 155 199 260 309 356
#     4  10  21  40  61  84 129 158 191 268 309 346
#     4  10  20  42  64  90 120 172 204 250 306 378
#     4  11  22  38  68  89 119 164 212 245 304 386
#
# _framework density 23.659386000000001
#
# number of rings (size 3 to 8) (size 9 to 14) (size 15 to 20)
#    0.000    1.778    4.444    2.667    3.111    0.889 
#    0.000    0.000    4.889    0.000    0.000    0.000 
#    0.000    0.000    0.000    0.000    0.000    0.000 
#
# Total GULP energy -201070.718525 kJ/mol
# GULP energy per Si atom -5585.297737 kJ/mol
# Density = 2.360554 g / cm^3
# Si number density = 23.659386 Si / 1000 Ang^3
#
#
#
# Elastic Constant Matrix: (Units=GPa)
#
#
# Indices 1 2 3 4 5 6 
#
# 1 45.9275 21.6695 19.4716 0.0000 0.0000 0.0000
# 2 21.6695 34.0278 0.9252 0.0000 0.0000 0.0000
# 3 19.4716 0.9252 66.6393 0.0000 0.0000 0.0000
# 4 0.0000 0.0000 0.0000 24.4643 0.0000 0.0000
# 5 0.0000 0.0000 0.0000 0.0000 20.2559 0.0000
# 6 0.0000 0.0000 0.0000 0.0000 0.0000 18.7848
#
#
#
# Elastic Compliance Matrix: (Units=1/GPa)
#
#
# Indices 1 2 3 4 5 6 
#
# 1 0.037347 -0.023496 -0.010587 0.000000 0.000000 0.000000
# 2 -0.023496 0.044180 0.006252 0.000000 0.000000 0.000000
# 3 -0.010587 0.006252 0.018013 0.000000 0.000000 0.000000
# 4 0.000000 0.000000 0.000000 0.040876 0.000000 0.000000
# 5 0.000000 0.000000 0.000000 0.000000 0.049368 0.000000
# 6 0.000000 0.000000 0.000000 0.000000 0.000000 0.053235
#
#
# Mechanical properties :
#
#
# Convention : Reuss Voigt Hill
#
# Bulk Modulus (GPa) = 22.78952 25.63636 24.21294
# Shear Modulus (GPa) = 15.95883 19.66956 17.81419
#
# Velocity S-wave (km/s) = 2.59998 2.88647 2.74696
# Velocity P-wave (km/s) = 4.32047 4.68701 4.50746
#
# Compressibility (1/GPa) = 0.04387982
#
# Stress axis : x y z
#
# Youngs Moduli (GPa) = 26.77559 22.63459 55.51645
#
# Poissons Ratio (x) = 0.53181 0.58773
# Poissons Ratio (y) = 0.62911 -0.34709
# Poissons Ratio (z) = 0.28346 -0.14151
#
# Static dielectric constant tensor:
#      x y z
#    x 1.969270 0.000000 0.000000 
#    y 0.000000 1.948720 0.000000 
#    z 0.000000 0.000000 1.956360 
# 
# From -- ./inp_files/14587.got.cif
#   From: 2010.05.17/outbox.cif.g08.bks.cpg/sg60_8_cif.got.tgz:14587.got - 2010.06.03 14:59:27.
