data_PCOD9455497
_publ_section_title
;
Structure prediction by ZEFSAII (Michael W. Deem and Ramdas Pophale) SiO2 
 PCOD9455497
Probable space group: P B C N
;
_chemical_formula_sum "Si O2"
_cell_formula_units_Z 32
_cell_length_a 8.015917
_cell_length_b 20.099934
_cell_length_c 9.878922
_cell_angle_alpha 90.000000
_cell_angle_beta 90.000000
_cell_angle_gamma 90.000000
_cell_volume 1591.686011
_symmetry_space_group_name_H-M "P B C N"
_symmetry_group_IT_number 60
_symmetry_cell_setting 'orthorhombic'
loop_
_space_group_symop_operation_xyz
x,y,z
1/2-x,1/2-y,1/2+z
1/2+x,1/2-y,-z
-x,y,1/2-z
-x,-y,-z
1/2+x,1/2+y,1/2-z
1/2-x,1/2+y,z
x,-y,1/2+z
loop_
_atom_site_type_symbol
_atom_site_label
_atom_site_fract_x
_atom_site_fract_y
_atom_site_fract_z
Si Si1 0.878110 0.978673 0.876168
Si Si2 0.418788 0.226540 0.598476
Si Si3 0.694884 0.381541 0.285312
Si Si4 0.211670 0.649199 0.012104
O O1 0.000000 0.964179 0.750000
O O2 0.776772 0.045733 0.845411
O O3 0.758197 0.916267 0.903392
O O4 0.000000 0.000000 0.000000
O O5 0.500000 0.235209 0.750000
O O6 0.264178 0.176522 0.620897
O O7 0.540181 0.190973 0.489600
O O8 0.354247 0.296805 0.544676
O O9 0.500000 0.375072 0.250000
O O10 0.784101 0.375569 0.142031
#
# Coordination Sequence:
#
# PCOD9455497 Si02
#       4
#     8   8   8   8
#     4  11  21  38  67  92 124 173 216 269 335 399
#     4  10  23  39  65  92 133 171 218 276 334 398
#     4  10  20  39  62  90 123 166 211 269 325 391
#     4  11  21  39  62  93 125 169 216 272 326 397
#
# _framework density 20.104468000000001
#
# number of rings (size 3 to 8) (size 9 to 14) (size 15 to 20)
#    0.000    1.500    5.000    2.250    0.000    1.000 
#    0.000    0.000    0.000    0.000    0.000    0.000 
#    0.000    0.000    0.000    0.000    0.000    0.000 
#
# Total GULP energy -178448.037213 kJ/mol
# GULP energy per Si atom -5576.501163 kJ/mol
# Density = 2.005871 g / cm^3
# Si number density = 20.104468 Si / 1000 Ang^3
#
#
#
# Elastic Constant Matrix: (Units=GPa)
#
#
# Indices 1 2 3 4 5 6 
#
# 1 54.9997 45.2576 10.3556 0.0000 0.0000 0.0000
# 2 45.2576 183.2637 46.1216 0.0000 0.0000 0.0000
# 3 10.3556 46.1216 73.0545 0.0000 0.0000 0.0000
# 4 0.0000 0.0000 0.0000 32.9504 0.0000 0.0000
# 5 0.0000 0.0000 0.0000 0.0000 26.4188 0.0000
# 6 0.0000 0.0000 0.0000 0.0000 0.0000 30.0111
#
#
#
# Elastic Compliance Matrix: (Units=1/GPa)
#
#
# Indices 1 2 3 4 5 6 
#
# 1 0.022828 -0.005734 0.000384 0.000000 0.000000 0.000000
# 2 -0.005734 0.007928 -0.004192 0.000000 0.000000 0.000000
# 3 0.000384 -0.004192 0.016281 0.000000 0.000000 0.000000
# 4 0.000000 0.000000 0.000000 0.030349 0.000000 0.000000
# 5 0.000000 0.000000 0.000000 0.000000 0.037852 0.000000
# 6 0.000000 0.000000 0.000000 0.000000 0.000000 0.033321
#
#
# Mechanical properties :
#
#
# Convention : Reuss Voigt Hill
#
# Bulk Modulus (GPa) = 35.77542 57.19860 46.48701
# Shear Modulus (GPa) = 28.25505 31.84826 30.05165
#
# Velocity S-wave (km/s) = 3.75295 3.98444 3.87043
# Velocity P-wave (km/s) = 6.05086 7.04842 6.56860
#
# Compressibility (1/GPa) = 0.02795215
#
# Stress axis : x y z
#
# Youngs Moduli (GPa) = 43.80578 126.13957 61.42283
#
# Poissons Ratio (x) = 0.72330 -0.02360
# Poissons Ratio (y) = 0.25119 0.25750
# Poissons Ratio (z) = -0.01683 0.52880
#
# Static dielectric constant tensor:
#      x y z
#    x 1.762130 0.000000 0.000000 
#    y 0.000000 1.707280 0.000000 
#    z 0.000000 0.000000 1.719100 
# 
# From -- ./inp_files/3611.got.cif
#   From: 2010.05.17/outbox.cif.g08.bks.cpg/sg60_2_cif.got.tgz:3611.got - 2010.06.03 14:59:27.
