data_PCOD9455456
_publ_section_title
;
Structure prediction by ZEFSAII (Michael W. Deem and Ramdas Pophale) SiO2 
 PCOD9455456
Probable space group: P B C N
;
_chemical_formula_sum "Si O2"
_cell_formula_units_Z 40
_cell_length_a 8.027388
_cell_length_b 10.981022
_cell_length_c 20.755644
_cell_angle_alpha 90.000000
_cell_angle_beta 90.000000
_cell_angle_gamma 90.000000
_cell_volume 1829.587690
_symmetry_space_group_name_H-M "P B C N"
_symmetry_group_IT_number 60
_symmetry_cell_setting 'orthorhombic'
loop_
_space_group_symop_operation_xyz
x,y,z
1/2-x,1/2-y,1/2+z
1/2+x,1/2-y,-z
-x,y,1/2-z
-x,-y,-z
1/2+x,1/2+y,1/2-z
1/2-x,1/2+y,z
x,-y,1/2+z
loop_
_atom_site_type_symbol
_atom_site_label
_atom_site_fract_x
_atom_site_fract_y
_atom_site_fract_z
Si Si1 0.105365 0.872237 0.314417
Si Si2 0.622672 0.373994 0.442602
Si Si3 0.174154 0.483728 0.465610
Si Si4 0.208464 0.871351 0.848094
Si Si5 0.487008 0.757628 0.066741
O O1 0.206939 0.745603 0.316974
O O2 0.000000 0.865731 0.250000
O O3 0.990073 0.884193 0.379174
O O4 0.203275 0.001256 0.310498
O O5 0.684346 0.496894 0.480224
O O6 0.523646 0.297109 0.496283
O O7 0.800708 0.309259 0.428483
O O8 0.199866 0.590113 0.414316
O O9 0.137525 0.358393 0.428818
O O10 0.000000 0.500000 0.500000
O O11 0.026482 0.832420 0.874409
#
# Coordination Sequence:
#
# PCOD9455456 Si02
#       5
#     8   8   8   8   8
#     4  12  28  50  69  99 140 194 242 286 336 428
#     4  10  22  38  67 107 141 182 232 284 361 416
#     4   9  18  36  67 101 138 173 215 287 356 402
#     4  11  24  47  69  99 142 178 237 291 347 415
#     4  10  20  38  71 108 145 176 222 304 359 409
#
# _framework density 21.862850000000002
#
# number of rings (size 3 to 8) (size 9 to 14) (size 15 to 20)
#    0.000    1.600    2.000    3.600    2.800    3.200 
#    7.200    1.000    0.000    0.000    0.000    0.000 
#    0.000    0.000    0.000    0.000    0.000    0.000 
#
# Total GULP energy -223187.024072 kJ/mol
# GULP energy per Si atom -5579.675602 kJ/mol
# Density = 2.181309 g / cm^3
# Si number density = 21.862850 Si / 1000 Ang^3
#
#
#
# Elastic Constant Matrix: (Units=GPa)
#
#
# Indices 1 2 3 4 5 6 
#
# 1 98.8533 59.3674 5.8438 0.0000 0.0000 0.0000
# 2 59.3674 165.9741 48.0620 0.0000 0.0000 0.0000
# 3 5.8438 48.0620 60.5155 0.0000 0.0000 0.0000
# 4 0.0000 0.0000 0.0000 15.1574 0.0000 0.0000
# 5 0.0000 0.0000 0.0000 0.0000 33.3801 0.0000
# 6 0.0000 0.0000 0.0000 0.0000 0.0000 46.9155
#
#
#
# Elastic Compliance Matrix: (Units=1/GPa)
#
#
# Indices 1 2 3 4 5 6 
#
# 1 0.013359 -0.005721 0.003253 0.000000 0.000000 0.000000
# 2 -0.005721 0.010274 -0.007607 0.000000 0.000000 0.000000
# 3 0.003253 -0.007607 0.022252 0.000000 0.000000 0.000000
# 4 0.000000 0.000000 0.000000 0.065974 0.000000 0.000000
# 5 0.000000 0.000000 0.000000 0.000000 0.029958 0.000000
# 6 0.000000 0.000000 0.000000 0.000000 0.000000 0.021315
#
#
# Mechanical properties :
#
#
# Convention : Reuss Voigt Hill
#
# Bulk Modulus (GPa) = 38.85553 61.32103 50.08828
# Shear Modulus (GPa) = 26.06052 33.22859 29.64455
#
# Velocity S-wave (km/s) = 3.45628 3.90277 3.68629
# Velocity P-wave (km/s) = 5.80851 6.95829 6.40924
#
# Compressibility (1/GPa) = 0.02573636
#
# Stress axis : x y z
#
# Youngs Moduli (GPa) = 74.85482 97.33186 44.93897
#
# Poissons Ratio (x) = 0.55679 -0.14620
# Poissons Ratio (y) = 0.42821 0.34187
# Poissons Ratio (z) = -0.24352 0.74044
#
# Static dielectric constant tensor:
#      x y z
#    x 1.818490 0.000000 0.000000 
#    y 0.000000 1.993140 0.000000 
#    z 0.000000 0.000000 1.797970 
# 
# From -- ./inp_files/22005.got.cif
#   From: 2010.05.17/outbox.cif.g08.bks.cpg/sg60_12_cif.got.tgz:22005.got - 2010.06.03 14:59:27.
