data_PCOD9455515
_publ_section_title
;
Structure prediction by ZEFSAII (Michael W. Deem and Ramdas Pophale) SiO2 
 PCOD9455515
Probable space group: P B C N
;
_chemical_formula_sum "Si O2"
_cell_formula_units_Z 64
_cell_length_a 7.928693
_cell_length_b 24.233881
_cell_length_c 14.246455
_cell_angle_alpha 90.000000
_cell_angle_beta 90.000000
_cell_angle_gamma 90.000000
_cell_volume 2737.356641
_symmetry_space_group_name_H-M "P B C N"
_symmetry_group_IT_number 60
_symmetry_cell_setting 'orthorhombic'
loop_
_space_group_symop_operation_xyz
x,y,z
1/2-x,1/2-y,1/2+z
1/2+x,1/2-y,-z
-x,y,1/2-z
-x,-y,-z
1/2+x,1/2+y,1/2-z
1/2-x,1/2+y,z
x,-y,1/2+z
loop_
_atom_site_type_symbol
_atom_site_label
_atom_site_fract_x
_atom_site_fract_y
_atom_site_fract_z
Si Si1 0.235938 0.113338 0.704555
Si Si2 0.655507 0.724793 0.858971
Si Si3 0.184970 0.412051 0.788164
Si Si4 0.402828 0.885327 0.394422
Si Si5 0.012781 0.275067 0.469561
Si Si6 0.177496 0.209244 0.304914
Si Si7 0.862536 0.997046 0.854132
Si Si8 0.741454 0.497290 0.562682
O O1 0.121572 0.160356 0.659316
O O2 0.409535 0.107997 0.646433
O O3 0.292292 0.134635 0.806060
O O4 0.160733 0.052627 0.705544
O O5 0.695281 0.757566 0.763481
O O6 0.831759 0.725801 0.918460
O O7 0.518646 0.751902 0.926037
O O8 0.269001 0.354267 0.814979
O O9 0.291662 0.446497 0.708662
O O10 0.161892 0.450721 0.879452
O O11 0.000000 0.400657 0.750000
O O12 0.415197 0.837330 0.470396
O O13 0.322272 0.943055 0.421476
O O14 0.132937 0.238557 0.402545
O O15 0.000000 0.209712 0.250000
O O16 0.053326 0.991272 0.892427
O O17 0.763533 0.008262 0.951003
#
# Coordination Sequence:
#
# PCOD9455515 Si02
#       8
#     8   8   8   8   8   8   8   8
#     4  10  20  39  65  91 120 159 205 255 310 362
#     4  10  22  40  63  91 124 163 205 250 305 364
#     4  12  26  43  64  91 125 164 208 258 309 364
#     4  10  20  39  65  91 120 159 205 255 310 362
#     4  10  22  40  63  91 124 163 205 250 305 364
#     4  10  22  43  64  85 125 170 204 246 307 370
#     4  11  25  43  64  92 125 163 206 253 311 371
#     4  11  25  43  64  92 125 163 206 253 311 371
#
# _framework density 23.380220000000001
#
# number of rings (size 3 to 8) (size 9 to 14) (size 15 to 20)
#    0.000    1.500    2.500    1.875    3.500    4.000 
#    0.000    0.000    0.000    0.000    0.000    0.000 
#    0.000    0.000    0.000    0.000    0.000    0.000 
#
# Total GULP energy -358233.150785 kJ/mol
# GULP energy per Si atom -5597.392981 kJ/mol
# Density = 2.332701 g / cm^3
# Si number density = 23.380220 Si / 1000 Ang^3
#
#
#
# Elastic Constant Matrix: (Units=GPa)
#
#
# Indices 1 2 3 4 5 6 
#
# 1 72.1876 14.0762 12.3841 0.0000 0.0000 0.0000
# 2 14.0762 102.5533 8.8627 0.0000 0.0000 0.0000
# 3 12.3841 8.8627 85.6142 0.0000 0.0000 0.0000
# 4 0.0000 0.0000 0.0000 -84.9499 0.0000 0.0000
# 5 0.0000 0.0000 0.0000 0.0000 32.1336 0.0000
# 6 0.0000 0.0000 0.0000 0.0000 0.0000 -13.9173
#
#
#
# Elastic Compliance Matrix: (Units=1/GPa)
#
#
# Indices 1 2 3 4 5 6 
#
# 1 0.014538 -0.001830 -0.001913 0.000000 0.000000 0.000000
# 2 -0.001830 0.010069 -0.000778 0.000000 0.000000 0.000000
# 3 -0.001913 -0.000778 0.012038 0.000000 0.000000 0.000000
# 4 0.000000 0.000000 0.000000 -0.011772 0.000000 0.000000
# 5 0.000000 0.000000 0.000000 0.000000 0.031120 0.000000
# 6 0.000000 0.000000 0.000000 0.000000 0.000000 -0.071853
#
#
# Mechanical properties :
#
#
# Convention : Reuss Voigt Hill
#
# Bulk Modulus (GPa) = 36.22855 36.77789 36.50322
# Shear Modulus (GPa) = 2097.53402 1.65542 1049.59472
#
# Velocity S-wave (km/s) = 29.98480 0.84237 21.21082
# Velocity P-wave (km/s) = 34.84700 4.08786 24.80951
#
# Compressibility (1/GPa) = 0.02760254
#
# Stress axis : x y z
#
# Youngs Moduli (GPa) = 68.78572 99.31053 83.07310
#
# Poissons Ratio (x) = 0.18175 0.15896
# Poissons Ratio (y) = 0.12588 0.06460
# Poissons Ratio (z) = 0.13162 0.07723
#
# Static dielectric constant tensor:
#      x y z
#    x 1.896630 0.000000 0.000000 
#    y 0.000000 1.826780 0.000000 
#    z 0.000000 0.000000 1.877970 
# 
# From -- ./inp_files/15424.got.cif
#   From: 2010.05.17/outbox.cif.g08.bks.cpg/sg60_8_cif.got.tgz:15424.got - 2010.06.03 14:59:27.
