data_PCOD9455738
_publ_section_title
;
Structure prediction by ZEFSAII (Michael W. Deem and Ramdas Pophale) SiO2 
 PCOD9455738
Probable space group: P B C N
;
_chemical_formula_sum "Si O2"
_cell_formula_units_Z 32
_cell_length_a 9.579257
_cell_length_b 10.575098
_cell_length_c 12.695484
_cell_angle_alpha 90.000000
_cell_angle_beta 90.000000
_cell_angle_gamma 90.000000
_cell_volume 1286.072608
_symmetry_space_group_name_H-M "P B C N"
_symmetry_group_IT_number 60
_symmetry_cell_setting 'orthorhombic'
loop_
_space_group_symop_operation_xyz
x,y,z
1/2-x,1/2-y,1/2+z
1/2+x,1/2-y,-z
-x,y,1/2-z
-x,-y,-z
1/2+x,1/2+y,1/2-z
1/2-x,1/2+y,z
x,-y,1/2+z
loop_
_atom_site_type_symbol
_atom_site_label
_atom_site_fract_x
_atom_site_fract_y
_atom_site_fract_z
Si Si1 0.100491 0.586341 0.664156
Si Si2 0.992366 0.788084 0.994607
Si Si3 0.645210 0.635567 0.692421
Si Si4 0.799602 0.988027 0.494610
O O1 0.013848 0.684449 0.593838
O O2 0.229211 0.654759 0.725967
O O3 0.165516 0.494394 0.577115
O O4 0.000000 0.526424 0.750000
O O5 0.144471 0.845183 0.017014
O O6 0.908410 0.762996 0.103872
O O7 0.912040 0.912290 0.949995
O O8 0.500000 0.600990 0.750000
O O9 0.704343 0.524709 0.616433
#
# Coordination Sequence:
#
# PCOD9455738 Si02
#       4
#     8   8   8   8
#     4  12  25  38  65 104 130 170 215 278 341 370
#     4   9  21  42  67  92 127 172 228 262 307 418
#     4  10  20  43  70  91 129 177 221 261 330 400
#     4   9  21  45  64  92 131 172 230 261 311 415
#
# _framework density 24.881954
#
# number of rings (size 3 to 8) (size 9 to 14) (size 15 to 20)
#    1.500    0.500    2.500    0.000    3.500    4.000 
#    0.000    1.250    0.000    0.000    0.000    0.000 
#    0.000    0.000    0.000    0.000    0.000    0.000 
#
# Total GULP energy -178420.416415 kJ/mol
# GULP energy per Si atom -5575.638013 kJ/mol
# Density = 2.482532 g / cm^3
# Si number density = 24.881954 Si / 1000 Ang^3
#
#
#
# Elastic Constant Matrix: (Units=GPa)
#
#
# Indices 1 2 3 4 5 6 
#
# 1 104.9717 6.1888 72.9866 0.0000 0.0000 0.0000
# 2 6.1888 17.1340 23.1836 0.0000 0.0000 0.0000
# 3 72.9866 23.1836 161.6383 0.0000 0.0000 0.0000
# 4 0.0000 0.0000 0.0000 29.7215 0.0000 0.0000
# 5 0.0000 0.0000 0.0000 0.0000 78.2024 0.0000
# 6 0.0000 0.0000 0.0000 0.0000 0.0000 17.5424
#
#
#
# Elastic Compliance Matrix: (Units=1/GPa)
#
#
# Indices 1 2 3 4 5 6 
#
# 1 0.014147 0.004384 -0.007017 0.000000 0.000000 0.000000
# 2 0.004384 0.073776 -0.012561 0.000000 0.000000 0.000000
# 3 -0.007017 -0.012561 0.011157 0.000000 0.000000 0.000000
# 4 0.000000 0.000000 0.000000 0.033646 0.000000 0.000000
# 5 0.000000 0.000000 0.000000 0.000000 0.012787 0.000000
# 6 0.000000 0.000000 0.000000 0.000000 0.000000 0.057005
#
#
# Mechanical properties :
#
#
# Convention : Reuss Voigt Hill
#
# Bulk Modulus (GPa) = 14.55772 54.27356 34.41564
# Shear Modulus (GPa) = 19.54639 37.18560 28.36600
#
# Velocity S-wave (km/s) = 2.80583 3.87005 3.38009
# Velocity P-wave (km/s) = 4.04479 6.46757 5.39397
#
# Compressibility (1/GPa) = 0.06869208
#
# Stress axis : x y z
#
# Youngs Moduli (GPa) = 70.68883 13.55450 89.63313
#
# Poissons Ratio (x) = -0.05943 0.62892
# Poissons Ratio (y) = -0.30992 1.12591
# Poissons Ratio (z) = 0.49599 0.17026
#
# Static dielectric constant tensor:
#      x y z
#    x 2.088430 0.000000 0.000000 
#    y 0.000000 1.972240 0.000000 
#    z 0.000000 0.000000 1.979300 
# 
# From -- ./inp_files/9594.got.cif
#   From: 2010.05.17/outbox.cif.g08.bks.cpg/sg60_5_cif.got.tgz:9594.got - 2010.06.03 14:59:27.
