data_PCOD9455710
_publ_section_title
;
Structure prediction by ZEFSAII (Michael W. Deem and Ramdas Pophale) SiO2 
 PCOD9455710
Probable space group: P B C N
;
_chemical_formula_sum "Si O2"
_cell_formula_units_Z 60
_cell_length_a 9.274153
_cell_length_b 16.673340
_cell_length_c 15.647357
_cell_angle_alpha 90.000000
_cell_angle_beta 90.000000
_cell_angle_gamma 90.000000
_cell_volume 2419.568122
_symmetry_space_group_name_H-M "P B C N"
_symmetry_group_IT_number 60
_symmetry_cell_setting 'orthorhombic'
loop_
_space_group_symop_operation_xyz
x,y,z
1/2-x,1/2-y,1/2+z
1/2+x,1/2-y,-z
-x,y,1/2-z
-x,-y,-z
1/2+x,1/2+y,1/2-z
1/2-x,1/2+y,z
x,-y,1/2+z
loop_
_atom_site_type_symbol
_atom_site_label
_atom_site_fract_x
_atom_site_fract_y
_atom_site_fract_z
Si Si1 0.717628 0.457104 0.668913
Si Si2 0.831969 0.818409 0.437455
Si Si3 0.910541 0.129396 0.673272
Si Si4 0.000000 0.509514 0.750000
Si Si5 0.274877 0.139790 0.063637
Si Si6 0.339740 0.027586 0.525478
Si Si7 0.039451 0.818534 0.884140
Si Si8 0.095037 0.650247 0.871802
O O1 0.626475 0.536379 0.688820
O O2 0.758318 0.468565 0.567507
O O3 0.620007 0.378823 0.678352
O O4 0.861055 0.455468 0.726898
O O5 0.822181 0.727540 0.400005
O O6 0.706282 0.886308 0.433268
O O7 0.847868 0.804848 0.538648
O O8 0.979718 0.858359 0.404302
O O9 0.752617 0.166148 0.668592
O O10 0.000000 0.165043 0.750000
O O11 0.021857 0.573211 0.828131
O O12 0.103606 0.146230 0.073979
O O13 0.356113 0.138859 0.970826
O O14 0.297058 0.046131 0.087636
O O15 0.500000 0.000000 0.500000
O O16 0.004927 0.729559 0.853742
#
# Coordination Sequence:
#
# PCOD9455710 Si02
#       8
#     8   8   8   4   8   8   8   8
#     4  10  22  42  65  93 130 183 219 292 337 423
#     4  10  23  36  67 100 132 177 227 301 352 413
#     4  11  22  41  65  92 134 182 231 268 354 434
#     4  10  20  42  68  88 140 190 228 264 358 434
#     4  11  21  39  68  99 137 173 231 301 354 416
#     4  11  23  38  64 101 133 168 232 291 357 409
#     4  10  21  41  69  97 134 170 237 299 356 396
#     4  10  22  39  66  95 133 184 226 283 353 428
#
# _framework density 24.797815
#
# number of rings (size 3 to 8) (size 9 to 14) (size 15 to 20)
#    0.000    1.600    4.000    0.800    3.733    7.467 
#    2.400    0.000    2.933    0.000    0.000    0.000 
#    0.000    0.000    0.000    0.000    0.000    0.000 
#
# Total GULP energy -334181.229296 kJ/mol
# GULP energy per Si atom -5569.687155 kJ/mol
# Density = 2.474137 g / cm^3
# Si number density = 24.797815 Si / 1000 Ang^3
#
#
#
# Elastic Constant Matrix: (Units=GPa)
#
#
# Indices 1 2 3 4 5 6 
#
# 1 107.2602 64.1795 28.6092 0.0000 0.0000 0.0000
# 2 64.1795 169.6466 7.4890 0.0000 0.0000 0.0000
# 3 28.6092 7.4890 61.9877 0.0000 0.0000 0.0000
# 4 0.0000 0.0000 0.0000 14.9718 0.0000 0.0000
# 5 0.0000 0.0000 0.0000 0.0000 49.7863 0.0000
# 6 0.0000 0.0000 0.0000 0.0000 0.0000 39.4713
#
#
#
# Elastic Compliance Matrix: (Units=1/GPa)
#
#
# Indices 1 2 3 4 5 6 
#
# 1 0.013850 -0.004984 -0.005790 0.000000 0.000000 0.000000
# 2 -0.004984 0.007720 0.001368 0.000000 0.000000 0.000000
# 3 -0.005790 0.001368 0.018639 0.000000 0.000000 0.000000
# 4 0.000000 0.000000 0.000000 0.066792 0.000000 0.000000
# 5 0.000000 0.000000 0.000000 0.000000 0.020086 0.000000
# 6 0.000000 0.000000 0.000000 0.000000 0.000000 0.025335
#
#
# Mechanical properties :
#
#
# Convention : Reuss Voigt Hill
#
# Bulk Modulus (GPa) = 46.73747 59.93886 53.33817
# Shear Modulus (GPa) = 28.03225 36.75365 32.39295
#
# Velocity S-wave (km/s) = 3.36584 3.85402 3.61817
# Velocity P-wave (km/s) = 5.83039 6.63537 6.24586
#
# Compressibility (1/GPa) = 0.02139611
#
# Stress axis : x y z
#
# Youngs Moduli (GPa) = 72.20452 129.53876 53.65034
#
# Poissons Ratio (x) = 0.64560 0.31063
# Poissons Ratio (y) = 0.35986 -0.07337
# Poissons Ratio (z) = 0.41805 -0.17715
#
# Static dielectric constant tensor:
#      x y z
#    x 2.104040 0.000000 0.000000 
#    y 0.000000 2.056940 0.000000 
#    z 0.000000 0.000000 2.052250 
# 
# From -- ./inp_files/19573.got.cif
#   From: 2010.05.17/outbox.cif.g08.bks.cpg/sg60_10_cif.got.tgz:19573.got - 2010.06.03 14:59:27.
