data_PCOD9455021
_publ_section_title
;
Structure prediction by ZEFSAII (Michael W. Deem and Ramdas Pophale) SiO2 
 PCOD9455021
Probable space group: P B C N
;
_chemical_formula_sum "Si O2"
_cell_formula_units_Z 44
_cell_length_a 11.179629
_cell_length_b 14.344074
_cell_length_c 13.215415
_cell_angle_alpha 90.000000
_cell_angle_beta 90.000000
_cell_angle_gamma 90.000000
_cell_volume 2119.242790
_symmetry_space_group_name_H-M "P B C N"
_symmetry_group_IT_number 60
_symmetry_cell_setting 'orthorhombic'
loop_
_space_group_symop_operation_xyz
x,y,z
1/2-x,1/2-y,1/2+z
1/2+x,1/2-y,-z
-x,y,1/2-z
-x,-y,-z
1/2+x,1/2+y,1/2-z
1/2-x,1/2+y,z
x,-y,1/2+z
loop_
_atom_site_type_symbol
_atom_site_label
_atom_site_fract_x
_atom_site_fract_y
_atom_site_fract_z
Si Si1 0.750686 0.922731 0.154097
Si Si2 0.636114 0.285676 0.988636
Si Si3 0.500000 0.576131 0.750000
Si Si4 0.287420 0.884289 0.896128
Si Si5 0.066710 0.096043 0.529661
Si Si6 0.855782 0.244295 0.260554
O O1 0.792042 0.863942 0.054024
O O2 0.874643 0.963342 0.204478
O O3 0.687394 0.845591 0.222504
O O4 0.670137 0.013789 0.136962
O O5 0.627298 0.193941 0.057572
O O6 0.503868 0.324461 0.971344
O O7 0.684435 0.268484 0.876970
O O8 0.550364 0.620943 0.852709
O O9 0.212835 0.831725 0.808412
O O10 0.198982 0.907644 0.989417
O O11 0.000000 0.000000 0.500000
O O12 0.000000 0.236210 0.250000
#
# Coordination Sequence:
#
# PCOD9455021 Si02
#       6
#     8   8   4   8   8   8
#     4  10  23  39  61  95 127 163 210 267 320 367
#     4  10  22  37  57  95 121 160 210 257 309 372
#     4  10  20  34  62  90 122 156 208 252 320 358
#     4  11  22  38  64  88 125 162 213 259 312 376
#     4  11  20  35  60  90 123 158 204 259 304 365
#     4  11  23  39  65  90 124 168 213 252 325 387
#
# _framework density 20.762132999999999
#
# number of rings (size 3 to 8) (size 9 to 14) (size 15 to 20)
#    0.000    1.455    5.455    1.091    3.818    1.455 
#    0.000    0.909   22.000    0.000    0.000    0.000 
#    0.000    0.000    0.000    0.000    0.000    0.000 
#
# Total GULP energy -244947.633015 kJ/mol
# GULP energy per Si atom -5566.991659 kJ/mol
# Density = 2.071488 g / cm^3
# Si number density = 20.762133 Si / 1000 Ang^3
#
#
#
# Elastic Constant Matrix: (Units=GPa)
#
#
# Indices 1 2 3 4 5 6 
#
# 1 18.4284 6.3151 6.1229 0.0000 0.0000 0.0000
# 2 6.3151 146.5897 41.7151 0.0000 0.0000 0.0000
# 3 6.1229 41.7151 129.8181 0.0000 0.0000 0.0000
# 4 0.0000 0.0000 0.0000 7.8280 0.0000 0.0000
# 5 0.0000 0.0000 0.0000 0.0000 24.4284 0.0000
# 6 0.0000 0.0000 0.0000 0.0000 0.0000 22.5141
#
#
#
# Elastic Compliance Matrix: (Units=1/GPa)
#
#
# Indices 1 2 3 4 5 6 
#
# 1 0.055563 -0.001814 -0.002038 0.000000 0.000000 0.000000
# 2 -0.001814 0.007568 -0.002346 0.000000 0.000000 0.000000
# 3 -0.002038 -0.002346 0.008553 0.000000 0.000000 0.000000
# 4 0.000000 0.000000 0.000000 0.127746 0.000000 0.000000
# 5 0.000000 0.000000 0.000000 0.000000 0.040936 0.000000
# 6 0.000000 0.000000 0.000000 0.000000 0.000000 0.044417
#
#
# Mechanical properties :
#
#
# Convention : Reuss Voigt Hill
#
# Bulk Modulus (GPa) = 16.86684 44.79358 30.83021
# Shear Modulus (GPa) = 15.77586 26.99964 21.38775
#
# Velocity S-wave (km/s) = 2.75951 3.61006 3.21305
# Velocity P-wave (km/s) = 4.27722 6.24485 5.35223
#
# Compressibility (1/GPa) = 0.05928794
#
# Stress axis : x y z
#
# Youngs Moduli (GPa) = 17.99769 132.14312 116.91653
#
# Poissons Ratio (x) = 0.23967 0.23825
# Poissons Ratio (y) = 0.03264 0.27431
# Poissons Ratio (z) = 0.03668 0.31003
#
# Static dielectric constant tensor:
#      x y z
#    x 1.785840 0.000000 0.000000 
#    y 0.000000 1.781400 0.000000 
#    z 0.000000 0.000000 1.795810 
# 
# From -- ./inp_files/11832.got.cif
#   From: 2010.05.17/outbox.cif.g08.bks.cpg/sg60_6_cif.got.tgz:11832.got - 2010.06.03 14:59:27.
