data_PCOD9455324
_publ_section_title
;
Structure prediction by ZEFSAII (Michael W. Deem and Ramdas Pophale) SiO2 
 PCOD9455324
Probable space group: P B C N
;
_chemical_formula_sum "Si O2"
_cell_formula_units_Z 60
_cell_length_a 20.275314
_cell_length_b 5.811627
_cell_length_c 19.843411
_cell_angle_alpha 90.000000
_cell_angle_beta 90.000000
_cell_angle_gamma 90.000000
_cell_volume 2338.199962
_symmetry_space_group_name_H-M "P B C N"
_symmetry_group_IT_number 60
_symmetry_cell_setting 'orthorhombic'
loop_
_space_group_symop_operation_xyz
x,y,z
1/2-x,1/2-y,1/2+z
1/2+x,1/2-y,-z
-x,y,1/2-z
-x,-y,-z
1/2+x,1/2+y,1/2-z
1/2-x,1/2+y,z
x,-y,1/2+z
loop_
_atom_site_type_symbol
_atom_site_label
_atom_site_fract_x
_atom_site_fract_y
_atom_site_fract_z
Si Si1 0.285969 0.838969 0.467104
Si Si2 0.571971 0.325404 0.066667
Si Si3 0.646084 0.361460 0.661346
Si Si4 0.070255 0.917716 0.580423
Si Si5 0.640411 0.575266 0.792660
Si Si6 0.525402 0.933304 0.131344
Si Si7 0.787380 0.633315 0.381733
Si Si8 0.500000 0.720434 0.750000
O O1 0.245097 0.596335 0.468323
O O2 0.317117 0.800516 0.392500
O O3 0.318847 0.844953 0.542834
O O4 0.625287 0.407429 0.120847
O O5 0.497895 0.430460 0.078006
O O6 0.562431 0.054120 0.069325
O O7 0.595899 0.411240 0.994927
O O8 0.676322 0.432825 0.733461
O O9 0.575236 0.237561 0.667374
O O10 0.040162 0.676721 0.603615
O O11 0.126163 0.970603 0.633973
O O12 0.668179 0.823251 0.814811
O O13 0.566576 0.587936 0.763866
O O14 0.510651 0.124176 0.185469
O O15 0.757429 0.372731 0.377069
#
# Coordination Sequence:
#
# PCOD9455324 Si02
#       8
#     8   8   8   8   8   8   8   4
#     4  10  24  47  74 100 133 174 235 305 363 424
#     4  10  20  38  58  86 133 165 230 273 326 421
#     4  11  24  39  63  95 129 178 219 285 360 420
#     4  10  21  37  58  91 123 179 219 277 335 394
#     4  12  23  43  66  96 144 180 234 291 351 437
#     4  11  21  37  60  89 136 176 227 273 334 433
#     4  10  25  50  74 103 136 182 239 298 362 422
#     4  12  22  40  64  98 144 190 226 284 364 418
#
# _framework density 25.660767
#
# number of rings (size 3 to 8) (size 9 to 14) (size 15 to 20)
#    0.000    1.333    2.667    2.800    1.867    3.200 
#    4.800    0.000    0.000    0.000    0.000    0.000 
#    0.000    0.000    0.000    0.000    0.000    0.000 
#
# Total GULP energy -334628.652193 kJ/mol
# GULP energy per Si atom -5577.144203 kJ/mol
# Density = 2.560236 g / cm^3
# Si number density = 25.660767 Si / 1000 Ang^3
#
#
#
# Elastic Constant Matrix: (Units=GPa)
#
#
# Indices 1 2 3 4 5 6 
#
# 1 34.6922 23.6093 21.7637 0.0000 0.0000 0.0000
# 2 23.6093 75.5948 19.8799 0.0000 0.0000 0.0000
# 3 21.7637 19.8799 153.5882 0.0000 0.0000 0.0000
# 4 0.0000 0.0000 0.0000 11.8416 0.0000 0.0000
# 5 0.0000 0.0000 0.0000 0.0000 27.0312 0.0000
# 6 0.0000 0.0000 0.0000 0.0000 0.0000 34.4450
#
#
#
# Elastic Compliance Matrix: (Units=1/GPa)
#
#
# Indices 1 2 3 4 5 6 
#
# 1 0.038929 -0.011085 -0.004082 0.000000 0.000000 0.000000
# 2 -0.011085 0.016851 -0.000610 0.000000 0.000000 0.000000
# 3 -0.004082 -0.000610 0.007168 0.000000 0.000000 0.000000
# 4 0.000000 0.000000 0.000000 0.084448 0.000000 0.000000
# 5 0.000000 0.000000 0.000000 0.000000 0.036994 0.000000
# 6 0.000000 0.000000 0.000000 0.000000 0.000000 0.029032
#
#
# Mechanical properties :
#
#
# Convention : Reuss Voigt Hill
#
# Bulk Modulus (GPa) = 31.85233 43.82011 37.83622
# Shear Modulus (GPa) = 19.57401 27.90504 23.73952
#
# Velocity S-wave (km/s) = 2.76488 3.30124 3.04489
# Velocity P-wave (km/s) = 4.75737 5.62536 5.20947
#
# Compressibility (1/GPa) = 0.03139488
#
# Stress axis : x y z
#
# Youngs Moduli (GPa) = 25.68780 59.34418 139.50341
#
# Poissons Ratio (x) = 0.65781 0.56939
# Poissons Ratio (y) = 0.28474 0.08515
# Poissons Ratio (z) = 0.10485 0.03622
#
# Static dielectric constant tensor:
#      x y z
#    x 2.025860 0.000000 0.000000 
#    y 0.000000 2.071560 0.000000 
#    z 0.000000 0.000000 2.084040 
# 
# From -- ./inp_files/23311.got.cif
#   From: 2010.05.17/outbox.cif.g08.bks.cpg/sg60_12_cif.got.tgz:23311.got - 2010.06.03 14:59:27.
