data_PCOD9455042
_publ_section_title
;
Structure prediction by ZEFSAII (Michael W. Deem and Ramdas Pophale) SiO2 
 PCOD9455042
Probable space group: P B C N
;
_chemical_formula_sum "Si O2"
_cell_formula_units_Z 64
_cell_length_a 19.614123
_cell_length_b 11.592197
_cell_length_c 13.892433
_cell_angle_alpha 90.000000
_cell_angle_beta 90.000000
_cell_angle_gamma 90.000000
_cell_volume 3158.733297
_symmetry_space_group_name_H-M "P B C N"
_symmetry_group_IT_number 60
_symmetry_cell_setting 'orthorhombic'
loop_
_space_group_symop_operation_xyz
x,y,z
1/2-x,1/2-y,1/2+z
1/2+x,1/2-y,-z
-x,y,1/2-z
-x,-y,-z
1/2+x,1/2+y,1/2-z
1/2-x,1/2+y,z
x,-y,1/2+z
loop_
_atom_site_type_symbol
_atom_site_label
_atom_site_fract_x
_atom_site_fract_y
_atom_site_fract_z
Si Si1 0.769632 0.805208 0.637724
Si Si2 0.540191 0.574403 0.578479
Si Si3 0.956728 0.690136 0.161952
Si Si4 0.145051 0.836391 0.571415
Si Si5 0.301497 0.146698 0.039794
Si Si6 0.881663 0.044943 0.241335
Si Si7 0.832261 0.203440 0.781815
Si Si8 0.355962 0.093218 0.481709
O O1 0.795467 0.711946 0.561379
O O2 0.829141 0.887080 0.673924
O O3 0.737063 0.737903 0.727685
O O4 0.709647 0.878761 0.586104
O O5 0.500000 0.500000 0.500000
O O6 0.507935 0.697221 0.612169
O O7 0.609714 0.611863 0.523893
O O8 0.558210 0.500126 0.672591
O O9 0.891630 0.746011 0.214857
O O10 0.924515 0.605948 0.082372
O O11 0.000000 0.639314 0.250000
O O12 0.223517 0.876593 0.573319
O O13 0.104639 0.876594 0.665730
O O14 0.143667 0.698703 0.557204
O O15 0.332953 0.234490 0.116313
O O16 0.343634 0.029735 0.029270
O O17 0.844891 0.931856 0.284462
#
# Coordination Sequence:
#
# PCOD9455042 Si02
#       8
#     8   8   8   8   8   8   8   8
#     4  10  20  35  56  90 121 157 194 246 299 355
#     4  10  23  37  60  88 120 158 200 259 307 354
#     4   9  20  40  60  81 114 159 204 249 299 358
#     4  10  22  36  57  89 125 161 190 253 313 352
#     4  11  21  36  62  88 124 165 195 240 306 372
#     4  11  22  36  58  91 127 147 204 253 293 374
#     4  10  22  36  56  91 114 158 198 234 314 360
#     4   9  20  39  55  87 125 154 205 246 292 363
#
# _framework density 20.261285999999998
#
# number of rings (size 3 to 8) (size 9 to 14) (size 15 to 20)
#    0.000    2.000    1.250    3.750    8.750    0.000 
#    4.500    0.625    0.000    0.000    0.000    0.000 
#    0.000    0.000    0.000    0.000    0.000    0.000 
#
# Total GULP energy -357448.162834 kJ/mol
# GULP energy per Si atom -5585.127544 kJ/mol
# Density = 2.021517 g / cm^3
# Si number density = 20.261286 Si / 1000 Ang^3
#
#
#
# Elastic Constant Matrix: (Units=GPa)
#
#
# Indices 1 2 3 4 5 6 
#
# 1 41.1440 34.2263 28.3225 0.0000 0.0000 0.0000
# 2 34.2263 103.2334 62.7542 0.0000 0.0000 0.0000
# 3 28.3225 62.7542 120.5127 0.0000 0.0000 0.0000
# 4 0.0000 0.0000 0.0000 31.3395 0.0000 0.0000
# 5 0.0000 0.0000 0.0000 0.0000 18.8402 0.0000
# 6 0.0000 0.0000 0.0000 0.0000 0.0000 2.8576
#
#
#
# Elastic Compliance Matrix: (Units=1/GPa)
#
#
# Indices 1 2 3 4 5 6 
#
# 1 0.034352 -0.009483 -0.003135 0.000000 0.000000 0.000000
# 2 -0.009483 0.016791 -0.006515 0.000000 0.000000 0.000000
# 3 -0.003135 -0.006515 0.012427 0.000000 0.000000 0.000000
# 4 0.000000 0.000000 0.000000 0.031909 0.000000 0.000000
# 5 0.000000 0.000000 0.000000 0.000000 0.053078 0.000000
# 6 0.000000 0.000000 0.000000 0.000000 0.000000 0.349945
#
#
# Mechanical properties :
#
#
# Convention : Reuss Voigt Hill
#
# Bulk Modulus (GPa) = 39.51998 57.27736 48.39867
# Shear Modulus (GPa) = 9.17090 19.91324 14.54207
#
# Velocity S-wave (km/s) = 2.12982 3.13840 2.68195
# Velocity P-wave (km/s) = 5.05922 6.43921 5.79047
#
# Compressibility (1/GPa) = 0.02530366
#
# Stress axis : x y z
#
# Youngs Moduli (GPa) = 29.11050 59.55474 80.46892
#
# Poissons Ratio (x) = 0.56478 0.25227
# Poissons Ratio (y) = 0.27607 0.52425
# Poissons Ratio (z) = 0.09126 0.38799
#
# Static dielectric constant tensor:
#      x y z
#    x 1.751120 0.000000 0.000000 
#    y 0.000000 1.701230 0.000000 
#    z 0.000000 0.000000 1.730830 
# 
# From -- ./inp_files/17473.got.cif
#   From: 2010.05.17/outbox.cif.g08.bks.cpg/sg60_9_cif.got.tgz:17473.got - 2010.06.03 14:59:27.
