data_PCOD9455106
_publ_section_title
;
Structure prediction by ZEFSAII (Michael W. Deem and Ramdas Pophale) SiO2 
 PCOD9455106
Probable space group: P B C N
;
_chemical_formula_sum "Si O2"
_cell_formula_units_Z 60
_cell_length_a 23.011970
_cell_length_b 5.087263
_cell_length_c 18.609668
_cell_angle_alpha 90.000000
_cell_angle_beta 90.000000
_cell_angle_gamma 90.000000
_cell_volume 2178.595563
_symmetry_space_group_name_H-M "P B C N"
_symmetry_group_IT_number 60
_symmetry_cell_setting 'orthorhombic'
loop_
_space_group_symop_operation_xyz
x,y,z
1/2-x,1/2-y,1/2+z
1/2+x,1/2-y,-z
-x,y,1/2-z
-x,-y,-z
1/2+x,1/2+y,1/2-z
1/2-x,1/2+y,z
x,-y,1/2+z
loop_
_atom_site_type_symbol
_atom_site_label
_atom_site_fract_x
_atom_site_fract_y
_atom_site_fract_z
Si Si1 0.671682 0.356156 0.928305
Si Si2 0.716672 0.502261 0.781752
Si Si3 0.581801 0.015124 0.840989
Si Si4 0.000000 0.096804 0.250000
Si Si5 0.358898 0.067500 0.792618
Si Si6 0.342399 0.160889 0.432415
Si Si7 0.074011 0.737735 0.018557
Si Si8 0.064276 0.063499 0.376552
O O1 0.710330 0.492103 0.867981
O O2 0.637025 0.134613 0.883953
O O3 0.620852 0.552306 0.953283
O O4 0.699188 0.255922 0.002980
O O5 0.770264 0.303690 0.763325
O O6 0.666594 0.333767 0.743698
O O7 0.541567 0.229871 0.802216
O O8 0.614465 0.887203 0.771950
O O9 0.548721 0.871538 0.906712
O O10 0.030426 0.926225 0.311852
O O11 0.415171 0.171967 0.836647
O O12 0.319727 0.981402 0.861255
O O13 0.379013 0.400164 0.398689
O O14 0.388694 0.983686 0.476467
O O15 0.036366 0.859017 0.953030
#
# Coordination Sequence:
#
# PCOD9455106 Si02
#       8
#     8   8   8   4   8   8   8   8
#     4   9  20  39  62  84 119 166 210 260 319 387
#     4  11  26  41  64  99 132 165 211 266 321 388
#     4   9  19  34  57  84 119 163 208 262 318 384
#     4  10  20  36  52  90 128 162 216 270 330 386
#     4   9  20  37  60  86 121 163 203 254 321 390
#     4   9  18  36  64  84 112 162 210 254 310 384
#     4   9  18  36  61  84 108 161 211 254 313 378
#     4   9  19  36  58  84 121 164 211 264 320 387
#
# _framework density 27.540679000000001
#
# number of rings (size 3 to 8) (size 9 to 14) (size 15 to 20)
#    0.000    2.667    0.000    0.000    7.467    2.667 
#    0.000   18.000    0.000    0.000    0.000    0.000 
#    0.000    0.000    0.000    0.000    0.000    0.000 
#
# Total GULP energy -334624.973001 kJ/mol
# GULP energy per Si atom -5577.082883 kJ/mol
# Density = 2.747799 g / cm^3
# Si number density = 27.540679 Si / 1000 Ang^3
#
#
#
# Elastic Constant Matrix: (Units=GPa)
#
#
# Indices 1 2 3 4 5 6 
#
# 1 36.6018 -14.2444 28.2846 0.0000 0.0000 0.0000
# 2 -14.2444 50.2369 38.9494 0.0000 0.0000 0.0000
# 3 28.2846 38.9494 275.0662 0.0000 0.0000 0.0000
# 4 0.0000 0.0000 0.0000 21.5376 0.0000 0.0000
# 5 0.0000 0.0000 0.0000 0.0000 37.9168 0.0000
# 6 0.0000 0.0000 0.0000 0.0000 0.0000 -16.2935
#
#
#
# Elastic Compliance Matrix: (Units=1/GPa)
#
#
# Indices 1 2 3 4 5 6 
#
# 1 0.038101 0.015548 -0.006119 0.000000 0.000000 0.000000
# 2 0.015548 0.028705 -0.005663 0.000000 0.000000 0.000000
# 3 -0.006119 -0.005663 0.005067 0.000000 0.000000 0.000000
# 4 0.000000 0.000000 0.000000 0.046431 0.000000 0.000000
# 5 0.000000 0.000000 0.000000 0.000000 0.026374 0.000000
# 6 0.000000 0.000000 0.000000 0.000000 0.000000 -0.061374
#
#
# Mechanical properties :
#
#
# Convention : Reuss Voigt Hill
#
# Bulk Modulus (GPa) = 12.59413 51.98713 32.29063
# Shear Modulus (GPa) = 48.90466 29.22653 39.06560
#
# Velocity S-wave (km/s) = 4.21851 3.26116 3.77034
# Velocity P-wave (km/s) = 5.32077 5.75306 5.54113
#
# Compressibility (1/GPa) = 0.07940209
#
# Stress axis : x y z
#
# Youngs Moduli (GPa) = 26.24633 34.83708 197.36835
#
# Poissons Ratio (x) = -0.54163 1.20777
# Poissons Ratio (y) = -0.40807 1.11777
# Poissons Ratio (z) = 0.16061 0.19730
#
# Static dielectric constant tensor:
#      x y z
#    x 2.515950 0.000000 0.000000 
#    y 0.000000 2.250160 0.000000 
#    z 0.000000 0.000000 2.296670 
# 
# From -- ./inp_files/21278.got.cif
#   From: 2010.05.17/outbox.cif.g08.bks.cpg/sg60_11_cif.got.tgz:21278.got - 2010.06.03 14:59:27.
