data_PCOD9455918
_publ_section_title
;
Structure prediction by ZEFSAII (Michael W. Deem and Ramdas Pophale) SiO2 
 PCOD9455918
Probable space group: P B C N
;
_chemical_formula_sum "Si O2"
_cell_formula_units_Z 64
_cell_length_a 28.909770
_cell_length_b 13.912307
_cell_length_c 8.653566
_cell_angle_alpha 90.000000
_cell_angle_beta 90.000000
_cell_angle_gamma 90.000000
_cell_volume 3480.478052
_symmetry_space_group_name_H-M "P B C N"
_symmetry_group_IT_number 60
_symmetry_cell_setting 'orthorhombic'
loop_
_space_group_symop_operation_xyz
x,y,z
1/2-x,1/2-y,1/2+z
1/2+x,1/2-y,-z
-x,y,1/2-z
-x,-y,-z
1/2+x,1/2+y,1/2-z
1/2-x,1/2+y,z
x,-y,1/2+z
loop_
_atom_site_type_symbol
_atom_site_label
_atom_site_fract_x
_atom_site_fract_y
_atom_site_fract_z
Si Si1 0.313785 0.882834 0.833154
Si Si2 0.717924 0.710380 0.115055
Si Si3 0.884137 0.223759 0.616320
Si Si4 0.940486 0.076113 0.129759
Si Si5 0.963500 0.125138 0.481338
Si Si6 0.284430 0.919707 0.481506
Si Si7 0.143803 0.885919 0.084960
Si Si8 0.182196 0.091529 0.092640
O O1 0.271908 0.815245 0.894310
O O2 0.360854 0.827796 0.872450
O O3 0.305328 0.896557 0.650190
O O4 0.307398 0.986384 0.910431
O O5 0.698529 0.654637 0.263055
O O6 0.710461 0.824165 0.121155
O O7 0.689785 0.668988 0.969702
O O8 0.935298 0.214822 0.546869
O O9 0.880956 0.175094 0.783820
O O10 0.852118 0.154749 0.510072
O O11 0.944628 0.097259 0.310836
O O12 0.981647 0.133228 0.041885
O O13 0.891368 0.101547 0.057425
O O14 0.952207 0.964925 0.093039
O O15 0.229255 0.935829 0.501619
O O16 0.158050 0.992035 0.140467
#
# Coordination Sequence:
#
# PCOD9455918 Si02
#       8
#     8   8   8   8   8   8   8   8
#     4  11  25  39  59  83 115 158 202 250 296 342
#     4  11  23  39  56  82 119 158 204 242 289 348
#     4  12  23  36  56  88 118 153 202 239 291 359
#     4  10  21  37  57  84 119 159 189 234 293 361
#     4  10  21  37  57  84 120 155 192 233 295 361
#     4  11  24  41  58  79 115 160 205 254 293 338
#     4  12  22  37  56  88 120 155 199 237 292 351
#     4  11  23  34  58  82 116 165 196 242 289 348
#
# _framework density 18.388279000000001
#
# number of rings (size 3 to 8) (size 9 to 14) (size 15 to 20)
#    0.000    1.000    5.000    2.250    3.500    1.500 
#    0.000    0.000    0.000    0.000    0.000    0.875 
#    0.000    0.000    0.000    0.000    0.000    0.000 
#
# Total GULP energy -357939.505057 kJ/mol
# GULP energy per Si atom -5592.804767 kJ/mol
# Density = 1.834643 g / cm^3
# Si number density = 18.388279 Si / 1000 Ang^3
#
#
#
# Elastic Constant Matrix: (Units=GPa)
#
#
# Indices 1 2 3 4 5 6 
#
# 1 69.2935 30.9807 9.9466 0.0000 0.0000 0.0000
# 2 30.9807 122.0502 18.9696 0.0000 0.0000 0.0000
# 3 9.9466 18.9696 49.1161 0.0000 0.0000 0.0000
# 4 0.0000 0.0000 0.0000 12.4144 0.0000 0.0000
# 5 0.0000 0.0000 0.0000 0.0000 25.5434 0.0000
# 6 0.0000 0.0000 0.0000 0.0000 0.0000 30.2320
#
#
#
# Elastic Compliance Matrix: (Units=1/GPa)
#
#
# Indices 1 2 3 4 5 6 
#
# 1 0.016431 -0.003887 -0.001826 0.000000 0.000000 0.000000
# 2 -0.003887 0.009636 -0.002934 0.000000 0.000000 0.000000
# 3 -0.001826 -0.002934 0.021863 0.000000 0.000000 0.000000
# 4 0.000000 0.000000 0.000000 0.080552 0.000000 0.000000
# 5 0.000000 0.000000 0.000000 0.000000 0.039149 0.000000
# 6 0.000000 0.000000 0.000000 0.000000 0.000000 0.033078
#
#
# Mechanical properties :
#
#
# Convention : Reuss Voigt Hill
#
# Bulk Modulus (GPa) = 32.64242 40.02817 36.33529
# Shear Modulus (GPa) = 21.90907 25.67550 23.79228
#
# Velocity S-wave (km/s) = 3.45551 3.74076 3.60096
# Velocity P-wave (km/s) = 5.80612 6.36186 6.09033
#
# Compressibility (1/GPa) = 0.03063499
#
# Stress axis : x y z
#
# Youngs Moduli (GPa) = 60.85914 103.77636 45.73911
#
# Poissons Ratio (x) = 0.40338 0.08353
# Poissons Ratio (y) = 0.23656 0.13422
# Poissons Ratio (z) = 0.11115 0.30453
#
# Static dielectric constant tensor:
#      x y z
#    x 1.655180 0.000000 0.000000 
#    y 0.000000 1.610360 0.000000 
#    z 0.000000 0.000000 1.664060 
# 
# From -- ./inp_files/8507.got.cif
#   From: 2010.05.17/outbox.cif.g08.bks.cpg/sg60_5_cif.got.tgz:8507.got - 2010.06.03 14:59:27.
