data_PCOD9455222
_publ_section_title
;
Structure prediction by ZEFSAII (Michael W. Deem and Ramdas Pophale) SiO2 
 PCOD9455222
Probable space group: P B C N
;
_chemical_formula_sum "Si O2"
_cell_formula_units_Z 48
_cell_length_a 9.206354
_cell_length_b 8.962702
_cell_length_c 30.916744
_cell_angle_alpha 90.000000
_cell_angle_beta 90.000000
_cell_angle_gamma 90.000000
_cell_volume 2551.058260
_symmetry_space_group_name_H-M "P B C N"
_symmetry_group_IT_number 60
_symmetry_cell_setting 'orthorhombic'
loop_
_space_group_symop_operation_xyz
x,y,z
1/2-x,1/2-y,1/2+z
1/2+x,1/2-y,-z
-x,y,1/2-z
-x,-y,-z
1/2+x,1/2+y,1/2-z
1/2-x,1/2+y,z
x,-y,1/2+z
loop_
_atom_site_type_symbol
_atom_site_label
_atom_site_fract_x
_atom_site_fract_y
_atom_site_fract_z
Si Si1 0.071467 0.043667 0.045147
Si Si2 0.685622 0.231808 0.418559
Si Si3 0.616486 0.299033 0.615971
Si Si4 0.572121 0.056175 0.119876
Si Si5 0.143859 0.799282 0.673263
Si Si6 0.906082 0.477525 0.792203
O O1 0.132463 0.895113 0.068351
O O2 0.204796 0.160908 0.046422
O O3 0.949401 0.120880 0.074269
O O4 0.000000 0.000000 0.000000
O O5 0.771492 0.237358 0.372293
O O6 0.547374 0.123817 0.412546
O O7 0.780891 0.350464 0.619637
O O8 0.600938 0.119774 0.612695
O O9 0.513278 0.351958 0.655892
O O10 0.500397 0.072777 0.166806
O O11 0.117047 0.653105 0.701388
O O12 0.247505 0.905712 0.700860
O O13 0.000000 0.442734 0.750000
#
# Coordination Sequence:
#
# PCOD9455222 Si02
#       6
#     8   8   8   8   8   8
#     4  11  23  38  59  86 113 147 189 237 285 329
#     4  10  20  40  61  80 112 154 190 226 282 347
#     4  10  20  37  58  84 112 149 191 228 278 343
#     4  10  21  37  60  84 113 151 191 228 277 345
#     4   9  19  38  59  78 111 152 186 224 279 343
#     4  10  21  36  56  84 112 145 188 235 282 327
#
# _framework density 18.815721
#
# number of rings (size 3 to 8) (size 9 to 14) (size 15 to 20)
#    0.000    2.000    0.000    6.000    0.000    6.667 
#    0.000    3.333    0.000    0.000    0.000    0.000 
#    0.000    0.000    0.000    0.000    0.000    0.000 
#
# Total GULP energy -267819.048889 kJ/mol
# GULP energy per Si atom -5579.563519 kJ/mol
# Density = 1.877290 g / cm^3
# Si number density = 18.815721 Si / 1000 Ang^3
#
#
#
# Elastic Constant Matrix: (Units=GPa)
#
#
# Indices 1 2 3 4 5 6 
#
# 1 97.4751 12.6312 -8.5643 0.0000 0.0000 0.0000
# 2 12.6312 36.1606 -5.5383 0.0000 0.0000 0.0000
# 3 -8.5643 -5.5383 19.0301 0.0000 0.0000 0.0000
# 4 0.0000 0.0000 0.0000 6.5494 0.0000 0.0000
# 5 0.0000 0.0000 0.0000 0.0000 25.1689 0.0000
# 6 0.0000 0.0000 0.0000 0.0000 0.0000 38.6532
#
#
#
# Elastic Compliance Matrix: (Units=1/GPa)
#
#
# Indices 1 2 3 4 5 6 
#
# 1 0.011032 -0.003237 0.004023 0.000000 0.000000 0.000000
# 2 -0.003237 0.029895 0.007243 0.000000 0.000000 0.000000
# 3 0.004023 0.007243 0.056467 0.000000 0.000000 0.000000
# 4 0.000000 0.000000 0.000000 0.152686 0.000000 0.000000
# 5 0.000000 0.000000 0.000000 0.000000 0.039732 0.000000
# 6 0.000000 0.000000 0.000000 0.000000 0.000000 0.025871
#
#
# Mechanical properties :
#
#
# Convention : Reuss Voigt Hill
#
# Bulk Modulus (GPa) = 8.81446 16.63589 12.72518
# Shear Modulus (GPa) = 14.81736 24.35011 19.58374
#
# Velocity S-wave (km/s) = 2.80929 3.60131 3.22967
# Velocity P-wave (km/s) = 3.90097 5.11403 4.54812
#
# Compressibility (1/GPa) = 0.11344992
#
# Stress axis : x y z
#
# Youngs Moduli (GPa) = 90.64557 33.45084 17.70959
#
# Poissons Ratio (x) = 0.10830 -0.07124
# Poissons Ratio (y) = 0.29346 -0.12827
# Poissons Ratio (z) = -0.36463 -0.24229
#
# Static dielectric constant tensor:
#      x y z
#    x 1.668860 0.000000 0.000000 
#    y 0.000000 1.647620 0.000000 
#    z 0.000000 0.000000 1.665540 
# 
# From -- ./inp_files/25907.got.cif
#   From: 2010.05.17/outbox.cif.g08.bks.cpg/sg60_13_cif.got.tgz:25907.got - 2010.06.03 14:59:27.
