data_PCOD9455378
_publ_section_title
;
Structure prediction by ZEFSAII (Michael W. Deem and Ramdas Pophale) SiO2 
 PCOD9455378
Probable space group: P B C N
;
_chemical_formula_sum "Si O2"
_cell_formula_units_Z 44
_cell_length_a 14.770202
_cell_length_b 5.295697
_cell_length_c 22.064713
_cell_angle_alpha 90.000000
_cell_angle_beta 90.000000
_cell_angle_gamma 90.000000
_cell_volume 1725.869072
_symmetry_space_group_name_H-M "P B C N"
_symmetry_group_IT_number 60
_symmetry_cell_setting 'orthorhombic'
loop_
_space_group_symop_operation_xyz
x,y,z
1/2-x,1/2-y,1/2+z
1/2+x,1/2-y,-z
-x,y,1/2-z
-x,-y,-z
1/2+x,1/2+y,1/2-z
1/2-x,1/2+y,z
x,-y,1/2+z
loop_
_atom_site_type_symbol
_atom_site_label
_atom_site_fract_x
_atom_site_fract_y
_atom_site_fract_z
Si Si1 0.000000 0.330425 0.750000
Si Si2 0.311227 0.311375 0.197672
Si Si3 0.699848 0.420421 0.010118
Si Si4 0.731462 0.929802 0.141274
Si Si5 0.432688 0.608321 0.581739
Si Si6 0.474824 0.094188 0.878903
O O1 0.095324 0.181270 0.738872
O O2 0.007262 0.501654 0.810025
O O3 0.240007 0.541997 0.202467
O O4 0.351851 0.339885 0.129443
O O5 0.728430 0.139111 0.991266
O O6 0.607497 0.513349 0.981427
O O7 0.702876 0.421871 0.083092
O O8 0.748654 0.180554 0.177451
O O9 0.632225 0.913644 0.115223
O O10 0.487971 0.372240 0.609095
O O11 0.484684 0.873230 0.579172
#
# Coordination Sequence:
#
# PCOD9455378 Si02
#       6
#     4   8   8   8   8   8
#     4  10  26  44  66 102 138 172 232 286 324 408
#     4  11  23  40  66  97 130 176 220 270 339 391
#     4  10  20  38  62  89 123 164 208 265 322 389
#     4  10  22  42  63  91 128 169 218 268 333 411
#     4  11  22  40  65  95 129 167 221 279 328 401
#     4  11  24  42  65  93 132 174 217 279 340 388
#
# _framework density 25.494399999999999
#
# number of rings (size 3 to 8) (size 9 to 14) (size 15 to 20)
#    0.000    1.455    0.000    5.455    0.000    8.000 
#    0.000   21.818    0.000    0.000    0.000    0.000 
#    0.000    0.000    0.000    0.000    0.000    0.000 
#
# Total GULP energy -246377.940733 kJ/mol
# GULP energy per Si atom -5599.498653 kJ/mol
# Density = 2.543637 g / cm^3
# Si number density = 25.494400 Si / 1000 Ang^3
#
#
#
# Elastic Constant Matrix: (Units=GPa)
#
#
# Indices 1 2 3 4 5 6 
#
# 1 122.7612 68.3220 18.2001 0.0000 0.0000 0.0000
# 2 68.3220 182.1424 -12.1970 0.0000 0.0000 0.0000
# 3 18.2001 -12.1970 68.1815 0.0000 0.0000 0.0000
# 4 0.0000 0.0000 0.0000 -26.7772 0.0000 0.0000
# 5 0.0000 0.0000 0.0000 0.0000 34.1824 0.0000
# 6 0.0000 0.0000 0.0000 0.0000 0.0000 57.9588
#
#
#
# Elastic Compliance Matrix: (Units=1/GPa)
#
#
# Indices 1 2 3 4 5 6 
#
# 1 0.011181 -0.004447 -0.003780 0.000000 0.000000 0.000000
# 2 -0.004447 0.007326 0.002498 0.000000 0.000000 0.000000
# 3 -0.003780 0.002498 0.016123 0.000000 0.000000 0.000000
# 4 0.000000 0.000000 0.000000 -0.037345 0.000000 0.000000
# 5 0.000000 0.000000 0.000000 0.000000 0.029255 0.000000
# 6 0.000000 0.000000 0.000000 0.000000 0.000000 0.017254
#
#
# Mechanical properties :
#
#
# Convention : Reuss Voigt Hill
#
# Bulk Modulus (GPa) = 43.15972 57.97059 50.56515
# Shear Modulus (GPa) = 79.39491 32.99014 56.19252
#
# Velocity S-wave (km/s) = 5.58656 3.60114 4.69989
# Velocity P-wave (km/s) = 7.65368 6.33079 7.02345
#
# Compressibility (1/GPa) = 0.02316975
#
# Stress axis : x y z
#
# Youngs Moduli (GPa) = 89.43345 136.50630 62.02457
#
# Poissons Ratio (x) = 0.60709 0.23447
# Poissons Ratio (y) = 0.39774 -0.15492
# Poissons Ratio (z) = 0.33809 -0.34094
#
# Static dielectric constant tensor:
#      x y z
#    x 2.071730 0.000000 0.000000 
#    y 0.000000 2.051680 0.000000 
#    z 0.000000 0.000000 2.079090 
# 
# From -- ./inp_files/25398.got.cif
#   From: 2010.05.17/outbox.cif.g08.bks.cpg/sg60_13_cif.got.tgz:25398.got - 2010.06.03 14:59:27.
