data_PCOD9455219
_publ_section_title
;
Structure prediction by ZEFSAII (Michael W. Deem and Ramdas Pophale) SiO2 
 PCOD9455219
Probable space group: P B C N
;
_chemical_formula_sum "Si O2"
_cell_formula_units_Z 64
_cell_length_a 8.522026
_cell_length_b 25.619559
_cell_length_c 15.073411
_cell_angle_alpha 90.000000
_cell_angle_beta 90.000000
_cell_angle_gamma 90.000000
_cell_volume 3290.986082
_symmetry_space_group_name_H-M "P B C N"
_symmetry_group_IT_number 60
_symmetry_cell_setting 'orthorhombic'
loop_
_space_group_symop_operation_xyz
x,y,z
1/2-x,1/2-y,1/2+z
1/2+x,1/2-y,-z
-x,y,1/2-z
-x,-y,-z
1/2+x,1/2+y,1/2-z
1/2-x,1/2+y,z
x,-y,1/2+z
loop_
_atom_site_type_symbol
_atom_site_label
_atom_site_fract_x
_atom_site_fract_y
_atom_site_fract_z
Si Si1 0.187910 0.362236 0.395675
Si Si2 0.313744 0.439968 0.250000
Si Si3 0.811556 0.248026 0.898798
Si Si4 0.190818 0.362622 0.898791
Si Si5 0.687910 0.137764 0.895675
Si Si6 0.309616 0.057274 0.250000
Si Si7 0.188443 0.248026 0.898799
Si Si8 0.809182 0.362622 0.898791
O O1 0.252779 0.408078 0.335100
O O2 0.243295 0.305497 0.361107
O O3 0.240854 0.367652 0.498557
O O4 0.000000 0.363294 0.394306
O O5 0.500000 0.439957 0.250000
O O6 0.252779 0.408078 0.164900
O O7 0.251719 0.498818 0.250000
O O8 0.743295 0.194503 0.861106
O O9 0.764843 0.305041 0.862609
O O10 1.000000 0.244704 0.897055
O O11 0.750000 0.250000 1.000000
O O12 0.242354 0.409353 0.835751
O O13 0.235157 0.305041 0.862609
O O14 1.000000 0.363169 0.899479
O O15 0.240854 0.367652 0.001443
O O16 0.500000 0.055784 0.250000
O O17 0.257646 0.090647 0.164249
#
# Coordination Sequence:
#
# PCOD9455219 Si02
#       8
#     8   8   8   8   8   8   8   8
#     4  10  20  37  58  83 112 147 185 227 277 334
#     4  12  26  41  54  77 107 142 188 238 285 334
#     4   9  16  30  53  85 118 149 183 223 269 327
#     4   8  17  33  58  86 113 145 182 218 267 328
#     4  10  20  37  58  83 112 147 185 227 277 334
#     4  10  20  39  60  79 105 144 188 228 265 322
#     4   9  16  30  53  85 118 149 183 223 269 327
#     4   8  17  33  58  86 113 145 182 218 267 328
#
# _framework density 19.447057999999998
#
# number of rings (size 3 to 8) (size 9 to 14) (size 15 to 20)
#    0.000    2.500    0.000    4.125    0.000    2.000 
#    0.000   15.000    0.000    0.000    0.000    0.000 
#    0.000    0.000    0.000    0.000    0.000    0.000 
#
# Total GULP energy -357032.605775 kJ/mol
# GULP energy per Si atom -5578.634465 kJ/mol
# Density = 1.940280 g / cm^3
# Si number density = 19.447058 Si / 1000 Ang^3
#
#
#
# Elastic Constant Matrix: (Units=GPa)
#
#
# Indices 1 2 3 4 5 6 
#
# 1 60.9128 48.7744 27.5950 0.0000 0.0000 0.0000
# 2 48.7744 234.4605 95.7404 0.0000 0.0000 0.0000
# 3 27.5950 95.7404 112.3465 0.0000 0.0000 0.0000
# 4 0.0000 0.0000 0.0000 36.6165 0.0000 0.0000
# 5 0.0000 0.0000 0.0000 0.0000 14.6264 0.0000
# 6 0.0000 0.0000 0.0000 0.0000 0.0000 36.7555
#
#
#
# Elastic Compliance Matrix: (Units=1/GPa)
#
#
# Indices 1 2 3 4 5 6 
#
# 1 0.020015 -0.003307 -0.002098 0.000000 0.000000 0.000000
# 2 -0.003307 0.007088 -0.005228 0.000000 0.000000 0.000000
# 3 -0.002098 -0.005228 0.013872 0.000000 0.000000 0.000000
# 4 0.000000 0.000000 0.000000 0.027310 0.000000 0.000000
# 5 0.000000 0.000000 0.000000 0.000000 0.068370 0.000000
# 6 0.000000 0.000000 0.000000 0.000000 0.000000 0.027207
#
#
# Mechanical properties :
#
#
# Convention : Reuss Voigt Hill
#
# Bulk Modulus (GPa) = 50.73874 83.54883 67.14378
# Shear Modulus (GPa) = 26.08284 33.30701 29.69492
#
# Velocity S-wave (km/s) = 3.66624 4.14297 3.91188
# Velocity P-wave (km/s) = 6.63846 8.12041 7.41654
#
# Compressibility (1/GPa) = 0.01970881
#
# Stress axis : x y z
#
# Youngs Moduli (GPa) = 49.96153 141.08662 72.09019
#
# Poissons Ratio (x) = 0.46658 0.15125
# Poissons Ratio (y) = 0.16522 0.37688
# Poissons Ratio (z) = 0.10482 0.73759
#
# Static dielectric constant tensor:
#      x y z
#    x 1.660020 0.000000 0.000000 
#    y 0.000000 1.675520 0.000000 
#    z 0.000000 0.000000 1.704040 
# 
# From -- ./inp_files/15414.got.cif
#   From: 2010.05.17/outbox.cif.g08.bks.cpg/sg60_8_cif.got.tgz:15414.got - 2010.06.03 14:59:27.
