data_PCOD9455193
_publ_section_title
;
Structure prediction by ZEFSAII (Michael W. Deem and Ramdas Pophale) SiO2 
 PCOD9455193
Probable space group: P B C N
;
_chemical_formula_sum "Si O2"
_cell_formula_units_Z 32
_cell_length_a 9.691276
_cell_length_b 16.582452
_cell_length_c 9.558290
_cell_angle_alpha 90.000000
_cell_angle_beta 90.000000
_cell_angle_gamma 90.000000
_cell_volume 1536.066133
_symmetry_space_group_name_H-M "P B C N"
_symmetry_group_IT_number 60
_symmetry_cell_setting 'orthorhombic'
loop_
_space_group_symop_operation_xyz
x,y,z
1/2-x,1/2-y,1/2+z
1/2+x,1/2-y,-z
-x,y,1/2-z
-x,-y,-z
1/2+x,1/2+y,1/2-z
1/2-x,1/2+y,z
x,-y,1/2+z
loop_
_atom_site_type_symbol
_atom_site_label
_atom_site_fract_x
_atom_site_fract_y
_atom_site_fract_z
Si Si1 0.340139 0.443763 0.230275
Si Si2 0.188094 0.696899 0.861759
Si Si3 0.079281 0.236339 0.072419
Si Si4 0.096367 0.928645 0.937457
O O1 0.500000 0.413182 0.250000
O O2 0.240262 0.391734 0.325741
O O3 0.344971 0.534594 0.292990
O O4 0.300802 0.424700 0.069761
O O5 0.156479 0.744407 0.717818
O O6 0.043947 0.699594 0.943290
O O7 0.309512 0.736579 0.950627
O O8 0.995067 0.151342 0.076478
O O9 0.000000 0.000000 0.000000
#
# Coordination Sequence:
#
# PCOD9455193 Si02
#       4
#     8   8   8   8
#     4  10  20  38  63  97 123 162 218 275 303 377
#     4  11  24  39  63  98 132 166 216 270 332 383
#     4  11  24  40  65  97 130 172 214 272 327 392
#     4  10  20  36  65  97 119 163 223 265 303 382
#
# _framework density 20.832436000000001
#
# number of rings (size 3 to 8) (size 9 to 14) (size 15 to 20)
#    0.000    1.500    5.000    1.500   10.500    0.000 
#    0.000    0.000    0.000   13.500    0.000    0.000 
#    0.000    0.000    0.000    0.000    0.000    0.000 
#
# Total GULP energy -178345.789018 kJ/mol
# GULP energy per Si atom -5573.305907 kJ/mol
# Density = 2.078502 g / cm^3
# Si number density = 20.832436 Si / 1000 Ang^3
#
#
#
# Elastic Constant Matrix: (Units=GPa)
#
#
# Indices 1 2 3 4 5 6 
#
# 1 117.1410 38.9575 51.1636 0.0000 0.0000 0.0000
# 2 38.9575 57.2534 22.2093 0.0000 0.0000 0.0000
# 3 51.1636 22.2093 83.7140 0.0000 0.0000 0.0000
# 4 0.0000 0.0000 0.0000 32.7113 0.0000 0.0000
# 5 0.0000 0.0000 0.0000 0.0000 37.3442 0.0000
# 6 0.0000 0.0000 0.0000 0.0000 0.0000 19.4191
#
#
#
# Elastic Compliance Matrix: (Units=1/GPa)
#
#
# Indices 1 2 3 4 5 6 
#
# 1 0.013638 -0.006740 -0.006547 0.000000 0.000000 0.000000
# 2 -0.006740 0.022801 -0.001930 0.000000 0.000000 0.000000
# 3 -0.006547 -0.001930 0.016459 0.000000 0.000000 0.000000
# 4 0.000000 0.000000 0.000000 0.030570 0.000000 0.000000
# 5 0.000000 0.000000 0.000000 0.000000 0.026778 0.000000
# 6 0.000000 0.000000 0.000000 0.000000 0.000000 0.051496
#
#
# Mechanical properties :
#
#
# Convention : Reuss Voigt Hill
#
# Bulk Modulus (GPa) = 44.51564 53.64104 49.07834
# Shear Modulus (GPa) = 25.04221 27.61345 26.32783
#
# Velocity S-wave (km/s) = 3.47086 3.64470 3.55884
# Velocity P-wave (km/s) = 6.12187 6.59670 6.36372
#
# Compressibility (1/GPa) = 0.02246401
#
# Stress axis : x y z
#
# Youngs Moduli (GPa) = 73.32596 43.85773 60.75834
#
# Poissons Ratio (x) = 0.29560 0.39778
# Poissons Ratio (y) = 0.49422 0.11725
# Poissons Ratio (z) = 0.48005 0.08464
#
# Static dielectric constant tensor:
#      x y z
#    x 1.747480 0.000000 0.000000 
#    y 0.000000 1.799070 0.000000 
#    z 0.000000 0.000000 1.971140 
# 
# From -- ./inp_files/9690.got.cif
#   From: 2010.05.17/outbox.cif.g08.bks.cpg/sg60_5_cif.got.tgz:9690.got - 2010.06.03 14:59:27.
