data_PCOD9455073
_publ_section_title
;
Structure prediction by ZEFSAII (Michael W. Deem and Ramdas Pophale) SiO2 
 PCOD9455073
Probable space group: P B C N
;
_chemical_formula_sum "Si O2"
_cell_formula_units_Z 64
_cell_length_a 18.355236
_cell_length_b 9.996368
_cell_length_c 18.832782
_cell_angle_alpha 90.000000
_cell_angle_beta 90.000000
_cell_angle_gamma 90.000000
_cell_volume 3455.546071
_symmetry_space_group_name_H-M "P B C N"
_symmetry_group_IT_number 60
_symmetry_cell_setting 'orthorhombic'
loop_
_space_group_symop_operation_xyz
x,y,z
1/2-x,1/2-y,1/2+z
1/2+x,1/2-y,-z
-x,y,1/2-z
-x,-y,-z
1/2+x,1/2+y,1/2-z
1/2-x,1/2+y,z
x,-y,1/2+z
loop_
_atom_site_type_symbol
_atom_site_label
_atom_site_fract_x
_atom_site_fract_y
_atom_site_fract_z
Si Si1 0.821470 0.929882 0.232019
Si Si2 0.224242 0.199972 0.337347
Si Si3 0.716959 0.760232 0.451622
Si Si4 0.195086 0.010051 0.608239
Si Si5 0.449444 0.396988 0.042052
Si Si6 0.863341 0.683538 0.538403
Si Si7 0.536874 0.289551 0.174879
Si Si8 0.635640 0.122879 0.073173
O O1 0.762450 0.824270 0.202061
O O2 0.824023 0.926121 0.316563
O O3 0.897748 0.888757 0.196924
O O4 0.801317 0.080631 0.212219
O O5 0.158601 0.252938 0.385939
O O6 0.286412 0.133194 0.387109
O O7 0.705410 0.648808 0.391750
O O8 0.736766 0.905890 0.421459
O O9 0.789045 0.706878 0.492915
O O10 0.649809 0.778660 0.506108
O O11 0.128685 0.035532 0.554980
O O12 0.483418 0.359045 0.118331
O O13 0.500000 0.500000 0.000000
O O14 0.429313 0.263536 0.997929
O O15 0.878015 0.527024 0.547542
O O16 0.500000 0.248910 0.250000
O O17 0.575644 0.172958 0.129003
#
# Coordination Sequence:
#
# PCOD9455073 Si02
#       8
#     8   8   8   8   8   8   8   8
#     4  11  21  37  62  87 126 157 194 251 308 375
#     4  10  20  35  61  93 117 153 199 247 318 359
#     4  10  20  35  59  94 121 144 197 255 323 347
#     4  11  21  36  59  89 123 151 194 258 304 369
#     4  11  23  39  62  86 118 164 213 244 292 361
#     4  10  20  37  61  89 118 152 204 262 295 357
#     4  11  23  41  59  84 123 173 204 238 302 374
#     4  10  20  37  63  85 121 157 197 256 305 363
#
# _framework density 18.520951
#
# number of rings (size 3 to 8) (size 9 to 14) (size 15 to 20)
#    0.000    1.500    3.750    2.250    0.000    0.500 
#    0.000    0.000    2.750    0.000    0.000    0.000 
#    0.000    0.000    0.000    0.000    0.000    0.000 
#
# Total GULP energy -357002.339165 kJ/mol
# GULP energy per Si atom -5578.161549 kJ/mol
# Density = 1.847880 g / cm^3
# Si number density = 18.520951 Si / 1000 Ang^3
#
#
#
# Elastic Constant Matrix: (Units=GPa)
#
#
# Indices 1 2 3 4 5 6 
#
# 1 56.0134 31.0128 35.1998 0.0000 0.0000 0.0000
# 2 31.0128 113.1634 49.7468 0.0000 0.0000 0.0000
# 3 35.1998 49.7468 90.9343 0.0000 0.0000 0.0000
# 4 0.0000 0.0000 0.0000 29.7725 0.0000 0.0000
# 5 0.0000 0.0000 0.0000 0.0000 31.7154 0.0000
# 6 0.0000 0.0000 0.0000 0.0000 0.0000 6.5681
#
#
#
# Elastic Compliance Matrix: (Units=1/GPa)
#
#
# Indices 1 2 3 4 5 6 
#
# 1 0.024522 -0.003354 -0.007657 0.000000 0.000000 0.000000
# 2 -0.003354 0.012094 -0.005318 0.000000 0.000000 0.000000
# 3 -0.007657 -0.005318 0.016870 0.000000 0.000000 0.000000
# 4 0.000000 0.000000 0.000000 0.033588 0.000000 0.000000
# 5 0.000000 0.000000 0.000000 0.000000 0.031530 0.000000
# 6 0.000000 0.000000 0.000000 0.000000 0.000000 0.152250
#
#
# Mechanical properties :
#
#
# Convention : Reuss Voigt Hill
#
# Bulk Modulus (GPa) = 48.01332 54.66997 51.34164
# Shear Modulus (GPa) = 16.10539 23.22133 19.66336
#
# Velocity S-wave (km/s) = 2.95206 3.54473 3.26188
# Velocity P-wave (km/s) = 6.13185 6.80701 6.47823
#
# Compressibility (1/GPa) = 0.02082755
#
# Stress axis : x y z
#
# Youngs Moduli (GPa) = 40.77980 82.68824 59.27655
#
# Poissons Ratio (x) = 0.27735 0.45390
# Poissons Ratio (y) = 0.13678 0.31521
# Poissons Ratio (z) = 0.31226 0.43970
#
# Static dielectric constant tensor:
#      x y z
#    x 1.638320 0.000000 0.000000 
#    y 0.000000 1.624500 0.000000 
#    z 0.000000 0.000000 1.662570 
# 
# From -- ./inp_files/21060.got.cif
#   From: 2010.05.17/outbox.cif.g08.bks.cpg/sg60_11_cif.got.tgz:21060.got - 2010.06.03 14:59:27.
