data_PCOD9455148
_publ_section_title
;
Structure prediction by ZEFSAII (Michael W. Deem and Ramdas Pophale) SiO2 
 PCOD9455148
Probable space group: P B C N
;
_chemical_formula_sum "Si O2"
_cell_formula_units_Z 48
_cell_length_a 15.684117
_cell_length_b 8.938323
_cell_length_c 17.690957
_cell_angle_alpha 90.000000
_cell_angle_beta 90.000000
_cell_angle_gamma 90.000000
_cell_volume 2480.090020
_symmetry_space_group_name_H-M "P B C N"
_symmetry_group_IT_number 60
_symmetry_cell_setting 'orthorhombic'
loop_
_space_group_symop_operation_xyz
x,y,z
1/2-x,1/2-y,1/2+z
1/2+x,1/2-y,-z
-x,y,1/2-z
-x,-y,-z
1/2+x,1/2+y,1/2-z
1/2-x,1/2+y,z
x,-y,1/2+z
loop_
_atom_site_type_symbol
_atom_site_label
_atom_site_fract_x
_atom_site_fract_y
_atom_site_fract_z
Si Si1 0.472645 0.605096 0.124860
Si Si2 0.635585 0.389476 0.724680
Si Si3 0.949619 0.432794 0.678089
Si Si4 0.454996 0.863725 0.457452
Si Si5 0.595388 0.725209 0.898956
Si Si6 0.694986 0.725390 0.750382
O O1 0.417206 0.641151 0.198749
O O2 0.569762 0.600180 0.155556
O O3 0.475743 0.736972 0.064055
O O4 0.437724 0.445586 0.096902
O O5 0.675605 0.554206 0.732035
O O6 0.711754 0.272238 0.724531
O O7 0.922533 0.560941 0.619748
O O8 0.872327 0.333083 0.708285
O O9 0.000000 0.499951 0.750000
O O10 0.017980 0.320740 0.638702
O O11 0.390558 0.790437 0.517469
O O12 0.500000 0.000000 0.500000
O O13 0.673575 0.740524 0.840247
#
# Coordination Sequence:
#
# PCOD9455148 Si02
#       6
#     8   8   8   8   8   8
#     4  10  20  38  60  88 115 155 201 240 296 352
#     4  10  22  35  63  89 115 149 201 249 291 348
#     4   9  18  33  56  86 116 150 193 247 287 346
#     4  10  21  33  59  89 115 153 200 237 290 350
#     4   9  18  38  59  81 116 159 190 240 296 357
#     4  10  20  36  59  85 119 151 196 247 301 339
#
# _framework density 19.354137999999999
#
# number of rings (size 3 to 8) (size 9 to 14) (size 15 to 20)
#    0.000    2.333    1.667    0.500    4.667    2.667 
#    0.000    0.000   18.333    0.000    0.000    0.000 
#    0.000    0.000    0.000    0.000    0.000    0.000 
#
# Total GULP energy -267711.116169 kJ/mol
# GULP energy per Si atom -5577.314920 kJ/mol
# Density = 1.931009 g / cm^3
# Si number density = 19.354138 Si / 1000 Ang^3
#
#
#
# Elastic Constant Matrix: (Units=GPa)
#
#
# Indices 1 2 3 4 5 6 
#
# 1 72.4942 15.3630 11.1589 0.0000 0.0000 0.0000
# 2 15.3630 77.8547 41.8310 0.0000 0.0000 0.0000
# 3 11.1589 41.8310 83.7492 0.0000 0.0000 0.0000
# 4 0.0000 0.0000 0.0000 37.0989 0.0000 0.0000
# 5 0.0000 0.0000 0.0000 0.0000 8.4297 0.0000
# 6 0.0000 0.0000 0.0000 0.0000 0.0000 11.5433
#
#
#
# Elastic Compliance Matrix: (Units=1/GPa)
#
#
# Indices 1 2 3 4 5 6 
#
# 1 0.014425 -0.002479 -0.000684 0.000000 0.000000 0.000000
# 2 -0.002479 0.017982 -0.008651 0.000000 0.000000 0.000000
# 3 -0.000684 -0.008651 0.016353 0.000000 0.000000 0.000000
# 4 0.000000 0.000000 0.000000 0.026955 0.000000 0.000000
# 5 0.000000 0.000000 0.000000 0.000000 0.118629 0.000000
# 6 0.000000 0.000000 0.000000 0.000000 0.000000 0.086631
#
#
# Mechanical properties :
#
#
# Convention : Reuss Voigt Hill
#
# Bulk Modulus (GPa) = 39.79118 41.20045 40.49581
# Shear Modulus (GPa) = 15.97552 22.46405 19.21978
#
# Velocity S-wave (km/s) = 2.87615 3.41058 3.15470
# Velocity P-wave (km/s) = 5.62439 6.06987 5.85137
#
# Compressibility (1/GPa) = 0.02513120
#
# Stress axis : x y z
#
# Youngs Moduli (GPa) = 69.32499 55.61135 61.15218
#
# Poissons Ratio (x) = 0.13786 0.04181
# Poissons Ratio (y) = 0.17186 0.52905
# Poissons Ratio (z) = 0.04740 0.48111
#
# Static dielectric constant tensor:
#      x y z
#    x 1.647060 0.000000 0.000000 
#    y 0.000000 1.687820 0.000000 
#    z 0.000000 0.000000 1.728850 
# 
# From -- ./inp_files/20791.got.cif
#   From: 2010.05.17/outbox.cif.g08.bks.cpg/sg60_11_cif.got.tgz:20791.got - 2010.06.03 14:59:27.
