data_PCOD9455978
_publ_section_title
;
Structure prediction by ZEFSAII (Michael W. Deem and Ramdas Pophale) SiO2 
 PCOD9455978
Probable space group: P B C N
;
_chemical_formula_sum "Si O2"
_cell_formula_units_Z 36
_cell_length_a 5.793853
_cell_length_b 19.885722
_cell_length_c 14.407205
_cell_angle_alpha 90.000000
_cell_angle_beta 90.000000
_cell_angle_gamma 90.000000
_cell_volume 1659.925405
_symmetry_space_group_name_H-M "P B C N"
_symmetry_group_IT_number 60
_symmetry_cell_setting 'orthorhombic'
loop_
_space_group_symop_operation_xyz
x,y,z
1/2-x,1/2-y,1/2+z
1/2+x,1/2-y,-z
-x,y,1/2-z
-x,-y,-z
1/2+x,1/2+y,1/2-z
1/2-x,1/2+y,z
x,-y,1/2+z
loop_
_atom_site_type_symbol
_atom_site_label
_atom_site_fract_x
_atom_site_fract_y
_atom_site_fract_z
Si Si1 0.500000 0.345184 0.250000
Si Si2 0.500000 0.002400 0.250000
Si Si3 0.500000 0.422298 0.750000
Si Si4 0.660455 0.902326 0.393813
Si Si5 0.434922 0.644476 0.447376
Si Si6 0.210401 0.706426 0.911944
O O1 0.360998 0.392492 0.180932
O O2 0.656355 0.299753 0.184708
O O3 0.501274 0.957675 0.345011
O O4 0.252193 0.040595 0.248764
O O5 0.504126 0.380523 0.654337
O O6 0.777204 0.908265 0.494620
O O7 0.529123 0.831242 0.396049
O O8 0.308944 0.716499 0.439674
O O9 0.656268 0.662811 0.510370
#
# Coordination Sequence:
#
# PCOD9455978 Si02
#       6
#     4   4   4   8   8   8
#     4  10  21  37  72 110 137 185 232 298 372 448
#     4  12  28  52  74 101 147 206 268 290 362 438
#     4  12  33  49  72 109 152 205 250 312 354 440
#     4  11  23  45  75 103 140 190 246 300 368 447
#     4  11  27  44  71 110 150 181 248 307 395 438
#     4  11  22  42  72 112 138 183 231 316 380 456
#
# _framework density 21.687722999999998
#
# number of rings (size 3 to 8) (size 9 to 14) (size 15 to 20)
#    0.000    0.889    4.444    0.667    9.333    2.667 
#    0.000    0.000    0.000    0.000    0.000    0.000 
#    0.000    0.000    0.000    0.000    0.000    0.000 
#
# Total GULP energy -200954.338599 kJ/mol
# GULP energy per Si atom -5582.064961 kJ/mol
# Density = 2.163836 g / cm^3
# Si number density = 21.687723 Si / 1000 Ang^3
#
#
#
# Elastic Constant Matrix: (Units=GPa)
#
#
# Indices 1 2 3 4 5 6 
#
# 1 80.9398 37.9598 50.9484 0.0000 0.0000 0.0000
# 2 37.9598 69.0550 52.0844 0.0000 0.0000 0.0000
# 3 50.9484 52.0844 183.8199 0.0000 0.0000 0.0000
# 4 0.0000 0.0000 0.0000 37.2004 0.0000 0.0000
# 5 0.0000 0.0000 0.0000 0.0000 32.3749 0.0000
# 6 0.0000 0.0000 0.0000 0.0000 0.0000 25.2481
#
#
#
# Elastic Compliance Matrix: (Units=1/GPa)
#
#
# Indices 1 2 3 4 5 6 
#
# 1 0.017659 -0.007651 -0.002727 0.000000 0.000000 0.000000
# 2 -0.007651 0.021732 -0.004037 0.000000 0.000000 0.000000
# 3 -0.002727 -0.004037 0.007340 0.000000 0.000000 0.000000
# 4 0.000000 0.000000 0.000000 0.026881 0.000000 0.000000
# 5 0.000000 0.000000 0.000000 0.000000 0.030888 0.000000
# 6 0.000000 0.000000 0.000000 0.000000 0.000000 0.039607
#
#
# Mechanical properties :
#
#
# Convention : Reuss Voigt Hill
#
# Bulk Modulus (GPa) = 55.86053 68.42222 62.14137
# Shear Modulus (GPa) = 27.94796 31.81947 29.88372
#
# Velocity S-wave (km/s) = 3.59368 3.83451 3.71605
# Velocity P-wave (km/s) = 6.55988 7.15695 6.86491
#
# Compressibility (1/GPa) = 0.01790173
#
# Stress axis : x y z
#
# Youngs Moduli (GPa) = 56.62716 46.01549 136.24457
#
# Poissons Ratio (x) = 0.35206 0.37150
# Poissons Ratio (y) = 0.43324 0.55003
# Poissons Ratio (z) = 0.15441 0.18577
#
# Static dielectric constant tensor:
#      x y z
#    x 1.897220 0.000000 0.000000 
#    y 0.000000 1.796660 0.000000 
#    z 0.000000 0.000000 1.788940 
# 
# From -- ./inp_files/13763.got.cif
#   From: 2010.05.17/outbox.cif.g08.bks.cpg/sg60_7_cif.got.tgz:13763.got - 2010.06.03 14:59:27.
