data_PCOD9455170
_publ_section_title
;
Structure prediction by ZEFSAII (Michael W. Deem and Ramdas Pophale) SiO2 
 PCOD9455170
Probable space group: P B C N
;
_chemical_formula_sum "Si O2"
_cell_formula_units_Z 48
_cell_length_a 8.995070
_cell_length_b 25.231571
_cell_length_c 10.320057
_cell_angle_alpha 90.000000
_cell_angle_beta 90.000000
_cell_angle_gamma 90.000000
_cell_volume 2342.237529
_symmetry_space_group_name_H-M "P B C N"
_symmetry_group_IT_number 60
_symmetry_cell_setting 'orthorhombic'
loop_
_space_group_symop_operation_xyz
x,y,z
1/2-x,1/2-y,1/2+z
1/2+x,1/2-y,-z
-x,y,1/2-z
-x,-y,-z
1/2+x,1/2+y,1/2-z
1/2-x,1/2+y,z
x,-y,1/2+z
loop_
_atom_site_type_symbol
_atom_site_label
_atom_site_fract_x
_atom_site_fract_y
_atom_site_fract_z
Si Si1 0.927103 0.090611 0.533696
Si Si2 0.746052 0.104219 0.925706
Si Si3 0.330673 0.703036 0.897558
Si Si4 0.000000 0.557836 0.750000
Si Si5 0.744193 0.990950 0.617266
Si Si6 0.000000 0.065126 0.250000
Si Si7 0.816040 0.779236 0.400523
O O1 0.829488 0.139560 0.582972
O O2 0.843053 0.035126 0.544809
O O3 0.975397 0.097430 0.382859
O O4 0.082907 0.090902 0.611971
O O5 0.623110 0.093250 0.819076
O O6 0.751143 0.166018 0.959396
O O7 0.711300 0.061598 0.036151
O O8 0.505233 0.717971 0.907658
O O9 0.278294 0.719706 0.753307
O O10 0.244041 0.731553 0.013189
O O11 0.094090 0.519293 0.841977
O O12 0.853391 0.970737 0.730823
#
# Coordination Sequence:
#
# PCOD9455170 Si02
#       7
#     8   8   8   4   8   4   8
#     4  10  21  39  62  88 118 160 210 253 295 359
#     4  10  22  38  58  85 119 155 198 244 297 358
#     4  10  23  41  64  90 122 156 202 254 304 362
#     4  12  22  34  55  86 123 160 192 242 312 368
#     4  11  21  36  57  88 123 159 201 248 300 363
#     4  10  20  36  61  88 115 160 208 254 300 354
#     4  10  23  43  63  90 120 158 203 253 305 361
#
# _framework density 20.493224999999999
#
# number of rings (size 3 to 8) (size 9 to 14) (size 15 to 20)
#    0.000    1.667    0.000    5.500    0.000   10.000 
#    0.000    1.667    0.000    0.000    0.000    0.000 
#    0.000    0.000    0.000    0.000    0.000    0.000 
#
# Total GULP energy -268063.979034 kJ/mol
# GULP energy per Si atom -5584.666230 kJ/mol
# Density = 2.044658 g / cm^3
# Si number density = 20.493225 Si / 1000 Ang^3
#
#
#
# Elastic Constant Matrix: (Units=GPa)
#
#
# Indices 1 2 3 4 5 6 
#
# 1 67.6557 36.9140 42.6827 0.0000 0.0000 0.0000
# 2 36.9140 64.5263 15.5992 0.0000 0.0000 0.0000
# 3 42.6827 15.5992 70.0865 0.0000 0.0000 0.0000
# 4 0.0000 0.0000 0.0000 14.8822 0.0000 0.0000
# 5 0.0000 0.0000 0.0000 0.0000 31.4326 0.0000
# 6 0.0000 0.0000 0.0000 0.0000 0.0000 37.2265
#
#
#
# Elastic Compliance Matrix: (Units=1/GPa)
#
#
# Indices 1 2 3 4 5 6 
#
# 1 0.034068 -0.015297 -0.017343 0.000000 0.000000 0.000000
# 2 -0.015297 0.023247 0.004142 0.000000 0.000000 0.000000
# 3 -0.017343 0.004142 0.023908 0.000000 0.000000 0.000000
# 4 0.000000 0.000000 0.000000 0.067194 0.000000 0.000000
# 5 0.000000 0.000000 0.000000 0.000000 0.031814 0.000000
# 6 0.000000 0.000000 0.000000 0.000000 0.000000 0.026863
#
#
# Mechanical properties :
#
#
# Convention : Reuss Voigt Hill
#
# Bulk Modulus (GPa) = 41.27580 43.62893 42.45237
# Shear Modulus (GPa) = 18.37103 23.84641 21.10872
#
# Velocity S-wave (km/s) = 2.99732 3.41489 3.21290
# Velocity P-wave (km/s) = 5.67128 6.07325 5.87570
#
# Compressibility (1/GPa) = 0.02422727
#
# Stress axis : x y z
#
# Youngs Moduli (GPa) = 29.35265 43.01553 41.82671
#
# Poissons Ratio (x) = 0.65801 0.72540
# Poissons Ratio (y) = 0.44901 -0.17324
# Poissons Ratio (z) = 0.50906 -0.17816
#
# Static dielectric constant tensor:
#      x y z
#    x 1.717870 0.000000 0.000000 
#    y 0.000000 1.708360 0.000000 
#    z 0.000000 0.000000 1.780020 
# 
# From -- ./inp_files/10151.got.cif
#   From: 2010.05.17/outbox.cif.g08.bks.cpg/sg60_6_cif.got.tgz:10151.got - 2010.06.03 14:59:27.
