data_PCOD9455613
_publ_section_title
;
Structure prediction by ZEFSAII (Michael W. Deem and Ramdas Pophale) SiO2 
 PCOD9455613
Probable space group: P B C N
;
_chemical_formula_sum "Si O2"
_cell_formula_units_Z 52
_cell_length_a 7.841212
_cell_length_b 19.021120
_cell_length_c 17.271846
_cell_angle_alpha 90.000000
_cell_angle_beta 90.000000
_cell_angle_gamma 90.000000
_cell_volume 2576.072244
_symmetry_space_group_name_H-M "P B C N"
_symmetry_group_IT_number 60
_symmetry_cell_setting 'orthorhombic'
loop_
_space_group_symop_operation_xyz
x,y,z
1/2-x,1/2-y,1/2+z
1/2+x,1/2-y,-z
-x,y,1/2-z
-x,-y,-z
1/2+x,1/2+y,1/2-z
1/2-x,1/2+y,z
x,-y,1/2+z
loop_
_atom_site_type_symbol
_atom_site_label
_atom_site_fract_x
_atom_site_fract_y
_atom_site_fract_z
Si Si1 0.500000 0.565800 0.750000
Si Si2 0.243395 0.652123 0.997614
Si Si3 0.225213 0.458911 0.363913
Si Si4 0.416659 0.892612 0.902248
Si Si5 0.878027 0.197465 0.017994
Si Si6 0.000000 0.313107 0.750000
Si Si7 0.696545 0.691182 0.835542
Si Si8 0.000000 0.364243 0.250000
O O1 0.614104 0.521631 0.690453
O O2 0.607304 0.620448 0.802733
O O3 0.166250 0.722630 0.958204
O O4 0.096745 0.624589 0.055889
O O5 0.277027 0.592473 0.933749
O O6 0.426642 0.674722 0.033131
O O7 0.124739 0.525240 0.396861
O O8 0.110033 0.413780 0.305654
O O9 0.420820 0.861186 0.816180
O O10 0.262439 0.853909 0.946252
O O11 0.846973 0.197104 0.925360
O O12 0.872929 0.259802 0.792740
O O13 0.889146 0.681967 0.808512
#
# Coordination Sequence:
#
# PCOD9455613 Si02
#       8
#     4   8   8   8   8   4   8   4
#     4   9  20  42  68  88 133 182 222 278 345 406
#     4  12  24  43  72 100 142 181 234 284 346 415
#     4  11  24  46  65 102 140 185 231 287 351 421
#     4  12  27  45  70 100 145 180 233 291 354 418
#     4  12  24  44  71 106 135 186 233 291 341 415
#     4  11  23  46  66  98 144 174 222 306 348 394
#     4  10  20  40  68  98 131 179 231 283 340 409
#     4  10  23  36  74  96 135 186 234 278 351 420
#
# _framework density 20.185770999999999
#
# number of rings (size 3 to 8) (size 9 to 14) (size 15 to 20)
#    0.000    0.923    4.615    1.846    4.308    0.615 
#    8.308    0.000    0.000    0.000    0.000    0.000 
#    0.000    0.000    0.000    0.000    0.000    0.000 
#
# Total GULP energy -290535.600008 kJ/mol
# GULP energy per Si atom -5587.223077 kJ/mol
# Density = 2.013983 g / cm^3
# Si number density = 20.185771 Si / 1000 Ang^3
#
#
#
# Elastic Constant Matrix: (Units=GPa)
#
#
# Indices 1 2 3 4 5 6 
#
# 1 131.3747 37.2354 41.2392 0.0000 0.0000 0.0000
# 2 37.2354 84.8829 25.1872 0.0000 0.0000 0.0000
# 3 41.2392 25.1872 82.0811 0.0000 0.0000 0.0000
# 4 0.0000 0.0000 0.0000 145.6687 0.0000 0.0000
# 5 0.0000 0.0000 0.0000 0.0000 19.2821 0.0000
# 6 0.0000 0.0000 0.0000 0.0000 0.0000 43.5111
#
#
#
# Elastic Compliance Matrix: (Units=1/GPa)
#
#
# Indices 1 2 3 4 5 6 
#
# 1 0.009725 -0.003098 -0.003935 0.000000 0.000000 0.000000
# 2 -0.003098 0.013948 -0.002723 0.000000 0.000000 0.000000
# 3 -0.003935 -0.002723 0.014996 0.000000 0.000000 0.000000
# 4 0.000000 0.000000 0.000000 0.006865 0.000000 0.000000
# 5 0.000000 0.000000 0.000000 0.000000 0.051861 0.000000
# 6 0.000000 0.000000 0.000000 0.000000 0.000000 0.022983
#
#
# Mechanical properties :
#
#
# Convention : Reuss Voigt Hill
#
# Bulk Modulus (GPa) = 52.20558 56.18471 54.19515
# Shear Modulus (GPa) = 34.18145 54.67086 44.42616
#
# Velocity S-wave (km/s) = 4.11949 5.20986 4.69643
# Velocity P-wave (km/s) = 6.96747 8.00528 7.50434
#
# Compressibility (1/GPa) = 0.01915504
#
# Stress axis : x y z
#
# Youngs Moduli (GPa) = 102.82405 71.69367 66.68442
#
# Poissons Ratio (x) = 0.22214 0.26243
# Poissons Ratio (y) = 0.31859 0.18161
# Poissons Ratio (z) = 0.40466 0.19525
#
# Static dielectric constant tensor:
#      x y z
#    x 1.886090 0.000000 0.000000 
#    y 0.000000 1.680970 0.000000 
#    z 0.000000 0.000000 1.765290 
# 
# From -- ./inp_files/19558.got.cif
#   From: 2010.05.17/outbox.cif.g08.bks.cpg/sg60_10_cif.got.tgz:19558.got - 2010.06.03 14:59:27.
