data_PCOD9455985
_publ_section_title
;
Structure prediction by ZEFSAII (Michael W. Deem and Ramdas Pophale) SiO2 
 PCOD9455985
Probable space group: P B C N
;
_chemical_formula_sum "Si O2"
_cell_formula_units_Z 64
_cell_length_a 7.047943
_cell_length_b 21.777833
_cell_length_c 17.433812
_cell_angle_alpha 90.000000
_cell_angle_beta 90.000000
_cell_angle_gamma 90.000000
_cell_volume 2675.897074
_symmetry_space_group_name_H-M "P B C N"
_symmetry_group_IT_number 60
_symmetry_cell_setting 'orthorhombic'
loop_
_space_group_symop_operation_xyz
x,y,z
1/2-x,1/2-y,1/2+z
1/2+x,1/2-y,-z
-x,y,1/2-z
-x,-y,-z
1/2+x,1/2+y,1/2-z
1/2-x,1/2+y,z
x,-y,1/2+z
loop_
_atom_site_type_symbol
_atom_site_label
_atom_site_fract_x
_atom_site_fract_y
_atom_site_fract_z
Si Si1 0.258372 0.552257 0.489924
Si Si2 0.845675 0.921548 0.337806
Si Si3 0.812463 0.335508 0.895764
Si Si4 0.708906 0.558933 0.278618
Si Si5 0.729597 0.132431 0.691950
Si Si6 0.332144 0.083821 0.971069
Si Si7 0.719121 0.128448 0.144418
Si Si8 0.269856 0.235559 0.247311
O O1 0.317062 0.577045 0.572046
O O2 0.289601 0.479423 0.476368
O O3 0.336023 0.595299 0.422042
O O4 0.030354 0.563943 0.489229
O O5 0.700256 0.889141 0.279684
O O6 0.051479 0.890272 0.324390
O O7 0.816028 0.991213 0.310518
O O8 0.767222 0.395332 0.844987
O O9 0.733512 0.279067 0.843658
O O10 0.042199 0.334628 0.892051
O O11 0.757483 0.356778 0.981417
O O12 0.500000 0.574079 0.250000
O O13 0.833095 0.571745 0.201948
O O14 0.633962 0.103446 0.616817
O O15 0.707621 0.204710 0.705854
O O16 0.801808 0.178384 0.202489
O O17 0.500000 0.235844 0.250000
#
# Coordination Sequence:
#
# PCOD9455985 Si02
#       8
#     8   8   8   8   8   8   8   8
#     4  10  21  38  56  88 121 144 193 242 295 351
#     4  11  22  36  55  86 120 154 186 234 299 353
#     4   9  19  38  63  84 106 156 194 241 284 342
#     4  11  19  33  55  88 117 142 188 239 294 343
#     4  11  22  38  57  84 116 161 194 234 292 353
#     4  10  21  38  60  87 117 150 193 245 294 348
#     4   9  20  37  62  84 108 157 196 240 283 340
#     4   9  17  38  63  78 108 153 211 229 268 363
#
# _framework density 23.917213
#
# number of rings (size 3 to 8) (size 9 to 14) (size 15 to 20)
#    0.000    2.000    3.750    1.875    0.000    2.000 
#    4.500    0.000   11.000    0.000    0.000    0.000 
#    0.000    0.000    0.000    0.000    0.000    0.000 
#
# Total GULP energy -356680.063532 kJ/mol
# GULP energy per Si atom -5573.125993 kJ/mol
# Density = 2.386278 g / cm^3
# Si number density = 23.917213 Si / 1000 Ang^3
#
#
#
# Elastic Constant Matrix: (Units=GPa)
#
#
# Indices 1 2 3 4 5 6 
#
# 1 29.5168 -18.2751 0.6747 0.0000 0.0000 0.0000
# 2 -18.2751 94.9684 42.6730 0.0000 0.0000 0.0000
# 3 0.6747 42.6730 177.5554 0.0000 0.0000 0.0000
# 4 0.0000 0.0000 0.0000 26.8695 0.0000 0.0000
# 5 0.0000 0.0000 0.0000 0.0000 27.3575 0.0000
# 6 0.0000 0.0000 0.0000 0.0000 0.0000 12.9404
#
#
#
# Elastic Compliance Matrix: (Units=1/GPa)
#
#
# Indices 1 2 3 4 5 6 
#
# 1 0.039213 0.008535 -0.002200 0.000000 0.000000 0.000000
# 2 0.008535 0.013662 -0.003316 0.000000 0.000000 0.000000
# 3 -0.002200 -0.003316 0.006437 0.000000 0.000000 0.000000
# 4 0.000000 0.000000 0.000000 0.037217 0.000000 0.000000
# 5 0.000000 0.000000 0.000000 0.000000 0.036553 0.000000
# 6 0.000000 0.000000 0.000000 0.000000 0.000000 0.077277
#
#
# Mechanical properties :
#
#
# Convention : Reuss Voigt Hill
#
# Bulk Modulus (GPa) = 15.30223 39.13177 27.21700
# Shear Modulus (GPa) = 22.11348 31.89802 27.00575
#
# Velocity S-wave (km/s) = 3.04400 3.65593 3.36390
# Velocity P-wave (km/s) = 4.33203 5.84961 5.14706
#
# Compressibility (1/GPa) = 0.06534994
#
# Stress axis : x y z
#
# Youngs Moduli (GPa) = 25.50143 73.19498 155.34352
#
# Poissons Ratio (x) = -0.62469 0.34178
# Poissons Ratio (y) = -0.21764 0.51511
# Poissons Ratio (z) = 0.05611 0.24271
#
# Static dielectric constant tensor:
#      x y z
#    x 2.077000 0.000000 0.000000 
#    y 0.000000 1.939870 0.000000 
#    z 0.000000 0.000000 1.932620 
# 
# From -- ./inp_files/19716.got.cif
#   From: 2010.05.17/outbox.cif.g08.bks.cpg/sg60_10_cif.got.tgz:19716.got - 2010.06.03 14:59:27.
