data_PCOD9455348
_publ_section_title
;
Structure prediction by ZEFSAII (Michael W. Deem and Ramdas Pophale) SiO2 
 PCOD9455348
Probable space group: P B C N
;
_chemical_formula_sum "Si O2"
_cell_formula_units_Z 36
_cell_length_a 12.122263
_cell_length_b 11.108438
_cell_length_c 12.872808
_cell_angle_alpha 90.000000
_cell_angle_beta 90.000000
_cell_angle_gamma 90.000000
_cell_volume 1733.444691
_symmetry_space_group_name_H-M "P B C N"
_symmetry_group_IT_number 60
_symmetry_cell_setting 'orthorhombic'
loop_
_space_group_symop_operation_xyz
x,y,z
1/2-x,1/2-y,1/2+z
1/2+x,1/2-y,-z
-x,y,1/2-z
-x,-y,-z
1/2+x,1/2+y,1/2-z
1/2-x,1/2+y,z
x,-y,1/2+z
loop_
_atom_site_type_symbol
_atom_site_label
_atom_site_fract_x
_atom_site_fract_y
_atom_site_fract_z
Si Si1 0.980473 0.094764 0.629373
Si Si2 0.437344 0.090006 0.578624
Si Si3 0.423853 0.327514 0.923046
Si Si4 0.000000 0.575079 0.250000
Si Si5 0.176246 0.706425 0.399924
O O1 0.863385 0.154911 0.596205
O O2 0.000000 0.119176 0.750000
O O3 0.066694 0.156749 0.549305
O O4 0.978131 0.951588 0.614751
O O5 0.510767 0.206599 0.603232
O O6 0.337871 0.143364 0.512048
O O7 0.500000 0.000000 0.500000
O O8 0.422447 0.010409 0.679951
O O9 0.302930 0.313149 0.874791
O O10 0.915154 0.648252 0.177031
#
# Coordination Sequence:
#
# PCOD9455348 Si02
#       5
#     8   8   8   4   8
#     4  10  22  43  62  91 131 165 215 267 318 392
#     4   9  21  39  59  87 126 156 208 265 308 384
#     4  10  23  40  63  92 127 165 210 271 320 373
#     4  10  20  38  60  88 122 166 210 256 306 386
#     4  10  21  40  62  89 126 167 208 263 323 374
#
# _framework density 20.767897000000001
#
# number of rings (size 3 to 8) (size 9 to 14) (size 15 to 20)
#    0.000    2.222    1.111    0.000    7.778    1.778 
#    0.000    0.000    0.000    0.000    0.000    0.000 
#    0.000    0.000    0.000    0.000    0.000    0.000 
#
# Total GULP energy -200601.019215 kJ/mol
# GULP energy per Si atom -5572.250534 kJ/mol
# Density = 2.072063 g / cm^3
# Si number density = 20.767897 Si / 1000 Ang^3
#
#
#
# Elastic Constant Matrix: (Units=GPa)
#
#
# Indices 1 2 3 4 5 6 
#
# 1 65.4068 12.5215 -2.0051 0.0000 0.0000 0.0000
# 2 12.5215 116.5939 8.8170 0.0000 0.0000 0.0000
# 3 -2.0051 8.8170 82.8606 0.0000 0.0000 0.0000
# 4 0.0000 0.0000 0.0000 14.0546 0.0000 0.0000
# 5 0.0000 0.0000 0.0000 0.0000 10.9598 0.0000
# 6 0.0000 0.0000 0.0000 0.0000 0.0000 8.5536
#
#
#
# Elastic Compliance Matrix: (Units=1/GPa)
#
#
# Indices 1 2 3 4 5 6 
#
# 1 0.015636 -0.001722 0.000562 0.000000 0.000000 0.000000
# 2 -0.001722 0.008836 -0.000982 0.000000 0.000000 0.000000
# 3 0.000562 -0.000982 0.012187 0.000000 0.000000 0.000000
# 4 0.000000 0.000000 0.000000 0.071151 0.000000 0.000000
# 5 0.000000 0.000000 0.000000 0.000000 0.091243 0.000000
# 6 0.000000 0.000000 0.000000 0.000000 0.000000 0.116910
#
#
# Mechanical properties :
#
#
# Convention : Reuss Voigt Hill
#
# Bulk Modulus (GPa) = 30.88875 33.72536 32.30705
# Shear Modulus (GPa) = 15.10405 23.08213 19.09309
#
# Velocity S-wave (km/s) = 2.69974 3.33743 3.03538
# Velocity P-wave (km/s) = 4.96223 5.57904 5.27965
#
# Compressibility (1/GPa) = 0.03237425
#
# Stress axis : x y z
#
# Youngs Moduli (GPa) = 63.95607 113.17436 82.05778
#
# Poissons Ratio (x) = 0.19485 -0.04608
# Poissons Ratio (y) = 0.11011 0.08057
# Poissons Ratio (z) = -0.03591 0.11112
#
# Static dielectric constant tensor:
#      x y z
#    x 1.645920 0.000000 0.000000 
#    y 0.000000 1.754450 0.000000 
#    z 0.000000 0.000000 1.812570 
# 
# From -- ./inp_files/10643.got.cif
#   From: 2010.05.17/outbox.cif.g08.bks.cpg/sg60_6_cif.got.tgz:10643.got - 2010.06.03 14:59:27.
