data_PCOD9455580
_publ_section_title
;
Structure prediction by ZEFSAII (Michael W. Deem and Ramdas Pophale) SiO2 
 PCOD9455580
Probable space group: P B C N
;
_chemical_formula_sum "Si O2"
_cell_formula_units_Z 40
_cell_length_a 11.020660
_cell_length_b 17.531501
_cell_length_c 9.277823
_cell_angle_alpha 90.000000
_cell_angle_beta 90.000000
_cell_angle_gamma 90.000000
_cell_volume 1792.556230
_symmetry_space_group_name_H-M "P B C N"
_symmetry_group_IT_number 60
_symmetry_cell_setting 'orthorhombic'
loop_
_space_group_symop_operation_xyz
x,y,z
1/2-x,1/2-y,1/2+z
1/2+x,1/2-y,-z
-x,y,1/2-z
-x,-y,-z
1/2+x,1/2+y,1/2-z
1/2-x,1/2+y,z
x,-y,1/2+z
loop_
_atom_site_type_symbol
_atom_site_label
_atom_site_fract_x
_atom_site_fract_y
_atom_site_fract_z
Si Si1 0.606402 0.543115 0.364484
Si Si2 0.008987 0.417736 0.924513
Si Si3 0.721927 0.803666 0.550913
Si Si4 0.555019 0.620842 0.900743
Si Si5 0.281490 0.827637 0.630179
O O1 0.500000 0.552405 0.250000
O O2 0.553664 0.579680 0.510952
O O3 0.636676 0.454366 0.369243
O O4 0.717820 0.594373 0.321378
O O5 0.899691 0.357337 0.953364
O O6 0.000000 0.427111 0.750000
O O7 0.130490 0.373717 0.972780
O O8 0.000000 0.500000 0.000000
O O9 0.858745 0.825344 0.496866
O O10 0.696495 0.726746 0.463482
O O11 0.702179 0.785107 0.718696
O O12 0.500000 0.650688 0.750000
#
# Coordination Sequence:
#
# PCOD9455580 Si02
#       5
#     8   8   8   8   8
#     4  10  20  40  64  92 124 163 211 273 326 385
#     4  10  24  46  68  95 133 176 225 277 335 407
#     4  11  25  42  64  95 132 175 219 273 332 400
#     4  10  22  38  67  94 123 162 213 269 331 390
#     4  11  25  41  64  93 134 174 220 274 329 399
#
# _framework density 22.314502000000001
#
# number of rings (size 3 to 8) (size 9 to 14) (size 15 to 20)
#    0.000    1.600    2.000    1.200    5.600    2.400 
#    0.000    0.000    0.000    0.000    0.000    0.000 
#    0.000    0.000    0.000    0.000    0.000    0.000 
#
# Total GULP energy -223153.148777 kJ/mol
# GULP energy per Si atom -5578.828719 kJ/mol
# Density = 2.226371 g / cm^3
# Si number density = 22.314502 Si / 1000 Ang^3
#
#
#
# Elastic Constant Matrix: (Units=GPa)
#
#
# Indices 1 2 3 4 5 6 
#
# 1 72.0806 28.6510 17.1005 0.0000 0.0000 0.0000
# 2 28.6510 111.5269 36.4278 0.0000 0.0000 0.0000
# 3 17.1005 36.4278 74.8347 0.0000 0.0000 0.0000
# 4 0.0000 0.0000 0.0000 35.0485 0.0000 0.0000
# 5 0.0000 0.0000 0.0000 0.0000 25.5627 0.0000
# 6 0.0000 0.0000 0.0000 0.0000 0.0000 31.5646
#
#
#
# Elastic Compliance Matrix: (Units=1/GPa)
#
#
# Indices 1 2 3 4 5 6 
#
# 1 0.015682 -0.003399 -0.001929 0.000000 0.000000 0.000000
# 2 -0.003399 0.011398 -0.004772 0.000000 0.000000 0.000000
# 3 -0.001929 -0.004772 0.016126 0.000000 0.000000 0.000000
# 4 0.000000 0.000000 0.000000 0.028532 0.000000 0.000000
# 5 0.000000 0.000000 0.000000 0.000000 0.039119 0.000000
# 6 0.000000 0.000000 0.000000 0.000000 0.000000 0.031681
#
#
# Mechanical properties :
#
#
# Convention : Reuss Voigt Hill
#
# Bulk Modulus (GPa) = 43.46397 46.97787 45.22092
# Shear Modulus (GPa) = 29.34156 30.18604 29.76380
#
# Velocity S-wave (km/s) = 3.63010 3.68197 3.65613
# Velocity P-wave (km/s) = 6.09019 6.25893 6.17513
#
# Compressibility (1/GPa) = 0.02300756
#
# Stress axis : x y z
#
# Youngs Moduli (GPa) = 63.76782 87.73390 62.01022
#
# Poissons Ratio (x) = 0.29817 0.11963
# Poissons Ratio (y) = 0.21672 0.29590
# Poissons Ratio (z) = 0.12302 0.41864
#
# Static dielectric constant tensor:
#      x y z
#    x 1.902380 0.000000 0.000000 
#    y 0.000000 1.853340 0.000000 
#    z 0.000000 0.000000 1.886670 
# 
# From -- ./inp_files/4718.got.cif
#   From: 2010.05.17/outbox.cif.g08.bks.cpg/sg60_3_cif.got.tgz:4718.got - 2010.06.03 14:59:27.
