data_PCOD9455998
_publ_section_title
;
Structure prediction by ZEFSAII (Michael W. Deem and Ramdas Pophale) SiO2 
 PCOD9455998
Probable space group: P B C N
;
_chemical_formula_sum "Si O2"
_cell_formula_units_Z 64
_cell_length_a 16.001332
_cell_length_b 12.801223
_cell_length_c 15.156651
_cell_angle_alpha 90.000000
_cell_angle_beta 90.000000
_cell_angle_gamma 90.000000
_cell_volume 3104.637150
_symmetry_space_group_name_H-M "P B C N"
_symmetry_group_IT_number 60
_symmetry_cell_setting 'orthorhombic'
loop_
_space_group_symop_operation_xyz
x,y,z
1/2-x,1/2-y,1/2+z
1/2+x,1/2-y,-z
-x,y,1/2-z
-x,-y,-z
1/2+x,1/2+y,1/2-z
1/2-x,1/2+y,z
x,-y,1/2+z
loop_
_atom_site_type_symbol
_atom_site_label
_atom_site_fract_x
_atom_site_fract_y
_atom_site_fract_z
Si Si1 0.502363 0.878825 0.020571
Si Si2 0.674496 0.331944 0.153389
Si Si3 0.902601 0.615965 0.216942
Si Si4 0.807845 0.109491 0.455890
Si Si5 0.862130 0.679217 0.403165
Si Si6 0.321187 0.591934 0.654256
Si Si7 0.129402 0.623635 0.826112
Si Si8 0.356726 0.180635 0.637755
O O1 0.566637 0.845183 0.096833
O O2 0.412448 0.851444 0.055714
O O3 0.542929 0.831570 0.934177
O O4 0.500000 0.000000 0.000000
O O5 0.630048 0.218367 0.163710
O O6 0.657054 0.376629 0.055258
O O7 0.650598 0.398092 0.242713
O O8 0.776434 0.332174 0.160373
O O9 0.851986 0.628099 0.307941
O O10 0.878106 0.503611 0.176448
O O11 0.000000 0.616197 0.250000
O O12 0.706380 0.120068 0.462889
O O13 0.827321 0.204721 0.389203
O O14 0.840493 0.007807 0.405058
O O15 0.848821 0.802076 0.393762
O O16 0.221123 0.603871 0.650939
O O17 0.099282 0.668684 0.731905
#
# Coordination Sequence:
#
# PCOD9455998 Si02
#       8
#     8   8   8   8   8   8   8   8
#     4  12  22  35  60  94 127 157 207 270 338 394
#     4  10  23  39  65  93 125 174 221 269 328 415
#     4  11  23  41  67  94 133 171 218 279 340 397
#     4  11  21  41  63  92 123 167 221 267 329 398
#     4  10  21  38  58  88 125 158 208 271 320 396
#     4   9  21  42  59  85 122 164 213 266 322 394
#     4  11  22  40  60  96 130 171 215 269 340 405
#     4  10  23  36  61  87 125 161 208 269 326 390
#
# _framework density 20.614325000000001
#
# number of rings (size 3 to 8) (size 9 to 14) (size 15 to 20)
#    0.000    1.500    1.250    5.625    3.500    1.000 
#    2.250    0.625    0.000    0.000    0.000    0.000 
#    0.000    0.000    0.000    0.000    0.000    0.000 
#
# Total GULP energy -356667.199315 kJ/mol
# GULP energy per Si atom -5572.924989 kJ/mol
# Density = 2.056741 g / cm^3
# Si number density = 20.614325 Si / 1000 Ang^3
#
#
#
# Elastic Constant Matrix: (Units=GPa)
#
#
# Indices 1 2 3 4 5 6 
#
# 1 49.6398 18.1541 -2.3251 0.0000 0.0000 0.0000
# 2 18.1541 93.4555 27.1350 0.0000 0.0000 0.0000
# 3 -2.3251 27.1350 106.0424 0.0000 0.0000 0.0000
# 4 0.0000 0.0000 0.0000 26.7407 0.0000 0.0000
# 5 0.0000 0.0000 0.0000 0.0000 30.5758 0.0000
# 6 0.0000 0.0000 0.0000 0.0000 0.0000 19.4282
#
#
#
# Elastic Compliance Matrix: (Units=1/GPa)
#
#
# Indices 1 2 3 4 5 6 
#
# 1 0.021966 -0.004760 0.001700 0.000000 0.000000 0.000000
# 2 -0.004760 0.012591 -0.003326 0.000000 0.000000 0.000000
# 3 0.001700 -0.003326 0.010319 0.000000 0.000000 0.000000
# 4 0.000000 0.000000 0.000000 0.037396 0.000000 0.000000
# 5 0.000000 0.000000 0.000000 0.000000 0.032706 0.000000
# 6 0.000000 0.000000 0.000000 0.000000 0.000000 0.051472
#
#
# Mechanical properties :
#
#
# Convention : Reuss Voigt Hill
#
# Bulk Modulus (GPa) = 31.15138 37.22952 34.19045
# Shear Modulus (GPa) = 26.32649 29.09385 27.71017
#
# Velocity S-wave (km/s) = 3.57753 3.76086 3.67034
# Velocity P-wave (km/s) = 5.67532 6.07931 5.88078
#
# Compressibility (1/GPa) = 0.03210130
#
# Stress axis : x y z
#
# Youngs Moduli (GPa) = 45.52550 79.42311 96.91232
#
# Poissons Ratio (x) = 0.37809 -0.16473
# Poissons Ratio (y) = 0.21672 0.32235
# Poissons Ratio (z) = -0.07738 0.26418
#
# Static dielectric constant tensor:
#      x y z
#    x 1.895920 0.000000 0.000000 
#    y 0.000000 1.851210 0.000000 
#    z 0.000000 0.000000 1.805840 
# 
# From -- ./inp_files/17485.got.cif
#   From: 2010.05.17/outbox.cif.g08.bks.cpg/sg60_9_cif.got.tgz:17485.got - 2010.06.03 14:59:27.
