data_PCOD9455617
_publ_section_title
;
Structure prediction by ZEFSAII (Michael W. Deem and Ramdas Pophale) SiO2 
 PCOD9455617
Probable space group: P B C N
;
_chemical_formula_sum "Si O2"
_cell_formula_units_Z 28
_cell_length_a 8.103780
_cell_length_b 34.082606
_cell_length_c 4.921007
_cell_angle_alpha 90.000000
_cell_angle_beta 90.000000
_cell_angle_gamma 90.000000
_cell_volume 1359.172000
_symmetry_space_group_name_H-M "P B C N"
_symmetry_group_IT_number 60
_symmetry_cell_setting 'orthorhombic'
loop_
_space_group_symop_operation_xyz
x,y,z
1/2-x,1/2-y,1/2+z
1/2+x,1/2-y,-z
-x,y,1/2-z
-x,-y,-z
1/2+x,1/2+y,1/2-z
1/2-x,1/2+y,z
x,-y,1/2+z
loop_
_atom_site_type_symbol
_atom_site_label
_atom_site_fract_x
_atom_site_fract_y
_atom_site_fract_z
Si Si1 0.685823 0.228928 0.133581
Si Si2 0.819799 0.353682 0.378105
Si Si3 0.325002 0.393125 0.643215
Si Si4 0.500000 0.470713 0.750000
O O1 0.795997 0.238615 0.397066
O O2 0.500000 0.225571 0.250000
O O3 0.735826 0.189099 0.979339
O O4 0.813878 0.379281 0.649622
O O5 0.000000 0.349012 0.250000
O O6 0.711694 0.376353 0.153291
O O7 0.500000 0.376131 0.750000
O O8 0.353619 0.439645 0.680745
O O9 0.500000 0.500000 0.500000
#
# Coordination Sequence:
#
# PCOD9455617 Si02
#       4
#     8   8   8   4
#     4  12  26  45  66  92 127 177 220 276 335 387
#     4  12  23  43  65  91 134 171 213 271 335 386
#     4  10  23  39  67 100 122 171 221 257 322 380
#     4  10  20  40  70 100 134 166 214 272 326 384
#
# _framework density 20.600777999999998
#
# number of rings (size 3 to 8) (size 9 to 14) (size 15 to 20)
#    0.857    0.000    0.000    9.429    0.000    4.571 
#    0.000    4.286    0.000   17.143    0.000    0.000 
#    0.000    0.000    0.000    0.000    0.000    0.000 
#
# Total GULP energy -156240.809664 kJ/mol
# GULP energy per Si atom -5580.028917 kJ/mol
# Density = 2.055389 g / cm^3
# Si number density = 20.600778 Si / 1000 Ang^3
#
#
#
# Elastic Constant Matrix: (Units=GPa)
#
#
# Indices 1 2 3 4 5 6 
#
# 1 35.5389 29.6721 34.7901 0.0000 0.0000 0.0000
# 2 29.6721 142.0720 80.2122 0.0000 0.0000 0.0000
# 3 34.7901 80.2122 181.1478 0.0000 0.0000 0.0000
# 4 0.0000 0.0000 0.0000 -127.2162 0.0000 0.0000
# 5 0.0000 0.0000 0.0000 0.0000 47.1012 0.0000
# 6 0.0000 0.0000 0.0000 0.0000 0.0000 -40.1707
#
#
#
# Elastic Compliance Matrix: (Units=1/GPa)
#
#
# Indices 1 2 3 4 5 6 
#
# 1 0.037110 -0.004969 -0.004927 0.000000 0.000000 0.000000
# 2 -0.004969 0.010050 -0.003496 0.000000 0.000000 0.000000
# 3 -0.004927 -0.003496 0.008015 0.000000 0.000000 0.000000
# 4 0.000000 0.000000 0.000000 -0.007861 0.000000 0.000000
# 5 0.000000 0.000000 0.000000 0.000000 0.021231 0.000000
# 6 0.000000 0.000000 0.000000 0.000000 0.000000 -0.024894
#
#
# Mechanical properties :
#
#
# Convention : Reuss Voigt Hill
#
# Bulk Modulus (GPa) = 35.22201 72.01192 53.61696
# Shear Modulus (GPa) = 62.57962 -9.78485 26.39739
#
# Velocity S-wave (km/s) = 5.51754 -2.18176 3.58352
# Velocity P-wave (km/s) = 7.59773 5.35584 6.57307
#
# Compressibility (1/GPa) = 0.02839134
#
# Stress axis : x y z
#
# Youngs Moduli (GPa) = 26.94701 99.50044 124.77245
#
# Poissons Ratio (x) = 0.49440 0.61474
# Poissons Ratio (y) = 0.13389 0.43620
# Poissons Ratio (z) = 0.13277 0.34785
#
# Static dielectric constant tensor:
#      x y z
#    x 1.797170 0.000000 0.000000 
#    y 0.000000 1.810960 0.000000 
#    z 0.000000 0.000000 1.564600 
# 
# From -- ./inp_files/334.got.cif
#   From: 2010.05.17/outbox.cif.g08.bks.cpg/sg60_1_cif.got.tgz:334.got - 2010.06.03 14:59:27.
