data_PCOD9455389
_publ_section_title
;
Structure prediction by ZEFSAII (Michael W. Deem and Ramdas Pophale) SiO2 
 PCOD9455389
Probable space group: P B C N
;
_chemical_formula_sum "Si O2"
_cell_formula_units_Z 44
_cell_length_a 5.876548
_cell_length_b 12.097214
_cell_length_c 26.482785
_cell_angle_alpha 90.000000
_cell_angle_beta 90.000000
_cell_angle_gamma 90.000000
_cell_volume 1882.657445
_symmetry_space_group_name_H-M "P B C N"
_symmetry_group_IT_number 60
_symmetry_cell_setting 'orthorhombic'
loop_
_space_group_symop_operation_xyz
x,y,z
1/2-x,1/2-y,1/2+z
1/2+x,1/2-y,-z
-x,y,1/2-z
-x,-y,-z
1/2+x,1/2+y,1/2-z
1/2-x,1/2+y,z
x,-y,1/2+z
loop_
_atom_site_type_symbol
_atom_site_label
_atom_site_fract_x
_atom_site_fract_y
_atom_site_fract_z
Si Si1 0.452456 0.904902 0.434117
Si Si2 0.000000 0.352887 0.250000
Si Si3 0.386554 0.202285 0.300502
Si Si4 0.903049 0.064981 0.118481
Si Si5 0.734809 0.382403 0.343716
Si Si6 0.182397 0.081246 0.025622
O O1 0.607315 0.849309 0.391090
O O2 0.318974 0.849738 0.482192
O O3 0.255725 0.971124 0.405745
O O4 0.623280 0.999736 0.453897
O O5 0.805590 0.279621 0.224187
O O6 0.888355 0.414239 0.296275
O O7 0.500000 0.149093 0.250000
O O8 0.253746 0.131818 0.342670
O O9 0.572365 0.280421 0.328198
O O10 0.036318 0.127774 0.072730
O O11 0.093514 0.992569 0.145760
O O12 0.000000 0.000000 0.000000
#
# Coordination Sequence:
#
# PCOD9455389 Si02
#       6
#     8   4   8   8   8   8
#     4   9  17  34  59  98 119 161 203 266 314 392
#     4  10  22  44  56  86 128 174 204 272 316 392
#     4  10  23  42  57  91 133 173 213 272 322 392
#     4  10  20  38  63 100 118 174 214 264 330 391
#     4  10  21  38  62  91 129 171 213 261 328 386
#     4   8  16  31  59  95 121 153 209 257 319 381
#
# _framework density 23.371217999999999
#
# number of rings (size 3 to 8) (size 9 to 14) (size 15 to 20)
#    0.000    2.545    0.000    1.091    0.000    5.818 
#   21.273    0.000    0.000    0.000  392.364    0.000 
#    0.000    0.000    0.000    0.000    0.000    0.000 
#
# Total GULP energy -245369.139546 kJ/mol
# GULP energy per Si atom -5576.571353 kJ/mol
# Density = 2.331802 g / cm^3
# Si number density = 23.371218 Si / 1000 Ang^3
#
#
#
# Elastic Constant Matrix: (Units=GPa)
#
#
# Indices 1 2 3 4 5 6 
#
# 1 125.1805 35.7795 90.2523 0.0000 0.0000 0.0000
# 2 35.7795 54.0146 69.2776 0.0000 0.0000 0.0000
# 3 90.2523 69.2776 198.5589 0.0000 0.0000 0.0000
# 4 0.0000 0.0000 0.0000 20.3389 0.0000 0.0000
# 5 0.0000 0.0000 0.0000 0.0000 89.0614 0.0000
# 6 0.0000 0.0000 0.0000 0.0000 0.0000 -1.2421
#
#
#
# Elastic Compliance Matrix: (Units=1/GPa)
#
#
# Indices 1 2 3 4 5 6 
#
# 1 0.011970 -0.001721 -0.004841 0.000000 0.000000 0.000000
# 2 -0.001721 0.033756 -0.010995 0.000000 0.000000 0.000000
# 3 -0.004841 -0.010995 0.011073 0.000000 0.000000 0.000000
# 4 0.000000 0.000000 0.000000 0.049167 0.000000 0.000000
# 5 0.000000 0.000000 0.000000 0.000000 0.011228 0.000000
# 6 0.000000 0.000000 0.000000 0.000000 0.000000 -0.805071
#
#
# Mechanical properties :
#
#
# Convention : Reuss Voigt Hill
#
# Bulk Modulus (GPa) = 46.11391 85.37473 65.74432
# Shear Modulus (GPa) = -7.74550 33.79460 13.02455
#
# Velocity S-wave (km/s) = -1.82245 3.80675 2.36326
# Velocity P-wave (km/s) = 3.91733 7.47870 5.96977
#
# Compressibility (1/GPa) = 0.02168543
#
# Stress axis : x y z
#
# Youngs Moduli (GPa) = 83.54070 29.62478 90.31202
#
# Poissons Ratio (x) = 0.05098 0.43716
# Poissons Ratio (y) = 0.14376 0.99300
# Poissons Ratio (z) = 0.40438 0.32573
#
# Static dielectric constant tensor:
#      x y z
#    x 1.757660 0.000000 0.000000 
#    y 0.000000 1.884290 0.000000 
#    z 0.000000 0.000000 2.436730 
# 
# From -- ./inp_files/24826.got.cif
#   From: 2010.05.17/outbox.cif.g08.bks.cpg/sg60_13_cif.got.tgz:24826.got - 2010.06.03 14:59:27.
