data_PCOD9455213
_publ_section_title
;
Structure prediction by ZEFSAII (Michael W. Deem and Ramdas Pophale) SiO2 
 PCOD9455213
Probable space group: P B C N
;
_chemical_formula_sum "Si O2"
_cell_formula_units_Z 48
_cell_length_a 9.219419
_cell_length_b 16.154644
_cell_length_c 16.559186
_cell_angle_alpha 90.000000
_cell_angle_beta 90.000000
_cell_angle_gamma 90.000000
_cell_volume 2466.266077
_symmetry_space_group_name_H-M "P B C N"
_symmetry_group_IT_number 60
_symmetry_cell_setting 'orthorhombic'
loop_
_space_group_symop_operation_xyz
x,y,z
1/2-x,1/2-y,1/2+z
1/2+x,1/2-y,-z
-x,y,1/2-z
-x,-y,-z
1/2+x,1/2+y,1/2-z
1/2-x,1/2+y,z
x,-y,1/2+z
loop_
_atom_site_type_symbol
_atom_site_label
_atom_site_fract_x
_atom_site_fract_y
_atom_site_fract_z
Si Si1 0.342610 0.635431 0.771420
Si Si2 0.208730 0.369845 0.601718
Si Si3 0.101502 0.717280 0.670404
Si Si4 0.927950 0.554580 0.166990
Si Si5 0.644305 0.880436 0.084763
Si Si6 0.157583 0.056366 0.243039
O O1 0.500000 0.671304 0.750000
O O2 0.225922 0.656813 0.703552
O O3 0.269790 0.655785 0.856836
O O4 0.355420 0.536588 0.773891
O O5 0.305404 0.293298 0.633851
O O6 0.199698 0.376457 0.506271
O O7 0.287545 0.443545 0.651098
O O8 0.041842 0.380142 0.631288
O O9 0.000000 0.732052 0.750000
O O10 0.998101 0.674088 0.604453
O O11 0.894783 0.475672 0.110264
O O12 0.779915 0.596222 0.199612
O O13 0.000000 0.519766 0.250000
O O14 0.000000 0.094721 0.250000
#
# Coordination Sequence:
#
# PCOD9455213 Si02
#       6
#     8   8   8   8   8   8
#     4   9  19  37  60  80 108 150 186 212 264 342
#     4  11  21  33  55  85 109 137 185 238 271 307
#     4  10  21  38  56  76 110 152 183 218 274 333
#     4   9  18  35  59  82 106 144 185 218 268 334
#     4  10  20  37  57  80 112 146 180 225 275 323
#     4   9  18  36  57  81 110 143 181 221 269 329
#
# _framework density 19.462620000000001
#
# number of rings (size 3 to 8) (size 9 to 14) (size 15 to 20)
#    0.000    2.333    0.000    4.500    0.000    3.333 
#    0.000   15.833    0.000    0.000    0.000    0.000 
#    0.000    0.000    0.000    0.000    0.000    0.000 
#
# Total GULP energy -267233.904306 kJ/mol
# GULP energy per Si atom -5567.373006 kJ/mol
# Density = 1.941832 g / cm^3
# Si number density = 19.462620 Si / 1000 Ang^3
#
#
#
# Elastic Constant Matrix: (Units=GPa)
#
#
# Indices 1 2 3 4 5 6 
#
# 1 174.3914 24.6819 59.2921 0.0000 0.0000 0.0000
# 2 24.6819 25.6218 4.5843 0.0000 0.0000 0.0000
# 3 59.2921 4.5843 116.9924 0.0000 0.0000 0.0000
# 4 0.0000 0.0000 0.0000 11.0348 0.0000 0.0000
# 5 0.0000 0.0000 0.0000 0.0000 19.9184 0.0000
# 6 0.0000 0.0000 0.0000 0.0000 0.0000 24.4885
#
#
#
# Elastic Compliance Matrix: (Units=1/GPa)
#
#
# Indices 1 2 3 4 5 6 
#
# 1 0.008020 -0.007048 -0.003788 0.000000 0.000000 0.000000
# 2 -0.007048 0.045498 0.001789 0.000000 0.000000 0.000000
# 3 -0.003788 0.001789 0.010397 0.000000 0.000000 0.000000
# 4 0.000000 0.000000 0.000000 0.090622 0.000000 0.000000
# 5 0.000000 0.000000 0.000000 0.000000 0.050205 0.000000
# 6 0.000000 0.000000 0.000000 0.000000 0.000000 0.040836
#
#
# Mechanical properties :
#
#
# Convention : Reuss Voigt Hill
#
# Bulk Modulus (GPa) = 21.82387 54.90246 38.36317
# Shear Modulus (GPa) = 17.92464 26.31817 22.12141
#
# Velocity S-wave (km/s) = 3.03805 3.68127 3.37502
# Velocity P-wave (km/s) = 4.85221 6.80731 5.91115
#
# Compressibility (1/GPa) = 0.04582138
#
# Stress axis : x y z
#
# Youngs Moduli (GPa) = 124.69336 21.97887 96.17834
#
# Poissons Ratio (x) = 0.15490 0.36435
# Poissons Ratio (y) = 0.87880 -0.17206
# Poissons Ratio (z) = 0.47237 -0.03932
#
# Static dielectric constant tensor:
#      x y z
#    x 1.755110 0.000000 0.000000 
#    y 0.000000 1.713530 0.000000 
#    z 0.000000 0.000000 1.656570 
# 
# From -- ./inp_files/15023.got.cif
#   From: 2010.05.17/outbox.cif.g08.bks.cpg/sg60_8_cif.got.tgz:15023.got - 2010.06.03 14:59:27.
