data_PCOD9455114
_publ_section_title
;
Structure prediction by ZEFSAII (Michael W. Deem and Ramdas Pophale) SiO2 
 PCOD9455114
Probable space group: P B C N
;
_chemical_formula_sum "Si O2"
_cell_formula_units_Z 48
_cell_length_a 8.738791
_cell_length_b 21.517479
_cell_length_c 11.064668
_cell_angle_alpha 90.000000
_cell_angle_beta 90.000000
_cell_angle_gamma 90.000000
_cell_volume 2080.564231
_symmetry_space_group_name_H-M "P B C N"
_symmetry_group_IT_number 60
_symmetry_cell_setting 'orthorhombic'
loop_
_space_group_symop_operation_xyz
x,y,z
1/2-x,1/2-y,1/2+z
1/2+x,1/2-y,-z
-x,y,1/2-z
-x,-y,-z
1/2+x,1/2+y,1/2-z
1/2-x,1/2+y,z
x,-y,1/2+z
loop_
_atom_site_type_symbol
_atom_site_label
_atom_site_fract_x
_atom_site_fract_y
_atom_site_fract_z
Si Si1 0.065580 0.727890 0.375562
Si Si2 0.090868 0.732947 0.873866
Si Si3 0.452856 0.436854 0.372546
Si Si4 0.420078 0.576641 0.130067
Si Si5 0.101893 0.583408 0.867313
Si Si6 0.057294 0.411974 0.626839
O O1 0.246553 0.734189 0.373496
O O2 0.000000 0.755620 0.250000
O O3 0.000341 0.750834 0.504329
O O4 0.016264 0.656034 0.372663
O O5 0.123890 0.658373 0.876484
O O6 0.000000 0.745392 0.750000
O O7 0.500000 0.402978 0.250000
O O8 0.545337 0.502096 0.372518
O O9 0.481748 0.402743 0.499137
O O10 0.269912 0.447407 0.363980
O O11 0.500000 0.601629 0.250000
O O12 0.240884 0.590036 0.134630
O O13 0.000000 0.573604 0.750000
O O14 0.021440 0.564234 0.992461
O O15 0.000000 0.443560 0.750000
#
# Coordination Sequence:
#
# PCOD9455114 Si02
#       6
#     8   8   8   8   8   8
#     4  10  20  36  55  82 116 152 193 233 282 335
#     4  10  20  36  58  84 117 152 189 234 282 338
#     4   9  18  34  56  82 108 139 181 227 278 336
#     4   9  18  35  57  80 109 141 182 232 281 335
#     4   9  19  35  55  81 111 144 181 224 278 334
#     4   9  19  36  55  79 111 145 185 230 277 332
#
# _framework density 23.070665000000002
#
# number of rings (size 3 to 8) (size 9 to 14) (size 15 to 20)
#    0.000    2.667    0.000    1.000    0.000    2.000 
#    0.000   16.667    0.000   18.000    0.000    0.000 
#    0.000    0.000    0.000    0.000    0.000    0.000 
#
# Total GULP energy -268052.197663 kJ/mol
# GULP energy per Si atom -5584.420785 kJ/mol
# Density = 2.301816 g / cm^3
# Si number density = 23.070665 Si / 1000 Ang^3
#
#
#
# Elastic Constant Matrix: (Units=GPa)
#
#
# Indices 1 2 3 4 5 6 
#
# 1 137.6676 47.8010 85.5964 0.0000 0.0000 0.0000
# 2 47.8010 108.3395 19.6313 0.0000 0.0000 0.0000
# 3 85.5964 19.6313 278.6995 0.0000 0.0000 0.0000
# 4 0.0000 0.0000 0.0000 -25.7042 0.0000 0.0000
# 5 0.0000 0.0000 0.0000 0.0000 50.3046 0.0000
# 6 0.0000 0.0000 0.0000 0.0000 0.0000 40.6616
#
#
#
# Elastic Compliance Matrix: (Units=1/GPa)
#
#
# Indices 1 2 3 4 5 6 
#
# 1 0.010519 -0.004108 -0.002941 0.000000 0.000000 0.000000
# 2 -0.004108 0.010954 0.000490 0.000000 0.000000 0.000000
# 3 -0.002941 0.000490 0.004457 0.000000 0.000000 0.000000
# 4 0.000000 0.000000 0.000000 -0.038904 0.000000 0.000000
# 5 0.000000 0.000000 0.000000 0.000000 0.019879 0.000000
# 6 0.000000 0.000000 0.000000 0.000000 0.000000 0.024593
#
#
# Mechanical properties :
#
#
# Convention : Reuss Voigt Hill
#
# Bulk Modulus (GPa) = 78.05613 92.30714 85.18164
# Shear Modulus (GPa) = 102.27590 37.83091 70.05341
#
# Velocity S-wave (km/s) = 6.66542 4.05382 5.51640
# Velocity P-wave (km/s) = 9.65112 7.87456 8.80775
#
# Compressibility (1/GPa) = 0.01281129
#
# Stress axis : x y z
#
# Youngs Moduli (GPa) = 95.06465 91.29053 224.36932
#
# Poissons Ratio (x) = 0.37504 0.65995
# Poissons Ratio (y) = 0.39055 -0.10998
# Poissons Ratio (z) = 0.27962 -0.04475
#
# Static dielectric constant tensor:
#      x y z
#    x 1.768020 0.000000 0.000000 
#    y 0.000000 1.875270 0.000000 
#    z 0.000000 0.000000 1.960690 
# 
# From -- ./inp_files/10079.got.cif
#   From: 2010.05.17/outbox.cif.g08.bks.cpg/sg60_6_cif.got.tgz:10079.got - 2010.06.03 14:59:27.
