data_PCOD9455039
_publ_section_title
;
Structure prediction by ZEFSAII (Michael W. Deem and Ramdas Pophale) SiO2 
 PCOD9455039
Probable space group: P B C N
;
_chemical_formula_sum "Si O2"
_cell_formula_units_Z 48
_cell_length_a 8.302559
_cell_length_b 31.457353
_cell_length_c 7.877129
_cell_angle_alpha 90.000000
_cell_angle_beta 90.000000
_cell_angle_gamma 90.000000
_cell_volume 2057.321213
_symmetry_space_group_name_H-M "P B C N"
_symmetry_group_IT_number 60
_symmetry_cell_setting 'orthorhombic'
loop_
_space_group_symop_operation_xyz
x,y,z
1/2-x,1/2-y,1/2+z
1/2+x,1/2-y,-z
-x,y,1/2-z
-x,-y,-z
1/2+x,1/2+y,1/2-z
1/2-x,1/2+y,z
x,-y,1/2+z
loop_
_atom_site_type_symbol
_atom_site_label
_atom_site_fract_x
_atom_site_fract_y
_atom_site_fract_z
Si Si1 0.690054 0.138639 0.274016
Si Si2 0.312717 0.811125 0.279146
Si Si3 0.184581 0.485402 0.512804
Si Si4 0.675865 0.899499 0.158048
Si Si5 0.674373 0.773146 0.841213
Si Si6 0.674391 0.443545 0.666569
O O1 0.500000 0.142330 0.250000
O O2 0.692796 0.119345 0.464925
O O3 0.758281 0.186114 0.250351
O O4 0.768438 0.104670 0.148431
O O5 0.500000 0.818346 0.250000
O O6 0.239544 0.858499 0.252613
O O7 0.249053 0.773358 0.163650
O O8 0.313299 0.790313 0.466936
O O9 0.227425 0.448171 0.376624
O O10 0.207220 0.464634 0.695854
O O11 0.301350 0.525812 0.491619
O O12 0.000000 0.500000 0.500000
O O13 0.500000 0.904221 0.250000
O O14 0.500000 0.768716 0.750000
O O15 0.500000 0.443999 0.750000
#
# Coordination Sequence:
#
# PCOD9455039 Si02
#       6
#     8   8   8   8   8   8
#     4   9  19  35  56  78 104 142 189 229 272 339
#     4  10  20  35  56  80 111 146 184 238 293 341
#     4  11  21  37  60  82 110 153 197 232 280 354
#     4   9  18  33  54  80 107 139 184 234 275 329
#     4  10  20  36  56  81 109 144 191 236 283 347
#     4  11  22  36  54  83 116 144 180 237 294 338
#
# _framework density 23.331309999999998
#
# number of rings (size 3 to 8) (size 9 to 14) (size 15 to 20)
#    0.000    2.000    0.000    5.000    0.000    2.000 
#    0.000    2.500    0.000    0.000    0.000    0.000 
#    0.000    0.000    0.000    0.000    0.000    0.000 
#
# Total GULP energy -267291.182422 kJ/mol
# GULP energy per Si atom -5568.566300 kJ/mol
# Density = 2.327821 g / cm^3
# Si number density = 23.331310 Si / 1000 Ang^3
#
#
#
# Elastic Constant Matrix: (Units=GPa)
#
#
# Indices 1 2 3 4 5 6 
#
# 1 35.1507 -3.1726 -15.2707 0.0000 0.0000 0.0000
# 2 -3.1726 144.6417 23.9172 0.0000 0.0000 0.0000
# 3 -15.2707 23.9172 56.9003 0.0000 0.0000 0.0000
# 4 0.0000 0.0000 0.0000 9.1335 0.0000 0.0000
# 5 0.0000 0.0000 0.0000 0.0000 21.7927 0.0000
# 6 0.0000 0.0000 0.0000 0.0000 0.0000 11.1413
#
#
#
# Elastic Compliance Matrix: (Units=1/GPa)
#
#
# Indices 1 2 3 4 5 6 
#
# 1 0.032285 -0.000779 0.008992 0.000000 0.000000 0.000000
# 2 -0.000779 0.007449 -0.003340 0.000000 0.000000 0.000000
# 3 0.008992 -0.003340 0.021392 0.000000 0.000000 0.000000
# 4 0.000000 0.000000 0.000000 0.109487 0.000000 0.000000
# 5 0.000000 0.000000 0.000000 0.000000 0.045887 0.000000
# 6 0.000000 0.000000 0.000000 0.000000 0.000000 0.089756
#
#
# Mechanical properties :
#
#
# Convention : Reuss Voigt Hill
#
# Bulk Modulus (GPa) = 14.10996 27.51563 20.81279
# Shear Modulus (GPa) = 15.61850 23.82809 19.72330
#
# Velocity S-wave (km/s) = 2.59013 3.19923 2.91066
# Velocity P-wave (km/s) = 3.87373 5.04637 4.49842
#
# Compressibility (1/GPa) = 0.07087191
#
# Stress axis : x y z
#
# Youngs Moduli (GPa) = 30.97409 134.24907 46.74708
#
# Poissons Ratio (x) = 0.10454 -0.42034
# Poissons Ratio (y) = 0.02412 0.15614
# Poissons Ratio (z) = -0.27852 0.44839
#
# Static dielectric constant tensor:
#      x y z
#    x 1.836670 0.000000 0.000000 
#    y 0.000000 1.995880 0.000000 
#    z 0.000000 0.000000 1.991770 
# 
# From -- ./inp_files/4224.got.cif
#   From: 2010.05.17/outbox.cif.g08.bks.cpg/sg60_3_cif.got.tgz:4224.got - 2010.06.03 14:59:27.
