data_PCOD9455933
_publ_section_title
;
Structure prediction by ZEFSAII (Michael W. Deem and Ramdas Pophale) SiO2 
 PCOD9455933
Probable space group: P B C N
;
_chemical_formula_sum "Si O2"
_cell_formula_units_Z 48
_cell_length_a 21.989638
_cell_length_b 9.798653
_cell_length_c 8.445417
_cell_angle_alpha 90.000000
_cell_angle_beta 90.000000
_cell_angle_gamma 90.000000
_cell_volume 1819.724140
_symmetry_space_group_name_H-M "P B C N"
_symmetry_group_IT_number 60
_symmetry_cell_setting 'orthorhombic'
loop_
_space_group_symop_operation_xyz
x,y,z
1/2-x,1/2-y,1/2+z
1/2+x,1/2-y,-z
-x,y,1/2-z
-x,-y,-z
1/2+x,1/2+y,1/2-z
1/2-x,1/2+y,z
x,-y,1/2+z
loop_
_atom_site_type_symbol
_atom_site_label
_atom_site_fract_x
_atom_site_fract_y
_atom_site_fract_z
Si Si1 0.737676 0.297735 0.270245
Si Si2 0.095350 0.050440 0.050147
Si Si3 0.589946 0.299122 0.261321
Si Si4 0.074011 0.700577 0.748927
Si Si5 0.763939 0.046312 0.461836
Si Si6 0.933278 0.544437 0.445234
O O1 0.663820 0.293930 0.264289
O O2 0.758496 0.146143 0.310321
O O3 0.760949 0.368807 0.109917
O O4 0.759417 0.398642 0.411174
O O5 0.068972 0.136693 0.904854
O O6 0.165021 0.025446 0.005759
O O7 0.093996 0.148627 0.203708
O O8 0.069272 0.905592 0.102669
O O9 0.566774 0.148570 0.298180
O O10 0.096182 0.595737 0.613117
O O11 0.000000 0.702665 0.750000
O O12 0.094520 0.633087 0.912982
O O13 0.000000 0.500000 0.500000
#
# Coordination Sequence:
#
# PCOD9455933 Si02
#       6
#     8   8   8   8   8   8
#     4  10  21  37  59  88 122 160 201 246 298 356
#     4  10  21  39  62  89 121 158 201 250 303 360
#     4  10  21  39  62  88 120 158 200 249 302 359
#     4  10  21  38  58  85 114 150 196 245 299 355
#     4  10  21  37  59  88 123 161 202 248 298 357
#     4  10  21  38  59  84 115 151 194 246 300 355
#
# _framework density 26.377625999999999
#
# number of rings (size 3 to 8) (size 9 to 14) (size 15 to 20)
#    0.000    2.000    0.000    3.000    0.000    6.667 
#    0.000   10.000    0.000    0.000    0.000    0.000 
#    0.000    0.000    0.000    0.000    0.000    0.000 
#
# Total GULP energy -268792.295171 kJ/mol
# GULP energy per Si atom -5599.839483 kJ/mol
# Density = 2.631759 g / cm^3
# Si number density = 26.377626 Si / 1000 Ang^3
#
#
#
# Elastic Constant Matrix: (Units=GPa)
#
#
# Indices 1 2 3 4 5 6 
#
# 1 112.8560 4.5383 6.9583 0.0000 0.0000 0.0000
# 2 4.5383 136.4872 -2.9072 0.0000 0.0000 0.0000
# 3 6.9583 -2.9072 75.2078 0.0000 0.0000 0.0000
# 4 0.0000 0.0000 0.0000 45.5611 0.0000 0.0000
# 5 0.0000 0.0000 0.0000 0.0000 17.2744 0.0000
# 6 0.0000 0.0000 0.0000 0.0000 0.0000 23.5470
#
#
#
# Elastic Compliance Matrix: (Units=1/GPa)
#
#
# Indices 1 2 3 4 5 6 
#
# 1 0.008925 -0.000315 -0.000838 0.000000 0.000000 0.000000
# 2 -0.000315 0.007344 0.000313 0.000000 0.000000 0.000000
# 3 -0.000838 0.000313 0.013386 0.000000 0.000000 0.000000
# 4 0.000000 0.000000 0.000000 0.021949 0.000000 0.000000
# 5 0.000000 0.000000 0.000000 0.000000 0.057889 0.000000
# 6 0.000000 0.000000 0.000000 0.000000 0.000000 0.042468
#
#
# Mechanical properties :
#
#
# Convention : Reuss Voigt Hill
#
# Bulk Modulus (GPa) = 35.74495 37.97000 36.85748
# Shear Modulus (GPa) = 30.68133 38.34061 34.51097
#
# Velocity S-wave (km/s) = 3.41421 3.81665 3.62103
# Velocity P-wave (km/s) = 5.39658 5.81794 5.61122
#
# Compressibility (1/GPa) = 0.02797598
#
# Stress axis : x y z
#
# Youngs Moduli (GPa) = 112.04272 136.16888 74.70428
#
# Poissons Ratio (x) = 0.04284 0.06260
# Poissons Ratio (y) = 0.03525 -0.02338
# Poissons Ratio (z) = 0.09388 -0.04262
#
# Static dielectric constant tensor:
#      x y z
#    x 2.014100 0.000000 0.000000 
#    y 0.000000 1.960590 0.000000 
#    z 0.000000 0.000000 2.144830 
# 
# From -- ./inp_files/8386.got.cif
#   From: 2010.05.17/outbox.cif.g08.bks.cpg/sg60_5_cif.got.tgz:8386.got - 2010.06.03 14:59:27.
