data_PCOD9455101
_publ_section_title
;
Structure prediction by ZEFSAII (Michael W. Deem and Ramdas Pophale) SiO2 
 PCOD9455101
Probable space group: P B C N
;
_chemical_formula_sum "Si O2"
_cell_formula_units_Z 48
_cell_length_a 24.533001
_cell_length_b 9.772677
_cell_length_c 8.751343
_cell_angle_alpha 90.000000
_cell_angle_beta 90.000000
_cell_angle_gamma 90.000000
_cell_volume 2098.161566
_symmetry_space_group_name_H-M "P B C N"
_symmetry_group_IT_number 60
_symmetry_cell_setting 'orthorhombic'
loop_
_space_group_symop_operation_xyz
x,y,z
1/2-x,1/2-y,1/2+z
1/2+x,1/2-y,-z
-x,y,1/2-z
-x,-y,-z
1/2+x,1/2+y,1/2-z
1/2-x,1/2+y,z
x,-y,1/2+z
loop_
_atom_site_type_symbol
_atom_site_label
_atom_site_fract_x
_atom_site_fract_y
_atom_site_fract_z
Si Si1 0.413595 0.197301 0.580946
Si Si2 0.724242 0.402918 0.532901
Si Si3 0.370307 0.992634 0.810412
Si Si4 0.486247 0.849012 0.569246
Si Si5 0.798661 0.819733 0.881001
Si Si6 0.143027 0.307752 0.547813
O O1 0.394940 0.109961 0.432992
O O2 0.473236 0.246252 0.531698
O O3 0.364459 0.300252 0.616632
O O4 0.413417 0.084951 0.716633
O O5 0.720465 0.562231 0.496839
O O6 0.720456 0.364540 0.711776
O O7 0.772716 0.321681 0.445794
O O8 0.669805 0.337853 0.456482
O O9 0.339637 0.898299 0.691538
O O10 0.337260 0.105963 0.901388
O O11 0.500000 0.841035 0.750000
O O12 0.422750 0.811593 0.548699
O O13 0.500000 0.000000 0.500000
#
# Coordination Sequence:
#
# PCOD9455101 Si02
#       6
#     8   8   8   8   8   8
#     4  11  22  39  63 101 139 176 226 274 333 387
#     4  12  30  49  74 100 133 175 223 278 340 403
#     4  10  20  35  68  96 142 174 224 275 326 386
#     4  12  20  32  61 100 137 180 222 274 324 386
#     4  12  30  49  74 100 133 175 223 278 340 403
#     4  11  22  39  63 101 139 176 226 274 333 387
#
# _framework density 22.877172000000002
#
# number of rings (size 3 to 8) (size 9 to 14) (size 15 to 20)
#    0.000    0.667    6.667    1.000    9.333    0.000 
#    0.000    0.833    0.000    0.000    0.000    0.000 
#    0.000    0.000    0.000    0.000    0.000    0.000 
#
# Total GULP energy -268307.905516 kJ/mol
# GULP energy per Si atom -5589.748032 kJ/mol
# Density = 2.282510 g / cm^3
# Si number density = 22.877172 Si / 1000 Ang^3
#
#
#
# Elastic Constant Matrix: (Units=GPa)
#
#
# Indices 1 2 3 4 5 6 
#
# 1 157.1804 23.8074 14.1116 0.0000 0.0000 0.0000
# 2 23.8074 56.5228 4.8842 0.0000 0.0000 0.0000
# 3 14.1116 4.8842 128.0737 0.0000 0.0000 0.0000
# 4 0.0000 0.0000 0.0000 20.9014 0.0000 0.0000
# 5 0.0000 0.0000 0.0000 0.0000 26.5549 0.0000
# 6 0.0000 0.0000 0.0000 0.0000 0.0000 31.8222
#
#
#
# Elastic Compliance Matrix: (Units=1/GPa)
#
#
# Indices 1 2 3 4 5 6 
#
# 1 0.006849 -0.002829 -0.000647 0.000000 0.000000 0.000000
# 2 -0.002829 0.018919 -0.000410 0.000000 0.000000 0.000000
# 3 -0.000647 -0.000410 0.007895 0.000000 0.000000 0.000000
# 4 0.000000 0.000000 0.000000 0.047844 0.000000 0.000000
# 5 0.000000 0.000000 0.000000 0.000000 0.037658 0.000000
# 6 0.000000 0.000000 0.000000 0.000000 0.000000 0.031425
#
#
# Mechanical properties :
#
#
# Convention : Reuss Voigt Hill
#
# Bulk Modulus (GPa) = 38.62225 47.48703 43.05464
# Shear Modulus (GPa) = 29.94194 35.78726 32.86460
#
# Velocity S-wave (km/s) = 3.62168 3.95944 3.79432
# Velocity P-wave (km/s) = 5.86582 6.45797 6.16900
#
# Compressibility (1/GPa) = 0.02589181
#
# Stress axis : x y z
#
# Youngs Moduli (GPa) = 146.01441 52.85732 126.66415
#
# Poissons Ratio (x) = 0.14952 0.08192
# Poissons Ratio (y) = 0.41304 0.05191
# Poissons Ratio (z) = 0.09443 0.02166
#
# Static dielectric constant tensor:
#      x y z
#    x 2.001640 0.000000 0.000000 
#    y 0.000000 1.826050 0.000000 
#    z 0.000000 0.000000 1.909270 
# 
# From -- ./inp_files/7842.got.cif
#   From: 2010.05.17/outbox.cif.g08.bks.cpg/sg60_4_cif.got.tgz:7842.got - 2010.06.03 14:59:27.
