data_PCOD9455431
_publ_section_title
;
Structure prediction by ZEFSAII (Michael W. Deem and Ramdas Pophale) SiO2 
 PCOD9455431
Probable space group: P B C N
;
_chemical_formula_sum "Si O2"
_cell_formula_units_Z 56
_cell_length_a 11.429962
_cell_length_b 14.101877
_cell_length_c 16.037635
_cell_angle_alpha 90.000000
_cell_angle_beta 90.000000
_cell_angle_gamma 90.000000
_cell_volume 2585.008849
_symmetry_space_group_name_H-M "P B C N"
_symmetry_group_IT_number 60
_symmetry_cell_setting 'orthorhombic'
loop_
_space_group_symop_operation_xyz
x,y,z
1/2-x,1/2-y,1/2+z
1/2+x,1/2-y,-z
-x,y,1/2-z
-x,-y,-z
1/2+x,1/2+y,1/2-z
1/2-x,1/2+y,z
x,-y,1/2+z
loop_
_atom_site_type_symbol
_atom_site_label
_atom_site_fract_x
_atom_site_fract_y
_atom_site_fract_z
Si Si1 0.294182 0.577972 0.831433
Si Si2 0.986052 0.216795 0.120847
Si Si3 0.506135 0.600533 0.543405
Si Si4 0.975338 0.566746 0.650844
Si Si5 0.845574 0.884275 0.744436
Si Si6 0.888570 0.176387 0.812022
Si Si7 0.405697 0.885616 0.675760
O O1 0.372167 0.616910 0.907253
O O2 0.163852 0.552161 0.860353
O O3 0.367826 0.486983 0.797377
O O4 0.286437 0.648835 0.751744
O O5 0.007905 0.328918 0.119024
O O6 0.865156 0.190308 0.168980
O O7 0.077086 0.158058 0.179804
O O8 0.988735 0.176410 0.028789
O O9 0.500000 0.500000 0.500000
O O10 0.406172 0.603594 0.613839
O O11 0.000000 0.571823 0.750000
O O12 0.049479 0.474531 0.621731
O O13 0.717862 0.902061 0.780866
O O14 0.890875 0.278648 0.856493
O O15 0.000000 0.172703 0.750000
O O16 0.500000 0.877224 0.750000
#
# Coordination Sequence:
#
# PCOD9455431 Si02
#       7
#     8   8   8   8   8   8   8
#     4  11  21  39  68  96 127 171 215 273 324 390
#     4  11  24  39  65 101 127 170 217 268 325 387
#     4  11  22  41  63  94 134 164 218 268 326 387
#     4  11  21  41  65  96 128 170 223 264 322 394
#     4  11  20  36  69  94 128 160 222 265 320 382
#     4   9  21  37  64  92 124 164 214 259 315 379
#     4  10  20  38  65  95 124 168 216 264 317 382
#
# _framework density 21.663367999999998
#
# number of rings (size 3 to 8) (size 9 to 14) (size 15 to 20)
#    0.000    1.429    5.714    1.714    4.000    0.000 
#    2.571    0.714    0.000    0.000    0.000    1.000 
#    0.000    0.000    0.000    0.000    0.000    0.000 
#
# Total GULP energy -312219.292419 kJ/mol
# GULP energy per Si atom -5575.344507 kJ/mol
# Density = 2.161406 g / cm^3
# Si number density = 21.663368 Si / 1000 Ang^3
#
#
#
# Elastic Constant Matrix: (Units=GPa)
#
#
# Indices 1 2 3 4 5 6 
#
# 1 90.0476 19.2893 20.9584 0.0000 0.0000 0.0000
# 2 19.2893 154.9860 38.6351 0.0000 0.0000 0.0000
# 3 20.9584 38.6351 101.0269 0.0000 0.0000 0.0000
# 4 0.0000 0.0000 0.0000 26.6536 0.0000 0.0000
# 5 0.0000 0.0000 0.0000 0.0000 12.9508 0.0000
# 6 0.0000 0.0000 0.0000 0.0000 0.0000 27.2816
#
#
#
# Elastic Compliance Matrix: (Units=1/GPa)
#
#
# Indices 1 2 3 4 5 6 
#
# 1 0.011793 -0.000948 -0.002084 0.000000 0.000000 0.000000
# 2 -0.000948 0.007208 -0.002560 0.000000 0.000000 0.000000
# 3 -0.002084 -0.002560 0.011310 0.000000 0.000000 0.000000
# 4 0.000000 0.000000 0.000000 0.037518 0.000000 0.000000
# 5 0.000000 0.000000 0.000000 0.000000 0.077215 0.000000
# 6 0.000000 0.000000 0.000000 0.000000 0.000000 0.036655
#
#
# Mechanical properties :
#
#
# Convention : Reuss Voigt Hill
#
# Bulk Modulus (GPa) = 52.28185 55.98070 54.13127
# Shear Modulus (GPa) = 25.09287 31.18905 28.14096
#
# Velocity S-wave (km/s) = 3.40709 3.79847 3.60809
# Velocity P-wave (km/s) = 6.29792 6.71827 6.51149
#
# Compressibility (1/GPa) = 0.01912710
#
# Stress axis : x y z
#
# Youngs Moduli (GPa) = 84.79317 138.72775 88.42007
#
# Poissons Ratio (x) = 0.13156 0.18426
# Poissons Ratio (y) = 0.08041 0.22635
# Poissons Ratio (z) = 0.17670 0.35513
#
# Static dielectric constant tensor:
#      x y z
#    x 1.845570 0.000000 0.000000 
#    y 0.000000 1.920040 0.000000 
#    z 0.000000 0.000000 1.770130 
# 
# From -- ./inp_files/16177.got.cif
#   From: 2010.05.17/outbox.cif.g08.bks.cpg/sg60_9_cif.got.tgz:16177.got - 2010.06.03 14:59:27.
