data_PCOD9455388
_publ_section_title
;
Structure prediction by ZEFSAII (Michael W. Deem and Ramdas Pophale) SiO2 
 PCOD9455388
Probable space group: P B C N
;
_chemical_formula_sum "Si O2"
_cell_formula_units_Z 40
_cell_length_a 20.794147
_cell_length_b 5.180617
_cell_length_c 13.957532
_cell_angle_alpha 90.000000
_cell_angle_beta 90.000000
_cell_angle_gamma 90.000000
_cell_volume 1503.596231
_symmetry_space_group_name_H-M "P B C N"
_symmetry_group_IT_number 60
_symmetry_cell_setting 'orthorhombic'
loop_
_space_group_symop_operation_xyz
x,y,z
1/2-x,1/2-y,1/2+z
1/2+x,1/2-y,-z
-x,y,1/2-z
-x,-y,-z
1/2+x,1/2+y,1/2-z
1/2-x,1/2+y,z
x,-y,1/2+z
loop_
_atom_site_type_symbol
_atom_site_label
_atom_site_fract_x
_atom_site_fract_y
_atom_site_fract_z
Si Si1 0.147762 0.227214 0.418018
Si Si2 0.288341 0.910982 0.604405
Si Si3 0.876888 0.925032 0.256154
Si Si4 0.527192 0.050004 0.153720
Si Si5 0.939275 0.069043 0.937608
O O1 0.193084 0.385221 0.490629
O O2 0.082167 0.383154 0.395597
O O3 0.121564 0.022004 0.494562
O O4 0.165834 0.094364 0.317574
O O5 0.230622 0.705851 0.620190
O O6 0.338796 0.794837 0.682598
O O7 0.931893 0.797195 0.190394
O O8 0.916707 0.064686 0.340117
O O9 0.500000 0.927582 0.250000
O O10 0.465054 0.146797 0.095519
O O11 0.000000 0.000000 0.000000
#
# Coordination Sequence:
#
# PCOD9455388 Si02
#       5
#     8   8   8   8   8
#     4  11  24  41  71  98 135 184 233 280 346 429
#     4  11  29  51  72  99 136 180 239 307 356 395
#     4  10  24  42  65 102 132 179 232 285 338 424
#     4  10  22  38  64 103 143 179 224 274 348 421
#     4  10  20  38  62  98 146 179 216 272 341 420
#
# _framework density 26.602888
#
# number of rings (size 3 to 8) (size 9 to 14) (size 15 to 20)
#    0.000    1.600    2.000    0.600    8.400    1.600 
#    0.000    0.000    0.000    0.000    0.000    0.000 
#    0.000    0.000    0.000    0.000    0.000    0.000 
#
# Total GULP energy -223016.276331 kJ/mol
# GULP energy per Si atom -5575.406908 kJ/mol
# Density = 2.654234 g / cm^3
# Si number density = 26.602888 Si / 1000 Ang^3
#
#
#
# Elastic Constant Matrix: (Units=GPa)
#
#
# Indices 1 2 3 4 5 6 
#
# 1 60.5741 18.0320 17.3841 0.0000 0.0000 0.0000
# 2 18.0320 49.7256 44.2597 0.0000 0.0000 0.0000
# 3 17.3841 44.2597 174.9818 0.0000 0.0000 0.0000
# 4 0.0000 0.0000 0.0000 36.9192 0.0000 0.0000
# 5 0.0000 0.0000 0.0000 0.0000 56.5874 0.0000
# 6 0.0000 0.0000 0.0000 0.0000 0.0000 48.6828
#
#
#
# Elastic Compliance Matrix: (Units=1/GPa)
#
#
# Indices 1 2 3 4 5 6 
#
# 1 0.018511 -0.006550 -0.000182 0.000000 0.000000 0.000000
# 2 -0.006550 0.028271 -0.006500 0.000000 0.000000 0.000000
# 3 -0.000182 -0.006500 0.007377 0.000000 0.000000 0.000000
# 4 0.000000 0.000000 0.000000 0.027086 0.000000 0.000000
# 5 0.000000 0.000000 0.000000 0.000000 0.017672 0.000000
# 6 0.000000 0.000000 0.000000 0.000000 0.000000 0.020541
#
#
# Mechanical properties :
#
#
# Convention : Reuss Voigt Hill
#
# Bulk Modulus (GPa) = 36.10903 49.40366 42.75634
# Shear Modulus (GPa) = 32.22572 42.14492 37.18532
#
# Velocity S-wave (km/s) = 3.48424 3.98455 3.74276
# Velocity P-wave (km/s) = 5.45796 6.30713 5.89785
#
# Compressibility (1/GPa) = 0.02769391
#
# Stress axis : x y z
#
# Youngs Moduli (GPa) = 54.02206 35.37139 135.55433
#
# Poissons Ratio (x) = 0.23170 0.02469
# Poissons Ratio (y) = 0.35387 0.88112
# Poissons Ratio (z) = 0.00984 0.22992
#
# Static dielectric constant tensor:
#      x y z
#    x 2.045190 0.000000 0.000000 
#    y 0.000000 2.273470 0.000000 
#    z 0.000000 0.000000 2.135040 
# 
# From -- ./inp_files/17835.got.cif
#   From: 2010.05.17/outbox.cif.g08.bks.cpg/sg60_9_cif.got.tgz:17835.got - 2010.06.03 14:59:27.
