data_PCOD9455257
_publ_section_title
;
Structure prediction by ZEFSAII (Michael W. Deem and Ramdas Pophale) SiO2 
 PCOD9455257
Probable space group: P B C N
;
_chemical_formula_sum "Si O2"
_cell_formula_units_Z 40
_cell_length_a 9.379216
_cell_length_b 10.267557
_cell_length_c 20.806839
_cell_angle_alpha 90.000000
_cell_angle_beta 90.000000
_cell_angle_gamma 90.000000
_cell_volume 2003.732613
_symmetry_space_group_name_H-M "P B C N"
_symmetry_group_IT_number 60
_symmetry_cell_setting 'orthorhombic'
loop_
_space_group_symop_operation_xyz
x,y,z
1/2-x,1/2-y,1/2+z
1/2+x,1/2-y,-z
-x,y,1/2-z
-x,-y,-z
1/2+x,1/2+y,1/2-z
1/2-x,1/2+y,z
x,-y,1/2+z
loop_
_atom_site_type_symbol
_atom_site_label
_atom_site_fract_x
_atom_site_fract_y
_atom_site_fract_z
Si Si1 0.361018 0.476735 0.926395
Si Si2 0.709403 0.825624 0.857612
Si Si3 0.917697 0.055250 0.816601
Si Si4 0.590986 0.686318 0.473576
Si Si5 0.949748 0.421854 0.563419
O O1 0.467856 0.541620 0.875080
O O2 0.436190 0.338363 0.942099
O O3 0.197295 0.472123 0.906139
O O4 0.359810 0.550591 0.994942
O O5 0.658891 0.696042 0.820993
O O6 0.798980 0.774040 0.919091
O O7 0.573978 0.903492 0.885468
O O8 0.809558 0.933030 0.823766
O O9 0.000000 0.044895 0.750000
O O10 0.584957 0.782807 0.532416
O O11 0.000000 0.500000 0.500000
#
# Coordination Sequence:
#
# PCOD9455257 Si02
#       5
#     8   8   8   8   8
#     4  10  22  37  61  92 135 172 206 276 332 390
#     4  11  23  43  70  97 132 175 224 278 332 400
#     4  11  26  49  67  92 134 184 229 275 328 396
#     4  10  20  37  60  95 134 163 208 270 345 386
#     4  12  21  33  63 103 132 166 212 266 344 411
#
# _framework density 19.962744000000001
#
# number of rings (size 3 to 8) (size 9 to 14) (size 15 to 20)
#    0.000    1.200    4.000    2.400    2.800    1.600 
#    0.000    1.000    0.000    0.000    0.000    0.000 
#    0.000    0.000    0.000    0.000    0.000    0.000 
#
# Total GULP energy -223274.637855 kJ/mol
# GULP energy per Si atom -5581.865946 kJ/mol
# Density = 1.991731 g / cm^3
# Si number density = 19.962744 Si / 1000 Ang^3
#
#
#
# Elastic Constant Matrix: (Units=GPa)
#
#
# Indices 1 2 3 4 5 6 
#
# 1 149.8485 54.1101 52.3547 0.0000 0.0000 0.0000
# 2 54.1101 84.6844 36.4695 0.0000 0.0000 0.0000
# 3 52.3547 36.4695 85.9799 0.0000 0.0000 0.0000
# 4 0.0000 0.0000 0.0000 21.5625 0.0000 0.0000
# 5 0.0000 0.0000 0.0000 0.0000 33.9295 0.0000
# 6 0.0000 0.0000 0.0000 0.0000 0.0000 14.7399
#
#
#
# Elastic Compliance Matrix: (Units=1/GPa)
#
#
# Indices 1 2 3 4 5 6 
#
# 1 0.009684 -0.004464 -0.004003 0.000000 0.000000 0.000000
# 2 -0.004464 0.016505 -0.004283 0.000000 0.000000 0.000000
# 3 -0.004003 -0.004283 0.015885 0.000000 0.000000 0.000000
# 4 0.000000 0.000000 0.000000 0.046377 0.000000 0.000000
# 5 0.000000 0.000000 0.000000 0.000000 0.029473 0.000000
# 6 0.000000 0.000000 0.000000 0.000000 0.000000 0.067843
#
#
# Mechanical properties :
#
#
# Convention : Reuss Voigt Hill
#
# Bulk Modulus (GPa) = 60.33468 67.37573 63.85520
# Shear Modulus (GPa) = 23.06366 25.88495 24.47431
#
# Velocity S-wave (km/s) = 3.40271 3.60483 3.50523
# Velocity P-wave (km/s) = 6.76219 7.15195 6.95980
#
# Compressibility (1/GPa) = 0.01657422
#
# Stress axis : x y z
#
# Youngs Moduli (GPa) = 103.26373 60.58763 62.95240
#
# Poissons Ratio (x) = 0.27044 0.25203
# Poissons Ratio (y) = 0.46093 0.26962
# Poissons Ratio (z) = 0.41341 0.25949
#
# Static dielectric constant tensor:
#      x y z
#    x 1.766980 0.000000 0.000000 
#    y 0.000000 1.867250 0.000000 
#    z 0.000000 0.000000 1.668220 
# 
# From -- ./inp_files/19021.got.cif
#   From: 2010.05.17/outbox.cif.g08.bks.cpg/sg60_10_cif.got.tgz:19021.got - 2010.06.03 14:59:27.
