data_PCOD9455799
_publ_section_title
;
Structure prediction by ZEFSAII (Michael W. Deem and Ramdas Pophale) SiO2 
 PCOD9455799
Probable space group: P B C N
;
_chemical_formula_sum "Si O2"
_cell_formula_units_Z 52
_cell_length_a 9.279984
_cell_length_b 23.226807
_cell_length_c 11.318296
_cell_angle_alpha 90.000000
_cell_angle_beta 90.000000
_cell_angle_gamma 90.000000
_cell_volume 2439.595290
_symmetry_space_group_name_H-M "P B C N"
_symmetry_group_IT_number 60
_symmetry_cell_setting 'orthorhombic'
loop_
_space_group_symop_operation_xyz
x,y,z
1/2-x,1/2-y,1/2+z
1/2+x,1/2-y,-z
-x,y,1/2-z
-x,-y,-z
1/2+x,1/2+y,1/2-z
1/2-x,1/2+y,z
x,-y,1/2+z
loop_
_atom_site_type_symbol
_atom_site_label
_atom_site_fract_x
_atom_site_fract_y
_atom_site_fract_z
Si Si1 0.573674 0.608706 0.510875
Si Si2 0.179730 0.749686 0.096904
Si Si3 0.945672 0.480224 0.626831
Si Si4 0.130726 0.949866 0.836047
Si Si5 0.010081 0.231336 0.110751
Si Si6 0.174975 0.382593 0.651618
Si Si7 0.500000 0.340490 0.250000
O O1 0.451394 0.567746 0.456005
O O2 0.536153 0.669044 0.445972
O O3 0.731166 0.596551 0.460761
O O4 0.569898 0.619628 0.649586
O O5 0.345653 0.766429 0.085940
O O6 0.159989 0.686199 0.152594
O O7 0.103110 0.797411 0.176843
O O8 0.120685 0.744240 0.963793
O O9 0.772582 0.485562 0.631575
O O10 0.000000 0.509073 0.750000
O O11 0.000000 0.500000 0.500000
O O12 0.024407 0.416811 0.638367
O O13 0.216847 0.900444 0.759867
O O14 0.000000 0.970269 0.750000
O O15 0.000000 0.227057 0.250000
#
# Coordination Sequence:
#
# PCOD9455799 Si02
#       7
#     8   8   8   8   8   8   4
#     4   9  18  37  52  82 114 158 200 240 289 347
#     4  10  22  34  53  80 112 159 204 242 295 341
#     4  10  22  42  65  93 122 149 194 255 311 371
#     4   9  18  37  65  86 112 160 202 236 293 375
#     4  10  21  34  53  76 116 155 201 250 285 339
#     4   9  19  36  60  81 112 154 200 240 290 366
#     4  10  22  32  54  80 130 152 202 258 288 330
#
# _framework density 21.315010000000001
#
# number of rings (size 3 to 8) (size 9 to 14) (size 15 to 20)
#    0.000    2.462    0.000    2.308    9.692    2.462 
#    2.769    7.692    0.000    0.000    0.000    0.000 
#    0.000    0.000    0.000    0.000    0.000    0.000 
#
# Total GULP energy -289525.313552 kJ/mol
# GULP energy per Si atom -5567.794491 kJ/mol
# Density = 2.126650 g / cm^3
# Si number density = 21.315010 Si / 1000 Ang^3
#
#
#
# Elastic Constant Matrix: (Units=GPa)
#
#
# Indices 1 2 3 4 5 6 
#
# 1 124.4942 -3.4530 41.5781 0.0000 0.0000 0.0000
# 2 -3.4530 21.9948 12.5173 0.0000 0.0000 0.0000
# 3 41.5781 12.5173 174.7524 0.0000 0.0000 0.0000
# 4 0.0000 0.0000 0.0000 58.6233 0.0000 0.0000
# 5 0.0000 0.0000 0.0000 0.0000 14.1943 0.0000
# 6 0.0000 0.0000 0.0000 0.0000 0.0000 -1.1066
#
#
#
# Elastic Compliance Matrix: (Units=1/GPa)
#
#
# Indices 1 2 3 4 5 6 
#
# 1 0.008878 0.002706 -0.002306 0.000000 0.000000 0.000000
# 2 0.002706 0.048222 -0.004098 0.000000 0.000000 0.000000
# 3 -0.002306 -0.004098 0.006565 0.000000 0.000000 0.000000
# 4 0.000000 0.000000 0.000000 0.017058 0.000000 0.000000
# 5 0.000000 0.000000 0.000000 0.000000 0.070451 0.000000
# 6 0.000000 0.000000 0.000000 0.000000 0.000000 -0.903639
#
#
# Mechanical properties :
#
#
# Convention : Reuss Voigt Hill
#
# Bulk Modulus (GPa) = 17.77180 46.94734 32.35957
# Shear Modulus (GPa) = -6.88409 32.38212 12.74901
#
# Velocity S-wave (km/s) = -1.79908 3.90194 2.44831
# Velocity P-wave (km/s) = 2.01002 6.50949 4.81735
#
# Compressibility (1/GPa) = 0.05626891
#
# Stress axis : x y z
#
# Youngs Moduli (GPa) = 112.64128 20.73725 152.33242
#
# Poissons Ratio (x) = -0.05612 0.35129
# Poissons Ratio (y) = -0.30482 0.62425
# Poissons Ratio (z) = 0.25976 0.08498
#
# Static dielectric constant tensor:
#      x y z
#    x 1.784580 0.000000 0.000000 
#    y 0.000000 1.837040 0.000000 
#    z 0.000000 0.000000 1.818930 
# 
# From -- ./inp_files/10258.got.cif
#   From: 2010.05.17/outbox.cif.g08.bks.cpg/sg60_6_cif.got.tgz:10258.got - 2010.06.03 14:59:27.
