data_PCOD9455296
_publ_section_title
;
Structure prediction by ZEFSAII (Michael W. Deem and Ramdas Pophale) SiO2 
 PCOD9455296
Probable space group: P B C N
;
_chemical_formula_sum "Si O2"
_cell_formula_units_Z 48
_cell_length_a 8.271057
_cell_length_b 21.757103
_cell_length_c 12.416175
_cell_angle_alpha 90.000000
_cell_angle_beta 90.000000
_cell_angle_gamma 90.000000
_cell_volume 2234.343324
_symmetry_space_group_name_H-M "P B C N"
_symmetry_group_IT_number 60
_symmetry_cell_setting 'orthorhombic'
loop_
_space_group_symop_operation_xyz
x,y,z
1/2-x,1/2-y,1/2+z
1/2+x,1/2-y,-z
-x,y,1/2-z
-x,-y,-z
1/2+x,1/2+y,1/2-z
1/2-x,1/2+y,z
x,-y,1/2+z
loop_
_atom_site_type_symbol
_atom_site_label
_atom_site_fract_x
_atom_site_fract_y
_atom_site_fract_z
Si Si1 0.589987 0.773468 0.861047
Si Si2 0.253198 0.999773 0.511928
Si Si3 0.471077 0.078581 0.875321
Si Si4 0.127751 0.115078 0.410944
Si Si5 0.370987 0.198796 0.548230
Si Si6 0.781715 0.109640 0.334410
O O1 0.500000 0.759250 0.750000
O O2 0.758900 0.737464 0.871277
O O3 0.634402 0.846009 0.864195
O O4 0.474021 0.762085 0.962674
O O5 0.305048 0.951370 0.418645
O O6 0.226319 0.957668 0.615537
O O7 0.399128 0.044302 0.548839
O O8 0.123884 0.049076 0.470338
O O9 0.500000 0.064950 0.750000
O O10 0.507109 0.150641 0.895020
O O11 0.238911 0.160667 0.478596
O O12 0.207175 0.106462 0.293761
O O13 0.946977 0.136694 0.384761
#
# Coordination Sequence:
#
# PCOD9455296 Si02
#       6
#     8   8   8   8   8   8
#     4  12  25  44  70  93 130 180 230 284 340 406
#     4  10  20  37  64  95 130 171 211 273 320 403
#     4  10  21  37  60  93 127 165 211 266 326 393
#     4  10  22  39  65  96 133 168 222 270 337 402
#     4  11  24  44  62  93 127 167 225 279 329 392
#     4  11  21  40  66  96 129 178 214 270 334 405
#
# _framework density 21.482821000000001
#
# number of rings (size 3 to 8) (size 9 to 14) (size 15 to 20)
#    0.000    1.333    3.333    2.500    0.000    2.000 
#    6.000    0.000    7.333    0.000    0.000    0.000 
#    0.000    0.000    0.000    0.000    0.000    0.000 
#
# Total GULP energy -267961.306545 kJ/mol
# GULP energy per Si atom -5582.527220 kJ/mol
# Density = 2.143393 g / cm^3
# Si number density = 21.482821 Si / 1000 Ang^3
#
#
#
# Elastic Constant Matrix: (Units=GPa)
#
#
# Indices 1 2 3 4 5 6 
#
# 1 34.6603 18.3940 10.4228 0.0000 0.0000 0.0000
# 2 18.3940 69.0082 22.4145 0.0000 0.0000 0.0000
# 3 10.4228 22.4145 72.5562 0.0000 0.0000 0.0000
# 4 0.0000 0.0000 0.0000 23.8699 0.0000 0.0000
# 5 0.0000 0.0000 0.0000 0.0000 33.2738 0.0000
# 6 0.0000 0.0000 0.0000 0.0000 0.0000 3.2537
#
#
#
# Elastic Compliance Matrix: (Units=1/GPa)
#
#
# Indices 1 2 3 4 5 6 
#
# 1 0.033951 -0.008298 -0.002314 0.000000 0.000000 0.000000
# 2 -0.008298 0.018135 -0.004410 0.000000 0.000000 0.000000
# 3 -0.002314 -0.004410 0.015477 0.000000 0.000000 0.000000
# 4 0.000000 0.000000 0.000000 0.041894 0.000000 0.000000
# 5 0.000000 0.000000 0.000000 0.000000 0.030054 0.000000
# 6 0.000000 0.000000 0.000000 0.000000 0.000000 0.307347
#
#
# Mechanical properties :
#
#
# Convention : Reuss Voigt Hill
#
# Bulk Modulus (GPa) = 26.65294 30.96525 28.80909
# Shear Modulus (GPa) = 10.21641 20.41235 15.31438
#
# Velocity S-wave (km/s) = 2.18310 3.08583 2.67285
# Velocity P-wave (km/s) = 4.33453 5.20977 4.79217
#
# Compressibility (1/GPa) = 0.03751932
#
# Stress axis : x y z
#
# Youngs Moduli (GPa) = 29.45432 55.14066 64.61077
#
# Poissons Ratio (x) = 0.45756 0.14948
# Poissons Ratio (y) = 0.24441 0.28496
# Poissons Ratio (z) = 0.06815 0.24320
#
# Static dielectric constant tensor:
#      x y z
#    x 1.824040 0.000000 0.000000 
#    y 0.000000 1.799420 0.000000 
#    z 0.000000 0.000000 1.734120 
# 
# From -- ./inp_files/10128.got.cif
#   From: 2010.05.17/outbox.cif.g08.bks.cpg/sg60_6_cif.got.tgz:10128.got - 2010.06.03 14:59:27.
