data_PCOD9455416
_publ_section_title
;
Structure prediction by ZEFSAII (Michael W. Deem and Ramdas Pophale) SiO2 
 PCOD9455416
Probable space group: P B C N
;
_chemical_formula_sum "Si O2"
_cell_formula_units_Z 36
_cell_length_a 17.540007
_cell_length_b 16.082054
_cell_length_c 5.224961
_cell_angle_alpha 90.000000
_cell_angle_beta 90.000000
_cell_angle_gamma 90.000000
_cell_volume 1473.853549
_symmetry_space_group_name_H-M "P B C N"
_symmetry_group_IT_number 60
_symmetry_cell_setting 'orthorhombic'
loop_
_space_group_symop_operation_xyz
x,y,z
1/2-x,1/2-y,1/2+z
1/2+x,1/2-y,-z
-x,y,1/2-z
-x,-y,-z
1/2+x,1/2+y,1/2-z
1/2-x,1/2+y,z
x,-y,1/2+z
loop_
_atom_site_type_symbol
_atom_site_label
_atom_site_fract_x
_atom_site_fract_y
_atom_site_fract_z
Si Si1 0.842489 0.803603 0.920836
Si Si2 0.220037 0.030668 0.937259
Si Si3 0.500000 0.303123 0.750000
Si Si4 0.116114 0.288859 0.564874
Si Si5 0.391168 0.970084 0.801249
O O1 0.924574 0.846938 0.855333
O O2 0.835075 0.737059 0.689718
O O3 0.782788 0.877669 0.943148
O O4 0.850918 0.759206 0.191468
O O5 0.183298 0.027974 0.654611
O O6 0.304471 0.998299 0.866739
O O7 0.466058 0.245438 0.974444
O O8 0.107676 0.382835 0.656009
O O9 0.424614 0.032549 0.587369
#
# Coordination Sequence:
#
# PCOD9455416 Si02
#       5
#     8   8   4   8   8
#     4  10  20  38  64  90 123 169 218 266 317 379
#     4  10  21  39  60  89 130 164 204 264 326 387
#     4   8  22  36  66  88 126 160 232 272 302 370
#     4  10  20  38  64  90 123 169 218 266 317 379
#     4  10  21  39  60  89 130 164 204 264 326 387
#
# _framework density 24.425763
#
# number of rings (size 3 to 8) (size 9 to 14) (size 15 to 20)
#    1.333    0.889    0.000    3.333    0.000    0.000 
#    0.000   20.000    0.000    0.000    0.000    0.000 
#    0.000    0.000    0.000    0.000    0.000    0.000 
#
# Total GULP energy -200675.563824 kJ/mol
# GULP energy per Si atom -5574.321217 kJ/mol
# Density = 2.437017 g / cm^3
# Si number density = 24.425763 Si / 1000 Ang^3
#
#
#
# Elastic Constant Matrix: (Units=GPa)
#
#
# Indices 1 2 3 4 5 6 
#
# 1 82.4017 10.3331 9.6056 0.0000 0.0000 0.0000
# 2 10.3331 67.0213 38.1475 0.0000 0.0000 0.0000
# 3 9.6056 38.1475 247.8450 0.0000 0.0000 0.0000
# 4 0.0000 0.0000 0.0000 36.7159 0.0000 0.0000
# 5 0.0000 0.0000 0.0000 0.0000 7.3999 0.0000
# 6 0.0000 0.0000 0.0000 0.0000 0.0000 15.1733
#
#
#
# Elastic Compliance Matrix: (Units=1/GPa)
#
#
# Indices 1 2 3 4 5 6 
#
# 1 0.012384 -0.001793 -0.000204 0.000000 0.000000 0.000000
# 2 -0.001793 0.016613 -0.002488 0.000000 0.000000 0.000000
# 3 -0.000204 -0.002488 0.004426 0.000000 0.000000 0.000000
# 4 0.000000 0.000000 0.000000 0.027236 0.000000 0.000000
# 5 0.000000 0.000000 0.000000 0.000000 0.135137 0.000000
# 6 0.000000 0.000000 0.000000 0.000000 0.000000 0.065905
#
#
# Mechanical properties :
#
#
# Convention : Reuss Voigt Hill
#
# Bulk Modulus (GPa) = 40.89423 57.04895 48.97159
# Shear Modulus (GPa) = 17.93258 34.46994 26.20126
#
# Velocity S-wave (km/s) = 2.71249 3.76069 3.27875
# Velocity P-wave (km/s) = 5.15643 6.50106 5.86739
#
# Compressibility (1/GPa) = 0.02445333
#
# Stress axis : x y z
#
# Youngs Moduli (GPa) = 80.74725 60.19395 225.96040
#
# Poissons Ratio (x) = 0.10795 0.04609
# Poissons Ratio (y) = 0.14480 0.56208
# Poissons Ratio (z) = 0.01647 0.14973
#
# Static dielectric constant tensor:
#      x y z
#    x 2.087150 0.000000 0.000000 
#    y 0.000000 1.959800 0.000000 
#    z 0.000000 0.000000 2.117910 
# 
# From -- ./inp_files/1968.got.cif
#   From: 2010.05.17/outbox.cif.g08.bks.cpg/sg60_1_cif.got.tgz:1968.got - 2010.06.03 14:59:27.
