data_PCOD9455150
_publ_section_title
;
Structure prediction by ZEFSAII (Michael W. Deem and Ramdas Pophale) SiO2 
 PCOD9455150
Probable space group: P B C N
;
_chemical_formula_sum "Si O2"
_cell_formula_units_Z 48
_cell_length_a 12.405691
_cell_length_b 21.001648
_cell_length_c 9.836193
_cell_angle_alpha 90.000000
_cell_angle_beta 90.000000
_cell_angle_gamma 90.000000
_cell_volume 2562.721287
_symmetry_space_group_name_H-M "P B C N"
_symmetry_group_IT_number 60
_symmetry_cell_setting 'orthorhombic'
loop_
_space_group_symop_operation_xyz
x,y,z
1/2-x,1/2-y,1/2+z
1/2+x,1/2-y,-z
-x,y,1/2-z
-x,-y,-z
1/2+x,1/2+y,1/2-z
1/2-x,1/2+y,z
x,-y,1/2+z
loop_
_atom_site_type_symbol
_atom_site_label
_atom_site_fract_x
_atom_site_fract_y
_atom_site_fract_z
Si Si1 0.564827 0.957150 0.890473
Si Si2 0.202562 0.973678 0.744992
Si Si3 0.901235 0.047800 0.971944
Si Si4 0.161382 0.830777 0.689950
Si Si5 0.589918 0.816181 0.866624
Si Si6 0.038411 0.808210 0.964920
O O1 0.500000 0.955646 0.750000
O O2 0.681834 0.976937 0.830355
O O3 0.575663 0.884171 0.943289
O O4 0.500000 0.000000 0.000000
O O5 0.187604 0.968337 0.908376
O O6 0.149909 0.907354 0.694606
O O7 0.139205 0.031700 0.678698
O O8 0.933435 0.121550 0.980261
O O9 0.000000 0.000000 0.000000
O O10 0.287465 0.816612 0.686594
O O11 0.105198 0.804631 0.824743
O O12 0.089253 0.805912 0.566343
O O13 0.500000 0.816649 0.750000
O O14 0.572045 0.751954 0.948404
#
# Coordination Sequence:
#
# PCOD9455150 Si02
#       6
#     8   8   8   8   8   8
#     4  10  21  42  62  84 119 160 202 245 298 355
#     4  10  20  36  59  87 117 155 195 246 293 353
#     4  11  20  35  61  89 119 154 194 240 303 358
#     4   9  20  40  59  81 119 160 187 242 304 346
#     4  10  23  39  62  87 120 155 200 249 296 352
#     4  10  21  39  61  85 119 156 197 240 300 359
#
# _framework density 18.730091000000002
#
# number of rings (size 3 to 8) (size 9 to 14) (size 15 to 20)
#    0.000    2.000    1.667    1.500    2.333    2.667 
#    3.000    0.000    0.000    0.000    0.000    0.000 
#    0.000    0.000    0.000    0.000    0.000    0.000 
#
# Total GULP energy -267326.379758 kJ/mol
# GULP energy per Si atom -5569.299578 kJ/mol
# Density = 1.868746 g / cm^3
# Si number density = 18.730091 Si / 1000 Ang^3
#
#
#
# Elastic Constant Matrix: (Units=GPa)
#
#
# Indices 1 2 3 4 5 6 
#
# 1 103.7245 48.6888 25.6777 0.0000 0.0000 0.0000
# 2 48.6888 115.3876 44.9361 0.0000 0.0000 0.0000
# 3 25.6777 44.9361 54.5774 0.0000 0.0000 0.0000
# 4 0.0000 0.0000 0.0000 32.6611 0.0000 0.0000
# 5 0.0000 0.0000 0.0000 0.0000 28.4453 0.0000
# 6 0.0000 0.0000 0.0000 0.0000 0.0000 15.5445
#
#
#
# Elastic Compliance Matrix: (Units=1/GPa)
#
#
# Indices 1 2 3 4 5 6 
#
# 1 0.012201 -0.004287 -0.002210 0.000000 0.000000 0.000000
# 2 -0.004287 0.014263 -0.009727 0.000000 0.000000 0.000000
# 3 -0.002210 -0.009727 0.027371 0.000000 0.000000 0.000000
# 4 0.000000 0.000000 0.000000 0.030617 0.000000 0.000000
# 5 0.000000 0.000000 0.000000 0.000000 0.035155 0.000000
# 6 0.000000 0.000000 0.000000 0.000000 0.000000 0.064332
#
#
# Mechanical properties :
#
#
# Convention : Reuss Voigt Hill
#
# Bulk Modulus (GPa) = 46.75844 56.92164 51.84004
# Shear Modulus (GPa) = 22.36973 25.62262 23.99618
#
# Velocity S-wave (km/s) = 3.45964 3.70265 3.58321
# Velocity P-wave (km/s) = 6.40136 6.98111 6.69751
#
# Compressibility (1/GPa) = 0.02138651
#
# Stress axis : x y z
#
# Youngs Moduli (GPa) = 81.96319 70.10918 36.53530
#
# Poissons Ratio (x) = 0.30059 0.08075
# Poissons Ratio (y) = 0.35141 0.35536
# Poissons Ratio (z) = 0.18115 0.68192
#
# Static dielectric constant tensor:
#      x y z
#    x 1.797190 0.000000 0.000000 
#    y 0.000000 1.637940 0.000000 
#    z 0.000000 0.000000 1.592010 
# 
# From -- ./inp_files/5061.got.cif
#   From: 2010.05.17/outbox.cif.g08.bks.cpg/sg60_3_cif.got.tgz:5061.got - 2010.06.03 14:59:27.
