data_PCOD9455553
_publ_section_title
;
Structure prediction by ZEFSAII (Michael W. Deem and Ramdas Pophale) SiO2 
 PCOD9455553
Probable space group: P B C N
;
_chemical_formula_sum "Si O2"
_cell_formula_units_Z 60
_cell_length_a 13.499893
_cell_length_b 13.440655
_cell_length_c 13.951196
_cell_angle_alpha 90.000000
_cell_angle_beta 90.000000
_cell_angle_gamma 90.000000
_cell_volume 2531.408302
_symmetry_space_group_name_H-M "P B C N"
_symmetry_group_IT_number 60
_symmetry_cell_setting 'orthorhombic'
loop_
_space_group_symop_operation_xyz
x,y,z
1/2-x,1/2-y,1/2+z
1/2+x,1/2-y,-z
-x,y,1/2-z
-x,-y,-z
1/2+x,1/2+y,1/2-z
1/2-x,1/2+y,z
x,-y,1/2+z
loop_
_atom_site_type_symbol
_atom_site_label
_atom_site_fract_x
_atom_site_fract_y
_atom_site_fract_z
Si Si1 0.030335 0.702416 0.453984
Si Si2 0.768411 0.267804 0.312909
Si Si3 0.000000 0.379199 0.750000
Si Si4 0.848727 0.586788 0.531909
Si Si5 0.686663 0.442629 0.875835
Si Si6 0.329835 0.972789 0.258592
Si Si7 0.745814 0.208365 0.096764
Si Si8 0.112405 0.126410 0.539360
O O1 0.959265 0.621615 0.504320
O O2 0.986957 0.811144 0.475753
O O3 0.017680 0.687751 0.341012
O O4 0.146828 0.690131 0.464567
O O5 0.825177 0.174616 0.360265
O O6 0.836788 0.361127 0.282755
O O7 0.729480 0.223044 0.210692
O O8 0.681536 0.310512 0.382895
O O9 0.911483 0.452252 0.779182
O O10 0.782312 0.544353 0.446258
O O11 0.846677 0.522647 0.627785
O O12 0.791631 0.686887 0.563428
O O13 0.722841 0.489747 0.775469
O O14 0.604791 0.515206 0.920021
O O15 0.826995 0.129913 0.060296
#
# Coordination Sequence:
#
# PCOD9455553 Si02
#       8
#     8   8   4   8   8   8   8   8
#     4  11  21  38  62  95 129 158 214 264 310 374
#     4  10  20  40  61  86 124 165 205 257 316 377
#     4  12  22  38  66 100 126 156 210 270 328 372
#     4  10  22  40  59  95 126 164 210 254 320 375
#     4  11  20  39  63  85 122 168 207 250 313 379
#     4  10  23  37  60  94 124 158 207 261 319 378
#     4  10  21  38  65  91 124 166 203 264 309 371
#     4  10  22  38  60  93 124 165 213 254 315 380
#
# _framework density 23.702221000000002
#
# number of rings (size 3 to 8) (size 9 to 14) (size 15 to 20)
#    0.000    1.600    4.000    1.600    3.733    2.667 
#    0.000    0.667    0.000    5.600    0.000    0.000 
#    0.000    0.000    0.000    0.000    0.000    0.000 
#
# Total GULP energy -335266.456155 kJ/mol
# GULP energy per Si atom -5587.774269 kJ/mol
# Density = 2.364827 g / cm^3
# Si number density = 23.702221 Si / 1000 Ang^3
#
#
#
# Elastic Constant Matrix: (Units=GPa)
#
#
# Indices 1 2 3 4 5 6 
#
# 1 49.5791 9.2493 -9.1537 0.0000 0.0000 0.0000
# 2 9.2493 112.6529 3.0357 0.0000 0.0000 0.0000
# 3 -9.1537 3.0357 89.5185 0.0000 0.0000 0.0000
# 4 0.0000 0.0000 0.0000 34.6233 0.0000 0.0000
# 5 0.0000 0.0000 0.0000 0.0000 23.2013 0.0000
# 6 0.0000 0.0000 0.0000 0.0000 0.0000 23.8399
#
#
#
# Elastic Compliance Matrix: (Units=1/GPa)
#
#
# Indices 1 2 3 4 5 6 
#
# 1 0.020907 -0.001776 0.002198 0.000000 0.000000 0.000000
# 2 -0.001776 0.009036 -0.000488 0.000000 0.000000 0.000000
# 3 0.002198 -0.000488 0.011412 0.000000 0.000000 0.000000
# 4 0.000000 0.000000 0.000000 0.028882 0.000000 0.000000
# 5 0.000000 0.000000 0.000000 0.000000 0.043101 0.000000
# 6 0.000000 0.000000 0.000000 0.000000 0.000000 0.041947
#
#
# Mechanical properties :
#
#
# Convention : Reuss Voigt Hill
#
# Bulk Modulus (GPa) = 24.25805 28.66810 26.46308
# Shear Modulus (GPa) = 29.55829 32.90751 31.23290
#
# Velocity S-wave (km/s) = 3.53522 3.73013 3.63398
# Velocity P-wave (km/s) = 5.18849 5.53834 5.36626
#
# Compressibility (1/GPa) = 0.04122343
#
# Stress axis : x y z
#
# Youngs Moduli (GPa) = 47.83107 110.67124 87.62563
#
# Poissons Ratio (x) = 0.19653 -0.19261
# Poissons Ratio (y) = 0.08494 0.04276
# Poissons Ratio (z) = -0.10514 0.05401
#
# Static dielectric constant tensor:
#      x y z
#    x 1.896600 0.000000 0.000000 
#    y 0.000000 1.927370 0.000000 
#    z 0.000000 0.000000 1.950970 
# 
# From -- ./inp_files/17010.got.cif
#   From: 2010.05.17/outbox.cif.g08.bks.cpg/sg60_9_cif.got.tgz:17010.got - 2010.06.03 14:59:27.
