data_PCOD9455628
_publ_section_title
;
Structure prediction by ZEFSAII (Michael W. Deem and Ramdas Pophale) SiO2 
 PCOD9455628
Probable space group: P B C N
;
_chemical_formula_sum "Si O2"
_cell_formula_units_Z 44
_cell_length_a 15.313328
_cell_length_b 9.165905
_cell_length_c 15.528870
_cell_angle_alpha 90.000000
_cell_angle_beta 90.000000
_cell_angle_gamma 90.000000
_cell_volume 2179.640108
_symmetry_space_group_name_H-M "P B C N"
_symmetry_group_IT_number 60
_symmetry_cell_setting 'orthorhombic'
loop_
_space_group_symop_operation_xyz
x,y,z
1/2-x,1/2-y,1/2+z
1/2+x,1/2-y,-z
-x,y,1/2-z
-x,-y,-z
1/2+x,1/2+y,1/2-z
1/2-x,1/2+y,z
x,-y,1/2+z
loop_
_atom_site_type_symbol
_atom_site_label
_atom_site_fract_x
_atom_site_fract_y
_atom_site_fract_z
Si Si1 0.062339 0.657609 0.332149
Si Si2 0.749229 0.726801 0.733971
Si Si3 0.331888 0.469656 0.678548
Si Si4 0.948634 0.868554 0.452498
Si Si5 0.089628 0.667820 0.889584
Si Si6 0.000000 0.155330 0.250000
O O1 0.157034 0.711681 0.299395
O O2 0.076767 0.506250 0.384548
O O3 0.000000 0.626800 0.250000
O O4 0.013289 0.782722 0.387445
O O5 0.733844 0.566051 0.767582
O O6 0.821723 0.716555 0.659483
O O7 0.786092 0.813347 0.817517
O O8 0.367591 0.552926 0.595646
O O9 0.418072 0.446439 0.735457
O O10 0.915620 0.745735 0.518768
O O11 0.000000 0.000000 0.500000
O O12 0.013483 0.742567 0.832274
#
# Coordination Sequence:
#
# PCOD9455628 Si02
#       6
#     8   8   8   8   8   4
#     4  12  24  45  74  99 137 187 239 279 346 423
#     4  11  24  44  71  98 134 184 233 282 340 420
#     4  11  22  44  67 100 131 179 232 275 348 409
#     4  12  26  44  70 103 140 181 226 293 349 410
#     4  11  24  44  67 106 137 179 234 293 345 400
#     4  10  20  40  76  86 138 186 234 272 338 430
#
# _framework density 20.186820000000001
#
# number of rings (size 3 to 8) (size 9 to 14) (size 15 to 20)
#    0.000    0.727    6.364    1.636    2.545    0.000 
#    6.545    0.000    0.000    0.000    0.000    0.000 
#    0.000    0.000    0.000    0.000    0.000    0.000 
#
# Total GULP energy -245538.499963 kJ/mol
# GULP energy per Si atom -5580.420454 kJ/mol
# Density = 2.014087 g / cm^3
# Si number density = 20.186820 Si / 1000 Ang^3
#
#
#
# Elastic Constant Matrix: (Units=GPa)
#
#
# Indices 1 2 3 4 5 6 
#
# 1 89.7158 22.3070 23.3778 0.0000 0.0000 0.0000
# 2 22.3070 80.4350 11.8514 0.0000 0.0000 0.0000
# 3 23.3778 11.8514 54.2369 0.0000 0.0000 0.0000
# 4 0.0000 0.0000 0.0000 35.9492 0.0000 0.0000
# 5 0.0000 0.0000 0.0000 0.0000 34.5618 0.0000
# 6 0.0000 0.0000 0.0000 0.0000 0.0000 17.1180
#
#
#
# Elastic Compliance Matrix: (Units=1/GPa)
#
#
# Indices 1 2 3 4 5 6 
#
# 1 0.013186 -0.002913 -0.005047 0.000000 0.000000 0.000000
# 2 -0.002913 0.013490 -0.001692 0.000000 0.000000 0.000000
# 3 -0.005047 -0.001692 0.020983 0.000000 0.000000 0.000000
# 4 0.000000 0.000000 0.000000 0.027817 0.000000 0.000000
# 5 0.000000 0.000000 0.000000 0.000000 0.028934 0.000000
# 6 0.000000 0.000000 0.000000 0.000000 0.000000 0.058418
#
#
# Mechanical properties :
#
#
# Convention : Reuss Voigt Hill
#
# Bulk Modulus (GPa) = 35.26843 37.71778 36.49311
# Shear Modulus (GPa) = 26.09844 28.64923 27.37384
#
# Velocity S-wave (km/s) = 3.59952 3.77132 3.68642
# Velocity P-wave (km/s) = 5.89782 6.13912 6.01968
#
# Compressibility (1/GPa) = 0.02835397
#
# Stress axis : x y z
#
# Youngs Moduli (GPa) = 75.83945 74.13111 47.65830
#
# Poissons Ratio (x) = 0.21596 0.24053
# Poissons Ratio (y) = 0.22093 0.08064
# Poissons Ratio (z) = 0.38275 0.12543
#
# Static dielectric constant tensor:
#      x y z
#    x 1.709110 0.000000 0.000000 
#    y 0.000000 1.723430 0.000000 
#    z 0.000000 0.000000 1.723720 
# 
# From -- ./inp_files/17288.got.cif
#   From: 2010.05.17/outbox.cif.g08.bks.cpg/sg60_9_cif.got.tgz:17288.got - 2010.06.03 14:59:27.
