data_PCOD9455731
_publ_section_title
;
Structure prediction by ZEFSAII (Michael W. Deem and Ramdas Pophale) SiO2 
 PCOD9455731
Probable space group: P B C N
;
_chemical_formula_sum "Si O2"
_cell_formula_units_Z 48
_cell_length_a 12.617033
_cell_length_b 8.715472
_cell_length_c 20.554996
_cell_angle_alpha 90.000000
_cell_angle_beta 90.000000
_cell_angle_gamma 90.000000
_cell_volume 2260.297203
_symmetry_space_group_name_H-M "P B C N"
_symmetry_group_IT_number 60
_symmetry_cell_setting 'orthorhombic'
loop_
_space_group_symop_operation_xyz
x,y,z
1/2-x,1/2-y,1/2+z
1/2+x,1/2-y,-z
-x,y,1/2-z
-x,-y,-z
1/2+x,1/2+y,1/2-z
1/2-x,1/2+y,z
x,-y,1/2+z
loop_
_atom_site_type_symbol
_atom_site_label
_atom_site_fract_x
_atom_site_fract_y
_atom_site_fract_z
Si Si1 0.662927 0.268149 0.242333
Si Si2 0.502841 0.156149 0.354452
Si Si3 0.380718 0.619444 0.229182
Si Si4 0.999755 0.377294 0.442136
Si Si5 0.171833 0.871056 0.576710
Si Si6 0.120783 0.794814 0.033991
O O1 0.596574 0.194441 0.302931
O O2 0.607138 0.197008 0.179528
O O3 0.640788 0.449163 0.243537
O O4 0.786755 0.231094 0.247672
O O5 0.522514 0.263998 0.417210
O O6 0.501241 0.979385 0.377521
O O7 0.500000 0.664730 0.250000
O O8 0.362962 0.605472 0.151470
O O9 0.095067 0.263182 0.461483
O O10 0.000000 0.500000 0.500000
O O11 0.897613 0.271610 0.446228
O O12 0.290995 0.815944 0.565464
O O13 0.151815 0.028812 0.539092
#
# Coordination Sequence:
#
# PCOD9455731 Si02
#       6
#     8   8   8   8   8   8
#     4  11  23  41  67  96 139 177 222 285 348 409
#     4  10  20  43  65  95 137 179 222 285 347 403
#     4  12  24  43  67 105 135 182 230 279 348 420
#     4  10  24  40  64  97 125 173 228 276 337 407
#     4  12  22  41  68  96 132 177 227 285 344 417
#     4  11  21  41  66  95 129 176 230 280 347 417
#
# _framework density 21.236145
#
# number of rings (size 3 to 8) (size 9 to 14) (size 15 to 20)
#    0.000    1.000    5.000    2.500    2.333    1.333 
#    0.000   11.667    0.000    0.000    0.000    0.000 
#    0.000    0.000    0.000    0.000    0.000    0.000 
#
# Total GULP energy -268142.182323 kJ/mol
# GULP energy per Si atom -5586.295465 kJ/mol
# Density = 2.118781 g / cm^3
# Si number density = 21.236145 Si / 1000 Ang^3
#
#
#
# Elastic Constant Matrix: (Units=GPa)
#
#
# Indices 1 2 3 4 5 6 
#
# 1 101.9781 -0.6479 2.0537 0.0000 0.0000 0.0000
# 2 -0.6479 62.7106 -5.5123 0.0000 0.0000 0.0000
# 3 2.0537 -5.5123 9.0121 0.0000 0.0000 0.0000
# 4 0.0000 0.0000 0.0000 6.6990 0.0000 0.0000
# 5 0.0000 0.0000 0.0000 0.0000 18.2996 0.0000
# 6 0.0000 0.0000 0.0000 0.0000 0.0000 8.2833
#
#
#
# Elastic Compliance Matrix: (Units=1/GPa)
#
#
# Indices 1 2 3 4 5 6 
#
# 1 0.009852 -0.000101 -0.002307 0.000000 0.000000 0.000000
# 2 -0.000101 0.016853 0.010331 0.000000 0.000000 0.000000
# 3 -0.002307 0.010331 0.117806 0.000000 0.000000 0.000000
# 4 0.000000 0.000000 0.000000 0.149275 0.000000 0.000000
# 5 0.000000 0.000000 0.000000 0.000000 0.054646 0.000000
# 6 0.000000 0.000000 0.000000 0.000000 0.000000 0.120725
#
#
# Mechanical properties :
#
#
# Convention : Reuss Voigt Hill
#
# Bulk Modulus (GPa) = 6.23602 18.38753 12.31177
# Shear Modulus (GPa) = 9.86652 18.51020 14.18836
#
# Velocity S-wave (km/s) = 2.15782 2.95555 2.58761
# Velocity P-wave (km/s) = 3.02508 4.50826 3.83898
#
# Compressibility (1/GPa) = 0.16035876
#
# Stress axis : x y z
#
# Youngs Moduli (GPa) = 101.50389 59.33535 8.48851
#
# Poissons Ratio (x) = 0.00599 0.01958
# Poissons Ratio (y) = 0.01025 -0.08770
# Poissons Ratio (z) = 0.23415 -0.61302
#
# Static dielectric constant tensor:
#      x y z
#    x 1.820350 0.000000 0.000000 
#    y 0.000000 1.761790 0.000000 
#    z 0.000000 0.000000 1.811610 
# 
# From -- ./inp_files/24218.got.cif
#   From: 2010.05.17/outbox.cif.g08.bks.cpg/sg60_13_cif.got.tgz:24218.got - 2010.06.03 14:59:27.
