data_PCOD9455397
_publ_section_title
;
Structure prediction by ZEFSAII (Michael W. Deem and Ramdas Pophale) SiO2 
 PCOD9455397
Probable space group: P B C N
;
_chemical_formula_sum "Si O2"
_cell_formula_units_Z 24
_cell_length_a 5.144029
_cell_length_b 17.996331
_cell_length_c 12.391640
_cell_angle_alpha 90.000000
_cell_angle_beta 90.000000
_cell_angle_gamma 90.000000
_cell_volume 1147.139326
_symmetry_space_group_name_H-M "P B C N"
_symmetry_group_IT_number 60
_symmetry_cell_setting 'orthorhombic'
loop_
_space_group_symop_operation_xyz
x,y,z
1/2-x,1/2-y,1/2+z
1/2+x,1/2-y,-z
-x,y,1/2-z
-x,-y,-z
1/2+x,1/2+y,1/2-z
1/2-x,1/2+y,z
x,-y,1/2+z
loop_
_atom_site_type_symbol
_atom_site_label
_atom_site_fract_x
_atom_site_fract_y
_atom_site_fract_z
Si Si1 0.686548 0.692443 0.648550
Si Si2 0.430718 0.913977 0.510580
Si Si3 0.944734 0.170286 0.071854
O O1 0.500000 0.681480 0.750000
O O2 0.849976 0.621246 0.606236
O O3 0.502532 0.707946 0.544703
O O4 0.876772 0.762858 0.651146
O O5 0.687040 0.877021 0.557365
O O6 0.188618 0.885691 0.584805
O O7 0.500000 0.000000 0.500000
#
# Coordination Sequence:
#
# PCOD9455397 Si02
#       3
#     8   8   8
#     4  10  21  38  67  98 131 177 227 272 343 408
#     4  10  20  38  63  90 131 177 215 278 344 391
#     4  10  20  39  60  95 129 172 220 288 323 401
#
# _framework density 20.921607000000002
#
# number of rings (size 3 to 8) (size 9 to 14) (size 15 to 20)
#    2.000    0.000    3.333    1.000    0.000    1.333 
#    0.000    0.000    7.333    0.000    0.000    0.000 
#    0.000    0.000    0.000    0.000    0.000    0.000 
#
# Total GULP energy -133618.666736 kJ/mol
# GULP energy per Si atom -5567.444447 kJ/mol
# Density = 2.087399 g / cm^3
# Si number density = 20.921607 Si / 1000 Ang^3
#
#
#
# Elastic Constant Matrix: (Units=GPa)
#
#
# Indices 1 2 3 4 5 6 
#
# 1 188.5704 91.3001 44.3980 0.0000 0.0000 0.0000
# 2 91.3001 213.2595 46.5519 0.0000 0.0000 0.0000
# 3 44.3980 46.5519 68.7528 0.0000 0.0000 0.0000
# 4 0.0000 0.0000 0.0000 0.7792 0.0000 0.0000
# 5 0.0000 0.0000 0.0000 0.0000 16.3825 0.0000
# 6 0.0000 0.0000 0.0000 0.0000 0.0000 25.2536
#
#
#
# Elastic Compliance Matrix: (Units=1/GPa)
#
#
# Indices 1 2 3 4 5 6 
#
# 1 0.007181 -0.002420 -0.002999 0.000000 0.000000 0.000000
# 2 -0.002420 0.006318 -0.002715 0.000000 0.000000 0.000000
# 3 -0.002999 -0.002715 0.018320 0.000000 0.000000 0.000000
# 4 0.000000 0.000000 0.000000 1.283321 0.000000 0.000000
# 5 0.000000 0.000000 0.000000 0.000000 0.061041 0.000000
# 6 0.000000 0.000000 0.000000 0.000000 0.000000 0.039598
#
#
# Mechanical properties :
#
#
# Convention : Reuss Voigt Hill
#
# Bulk Modulus (GPa) = 64.30405 92.78696 78.54551
# Shear Modulus (GPa) = 3.47892 27.70526 15.59209
#
# Velocity S-wave (km/s) = 1.29091 3.64296 2.73291
# Velocity P-wave (km/s) = 5.74668 7.88296 6.89802
#
# Compressibility (1/GPa) = 0.01555112
#
# Stress axis : x y z
#
# Youngs Moduli (GPa) = 139.26499 158.28648 54.58603
#
# Poissons Ratio (x) = 0.38298 0.16369
# Poissons Ratio (y) = 0.33696 0.14821
# Poissons Ratio (z) = 0.41761 0.42978
#
# Static dielectric constant tensor:
#      x y z
#    x 1.794030 0.000000 0.000000 
#    y 0.000000 1.770380 0.000000 
#    z 0.000000 0.000000 1.805150 
# 
# From -- ./inp_files/8683.got.cif
#   From: 2010.05.17/outbox.cif.g08.bks.cpg/sg60_5_cif.got.tgz:8683.got - 2010.06.03 14:59:27.
