data_PCOD9455807
_publ_section_title
;
Structure prediction by ZEFSAII (Michael W. Deem and Ramdas Pophale) SiO2 
 PCOD9455807
Probable space group: P B C N
;
_chemical_formula_sum "Si O2"
_cell_formula_units_Z 48
_cell_length_a 11.987178
_cell_length_b 13.985609
_cell_length_c 14.346254
_cell_angle_alpha 90.000000
_cell_angle_beta 90.000000
_cell_angle_gamma 90.000000
_cell_volume 2405.120569
_symmetry_space_group_name_H-M "P B C N"
_symmetry_group_IT_number 60
_symmetry_cell_setting 'orthorhombic'
loop_
_space_group_symop_operation_xyz
x,y,z
1/2-x,1/2-y,1/2+z
1/2+x,1/2-y,-z
-x,y,1/2-z
-x,-y,-z
1/2+x,1/2+y,1/2-z
1/2-x,1/2+y,z
x,-y,1/2+z
loop_
_atom_site_type_symbol
_atom_site_label
_atom_site_fract_x
_atom_site_fract_y
_atom_site_fract_z
Si Si1 0.814918 0.232370 0.035784
Si Si2 0.308752 0.285173 0.276767
Si Si3 0.274953 0.131961 0.134648
Si Si4 0.533042 0.570850 0.617753
Si Si5 0.471634 0.626813 0.090504
Si Si6 0.235610 0.087401 0.615114
O O1 0.754622 0.255322 0.130917
O O2 0.942117 0.208011 0.062332
O O3 0.810907 0.317383 0.961053
O O4 0.751893 0.144971 0.981583
O O5 0.336827 0.189970 0.217004
O O6 0.404977 0.355473 0.315926
O O7 0.235847 0.347663 0.204034
O O8 0.140593 0.148843 0.145859
O O9 0.285913 0.017736 0.125791
O O10 0.570410 0.587981 0.510895
O O11 0.544796 0.457998 0.637287
O O12 0.399869 0.583059 0.620206
#
# Coordination Sequence:
#
# PCOD9455807 Si02
#       6
#     8   8   8   8   8   8
#     4  10  21  34  57  88 111 158 191 241 296 357
#     4  11  21  32  56  92 116 152 189 245 296 356
#     4  10  21  38  56  89 122 148 193 250 293 356
#     4   9  17  34  60  86 112 144 192 249 297 338
#     4   9  18  35  59  86 116 147 189 246 298 341
#     4   9  21  37  57  87 119 147 197 252 294 342
#
# _framework density 19.957418000000001
#
# number of rings (size 3 to 8) (size 9 to 14) (size 15 to 20)
#    0.000    2.333    1.667    1.500    2.333    0.667 
#    0.000    0.000    0.000    4.000   47.667    0.000 
#    0.000    0.000    0.000    0.000    0.000    0.000 
#
# Total GULP energy -267476.996950 kJ/mol
# GULP energy per Si atom -5572.437436 kJ/mol
# Density = 1.991199 g / cm^3
# Si number density = 19.957418 Si / 1000 Ang^3
#
#
#
# Elastic Constant Matrix: (Units=GPa)
#
#
# Indices 1 2 3 4 5 6 
#
# 1 32.8852 22.7394 11.4864 0.0000 0.0000 0.0000
# 2 22.7394 129.9641 46.2812 0.0000 0.0000 0.0000
# 3 11.4864 46.2812 121.9862 0.0000 0.0000 0.0000
# 4 0.0000 0.0000 0.0000 -64.9981 0.0000 0.0000
# 5 0.0000 0.0000 0.0000 0.0000 22.5244 0.0000
# 6 0.0000 0.0000 0.0000 0.0000 0.0000 21.1319
#
#
#
# Elastic Compliance Matrix: (Units=1/GPa)
#
#
# Indices 1 2 3 4 5 6 
#
# 1 0.034725 -0.005679 -0.001115 0.000000 0.000000 0.000000
# 2 -0.005679 0.009825 -0.003193 0.000000 0.000000 0.000000
# 3 -0.001115 -0.003193 0.009514 0.000000 0.000000 0.000000
# 4 0.000000 0.000000 0.000000 -0.015385 0.000000 0.000000
# 5 0.000000 0.000000 0.000000 0.000000 0.044396 0.000000
# 6 0.000000 0.000000 0.000000 0.000000 0.000000 0.047322
#
#
# Mechanical properties :
#
#
# Convention : Reuss Voigt Hill
#
# Bulk Modulus (GPa) = 29.33371 49.53886 39.43629
# Shear Modulus (GPa) = 30.91497 9.35354 20.13426
#
# Velocity S-wave (km/s) = 3.94006 2.16724 3.17970
# Velocity P-wave (km/s) = 5.95221 5.58021 5.76921
#
# Compressibility (1/GPa) = 0.03409047
#
# Stress axis : x y z
#
# Youngs Moduli (GPa) = 28.79774 101.78125 105.10780
#
# Poissons Ratio (x) = 0.57797 0.11723
# Poissons Ratio (y) = 0.16353 0.33560
# Poissons Ratio (z) = 0.03212 0.32497
#
# Static dielectric constant tensor:
#      x y z
#    x 1.730720 0.000000 0.000000 
#    y 0.000000 1.787060 0.000000 
#    z 0.000000 0.000000 1.751360 
# 
# From -- ./inp_files/16074.got.cif
#   From: 2010.05.17/outbox.cif.g08.bks.cpg/sg60_9_cif.got.tgz:16074.got - 2010.06.03 14:59:27.
