data_PCOD9455023
_publ_section_title
;
Structure prediction by ZEFSAII (Michael W. Deem and Ramdas Pophale) SiO2 
 PCOD9455023
Probable space group: P B C N
;
_chemical_formula_sum "Si O2"
_cell_formula_units_Z 40
_cell_length_a 10.180327
_cell_length_b 20.192487
_cell_length_c 8.790648
_cell_angle_alpha 90.000000
_cell_angle_beta 90.000000
_cell_angle_gamma 90.000000
_cell_volume 1807.059407
_symmetry_space_group_name_H-M "P B C N"
_symmetry_group_IT_number 60
_symmetry_cell_setting 'orthorhombic'
loop_
_space_group_symop_operation_xyz
x,y,z
1/2-x,1/2-y,1/2+z
1/2+x,1/2-y,-z
-x,y,1/2-z
-x,-y,-z
1/2+x,1/2+y,1/2-z
1/2-x,1/2+y,z
x,-y,1/2+z
loop_
_atom_site_type_symbol
_atom_site_label
_atom_site_fract_x
_atom_site_fract_y
_atom_site_fract_z
Si Si1 0.172306 0.054237 0.006771
Si Si2 0.656593 0.066651 0.978957
Si Si3 0.328099 0.185390 0.084538
Si Si4 0.500000 0.481972 0.250000
Si Si5 0.000000 0.513625 0.250000
Si Si6 0.364589 0.206830 0.446049
O O1 0.277572 0.110936 0.044445
O O2 0.236116 0.983934 0.963443
O O3 0.078177 0.066303 0.864408
O O4 0.088441 0.032066 0.151686
O O5 0.606685 0.035405 0.822282
O O6 0.547612 0.058615 0.111265
O O7 0.692084 0.142241 0.968047
O O8 0.335151 0.196433 0.266686
O O9 0.476468 0.204197 0.029233
O O10 0.215454 0.231227 0.010125
#
# Coordination Sequence:
#
# PCOD9455023 Si02
#       6
#     8   8   8   4   4   8
#     4  11  23  42  67  97 134 176 222 275 333 398
#     4  11  21  39  65  95 128 167 218 274 329 389
#     4  11  26  46  68  96 134 176 224 278 335 399
#     4  10  24  40  64 100 136 174 220 274 338 398
#     4  10  20  34  64  98 124 154 212 280 330 376
#     4  11  26  45  66  97 134 176 224 277 335 400
#
# _framework density 22.135408999999999
#
# number of rings (size 3 to 8) (size 9 to 14) (size 15 to 20)
#    0.000    1.200    0.000    7.200    0.000   12.000 
#    0.000    0.000    0.000    0.000    0.000    0.000 
#    0.000    0.000    0.000    0.000    0.000    0.000 
#
# Total GULP energy -223435.076655 kJ/mol
# GULP energy per Si atom -5585.876916 kJ/mol
# Density = 2.208503 g / cm^3
# Si number density = 22.135409 Si / 1000 Ang^3
#
#
#
# Elastic Constant Matrix: (Units=GPa)
#
#
# Indices 1 2 3 4 5 6 
#
# 1 138.8856 55.8835 57.1578 0.0000 0.0000 0.0000
# 2 55.8835 95.2405 3.1117 0.0000 0.0000 0.0000
# 3 57.1578 3.1117 83.4641 0.0000 0.0000 0.0000
# 4 0.0000 0.0000 0.0000 -31.5910 0.0000 0.0000
# 5 0.0000 0.0000 0.0000 0.0000 30.7945 0.0000
# 6 0.0000 0.0000 0.0000 0.0000 0.0000 -17.0702
#
#
#
# Elastic Compliance Matrix: (Units=1/GPa)
#
#
# Indices 1 2 3 4 5 6 
#
# 1 0.014416 -0.008146 -0.009568 0.000000 0.000000 0.000000
# 2 -0.008146 0.015116 0.005015 0.000000 0.000000 0.000000
# 3 -0.009568 0.005015 0.018347 0.000000 0.000000 0.000000
# 4 0.000000 0.000000 0.000000 -0.031655 0.000000 0.000000
# 5 0.000000 0.000000 0.000000 0.000000 0.032473 0.000000
# 6 0.000000 0.000000 0.000000 0.000000 0.000000 -0.058582
#
#
# Mechanical properties :
#
#
# Convention : Reuss Voigt Hill
#
# Bulk Modulus (GPa) = 44.48531 61.09957 52.79244
# Shear Modulus (GPa) = 217.32196 9.85581 113.58888
#
# Velocity S-wave (km/s) = 9.91925 2.11239 7.17125
# Velocity P-wave (km/s) = 12.30160 5.79760 9.61617
#
# Compressibility (1/GPa) = 0.02247933
#
# Stress axis : x y z
#
# Youngs Moduli (GPa) = 69.36858 66.15660 54.50513
#
# Poissons Ratio (x) = 0.53891 0.52153
# Poissons Ratio (y) = 0.56508 -0.27334
# Poissons Ratio (z) = 0.66375 -0.33177
#
# Static dielectric constant tensor:
#      x y z
#    x 1.911500 0.000000 0.000000 
#    y 0.000000 1.836850 0.000000 
#    z 0.000000 0.000000 1.896540 
# 
# From -- ./inp_files/4948.got.cif
#   From: 2010.05.17/outbox.cif.g08.bks.cpg/sg60_3_cif.got.tgz:4948.got - 2010.06.03 14:59:27.
