data_PCOD9455600
_publ_section_title
;
Structure prediction by ZEFSAII (Michael W. Deem and Ramdas Pophale) SiO2 
 PCOD9455600
Probable space group: P B C N
;
_chemical_formula_sum "Si O2"
_cell_formula_units_Z 48
_cell_length_a 5.633247
_cell_length_b 16.993011
_cell_length_c 22.518489
_cell_angle_alpha 90.000000
_cell_angle_beta 90.000000
_cell_angle_gamma 90.000000
_cell_volume 2155.601010
_symmetry_space_group_name_H-M "P B C N"
_symmetry_group_IT_number 60
_symmetry_cell_setting 'orthorhombic'
loop_
_space_group_symop_operation_xyz
x,y,z
1/2-x,1/2-y,1/2+z
1/2+x,1/2-y,-z
-x,y,1/2-z
-x,-y,-z
1/2+x,1/2+y,1/2-z
1/2-x,1/2+y,z
x,-y,1/2+z
loop_
_atom_site_type_symbol
_atom_site_label
_atom_site_fract_x
_atom_site_fract_y
_atom_site_fract_z
Si Si1 0.863447 0.830455 0.408167
Si Si2 0.233429 0.947686 0.397189
Si Si3 0.260925 0.088955 0.475725
Si Si4 0.742622 0.349797 0.920854
Si Si5 0.628510 0.096000 0.804788
Si Si6 0.901031 0.054391 0.309655
O O1 0.741030 0.889932 0.455092
O O2 0.784178 0.743594 0.423439
O O3 0.802022 0.847132 0.339808
O O4 0.133033 0.861057 0.411870
O O5 0.456930 0.934711 0.356164
O O6 0.250581 0.997689 0.457288
O O7 0.066858 0.003480 0.355157
O O8 0.510539 0.117460 0.448087
O O9 0.015044 0.128681 0.450303
O O10 0.725693 0.384888 0.853930
O O11 0.500000 0.135775 0.750000
O O12 0.747976 0.016506 0.781517
O O13 0.000000 0.094760 0.250000
#
# Coordination Sequence:
#
# PCOD9455600 Si02
#       6
#     8   8   8   8   8   8
#     4  11  26  39  65 101 138 172 219 287 343 397
#     4  10  22  40  67  95 129 173 228 275 331 401
#     4  11  24  45  67  98 137 184 225 266 335 417
#     4  11  25  43  67  99 136 181 221 276 339 403
#     4  11  22  40  68  92 127 173 224 282 336 392
#     4  10  20  40  66  93 124 178 230 274 326 405
#
# _framework density 22.267572999999999
#
# number of rings (size 3 to 8) (size 9 to 14) (size 15 to 20)
#    0.000    1.333    3.333    1.500    4.667    1.333 
#    0.000    0.000   11.000    0.000    0.000    0.000 
#    0.000    0.000    0.000    0.000    0.000    0.000 
#
# Total GULP energy -267687.786616 kJ/mol
# GULP energy per Si atom -5576.828888 kJ/mol
# Density = 2.221689 g / cm^3
# Si number density = 22.267573 Si / 1000 Ang^3
#
#
#
# Elastic Constant Matrix: (Units=GPa)
#
#
# Indices 1 2 3 4 5 6 
#
# 1 84.0349 33.6804 28.0174 0.0000 0.0000 0.0000
# 2 33.6804 76.0921 12.5553 0.0000 0.0000 0.0000
# 3 28.0174 12.5553 119.9187 0.0000 0.0000 0.0000
# 4 0.0000 0.0000 0.0000 35.8088 0.0000 0.0000
# 5 0.0000 0.0000 0.0000 0.0000 27.1591 0.0000
# 6 0.0000 0.0000 0.0000 0.0000 0.0000 3.1735
#
#
#
# Elastic Compliance Matrix: (Units=1/GPa)
#
#
# Indices 1 2 3 4 5 6 
#
# 1 0.015421 -0.006341 -0.002939 0.000000 0.000000 0.000000
# 2 -0.006341 0.015980 -0.000192 0.000000 0.000000 0.000000
# 3 -0.002939 -0.000192 0.009046 0.000000 0.000000 0.000000
# 4 0.000000 0.000000 0.000000 0.027926 0.000000 0.000000
# 5 0.000000 0.000000 0.000000 0.000000 0.036820 0.000000
# 6 0.000000 0.000000 0.000000 0.000000 0.000000 0.315110
#
#
# Mechanical properties :
#
#
# Convention : Reuss Voigt Hill
#
# Bulk Modulus (GPa) = 46.50315 47.61689 47.06002
# Shear Modulus (GPa) = 11.20035 26.94777 19.07406
#
# Velocity S-wave (km/s) = 2.24518 3.48254 2.92992
# Velocity P-wave (km/s) = 5.25835 6.13198 5.71189
#
# Compressibility (1/GPa) = 0.02150392
#
# Stress axis : x y z
#
# Youngs Moduli (GPa) = 64.84643 62.57741 110.54956
#
# Poissons Ratio (x) = 0.39679 0.32491
# Poissons Ratio (y) = 0.41118 0.02119
# Poissons Ratio (z) = 0.19059 0.01199
#
# Static dielectric constant tensor:
#      x y z
#    x 1.962300 0.000000 0.000000 
#    y 0.000000 1.793020 0.000000 
#    z 0.000000 0.000000 1.827530 
# 
# From -- ./inp_files/23632.got.cif
#   From: 2010.05.17/outbox.cif.g08.bks.cpg/sg60_12_cif.got.tgz:23632.got - 2010.06.03 14:59:27.
