data_PCOD9455038
_publ_section_title
;
Structure prediction by ZEFSAII (Michael W. Deem and Ramdas Pophale) SiO2 
 PCOD9455038
Probable space group: P B C N
;
_chemical_formula_sum "Si O2"
_cell_formula_units_Z 48
_cell_length_a 26.842990
_cell_length_b 10.134046
_cell_length_c 8.400608
_cell_angle_alpha 90.000000
_cell_angle_beta 90.000000
_cell_angle_gamma 90.000000
_cell_volume 2285.201395
_symmetry_space_group_name_H-M "P B C N"
_symmetry_group_IT_number 60
_symmetry_cell_setting 'orthorhombic'
loop_
_space_group_symop_operation_xyz
x,y,z
1/2-x,1/2-y,1/2+z
1/2+x,1/2-y,-z
-x,y,1/2-z
-x,-y,-z
1/2+x,1/2+y,1/2-z
1/2-x,1/2+y,z
x,-y,1/2+z
loop_
_atom_site_type_symbol
_atom_site_label
_atom_site_fract_x
_atom_site_fract_y
_atom_site_fract_z
Si Si1 0.446187 0.153732 0.957295
Si Si2 0.358283 0.309898 0.975048
Si Si3 0.000000 0.128317 0.250000
Si Si4 0.736233 0.628446 0.852787
Si Si5 0.106888 0.043077 0.159758
Si Si6 0.500000 0.936876 0.750000
Si Si7 0.201288 0.152312 0.013968
O O1 0.387512 0.175475 0.949206
O O2 0.464977 0.144138 0.135461
O O3 0.472942 0.278374 0.877476
O O4 0.465406 0.028822 0.859710
O O5 0.301723 0.300361 0.023772
O O6 0.382144 0.391606 0.121356
O O7 0.369932 0.400121 0.822411
O O8 0.047210 0.058796 0.166357
O O9 0.729248 0.473166 0.898730
O O10 0.785950 0.710319 0.895663
O O11 0.718708 0.649391 0.670482
O O12 0.141947 0.122712 0.034026
#
# Coordination Sequence:
#
# PCOD9455038 Si02
#       7
#     8   8   4   8   8   4   8
#     4   9  19  34  53  74 106 145 188 235 281 337
#     4  10  20  35  55  82 114 148 188 235 290 349
#     4   9  20  35  54  84 114 147 192 237 288 352
#     4  11  22  40  63  90 121 158 199 246 303 361
#     4  10  20  35  56  84 119 152 190 241 294 351
#     4   9  18  35  52  72 104 147 190 237 284 328
#     4  11  22  40  64  89 123 158 198 248 302 360
#
# _framework density 21.004714
#
# number of rings (size 3 to 8) (size 9 to 14) (size 15 to 20)
#    0.000    2.000    0.000    6.000    0.000    6.000 
#    0.000   10.000    0.000    0.000    0.000    0.000 
#    0.000    0.000    0.000    0.000    0.000    0.000 
#
# Total GULP energy -267469.715158 kJ/mol
# GULP energy per Si atom -5572.285732 kJ/mol
# Density = 2.095691 g / cm^3
# Si number density = 21.004714 Si / 1000 Ang^3
#
#
#
# Elastic Constant Matrix: (Units=GPa)
#
#
# Indices 1 2 3 4 5 6 
#
# 1 74.2816 7.4379 -3.5770 0.0000 0.0000 0.0000
# 2 7.4379 29.3143 2.9573 0.0000 0.0000 0.0000
# 3 -3.5770 2.9573 105.7404 0.0000 0.0000 0.0000
# 4 0.0000 0.0000 0.0000 71.3740 0.0000 0.0000
# 5 0.0000 0.0000 0.0000 0.0000 26.0322 0.0000
# 6 0.0000 0.0000 0.0000 0.0000 0.0000 -108.7155
#
#
#
# Elastic Compliance Matrix: (Units=1/GPa)
#
#
# Indices 1 2 3 4 5 6 
#
# 1 0.013847 -0.003571 0.000568 0.000000 0.000000 0.000000
# 2 -0.003571 0.035130 -0.001103 0.000000 0.000000 0.000000
# 3 0.000568 -0.001103 0.009507 0.000000 0.000000 0.000000
# 4 0.000000 0.000000 0.000000 0.014011 0.000000 0.000000
# 5 0.000000 0.000000 0.000000 0.000000 0.038414 0.000000
# 6 0.000000 0.000000 0.000000 0.000000 0.000000 -0.009198
#
#
# Mechanical properties :
#
#
# Convention : Reuss Voigt Hill
#
# Bulk Modulus (GPa) = 19.89130 24.77473 22.33302
# Shear Modulus (GPa) = 39.46939 11.23935 25.35437
#
# Velocity S-wave (km/s) = 4.33953 2.31570 3.47807
# Velocity P-wave (km/s) = 5.88211 4.35551 5.17540
#
# Compressibility (1/GPa) = 0.05027323
#
# Stress axis : x y z
#
# Youngs Moduli (GPa) = 72.21676 28.46538 105.18336
#
# Poissons Ratio (x) = 0.10164 -0.05977
# Poissons Ratio (y) = 0.25787 0.11605
# Poissons Ratio (z) = -0.04104 0.03141
#
# Static dielectric constant tensor:
#      x y z
#    x 1.859210 0.000000 0.000000 
#    y 0.000000 1.749650 0.000000 
#    z 0.000000 0.000000 1.792220 
# 
# From -- ./inp_files/8125.got.cif
#   From: 2010.05.17/outbox.cif.g08.bks.cpg/sg60_5_cif.got.tgz:8125.got - 2010.06.03 14:59:27.
