data_PCOD9455887
_publ_section_title
;
Structure prediction by ZEFSAII (Michael W. Deem and Ramdas Pophale) SiO2 
 PCOD9455887
Probable space group: P B C N
;
_chemical_formula_sum "Si O2"
_cell_formula_units_Z 40
_cell_length_a 7.637721
_cell_length_b 22.595737
_cell_length_c 9.430660
_cell_angle_alpha 90.000000
_cell_angle_beta 90.000000
_cell_angle_gamma 90.000000
_cell_volume 1627.542690
_symmetry_space_group_name_H-M "P B C N"
_symmetry_group_IT_number 60
_symmetry_cell_setting 'orthorhombic'
loop_
_space_group_symop_operation_xyz
x,y,z
1/2-x,1/2-y,1/2+z
1/2+x,1/2-y,-z
-x,y,1/2-z
-x,-y,-z
1/2+x,1/2+y,1/2-z
1/2-x,1/2+y,z
x,-y,1/2+z
loop_
_atom_site_type_symbol
_atom_site_label
_atom_site_fract_x
_atom_site_fract_y
_atom_site_fract_z
Si Si1 0.610752 0.760338 0.883892
Si Si2 0.323235 0.934967 0.946411
Si Si3 0.316530 0.155135 0.680366
Si Si4 0.262803 0.951221 0.619657
Si Si5 0.147107 0.844468 0.457797
O O1 0.500000 0.783990 0.750000
O O2 0.780793 0.725196 0.826883
O O3 0.677809 0.810235 0.987940
O O4 0.496421 0.707415 0.951591
O O5 0.254000 0.946432 0.788815
O O6 0.535061 0.938314 0.928502
O O7 0.291596 0.873590 0.027351
O O8 0.242949 0.984137 0.052100
O O9 0.500000 0.138712 0.750000
O O10 0.179894 0.133772 0.798545
O O11 0.134319 0.901682 0.555526
#
# Coordination Sequence:
#
# PCOD9455887 Si02
#       5
#     8   8   8   8   8
#     4  10  25  41  63  97 131 175 225 273 332 400
#     4  10  21  36  62  98 123 165 215 268 333 401
#     4  11  21  39  64  91 127 166 212 265 329 394
#     4  10  21  36  63  93 130 161 217 272 325 402
#     4  11  22  40  63  91 130 171 215 276 325 393
#
# _framework density 24.576927999999999
#
# number of rings (size 3 to 8) (size 9 to 14) (size 15 to 20)
#    0.000    1.600    2.000    2.400    5.600    1.600 
#    0.000    6.000    0.000    0.000    0.000    0.000 
#    0.000    0.000    0.000    0.000    0.000    0.000 
#
# Total GULP energy -223671.494383 kJ/mol
# GULP energy per Si atom -5591.787360 kJ/mol
# Density = 2.452099 g / cm^3
# Si number density = 24.576928 Si / 1000 Ang^3
#
#
#
# Elastic Constant Matrix: (Units=GPa)
#
#
# Indices 1 2 3 4 5 6 
#
# 1 77.9611 28.2264 31.0482 0.0000 0.0000 0.0000
# 2 28.2264 35.1038 28.1043 0.0000 0.0000 0.0000
# 3 31.0482 28.1043 144.9208 0.0000 0.0000 0.0000
# 4 0.0000 0.0000 0.0000 50.9137 0.0000 0.0000
# 5 0.0000 0.0000 0.0000 0.0000 15.7686 0.0000
# 6 0.0000 0.0000 0.0000 0.0000 0.0000 28.3754
#
#
#
# Elastic Compliance Matrix: (Units=1/GPa)
#
#
# Indices 1 2 3 4 5 6 
#
# 1 0.018288 -0.013694 -0.001262 0.000000 0.000000 0.000000
# 2 -0.013694 0.043977 -0.005595 0.000000 0.000000 0.000000
# 3 -0.001262 -0.005595 0.008256 0.000000 0.000000 0.000000
# 4 0.000000 0.000000 0.000000 0.019641 0.000000 0.000000
# 5 0.000000 0.000000 0.000000 0.000000 0.063417 0.000000
# 6 0.000000 0.000000 0.000000 0.000000 0.000000 0.035242
#
#
# Mechanical properties :
#
#
# Convention : Reuss Voigt Hill
#
# Bulk Modulus (GPa) = 33.99222 48.08261 41.03742
# Shear Modulus (GPa) = 20.85687 30.38534 25.62111
#
# Velocity S-wave (km/s) = 2.91630 3.51997 3.23226
# Velocity P-wave (km/s) = 5.02003 6.01056 5.53749
#
# Compressibility (1/GPa) = 0.02941850
#
# Stress axis : x y z
#
# Youngs Moduli (GPa) = 54.68144 22.73900 121.12828
#
# Poissons Ratio (x) = 0.31139 0.15290
# Poissons Ratio (y) = 0.74882 0.67766
# Poissons Ratio (z) = 0.06902 0.12721
#
# Static dielectric constant tensor:
#      x y z
#    x 2.046520 0.000000 0.000000 
#    y 0.000000 1.906300 0.000000 
#    z 0.000000 0.000000 1.943590 
# 
# From -- ./inp_files/3843.got.cif
#   From: 2010.05.17/outbox.cif.g08.bks.cpg/sg60_2_cif.got.tgz:3843.got - 2010.06.03 14:59:27.
