data_PCOD9455537
_publ_section_title
;
Structure prediction by ZEFSAII (Michael W. Deem and Ramdas Pophale) SiO2 
 PCOD9455537
Probable space group: P B C N
;
_chemical_formula_sum "Si O2"
_cell_formula_units_Z 56
_cell_length_a 20.277988
_cell_length_b 9.377675
_cell_length_c 13.847265
_cell_angle_alpha 90.000000
_cell_angle_beta 90.000000
_cell_angle_gamma 90.000000
_cell_volume 2633.201190
_symmetry_space_group_name_H-M "P B C N"
_symmetry_group_IT_number 60
_symmetry_cell_setting 'orthorhombic'
loop_
_space_group_symop_operation_xyz
x,y,z
1/2-x,1/2-y,1/2+z
1/2+x,1/2-y,-z
-x,y,1/2-z
-x,-y,-z
1/2+x,1/2+y,1/2-z
1/2-x,1/2+y,z
x,-y,1/2+z
loop_
_atom_site_type_symbol
_atom_site_label
_atom_site_fract_x
_atom_site_fract_y
_atom_site_fract_z
Si Si1 0.922563 0.916055 0.242552
Si Si2 0.719169 0.234744 0.957953
Si Si3 0.905112 0.059378 0.429616
Si Si4 0.552865 0.353195 0.599648
Si Si5 0.574337 0.952481 0.015727
Si Si6 0.820028 0.443249 0.861915
Si Si7 0.160174 0.336282 0.851680
O O1 0.880576 0.803351 0.182023
O O2 0.000000 0.871425 0.250000
O O3 0.893362 0.940385 0.347964
O O4 0.923580 0.075837 0.198582
O O5 0.654636 0.332966 0.941438
O O6 0.780466 0.322645 0.919689
O O7 0.711604 0.092818 0.894454
O O8 0.718718 0.201009 0.072865
O O9 0.973298 0.141093 0.405321
O O10 0.920612 0.969678 0.524418
O O11 0.576543 0.198447 0.570264
O O12 0.613227 0.064996 0.082282
O O13 0.607875 0.943340 0.910391
O O14 0.500000 0.000000 0.000000
O O15 0.819439 0.413611 0.747785
#
# Coordination Sequence:
#
# PCOD9455537 Si02
#       7
#     8   8   8   8   8   8   8
#     4  10  22  37  67 104 131 179 230 277 346 422
#     4  11  26  49  68 100 139 184 236 295 347 430
#     4  10  21  40  69  97 138 170 236 288 337 419
#     4  10  20  39  69  98 131 179 224 280 357 410
#     4  11  26  44  68 105 146 182 228 298 364 427
#     4  11  28  45  71 101 139 186 243 290 364 427
#     4  11  25  47  70 103 139 187 230 299 356 426
#
# _framework density 21.26689
#
# number of rings (size 3 to 8) (size 9 to 14) (size 15 to 20)
#    0.000    1.429    1.429    2.571   12.000    2.286 
#    2.571    0.000    0.000    0.000    0.000    0.000 
#    0.000    0.000    0.000    0.000    0.000    0.000 
#
# Total GULP energy -313091.112699 kJ/mol
# GULP energy per Si atom -5590.912727 kJ/mol
# Density = 2.121849 g / cm^3
# Si number density = 21.266890 Si / 1000 Ang^3
#
#
#
# Elastic Constant Matrix: (Units=GPa)
#
#
# Indices 1 2 3 4 5 6 
#
# 1 55.8128 12.8781 29.4905 0.0000 0.0000 0.0000
# 2 12.8781 74.3382 16.5551 0.0000 0.0000 0.0000
# 3 29.4905 16.5551 146.4631 0.0000 0.0000 0.0000
# 4 0.0000 0.0000 0.0000 31.3757 0.0000 0.0000
# 5 0.0000 0.0000 0.0000 0.0000 23.0909 0.0000
# 6 0.0000 0.0000 0.0000 0.0000 0.0000 21.3865
#
#
#
# Elastic Compliance Matrix: (Units=1/GPa)
#
#
# Indices 1 2 3 4 5 6 
#
# 1 0.020569 -0.002709 -0.003835 0.000000 0.000000 0.000000
# 2 -0.002709 0.014156 -0.001055 0.000000 0.000000 0.000000
# 3 -0.003835 -0.001055 0.007719 0.000000 0.000000 0.000000
# 4 0.000000 0.000000 0.000000 0.031872 0.000000 0.000000
# 5 0.000000 0.000000 0.000000 0.000000 0.043307 0.000000
# 6 0.000000 0.000000 0.000000 0.000000 0.000000 0.046758
#
#
# Mechanical properties :
#
#
# Convention : Reuss Voigt Hill
#
# Bulk Modulus (GPa) = 36.70281 43.82905 40.26593
# Shear Modulus (GPa) = 26.50252 29.68332 28.09292
#
# Velocity S-wave (km/s) = 3.53397 3.74003 3.63846
# Velocity P-wave (km/s) = 5.82645 6.26931 6.05193
#
# Compressibility (1/GPa) = 0.02724587
#
# Stress axis : x y z
#
# Youngs Moduli (GPa) = 48.61775 70.64037 129.54864
#
# Poissons Ratio (x) = 0.19137 0.49686
# Poissons Ratio (y) = 0.13171 0.13663
# Poissons Ratio (z) = 0.18646 0.07450
#
# Static dielectric constant tensor:
#      x y z
#    x 1.781210 0.000000 0.000000 
#    y 0.000000 1.756520 0.000000 
#    z 0.000000 0.000000 1.776860 
# 
# From -- ./inp_files/17733.got.cif
#   From: 2010.05.17/outbox.cif.g08.bks.cpg/sg60_9_cif.got.tgz:17733.got - 2010.06.03 14:59:27.
