data_PCOD9455898
_publ_section_title
;
Structure prediction by ZEFSAII (Michael W. Deem and Ramdas Pophale) SiO2 
 PCOD9455898
Probable space group: P B C N
;
_chemical_formula_sum "Si O2"
_cell_formula_units_Z 28
_cell_length_a 5.406652
_cell_length_b 32.895127
_cell_length_c 7.804491
_cell_angle_alpha 90.000000
_cell_angle_beta 90.000000
_cell_angle_gamma 90.000000
_cell_volume 1388.048268
_symmetry_space_group_name_H-M "P B C N"
_symmetry_group_IT_number 60
_symmetry_cell_setting 'orthorhombic'
loop_
_space_group_symop_operation_xyz
x,y,z
1/2-x,1/2-y,1/2+z
1/2+x,1/2-y,-z
-x,y,1/2-z
-x,-y,-z
1/2+x,1/2+y,1/2-z
1/2-x,1/2+y,z
x,-y,1/2+z
loop_
_atom_site_type_symbol
_atom_site_label
_atom_site_fract_x
_atom_site_fract_y
_atom_site_fract_z
Si Si1 0.167580 0.460582 0.504652
Si Si2 0.500000 0.658333 0.750000
Si Si3 0.509688 0.274994 0.954386
Si Si4 0.000000 0.006825 0.250000
Si Si5 0.500000 0.105967 0.750000
O O1 0.285061 0.462295 0.691728
O O2 0.396790 0.474536 0.386460
O O3 0.000000 0.500000 0.500000
O O4 0.036879 0.422887 0.416406
O O5 0.518063 0.686330 0.580341
O O6 0.249446 0.632133 0.736239
O O7 0.500000 0.283713 0.750000
O O8 0.259524 0.250535 0.005147
#
# Coordination Sequence:
#
# PCOD9455898 Si02
#       5
#     8   4   8   4   4
#     4  11  21  40  64  93 124 187 242 291 346 427
#     4  12  27  46  70 112 151 180 233 300 378 410
#     4  12  23  46  81 110 140 189 237 281 338 450
#     4  10  21  36  66  90 119 164 268 281 332 416
#     4  12  26  44  68  96 152 182 225 321 368 402
#
# _framework density 20.172208999999999
#
# number of rings (size 3 to 8) (size 9 to 14) (size 15 to 20)
#    0.000    0.571    5.714    2.571    4.000    0.000 
#    2.571    0.000    0.000    0.000    0.000    0.000 
#    0.000    0.000    0.000    0.000    0.000    0.000 
#
# Total GULP energy -156153.970493 kJ/mol
# GULP energy per Si atom -5576.927518 kJ/mol
# Density = 2.012630 g / cm^3
# Si number density = 20.172209 Si / 1000 Ang^3
#
#
#
# Elastic Constant Matrix: (Units=GPa)
#
#
# Indices 1 2 3 4 5 6 
#
# 1 161.2527 81.6479 33.4650 0.0000 0.0000 0.0000
# 2 81.6479 137.5759 59.4111 0.0000 0.0000 0.0000
# 3 33.4650 59.4111 118.2206 0.0000 0.0000 0.0000
# 4 0.0000 0.0000 0.0000 43.9657 0.0000 0.0000
# 5 0.0000 0.0000 0.0000 0.0000 46.8976 0.0000
# 6 0.0000 0.0000 0.0000 0.0000 0.0000 52.8349
#
#
#
# Elastic Compliance Matrix: (Units=1/GPa)
#
#
# Indices 1 2 3 4 5 6 
#
# 1 0.008868 -0.005337 0.000172 0.000000 0.000000 0.000000
# 2 -0.005337 0.012496 -0.004769 0.000000 0.000000 0.000000
# 3 0.000172 -0.004769 0.010807 0.000000 0.000000 0.000000
# 4 0.000000 0.000000 0.000000 0.022745 0.000000 0.000000
# 5 0.000000 0.000000 0.000000 0.000000 0.021323 0.000000
# 6 0.000000 0.000000 0.000000 0.000000 0.000000 0.018927
#
#
# Mechanical properties :
#
#
# Convention : Reuss Voigt Hill
#
# Bulk Modulus (GPa) = 81.28686 85.12191 83.20438
# Shear Modulus (GPa) = 41.96937 44.90800 43.43868
#
# Velocity S-wave (km/s) = 4.56626 4.72341 4.64550
# Velocity P-wave (km/s) = 8.25741 8.48745 8.37322
#
# Compressibility (1/GPa) = 0.01230211
#
# Stress axis : x y z
#
# Youngs Moduli (GPa) = 112.76190 80.02798 92.53582
#
# Poissons Ratio (x) = 0.42713 -0.01591
# Poissons Ratio (y) = 0.60185 0.44128
# Poissons Ratio (z) = -0.01938 0.38163
#
# Static dielectric constant tensor:
#      x y z
#    x 1.718770 0.000000 0.000000 
#    y 0.000000 1.702950 0.000000 
#    z 0.000000 0.000000 1.942180 
# 
# From -- ./inp_files/2988.got.cif
#   From: 2010.05.17/outbox.cif.g08.bks.cpg/sg60_2_cif.got.tgz:2988.got - 2010.06.03 14:59:27.
