data_PCOD9455860
_publ_section_title
;
Structure prediction by ZEFSAII (Michael W. Deem and Ramdas Pophale) SiO2 
 PCOD9455860
Probable space group: P B C N
;
_chemical_formula_sum "Si O2"
_cell_formula_units_Z 40
_cell_length_a 4.987881
_cell_length_b 17.523399
_cell_length_c 20.512138
_cell_angle_alpha 90.000000
_cell_angle_beta 90.000000
_cell_angle_gamma 90.000000
_cell_volume 1792.855810
_symmetry_space_group_name_H-M "P B C N"
_symmetry_group_IT_number 60
_symmetry_cell_setting 'orthorhombic'
loop_
_space_group_symop_operation_xyz
x,y,z
1/2-x,1/2-y,1/2+z
1/2+x,1/2-y,-z
-x,y,1/2-z
-x,-y,-z
1/2+x,1/2+y,1/2-z
1/2-x,1/2+y,z
x,-y,1/2+z
loop_
_atom_site_type_symbol
_atom_site_label
_atom_site_fract_x
_atom_site_fract_y
_atom_site_fract_z
Si Si1 0.060384 0.405632 0.883245
Si Si2 0.894432 0.445236 0.058569
Si Si3 0.142080 0.743071 0.317113
Si Si4 0.352905 0.207236 0.604204
Si Si5 0.945834 0.857364 0.961370
O O1 0.137521 0.494465 0.882522
O O2 0.125366 0.348996 0.824252
O O3 0.252819 0.372929 0.940183
O O4 0.753874 0.392426 0.905625
O O5 0.083252 0.377800 0.082899
O O6 0.643621 0.401305 0.026148
O O7 0.000000 0.500000 0.000000
O O8 0.439599 0.769162 0.337514
O O9 0.000000 0.765894 0.250000
O O10 0.946152 0.778010 0.371786
O O11 0.402567 0.267153 0.545496
#
# Coordination Sequence:
#
# PCOD9455860 Si02
#       5
#     8   8   8   8   8
#     4   9  19  35  56  82 109 144 187 224 278 338
#     4  10  21  36  57  86 123 150 177 230 289 346
#     4  10  21  41  61  79 109 151 198 249 284 321
#     4  10  22  36  59  88 112 150 200 229 277 354
#     4   9  19  34  53  81 115 149 178 216 272 339
#
# _framework density 22.310773999999999
#
# number of rings (size 3 to 8) (size 9 to 14) (size 15 to 20)
#    0.000    2.400    0.000    1.200    0.000   14.400 
#    0.000    2.000    0.000    0.000    0.000    0.000 
#    0.000    0.000    0.000    0.000    0.000    0.000 
#
# Total GULP energy -223231.635308 kJ/mol
# GULP energy per Si atom -5580.790883 kJ/mol
# Density = 2.225999 g / cm^3
# Si number density = 22.310774 Si / 1000 Ang^3
#
#
#
# Elastic Constant Matrix: (Units=GPa)
#
#
# Indices 1 2 3 4 5 6 
#
# 1 69.0024 -7.8441 15.3896 0.0000 0.0000 0.0000
# 2 -7.8441 143.6624 22.6472 0.0000 0.0000 0.0000
# 3 15.3896 22.6472 42.8722 0.0000 0.0000 0.0000
# 4 0.0000 0.0000 0.0000 7.9724 0.0000 0.0000
# 5 0.0000 0.0000 0.0000 0.0000 26.7922 0.0000
# 6 0.0000 0.0000 0.0000 0.0000 0.0000 27.8189
#
#
#
# Elastic Compliance Matrix: (Units=1/GPa)
#
#
# Indices 1 2 3 4 5 6 
#
# 1 0.016249 0.001971 -0.006874 0.000000 0.000000 0.000000
# 2 0.001971 0.007832 -0.004845 0.000000 0.000000 0.000000
# 3 -0.006874 -0.004845 0.028352 0.000000 0.000000 0.000000
# 4 0.000000 0.000000 0.000000 0.125433 0.000000 0.000000
# 5 0.000000 0.000000 0.000000 0.000000 0.037324 0.000000
# 6 0.000000 0.000000 0.000000 0.000000 0.000000 0.035947
#
#
# Mechanical properties :
#
#
# Convention : Reuss Voigt Hill
#
# Bulk Modulus (GPa) = 30.36052 35.10250 32.73151
# Shear Modulus (GPa) = 17.75485 27.53964 22.64725
#
# Velocity S-wave (km/s) = 2.82405 3.51716 3.18949
# Velocity P-wave (km/s) = 4.92658 5.67992 5.31661
#
# Compressibility (1/GPa) = 0.03293751
#
# Stress axis : x y z
#
# Youngs Moduli (GPa) = 61.54071 127.67943 35.27092
#
# Poissons Ratio (x) = -0.25164 0.24245
# Poissons Ratio (y) = -0.12129 0.17088
# Poissons Ratio (z) = 0.42304 0.61858
#
# Static dielectric constant tensor:
#      x y z
#    x 1.830620 0.000000 0.000000 
#    y 0.000000 1.864630 0.000000 
#    z 0.000000 0.000000 1.881440 
# 
# From -- ./inp_files/23527.got.cif
#   From: 2010.05.17/outbox.cif.g08.bks.cpg/sg60_12_cif.got.tgz:23527.got - 2010.06.03 14:59:27.
