data_PCOD9455134
_publ_section_title
;
Structure prediction by ZEFSAII (Michael W. Deem and Ramdas Pophale) SiO2 
 PCOD9455134
Probable space group: P B C N
;
_chemical_formula_sum "Si O2"
_cell_formula_units_Z 48
_cell_length_a 8.474323
_cell_length_b 33.021242
_cell_length_c 9.147424
_cell_angle_alpha 90.000000
_cell_angle_beta 90.000000
_cell_angle_gamma 90.000000
_cell_volume 2559.748087
_symmetry_space_group_name_H-M "P B C N"
_symmetry_group_IT_number 60
_symmetry_cell_setting 'orthorhombic'
loop_
_space_group_symop_operation_xyz
x,y,z
1/2-x,1/2-y,1/2+z
1/2+x,1/2-y,-z
-x,y,1/2-z
-x,-y,-z
1/2+x,1/2+y,1/2-z
1/2-x,1/2+y,z
x,-y,1/2+z
loop_
_atom_site_type_symbol
_atom_site_label
_atom_site_fract_x
_atom_site_fract_y
_atom_site_fract_z
Si Si1 0.155146 0.086573 0.155223
Si Si2 0.847710 0.618035 0.068132
Si Si3 0.436852 0.793092 0.909206
Si Si4 0.934457 0.778123 0.588073
Si Si5 0.022191 0.858915 0.077486
Si Si6 0.948978 0.459982 0.916796
O O1 0.268438 0.109957 0.271789
O O2 0.263683 0.051154 0.088646
O O3 0.000000 0.074138 0.250000
O O4 0.094077 0.114631 0.023931
O O5 0.950395 0.658771 0.069265
O O6 0.952726 0.579265 0.029001
O O7 0.698741 0.626127 0.963650
O O8 0.500000 0.782049 0.750000
O O9 0.252382 0.783083 0.911125
O O10 0.519345 0.765957 0.030919
O O11 0.996596 0.812752 0.478239
O O12 0.000000 0.785840 0.750000
O O13 0.000000 0.862372 0.250000
O O14 0.000000 0.465743 0.750000
O O15 0.000000 0.500000 0.000000
#
# Coordination Sequence:
#
# PCOD9455134 Si02
#       6
#     8   8   8   8   8   8
#     4   9  18  37  62  83 111 150 188 227 284 343
#     4   9  20  39  59  82 111 149 186 227 287 344
#     4  11  21  37  58  81 110 148 194 239 280 334
#     4  11  23  37  55  82 116 153 189 232 286 339
#     4  10  20  36  58  85 114 147 190 234 275 331
#     4  10  21  38  59  85 116 147 185 233 286 343
#
# _framework density 18.751844999999999
#
# number of rings (size 3 to 8) (size 9 to 14) (size 15 to 20)
#    0.000    2.000    0.000    5.500    0.000    4.000 
#    0.000    9.167    0.000    0.000    0.000    0.000 
#    0.000    0.000    0.000    0.000    0.000    0.000 
#
# Total GULP energy -267980.289833 kJ/mol
# GULP energy per Si atom -5582.922705 kJ/mol
# Density = 1.870917 g / cm^3
# Si number density = 18.751845 Si / 1000 Ang^3
#
#
#
# Elastic Constant Matrix: (Units=GPa)
#
#
# Indices 1 2 3 4 5 6 
#
# 1 71.9980 67.6483 28.9463 0.0000 0.0000 0.0000
# 2 67.6483 137.1435 49.8589 0.0000 0.0000 0.0000
# 3 28.9463 49.8589 105.8614 0.0000 0.0000 0.0000
# 4 0.0000 0.0000 0.0000 16.1803 0.0000 0.0000
# 5 0.0000 0.0000 0.0000 0.0000 21.3135 0.0000
# 6 0.0000 0.0000 0.0000 0.0000 0.0000 27.1010
#
#
#
# Elastic Compliance Matrix: (Units=1/GPa)
#
#
# Indices 1 2 3 4 5 6 
#
# 1 0.026033 -0.012371 -0.001291 0.000000 0.000000 0.000000
# 2 -0.012371 0.014677 -0.003530 0.000000 0.000000 0.000000
# 3 -0.001291 -0.003530 0.011462 0.000000 0.000000 0.000000
# 4 0.000000 0.000000 0.000000 0.061804 0.000000 0.000000
# 5 0.000000 0.000000 0.000000 0.000000 0.046919 0.000000
# 6 0.000000 0.000000 0.000000 0.000000 0.000000 0.036899
#
#
# Mechanical properties :
#
#
# Convention : Reuss Voigt Hill
#
# Bulk Modulus (GPa) = 56.22372 67.54554 61.88463
# Shear Modulus (GPa) = 20.99888 24.15559 22.57724
#
# Velocity S-wave (km/s) = 3.35002 3.59300 3.47364
# Velocity P-wave (km/s) = 6.70907 7.30150 7.01154
#
# Compressibility (1/GPa) = 0.01778609
#
# Stress axis : x y z
#
# Youngs Moduli (GPa) = 38.41338 68.13188 87.24467
#
# Poissons Ratio (x) = 0.84289 0.11267
# Poissons Ratio (y) = 0.47523 0.30797
# Poissons Ratio (z) = 0.04961 0.24051
#
# Static dielectric constant tensor:
#      x y z
#    x 1.671740 0.000000 0.000000 
#    y 0.000000 1.662070 0.000000 
#    z 0.000000 0.000000 1.626200 
# 
# From -- ./inp_files/4201.got.cif
#   From: 2010.05.17/outbox.cif.g08.bks.cpg/sg60_3_cif.got.tgz:4201.got - 2010.06.03 14:59:27.
