data_PCOD9455578
_publ_section_title
;
Structure prediction by ZEFSAII (Michael W. Deem and Ramdas Pophale) SiO2 
 PCOD9455578
Probable space group: P B C N
;
_chemical_formula_sum "Si O2"
_cell_formula_units_Z 40
_cell_length_a 8.888343
_cell_length_b 8.077395
_cell_length_c 25.182566
_cell_angle_alpha 90.000000
_cell_angle_beta 90.000000
_cell_angle_gamma 90.000000
_cell_volume 1807.973696
_symmetry_space_group_name_H-M "P B C N"
_symmetry_group_IT_number 60
_symmetry_cell_setting 'orthorhombic'
loop_
_space_group_symop_operation_xyz
x,y,z
1/2-x,1/2-y,1/2+z
1/2+x,1/2-y,-z
-x,y,1/2-z
-x,-y,-z
1/2+x,1/2+y,1/2-z
1/2-x,1/2+y,z
x,-y,1/2+z
loop_
_atom_site_type_symbol
_atom_site_label
_atom_site_fract_x
_atom_site_fract_y
_atom_site_fract_z
Si Si1 0.642509 0.760216 0.778271
Si Si2 0.551258 0.038546 0.059098
Si Si3 0.104562 0.586095 0.662294
Si Si4 0.343682 0.364949 0.395974
Si Si5 0.859030 0.847838 0.682149
O O1 0.500000 0.673521 0.750000
O O2 0.731339 0.645784 0.819719
O O3 0.759970 0.843332 0.735927
O O4 0.572044 0.913177 0.809553
O O5 0.441069 0.946571 0.101401
O O6 0.719218 0.962720 0.068915
O O7 0.554102 0.237040 0.070893
O O8 0.500000 0.000000 0.000000
O O9 0.997784 0.725472 0.686580
O O10 0.408070 0.492222 0.352087
O O11 0.251164 0.241924 0.358836
#
# Coordination Sequence:
#
# PCOD9455578 Si02
#       5
#     8   8   8   8   8
#     4  12  23  38  61  94 134 167 206 269 330 399
#     4  10  22  43  66  94 130 172 229 293 341 386
#     4  11  26  41  61  94 128 174 228 262 324 412
#     4   9  19  38  67  92 122 168 222 273 328 394
#     4  10  20  40  64  90 124 171 211 253 320 399
#
# _framework density 22.124215
#
# number of rings (size 3 to 8) (size 9 to 14) (size 15 to 20)
#    0.000    1.600    0.000    6.600    0.000    6.400 
#    0.000    9.000    0.000    0.000    0.000    0.000 
#    0.000    0.000    0.000    0.000    0.000    0.000 
#
# Total GULP energy -223243.521529 kJ/mol
# GULP energy per Si atom -5581.088038 kJ/mol
# Density = 2.207386 g / cm^3
# Si number density = 22.124215 Si / 1000 Ang^3
#
#
#
# Elastic Constant Matrix: (Units=GPa)
#
#
# Indices 1 2 3 4 5 6 
#
# 1 109.5718 35.5552 62.2896 0.0000 0.0000 0.0000
# 2 35.5552 81.2738 35.3954 0.0000 0.0000 0.0000
# 3 62.2896 35.3954 168.3725 0.0000 0.0000 0.0000
# 4 0.0000 0.0000 0.0000 32.1191 0.0000 0.0000
# 5 0.0000 0.0000 0.0000 0.0000 36.9150 0.0000
# 6 0.0000 0.0000 0.0000 0.0000 0.0000 43.8433
#
#
#
# Elastic Compliance Matrix: (Units=1/GPa)
#
#
# Indices 1 2 3 4 5 6 
#
# 1 0.012548 -0.003817 -0.003840 0.000000 0.000000 0.000000
# 2 -0.003817 0.014705 -0.001679 0.000000 0.000000 0.000000
# 3 -0.003840 -0.001679 0.007713 0.000000 0.000000 0.000000
# 4 0.000000 0.000000 0.000000 0.031134 0.000000 0.000000
# 5 0.000000 0.000000 0.000000 0.000000 0.027089 0.000000
# 6 0.000000 0.000000 0.000000 0.000000 0.000000 0.022808
#
#
# Mechanical properties :
#
#
# Convention : Reuss Voigt Hill
#
# Bulk Modulus (GPa) = 61.37289 69.52207 65.44748
# Shear Modulus (GPa) = 35.68854 37.64068 36.66461
#
# Velocity S-wave (km/s) = 4.02070 4.12920 4.07531
# Velocity P-wave (km/s) = 7.02531 7.36379 7.19654
#
# Compressibility (1/GPa) = 0.01629384
#
# Stress axis : x y z
#
# Youngs Moduli (GPa) = 79.69502 68.00265 129.65636
#
# Poissons Ratio (x) = 0.25958 0.49783
# Poissons Ratio (y) = 0.30421 0.21772
# Poissons Ratio (z) = 0.30600 0.11419
#
# Static dielectric constant tensor:
#      x y z
#    x 1.985630 0.000000 0.000000 
#    y 0.000000 1.885490 0.000000 
#    z 0.000000 0.000000 1.806670 
# 
# From -- ./inp_files/25119.got.cif
#   From: 2010.05.17/outbox.cif.g08.bks.cpg/sg60_13_cif.got.tgz:25119.got - 2010.06.03 14:59:27.
