data_PCOD9455379
_publ_section_title
;
Structure prediction by ZEFSAII (Michael W. Deem and Ramdas Pophale) SiO2 
 PCOD9455379
Probable space group: P B C N
;
_chemical_formula_sum "Si O2"
_cell_formula_units_Z 48
_cell_length_a 8.816175
_cell_length_b 16.428406
_cell_length_c 16.492978
_cell_angle_alpha 90.000000
_cell_angle_beta 90.000000
_cell_angle_gamma 90.000000
_cell_volume 2388.772051
_symmetry_space_group_name_H-M "P B C N"
_symmetry_group_IT_number 60
_symmetry_cell_setting 'orthorhombic'
loop_
_space_group_symop_operation_xyz
x,y,z
1/2-x,1/2-y,1/2+z
1/2+x,1/2-y,-z
-x,y,1/2-z
-x,-y,-z
1/2+x,1/2+y,1/2-z
1/2-x,1/2+y,z
x,-y,1/2+z
loop_
_atom_site_type_symbol
_atom_site_label
_atom_site_fract_x
_atom_site_fract_y
_atom_site_fract_z
Si Si1 0.895464 0.923749 0.100541
Si Si2 0.445016 0.751520 0.904664
Si Si3 0.942846 0.582429 0.658014
Si Si4 0.918102 0.755465 0.581892
Si Si5 0.573276 0.919184 0.838289
Si Si6 0.595633 0.583794 0.404326
O O1 0.968485 0.838972 0.131517
O O2 0.736199 0.933495 0.146226
O O3 0.867654 0.914112 0.002197
O O4 0.001456 0.001648 0.110573
O O5 0.263331 0.759686 0.912141
O O6 0.507033 0.832851 0.865026
O O7 0.530842 0.747604 0.989489
O O8 0.972887 0.670345 0.619172
O O9 0.000000 0.590182 0.750000
O O10 0.022609 0.503421 0.618217
O O11 0.995951 0.836712 0.616098
O O12 0.500000 0.929446 0.750000
O O13 0.752620 0.915073 0.851412
#
# Coordination Sequence:
#
# PCOD9455379 Si02
#       6
#     8   8   8   8   8   8
#     4   9  20  39  62  90 117 150 197 246 295 347
#     4  10  20  38  62  90 118 150 197 247 295 350
#     4  10  22  39  56  82 119 157 197 238 292 354
#     4  10  21  37  62  89 116 151 196 246 295 348
#     4  11  24  39  56  84 122 160 197 238 293 358
#     4  10  21  38  63  91 118 152 196 246 298 351
#
# _framework density 20.094006
#
# number of rings (size 3 to 8) (size 9 to 14) (size 15 to 20)
#    0.000    2.000    0.000    4.000    0.000   10.667 
#    0.000   10.000    0.000    0.000    0.000    0.000 
#    0.000    0.000    0.000    0.000    0.000    0.000 
#
# Total GULP energy -267667.000601 kJ/mol
# GULP energy per Si atom -5576.395846 kJ/mol
# Density = 2.004827 g / cm^3
# Si number density = 20.094006 Si / 1000 Ang^3
#
#
#
# Elastic Constant Matrix: (Units=GPa)
#
#
# Indices 1 2 3 4 5 6 
#
# 1 83.4579 72.6377 20.4711 0.0000 0.0000 0.0000
# 2 72.6377 188.1490 14.3743 0.0000 0.0000 0.0000
# 3 20.4711 14.3743 18.0327 0.0000 0.0000 0.0000
# 4 0.0000 0.0000 0.0000 36.7180 0.0000 0.0000
# 5 0.0000 0.0000 0.0000 0.0000 -9.2689 0.0000
# 6 0.0000 0.0000 0.0000 0.0000 0.0000 114.1284
#
#
#
# Elastic Compliance Matrix: (Units=1/GPa)
#
#
# Indices 1 2 3 4 5 6 
#
# 1 0.023659 -0.007541 -0.020847 0.000000 0.000000 0.000000
# 2 -0.007541 0.008063 0.002133 0.000000 0.000000 0.000000
# 3 -0.020847 0.002133 0.077420 0.000000 0.000000 0.000000
# 4 0.000000 0.000000 0.000000 0.027235 0.000000 0.000000
# 5 0.000000 0.000000 0.000000 0.000000 -0.107887 0.000000
# 6 0.000000 0.000000 0.000000 0.000000 0.000000 0.008762
#
#
# Mechanical properties :
#
#
# Convention : Reuss Voigt Hill
#
# Bulk Modulus (GPa) = 17.65756 56.06731 36.86243
# Shear Modulus (GPa) = 46.02402 40.45925 43.24164
#
# Velocity S-wave (km/s) = 4.79104 4.49207 4.64396
# Velocity P-wave (km/s) = 6.27790 7.40729 6.86586
#
# Compressibility (1/GPa) = 0.05663297
#
# Stress axis : x y z
#
# Youngs Moduli (GPa) = 42.26702 124.01772 12.91658
#
# Poissons Ratio (x) = 0.93525 0.26927
# Poissons Ratio (y) = 0.31875 -0.02756
# Poissons Ratio (z) = 0.88114 -0.26459
#
# Static dielectric constant tensor:
#      x y z
#    x 1.676670 0.000000 0.000000 
#    y 0.000000 1.745590 0.000000 
#    z 0.000000 0.000000 1.737360 
# 
# From -- ./inp_files/19280.got.cif
#   From: 2010.05.17/outbox.cif.g08.bks.cpg/sg60_10_cif.got.tgz:19280.got - 2010.06.03 14:59:27.
