data_PCOD9455482
_publ_section_title
;
Structure prediction by ZEFSAII (Michael W. Deem and Ramdas Pophale) SiO2 
 PCOD9455482
Probable space group: P B C N
;
_chemical_formula_sum "Si O2"
_cell_formula_units_Z 64
_cell_length_a 23.079214
_cell_length_b 14.953536
_cell_length_c 8.318864
_cell_angle_alpha 90.000000
_cell_angle_beta 90.000000
_cell_angle_gamma 90.000000
_cell_volume 2870.971882
_symmetry_space_group_name_H-M "P B C N"
_symmetry_group_IT_number 60
_symmetry_cell_setting 'orthorhombic'
loop_
_space_group_symop_operation_xyz
x,y,z
1/2-x,1/2-y,1/2+z
1/2+x,1/2-y,-z
-x,y,1/2-z
-x,-y,-z
1/2+x,1/2+y,1/2-z
1/2-x,1/2+y,z
x,-y,1/2+z
loop_
_atom_site_type_symbol
_atom_site_label
_atom_site_fract_x
_atom_site_fract_y
_atom_site_fract_z
Si Si1 0.140659 0.369760 0.408084
Si Si2 0.240526 0.783136 0.310901
Si Si3 0.389339 0.453966 0.988546
Si Si4 0.383980 0.761759 0.955670
Si Si5 0.265687 0.611347 0.470917
Si Si6 0.437003 0.392259 0.311047
Si Si7 0.642002 0.048586 0.945709
Si Si8 0.067154 0.786233 0.797430
O O1 0.207090 0.334255 0.402942
O O2 0.125011 0.446365 0.533869
O O3 0.095921 0.287397 0.415461
O O4 0.134996 0.419654 0.236511
O O5 0.178258 0.775769 0.397591
O O6 0.260707 0.679485 0.321227
O O7 0.232971 0.827139 0.134558
O O8 0.418610 0.549289 0.963434
O O9 0.422930 0.382288 0.877628
O O10 0.321896 0.448592 0.948096
O O11 0.394520 0.421830 0.170234
O O12 0.431004 0.711455 0.849019
O O13 0.386182 0.869052 0.954911
O O14 0.395452 0.729588 0.136932
O O15 0.208587 0.553428 0.495804
O O16 0.500000 0.415637 0.250000
O O17 0.000000 0.772508 0.750000
#
# Coordination Sequence:
#
# PCOD9455482 Si02
#       8
#     8   8   8   8   8   8   8   8
#     4  10  21  40  61  93 126 165 204 258 319 377
#     4  10  20  39  61  92 129 161 208 257 321 386
#     4  12  24  40  61  94 123 167 215 257 327 378
#     4  10  22  43  63  89 127 165 212 270 316 377
#     4  10  21  37  60  94 124 165 204 256 320 394
#     4  12  25  42  63  90 128 169 217 264 311 383
#     4   9  22  37  60  89 129 155 203 259 319 377
#     4  11  23  44  67  90 126 175 221 267 321 380
#
# _framework density 22.292102
#
# number of rings (size 3 to 8) (size 9 to 14) (size 15 to 20)
#    0.000    1.500    2.500    3.000    1.750    3.000 
#    0.000    3.125    0.000    0.000    0.000    0.000 
#    0.000    0.000    0.000    0.000    0.000    0.000 
#
# Total GULP energy -357618.460258 kJ/mol
# GULP energy per Si atom -5587.788442 kJ/mol
# Density = 2.224136 g / cm^3
# Si number density = 22.292102 Si / 1000 Ang^3
#
#
#
# Elastic Constant Matrix: (Units=GPa)
#
#
# Indices 1 2 3 4 5 6 
#
# 1 32.9877 23.1808 -7.8862 0.0000 0.0000 0.0000
# 2 23.1808 42.2559 -4.5941 0.0000 0.0000 0.0000
# 3 -7.8862 -4.5941 28.7365 0.0000 0.0000 0.0000
# 4 0.0000 0.0000 0.0000 23.6066 0.0000 0.0000
# 5 0.0000 0.0000 0.0000 0.0000 17.6308 0.0000
# 6 0.0000 0.0000 0.0000 0.0000 0.0000 2309.5625
#
#
#
# Elastic Compliance Matrix: (Units=1/GPa)
#
#
# Indices 1 2 3 4 5 6 
#
# 1 0.051944 -0.027422 0.009871 0.000000 0.000000 0.000000
# 2 -0.027422 0.038561 -0.001361 0.000000 0.000000 0.000000
# 3 0.009871 -0.001361 0.037290 0.000000 0.000000 0.000000
# 4 0.000000 0.000000 0.000000 0.042361 0.000000 0.000000
# 5 0.000000 0.000000 0.000000 0.000000 0.056719 0.000000
# 6 0.000000 0.000000 0.000000 0.000000 0.000000 0.000433
#
#
# Mechanical properties :
#
#
# Convention : Reuss Voigt Hill
#
# Bulk Modulus (GPa) = 11.11469 13.93121 12.52295
# Shear Modulus (GPa) = 16.94212 476.37863 246.66037
#
# Velocity S-wave (km/s) = 2.75981 14.63429 10.53041
# Velocity P-wave (km/s) = 3.89258 17.08253 12.38880
#
# Compressibility (1/GPa) = 0.08997101
#
# Stress axis : x y z
#
# Youngs Moduli (GPa) = 19.25147 25.93309 26.81664
#
# Poissons Ratio (x) = 0.71115 -0.26471
# Poissons Ratio (y) = 0.52792 0.03649
# Poissons Ratio (z) = -0.19003 0.03529
#
# Static dielectric constant tensor:
#      x y z
#    x 1.829120 0.000000 0.000000 
#    y 0.000000 1.825850 0.000000 
#    z 0.000000 0.000000 1.882700 
# 
# From -- ./inp_files/7967.got.cif
#   From: 2010.05.17/outbox.cif.g08.bks.cpg/sg60_4_cif.got.tgz:7967.got - 2010.06.03 14:59:27.
