data_PCOD9455364
_publ_section_title
;
Structure prediction by ZEFSAII (Michael W. Deem and Ramdas Pophale) SiO2 
 PCOD9455364
Probable space group: P B C N
;
_chemical_formula_sum "Si O2"
_cell_formula_units_Z 32
_cell_length_a 7.925233
_cell_length_b 11.647124
_cell_length_c 13.340261
_cell_angle_alpha 90.000000
_cell_angle_beta 90.000000
_cell_angle_gamma 90.000000
_cell_volume 1231.388419
_symmetry_space_group_name_H-M "P B C N"
_symmetry_group_IT_number 60
_symmetry_cell_setting 'orthorhombic'
loop_
_space_group_symop_operation_xyz
x,y,z
1/2-x,1/2-y,1/2+z
1/2+x,1/2-y,-z
-x,y,1/2-z
-x,-y,-z
1/2+x,1/2+y,1/2-z
1/2-x,1/2+y,z
x,-y,1/2+z
loop_
_atom_site_type_symbol
_atom_site_label
_atom_site_fract_x
_atom_site_fract_y
_atom_site_fract_z
Si Si1 0.832480 0.086555 0.181779
Si Si2 0.857836 0.729982 0.024890
Si Si3 0.044795 0.579044 0.856892
Si Si4 0.645891 0.163052 0.367931
O O1 0.729088 0.165176 0.260761
O O2 0.000000 0.065646 0.250000
O O3 0.736825 0.966592 0.154887
O O4 0.795926 0.161373 0.080280
O O5 0.783749 0.828873 0.955437
O O6 0.960682 0.650292 0.945805
O O7 0.003297 0.755949 0.105565
O O8 0.000000 0.634728 0.750000
O O9 0.946496 0.458718 0.866055
#
# Coordination Sequence:
#
# PCOD9455364 Si02
#       4
#     8   8   8   8
#     4  10  20  38  61  88 125 165 210 267 320 378
#     4  11  21  39  64  91 125 170 213 259 327 388
#     4   9  21  42  64  89 125 164 207 264 322 383
#     4  10  21  37  60  88 121 159 204 262 313 371
#
# _framework density 25.986929
#
# number of rings (size 3 to 8) (size 9 to 14) (size 15 to 20)
#    0.000    2.000    0.000    6.750    0.000    3.000 
#    0.000   22.500    0.000    4.500    0.000    0.000 
#    0.000    0.000    0.000    3.250    0.000    0.000 
#
# Total GULP energy -178374.301996 kJ/mol
# GULP energy per Si atom -5574.196937 kJ/mol
# Density = 2.592778 g / cm^3
# Si number density = 25.986929 Si / 1000 Ang^3
#
#
#
# Elastic Constant Matrix: (Units=GPa)
#
#
# Indices 1 2 3 4 5 6 
#
# 1 138.5972 48.1525 81.5574 0.0000 0.0000 0.0000
# 2 48.1525 42.9836 37.0950 0.0000 0.0000 0.0000
# 3 81.5574 37.0950 179.2490 0.0000 0.0000 0.0000
# 4 0.0000 0.0000 0.0000 26.1331 0.0000 0.0000
# 5 0.0000 0.0000 0.0000 0.0000 50.6686 0.0000
# 6 0.0000 0.0000 0.0000 0.0000 0.0000 39.2126
#
#
#
# Elastic Compliance Matrix: (Units=1/GPa)
#
#
# Indices 1 2 3 4 5 6 
#
# 1 0.013553 -0.012005 -0.003682 0.000000 0.000000 0.000000
# 2 -0.012005 0.038957 -0.002600 0.000000 0.000000 0.000000
# 3 -0.003682 -0.002600 0.007792 0.000000 0.000000 0.000000
# 4 0.000000 0.000000 0.000000 0.038266 0.000000 0.000000
# 5 0.000000 0.000000 0.000000 0.000000 0.019736 0.000000
# 6 0.000000 0.000000 0.000000 0.000000 0.000000 0.025502
#
#
# Mechanical properties :
#
#
# Convention : Reuss Voigt Hill
#
# Bulk Modulus (GPa) = 42.14392 77.15995 59.65193
# Shear Modulus (GPa) = 26.55507 36.13785 31.34646
#
# Velocity S-wave (km/s) = 3.20013 3.73314 3.47686
# Velocity P-wave (km/s) = 5.46873 6.95256 6.25480
#
# Compressibility (1/GPa) = 0.02372822
#
# Stress axis : x y z
#
# Youngs Moduli (GPa) = 73.78644 25.66952 128.33395
#
# Poissons Ratio (x) = 0.30816 0.47253
# Poissons Ratio (y) = 0.88579 0.33365
# Poissons Ratio (z) = 0.27168 0.06674
#
# Static dielectric constant tensor:
#      x y z
#    x 2.243230 0.000000 0.000000 
#    y 0.000000 2.018300 0.000000 
#    z 0.000000 0.000000 2.107630 
# 
# From -- ./inp_files/14440.got.cif
#   From: 2010.05.17/outbox.cif.g08.bks.cpg/sg60_8_cif.got.tgz:14440.got - 2010.06.03 14:59:27.
