data_PCOD9455762
_publ_section_title
;
Structure prediction by ZEFSAII (Michael W. Deem and Ramdas Pophale) SiO2 
 PCOD9455762
Probable space group: P B C N
;
_chemical_formula_sum "Si O2"
_cell_formula_units_Z 48
_cell_length_a 9.410994
_cell_length_b 15.675895
_cell_length_c 14.644630
_cell_angle_alpha 90.000000
_cell_angle_beta 90.000000
_cell_angle_gamma 90.000000
_cell_volume 2160.460080
_symmetry_space_group_name_H-M "P B C N"
_symmetry_group_IT_number 60
_symmetry_cell_setting 'orthorhombic'
loop_
_space_group_symop_operation_xyz
x,y,z
1/2-x,1/2-y,1/2+z
1/2+x,1/2-y,-z
-x,y,1/2-z
-x,-y,-z
1/2+x,1/2+y,1/2-z
1/2-x,1/2+y,z
x,-y,1/2+z
loop_
_atom_site_type_symbol
_atom_site_label
_atom_site_fract_x
_atom_site_fract_y
_atom_site_fract_z
Si Si1 0.870517 0.483179 0.068984
Si Si2 0.702940 0.178186 0.090444
Si Si3 0.500000 0.446690 0.750000
Si Si4 0.000000 0.509969 0.250000
Si Si5 0.276077 0.153879 0.203575
Si Si6 0.571760 0.441896 0.077229
Si Si7 0.919731 0.233847 0.947323
O O1 0.799085 0.576259 0.081553
O O2 0.735198 0.424577 0.046161
O O3 0.932212 0.457887 0.167619
O O4 0.000000 0.500000 0.000000
O O5 0.699778 0.197888 0.197788
O O6 0.559206 0.208988 0.042920
O O7 0.837506 0.216491 0.040344
O O8 0.380104 0.386839 0.704605
O O9 0.433173 0.506947 0.827545
O O10 0.114782 0.573728 0.203883
O O11 0.317278 0.218733 0.124329
O O12 0.480050 0.356529 0.087449
O O13 0.500000 0.500000 0.000000
#
# Coordination Sequence:
#
# PCOD9455762 Si02
#       7
#     8   8   4   4   8   8   8
#     4  11  24  45  71 100 138 184 235 285 357 423
#     4  11  25  46  65 104 136 184 233 289 353 420
#     4  12  26  45  76 101 142 186 236 296 356 431
#     4  10  20  45  68  97 134 186 224 278 350 413
#     4  11  23  46  70  98 136 190 232 280 360 418
#     4  12  27  45  67 110 144 183 237 294 361 424
#     4  12  26  43  76  99 146 185 234 296 356 435
#
# _framework density 22.217490999999999
#
# number of rings (size 3 to 8) (size 9 to 14) (size 15 to 20)
#    0.000    0.667    8.333    0.000   11.667    0.000 
#    0.000    0.000    0.000    0.000    0.000    0.000 
#    0.000    0.000    0.000    0.000    0.000    0.000 
#
# Total GULP energy -268558.181789 kJ/mol
# GULP energy per Si atom -5594.962121 kJ/mol
# Density = 2.216692 g / cm^3
# Si number density = 22.217491 Si / 1000 Ang^3
#
#
#
# Elastic Constant Matrix: (Units=GPa)
#
#
# Indices 1 2 3 4 5 6 
#
# 1 115.5307 18.9122 18.5945 0.0000 0.0000 0.0000
# 2 18.9122 64.8550 8.8208 0.0000 0.0000 0.0000
# 3 18.5945 8.8208 79.0221 0.0000 0.0000 0.0000
# 4 0.0000 0.0000 0.0000 23.2513 0.0000 0.0000
# 5 0.0000 0.0000 0.0000 0.0000 45.3569 0.0000
# 6 0.0000 0.0000 0.0000 0.0000 0.0000 36.2623
#
#
#
# Elastic Compliance Matrix: (Units=1/GPa)
#
#
# Indices 1 2 3 4 5 6 
#
# 1 0.009371 -0.002470 -0.001929 0.000000 0.000000 0.000000
# 2 -0.002470 0.016308 -0.001239 0.000000 0.000000 0.000000
# 3 -0.001929 -0.001239 0.013247 0.000000 0.000000 0.000000
# 4 0.000000 0.000000 0.000000 0.043008 0.000000 0.000000
# 5 0.000000 0.000000 0.000000 0.000000 0.022047 0.000000
# 6 0.000000 0.000000 0.000000 0.000000 0.000000 0.027577
#
#
# Mechanical properties :
#
#
# Convention : Reuss Voigt Hill
#
# Bulk Modulus (GPa) = 36.16844 39.11808 37.64326
# Shear Modulus (GPa) = 32.88370 35.17946 34.03158
#
# Velocity S-wave (km/s) = 3.85136 3.98353 3.91800
# Velocity P-wave (km/s) = 6.00765 6.22921 6.11944
#
# Compressibility (1/GPa) = 0.02764842
#
# Stress axis : x y z
#
# Youngs Moduli (GPa) = 106.71703 61.32019 75.48893
#
# Poissons Ratio (x) = 0.15147 0.14564
# Poissons Ratio (y) = 0.26361 0.09354
# Poissons Ratio (z) = 0.20588 0.07598
#
# Static dielectric constant tensor:
#      x y z
#    x 1.855200 0.000000 0.000000 
#    y 0.000000 1.837750 0.000000 
#    z 0.000000 0.000000 1.823980 
# 
# From -- ./inp_files/15062.got.cif
#   From: 2010.05.17/outbox.cif.g08.bks.cpg/sg60_8_cif.got.tgz:15062.got - 2010.06.03 14:59:27.
