data_PCOD9455439
_publ_section_title
;
Structure prediction by ZEFSAII (Michael W. Deem and Ramdas Pophale) SiO2 
 PCOD9455439
Probable space group: P B C N
;
_chemical_formula_sum "Si O2"
_cell_formula_units_Z 64
_cell_length_a 8.714503
_cell_length_b 15.307695
_cell_length_c 23.416366
_cell_angle_alpha 90.000000
_cell_angle_beta 90.000000
_cell_angle_gamma 90.000000
_cell_volume 3123.718731
_symmetry_space_group_name_H-M "P B C N"
_symmetry_group_IT_number 60
_symmetry_cell_setting 'orthorhombic'
loop_
_space_group_symop_operation_xyz
x,y,z
1/2-x,1/2-y,1/2+z
1/2+x,1/2-y,-z
-x,y,1/2-z
-x,-y,-z
1/2+x,1/2+y,1/2-z
1/2-x,1/2+y,z
x,-y,1/2+z
loop_
_atom_site_type_symbol
_atom_site_label
_atom_site_fract_x
_atom_site_fract_y
_atom_site_fract_z
Si Si1 0.472072 0.426769 0.363667
Si Si2 0.746514 0.167474 0.188974
Si Si3 0.342671 0.474977 0.031155
Si Si4 0.572939 0.243415 0.326843
Si Si5 0.820591 0.334352 0.243060
Si Si6 0.309206 0.516304 0.222413
Si Si7 0.213793 0.453364 0.913206
Si Si8 0.865379 0.420562 0.889042
O O1 0.600665 0.421788 0.413848
O O2 0.474525 0.329572 0.340226
O O3 0.538988 0.489562 0.313638
O O4 0.316648 0.464858 0.391094
O O5 0.563110 0.180633 0.196886
O O6 0.820504 0.262376 0.193221
O O7 0.770690 0.124693 0.127450
O O8 0.807216 0.101207 0.237460
O O9 0.249166 0.553657 0.060190
O O10 0.500000 0.500000 0.000000
O O11 0.243299 0.435951 0.979854
O O12 0.716419 0.280510 0.290071
O O13 0.631796 0.183590 0.378531
O O14 0.744018 0.430112 0.242915
O O15 0.000000 0.351696 0.250000
O O16 0.192229 0.537805 0.170610
O O17 0.032819 0.459255 0.902499
#
# Coordination Sequence:
#
# PCOD9455439 Si02
#       8
#     8   8   8   8   8   8   8   8
#     4   9  21  41  64  87 124 160 221 255 328 373
#     4  11  24  39  60  88 131 163 211 254 322 388
#     4   9  19  40  63  90 121 164 209 266 315 385
#     4  10  22  41  59  89 122 168 203 265 315 384
#     4  11  25  35  58  88 124 161 214 251 308 380
#     4  10  23  40  60  86 124 176 196 261 323 379
#     4  10  22  35  65  92 119 166 211 262 318 379
#     4  10  20  38  66  86 127 164 217 254 330 379
#
# _framework density 20.488401
#
# number of rings (size 3 to 8) (size 9 to 14) (size 15 to 20)
#    0.000    2.000    1.250    0.750    8.750    1.000 
#    0.000    5.000    0.000    1.500    0.000    0.000 
#    0.000    0.000    0.000    0.000    0.000    0.000 
#
# Total GULP energy -356599.200383 kJ/mol
# GULP energy per Si atom -5571.862506 kJ/mol
# Density = 2.044177 g / cm^3
# Si number density = 20.488401 Si / 1000 Ang^3
#
#
#
# Elastic Constant Matrix: (Units=GPa)
#
#
# Indices 1 2 3 4 5 6 
#
# 1 107.8914 38.5071 11.6429 0.0000 0.0000 0.0000
# 2 38.5071 95.8694 20.6419 0.0000 0.0000 0.0000
# 3 11.6429 20.6419 71.3253 0.0000 0.0000 0.0000
# 4 0.0000 0.0000 0.0000 16.2667 0.0000 0.0000
# 5 0.0000 0.0000 0.0000 0.0000 32.7132 0.0000
# 6 0.0000 0.0000 0.0000 0.0000 0.0000 33.3806
#
#
#
# Elastic Compliance Matrix: (Units=1/GPa)
#
#
# Indices 1 2 3 4 5 6 
#
# 1 0.010839 -0.004237 -0.000543 0.000000 0.000000 0.000000
# 2 -0.004237 0.012780 -0.003007 0.000000 0.000000 0.000000
# 3 -0.000543 -0.003007 0.014979 0.000000 0.000000 0.000000
# 4 0.000000 0.000000 0.000000 0.061475 0.000000 0.000000
# 5 0.000000 0.000000 0.000000 0.000000 0.030569 0.000000
# 6 0.000000 0.000000 0.000000 0.000000 0.000000 0.029958
#
#
# Mechanical properties :
#
#
# Convention : Reuss Voigt Hill
#
# Bulk Modulus (GPa) = 43.43195 46.29666 44.86430
# Shear Modulus (GPa) = 27.19625 30.09172 28.64399
#
# Velocity S-wave (km/s) = 3.64730 3.83655 3.74312
# Velocity P-wave (km/s) = 6.24351 6.50162 6.37387
#
# Compressibility (1/GPa) = 0.02302453
#
# Stress axis : x y z
#
# Youngs Moduli (GPa) = 92.25660 78.24681 66.75928
#
# Poissons Ratio (x) = 0.33152 0.03626
# Poissons Ratio (y) = 0.39087 0.20075
# Poissons Ratio (z) = 0.05012 0.23529
#
# Static dielectric constant tensor:
#      x y z
#    x 1.809650 0.000000 0.000000 
#    y 0.000000 1.721860 0.000000 
#    z 0.000000 0.000000 1.802280 
# 
# From -- ./inp_files/24058.got.cif
#   From: 2010.05.17/outbox.cif.g08.bks.cpg/sg60_13_cif.got.tgz:24058.got - 2010.06.03 14:59:27.
