data_PCOD9455526
_publ_section_title
;
Structure prediction by ZEFSAII (Michael W. Deem and Ramdas Pophale) SiO2 
 PCOD9455526
Probable space group: P B C N
;
_chemical_formula_sum "Si O2"
_cell_formula_units_Z 56
_cell_length_a 8.087406
_cell_length_b 18.461886
_cell_length_c 17.034677
_cell_angle_alpha 90.000000
_cell_angle_beta 90.000000
_cell_angle_gamma 90.000000
_cell_volume 2543.426629
_symmetry_space_group_name_H-M "P B C N"
_symmetry_group_IT_number 60
_symmetry_cell_setting 'orthorhombic'
loop_
_space_group_symop_operation_xyz
x,y,z
1/2-x,1/2-y,1/2+z
1/2+x,1/2-y,-z
-x,y,1/2-z
-x,-y,-z
1/2+x,1/2+y,1/2-z
1/2-x,1/2+y,z
x,-y,1/2+z
loop_
_atom_site_type_symbol
_atom_site_label
_atom_site_fract_x
_atom_site_fract_y
_atom_site_fract_z
Si Si1 0.183852 0.845278 0.112446
Si Si2 0.735429 0.251987 0.028427
Si Si3 0.572557 0.847886 0.143358
Si Si4 0.138558 0.002511 0.180088
Si Si5 0.500000 0.733278 0.250000
Si Si6 0.993144 0.294237 0.839826
Si Si7 0.000000 0.522577 0.750000
Si Si8 0.839903 0.148605 0.393218
O O1 0.376625 0.841523 0.133145
O O2 0.127395 0.925330 0.135741
O O3 0.078143 0.787393 0.160659
O O4 0.185789 0.811237 0.024990
O O5 0.842592 0.317563 0.065952
O O6 0.646118 0.211906 0.100772
O O7 0.625946 0.298929 0.966583
O O8 0.625391 0.788490 0.208051
O O9 0.585091 0.926568 0.182185
O O10 0.330043 0.011620 0.213247
O O11 0.000000 0.006511 0.250000
O O12 0.110442 0.065561 0.115554
O O13 0.419965 0.685245 0.183444
O O14 0.856668 0.343102 0.882624
O O15 0.000000 0.319309 0.750000
#
# Coordination Sequence:
#
# PCOD9455526 Si02
#       8
#     8   8   8   8   4   8   4   8
#     4  10  21  39  63  98 134 175 224 281 341 417
#     4  11  23  40  68 102 138 171 227 302 355 409
#     4  10  20  39  66  96 128 172 222 290 345 406
#     4  11  24  45  69  95 147 191 237 285 342 432
#     4  11  18  38  64  92 125 172 220 278 349 404
#     4  11  23  40  68 103 127 172 236 289 344 422
#     4   9  24  42  70 102 129 188 242 274 353 424
#     4  11  24  40  64  99 137 178 226 289 352 415
#
# _framework density 22.017541000000001
#
# number of rings (size 3 to 8) (size 9 to 14) (size 15 to 20)
#    0.000    1.429    3.571    3.000    7.000    0.000 
#    0.000    7.143    3.143    0.000    0.000    0.000 
#    0.000    0.000    0.000    0.000    0.000    0.000 
#
# Total GULP energy -311829.665380 kJ/mol
# GULP energy per Si atom -5568.386882 kJ/mol
# Density = 2.196743 g / cm^3
# Si number density = 22.017541 Si / 1000 Ang^3
#
#
#
# Elastic Constant Matrix: (Units=GPa)
#
#
# Indices 1 2 3 4 5 6 
#
# 1 51.0860 -1.8475 28.5822 0.0000 0.0000 0.0000
# 2 -1.8475 102.9320 11.4163 0.0000 0.0000 0.0000
# 3 28.5822 11.4163 126.0079 0.0000 0.0000 0.0000
# 4 0.0000 0.0000 0.0000 69.6821 0.0000 0.0000
# 5 0.0000 0.0000 0.0000 0.0000 36.9713 0.0000
# 6 0.0000 0.0000 0.0000 0.0000 0.0000 12.2291
#
#
#
# Elastic Compliance Matrix: (Units=1/GPa)
#
#
# Indices 1 2 3 4 5 6 
#
# 1 0.022518 0.000981 -0.005196 0.000000 0.000000 0.000000
# 2 0.000981 0.009856 -0.001115 0.000000 0.000000 0.000000
# 3 -0.005196 -0.001115 0.009216 0.000000 0.000000 0.000000
# 4 0.000000 0.000000 0.000000 0.014351 0.000000 0.000000
# 5 0.000000 0.000000 0.000000 0.000000 0.027048 0.000000
# 6 0.000000 0.000000 0.000000 0.000000 0.000000 0.081772
#
#
# Mechanical properties :
#
#
# Convention : Reuss Voigt Hill
#
# Bulk Modulus (GPa) = 32.33401 39.59198 35.96299
# Shear Modulus (GPa) = 26.92037 39.90149 33.41093
#
# Velocity S-wave (km/s) = 3.50048 4.26168 3.89970
# Velocity P-wave (km/s) = 5.57272 6.49900 6.05360
#
# Compressibility (1/GPa) = 0.03092719
#
# Stress axis : x y z
#
# Youngs Moduli (GPa) = 44.40950 101.45629 108.50955
#
# Poissons Ratio (x) = -0.09948 0.56387
# Poissons Ratio (y) = -0.04354 0.12103
# Poissons Ratio (z) = 0.23077 0.11316
#
# Static dielectric constant tensor:
#      x y z
#    x 1.951560 0.000000 0.000000 
#    y 0.000000 1.821230 0.000000 
#    z 0.000000 0.000000 1.875950 
# 
# From -- ./inp_files/19663.got.cif
#   From: 2010.05.17/outbox.cif.g08.bks.cpg/sg60_10_cif.got.tgz:19663.got - 2010.06.03 14:59:27.
