data_PCOD9455586
_publ_section_title
;
Structure prediction by ZEFSAII (Michael W. Deem and Ramdas Pophale) SiO2 
 PCOD9455586
Probable space group: P B C N
;
_chemical_formula_sum "Si O2"
_cell_formula_units_Z 60
_cell_length_a 19.963866
_cell_length_b 5.064904
_cell_length_c 22.626142
_cell_angle_alpha 90.000000
_cell_angle_beta 90.000000
_cell_angle_gamma 90.000000
_cell_volume 2287.843814
_symmetry_space_group_name_H-M "P B C N"
_symmetry_group_IT_number 60
_symmetry_cell_setting 'orthorhombic'
loop_
_space_group_symop_operation_xyz
x,y,z
1/2-x,1/2-y,1/2+z
1/2+x,1/2-y,-z
-x,y,1/2-z
-x,-y,-z
1/2+x,1/2+y,1/2-z
1/2-x,1/2+y,z
x,-y,1/2+z
loop_
_atom_site_type_symbol
_atom_site_label
_atom_site_fract_x
_atom_site_fract_y
_atom_site_fract_z
Si Si1 0.000000 0.783151 0.250000
Si Si2 0.545474 0.245290 0.983365
Si Si3 0.295340 0.401616 0.110655
Si Si4 0.892191 0.569479 0.688848
Si Si5 0.298500 0.447189 0.737708
Si Si6 0.203543 0.866474 0.979442
Si Si7 0.618862 0.298782 0.091459
Si Si8 0.005360 0.905614 0.635031
O O1 0.065502 0.607500 0.264989
O O2 0.975928 0.971551 0.302760
O O3 0.555159 0.286474 0.913293
O O4 0.500000 0.500000 0.000000
O O5 0.609781 0.194038 0.024643
O O6 0.500000 0.000000 0.000000
O O7 0.268983 0.100018 0.112391
O O8 0.328275 0.507896 0.171106
O O9 0.327673 0.406463 0.045248
O O10 0.853038 0.811931 0.719224
O O11 0.851842 0.377335 0.643857
O O12 0.951788 0.681023 0.648920
O O13 0.262029 0.731290 0.744537
O O14 0.260846 0.088296 0.975435
O O15 0.157144 0.930801 0.923629
O O16 0.542952 0.366119 0.109131
#
# Coordination Sequence:
#
# PCOD9455586 Si02
#       8
#     4   8   8   8   8   8   8   8
#     4  10  24  44  62 100 130 182 224 282 346 392
#     4  10  20  40  65  89 121 168 213 264 324 386
#     4   8  16  37  57  79 119 162 208 264 306 369
#     4  11  23  42  68  92 139 175 219 283 336 404
#     4  10  23  41  66  97 131 176 225 268 333 402
#     4  10  22  38  60  90 128 167 212 263 321 386
#     4  10  23  39  63  94 127 170 215 269 334 395
#     4  10  22  43  66  91 135 169 221 278 335 406
#
# _framework density 26.225569
#
# number of rings (size 3 to 8) (size 9 to 14) (size 15 to 20)
#    0.000    2.133    1.333    0.400    5.600    1.067 
#    4.800    4.000    0.000    0.000    0.000    0.000 
#    0.000    0.000    0.000    0.000    0.000    0.000 
#
# Total GULP energy -334813.666640 kJ/mol
# GULP energy per Si atom -5580.227777 kJ/mol
# Density = 2.616588 g / cm^3
# Si number density = 26.225569 Si / 1000 Ang^3
#
#
#
# Elastic Constant Matrix: (Units=GPa)
#
#
# Indices 1 2 3 4 5 6 
#
# 1 54.5580 11.0946 32.6644 0.0000 0.0000 0.0000
# 2 11.0946 118.6828 24.0957 0.0000 0.0000 0.0000
# 3 32.6644 24.0957 141.4140 0.0000 0.0000 0.0000
# 4 0.0000 0.0000 0.0000 34.3641 0.0000 0.0000
# 5 0.0000 0.0000 0.0000 0.0000 36.6814 0.0000
# 6 0.0000 0.0000 0.0000 0.0000 0.0000 31.8577
#
#
#
# Elastic Compliance Matrix: (Units=1/GPa)
#
#
# Indices 1 2 3 4 5 6 
#
# 1 0.021392 -0.001032 -0.004765 0.000000 0.000000 0.000000
# 2 -0.001032 0.008778 -0.001257 0.000000 0.000000 0.000000
# 3 -0.004765 -0.001257 0.008386 0.000000 0.000000 0.000000
# 4 0.000000 0.000000 0.000000 0.029100 0.000000 0.000000
# 5 0.000000 0.000000 0.000000 0.000000 0.027262 0.000000
# 6 0.000000 0.000000 0.000000 0.000000 0.000000 0.031390
#
#
# Mechanical properties :
#
#
# Convention : Reuss Voigt Hill
#
# Bulk Modulus (GPa) = 40.90578 50.04048 45.47313
# Shear Modulus (GPa) = 33.65510 37.03398 35.34454
#
# Velocity S-wave (km/s) = 3.58619 3.76191 3.67510
# Velocity P-wave (km/s) = 5.72532 6.16373 5.94856
#
# Compressibility (1/GPa) = 0.02444642
#
# Stress axis : x y z
#
# Youngs Moduli (GPa) = 46.74628 113.92691 119.24116
#
# Poissons Ratio (x) = 0.11760 0.56823
# Poissons Ratio (y) = 0.04825 0.14991
# Poissons Ratio (z) = 0.22276 0.14323
#
# Static dielectric constant tensor:
#      x y z
#    x 2.134440 0.000000 0.000000 
#    y 0.000000 2.108400 0.000000 
#    z 0.000000 0.000000 2.231960 
# 
# From -- ./inp_files/23305.got.cif
#   From: 2010.05.17/outbox.cif.g08.bks.cpg/sg60_12_cif.got.tgz:23305.got - 2010.06.03 14:59:27.
