data_PCOD9455723
_publ_section_title
;
Structure prediction by ZEFSAII (Michael W. Deem and Ramdas Pophale) SiO2 
 PCOD9455723
Probable space group: P B C N
;
_chemical_formula_sum "Si O2"
_cell_formula_units_Z 64
_cell_length_a 6.947678
_cell_length_b 14.663579
_cell_length_c 24.532874
_cell_angle_alpha 90.000000
_cell_angle_beta 90.000000
_cell_angle_gamma 90.000000
_cell_volume 2499.355850
_symmetry_space_group_name_H-M "P B C N"
_symmetry_group_IT_number 60
_symmetry_cell_setting 'orthorhombic'
loop_
_space_group_symop_operation_xyz
x,y,z
1/2-x,1/2-y,1/2+z
1/2+x,1/2-y,-z
-x,y,1/2-z
-x,-y,-z
1/2+x,1/2+y,1/2-z
1/2-x,1/2+y,z
x,-y,1/2+z
loop_
_atom_site_type_symbol
_atom_site_label
_atom_site_fract_x
_atom_site_fract_y
_atom_site_fract_z
Si Si1 0.411289 0.525557 0.558706
Si Si2 0.809073 0.484807 0.342770
Si Si3 0.814536 0.483967 0.605170
Si Si4 0.342180 0.278716 0.159676
Si Si5 0.364151 0.833303 0.439977
Si Si6 0.760352 0.207492 0.146104
Si Si7 0.579871 0.721549 0.954869
Si Si8 0.268574 0.131292 0.242419
O O1 0.500000 0.500000 0.500000
O O2 0.253138 0.477391 0.597036
O O3 0.591750 0.514769 0.601152
O O4 0.318611 0.623192 0.542401
O O5 0.728835 0.382306 0.339678
O O6 0.723794 0.543040 0.293502
O O7 0.042311 0.492914 0.344511
O O8 0.895272 0.558845 0.561879
O O9 0.803487 0.373874 0.603976
O O10 0.574767 0.265654 0.166883
O O11 0.325300 0.237099 0.098760
O O12 0.239855 0.219337 0.204682
O O13 0.404287 0.776621 0.384348
O O14 0.436593 0.783098 0.493064
O O15 0.135151 0.813729 0.443632
O O16 0.824694 0.150424 0.199071
O O17 0.500000 0.125575 0.250000
#
# Coordination Sequence:
#
# PCOD9455723 Si02
#       8
#     8   8   8   8   8   8   8   8
#     4  10  23  42  63 102 146 177 231 296 353 426
#     4  11  23  43  73  98 135 186 236 287 360 428
#     4  11  23  43  69 101 135 187 239 289 350 433
#     4   9  20  39  65  97 134 179 225 287 354 409
#     4  10  22  38  63  97 133 185 226 289 349 420
#     4  10  21  45  68  98 146 178 231 301 361 417
#     4   9  20  37  57  91 136 172 229 280 341 416
#     4  10  20  42  71 100 135 182 230 297 355 424
#
# _framework density 25.606598000000002
#
# number of rings (size 3 to 8) (size 9 to 14) (size 15 to 20)
#    0.000    2.000    2.500    1.500    3.500    3.500 
#    2.250    3.125    0.000    0.000    0.000    0.000 
#    0.000    0.000    0.000    0.000    0.000    0.000 
#
# Total GULP energy -356574.888037 kJ/mol
# GULP energy per Si atom -5571.482626 kJ/mol
# Density = 2.554832 g / cm^3
# Si number density = 25.606598 Si / 1000 Ang^3
#
#
#
# Elastic Constant Matrix: (Units=GPa)
#
#
# Indices 1 2 3 4 5 6 
#
# 1 102.7925 6.2987 4.5582 0.0000 0.0000 0.0000
# 2 6.2987 127.1084 38.5353 0.0000 0.0000 0.0000
# 3 4.5582 38.5353 147.9817 0.0000 0.0000 0.0000
# 4 0.0000 0.0000 0.0000 43.6167 0.0000 0.0000
# 5 0.0000 0.0000 0.0000 0.0000 25.2265 0.0000
# 6 0.0000 0.0000 0.0000 0.0000 0.0000 22.8608
#
#
#
# Elastic Compliance Matrix: (Units=1/GPa)
#
#
# Indices 1 2 3 4 5 6 
#
# 1 0.009763 -0.000426 -0.000190 0.000000 0.000000 0.000000
# 2 -0.000426 0.008560 -0.002216 0.000000 0.000000 0.000000
# 3 -0.000190 -0.002216 0.007340 0.000000 0.000000 0.000000
# 4 0.000000 0.000000 0.000000 0.022927 0.000000 0.000000
# 5 0.000000 0.000000 0.000000 0.000000 0.039641 0.000000
# 6 0.000000 0.000000 0.000000 0.000000 0.000000 0.043743
#
#
# Mechanical properties :
#
#
# Convention : Reuss Voigt Hill
#
# Bulk Modulus (GPa) = 50.00096 52.96302 51.48199
# Shear Modulus (GPa) = 34.64885 40.24017 37.44451
#
# Velocity S-wave (km/s) = 3.68247 3.96849 3.82815
# Velocity P-wave (km/s) = 6.13594 6.45963 6.29986
#
# Compressibility (1/GPa) = 0.01999962
#
# Stress axis : x y z
#
# Youngs Moduli (GPa) = 102.42888 116.81905 136.23056
#
# Poissons Ratio (x) = 0.04980 0.02585
# Poissons Ratio (y) = 0.04366 0.30189
# Poissons Ratio (z) = 0.01943 0.25887
#
# Static dielectric constant tensor:
#      x y z
#    x 2.172340 0.000000 0.000000 
#    y 0.000000 2.102500 0.000000 
#    z 0.000000 0.000000 2.202720 
# 
# From -- ./inp_files/24097.got.cif
#   From: 2010.05.17/outbox.cif.g08.bks.cpg/sg60_13_cif.got.tgz:24097.got - 2010.06.03 14:59:27.
