data_PCOD9455144
_publ_section_title
;
Structure prediction by ZEFSAII (Michael W. Deem and Ramdas Pophale) SiO2 
 PCOD9455144
Probable space group: P B C N
;
_chemical_formula_sum "Si O2"
_cell_formula_units_Z 48
_cell_length_a 7.699815
_cell_length_b 26.930352
_cell_length_c 12.685433
_cell_angle_alpha 90.000000
_cell_angle_beta 90.000000
_cell_angle_gamma 90.000000
_cell_volume 2630.435255
_symmetry_space_group_name_H-M "P B C N"
_symmetry_group_IT_number 60
_symmetry_cell_setting 'orthorhombic'
loop_
_space_group_symop_operation_xyz
x,y,z
1/2-x,1/2-y,1/2+z
1/2+x,1/2-y,-z
-x,y,1/2-z
-x,-y,-z
1/2+x,1/2+y,1/2-z
1/2-x,1/2+y,z
x,-y,1/2+z
loop_
_atom_site_type_symbol
_atom_site_label
_atom_site_fract_x
_atom_site_fract_y
_atom_site_fract_z
Si Si1 0.459231 0.689850 0.995187
Si Si2 0.749271 0.184840 0.830102
Si Si3 0.109084 0.076397 0.979841
Si Si4 0.127631 0.000794 0.653778
Si Si5 0.195040 0.414811 0.266848
Si Si6 0.608683 0.778230 0.110328
O O1 0.585982 0.702235 0.896426
O O2 0.461158 0.630562 0.010489
O O3 0.261739 0.705867 0.969398
O O4 0.540253 0.722916 0.087898
O O5 0.796815 0.129320 0.791367
O O6 0.568505 0.188797 0.896214
O O7 0.696543 0.214386 0.724566
O O8 0.251510 0.083668 0.888296
O O9 0.968228 0.041075 0.921708
O O10 0.173976 0.045564 0.080876
O O11 0.275315 0.032589 0.711204
O O12 0.000000 0.986276 0.750000
O O13 0.000000 0.399301 0.250000
#
# Coordination Sequence:
#
# PCOD9455144 Si02
#       6
#     8   8   8   8   8   8
#     4  12  21  38  60  83 119 156 189 249 301 347
#     4  11  21  38  57  87 115 147 201 243 289 351
#     4  10  20  36  59  83 111 153 196 235 297 350
#     4   9  20  36  56  86 112 149 197 239 286 359
#     4  11  19  34  62  86 113 150 195 246 293 350
#     4  11  23  35  57  89 116 147 197 242 290 356
#
# _framework density 18.24793
#
# number of rings (size 3 to 8) (size 9 to 14) (size 15 to 20)
#    0.000    1.333    6.667    0.500    0.000    0.667 
#    3.000    0.000    0.000    0.000    0.000    0.000 
#    0.000    0.000    0.000    0.000    0.000    0.000 
#
# Total GULP energy -267457.662691 kJ/mol
# GULP energy per Si atom -5572.034639 kJ/mol
# Density = 1.820640 g / cm^3
# Si number density = 18.247930 Si / 1000 Ang^3
#
#
#
# Elastic Constant Matrix: (Units=GPa)
#
#
# Indices 1 2 3 4 5 6 
#
# 1 66.2890 24.3720 6.3614 0.0000 0.0000 0.0000
# 2 24.3720 115.6809 53.8552 0.0000 0.0000 0.0000
# 3 6.3614 53.8552 53.2581 0.0000 0.0000 0.0000
# 4 0.0000 0.0000 0.0000 45.0585 0.0000 0.0000
# 5 0.0000 0.0000 0.0000 0.0000 23.4023 0.0000
# 6 0.0000 0.0000 0.0000 0.0000 0.0000 12.3258
#
#
#
# Elastic Compliance Matrix: (Units=1/GPa)
#
#
# Indices 1 2 3 4 5 6 
#
# 1 0.016591 -0.004862 0.002934 0.000000 0.000000 0.000000
# 2 -0.004862 0.017759 -0.017377 0.000000 0.000000 0.000000
# 3 0.002934 -0.017377 0.035998 0.000000 0.000000 0.000000
# 4 0.000000 0.000000 0.000000 0.022193 0.000000 0.000000
# 5 0.000000 0.000000 0.000000 0.000000 0.042731 0.000000
# 6 0.000000 0.000000 0.000000 0.000000 0.000000 0.081131
#
#
# Mechanical properties :
#
#
# Convention : Reuss Voigt Hill
#
# Bulk Modulus (GPa) = 31.50673 44.93393 38.22033
# Shear Modulus (GPa) = 18.82595 26.19995 22.51295
#
# Velocity S-wave (km/s) = 3.21546 3.79328 3.51625
# Velocity P-wave (km/s) = 5.57575 6.62290 6.12176
#
# Compressibility (1/GPa) = 0.03173925
#
# Stress axis : x y z
#
# Youngs Moduli (GPa) = 60.27255 56.31078 27.77945
#
# Poissons Ratio (x) = 0.27376 -0.08152
# Poissons Ratio (y) = 0.29302 0.48272
# Poissons Ratio (z) = -0.17686 0.97851
#
# Static dielectric constant tensor:
#      x y z
#    x 1.650410 0.000000 0.000000 
#    y 0.000000 1.639860 0.000000 
#    z 0.000000 0.000000 1.645930 
# 
# From -- ./inp_files/10215.got.cif
#   From: 2010.05.17/outbox.cif.g08.bks.cpg/sg60_6_cif.got.tgz:10215.got - 2010.06.03 14:59:27.
