data_PCOD9455682
_publ_section_title
;
Structure prediction by ZEFSAII (Michael W. Deem and Ramdas Pophale) SiO2 
 PCOD9455682
Probable space group: P B C N
;
_chemical_formula_sum "Si O2"
_cell_formula_units_Z 40
_cell_length_a 10.446744
_cell_length_b 15.149345
_cell_length_c 12.707156
_cell_angle_alpha 90.000000
_cell_angle_beta 90.000000
_cell_angle_gamma 90.000000
_cell_volume 2011.051396
_symmetry_space_group_name_H-M "P B C N"
_symmetry_group_IT_number 60
_symmetry_cell_setting 'orthorhombic'
loop_
_space_group_symop_operation_xyz
x,y,z
1/2-x,1/2-y,1/2+z
1/2+x,1/2-y,-z
-x,y,1/2-z
-x,-y,-z
1/2+x,1/2+y,1/2-z
1/2-x,1/2+y,z
x,-y,1/2+z
loop_
_atom_site_type_symbol
_atom_site_label
_atom_site_fract_x
_atom_site_fract_y
_atom_site_fract_z
Si Si1 0.137285 0.488075 0.648705
Si Si2 0.135641 0.957571 0.527369
Si Si3 0.478897 0.691712 0.370092
Si Si4 0.496041 0.128221 0.517392
Si Si5 0.270529 0.068408 0.371665
O O1 0.282985 0.511118 0.614602
O O2 0.038950 0.565675 0.617596
O O3 0.152031 0.451532 0.765396
O O4 0.097223 0.412679 0.564613
O O5 0.096560 0.864519 0.579309
O O6 0.219970 0.976160 0.422527
O O7 0.000000 0.000000 0.500000
O O8 0.500000 0.720388 0.250000
O O9 0.463330 0.776805 0.442989
O O10 0.354990 0.628634 0.361583
O O11 0.365153 0.119720 0.450448
#
# Coordination Sequence:
#
# PCOD9455682 Si02
#       5
#     8   8   8   8   8
#     4  10  20  42  63  87 128 171 208 257 325 391
#     4   9  20  37  61  89 118 166 210 257 309 380
#     4  11  22  38  62  92 127 162 212 270 320 374
#     4  10  24  37  62  95 127 162 217 267 318 384
#     4  10  21  40  66  85 127 174 210 261 323 386
#
# _framework density 19.890091999999999
#
# number of rings (size 3 to 8) (size 9 to 14) (size 15 to 20)
#    0.000    2.000    2.000    0.600    2.800    4.800 
#    0.000    0.000    8.800    0.000    0.000    0.000 
#    0.000    0.000    0.000    0.000    0.000    0.000 
#
# Total GULP energy -222680.802570 kJ/mol
# GULP energy per Si atom -5567.020064 kJ/mol
# Density = 1.984482 g / cm^3
# Si number density = 19.890092 Si / 1000 Ang^3
#
#
#
# Elastic Constant Matrix: (Units=GPa)
#
#
# Indices 1 2 3 4 5 6 
#
# 1 77.1969 8.5062 36.4947 0.0000 0.0000 0.0000
# 2 8.5062 66.0534 51.5800 0.0000 0.0000 0.0000
# 3 36.4947 51.5800 120.9733 0.0000 0.0000 0.0000
# 4 0.0000 0.0000 0.0000 25.2172 0.0000 0.0000
# 5 0.0000 0.0000 0.0000 0.0000 37.3251 0.0000
# 6 0.0000 0.0000 0.0000 0.0000 0.0000 19.4135
#
#
#
# Elastic Compliance Matrix: (Units=1/GPa)
#
#
# Indices 1 2 3 4 5 6 
#
# 1 0.015371 0.002461 -0.005686 0.000000 0.000000 0.000000
# 2 0.002461 0.023090 -0.010587 0.000000 0.000000 0.000000
# 3 -0.005686 -0.010587 0.014496 0.000000 0.000000 0.000000
# 4 0.000000 0.000000 0.000000 0.039655 0.000000 0.000000
# 5 0.000000 0.000000 0.000000 0.000000 0.026792 0.000000
# 6 0.000000 0.000000 0.000000 0.000000 0.000000 0.051511
#
#
# Mechanical properties :
#
#
# Convention : Reuss Voigt Hill
#
# Bulk Modulus (GPa) = 39.47705 50.82061 45.14883
# Shear Modulus (GPa) = 24.15653 27.56734 25.86193
#
# Velocity S-wave (km/s) = 3.48875 3.72692 3.60980
# Velocity P-wave (km/s) = 6.00992 6.64275 6.33424
#
# Compressibility (1/GPa) = 0.02533117
#
# Stress axis : x y z
#
# Youngs Moduli (GPa) = 65.05794 43.30912 68.98509
#
# Poissons Ratio (x) = -0.10658 0.39227
# Poissons Ratio (y) = -0.16010 0.73037
# Poissons Ratio (z) = 0.36994 0.45853
#
# Static dielectric constant tensor:
#      x y z
#    x 1.804120 0.000000 0.000000 
#    y 0.000000 1.689030 0.000000 
#    z 0.000000 0.000000 1.756380 
# 
# From -- ./inp_files/10847.got.cif
#   From: 2010.05.17/outbox.cif.g08.bks.cpg/sg60_6_cif.got.tgz:10847.got - 2010.06.03 14:59:27.
