data_PCOD9455228
_publ_section_title
;
Structure prediction by ZEFSAII (Michael W. Deem and Ramdas Pophale) SiO2 
 PCOD9455228
Probable space group: P B C N
;
_chemical_formula_sum "Si O2"
_cell_formula_units_Z 52
_cell_length_a 8.334492
_cell_length_b 12.598025
_cell_length_c 21.302302
_cell_angle_alpha 90.000000
_cell_angle_beta 90.000000
_cell_angle_gamma 90.000000
_cell_volume 2236.702057
_symmetry_space_group_name_H-M "P B C N"
_symmetry_group_IT_number 60
_symmetry_cell_setting 'orthorhombic'
loop_
_space_group_symop_operation_xyz
x,y,z
1/2-x,1/2-y,1/2+z
1/2+x,1/2-y,-z
-x,y,1/2-z
-x,-y,-z
1/2+x,1/2+y,1/2-z
1/2-x,1/2+y,z
x,-y,1/2+z
loop_
_atom_site_type_symbol
_atom_site_label
_atom_site_fract_x
_atom_site_fract_y
_atom_site_fract_z
Si Si1 0.470706 0.944641 0.404383
Si Si2 0.000000 0.630113 0.250000
Si Si3 0.770799 0.558169 0.710952
Si Si4 0.202028 0.366217 0.640308
Si Si5 0.334075 0.135411 0.475662
Si Si6 0.916445 0.799652 0.443164
Si Si7 0.095243 0.956668 0.169116
O O1 0.381862 0.890832 0.344299
O O2 0.557497 0.881623 0.460796
O O3 0.604112 0.028239 0.379877
O O4 0.346133 0.026016 0.437464
O O5 0.863766 0.553282 0.221054
O O6 0.909269 0.688104 0.306214
O O7 0.588762 0.551559 0.689035
O O8 0.730524 0.592876 0.783029
O O9 0.209511 0.288479 0.582408
O O10 0.362949 0.418128 0.665208
O O11 0.151783 0.161829 0.491205
O O12 0.418244 0.235547 0.442415
O O13 0.903300 0.897726 0.396852
#
# Coordination Sequence:
#
# PCOD9455228 Si02
#       7
#     8   4   8   8   8   8   8
#     4   9  18  39  61  77 110 163 198 229 299 359
#     4   8  16  34  60  82 110 154 192 226 304 368
#     4   9  19  34  63  84 112 152 196 241 300 357
#     4   9  18  36  60  79 114 153 189 244 297 347
#     4  10  22  37  56  85 117 154 202 241 290 361
#     4  11  23  37  57  87 118 154 201 249 289 354
#     4  10  20  37  58  88 117 147 197 250 296 347
#
# _framework density 23.248514
#
# number of rings (size 3 to 8) (size 9 to 14) (size 15 to 20)
#    0.000    2.462    1.538    0.000    2.154    2.462 
#    0.000    1.538   13.538    0.000    0.000    0.000 
#    0.000    0.000    0.000    0.000    0.000    0.000 
#
# Total GULP energy -289542.021939 kJ/mol
# GULP energy per Si atom -5568.115807 kJ/mol
# Density = 2.319560 g / cm^3
# Si number density = 23.248514 Si / 1000 Ang^3
#
#
#
# Elastic Constant Matrix: (Units=GPa)
#
#
# Indices 1 2 3 4 5 6 
#
# 1 34.5219 14.8299 2.7965 0.0000 0.0000 0.0000
# 2 14.8299 32.1199 0.5947 0.0000 0.0000 0.0000
# 3 2.7965 0.5947 52.0815 0.0000 0.0000 0.0000
# 4 0.0000 0.0000 0.0000 1061.3394 0.0000 0.0000
# 5 0.0000 0.0000 0.0000 0.0000 32.3846 0.0000
# 6 0.0000 0.0000 0.0000 0.0000 0.0000 17.2531
#
#
#
# Elastic Compliance Matrix: (Units=1/GPa)
#
#
# Indices 1 2 3 4 5 6 
#
# 1 0.036294 -0.016725 -0.001758 0.000000 0.000000 0.000000
# 2 -0.016725 0.038847 0.000454 0.000000 0.000000 0.000000
# 3 -0.001758 0.000454 0.019290 0.000000 0.000000 0.000000
# 4 0.000000 0.000000 0.000000 0.000942 0.000000 0.000000
# 5 0.000000 0.000000 0.000000 0.000000 0.030879 0.000000
# 6 0.000000 0.000000 0.000000 0.000000 0.000000 0.057960
#
#
# Mechanical properties :
#
#
# Convention : Reuss Voigt Hill
#
# Bulk Modulus (GPa) = 17.13069 17.24060 17.18564
# Shear Modulus (GPa) = 20.85710 228.89560 124.87635
#
# Velocity S-wave (km/s) = 2.99847 9.93326 7.33691
# Velocity P-wave (km/s) = 4.40140 11.78947 8.89842
#
# Compressibility (1/GPa) = 0.05837478
#
# Stress axis : x y z
#
# Youngs Moduli (GPa) = 27.55271 25.74214 51.84070
#
# Poissons Ratio (x) = 0.43053 0.09113
# Poissons Ratio (y) = 0.46081 -0.02356
# Poissons Ratio (z) = 0.04843 -0.01170
#
# Static dielectric constant tensor:
#      x y z
#    x 1.890090 0.000000 0.000000 
#    y 0.000000 1.843010 0.000000 
#    z 0.000000 0.000000 0.292000 
# 
# From -- ./inp_files/23993.got.cif
#   From: 2010.05.17/outbox.cif.g08.bks.cpg/sg60_12_cif.got.tgz:23993.got - 2010.06.03 14:59:27.
