data_PCOD9455751
_publ_section_title
;
Structure prediction by ZEFSAII (Michael W. Deem and Ramdas Pophale) SiO2 
 PCOD9455751
Probable space group: P B C N
;
_chemical_formula_sum "Si O2"
_cell_formula_units_Z 48
_cell_length_a 6.526799
_cell_length_b 13.914175
_cell_length_c 27.516262
_cell_angle_alpha 90.000000
_cell_angle_beta 90.000000
_cell_angle_gamma 90.000000
_cell_volume 2498.889979
_symmetry_space_group_name_H-M "P B C N"
_symmetry_group_IT_number 60
_symmetry_cell_setting 'orthorhombic'
loop_
_space_group_symop_operation_xyz
x,y,z
1/2-x,1/2-y,1/2+z
1/2+x,1/2-y,-z
-x,y,1/2-z
-x,-y,-z
1/2+x,1/2+y,1/2-z
1/2-x,1/2+y,z
x,-y,1/2+z
loop_
_atom_site_type_symbol
_atom_site_label
_atom_site_fract_x
_atom_site_fract_y
_atom_site_fract_z
Si Si1 0.390499 0.598958 0.984818
Si Si2 0.284247 0.140159 0.371958
Si Si3 0.397480 0.761848 0.128839
Si Si4 0.250052 0.918499 0.374230
Si Si5 0.918037 0.288622 0.955258
Si Si6 0.980757 0.211192 0.807286
O O1 0.343403 0.589965 0.927914
O O2 0.520696 0.698229 0.988872
O O3 0.500000 0.500000 0.000000
O O4 0.185451 0.624617 0.014980
O O5 0.392236 0.175076 0.422158
O O6 0.394871 0.198135 0.328920
O O7 0.046698 0.169984 0.371441
O O8 0.307899 0.027776 0.365476
O O9 0.551137 0.851038 0.126371
O O10 0.246763 0.751724 0.083261
O O11 0.251735 0.774084 0.175225
O O12 0.086282 0.877723 0.335650
O O13 0.000000 0.202076 0.750000
#
# Coordination Sequence:
#
# PCOD9455751 Si02
#       6
#     8   8   8   8   8   8
#     4  12  25  39  65  93 135 182 229 276 343 401
#     4  10  23  42  65  94 130 172 218 270 336 398
#     4  10  20  44  68  85 138 168 210 280 327 397
#     4  11  23  42  64  99 128 174 224 271 334 398
#     4  11  24  42  60  96 132 177 227 273 334 399
#     4  10  23  46  68  98 132 168 218 276 342 404
#
# _framework density 19.208528000000001
#
# number of rings (size 3 to 8) (size 9 to 14) (size 15 to 20)
#    0.000    1.333    5.000    2.000    4.667    6.000 
#    6.000    0.000    0.000    0.000    0.000    0.000 
#    0.000    0.000    0.000    0.000    0.000    0.000 
#
# Total GULP energy -268182.431582 kJ/mol
# GULP energy per Si atom -5587.133991 kJ/mol
# Density = 1.916481 g / cm^3
# Si number density = 19.208528 Si / 1000 Ang^3
#
#
#
# Elastic Constant Matrix: (Units=GPa)
#
#
# Indices 1 2 3 4 5 6 
#
# 1 67.7352 -6.1290 39.6422 0.0000 0.0000 0.0000
# 2 -6.1290 86.6308 25.4814 0.0000 0.0000 0.0000
# 3 39.6422 25.4814 143.4427 0.0000 0.0000 0.0000
# 4 0.0000 0.0000 0.0000 10.1945 0.0000 0.0000
# 5 0.0000 0.0000 0.0000 0.0000 21.7290 0.0000
# 6 0.0000 0.0000 0.0000 0.0000 0.0000 15.8684
#
#
#
# Elastic Compliance Matrix: (Units=1/GPa)
#
#
# Indices 1 2 3 4 5 6 
#
# 1 0.018293 0.002935 -0.005577 0.000000 0.000000 0.000000
# 2 0.002935 0.012650 -0.003058 0.000000 0.000000 0.000000
# 3 -0.005577 -0.003058 0.009056 0.000000 0.000000 0.000000
# 4 0.000000 0.000000 0.000000 0.098092 0.000000 0.000000
# 5 0.000000 0.000000 0.000000 0.000000 0.046021 0.000000
# 6 0.000000 0.000000 0.000000 0.000000 0.000000 0.063018
#
#
# Mechanical properties :
#
#
# Convention : Reuss Voigt Hill
#
# Bulk Modulus (GPa) = 34.96735 46.19977 40.58356
# Shear Modulus (GPa) = 18.65222 25.47932 22.06577
#
# Velocity S-wave (km/s) = 3.11953 3.64601 3.39300
# Velocity P-wave (km/s) = 5.58739 6.46749 6.04348
#
# Compressibility (1/GPa) = 0.02859810
#
# Stress axis : x y z
#
# Youngs Moduli (GPa) = 54.66669 79.04896 110.42546
#
# Poissons Ratio (x) = -0.23197 0.61581
# Poissons Ratio (y) = -0.16042 0.33771
# Poissons Ratio (z) = 0.30486 0.24175
#
# Static dielectric constant tensor:
#      x y z
#    x 1.705270 0.000000 0.000000 
#    y 0.000000 1.672400 0.000000 
#    z 0.000000 0.000000 1.665710 
# 
# From -- ./inp_files/24870.got.cif
#   From: 2010.05.17/outbox.cif.g08.bks.cpg/sg60_13_cif.got.tgz:24870.got - 2010.06.03 14:59:27.
