data_PCOD9455956
_publ_section_title
;
Structure prediction by ZEFSAII (Michael W. Deem and Ramdas Pophale) SiO2 
 PCOD9455956
Probable space group: P B C N
;
_chemical_formula_sum "Si O2"
_cell_formula_units_Z 32
_cell_length_a 4.865164
_cell_length_b 24.052343
_cell_length_c 9.699301
_cell_angle_alpha 90.000000
_cell_angle_beta 90.000000
_cell_angle_gamma 90.000000
_cell_volume 1134.998559
_symmetry_space_group_name_H-M "P B C N"
_symmetry_group_IT_number 60
_symmetry_cell_setting 'orthorhombic'
loop_
_space_group_symop_operation_xyz
x,y,z
1/2-x,1/2-y,1/2+z
1/2+x,1/2-y,-z
-x,y,1/2-z
-x,-y,-z
1/2+x,1/2+y,1/2-z
1/2-x,1/2+y,z
x,-y,1/2+z
loop_
_atom_site_type_symbol
_atom_site_label
_atom_site_fract_x
_atom_site_fract_y
_atom_site_fract_z
Si Si1 0.122539 0.762027 0.100989
Si Si2 0.315755 0.123510 0.547059
Si Si3 0.697751 0.387806 0.866800
Si Si4 0.813490 0.013690 0.869500
O O1 0.000000 0.742699 0.250000
O O2 0.267209 0.821825 0.135477
O O3 0.019610 0.637656 0.079200
O O4 0.870301 0.766526 0.989341
O O5 0.405954 0.062011 0.598437
O O6 0.010176 0.111764 0.493938
O O7 0.500000 0.362330 0.750000
O O8 0.765263 0.451414 0.824141
O O9 0.000000 0.038150 0.750000
O O10 0.000000 0.000000 0.000000
#
# Coordination Sequence:
#
# PCOD9455956 Si02
#       4
#     8   8   8   8
#     4  12  28  51  78 109 146 192 251 318 385 451
#     4  11  22  41  67  99 138 189 241 295 364 440
#     4  10  21  37  63 102 147 188 232 288 358 441
#     4   9  19  37  62  98 141 185 233 287 351 432
#
# _framework density 28.193867000000001
#
# number of rings (size 3 to 8) (size 9 to 14) (size 15 to 20)
#    0.000    1.500    0.000    4.500    0.000    4.000 
#    0.000   17.500    0.000    0.000    0.000    0.000 
#    0.000    0.000    0.000    0.000    0.000    0.000 
#
# Total GULP energy -178645.087492 kJ/mol
# GULP energy per Si atom -5582.658984 kJ/mol
# Density = 2.812970 g / cm^3
# Si number density = 28.193867 Si / 1000 Ang^3
#
#
#
# Elastic Constant Matrix: (Units=GPa)
#
#
# Indices 1 2 3 4 5 6 
#
# 1 187.7720 41.2141 69.9446 0.0000 0.0000 0.0000
# 2 41.2141 107.8964 24.4352 0.0000 0.0000 0.0000
# 3 69.9446 24.4352 158.2800 0.0000 0.0000 0.0000
# 4 0.0000 0.0000 0.0000 2.8601 0.0000 0.0000
# 5 0.0000 0.0000 0.0000 0.0000 68.5154 0.0000
# 6 0.0000 0.0000 0.0000 0.0000 0.0000 -2.1233
#
#
#
# Elastic Compliance Matrix: (Units=1/GPa)
#
#
# Indices 1 2 3 4 5 6 
#
# 1 0.006758 -0.001974 -0.002682 0.000000 0.000000 0.000000
# 2 -0.001974 0.010181 -0.000699 0.000000 0.000000 0.000000
# 3 -0.002682 -0.000699 0.007611 0.000000 0.000000 0.000000
# 4 0.000000 0.000000 0.000000 0.349643 0.000000 0.000000
# 5 0.000000 0.000000 0.000000 0.000000 0.014595 0.000000
# 6 0.000000 0.000000 0.000000 0.000000 0.000000 -0.470957
#
#
# Mechanical properties :
#
#
# Convention : Reuss Voigt Hill
#
# Bulk Modulus (GPa) = 72.25759 80.57071 76.41415
# Shear Modulus (GPa) = -74.79854 35.07405 -19.86224
#
# Velocity S-wave (km/s) = -5.15632 3.53091 -2.65710
# Velocity P-wave (km/s) = 3.12502 6.72774 4.21288
#
# Compressibility (1/GPa) = 0.01383938
#
# Stress axis : x y z
#
# Youngs Moduli (GPa) = 147.97821 98.22634 131.39118
#
# Poissons Ratio (x) = 0.19390 0.35233
# Poissons Ratio (y) = 0.29211 0.09189
# Poissons Ratio (z) = 0.39681 0.06869
#
# Static dielectric constant tensor:
#      x y z
#    x 2.149820 0.000000 0.000000 
#    y 0.000000 2.372950 0.000000 
#    z 0.000000 0.000000 2.231210 
# 
# From -- ./inp_files/3616.got.cif
#   From: 2010.05.17/outbox.cif.g08.bks.cpg/sg60_2_cif.got.tgz:3616.got - 2010.06.03 14:59:27.
