data_PCOD9455399
_publ_section_title
;
Structure prediction by ZEFSAII (Michael W. Deem and Ramdas Pophale) SiO2 
 PCOD9455399
Probable space group: P B C N
;
_chemical_formula_sum "Si O2"
_cell_formula_units_Z 56
_cell_length_a 12.467048
_cell_length_b 10.225857
_cell_length_c 19.691577
_cell_angle_alpha 90.000000
_cell_angle_beta 90.000000
_cell_angle_gamma 90.000000
_cell_volume 2510.405310
_symmetry_space_group_name_H-M "P B C N"
_symmetry_group_IT_number 60
_symmetry_cell_setting 'orthorhombic'
loop_
_space_group_symop_operation_xyz
x,y,z
1/2-x,1/2-y,1/2+z
1/2+x,1/2-y,-z
-x,y,1/2-z
-x,-y,-z
1/2+x,1/2+y,1/2-z
1/2-x,1/2+y,z
x,-y,1/2+z
loop_
_atom_site_type_symbol
_atom_site_label
_atom_site_fract_x
_atom_site_fract_y
_atom_site_fract_z
Si Si1 0.634403 0.433839 0.457428
Si Si2 0.165020 0.006086 0.297552
Si Si3 0.178869 0.285202 0.094697
Si Si4 0.714351 0.888458 0.013375
Si Si5 0.570375 0.413095 0.835000
Si Si6 0.492545 0.174947 0.478515
Si Si7 0.311978 0.222394 0.368880
O O1 0.733149 0.395848 0.407762
O O2 0.697798 0.496472 0.521275
O O3 0.568261 0.533608 0.412090
O O4 0.558573 0.312289 0.472772
O O5 0.146585 0.006663 0.216253
O O6 0.258585 0.101980 0.326934
O O7 0.053175 0.077357 0.316239
O O8 0.167388 0.855692 0.324640
O O9 0.123156 0.230649 0.161311
O O10 0.247832 0.171731 0.058097
O O11 0.087076 0.316526 0.041228
O O12 0.734556 0.783090 0.072229
O O13 0.590588 0.920178 0.001550
O O14 0.418710 0.172490 0.410110
#
# Coordination Sequence:
#
# PCOD9455399 Si02
#       7
#     8   8   8   8   8   8   8
#     4  10  20  38  63  91 125 171 215 265 331 399
#     4  11  25  43  66  94 124 181 216 269 313 389
#     4   9  20  33  60  89 122 162 210 270 311 395
#     4   9  21  34  60  94 125 165 207 264 332 391
#     4  10  22  42  64  85 124 178 223 254 324 389
#     4  10  20  39  61  96 131 165 213 272 342 381
#     4  11  24  41  67  96 137 166 221 272 329 391
#
# _framework density 22.307154000000001
#
# number of rings (size 3 to 8) (size 9 to 14) (size 15 to 20)
#    0.000    2.000    1.429    0.857   10.000    2.286 
#    2.571    0.000    0.000    3.429    0.000    0.000 
#    0.000    0.000    0.000    0.000    0.000    0.000 
#
# Total GULP energy -311778.056458 kJ/mol
# GULP energy per Si atom -5567.465294 kJ/mol
# Density = 2.225638 g / cm^3
# Si number density = 22.307154 Si / 1000 Ang^3
#
#
#
# Elastic Constant Matrix: (Units=GPa)
#
#
# Indices 1 2 3 4 5 6 
#
# 1 128.0162 12.9328 24.4094 0.0000 0.0000 0.0000
# 2 12.9328 76.2567 25.0381 0.0000 0.0000 0.0000
# 3 24.4094 25.0381 60.3379 0.0000 0.0000 0.0000
# 4 0.0000 0.0000 0.0000 25.2172 0.0000 0.0000
# 5 0.0000 0.0000 0.0000 0.0000 29.6178 0.0000
# 6 0.0000 0.0000 0.0000 0.0000 0.0000 32.4432
#
#
#
# Elastic Compliance Matrix: (Units=1/GPa)
#
#
# Indices 1 2 3 4 5 6 
#
# 1 0.008473 -0.000361 -0.003278 0.000000 0.000000 0.000000
# 2 -0.000361 0.015198 -0.006161 0.000000 0.000000 0.000000
# 3 -0.003278 -0.006161 0.020456 0.000000 0.000000 0.000000
# 4 0.000000 0.000000 0.000000 0.039655 0.000000 0.000000
# 5 0.000000 0.000000 0.000000 0.000000 0.033763 0.000000
# 6 0.000000 0.000000 0.000000 0.000000 0.000000 0.030823
#
#
# Mechanical properties :
#
#
# Convention : Reuss Voigt Hill
#
# Bulk Modulus (GPa) = 40.76993 43.26348 42.01671
# Shear Modulus (GPa) = 28.38608 30.93769 29.66188
#
# Velocity S-wave (km/s) = 3.57110 3.72814 3.65046
# Velocity P-wave (km/s) = 5.94306 6.16187 6.05345
#
# Compressibility (1/GPa) = 0.02452788
#
# Stress axis : x y z
#
# Youngs Moduli (GPa) = 118.02219 65.80029 48.88583
#
# Poissons Ratio (x) = 0.02373 0.16025
# Poissons Ratio (y) = 0.04257 0.30116
# Poissons Ratio (z) = 0.38688 0.40536
#
# Static dielectric constant tensor:
#      x y z
#    x 1.889340 0.000000 0.000000 
#    y 0.000000 2.057650 0.000000 
#    z 0.000000 0.000000 1.858720 
# 
# From -- ./inp_files/22622.got.cif
#   From: 2010.05.17/outbox.cif.g08.bks.cpg/sg60_12_cif.got.tgz:22622.got - 2010.06.03 14:59:27.
