data_PCOD9455940
_publ_section_title
;
Structure prediction by ZEFSAII (Michael W. Deem and Ramdas Pophale) SiO2 
 PCOD9455940
Probable space group: P B C N
;
_chemical_formula_sum "Si O2"
_cell_formula_units_Z 56
_cell_length_a 22.566168
_cell_length_b 19.934519
_cell_length_c 5.472151
_cell_angle_alpha 90.000000
_cell_angle_beta 90.000000
_cell_angle_gamma 90.000000
_cell_volume 2461.623623
_symmetry_space_group_name_H-M "P B C N"
_symmetry_group_IT_number 60
_symmetry_cell_setting 'orthorhombic'
loop_
_space_group_symop_operation_xyz
x,y,z
1/2-x,1/2-y,1/2+z
1/2+x,1/2-y,-z
-x,y,1/2-z
-x,-y,-z
1/2+x,1/2+y,1/2-z
1/2-x,1/2+y,z
x,-y,1/2+z
loop_
_atom_site_type_symbol
_atom_site_label
_atom_site_fract_x
_atom_site_fract_y
_atom_site_fract_z
Si Si1 0.265236 0.166269 0.441094
Si Si2 0.178504 0.277372 0.440915
Si Si3 0.943700 0.266499 0.860668
Si Si4 0.187594 0.515436 0.451571
Si Si5 0.500000 0.457587 0.250000
Si Si6 0.595598 0.358799 0.089048
Si Si7 0.685805 0.462999 0.047335
Si Si8 0.000000 0.168783 0.250000
O O1 0.198873 0.198442 0.447401
O O2 0.291391 0.191273 0.182342
O O3 0.279582 0.087400 0.450871
O O4 0.297851 0.195426 0.682394
O O5 0.109143 0.294531 0.474962
O O6 0.908421 0.218394 0.669093
O O7 0.000000 0.307122 0.750000
O O8 0.979057 0.214756 0.029602
O O9 0.154060 0.500118 0.201455
O O10 0.243366 0.464446 0.451265
O O11 0.500000 0.500000 0.500000
O O12 0.556924 0.408276 0.259804
O O13 0.660103 0.388882 0.065542
O O14 0.558364 0.368180 0.840294
O O15 0.666655 0.496429 0.790866
#
# Coordination Sequence:
#
# PCOD9455940 Si02
#       8
#     8   8   8   8   4   8   8   4
#     4  10  22  42  61  93 122 162 220 247 328 363
#     4  10  23  40  66  86 124 169 202 276 300 386
#     4  10  23  38  60  87 117 160 208 261 312 357
#     4  10  21  37  60  88 121 155 196 257 302 378
#     4  12  23  34  48  62 102 148 200 251 282 332
#     4  11  22  36  51  73 111 154 211 248 299 340
#     4  10  23  35  49  78 104 152 199 249 297 337
#     4  10  21  38  56  78 116 162 202 267 294 352
#
# _framework density 22.749213000000001
#
# number of rings (size 3 to 8) (size 9 to 14) (size 15 to 20)
#    0.000    1.714    2.143    2.143   10.000    1.143 
#    2.571    0.000    0.000    0.000    0.000    0.000 
#    0.000   11.429    0.000    0.000    0.000    0.000 
#
# Total GULP energy -312385.868072 kJ/mol
# GULP energy per Si atom -5578.319073 kJ/mol
# Density = 2.269744 g / cm^3
# Si number density = 22.749213 Si / 1000 Ang^3
#
#
#
# Elastic Constant Matrix: (Units=GPa)
#
#
# Indices 1 2 3 4 5 6 
#
# 1 49.2171 -5.8277 -2.4376 0.0000 0.0000 0.0000
# 2 -5.8277 37.8986 30.6936 0.0000 0.0000 0.0000
# 3 -2.4376 30.6936 156.1603 0.0000 0.0000 0.0000
# 4 0.0000 0.0000 0.0000 44.1094 0.0000 0.0000
# 5 0.0000 0.0000 0.0000 0.0000 16.1868 0.0000
# 6 0.0000 0.0000 0.0000 0.0000 0.0000 12.8205
#
#
#
# Elastic Compliance Matrix: (Units=1/GPa)
#
#
# Indices 1 2 3 4 5 6 
#
# 1 0.020712 0.003476 -0.000360 0.000000 0.000000 0.000000
# 2 0.003476 0.031965 -0.006229 0.000000 0.000000 0.000000
# 3 -0.000360 -0.006229 0.007622 0.000000 0.000000 0.000000
# 4 0.000000 0.000000 0.000000 0.022671 0.000000 0.000000
# 5 0.000000 0.000000 0.000000 0.000000 0.061779 0.000000
# 6 0.000000 0.000000 0.000000 0.000000 0.000000 0.078000
#
#
# Mechanical properties :
#
#
# Convention : Reuss Voigt Hill
#
# Bulk Modulus (GPa) = 18.49276 32.01474 25.25375
# Shear Modulus (GPa) = 20.24303 29.34650 24.79477
#
# Velocity S-wave (km/s) = 2.98624 3.59555 3.30497
# Velocity P-wave (km/s) = 4.47625 5.59829 5.06841
#
# Compressibility (1/GPa) = 0.05407523
#
# Stress axis : x y z
#
# Youngs Moduli (GPa) = 48.28131 31.28403 131.19424
#
# Poissons Ratio (x) = -0.10876 0.04723
# Poissons Ratio (y) = -0.16785 0.81715
# Poissons Ratio (z) = 0.01738 0.19485
#
# Static dielectric constant tensor:
#      x y z
#    x 1.902330 0.000000 0.000000 
#    y 0.000000 1.918960 0.000000 
#    z 0.000000 0.000000 2.015320 
# 
# From -- ./inp_files/2401.got.cif
#   From: 2010.05.17/outbox.cif.g08.bks.cpg/sg60_2_cif.got.tgz:2401.got - 2010.06.03 14:59:27.
