data_PCOD9455562
_publ_section_title
;
Structure prediction by ZEFSAII (Michael W. Deem and Ramdas Pophale) SiO2 
 PCOD9455562
Probable space group: P B C N
;
_chemical_formula_sum "Si O2"
_cell_formula_units_Z 60
_cell_length_a 22.369405
_cell_length_b 7.817369
_cell_length_c 13.925546
_cell_angle_alpha 90.000000
_cell_angle_beta 90.000000
_cell_angle_gamma 90.000000
_cell_volume 2435.158742
_symmetry_space_group_name_H-M "P B C N"
_symmetry_group_IT_number 60
_symmetry_cell_setting 'orthorhombic'
loop_
_space_group_symop_operation_xyz
x,y,z
1/2-x,1/2-y,1/2+z
1/2+x,1/2-y,-z
-x,y,1/2-z
-x,-y,-z
1/2+x,1/2+y,1/2-z
1/2-x,1/2+y,z
x,-y,1/2+z
loop_
_atom_site_type_symbol
_atom_site_label
_atom_site_fract_x
_atom_site_fract_y
_atom_site_fract_z
Si Si1 0.597510 0.977240 0.868408
Si Si2 0.800698 0.375370 0.230898
Si Si3 0.694268 0.548995 0.977703
Si Si4 0.825493 0.024405 0.691978
Si Si5 0.577505 0.585625 0.909088
Si Si6 0.500000 0.843659 0.250000
Si Si7 0.550929 0.449471 0.637432
Si Si8 0.319655 0.953485 0.482002
O O1 0.652941 0.037547 0.803134
O O2 0.587319 0.775481 0.871642
O O3 0.618743 0.025560 0.975894
O O4 0.537388 0.056118 0.828615
O O5 0.728588 0.382691 0.247582
O O6 0.816126 0.176892 0.213571
O O7 0.811417 0.476803 0.130595
O O8 0.642582 0.492882 0.903225
O O9 0.682900 0.749468 0.998438
O O10 0.763953 0.529159 0.958898
O O11 0.687426 0.447451 0.077919
O O12 0.897050 0.056444 0.691215
O O13 0.517314 0.514348 0.862359
O O14 0.566641 0.577386 0.025118
O O15 0.452713 0.729870 0.308268
#
# Coordination Sequence:
#
# PCOD9455562 Si02
#       8
#     8   8   8   8   8   4   8   8
#     4  11  24  41  62  95 127 170 222 272 330 395
#     4  10  20  40  62  94 129 165 216 271 326 388
#     4   8  16  33  60  90 125 161 213 263 315 392
#     4   9  18  38  63  88 127 170 205 260 332 383
#     4   9  21  42  68  95 128 175 221 270 327 394
#     4  12  26  42  64  92 132 170 216 268 324 402
#     4  10  21  45  66  92 135 174 216 270 330 396
#     4   9  19  36  60  88 127 167 211 270 325 386
#
# _framework density 24.639050000000001
#
# number of rings (size 3 to 8) (size 9 to 14) (size 15 to 20)
#    0.000    2.400    1.333    0.800    0.000    4.267 
#    7.200    2.667    0.000    0.000    0.000    0.000 
#    0.000    0.000    0.000    0.000    0.000    0.000 
#
# Total GULP energy -335183.130819 kJ/mol
# GULP energy per Si atom -5586.385514 kJ/mol
# Density = 2.458297 g / cm^3
# Si number density = 24.639050 Si / 1000 Ang^3
#
#
#
# Elastic Constant Matrix: (Units=GPa)
#
#
# Indices 1 2 3 4 5 6 
#
# 1 116.0530 9.2995 20.9059 0.0000 0.0000 0.0000
# 2 9.2995 17.2829 8.3753 0.0000 0.0000 0.0000
# 3 20.9059 8.3753 64.0061 0.0000 0.0000 0.0000
# 4 0.0000 0.0000 0.0000 25.1120 0.0000 0.0000
# 5 0.0000 0.0000 0.0000 0.0000 47.2807 0.0000
# 6 0.0000 0.0000 0.0000 0.0000 0.0000 40.3817
#
#
#
# Elastic Compliance Matrix: (Units=1/GPa)
#
#
# Indices 1 2 3 4 5 6 
#
# 1 0.009384 -0.003805 -0.002567 0.000000 0.000000 0.000000
# 2 -0.003805 0.063321 -0.007043 0.000000 0.000000 0.000000
# 3 -0.002567 -0.007043 0.017384 0.000000 0.000000 0.000000
# 4 0.000000 0.000000 0.000000 0.039822 0.000000 0.000000
# 5 0.000000 0.000000 0.000000 0.000000 0.021150 0.000000
# 6 0.000000 0.000000 0.000000 0.000000 0.000000 0.024764
#
#
# Mechanical properties :
#
#
# Convention : Reuss Voigt Hill
#
# Bulk Modulus (GPa) = 15.80818 30.50037 23.15427
# Shear Modulus (GPa) = 22.34729 33.13898 27.74314
#
# Velocity S-wave (km/s) = 3.01489 3.67137 3.35921
# Velocity P-wave (km/s) = 4.30688 5.51160 4.94606
#
# Compressibility (1/GPa) = 0.06325839
#
# Stress axis : x y z
#
# Youngs Moduli (GPa) = 106.56299 15.79253 57.52568
#
# Poissons Ratio (x) = 0.06010 0.14768
# Poissons Ratio (y) = 0.40551 0.40514
# Poissons Ratio (z) = 0.27356 0.11122
#
# Static dielectric constant tensor:
#      x y z
#    x 2.040940 0.000000 0.000000 
#    y 0.000000 1.902070 0.000000 
#    z 0.000000 0.000000 2.006560 
# 
# From -- ./inp_files/17908.got.cif
#   From: 2010.05.17/outbox.cif.g08.bks.cpg/sg60_9_cif.got.tgz:17908.got - 2010.06.03 14:59:27.
