data_PCOD9455398
_publ_section_title
;
Structure prediction by ZEFSAII (Michael W. Deem and Ramdas Pophale) SiO2 
 PCOD9455398
Probable space group: P B C N
;
_chemical_formula_sum "Si O2"
_cell_formula_units_Z 40
_cell_length_a 11.411985
_cell_length_b 15.066636
_cell_length_c 10.970598
_cell_angle_alpha 90.000000
_cell_angle_beta 90.000000
_cell_angle_gamma 90.000000
_cell_volume 1886.287078
_symmetry_space_group_name_H-M "P B C N"
_symmetry_group_IT_number 60
_symmetry_cell_setting 'orthorhombic'
loop_
_space_group_symop_operation_xyz
x,y,z
1/2-x,1/2-y,1/2+z
1/2+x,1/2-y,-z
-x,y,1/2-z
-x,-y,-z
1/2+x,1/2+y,1/2-z
1/2-x,1/2+y,z
x,-y,1/2+z
loop_
_atom_site_type_symbol
_atom_site_label
_atom_site_fract_x
_atom_site_fract_y
_atom_site_fract_z
Si Si1 0.098496 0.158136 0.175378
Si Si2 0.347583 0.116530 0.080008
Si Si3 0.898924 0.419713 0.354007
Si Si4 0.555198 0.770144 0.554573
Si Si5 0.274775 0.186005 0.817039
O O1 0.223067 0.115763 0.146954
O O2 0.045484 0.193328 0.047811
O O3 0.135626 0.241455 0.261295
O O4 0.000000 0.106151 0.250000
O O5 0.401373 0.020742 0.103425
O O6 0.435956 0.195929 0.116029
O O7 0.320743 0.139566 0.939684
O O8 0.910013 0.355479 0.470935
O O9 0.778689 0.389313 0.286820
O O10 0.000000 0.408967 0.250000
O O11 0.656954 0.736277 0.643394
#
# Coordination Sequence:
#
# PCOD9455398 Si02
#       5
#     8   8   8   8   8
#     4  10  20  39  61  85 132 165 208 261 325 382
#     4  11  22  35  66  95 118 173 213 267 325 372
#     4  11  22  38  62  98 134 159 217 283 320 360
#     4  10  20  38  63  91 121 165 216 257 319 390
#     4  10  21  38  59  90 128 164 207 262 325 381
#
# _framework density 21.205681999999999
#
# number of rings (size 3 to 8) (size 9 to 14) (size 15 to 20)
#    0.000    1.600    4.000    1.800    2.800    0.000 
#    0.000    0.000   13.200    3.600    0.000    0.000 
#    0.000    0.000    0.000    0.000    0.000    0.000 
#
# Total GULP energy -223024.294621 kJ/mol
# GULP energy per Si atom -5575.607366 kJ/mol
# Density = 2.115742 g / cm^3
# Si number density = 21.205682 Si / 1000 Ang^3
#
#
#
# Elastic Constant Matrix: (Units=GPa)
#
#
# Indices 1 2 3 4 5 6 
#
# 1 114.0887 27.2365 46.3254 0.0000 0.0000 0.0000
# 2 27.2365 57.1083 26.6993 0.0000 0.0000 0.0000
# 3 46.3254 26.6993 99.8251 0.0000 0.0000 0.0000
# 4 0.0000 0.0000 0.0000 27.2531 0.0000 0.0000
# 5 0.0000 0.0000 0.0000 0.0000 43.9710 0.0000
# 6 0.0000 0.0000 0.0000 0.0000 0.0000 22.5807
#
#
#
# Elastic Compliance Matrix: (Units=1/GPa)
#
#
# Indices 1 2 3 4 5 6 
#
# 1 0.011340 -0.003369 -0.004362 0.000000 0.000000 0.000000
# 2 -0.003369 0.021014 -0.004057 0.000000 0.000000 0.000000
# 3 -0.004362 -0.004057 0.013127 0.000000 0.000000 0.000000
# 4 0.000000 0.000000 0.000000 0.036693 0.000000 0.000000
# 5 0.000000 0.000000 0.000000 0.000000 0.022742 0.000000
# 6 0.000000 0.000000 0.000000 0.000000 0.000000 0.044286
#
#
# Mechanical properties :
#
#
# Convention : Reuss Voigt Hill
#
# Bulk Modulus (GPa) = 45.65032 52.39383 49.02207
# Shear Modulus (GPa) = 27.76547 30.14502 28.95525
#
# Velocity S-wave (km/s) = 3.62241 3.77444 3.69921
# Velocity P-wave (km/s) = 6.25059 6.61485 6.43530
#
# Compressibility (1/GPa) = 0.02190565
#
# Stress axis : x y z
#
# Youngs Moduli (GPa) = 88.17961 47.58682 76.18123
#
# Poissons Ratio (x) = 0.16034 0.33227
# Poissons Ratio (y) = 0.29712 0.30905
# Poissons Ratio (z) = 0.38460 0.19305
#
# Static dielectric constant tensor:
#      x y z
#    x 1.905970 0.000000 0.000000 
#    y 0.000000 1.734480 0.000000 
#    z 0.000000 0.000000 1.802420 
# 
# From -- ./inp_files/10813.got.cif
#   From: 2010.05.17/outbox.cif.g08.bks.cpg/sg60_6_cif.got.tgz:10813.got - 2010.06.03 14:59:27.
