data_PCOD9455975
_publ_section_title
;
Structure prediction by ZEFSAII (Michael W. Deem and Ramdas Pophale) SiO2 
 PCOD9455975
Probable space group: P B C N
;
_chemical_formula_sum "Si O2"
_cell_formula_units_Z 56
_cell_length_a 14.660551
_cell_length_b 13.757320
_cell_length_c 12.790557
_cell_angle_alpha 90.000000
_cell_angle_beta 90.000000
_cell_angle_gamma 90.000000
_cell_volume 2579.726053
_symmetry_space_group_name_H-M "P B C N"
_symmetry_group_IT_number 60
_symmetry_cell_setting 'orthorhombic'
loop_
_space_group_symop_operation_xyz
x,y,z
1/2-x,1/2-y,1/2+z
1/2+x,1/2-y,-z
-x,y,1/2-z
-x,-y,-z
1/2+x,1/2+y,1/2-z
1/2-x,1/2+y,z
x,-y,1/2+z
loop_
_atom_site_type_symbol
_atom_site_label
_atom_site_fract_x
_atom_site_fract_y
_atom_site_fract_z
Si Si1 0.483194 0.357424 0.541824
Si Si2 0.941155 0.042323 0.654137
Si Si3 0.334125 0.278083 0.924708
Si Si4 0.212479 0.611800 0.077123
Si Si5 0.608457 0.976556 0.270435
Si Si6 0.145219 0.258518 0.184113
Si Si7 0.249987 0.530638 0.403131
O O1 0.430125 0.378017 0.435968
O O2 0.494815 0.455733 0.608862
O O3 0.585625 0.330351 0.512366
O O4 0.437820 0.276148 0.612320
O O5 0.000000 0.081099 0.750000
O O6 0.840083 0.997097 0.666635
O O7 0.366331 0.265190 0.806081
O O8 0.251223 0.353747 0.921936
O O9 0.318900 0.177486 0.980440
O O10 0.136043 0.562907 0.149818
O O11 0.273771 0.687548 0.143641
O O12 0.260071 0.522855 0.014865
O O13 0.500000 0.967841 0.250000
O O14 0.648702 0.875328 0.317101
O O15 0.662333 0.999356 0.162985
#
# Coordination Sequence:
#
# PCOD9455975 Si02
#       7
#     8   8   8   8   8   8   8
#     4  10  21  39  65 102 135 187 238 295 380 443
#     4  10  21  37  69 105 145 178 243 317 373 436
#     4  11  23  44  71 100 141 187 247 308 379 449
#     4  12  26  47  73 106 143 198 256 315 379 454
#     4  12  28  49  77 108 154 207 253 313 383 464
#     4  12  23  46  74 104 147 200 248 307 378 464
#     4  11  23  46  71 105 146 197 252 312 385 450
#
# _framework density 21.707732
#
# number of rings (size 3 to 8) (size 9 to 14) (size 15 to 20)
#    0.000    0.857    4.286    3.857    0.000    1.714 
#    2.571    2.143    0.000    0.000    0.000    0.000 
#    0.000    0.000    0.000    0.000    0.000    0.000 
#
# Total GULP energy -312599.241641 kJ/mol
# GULP energy per Si atom -5582.129315 kJ/mol
# Density = 2.165832 g / cm^3
# Si number density = 21.707732 Si / 1000 Ang^3
#
#
#
# Elastic Constant Matrix: (Units=GPa)
#
#
# Indices 1 2 3 4 5 6 
#
# 1 70.7030 27.0611 28.8319 0.0000 0.0000 0.0000
# 2 27.0611 127.7651 36.9099 0.0000 0.0000 0.0000
# 3 28.8319 36.9099 64.9161 0.0000 0.0000 0.0000
# 4 0.0000 0.0000 0.0000 38.1399 0.0000 0.0000
# 5 0.0000 0.0000 0.0000 0.0000 28.1024 0.0000
# 6 0.0000 0.0000 0.0000 0.0000 0.0000 20.0692
#
#
#
# Elastic Compliance Matrix: (Units=1/GPa)
#
#
# Indices 1 2 3 4 5 6 
#
# 1 0.017596 -0.001758 -0.006816 0.000000 0.000000 0.000000
# 2 -0.001758 0.009541 -0.004644 0.000000 0.000000 0.000000
# 3 -0.006816 -0.004644 0.021072 0.000000 0.000000 0.000000
# 4 0.000000 0.000000 0.000000 0.026219 0.000000 0.000000
# 5 0.000000 0.000000 0.000000 0.000000 0.035584 0.000000
# 6 0.000000 0.000000 0.000000 0.000000 0.000000 0.049828
#
#
# Mechanical properties :
#
#
# Convention : Reuss Voigt Hill
#
# Bulk Modulus (GPa) = 45.92662 49.88779 47.90721
# Shear Modulus (GPa) = 25.83549 28.63438 27.23494
#
# Velocity S-wave (km/s) = 3.45360 3.63586 3.54590
# Velocity P-wave (km/s) = 6.09146 6.37632 6.23552
#
# Compressibility (1/GPa) = 0.02177386
#
# Stress axis : x y z
#
# Youngs Moduli (GPa) = 56.83169 104.81338 47.45638
#
# Poissons Ratio (x) = 0.18426 0.32344
# Poissons Ratio (y) = 0.09991 0.22038
# Poissons Ratio (z) = 0.38734 0.48674
#
# Static dielectric constant tensor:
#      x y z
#    x 1.822220 0.000000 0.000000 
#    y 0.000000 1.870490 0.000000 
#    z 0.000000 0.000000 1.808770 
# 
# From -- ./inp_files/11973.got.cif
#   From: 2010.05.17/outbox.cif.g08.bks.cpg/sg60_6_cif.got.tgz:11973.got - 2010.06.03 14:59:27.
