data_PCOD9455839
_publ_section_title
;
Structure prediction by ZEFSAII (Michael W. Deem and Ramdas Pophale) SiO2 
 PCOD9455839
Probable space group: P B C N
;
_chemical_formula_sum "Si O2"
_cell_formula_units_Z 40
_cell_length_a 9.040812
_cell_length_b 25.240955
_cell_length_c 8.306317
_cell_angle_alpha 90.000000
_cell_angle_beta 90.000000
_cell_angle_gamma 90.000000
_cell_volume 1895.490981
_symmetry_space_group_name_H-M "P B C N"
_symmetry_group_IT_number 60
_symmetry_cell_setting 'orthorhombic'
loop_
_space_group_symop_operation_xyz
x,y,z
1/2-x,1/2-y,1/2+z
1/2+x,1/2-y,-z
-x,y,1/2-z
-x,-y,-z
1/2+x,1/2+y,1/2-z
1/2-x,1/2+y,z
x,-y,1/2+z
loop_
_atom_site_type_symbol
_atom_site_label
_atom_site_fract_x
_atom_site_fract_y
_atom_site_fract_z
Si Si1 0.319983 0.404782 0.257408
Si Si2 0.386161 0.452850 0.946783
Si Si3 0.668043 0.794193 0.193281
Si Si4 0.334414 0.808486 0.685315
Si Si5 0.180252 0.915982 0.621697
O O1 0.500000 0.406725 0.250000
O O2 0.260987 0.344855 0.243884
O O3 0.265465 0.425255 0.435449
O O4 0.281311 0.436830 0.093725
O O5 0.506306 0.406223 0.914344
O O6 0.316458 0.458948 0.768555
O O7 0.500000 0.500000 0.000000
O O8 0.500000 0.797576 0.250000
O O9 0.741783 0.738757 0.237736
O O10 0.665361 0.797742 0.002957
O O11 0.500000 0.808931 0.750000
O O12 0.260622 0.865968 0.698318
#
# Coordination Sequence:
#
# PCOD9455839 Si02
#       5
#     8   8   8   8   8
#     4   9  20  38  58  89 130 162 211 261 320 384
#     4  10  21  35  65  93 120 164 213 273 327 376
#     4  11  24  38  64  92 129 176 218 264 322 392
#     4  11  24  42  62  91 131 175 215 266 325 392
#     4   9  22  36  58  92 125 158 208 264 322 380
#
# _framework density 21.102712
#
# number of rings (size 3 to 8) (size 9 to 14) (size 15 to 20)
#    0.000    2.000    0.000    1.800   16.800    1.600 
#    0.000    0.000    0.000    2.400    0.000    0.000 
#    0.000    0.000    0.000    0.000    0.000    0.000 
#
# Total GULP energy -222703.261610 kJ/mol
# GULP energy per Si atom -5567.581540 kJ/mol
# Density = 2.105468 g / cm^3
# Si number density = 21.102712 Si / 1000 Ang^3
#
#
#
# Elastic Constant Matrix: (Units=GPa)
#
#
# Indices 1 2 3 4 5 6 
#
# 1 47.0525 27.4095 20.7345 0.0000 0.0000 0.0000
# 2 27.4095 91.0719 77.4448 0.0000 0.0000 0.0000
# 3 20.7345 77.4448 168.8174 0.0000 0.0000 0.0000
# 4 0.0000 0.0000 0.0000 42.2241 0.0000 0.0000
# 5 0.0000 0.0000 0.0000 0.0000 28.9543 0.0000
# 6 0.0000 0.0000 0.0000 0.0000 0.0000 82.2961
#
#
#
# Elastic Compliance Matrix: (Units=1/GPa)
#
#
# Indices 1 2 3 4 5 6 
#
# 1 0.025814 -0.008318 0.000645 0.000000 0.000000 0.000000
# 2 -0.008318 0.020684 -0.008467 0.000000 0.000000 0.000000
# 3 0.000645 -0.008467 0.009729 0.000000 0.000000 0.000000
# 4 0.000000 0.000000 0.000000 0.023683 0.000000 0.000000
# 5 0.000000 0.000000 0.000000 0.000000 0.034537 0.000000
# 6 0.000000 0.000000 0.000000 0.000000 0.000000 0.012151
#
#
# Mechanical properties :
#
#
# Convention : Reuss Voigt Hill
#
# Bulk Modulus (GPa) = 41.75874 62.01325 51.88600
# Shear Modulus (GPa) = 29.96532 42.78510 36.37521
#
# Velocity S-wave (km/s) = 3.77234 4.50763 4.15628
# Velocity P-wave (km/s) = 6.22940 7.51943 6.90461
#
# Compressibility (1/GPa) = 0.02394708
#
# Stress axis : x y z
#
# Youngs Moduli (GPa) = 38.73881 48.34687 102.79000
#
# Poissons Ratio (x) = 0.40214 -0.06633
# Poissons Ratio (y) = 0.32222 0.87033
# Poissons Ratio (z) = -0.02500 0.40936
#
# Static dielectric constant tensor:
#      x y z
#    x 1.731820 0.000000 0.000000 
#    y 0.000000 1.861790 0.000000 
#    z 0.000000 0.000000 1.831430 
# 
# From -- ./inp_files/3806.got.cif
#   From: 2010.05.17/outbox.cif.g08.bks.cpg/sg60_2_cif.got.tgz:3806.got - 2010.06.03 14:59:27.
