data_PCOD9455117
_publ_section_title
;
Structure prediction by ZEFSAII (Michael W. Deem and Ramdas Pophale) SiO2 
 PCOD9455117
Probable space group: P B C N
;
_chemical_formula_sum "Si O2"
_cell_formula_units_Z 60
_cell_length_a 28.228503
_cell_length_b 8.755901
_cell_length_c 12.773724
_cell_angle_alpha 90.000000
_cell_angle_beta 90.000000
_cell_angle_gamma 90.000000
_cell_volume 3157.229981
_symmetry_space_group_name_H-M "P B C N"
_symmetry_group_IT_number 60
_symmetry_cell_setting 'orthorhombic'
loop_
_space_group_symop_operation_xyz
x,y,z
1/2-x,1/2-y,1/2+z
1/2+x,1/2-y,-z
-x,y,1/2-z
-x,-y,-z
1/2+x,1/2+y,1/2-z
1/2-x,1/2+y,z
x,-y,1/2+z
loop_
_atom_site_type_symbol
_atom_site_label
_atom_site_fract_x
_atom_site_fract_y
_atom_site_fract_z
Si Si1 0.409141 0.447656 0.828414
Si Si2 0.908878 0.762849 0.474516
Si Si3 0.534319 0.039113 0.595291
Si Si4 0.195846 0.197421 0.304713
Si Si5 0.765401 0.526567 0.821199
Si Si6 0.500000 0.712967 0.250000
Si Si7 0.300150 0.250869 0.045926
Si Si8 0.947360 0.248783 0.743573
O O1 0.357433 0.373909 0.806504
O O2 0.450508 0.378625 0.754050
O O3 0.411780 0.628387 0.809336
O O4 0.423106 0.401952 0.948014
O O5 0.918369 0.615812 0.547866
O O6 0.855001 0.790346 0.446006
O O7 0.934230 0.732075 0.364965
O O8 0.505621 0.172349 0.653548
O O9 0.500000 0.000000 0.500000
O O10 0.547111 0.902415 0.674600
O O11 0.200661 0.353312 0.237945
O O12 0.210628 0.240696 0.422784
O O13 0.232858 0.074774 0.256917
O O14 0.791923 0.410723 0.898338
O O15 0.730736 0.627796 0.891755
O O16 0.000000 0.180286 0.750000
#
# Coordination Sequence:
#
# PCOD9455117 Si02
#       8
#     8   8   8   8   8   4   8   8
#     4  10  23  39  60  89 122 162 205 251 309 363
#     4  10  23  39  58  86 123 157 203 254 301 371
#     4  11  21  37  56  83 116 156 204 244 294 353
#     4  10  21  40  61  92 125 160 205 258 309 376
#     4  10  21  38  65  88 121 163 203 257 316 369
#     4  10  20  36  56  80 118 160 192 244 292 358
#     4  10  21  39  60  90 122 157 204 254 310 370
#     4  12  22  39  62  87 119 164 206 254 301 359
#
# _framework density 19.004000000000001
#
# number of rings (size 3 to 8) (size 9 to 14) (size 15 to 20)
#    0.000    1.600    2.667    1.600    0.000    5.867 
#    0.000    6.667    0.000    0.000    0.000    0.000 
#    0.000    0.000    0.000    0.000    0.000    0.000 
#
# Total GULP energy -334420.562764 kJ/mol
# GULP energy per Si atom -5573.676046 kJ/mol
# Density = 1.896075 g / cm^3
# Si number density = 19.004000 Si / 1000 Ang^3
#
#
#
# Elastic Constant Matrix: (Units=GPa)
#
#
# Indices 1 2 3 4 5 6 
#
# 1 38.8720 7.9846 31.6136 0.0000 0.0000 0.0000
# 2 7.9846 90.0743 47.0017 0.0000 0.0000 0.0000
# 3 31.6136 47.0017 122.0646 0.0000 0.0000 0.0000
# 4 0.0000 0.0000 0.0000 17.1131 0.0000 0.0000
# 5 0.0000 0.0000 0.0000 0.0000 30.3228 0.0000
# 6 0.0000 0.0000 0.0000 0.0000 0.0000 19.6142
#
#
#
# Elastic Compliance Matrix: (Units=1/GPa)
#
#
# Indices 1 2 3 4 5 6 
#
# 1 0.032851 0.001912 -0.009244 0.000000 0.000000 0.000000
# 2 0.001912 0.014005 -0.005888 0.000000 0.000000 0.000000
# 3 -0.009244 -0.005888 0.012854 0.000000 0.000000 0.000000
# 4 0.000000 0.000000 0.000000 0.058435 0.000000 0.000000
# 5 0.000000 0.000000 0.000000 0.000000 0.032978 0.000000
# 6 0.000000 0.000000 0.000000 0.000000 0.000000 0.050983
#
#
# Mechanical properties :
#
#
# Convention : Reuss Voigt Hill
#
# Bulk Modulus (GPa) = 30.05821 47.13451 38.59636
# Shear Modulus (GPa) = 20.86498 24.37075 22.61786
#
# Velocity S-wave (km/s) = 3.31709 3.58495 3.45362
# Velocity P-wave (km/s) = 5.52466 6.48013 6.02138
#
# Compressibility (1/GPa) = 0.03326878
#
# Stress axis : x y z
#
# Youngs Moduli (GPa) = 30.44066 71.40429 77.79900
#
# Poissons Ratio (x) = -0.13650 0.71919
# Poissons Ratio (y) = -0.05819 0.45806
# Poissons Ratio (z) = 0.28140 0.42041
#
# Static dielectric constant tensor:
#      x y z
#    x 1.524870 0.000000 0.000000 
#    y 0.000000 1.720980 0.000000 
#    z 0.000000 0.000000 1.746440 
# 
# From -- ./inp_files/13295.got.cif
#   From: 2010.05.17/outbox.cif.g08.bks.cpg/sg60_7_cif.got.tgz:13295.got - 2010.06.03 14:59:27.
