data_PCOD9455093
_publ_section_title
;
Structure prediction by ZEFSAII (Michael W. Deem and Ramdas Pophale) SiO2 
 PCOD9455093
Probable space group: P B C N
;
_chemical_formula_sum "Si O2"
_cell_formula_units_Z 36
_cell_length_a 11.913321
_cell_length_b 7.693769
_cell_length_c 18.456266
_cell_angle_alpha 90.000000
_cell_angle_beta 90.000000
_cell_angle_gamma 90.000000
_cell_volume 1691.670700
_symmetry_space_group_name_H-M "P B C N"
_symmetry_group_IT_number 60
_symmetry_cell_setting 'orthorhombic'
loop_
_space_group_symop_operation_xyz
x,y,z
1/2-x,1/2-y,1/2+z
1/2+x,1/2-y,-z
-x,y,1/2-z
-x,-y,-z
1/2+x,1/2+y,1/2-z
1/2-x,1/2+y,z
x,-y,1/2+z
loop_
_atom_site_type_symbol
_atom_site_label
_atom_site_fract_x
_atom_site_fract_y
_atom_site_fract_z
Si Si1 0.500000 0.968068 0.250000
Si Si2 0.970021 0.862044 0.673282
Si Si3 0.417195 0.602090 0.945107
Si Si4 0.901292 0.353875 0.882010
Si Si5 0.328140 0.775905 0.076157
O O1 0.567487 0.830630 0.198936
O O2 0.578189 0.081555 0.300662
O O3 0.084948 0.825804 0.628661
O O4 0.000000 0.952655 0.750000
O O5 0.890633 0.969763 0.620092
O O6 0.489593 0.756454 0.910326
O O7 0.500000 0.500000 0.000000
O O8 0.325449 0.685069 0.997733
O O9 0.874071 0.528640 0.926877
O O10 0.794750 0.229426 0.890012
#
# Coordination Sequence:
#
# PCOD9455093 Si02
#       5
#     4   8   8   8   8
#     4   8  20  36  64  92 122 166 198 258 304 374
#     4   8  17  36  59  85 125 159 198 250 305 355
#     4  10  20  35  63  88 122 161 204 252 305 361
#     4  11  21  39  65  89 124 162 211 249 317 366
#     4  10  20  36  63  87 119 167 204 251 304 373
#
# _framework density 21.280736999999998
#
# number of rings (size 3 to 8) (size 9 to 14) (size 15 to 20)
#    0.667    1.778    0.000    3.333    1.556    0.000 
#    0.000    0.000   34.222    0.000    0.000    0.000 
#    0.000    0.000    0.000    0.000    0.000    0.000 
#
# Total GULP energy -200636.289016 kJ/mol
# GULP energy per Si atom -5573.230250 kJ/mol
# Density = 2.123230 g / cm^3
# Si number density = 21.280737 Si / 1000 Ang^3
#
#
#
# Elastic Constant Matrix: (Units=GPa)
#
#
# Indices 1 2 3 4 5 6 
#
# 1 37.3567 15.9563 21.0898 0.0000 0.0000 0.0000
# 2 15.9563 84.0468 37.6251 0.0000 0.0000 0.0000
# 3 21.0898 37.6251 109.0375 0.0000 0.0000 0.0000
# 4 0.0000 0.0000 0.0000 24.3537 0.0000 0.0000
# 5 0.0000 0.0000 0.0000 0.0000 14.9162 0.0000
# 6 0.0000 0.0000 0.0000 0.0000 0.0000 8.1888
#
#
#
# Elastic Compliance Matrix: (Units=1/GPa)
#
#
# Indices 1 2 3 4 5 6 
#
# 1 0.031039 -0.003791 -0.004695 0.000000 0.000000 0.000000
# 2 -0.003791 0.014535 -0.004282 0.000000 0.000000 0.000000
# 3 -0.004695 -0.004282 0.011557 0.000000 0.000000 0.000000
# 4 0.000000 0.000000 0.000000 0.041061 0.000000 0.000000
# 5 0.000000 0.000000 0.000000 0.000000 0.067041 0.000000
# 6 0.000000 0.000000 0.000000 0.000000 0.000000 0.122117
#
#
# Mechanical properties :
#
#
# Convention : Reuss Voigt Hill
#
# Bulk Modulus (GPa) = 31.65168 42.19814 36.92491
# Shear Modulus (GPa) = 15.45981 19.87640 17.66811
#
# Velocity S-wave (km/s) = 2.69823 3.05947 2.88451
# Velocity P-wave (km/s) = 4.96115 5.68795 5.33694
#
# Compressibility (1/GPa) = 0.03159390
#
# Stress axis : x y z
#
# Youngs Moduli (GPa) = 32.21757 68.80023 86.52760
#
# Poissons Ratio (x) = 0.26080 0.40629
# Poissons Ratio (y) = 0.12213 0.37053
# Poissons Ratio (z) = 0.15128 0.29462
#
# Static dielectric constant tensor:
#      x y z
#    x 1.774480 0.000000 0.000000 
#    y 0.000000 1.829950 0.000000 
#    z 0.000000 0.000000 1.798890 
# 
# From -- ./inp_files/16561.got.cif
#   From: 2010.05.17/outbox.cif.g08.bks.cpg/sg60_9_cif.got.tgz:16561.got - 2010.06.03 14:59:27.
