data_PCOD9455422
_publ_section_title
;
Structure prediction by ZEFSAII (Michael W. Deem and Ramdas Pophale) SiO2 
 PCOD9455422
Probable space group: P B C N
;
_chemical_formula_sum "Si O2"
_cell_formula_units_Z 60
_cell_length_a 12.426685
_cell_length_b 21.373299
_cell_length_c 11.100507
_cell_angle_alpha 90.000000
_cell_angle_beta 90.000000
_cell_angle_gamma 90.000000
_cell_volume 2948.286379
_symmetry_space_group_name_H-M "P B C N"
_symmetry_group_IT_number 60
_symmetry_cell_setting 'orthorhombic'
loop_
_space_group_symop_operation_xyz
x,y,z
1/2-x,1/2-y,1/2+z
1/2+x,1/2-y,-z
-x,y,1/2-z
-x,-y,-z
1/2+x,1/2+y,1/2-z
1/2-x,1/2+y,z
x,-y,1/2+z
loop_
_atom_site_type_symbol
_atom_site_label
_atom_site_fract_x
_atom_site_fract_y
_atom_site_fract_z
Si Si1 0.678848 0.562662 0.816141
Si Si2 0.250379 0.335723 0.525620
Si Si3 0.628468 0.868780 0.222296
Si Si4 0.720169 0.631925 0.056194
Si Si5 0.000000 0.841700 0.250000
Si Si6 0.877283 0.080905 0.292062
Si Si7 0.377572 0.211562 0.556989
Si Si8 0.916523 0.754407 0.457601
O O1 0.801074 0.573099 0.772868
O O2 0.602889 0.612187 0.745410
O O3 0.634328 0.493466 0.801972
O O4 0.678840 0.583342 0.955781
O O5 0.184017 0.358114 0.408250
O O6 0.326499 0.386676 0.589211
O O7 0.327792 0.275919 0.509304
O O8 0.156180 0.299988 0.601729
O O9 0.500000 0.878376 0.250000
O O10 0.658264 0.809584 0.309602
O O11 0.698103 0.605838 0.185730
O O12 0.840586 0.653959 0.026308
O O13 0.654245 0.695487 0.030341
O O14 0.978547 0.795837 0.360743
O O15 0.000000 0.096901 0.250000
O O16 0.503296 0.222212 0.550644
#
# Coordination Sequence:
#
# PCOD9455422 Si02
#       8
#     8   8   8   8   4   8   8   8
#     4  10  23  44  67  94 130 186 233 280 345 406
#     4  11  25  38  65 105 131 179 229 279 358 427
#     4  11  23  45  69  95 138 185 229 280 349 420
#     4   9  23  40  60  97 133 166 223 280 333 413
#     4  10  20  40  66  98 140 182 228 282 346 416
#     4  12  26  43  68  99 135 174 230 295 345 418
#     4  10  21  39  65  93 136 174 216 285 342 414
#     4  10  20  38  64  99 133 178 220 279 358 411
#
# _framework density 20.350805000000001
#
# number of rings (size 3 to 8) (size 9 to 14) (size 15 to 20)
#    0.000    1.600    2.000    2.400    7.467    2.133 
#    0.000    2.000    0.000    0.000    0.000    0.000 
#    0.000    0.000    0.000    0.000    0.000    0.000 
#
# Total GULP energy -334194.859467 kJ/mol
# GULP energy per Si atom -5569.914324 kJ/mol
# Density = 2.030449 g / cm^3
# Si number density = 20.350805 Si / 1000 Ang^3
#
#
#
# Elastic Constant Matrix: (Units=GPa)
#
#
# Indices 1 2 3 4 5 6 
#
# 1 87.1740 37.1497 46.5445 0.0000 0.0000 0.0000
# 2 37.1497 88.5439 38.9543 0.0000 0.0000 0.0000
# 3 46.5445 38.9543 60.9898 0.0000 0.0000 0.0000
# 4 0.0000 0.0000 0.0000 15.8203 0.0000 0.0000
# 5 0.0000 0.0000 0.0000 0.0000 20.2925 0.0000
# 6 0.0000 0.0000 0.0000 0.0000 0.0000 18.6291
#
#
#
# Elastic Compliance Matrix: (Units=1/GPa)
#
#
# Indices 1 2 3 4 5 6 
#
# 1 0.019690 -0.002295 -0.013560 0.000000 0.000000 0.000000
# 2 -0.002295 0.015975 -0.008452 0.000000 0.000000 0.000000
# 3 -0.013560 -0.008452 0.032143 0.000000 0.000000 0.000000
# 4 0.000000 0.000000 0.000000 0.063210 0.000000 0.000000
# 5 0.000000 0.000000 0.000000 0.000000 0.049279 0.000000
# 6 0.000000 0.000000 0.000000 0.000000 0.000000 0.053680
#
#
# Mechanical properties :
#
#
# Convention : Reuss Voigt Hill
#
# Bulk Modulus (GPa) = 52.10179 53.55609 52.82894
# Shear Modulus (GPa) = 17.30174 18.55232 17.92703
#
# Velocity S-wave (km/s) = 2.91894 3.02259 2.97122
# Velocity P-wave (km/s) = 6.08422 6.20927 6.14706
#
# Compressibility (1/GPa) = 0.01919320
#
# Stress axis : x y z
#
# Youngs Moduli (GPa) = 50.78824 62.59742 31.11127
#
# Poissons Ratio (x) = 0.14368 0.42187
# Poissons Ratio (y) = 0.11658 0.26294
# Poissons Ratio (z) = 0.68870 0.52905
#
# Static dielectric constant tensor:
#      x y z
#    x 1.813220 0.000000 0.000000 
#    y 0.000000 1.703180 0.000000 
#    z 0.000000 0.000000 1.750550 
# 
# From -- ./inp_files/11269.got.cif
#   From: 2010.05.17/outbox.cif.g08.bks.cpg/sg60_6_cif.got.tgz:11269.got - 2010.06.03 14:59:27.
