data_PCOD9455301
_publ_section_title
;
Structure prediction by ZEFSAII (Michael W. Deem and Ramdas Pophale) SiO2 
 PCOD9455301
Probable space group: P B C N
;
_chemical_formula_sum "Si O2"
_cell_formula_units_Z 56
_cell_length_a 24.201065
_cell_length_b 8.806355
_cell_length_c 12.699726
_cell_angle_alpha 90.000000
_cell_angle_beta 90.000000
_cell_angle_gamma 90.000000
_cell_volume 2706.605860
_symmetry_space_group_name_H-M "P B C N"
_symmetry_group_IT_number 60
_symmetry_cell_setting 'orthorhombic'
loop_
_space_group_symop_operation_xyz
x,y,z
1/2-x,1/2-y,1/2+z
1/2+x,1/2-y,-z
-x,y,1/2-z
-x,-y,-z
1/2+x,1/2+y,1/2-z
1/2-x,1/2+y,z
x,-y,1/2+z
loop_
_atom_site_type_symbol
_atom_site_label
_atom_site_fract_x
_atom_site_fract_y
_atom_site_fract_z
Si Si1 0.000000 0.848228 0.250000
Si Si2 0.814121 0.725340 0.574662
Si Si3 0.807242 0.818153 0.817175
Si Si4 0.571356 0.591998 0.370187
Si Si5 0.500000 0.839921 0.250000
Si Si6 0.738453 0.953173 0.447485
Si Si7 0.066679 0.599629 0.949207
Si Si8 0.456964 0.778773 0.945954
O O1 0.958703 0.754723 0.177023
O O2 0.963096 0.950514 0.327856
O O3 0.802544 0.763193 0.696778
O O4 0.787455 0.858290 0.503874
O O5 0.788090 0.566717 0.533216
O O6 0.879709 0.703047 0.558870
O O7 0.865557 0.901282 0.835880
O O8 0.800963 0.672760 0.894397
O O9 0.761260 0.938219 0.854870
O O10 0.541493 0.734257 0.314651
O O11 0.563365 0.629393 0.492911
O O12 0.462909 0.921626 0.336026
O O13 0.078216 0.425829 0.981250
O O14 0.019659 0.675596 0.021023
#
# Coordination Sequence:
#
# PCOD9455301 Si02
#       8
#     4   8   8   8   4   8   8   8
#     4  11  23  38  58  90 127 163 206 250 308 389
#     4  11  22  43  68  92 128 173 210 270 328 373
#     4  11  22  43  66  92 127 171 208 272 322 376
#     4  10  21  36  60  84 125 159 199 249 310 366
#     4   9  17  36  56  92 113 157 198 238 298 381
#     4  10  25  41  64  97 127 160 228 268 312 386
#     4  10  20  37  65  87 125 164 200 255 316 371
#     4  10  22  38  56  92 129 156 209 253 298 389
#
# _framework density 20.690118999999999
#
# number of rings (size 3 to 8) (size 9 to 14) (size 15 to 20)
#    0.000    1.714    1.429    2.571    2.000    1.143 
#    2.571    1.429    0.000    0.000    0.000    0.000 
#    0.000    0.000    0.000    0.000    0.000    0.000 
#
# Total GULP energy -312582.801906 kJ/mol
# GULP energy per Si atom -5581.835748 kJ/mol
# Density = 2.064303 g / cm^3
# Si number density = 20.690119 Si / 1000 Ang^3
#
#
#
# Elastic Constant Matrix: (Units=GPa)
#
#
# Indices 1 2 3 4 5 6 
#
# 1 59.3700 6.6124 2.3527 0.0000 0.0000 0.0000
# 2 6.6124 79.1554 15.8791 0.0000 0.0000 0.0000
# 3 2.3527 15.8791 84.0091 0.0000 0.0000 0.0000
# 4 0.0000 0.0000 0.0000 18.2476 0.0000 0.0000
# 5 0.0000 0.0000 0.0000 0.0000 23.6293 0.0000
# 6 0.0000 0.0000 0.0000 0.0000 0.0000 16.3750
#
#
#
# Elastic Compliance Matrix: (Units=1/GPa)
#
#
# Indices 1 2 3 4 5 6 
#
# 1 0.017005 -0.001377 -0.000216 0.000000 0.000000 0.000000
# 2 -0.001377 0.013243 -0.002465 0.000000 0.000000 0.000000
# 3 -0.000216 -0.002465 0.012375 0.000000 0.000000 0.000000
# 4 0.000000 0.000000 0.000000 0.054802 0.000000 0.000000
# 5 0.000000 0.000000 0.000000 0.000000 0.042320 0.000000
# 6 0.000000 0.000000 0.000000 0.000000 0.000000 0.061069
#
#
# Mechanical properties :
#
#
# Convention : Reuss Voigt Hill
#
# Bulk Modulus (GPa) = 28.97863 30.24701 29.61282
# Shear Modulus (GPa) = 22.68268 24.82974 23.75621
#
# Velocity S-wave (km/s) = 3.31464 3.46797 3.39217
# Velocity P-wave (km/s) = 5.35589 5.53955 5.44849
#
# Compressibility (1/GPa) = 0.03450819
#
# Stress axis : x y z
#
# Youngs Moduli (GPa) = 58.80456 75.51255 80.80576
#
# Poissons Ratio (x) = 0.10400 0.01745
# Poissons Ratio (y) = 0.08099 0.19915
# Poissons Ratio (z) = 0.01270 0.18610
#
# Static dielectric constant tensor:
#      x y z
#    x 1.744870 0.000000 0.000000 
#    y 0.000000 1.738970 0.000000 
#    z 0.000000 0.000000 1.775460 
# 
# From -- ./inp_files/17766.got.cif
#   From: 2010.05.17/outbox.cif.g08.bks.cpg/sg60_9_cif.got.tgz:17766.got - 2010.06.03 14:59:27.
