data_PCOD9455969
_publ_section_title
;
Structure prediction by ZEFSAII (Michael W. Deem and Ramdas Pophale) SiO2 
 PCOD9455969
Probable space group: P B C N
;
_chemical_formula_sum "Si O2"
_cell_formula_units_Z 32
_cell_length_a 10.785418
_cell_length_b 13.666088
_cell_length_c 8.133970
_cell_angle_alpha 90.000000
_cell_angle_beta 90.000000
_cell_angle_gamma 90.000000
_cell_volume 1198.902209
_symmetry_space_group_name_H-M "P B C N"
_symmetry_group_IT_number 60
_symmetry_cell_setting 'orthorhombic'
loop_
_space_group_symop_operation_xyz
x,y,z
1/2-x,1/2-y,1/2+z
1/2+x,1/2-y,-z
-x,y,1/2-z
-x,-y,-z
1/2+x,1/2+y,1/2-z
1/2-x,1/2+y,z
x,-y,1/2+z
loop_
_atom_site_type_symbol
_atom_site_label
_atom_site_fract_x
_atom_site_fract_y
_atom_site_fract_z
Si Si1 0.553239 0.370916 0.068784
Si Si2 0.700271 0.628581 0.067116
Si Si3 0.208362 0.457809 0.593828
Si Si4 0.545438 0.186554 0.564517
O O1 0.500000 0.387138 0.250000
O O2 0.444734 0.405640 0.944050
O O3 0.681823 0.418587 0.024294
O O4 0.551767 0.253344 0.036284
O O5 0.763334 0.589585 0.231054
O O6 0.669022 0.743402 0.060797
O O7 0.774017 0.574847 0.919715
O O8 0.082915 0.412717 0.523625
O O9 0.500000 0.176200 0.750000
#
# Coordination Sequence:
#
# PCOD9455969 Si02
#       4
#     8   8   8   8
#     4  10  21  37  66  99 130 169 231 289 340 410
#     4  10  23  41  64 106 135 176 242 284 344 427
#     4  12  22  41  71  93 141 188 220 300 355 406
#     4  10  24  44  66 100 143 174 241 291 346 431
#
# _framework density 26.691085999999999
#
# number of rings (size 3 to 8) (size 9 to 14) (size 15 to 20)
#    1.500    0.000    2.500    3.000    3.500    1.000 
#    0.000    1.250    0.000    0.000    0.000    0.000 
#    0.000    0.000    0.000    0.000    0.000    0.000 
#
# Total GULP energy -179033.840338 kJ/mol
# GULP energy per Si atom -5594.807511 kJ/mol
# Density = 2.663034 g / cm^3
# Si number density = 26.691086 Si / 1000 Ang^3
#
#
#
# Elastic Constant Matrix: (Units=GPa)
#
#
# Indices 1 2 3 4 5 6 
#
# 1 80.4636 46.1590 11.2223 0.0000 0.0000 0.0000
# 2 46.1590 112.5539 8.7676 0.0000 0.0000 0.0000
# 3 11.2223 8.7676 98.3298 0.0000 0.0000 0.0000
# 4 0.0000 0.0000 0.0000 26.0061 0.0000 0.0000
# 5 0.0000 0.0000 0.0000 0.0000 31.9561 0.0000
# 6 0.0000 0.0000 0.0000 0.0000 0.0000 51.6503
#
#
#
# Elastic Compliance Matrix: (Units=1/GPa)
#
#
# Indices 1 2 3 4 5 6 
#
# 1 0.016410 -0.006630 -0.001282 0.000000 0.000000 0.000000
# 2 -0.006630 0.011625 -0.000280 0.000000 0.000000 0.000000
# 3 -0.001282 -0.000280 0.010341 0.000000 0.000000 0.000000
# 4 0.000000 0.000000 0.000000 0.038452 0.000000 0.000000
# 5 0.000000 0.000000 0.000000 0.000000 0.031293 0.000000
# 6 0.000000 0.000000 0.000000 0.000000 0.000000 0.019361
#
#
# Mechanical properties :
#
#
# Convention : Reuss Voigt Hill
#
# Bulk Modulus (GPa) = 45.46823 47.07168 46.26996
# Shear Modulus (GPa) = 33.06932 36.93574 35.00253
#
# Velocity S-wave (km/s) = 3.52371 3.72401 3.62525
# Velocity P-wave (km/s) = 5.79891 6.01374 5.90730
#
# Compressibility (1/GPa) = 0.02199338
#
# Stress axis : x y z
#
# Youngs Moduli (GPa) = 60.93782 86.01811 96.70157
#
# Poissons Ratio (x) = 0.57031 0.12394
# Poissons Ratio (y) = 0.40402 0.02707
# Poissons Ratio (z) = 0.07810 0.02408
#
# Static dielectric constant tensor:
#      x y z
#    x 2.064660 0.000000 0.000000 
#    y 0.000000 2.276040 0.000000 
#    z 0.000000 0.000000 2.015110 
# 
# From -- ./inp_files/4625.got.cif
#   From: 2010.05.17/outbox.cif.g08.bks.cpg/sg60_3_cif.got.tgz:4625.got - 2010.06.03 14:59:27.
