data_PCOD9455401
_publ_section_title
;
Structure prediction by ZEFSAII (Michael W. Deem and Ramdas Pophale) SiO2 
 PCOD9455401
Probable space group: P B C N
;
_chemical_formula_sum "Si O2"
_cell_formula_units_Z 64
_cell_length_a 11.179317
_cell_length_b 33.795712
_cell_length_c 8.161258
_cell_angle_alpha 90.000000
_cell_angle_beta 90.000000
_cell_angle_gamma 90.000000
_cell_volume 3083.429187
_symmetry_space_group_name_H-M "P B C N"
_symmetry_group_IT_number 60
_symmetry_cell_setting 'orthorhombic'
loop_
_space_group_symop_operation_xyz
x,y,z
1/2-x,1/2-y,1/2+z
1/2+x,1/2-y,-z
-x,y,1/2-z
-x,-y,-z
1/2+x,1/2+y,1/2-z
1/2-x,1/2+y,z
x,-y,1/2+z
loop_
_atom_site_type_symbol
_atom_site_label
_atom_site_fract_x
_atom_site_fract_y
_atom_site_fract_z
Si Si1 0.104154 0.449498 0.979287
Si Si2 0.697069 0.401141 0.033769
Si Si3 0.922289 0.220564 0.414202
Si Si4 0.337719 0.030668 0.106129
Si Si5 0.530422 0.359356 0.555076
Si Si6 0.930495 0.691435 0.015358
Si Si7 0.682353 0.171926 0.363436
Si Si8 0.218475 0.627741 0.612675
O O1 0.148869 0.457091 0.794678
O O2 0.961864 0.456377 0.981100
O O3 0.165756 0.483402 0.089091
O O4 0.134855 0.405869 0.035627
O O5 0.739999 0.388217 0.212346
O O6 0.733499 0.445011 0.981280
O O7 0.557054 0.391907 0.020431
O O8 0.763914 0.370707 0.909466
O O9 0.914211 0.261636 0.507965
O O10 0.791176 0.203013 0.376585
O O11 0.000000 0.228272 0.250000
O O12 0.990009 0.184362 0.503998
O O13 0.500000 0.359378 0.750000
O O14 0.665429 0.366473 0.502470
O O15 0.872577 0.674780 0.182725
O O16 0.070910 0.681879 0.019192
O O17 0.856284 0.668284 0.877551
#
# Coordination Sequence:
#
# PCOD9455401 Si02
#       8
#     8   8   8   8   8   8   8   8
#     4  10  21  37  62  96 126 170 202 258 314 376
#     4  11  23  40  62  91 126 165 210 261 312 384
#     4  10  23  39  64  85 120 157 208 263 326 375
#     4  10  20  38  63  91 133 162 209 253 314 376
#     4  10  22  44  65  87 121 168 209 261 319 385
#     4  11  24  39  62  85 119 162 207 264 315 379
#     4  10  24  42  57  88 119 162 210 258 316 377
#     4  12  24  38  64  93 126 162 214 260 320 377
#
# _framework density 20.75611
#
# number of rings (size 3 to 8) (size 9 to 14) (size 15 to 20)
#    0.000    1.500    0.000    5.625    5.250    5.500 
#    4.500    0.625    0.000    0.000    0.000    0.000 
#    0.000    0.000    0.000    0.000    0.000    0.000 
#
# Total GULP energy -357853.214976 kJ/mol
# GULP energy per Si atom -5591.456484 kJ/mol
# Density = 2.070887 g / cm^3
# Si number density = 20.756110 Si / 1000 Ang^3
#
#
#
# Elastic Constant Matrix: (Units=GPa)
#
#
# Indices 1 2 3 4 5 6 
#
# 1 85.7405 11.8542 -2.7363 0.0000 0.0000 0.0000
# 2 11.8542 71.6930 -4.2222 0.0000 0.0000 0.0000
# 3 -2.7363 -4.2222 47.2141 0.0000 0.0000 0.0000
# 4 0.0000 0.0000 0.0000 21.2529 0.0000 0.0000
# 5 0.0000 0.0000 0.0000 0.0000 20.9406 0.0000
# 6 0.0000 0.0000 0.0000 0.0000 0.0000 25.4289
#
#
#
# Elastic Compliance Matrix: (Units=1/GPa)
#
#
# Indices 1 2 3 4 5 6 
#
# 1 0.011949 -0.001945 0.000519 0.000000 0.000000 0.000000
# 2 -0.001945 0.014339 0.001170 0.000000 0.000000 0.000000
# 3 0.000519 0.001170 0.021315 0.000000 0.000000 0.000000
# 4 0.000000 0.000000 0.000000 0.047052 0.000000 0.000000
# 5 0.000000 0.000000 0.000000 0.000000 0.047754 0.000000
# 6 0.000000 0.000000 0.000000 0.000000 0.000000 0.039325
#
#
# Mechanical properties :
#
#
# Convention : Reuss Voigt Hill
#
# Bulk Modulus (GPa) = 21.23679 23.82657 22.53168
# Shear Modulus (GPa) = 25.25966 26.84127 26.05047
#
# Velocity S-wave (km/s) = 3.49230 3.59997 3.54655
# Velocity P-wave (km/s) = 5.14931 5.36507 5.25829
#
# Compressibility (1/GPa) = 0.04708810
#
# Stress axis : x y z
#
# Youngs Moduli (GPa) = 83.69196 69.74051 46.91584
#
# Poissons Ratio (x) = 0.13565 -0.02433
# Poissons Ratio (y) = 0.16279 -0.05487
# Poissons Ratio (z) = -0.04340 -0.08156
#
# Static dielectric constant tensor:
#      x y z
#    x 1.727550 0.000000 0.000000 
#    y 0.000000 1.719950 0.000000 
#    z 0.000000 0.000000 1.782740 
# 
# From -- ./inp_files/5353.got.cif
#   From: 2010.05.17/outbox.cif.g08.bks.cpg/sg60_3_cif.got.tgz:5353.got - 2010.06.03 14:59:27.
