data_PCOD9455784
_publ_section_title
;
Structure prediction by ZEFSAII (Michael W. Deem and Ramdas Pophale) SiO2 
 PCOD9455784
Probable space group: P B C N
;
_chemical_formula_sum "Si O2"
_cell_formula_units_Z 56
_cell_length_a 26.076059
_cell_length_b 5.368784
_cell_length_c 21.941717
_cell_angle_alpha 90.000000
_cell_angle_beta 90.000000
_cell_angle_gamma 90.000000
_cell_volume 3071.768594
_symmetry_space_group_name_H-M "P B C N"
_symmetry_group_IT_number 60
_symmetry_cell_setting 'orthorhombic'
loop_
_space_group_symop_operation_xyz
x,y,z
1/2-x,1/2-y,1/2+z
1/2+x,1/2-y,-z
-x,y,1/2-z
-x,-y,-z
1/2+x,1/2+y,1/2-z
1/2-x,1/2+y,z
x,-y,1/2+z
loop_
_atom_site_type_symbol
_atom_site_label
_atom_site_fract_x
_atom_site_fract_y
_atom_site_fract_z
Si Si1 0.531072 0.300947 0.116566
Si Si2 0.726776 0.659369 0.530991
Si Si3 0.003532 0.716872 0.678066
Si Si4 0.888159 0.959338 0.030828
Si Si5 0.222819 0.218681 0.116022
Si Si6 0.454384 0.822856 0.524543
Si Si7 0.895419 0.290364 0.398751
O O1 0.528675 0.535785 0.161279
O O2 0.583628 0.286605 0.079361
O O3 0.488182 0.363689 0.065069
O O4 0.516309 0.037905 0.146441
O O5 0.765416 0.442924 0.553078
O O6 0.671389 0.542693 0.543868
O O7 0.730074 0.694151 0.457523
O O8 0.061285 0.762939 0.651817
O O9 0.000000 0.680211 0.750000
O O10 0.894431 0.876286 0.960293
O O11 0.920907 0.212059 0.029803
O O12 0.256947 0.451091 0.138860
O O13 0.162599 0.276956 0.125927
O O14 0.500000 0.000000 0.500000
O O15 0.414267 0.951163 0.570697
#
# Coordination Sequence:
#
# PCOD9455784 Si02
#       7
#     8   8   8   8   8   8   8
#     4  11  22  36  56  80 108 143 182 221 264 329
#     4   9  20  31  46  72 111 146 172 208 265 331
#     4  11  24  40  55  78 111 147 185 225 273 328
#     4  11  20  32  55  81 111 142 181 222 275 323
#     4   9  19  31  47  74 107 139 177 215 268 329
#     4  11  20  31  48  81 115 143 178 218 267 329
#     4  10  21  32  55  78 112 147 175 225 276 323
#
# _framework density 18.230539
#
# number of rings (size 3 to 8) (size 9 to 14) (size 15 to 20)
#    0.000    1.714    2.857    2.571   10.000    0.000 
#    0.000    0.000    0.000    0.000    0.000    6.000 
#    0.000    0.000    0.000    0.000    0.000    0.000 
#
# Total GULP energy -311778.910184 kJ/mol
# GULP energy per Si atom -5567.480539 kJ/mol
# Density = 1.818905 g / cm^3
# Si number density = 18.230539 Si / 1000 Ang^3
#
#
#
# Elastic Constant Matrix: (Units=GPa)
#
#
# Indices 1 2 3 4 5 6 
#
# 1 91.3463 41.1691 29.8708 0.0000 0.0000 0.0000
# 2 41.1691 91.4100 17.1384 0.0000 0.0000 0.0000
# 3 29.8708 17.1384 57.7382 0.0000 0.0000 0.0000
# 4 0.0000 0.0000 0.0000 18.7442 0.0000 0.0000
# 5 0.0000 0.0000 0.0000 0.0000 10.9666 0.0000
# 6 0.0000 0.0000 0.0000 0.0000 0.0000 21.3236
#
#
#
# Elastic Compliance Matrix: (Units=1/GPa)
#
#
# Indices 1 2 3 4 5 6 
#
# 1 0.015673 -0.005865 -0.006367 0.000000 0.000000 0.000000
# 2 -0.005865 0.013779 -0.001056 0.000000 0.000000 0.000000
# 3 -0.006367 -0.001056 0.020927 0.000000 0.000000 0.000000
# 4 0.000000 0.000000 0.000000 0.053350 0.000000 0.000000
# 5 0.000000 0.000000 0.000000 0.000000 0.091186 0.000000
# 6 0.000000 0.000000 0.000000 0.000000 0.000000 0.046896
#
#
# Mechanical properties :
#
#
# Convention : Reuss Voigt Hill
#
# Bulk Modulus (GPa) = 42.01199 46.31679 44.16439
# Shear Modulus (GPa) = 18.09484 20.36130 19.22807
#
# Velocity S-wave (km/s) = 3.15390 3.34560 3.25116
# Velocity P-wave (km/s) = 6.02973 6.35495 6.19447
#
# Compressibility (1/GPa) = 0.02380273
#
# Stress axis : x y z
#
# Youngs Moduli (GPa) = 63.80484 72.57374 47.78476
#
# Poissons Ratio (x) = 0.42564 0.30427
# Poissons Ratio (y) = 0.37421 0.05045
# Poissons Ratio (z) = 0.40627 0.07663
#
# Static dielectric constant tensor:
#      x y z
#    x 1.651800 0.000000 0.000000 
#    y 0.000000 1.758740 0.000000 
#    z 0.000000 0.000000 1.620610 
# 
# From -- ./inp_files/23271.got.cif
#   From: 2010.05.17/outbox.cif.g08.bks.cpg/sg60_12_cif.got.tgz:23271.got - 2010.06.03 14:59:27.
