data_PCOD9455105
_publ_section_title
;
Structure prediction by ZEFSAII (Michael W. Deem and Ramdas Pophale) SiO2 
 PCOD9455105
Probable space group: P B C N
;
_chemical_formula_sum "Si O2"
_cell_formula_units_Z 32
_cell_length_a 13.424948
_cell_length_b 24.754916
_cell_length_c 5.276588
_cell_angle_alpha 90.000000
_cell_angle_beta 90.000000
_cell_angle_gamma 90.000000
_cell_volume 1753.586747
_symmetry_space_group_name_H-M "P B C N"
_symmetry_group_IT_number 60
_symmetry_cell_setting 'orthorhombic'
loop_
_space_group_symop_operation_xyz
x,y,z
1/2-x,1/2-y,1/2+z
1/2+x,1/2-y,-z
-x,y,1/2-z
-x,-y,-z
1/2+x,1/2+y,1/2-z
1/2-x,1/2+y,z
x,-y,1/2+z
loop_
_atom_site_type_symbol
_atom_site_label
_atom_site_fract_x
_atom_site_fract_y
_atom_site_fract_z
Si Si1 0.112291 0.977482 0.534851
Si Si2 0.598078 0.252508 0.089669
Si Si3 0.759558 0.319607 0.334652
Si Si4 0.666059 0.642192 0.350942
O O1 0.113812 0.914958 0.607605
O O2 0.160603 0.989123 0.263555
O O3 0.000000 0.000000 0.500000
O O4 0.500000 0.243759 0.250000
O O5 0.689636 0.266760 0.281183
O O6 0.634236 0.203198 0.917767
O O7 0.594717 0.307435 0.923499
O O8 0.709727 0.350639 0.570862
O O9 0.750076 0.351932 0.072182
#
# Coordination Sequence:
#
# PCOD9455105 Si02
#       4
#     8   8   8   8
#     4  10  21  32  48  73 106 137 188 217 252 336
#     4  10  21  34  57  77 110 151 185 226 278 329
#     4  10  20  38  49  81 107 145 193 220 267 349
#     4  10  20  36  52  70 115 149 169 232 271 315
#
# _framework density 18.248311000000001
#
# number of rings (size 3 to 8) (size 9 to 14) (size 15 to 20)
#    1.500    0.500    2.500    1.500    3.500    3.000 
#    0.000    0.000    0.000    0.000    0.000    0.000 
#    0.000   20.000    0.000    0.000    0.000    0.000 
#
# Total GULP energy -178194.020470 kJ/mol
# GULP energy per Si atom -5568.563140 kJ/mol
# Density = 1.820678 g / cm^3
# Si number density = 18.248311 Si / 1000 Ang^3
#
#
#
# Elastic Constant Matrix: (Units=GPa)
#
#
# Indices 1 2 3 4 5 6 
#
# 1 22.6069 5.8827 -9.8326 0.0000 0.0000 0.0000
# 2 5.8827 82.1501 12.4757 0.0000 0.0000 0.0000
# 3 -9.8326 12.4757 115.9108 0.0000 0.0000 0.0000
# 4 0.0000 0.0000 0.0000 28.1211 0.0000 0.0000
# 5 0.0000 0.0000 0.0000 0.0000 21.8786 0.0000
# 6 0.0000 0.0000 0.0000 0.0000 0.0000 21.4730
#
#
#
# Elastic Compliance Matrix: (Units=1/GPa)
#
#
# Indices 1 2 3 4 5 6 
#
# 1 0.047222 -0.004056 0.004442 0.000000 0.000000 0.000000
# 2 -0.004056 0.012724 -0.001714 0.000000 0.000000 0.000000
# 3 0.004442 -0.001714 0.009189 0.000000 0.000000 0.000000
# 4 0.000000 0.000000 0.000000 0.035561 0.000000 0.000000
# 5 0.000000 0.000000 0.000000 0.000000 0.045707 0.000000
# 6 0.000000 0.000000 0.000000 0.000000 0.000000 0.046570
#
#
# Mechanical properties :
#
#
# Convention : Reuss Voigt Hill
#
# Bulk Modulus (GPa) = 15.04227 26.41327 20.72777
# Shear Modulus (GPa) = 22.54426 28.43731 25.49079
#
# Velocity S-wave (km/s) = 3.51866 3.95188 3.74155
# Velocity P-wave (km/s) = 4.97684 5.94382 5.48169
#
# Compressibility (1/GPa) = 0.06647931
#
# Stress axis : x y z
#
# Youngs Moduli (GPa) = 21.17663 78.59457 108.83054
#
# Poissons Ratio (x) = 0.31879 -0.48346
# Poissons Ratio (y) = 0.08590 0.18649
# Poissons Ratio (z) = -0.09407 0.13467
#
# Static dielectric constant tensor:
#      x y z
#    x 1.612390 0.000000 0.000000 
#    y 0.000000 1.639450 0.000000 
#    z 0.000000 0.000000 1.728600 
# 
# From -- ./inp_files/704.got.cif
#   From: 2010.05.17/outbox.cif.g08.bks.cpg/sg60_1_cif.got.tgz:704.got - 2010.06.03 14:59:27.
