data_PCOD9455385
_publ_section_title
;
Structure prediction by ZEFSAII (Michael W. Deem and Ramdas Pophale) SiO2 
 PCOD9455385
Probable space group: P B C N
;
_chemical_formula_sum "Si O2"
_cell_formula_units_Z 60
_cell_length_a 29.451004
_cell_length_b 13.522157
_cell_length_c 8.749809
_cell_angle_alpha 90.000000
_cell_angle_beta 90.000000
_cell_angle_gamma 90.000000
_cell_volume 3484.533560
_symmetry_space_group_name_H-M "P B C N"
_symmetry_group_IT_number 60
_symmetry_cell_setting 'orthorhombic'
loop_
_space_group_symop_operation_xyz
x,y,z
1/2-x,1/2-y,1/2+z
1/2+x,1/2-y,-z
-x,y,1/2-z
-x,-y,-z
1/2+x,1/2+y,1/2-z
1/2-x,1/2+y,z
x,-y,1/2+z
loop_
_atom_site_type_symbol
_atom_site_label
_atom_site_fract_x
_atom_site_fract_y
_atom_site_fract_z
Si Si1 0.500000 0.464495 0.750000
Si Si2 0.791684 0.813109 0.682144
Si Si3 0.792704 0.920327 0.990718
Si Si4 0.633977 0.702881 0.662588
Si Si5 0.856309 0.085243 0.959527
Si Si6 0.204863 0.585083 0.803085
Si Si7 0.063558 0.075215 0.989556
Si Si8 0.193701 0.613498 0.441176
O O1 0.465268 0.405496 0.642189
O O2 0.530097 0.531653 0.638103
O O3 0.784246 0.839889 0.859443
O O4 0.834920 0.872400 0.615983
O O5 0.803309 0.698862 0.652188
O O6 0.742982 0.842870 0.610586
O O7 0.813369 0.016889 0.908900
O O8 0.831920 0.878498 0.095676
O O9 0.751517 0.937341 0.104980
O O10 0.633019 0.673912 0.841783
O O11 0.587670 0.671915 0.578834
O O12 0.656354 0.805127 0.609002
O O13 0.899492 0.012430 0.975593
O O14 0.200894 0.589547 0.620134
O O15 0.178475 0.488278 0.859067
#
# Coordination Sequence:
#
# PCOD9455385 Si02
#       8
#     4   8   8   8   8   8   8   8
#     4  10  20  38  62  94 124 154 174 232 302 380
#     4  12  23  36  56  77 113 157 210 248 285 340
#     4  11  21  36  55  75 111 150 207 246 283 337
#     4  11  22  38  54  82 117 156 195 238 293 348
#     4  11  23  35  58  87 114 163 196 235 289 354
#     4  12  24  38  51  77 104 156 209 256 288 321
#     4  10  21  38  62  91 127 151 185 230 300 374
#     4  12  26  37  55  74 113 155 212 258 291 331
#
# _framework density 17.218948999999999
#
# number of rings (size 3 to 8) (size 9 to 14) (size 15 to 20)
#    0.000    0.800    5.333    3.200    5.600    0.000 
#    0.000    0.000    0.000    0.000    0.000    0.000 
#    0.000   18.133    0.000    0.000    0.000    0.000 
#
# Total GULP energy -334195.741035 kJ/mol
# GULP energy per Si atom -5569.929017 kJ/mol
# Density = 1.717976 g / cm^3
# Si number density = 17.218949 Si / 1000 Ang^3
#
#
#
# Elastic Constant Matrix: (Units=GPa)
#
#
# Indices 1 2 3 4 5 6 
#
# 1 61.5030 19.5284 26.6322 0.0000 0.0000 0.0000
# 2 19.5284 90.4780 22.4137 0.0000 0.0000 0.0000
# 3 26.6322 22.4137 93.0084 0.0000 0.0000 0.0000
# 4 0.0000 0.0000 0.0000 22.9498 0.0000 0.0000
# 5 0.0000 0.0000 0.0000 0.0000 23.0430 0.0000
# 6 0.0000 0.0000 0.0000 0.0000 0.0000 12.2364
#
#
#
# Elastic Compliance Matrix: (Units=1/GPa)
#
#
# Indices 1 2 3 4 5 6 
#
# 1 0.019284 -0.002972 -0.004806 0.000000 0.000000 0.000000
# 2 -0.002972 0.012212 -0.002092 0.000000 0.000000 0.000000
# 3 -0.004806 -0.002092 0.012632 0.000000 0.000000 0.000000
# 4 0.000000 0.000000 0.000000 0.043573 0.000000 0.000000
# 5 0.000000 0.000000 0.000000 0.000000 0.043397 0.000000
# 6 0.000000 0.000000 0.000000 0.000000 0.000000 0.081724
#
#
# Mechanical properties :
#
#
# Convention : Reuss Voigt Hill
#
# Bulk Modulus (GPa) = 41.00178 42.45977 41.73077
# Shear Modulus (GPa) = 20.77357 23.40683 22.09020
#
# Velocity S-wave (km/s) = 3.47715 3.69096 3.58565
# Velocity P-wave (km/s) = 6.32333 6.54801 6.43665
#
# Compressibility (1/GPa) = 0.02438919
#
# Stress axis : x y z
#
# Youngs Moduli (GPa) = 51.85670 81.88640 79.16447
#
# Poissons Ratio (x) = 0.24334 0.38044
# Poissons Ratio (y) = 0.15410 0.16561
# Poissons Ratio (z) = 0.24921 0.17131
#
# Static dielectric constant tensor:
#      x y z
#    x 1.598420 0.000000 0.000000 
#    y 0.000000 1.631690 0.000000 
#    z 0.000000 0.000000 1.651520 
# 
# From -- ./inp_files/8239.got.cif
#   From: 2010.05.17/outbox.cif.g08.bks.cpg/sg60_5_cif.got.tgz:8239.got - 2010.06.03 14:59:27.
