data_PCOD9455414
_publ_section_title
;
Structure prediction by ZEFSAII (Michael W. Deem and Ramdas Pophale) SiO2 
 PCOD9455414
Probable space group: P B C N
;
_chemical_formula_sum "Si O2"
_cell_formula_units_Z 48
_cell_length_a 9.761046
_cell_length_b 26.258452
_cell_length_c 9.229039
_cell_angle_alpha 90.000000
_cell_angle_beta 90.000000
_cell_angle_gamma 90.000000
_cell_volume 2365.494597
_symmetry_space_group_name_H-M "P B C N"
_symmetry_group_IT_number 60
_symmetry_cell_setting 'orthorhombic'
loop_
_space_group_symop_operation_xyz
x,y,z
1/2-x,1/2-y,1/2+z
1/2+x,1/2-y,-z
-x,y,1/2-z
-x,-y,-z
1/2+x,1/2+y,1/2-z
1/2-x,1/2+y,z
x,-y,1/2+z
loop_
_atom_site_type_symbol
_atom_site_label
_atom_site_fract_x
_atom_site_fract_y
_atom_site_fract_z
Si Si1 0.500000 0.917839 0.250000
Si Si2 0.700797 0.539742 0.756498
Si Si3 0.893562 0.667101 0.539497
Si Si4 0.096444 0.802475 0.461376
Si Si5 0.514366 0.597928 0.947004
Si Si6 0.500000 0.253235 0.750000
Si Si7 0.000000 0.947122 0.750000
Si Si8 0.500000 0.217073 0.250000
O O1 0.637557 0.951872 0.248606
O O2 0.523340 0.879496 0.112324
O O3 0.649936 0.567591 0.901958
O O4 0.609259 0.570209 0.638423
O O5 0.633759 0.483897 0.751304
O O6 0.730708 0.662749 0.547822
O O7 0.917474 0.715702 0.644093
O O8 0.932772 0.682324 0.375402
O O9 0.975985 0.841952 0.419623
O O10 0.092609 0.755349 0.349406
O O11 0.082224 0.784790 0.628536
O O12 0.492586 0.588256 0.113042
#
# Coordination Sequence:
#
# PCOD9455414 Si02
#       8
#     4   8   8   8   8   4   4   4
#     4  11  22  40  61  87 120 174 190 252 294 373
#     4  10  20  39  62  86 118 157 201 233 313 356
#     4  10  21  38  56  82 127 156 204 240 303 341
#     4  11  19  36  59  88 115 155 208 242 296 352
#     4  10  20  38  64  90 116 153 198 250 295 362
#     4   9  21  34  52  86 113 163 192 250 291 355
#     4  10  21  41  65  94 118 152 193 266 298 356
#     4  10  22  37  58  89 119 165 195 254 285 352
#
# _framework density 20.291740000000001
#
# number of rings (size 3 to 8) (size 9 to 14) (size 15 to 20)
#    0.000    2.000    1.667    4.500    0.000    0.000 
#   12.000    3.333    0.000    0.000    0.000    0.000 
#    0.000    0.000    0.000    0.000    0.000    0.000 
#
# Total GULP energy -267283.805841 kJ/mol
# GULP energy per Si atom -5568.412622 kJ/mol
# Density = 2.024556 g / cm^3
# Si number density = 20.291740 Si / 1000 Ang^3
#
#
#
# Elastic Constant Matrix: (Units=GPa)
#
#
# Indices 1 2 3 4 5 6 
#
# 1 97.8761 8.5750 6.2693 0.0000 0.0000 0.0000
# 2 8.5750 47.0374 8.1510 0.0000 0.0000 0.0000
# 3 6.2693 8.1510 134.6954 0.0000 0.0000 0.0000
# 4 0.0000 0.0000 0.0000 15.4799 0.0000 0.0000
# 5 0.0000 0.0000 0.0000 0.0000 8.7304 0.0000
# 6 0.0000 0.0000 0.0000 0.0000 0.0000 18.4853
#
#
#
# Elastic Compliance Matrix: (Units=1/GPa)
#
#
# Indices 1 2 3 4 5 6 
#
# 1 0.010401 -0.001832 -0.000373 0.000000 0.000000 0.000000
# 2 -0.001832 0.021807 -0.001234 0.000000 0.000000 0.000000
# 3 -0.000373 -0.001234 0.007516 0.000000 0.000000 0.000000
# 4 0.000000 0.000000 0.000000 0.064600 0.000000 0.000000
# 5 0.000000 0.000000 0.000000 0.000000 0.114543 0.000000
# 6 0.000000 0.000000 0.000000 0.000000 0.000000 0.054097
#
#
# Mechanical properties :
#
#
# Convention : Reuss Voigt Hill
#
# Bulk Modulus (GPa) = 30.44450 36.17772 33.31111
# Shear Modulus (GPa) = 17.19442 25.64669 21.42055
#
# Velocity S-wave (km/s) = 2.91410 3.55899 3.25257
# Velocity P-wave (km/s) = 5.13407 5.89543 5.52787
#
# Compressibility (1/GPa) = 0.03284666
#
# Stress axis : x y z
#
# Youngs Moduli (GPa) = 96.14122 45.85581 133.04533
#
# Poissons Ratio (x) = 0.08399 0.04966
# Poissons Ratio (y) = 0.17608 0.16423
# Poissons Ratio (z) = 0.03589 0.05661
#
# Static dielectric constant tensor:
#      x y z
#    x 1.769220 0.000000 0.000000 
#    y 0.000000 1.729600 0.000000 
#    z 0.000000 0.000000 1.706250 
# 
# From -- ./inp_files/4306.got.cif
#   From: 2010.05.17/outbox.cif.g08.bks.cpg/sg60_3_cif.got.tgz:4306.got - 2010.06.03 14:59:27.
