data_PCOD9455861
_publ_section_title
;
Structure prediction by ZEFSAII (Michael W. Deem and Ramdas Pophale) SiO2 
 PCOD9455861
Probable space group: P B C N
;
_chemical_formula_sum "Si O2"
_cell_formula_units_Z 52
_cell_length_a 6.328589
_cell_length_b 21.621975
_cell_length_c 22.284960
_cell_angle_alpha 90.000000
_cell_angle_beta 90.000000
_cell_angle_gamma 90.000000
_cell_volume 3049.398005
_symmetry_space_group_name_H-M "P B C N"
_symmetry_group_IT_number 60
_symmetry_cell_setting 'orthorhombic'
loop_
_space_group_symop_operation_xyz
x,y,z
1/2-x,1/2-y,1/2+z
1/2+x,1/2-y,-z
-x,y,1/2-z
-x,-y,-z
1/2+x,1/2+y,1/2-z
1/2-x,1/2+y,z
x,-y,1/2+z
loop_
_atom_site_type_symbol
_atom_site_label
_atom_site_fract_x
_atom_site_fract_y
_atom_site_fract_z
Si Si1 0.364482 0.049521 0.460857
Si Si2 0.616372 0.135778 0.811975
Si Si3 0.621330 0.826673 0.977893
Si Si4 0.500000 0.569248 0.750000
Si Si5 0.812832 0.287322 0.419553
Si Si6 0.725031 0.960864 0.140851
Si Si7 0.005589 0.103819 0.538479
O O1 0.472737 0.116703 0.458641
O O2 0.144616 0.059449 0.496200
O O3 0.500000 0.000000 0.500000
O O4 0.342200 0.022242 0.394272
O O5 0.500000 0.148314 0.750000
O O6 0.617222 0.196511 0.852768
O O7 0.477379 0.083279 0.846495
O O8 0.845156 0.110058 0.792084
O O9 0.684802 0.775424 0.929483
O O10 0.505389 0.791454 0.033052
O O11 0.832973 0.859471 0.000437
O O12 0.650753 0.532493 0.703721
O O13 0.664761 0.345692 0.435009
O O14 0.880484 0.929000 0.092268
#
# Coordination Sequence:
#
# PCOD9455861 Si02
#       7
#     8   8   8   4   8   8   8
#     4  11  23  34  54  89 119 149 186 231 295 359
#     4  10  21  36  57  89 109 146 197 242 287 333
#     4  11  22  33  55  90 114 155 182 234 304 345
#     4  10  22  34  58  88 104 156 192 242 294 318
#     4  11  20  36  55  84 121 145 191 238 287 359
#     4  11  20  36  57  84 118 145 193 239 286 348
#     4  11  20  34  58  87 116 149 181 234 297 339
#
# _framework density 17.052547000000001
#
# number of rings (size 3 to 8) (size 9 to 14) (size 15 to 20)
#    0.000    1.231    6.154    1.385    0.000    0.000 
#    0.000    0.000    0.000    0.000   26.000    0.000 
#    0.000    0.000    0.000    0.000    0.000    0.000 
#
# Total GULP energy -290046.266333 kJ/mol
# GULP energy per Si atom -5577.812814 kJ/mol
# Density = 1.701373 g / cm^3
# Si number density = 17.052547 Si / 1000 Ang^3
#
#
#
# Elastic Constant Matrix: (Units=GPa)
#
#
# Indices 1 2 3 4 5 6 
#
# 1 80.7266 26.5618 26.8409 0.0000 0.0000 0.0000
# 2 26.5618 84.9460 49.7165 0.0000 0.0000 0.0000
# 3 26.8409 49.7165 95.2387 0.0000 0.0000 0.0000
# 4 0.0000 0.0000 0.0000 29.7926 0.0000 0.0000
# 5 0.0000 0.0000 0.0000 0.0000 23.7987 0.0000
# 6 0.0000 0.0000 0.0000 0.0000 0.0000 28.9839
#
#
#
# Elastic Compliance Matrix: (Units=1/GPa)
#
#
# Indices 1 2 3 4 5 6 
#
# 1 0.014186 -0.003018 -0.002423 0.000000 0.000000 0.000000
# 2 -0.003018 0.017593 -0.008333 0.000000 0.000000 0.000000
# 3 -0.002423 -0.008333 0.015533 0.000000 0.000000 0.000000
# 4 0.000000 0.000000 0.000000 0.033565 0.000000 0.000000
# 5 0.000000 0.000000 0.000000 0.000000 0.042019 0.000000
# 6 0.000000 0.000000 0.000000 0.000000 0.000000 0.034502
#
#
# Mechanical properties :
#
#
# Convention : Reuss Voigt Hill
#
# Bulk Modulus (GPa) = 50.59673 51.90554 51.25113
# Shear Modulus (GPa) = 26.10493 27.03449 26.56971
#
# Velocity S-wave (km/s) = 3.91686 3.98598 3.95157
# Velocity P-wave (km/s) = 7.08457 7.18949 7.13722
#
# Compressibility (1/GPa) = 0.01976412
#
# Stress axis : x y z
#
# Youngs Moduli (GPa) = 70.49207 56.84008 64.37938
#
# Poissons Ratio (x) = 0.17154 0.15596
# Poissons Ratio (y) = 0.21274 0.53650
# Poissons Ratio (z) = 0.17077 0.47367
#
# Static dielectric constant tensor:
#      x y z
#    x 1.625500 0.000000 0.000000 
#    y 0.000000 1.564690 0.000000 
#    z 0.000000 0.000000 1.586050 
# 
# From -- ./inp_files/21647.got.cif
#   From: 2010.05.17/outbox.cif.g08.bks.cpg/sg60_11_cif.got.tgz:21647.got - 2010.06.03 14:59:27.
