data_PCOD9455680
_publ_section_title
;
Structure prediction by ZEFSAII (Michael W. Deem and Ramdas Pophale) SiO2 
 PCOD9455680
Probable space group: P B C N
;
_chemical_formula_sum "Si O2"
_cell_formula_units_Z 60
_cell_length_a 29.807349
_cell_length_b 5.193154
_cell_length_c 16.447033
_cell_angle_alpha 90.000000
_cell_angle_beta 90.000000
_cell_angle_gamma 90.000000
_cell_volume 2545.904554
_symmetry_space_group_name_H-M "P B C N"
_symmetry_group_IT_number 60
_symmetry_cell_setting 'orthorhombic'
loop_
_space_group_symop_operation_xyz
x,y,z
1/2-x,1/2-y,1/2+z
1/2+x,1/2-y,-z
-x,y,1/2-z
-x,-y,-z
1/2+x,1/2+y,1/2-z
1/2-x,1/2+y,z
x,-y,1/2+z
loop_
_atom_site_type_symbol
_atom_site_label
_atom_site_fract_x
_atom_site_fract_y
_atom_site_fract_z
Si Si1 0.475841 0.247262 0.090095
Si Si2 0.773974 0.075783 0.740346
Si Si3 0.935101 0.665307 0.010437
Si Si4 0.583033 0.835848 0.166267
Si Si5 0.120749 0.018871 0.578042
Si Si6 0.000000 0.542463 0.250000
Si Si7 0.277835 0.384983 0.061724
Si Si8 0.126472 0.840535 0.268320
O O1 0.525609 0.323640 0.059960
O O2 0.430492 0.384503 0.061290
O O3 0.475946 0.229677 0.186560
O O4 0.465964 0.957632 0.059778
O O5 0.762273 0.787439 0.715651
O O6 0.775942 0.097873 0.839020
O O7 0.821825 0.154910 0.707527
O O8 0.919410 0.455189 0.076862
O O9 0.888978 0.747976 0.965702
O O10 0.601245 0.549369 0.175941
O O11 0.533657 0.861957 0.202191
O O12 0.610010 0.049015 0.219770
O O13 0.168511 0.120301 0.544325
O O14 0.123833 0.052915 0.675537
O O15 0.249374 0.137968 0.034118
#
# Coordination Sequence:
#
# PCOD9455680 Si02
#       8
#     8   8   8   8   8   4   8   8
#     4  10  21  41  61  98 129 175 220 265 324 386
#     4   9  17  33  58  89 123 155 200 269 330 377
#     4  10  24  40  62  91 135 182 217 264 326 398
#     4  11  24  41  60  92 130 172 212 263 316 383
#     4  11  22  37  69  92 130 168 224 271 329 392
#     4  10  20  42  62  92 134 160 218 268 310 370
#     4   9  20  35  58  94 126 158 208 276 331 379
#     4  11  23  39  65  96 125 164 222 266 323 382
#
# _framework density 23.567263000000001
#
# number of rings (size 3 to 8) (size 9 to 14) (size 15 to 20)
#    0.000    1.867    1.333    2.000    3.733    2.667 
#    7.200    0.000    0.000    4.800    0.000    0.000 
#    0.000    0.000    0.000    0.000    0.000    0.000 
#
# Total GULP energy -334545.962170 kJ/mol
# GULP energy per Si atom -5575.766036 kJ/mol
# Density = 2.351362 g / cm^3
# Si number density = 23.567263 Si / 1000 Ang^3
#
#
#
# Elastic Constant Matrix: (Units=GPa)
#
#
# Indices 1 2 3 4 5 6 
#
# 1 114.9250 19.3779 3.2915 0.0000 0.0000 0.0000
# 2 19.3779 57.2778 -8.3550 0.0000 0.0000 0.0000
# 3 3.2915 -8.3550 51.6674 0.0000 0.0000 0.0000
# 4 0.0000 0.0000 0.0000 7.8322 0.0000 0.0000
# 5 0.0000 0.0000 0.0000 0.0000 15.8215 0.0000
# 6 0.0000 0.0000 0.0000 0.0000 0.0000 31.8245
#
#
#
# Elastic Compliance Matrix: (Units=1/GPa)
#
#
# Indices 1 2 3 4 5 6 
#
# 1 0.009291 -0.003308 -0.001127 0.000000 0.000000 0.000000
# 2 -0.003308 0.019058 0.003293 0.000000 0.000000 0.000000
# 3 -0.001127 0.003293 0.019959 0.000000 0.000000 0.000000
# 4 0.000000 0.000000 0.000000 0.127677 0.000000 0.000000
# 5 0.000000 0.000000 0.000000 0.000000 0.063205 0.000000
# 6 0.000000 0.000000 0.000000 0.000000 0.000000 0.031422
#
#
# Mechanical properties :
#
#
# Convention : Reuss Voigt Hill
#
# Bulk Modulus (GPa) = 21.72768 28.05544 24.89156
# Shear Modulus (GPa) = 17.34675 25.06604 21.20640
#
# Velocity S-wave (km/s) = 2.71597 3.26482 3.00296
# Velocity P-wave (km/s) = 4.36747 5.11296 4.75485
#
# Compressibility (1/GPa) = 0.04602424
#
# Stress axis : x y z
#
# Youngs Moduli (GPa) = 107.62725 52.47107 50.10329
#
# Poissons Ratio (x) = 0.17356 0.05646
# Poissons Ratio (y) = 0.35600 -0.16497
# Poissons Ratio (z) = 0.12127 -0.17276
#
# Static dielectric constant tensor:
#      x y z
#    x 1.882950 0.000000 0.000000 
#    y 0.000000 2.412230 0.000000 
#    z 0.000000 0.000000 1.922610 
# 
# From -- ./inp_files/21228.got.cif
#   From: 2010.05.17/outbox.cif.g08.bks.cpg/sg60_11_cif.got.tgz:21228.got - 2010.06.03 14:59:27.
