data_PCOD9455135
_publ_section_title
;
Structure prediction by ZEFSAII (Michael W. Deem and Ramdas Pophale) SiO2 
 PCOD9455135
Probable space group: P B C N
;
_chemical_formula_sum "Si O2"
_cell_formula_units_Z 60
_cell_length_a 11.833115
_cell_length_b 29.639610
_cell_length_c 8.710443
_cell_angle_alpha 90.000000
_cell_angle_beta 90.000000
_cell_angle_gamma 90.000000
_cell_volume 3055.004211
_symmetry_space_group_name_H-M "P B C N"
_symmetry_group_IT_number 60
_symmetry_cell_setting 'orthorhombic'
loop_
_space_group_symop_operation_xyz
x,y,z
1/2-x,1/2-y,1/2+z
1/2+x,1/2-y,-z
-x,y,1/2-z
-x,-y,-z
1/2+x,1/2+y,1/2-z
1/2-x,1/2+y,z
x,-y,1/2+z
loop_
_atom_site_type_symbol
_atom_site_label
_atom_site_fract_x
_atom_site_fract_y
_atom_site_fract_z
Si Si1 0.250935 0.017322 0.004011
Si Si2 0.631128 0.846756 0.291594
Si Si3 0.207786 0.724575 0.460350
Si Si4 0.800374 0.323023 0.962089
Si Si5 0.127909 0.053883 0.301546
Si Si6 0.870068 0.446138 0.296391
Si Si7 0.369856 0.344467 0.787929
Si Si8 0.000000 0.295783 0.750000
O O1 0.202113 0.045203 0.147679
O O2 0.343780 0.984548 0.080454
O O3 0.299162 0.045008 0.859699
O O4 0.161624 0.982462 0.929426
O O5 0.500000 0.842292 0.250000
O O6 0.667197 0.805835 0.398327
O O7 0.653024 0.896076 0.361158
O O8 0.691167 0.844043 0.128480
O O9 0.260520 0.771345 0.514583
O O10 0.305757 0.694933 0.379621
O O11 0.097168 0.729853 0.349410
O O12 0.703747 0.347118 0.866018
O O13 0.920073 0.323329 0.869554
O O14 0.137437 0.105531 0.359284
O O15 0.000000 0.047177 0.250000
O O16 0.000000 0.447566 0.250000
O O17 0.500000 0.333807 0.750000
#
# Coordination Sequence:
#
# PCOD9455135 Si02
#       8
#     8   8   8   8   8   8   8   4
#     4  10  20  36  58  86 116 148 192 230 284 350
#     4  11  21  38  60  87 115 152 198 248 289 346
#     4  11  23  39  62  84 118 154 199 243 295 346
#     4  11  23  39  62  84 118 154 199 243 295 346
#     4  10  20  37  59  84 116 150 191 233 285 342
#     4  10  21  35  58  83 119 150 188 235 292 340
#     4  10  23  40  58  86 120 156 195 243 294 343
#     4  10  22  40  58  86 110 150 198 234 290 348
#
# _framework density 19.639906
#
# number of rings (size 3 to 8) (size 9 to 14) (size 15 to 20)
#    0.000    1.600    1.333    4.000    1.867    1.067 
#    0.000    0.000    8.800    4.800    0.000    0.000 
#    0.000    0.000    0.000    0.000    0.000    0.000 
#
# Total GULP energy -334837.992334 kJ/mol
# GULP energy per Si atom -5580.633206 kJ/mol
# Density = 1.959520 g / cm^3
# Si number density = 19.639906 Si / 1000 Ang^3
#
#
#
# Elastic Constant Matrix: (Units=GPa)
#
#
# Indices 1 2 3 4 5 6 
#
# 1 100.5203 24.9091 4.7027 0.0000 0.0000 0.0000
# 2 24.9091 82.7758 -7.3198 0.0000 0.0000 0.0000
# 3 4.7027 -7.3198 41.9292 0.0000 0.0000 0.0000
# 4 0.0000 0.0000 0.0000 44.8395 0.0000 0.0000
# 5 0.0000 0.0000 0.0000 0.0000 22.3984 0.0000
# 6 0.0000 0.0000 0.0000 0.0000 0.0000 -71.5678
#
#
#
# Elastic Compliance Matrix: (Units=1/GPa)
#
#
# Indices 1 2 3 4 5 6 
#
# 1 0.010885 -0.003437 -0.001821 0.000000 0.000000 0.000000
# 2 -0.003437 0.013355 0.002717 0.000000 0.000000 0.000000
# 3 -0.001821 0.002717 0.024528 0.000000 0.000000 0.000000
# 4 0.000000 0.000000 0.000000 0.022302 0.000000 0.000000
# 5 0.000000 0.000000 0.000000 0.000000 0.044646 0.000000
# 6 0.000000 0.000000 0.000000 0.000000 0.000000 -0.013973
#
#
# Mechanical properties :
#
#
# Convention : Reuss Voigt Hill
#
# Bulk Modulus (GPa) = 22.88974 29.97881 26.43427
# Shear Modulus (GPa) = 41.19064 12.66292 26.92678
#
# Velocity S-wave (km/s) = 4.58459 2.54196 3.70675
# Velocity P-wave (km/s) = 6.30116 4.89007 5.63992
#
# Compressibility (1/GPa) = 0.04368769
#
# Stress axis : x y z
#
# Youngs Moduli (GPa) = 91.86949 74.87704 40.76931
#
# Poissons Ratio (x) = 0.25732 0.07423
# Poissons Ratio (y) = 0.31571 -0.11077
# Poissons Ratio (z) = 0.16727 -0.20344
#
# Static dielectric constant tensor:
#      x y z
#    x 1.656210 0.000000 0.000000 
#    y 0.000000 1.674190 0.000000 
#    z 0.000000 0.000000 1.676360 
# 
# From -- ./inp_files/5243.got.cif
#   From: 2010.05.17/outbox.cif.g08.bks.cpg/sg60_3_cif.got.tgz:5243.got - 2010.06.03 14:59:27.
