data_PCOD9455448
_publ_section_title
;
Structure prediction by ZEFSAII (Michael W. Deem and Ramdas Pophale) SiO2 
 PCOD9455448
Probable space group: P B C N
;
_chemical_formula_sum "Si O2"
_cell_formula_units_Z 48
_cell_length_a 11.637787
_cell_length_b 13.999810
_cell_length_c 14.971900
_cell_angle_alpha 90.000000
_cell_angle_beta 90.000000
_cell_angle_gamma 90.000000
_cell_volume 2439.323859
_symmetry_space_group_name_H-M "P B C N"
_symmetry_group_IT_number 60
_symmetry_cell_setting 'orthorhombic'
loop_
_space_group_symop_operation_xyz
x,y,z
1/2-x,1/2-y,1/2+z
1/2+x,1/2-y,-z
-x,y,1/2-z
-x,-y,-z
1/2+x,1/2+y,1/2-z
1/2-x,1/2+y,z
x,-y,1/2+z
loop_
_atom_site_type_symbol
_atom_site_label
_atom_site_fract_x
_atom_site_fract_y
_atom_site_fract_z
Si Si1 0.679651 0.004671 0.948753
Si Si2 0.937128 0.456652 0.134271
Si Si3 0.734750 0.692452 0.041342
Si Si4 0.524613 0.263183 0.653470
Si Si5 0.874279 0.341517 0.712508
Si Si6 0.277268 0.322200 0.613883
O O1 0.772516 0.934658 0.905892
O O2 0.571254 0.019313 0.883247
O O3 0.624618 0.961236 0.038713
O O4 0.734084 0.102505 0.980984
O O5 0.932988 0.346699 0.165442
O O6 0.882886 0.543738 0.191406
O O7 0.620091 0.680925 0.099044
O O8 0.834277 0.703615 0.117446
O O9 0.712068 0.775647 0.970078
O O10 0.500000 0.306321 0.750000
O O11 0.400697 0.272022 0.608239
O O12 0.784601 0.312447 0.790217
O O13 0.000000 0.314050 0.750000
#
# Coordination Sequence:
#
# PCOD9455448 Si02
#       6
#     8   8   8   8   8   8
#     4  10  21  39  64  95 123 174 220 281 330 390
#     4  10  20  38  67  95 123 164 234 279 323 379
#     4  11  25  42  64 100 139 174 227 273 342 405
#     4  12  24  41  63  97 137 177 215 278 337 402
#     4  11  23  41  67  99 132 169 226 289 324 386
#     4  12  24  41  67  99 137 176 222 279 344 393
#
# _framework density 19.677582999999998
#
# number of rings (size 3 to 8) (size 9 to 14) (size 15 to 20)
#    0.000    1.000    6.667    0.500    2.333    0.667 
#    0.000    0.000    0.000    0.000    0.000    0.000 
#    0.000    0.000    0.000    0.000    0.000    0.000 
#
# Total GULP energy -267617.762895 kJ/mol
# GULP energy per Si atom -5575.370060 kJ/mol
# Density = 1.963280 g / cm^3
# Si number density = 19.677583 Si / 1000 Ang^3
#
#
#
# Elastic Constant Matrix: (Units=GPa)
#
#
# Indices 1 2 3 4 5 6 
#
# 1 55.6133 12.7348 -1.9181 0.0000 0.0000 0.0000
# 2 12.7348 65.2570 15.9488 0.0000 0.0000 0.0000
# 3 -1.9181 15.9488 87.6000 0.0000 0.0000 0.0000
# 4 0.0000 0.0000 0.0000 21.9504 0.0000 0.0000
# 5 0.0000 0.0000 0.0000 0.0000 34.3564 0.0000
# 6 0.0000 0.0000 0.0000 0.0000 0.0000 14.1189
#
#
#
# Elastic Compliance Matrix: (Units=1/GPa)
#
#
# Indices 1 2 3 4 5 6 
#
# 1 0.018930 -0.003972 0.001138 0.000000 0.000000 0.000000
# 2 -0.003972 0.016871 -0.003159 0.000000 0.000000 0.000000
# 3 0.001138 -0.003159 0.012015 0.000000 0.000000 0.000000
# 4 0.000000 0.000000 0.000000 0.045557 0.000000 0.000000
# 5 0.000000 0.000000 0.000000 0.000000 0.029107 0.000000
# 6 0.000000 0.000000 0.000000 0.000000 0.000000 0.070827
#
#
# Mechanical properties :
#
#
# Convention : Reuss Voigt Hill
#
# Bulk Modulus (GPa) = 27.90918 29.11127 28.51022
# Shear Modulus (GPa) = 23.01629 26.19881 24.60755
#
# Velocity S-wave (km/s) = 3.42376 3.65280 3.54013
# Velocity P-wave (km/s) = 5.46292 5.71111 5.58840
#
# Compressibility (1/GPa) = 0.03583050
#
# Stress axis : x y z
#
# Youngs Moduli (GPa) = 52.82580 59.27277 83.22584
#
# Poissons Ratio (x) = 0.23545 -0.09469
# Poissons Ratio (y) = 0.20984 0.26288
# Poissons Ratio (z) = -0.06010 0.18722
#
# Static dielectric constant tensor:
#      x y z
#    x 1.734670 0.000000 0.000000 
#    y 0.000000 1.706690 0.000000 
#    z 0.000000 0.000000 1.753130 
# 
# From -- ./inp_files/16059.got.cif
#   From: 2010.05.17/outbox.cif.g08.bks.cpg/sg60_9_cif.got.tgz:16059.got - 2010.06.03 14:59:27.
