data_PCOD9455366
_publ_section_title
;
Structure prediction by ZEFSAII (Michael W. Deem and Ramdas Pophale) SiO2 
 PCOD9455366
Probable space group: P B C N
;
_chemical_formula_sum "Si O2"
_cell_formula_units_Z 32
_cell_length_a 19.268407
_cell_length_b 13.743537
_cell_length_c 5.089301
_cell_angle_alpha 90.000000
_cell_angle_beta 90.000000
_cell_angle_gamma 90.000000
_cell_volume 1347.728662
_symmetry_space_group_name_H-M "P B C N"
_symmetry_group_IT_number 60
_symmetry_cell_setting 'orthorhombic'
loop_
_space_group_symop_operation_xyz
x,y,z
1/2-x,1/2-y,1/2+z
1/2+x,1/2-y,-z
-x,y,1/2-z
-x,-y,-z
1/2+x,1/2+y,1/2-z
1/2-x,1/2+y,z
x,-y,1/2+z
loop_
_atom_site_type_symbol
_atom_site_label
_atom_site_fract_x
_atom_site_fract_y
_atom_site_fract_z
Si Si1 0.285123 0.716061 0.881726
Si Si2 0.077465 0.457401 0.062216
Si Si3 0.434366 0.253633 0.436871
Si Si4 0.370296 0.437338 0.647951
O O1 0.239337 0.713846 0.620215
O O2 0.361506 0.746627 0.780214
O O3 0.300442 0.616999 0.045128
O O4 0.113110 0.518376 0.288039
O O5 0.070126 0.343448 0.111561
O O6 0.000000 0.500000 0.000000
O O7 0.500000 0.247845 0.250000
O O8 0.427934 0.354314 0.593408
O O9 0.376366 0.473509 0.944348
#
# Coordination Sequence:
#
# PCOD9455366 Si02
#       4
#     8   8   8   8
#     4  10  23  45  68  95 138 178 225 278 343 400
#     4  10  20  38  61  93 139 161 221 280 333 391
#     4  10  23  42  73 100 137 183 226 293 333 407
#     4  10  23  43  69 100 138 176 231 280 335 415
#
# _framework density 23.743652000000001
#
# number of rings (size 3 to 8) (size 9 to 14) (size 15 to 20)
#    1.500    0.500    2.500    1.500    0.000    5.000 
#    0.000    7.500    0.000    0.000    0.000    0.000 
#    0.000    0.000    0.000    0.000    0.000    0.000 
#
# Total GULP energy -178266.326784 kJ/mol
# GULP energy per Si atom -5570.822712 kJ/mol
# Density = 2.368961 g / cm^3
# Si number density = 23.743652 Si / 1000 Ang^3
#
#
#
# Elastic Constant Matrix: (Units=GPa)
#
#
# Indices 1 2 3 4 5 6 
#
# 1 81.8731 6.1449 10.5213 0.0000 0.0000 0.0000
# 2 6.1449 99.6873 -4.6152 0.0000 0.0000 0.0000
# 3 10.5213 -4.6152 96.1823 0.0000 0.0000 0.0000
# 4 0.0000 0.0000 0.0000 131.2925 0.0000 0.0000
# 5 0.0000 0.0000 0.0000 0.0000 4.7191 0.0000
# 6 0.0000 0.0000 0.0000 0.0000 0.0000 17.9013
#
#
#
# Elastic Compliance Matrix: (Units=1/GPa)
#
#
# Indices 1 2 3 4 5 6 
#
# 1 0.012457 -0.000833 -0.001403 0.000000 0.000000 0.000000
# 2 -0.000833 0.010109 0.000576 0.000000 0.000000 0.000000
# 3 -0.001403 0.000576 0.010578 0.000000 0.000000 0.000000
# 4 0.000000 0.000000 0.000000 0.007617 0.000000 0.000000
# 5 0.000000 0.000000 0.000000 0.000000 0.211904 0.000000
# 6 0.000000 0.000000 0.000000 0.000000 0.000000 0.055862
#
#
# Mechanical properties :
#
#
# Convention : Reuss Voigt Hill
#
# Bulk Modulus (GPa) = 33.52811 33.53833 33.53322
# Shear Modulus (GPa) = 15.53824 48.49536 32.01680
#
# Velocity S-wave (km/s) = 2.56093 4.52426 3.67609
# Velocity P-wave (km/s) = 4.78498 6.43799 5.67202
#
# Compressibility (1/GPa) = 0.02982572
#
# Stress axis : x y z
#
# Youngs Moduli (GPa) = 80.27764 98.91806 94.53588
#
# Poissons Ratio (x) = 0.08238 0.13260
# Poissons Ratio (y) = 0.06685 -0.05447
# Poissons Ratio (z) = 0.11260 -0.05699
#
# Static dielectric constant tensor:
#      x y z
#    x 1.916880 0.000000 0.000000 
#    y 0.000000 1.954300 0.000000 
#    z 0.000000 0.000000 1.806900 
# 
# From -- ./inp_files/1928.got.cif
#   From: 2010.05.17/outbox.cif.g08.bks.cpg/sg60_1_cif.got.tgz:1928.got - 2010.06.03 14:59:27.
