data_PCOD9455290
_publ_section_title
;
Structure prediction by ZEFSAII (Michael W. Deem and Ramdas Pophale) SiO2 
 PCOD9455290
Probable space group: P B C N
;
_chemical_formula_sum "Si O2"
_cell_formula_units_Z 52
_cell_length_a 4.993720
_cell_length_b 19.506380
_cell_length_c 24.752253
_cell_angle_alpha 90.000000
_cell_angle_beta 90.000000
_cell_angle_gamma 90.000000
_cell_volume 2411.102112
_symmetry_space_group_name_H-M "P B C N"
_symmetry_group_IT_number 60
_symmetry_cell_setting 'orthorhombic'
loop_
_space_group_symop_operation_xyz
x,y,z
1/2-x,1/2-y,1/2+z
1/2+x,1/2-y,-z
-x,y,1/2-z
-x,-y,-z
1/2+x,1/2+y,1/2-z
1/2-x,1/2+y,z
x,-y,1/2+z
loop_
_atom_site_type_symbol
_atom_site_label
_atom_site_fract_x
_atom_site_fract_y
_atom_site_fract_z
Si Si1 0.311810 0.436514 0.018678
Si Si2 0.432180 0.011697 0.112027
Si Si3 0.940109 0.160764 0.607519
Si Si4 0.000000 0.312895 0.250000
Si Si5 0.375659 0.427221 0.200187
Si Si6 0.590427 0.602272 0.096632
Si Si7 0.535070 0.245488 0.865674
O O1 0.071815 0.465405 0.056916
O O2 0.465865 0.384183 0.057497
O O3 0.500000 0.500000 0.000000
O O4 0.270347 0.396844 0.962644
O O5 0.702989 0.051122 0.126127
O O6 0.196681 0.065574 0.098912
O O7 0.331144 0.967378 0.162526
O O8 0.923618 0.107253 0.657308
O O9 0.164319 0.218156 0.622925
O O10 0.657690 0.196257 0.599841
O O11 0.230158 0.364350 0.230271
O O12 0.045887 0.267521 0.303176
O O13 0.500000 0.468940 0.250000
O O14 0.536196 0.677387 0.118931
#
# Coordination Sequence:
#
# PCOD9455290 Si02
#       7
#     8   8   8   4   8   8   8
#     4   9  21  39  65  90 127 161 202 257 319 363
#     4  10  23  39  62  89 119 156 206 249 312 370
#     4  10  22  38  62  95 115 161 209 251 298 374
#     4  10  22  38  62  86 116 164 196 256 308 354
#     4  10  20  37  64  86 116 148 206 261 302 349
#     4  11  23  41  59  89 127 165 194 251 309 376
#     4  11  23  40  61  86 126 160 211 246 303 376
#
# _framework density 21.5669
#
# number of rings (size 3 to 8) (size 9 to 14) (size 15 to 20)
#    0.000    1.846    1.538    1.385    2.154   11.077 
#    1.385    0.000    0.000    0.000    0.000    0.000 
#    0.000    0.000    0.000    0.000    0.000    0.000 
#
# Total GULP energy -290370.481529 kJ/mol
# GULP energy per Si atom -5584.047722 kJ/mol
# Density = 2.151781 g / cm^3
# Si number density = 21.566900 Si / 1000 Ang^3
#
#
#
# Elastic Constant Matrix: (Units=GPa)
#
#
# Indices 1 2 3 4 5 6 
#
# 1 57.7475 7.4746 2.6005 0.0000 0.0000 0.0000
# 2 7.4746 96.1757 56.0511 0.0000 0.0000 0.0000
# 3 2.6005 56.0511 118.7467 0.0000 0.0000 0.0000
# 4 0.0000 0.0000 0.0000 26.3877 0.0000 0.0000
# 5 0.0000 0.0000 0.0000 0.0000 17.9461 0.0000
# 6 0.0000 0.0000 0.0000 0.0000 0.0000 31.3497
#
#
#
# Elastic Compliance Matrix: (Units=1/GPa)
#
#
# Indices 1 2 3 4 5 6 
#
# 1 0.017504 -0.001568 0.000357 0.000000 0.000000 0.000000
# 2 -0.001568 0.014484 -0.006802 0.000000 0.000000 0.000000
# 3 0.000357 -0.006802 0.011624 0.000000 0.000000 0.000000
# 4 0.000000 0.000000 0.000000 0.037896 0.000000 0.000000
# 5 0.000000 0.000000 0.000000 0.000000 0.055723 0.000000
# 6 0.000000 0.000000 0.000000 0.000000 0.000000 0.031898
#
#
# Mechanical properties :
#
#
# Convention : Reuss Voigt Hill
#
# Bulk Modulus (GPa) = 36.25240 44.99136 40.62188
# Shear Modulus (GPa) = 25.72657 28.90629 27.31643
#
# Velocity S-wave (km/s) = 3.45755 3.66499 3.56278
# Velocity P-wave (km/s) = 5.72584 6.23026 5.98337
#
# Compressibility (1/GPa) = 0.02758438
#
# Stress axis : x y z
#
# Youngs Moduli (GPa) = 57.13081 69.04193 86.02634
#
# Poissons Ratio (x) = 0.10829 -0.03071
# Poissons Ratio (y) = 0.08960 0.58519
# Poissons Ratio (z) = -0.02040 0.46965
#
# Static dielectric constant tensor:
#      x y z
#    x 1.855000 0.000000 0.000000 
#    y 0.000000 1.788050 0.000000 
#    z 0.000000 0.000000 1.895770 
# 
# From -- ./inp_files/24967.got.cif
#   From: 2010.05.17/outbox.cif.g08.bks.cpg/sg60_13_cif.got.tgz:24967.got - 2010.06.03 14:59:27.
