data_PCOD9455598
_publ_section_title
;
Structure prediction by ZEFSAII (Michael W. Deem and Ramdas Pophale) SiO2 
 PCOD9455598
Probable space group: P B C N
;
_chemical_formula_sum "Si O2"
_cell_formula_units_Z 36
_cell_length_a 8.313087
_cell_length_b 9.211513
_cell_length_c 19.829164
_cell_angle_alpha 90.000000
_cell_angle_beta 90.000000
_cell_angle_gamma 90.000000
_cell_volume 1518.440223
_symmetry_space_group_name_H-M "P B C N"
_symmetry_group_IT_number 60
_symmetry_cell_setting 'orthorhombic'
loop_
_space_group_symop_operation_xyz
x,y,z
1/2-x,1/2-y,1/2+z
1/2+x,1/2-y,-z
-x,y,1/2-z
-x,-y,-z
1/2+x,1/2+y,1/2-z
1/2-x,1/2+y,z
x,-y,1/2+z
loop_
_atom_site_type_symbol
_atom_site_label
_atom_site_fract_x
_atom_site_fract_y
_atom_site_fract_z
Si Si1 0.000000 0.765111 0.750000
Si Si2 0.660163 0.870002 0.958787
Si Si3 0.607672 0.161730 0.878747
Si Si4 0.079826 0.895100 0.444379
Si Si5 0.085449 0.044247 0.691241
O O1 0.030232 0.685966 0.821700
O O2 0.873787 0.888356 0.775312
O O3 0.814016 0.799182 0.918357
O O4 0.516638 0.756265 0.950157
O O5 0.394131 0.974396 0.069667
O O6 0.734863 0.879365 0.033840
O O7 0.752513 0.114671 0.830549
O O8 0.037002 0.959614 0.371522
O O9 0.000000 0.000000 0.500000
O O10 0.000000 0.132980 0.750000
#
# Coordination Sequence:
#
# PCOD9455598 Si02
#       5
#     4   8   8   8   8
#     4  10  20  40  66  92 130 178 216 266 342 400
#     4  11  22  41  70  95 136 178 223 278 339 394
#     4  11  20  43  66  92 133 175 216 280 337 398
#     4  11  21  43  67  95 140 178 220 280 337 399
#     4   9  20  41  62  93 131 172 215 275 333 389
#
# _framework density 23.708538999999998
#
# number of rings (size 3 to 8) (size 9 to 14) (size 15 to 20)
#    0.667    0.889    6.667    0.000    0.000    0.889 
#   16.000    0.000    0.000    0.000    0.000    0.000 
#    0.000    0.000    0.000    0.000    0.000    0.000 
#
# Total GULP energy -200468.452535 kJ/mol
# GULP energy per Si atom -5568.568126 kJ/mol
# Density = 2.365458 g / cm^3
# Si number density = 23.708539 Si / 1000 Ang^3
#
#
#
# Elastic Constant Matrix: (Units=GPa)
#
#
# Indices 1 2 3 4 5 6 
#
# 1 57.0671 35.2681 43.3533 0.0000 0.0000 0.0000
# 2 35.2681 118.7212 42.3216 0.0000 0.0000 0.0000
# 3 43.3533 42.3216 159.5130 0.0000 0.0000 0.0000
# 4 0.0000 0.0000 0.0000 44.9743 0.0000 0.0000
# 5 0.0000 0.0000 0.0000 0.0000 43.8219 0.0000
# 6 0.0000 0.0000 0.0000 0.0000 0.0000 30.2237
#
#
#
# Elastic Compliance Matrix: (Units=1/GPa)
#
#
# Indices 1 2 3 4 5 6 
#
# 1 0.024981 -0.005523 -0.005324 0.000000 0.000000 0.000000
# 2 -0.005523 0.010524 -0.001291 0.000000 0.000000 0.000000
# 3 -0.005324 -0.001291 0.008059 0.000000 0.000000 0.000000
# 4 0.000000 0.000000 0.000000 0.022235 0.000000 0.000000
# 5 0.000000 0.000000 0.000000 0.000000 0.022820 0.000000
# 6 0.000000 0.000000 0.000000 0.000000 0.000000 0.033087
#
#
# Mechanical properties :
#
#
# Convention : Reuss Voigt Hill
#
# Bulk Modulus (GPa) = 51.84784 64.13191 57.98988
# Shear Modulus (GPa) = 32.80599 38.09454 35.45026
#
# Velocity S-wave (km/s) = 3.72387 4.01282 3.87105
# Velocity P-wave (km/s) = 6.35657 6.96988 6.67028
#
# Compressibility (1/GPa) = 0.01928721
#
# Stress axis : x y z
#
# Youngs Moduli (GPa) = 40.02989 95.01995 124.09000
#
# Poissons Ratio (x) = 0.52481 0.66068
# Poissons Ratio (y) = 0.22109 0.16021
# Poissons Ratio (z) = 0.21313 0.12268
#
# Static dielectric constant tensor:
#      x y z
#    x 1.924370 0.000000 0.000000 
#    y 0.000000 1.949310 0.000000 
#    z 0.000000 0.000000 2.176590 
# 
# From -- ./inp_files/19113.got.cif
#   From: 2010.05.17/outbox.cif.g08.bks.cpg/sg60_10_cif.got.tgz:19113.got - 2010.06.03 14:59:27.
