data_PCOD9455999
_publ_section_title
;
Structure prediction by ZEFSAII (Michael W. Deem and Ramdas Pophale) SiO2 
 PCOD9455999
Probable space group: P B C N
;
_chemical_formula_sum "Si O2"
_cell_formula_units_Z 36
_cell_length_a 15.309668
_cell_length_b 18.186170
_cell_length_c 5.490116
_cell_angle_alpha 90.000000
_cell_angle_beta 90.000000
_cell_angle_gamma 90.000000
_cell_volume 1528.581292
_symmetry_space_group_name_H-M "P B C N"
_symmetry_group_IT_number 60
_symmetry_cell_setting 'orthorhombic'
loop_
_space_group_symop_operation_xyz
x,y,z
1/2-x,1/2-y,1/2+z
1/2+x,1/2-y,-z
-x,y,1/2-z
-x,-y,-z
1/2+x,1/2+y,1/2-z
1/2-x,1/2+y,z
x,-y,1/2+z
loop_
_atom_site_type_symbol
_atom_site_label
_atom_site_fract_x
_atom_site_fract_y
_atom_site_fract_z
Si Si1 0.500000 0.614797 0.250000
Si Si2 0.585241 0.249763 0.998242
Si Si3 0.104903 0.310646 0.496666
Si Si4 0.177488 0.921385 0.961512
Si Si5 0.749669 0.413575 0.034497
O O1 0.457317 0.670131 0.049702
O O2 0.424663 0.570881 0.392281
O O3 0.500045 0.195456 0.997413
O O4 0.634459 0.230768 0.749194
O O5 0.629534 0.231240 0.253486
O O6 0.149625 0.389886 0.470162
O O7 0.214984 0.882613 0.721608
O O8 0.225236 0.000504 0.974612
O O9 0.200843 0.886681 0.221201
#
# Coordination Sequence:
#
# PCOD9455999 Si02
#       5
#     4   8   8   8   8
#     4  10  22  42  60  90 126 160 222 252 316 394
#     4   9  20  35  61  85 111 164 199 255 304 356
#     4   9  17  36  60  84 118 151 206 251 298 373
#     4  10  23  37  61  87 123 166 200 259 309 374
#     4  10  21  38  58  90 123 162 204 252 319 368
#
# _framework density 23.551251000000001
#
# number of rings (size 3 to 8) (size 9 to 14) (size 15 to 20)
#    0.000    2.667    0.000    1.333    0.000   11.556 
#    0.000   13.333    0.000   64.000    0.000    0.000 
#    0.000    0.000    0.000    0.000    0.000    0.000 
#
# Total GULP energy -200457.225424 kJ/mol
# GULP energy per Si atom -5568.256262 kJ/mol
# Density = 2.349765 g / cm^3
# Si number density = 23.551251 Si / 1000 Ang^3
#
#
#
# Elastic Constant Matrix: (Units=GPa)
#
#
# Indices 1 2 3 4 5 6 
#
# 1 82.3172 70.3116 2.6499 0.0000 0.0000 0.0000
# 2 70.3116 103.4451 16.8582 0.0000 0.0000 0.0000
# 3 2.6499 16.8582 250.8619 0.0000 0.0000 0.0000
# 4 0.0000 0.0000 0.0000 6.3518 0.0000 0.0000
# 5 0.0000 0.0000 0.0000 0.0000 11.0623 0.0000
# 6 0.0000 0.0000 0.0000 0.0000 0.0000 70.6866
#
#
#
# Elastic Compliance Matrix: (Units=1/GPa)
#
#
# Indices 1 2 3 4 5 6 
#
# 1 0.029228 -0.020035 0.001038 0.000000 0.000000 0.000000
# 2 -0.020035 0.023508 -0.001368 0.000000 0.000000 0.000000
# 3 0.001038 -0.001368 0.004067 0.000000 0.000000 0.000000
# 4 0.000000 0.000000 0.000000 0.157435 0.000000 0.000000
# 5 0.000000 0.000000 0.000000 0.000000 0.090397 0.000000
# 6 0.000000 0.000000 0.000000 0.000000 0.000000 0.014147
#
#
# Mechanical properties :
#
#
# Convention : Reuss Voigt Hill
#
# Bulk Modulus (GPa) = 62.22184 68.47375 65.34780
# Shear Modulus (GPa) = 13.70346 40.74044 27.22195
#
# Velocity S-wave (km/s) = 2.41479 4.16367 3.40348
# Velocity P-wave (km/s) = 5.85253 7.22858 6.57664
#
# Compressibility (1/GPa) = 0.01607153
#
# Stress axis : x y z
#
# Youngs Moduli (GPa) = 34.21372 42.53874 245.86723
#
# Poissons Ratio (x) = 0.85228 -0.25513
# Poissons Ratio (y) = 0.68549 0.33638
# Poissons Ratio (z) = -0.03550 0.05820
#
# Static dielectric constant tensor:
#      x y z
#    x 1.949880 0.000000 0.000000 
#    y 0.000000 1.971440 0.000000 
#    z 0.000000 0.000000 2.011520 
# 
# From -- ./inp_files/1134.got.cif
#   From: 2010.05.17/outbox.cif.g08.bks.cpg/sg60_1_cif.got.tgz:1134.got - 2010.06.03 14:59:27.
