data_PCOD9455490
_publ_section_title
;
Structure prediction by ZEFSAII (Michael W. Deem and Ramdas Pophale) SiO2 
 PCOD9455490
Probable space group: P B C N
;
_chemical_formula_sum "Si O2"
_cell_formula_units_Z 60
_cell_length_a 17.059462
_cell_length_b 5.260883
_cell_length_c 28.880167
_cell_angle_alpha 90.000000
_cell_angle_beta 90.000000
_cell_angle_gamma 90.000000
_cell_volume 2591.932423
_symmetry_space_group_name_H-M "P B C N"
_symmetry_group_IT_number 60
_symmetry_cell_setting 'orthorhombic'
loop_
_space_group_symop_operation_xyz
x,y,z
1/2-x,1/2-y,1/2+z
1/2+x,1/2-y,-z
-x,y,1/2-z
-x,-y,-z
1/2+x,1/2+y,1/2-z
1/2-x,1/2+y,z
x,-y,1/2+z
loop_
_atom_site_type_symbol
_atom_site_label
_atom_site_fract_x
_atom_site_fract_y
_atom_site_fract_z
Si Si1 0.227699 0.315109 0.853681
Si Si2 0.197139 0.543792 0.704845
Si Si3 0.872828 0.185870 0.213320
Si Si4 0.509976 0.179296 0.056045
Si Si5 0.423623 0.312997 0.530880
Si Si6 0.000000 0.819831 0.250000
Si Si7 0.300458 0.902041 0.102612
Si Si8 0.550289 0.920434 0.660107
O O1 0.239726 0.576067 0.880566
O O2 0.288226 0.361005 0.810488
O O3 0.137957 0.297977 0.838883
O O4 0.235825 0.265555 0.707330
O O5 0.143182 0.593865 0.748964
O O6 0.161187 0.601468 0.654072
O O7 0.928883 0.287163 0.172018
O O8 0.921954 0.985714 0.242489
O O9 0.445053 0.398343 0.044636
O O10 0.518995 0.158957 0.110748
O O11 0.493931 0.886124 0.041992
O O12 0.582378 0.280678 0.024668
O O13 0.356544 0.189104 0.561848
O O14 0.003305 0.668807 0.202125
O O15 0.232424 0.688016 0.100092
#
# Coordination Sequence:
#
# PCOD9455490 Si02
#       8
#     8   8   8   8   8   4   8   8
#     4  10  20  39  62  82 124 173 214 259 322 384
#     4  10  22  38  62  90 122 172 220 258 322 402
#     4  11  24  40  60  90 132 179 217 276 323 393
#     4  10  24  42  71  94 132 171 225 271 348 415
#     4  10  22  45  68  99 128 174 212 285 350 408
#     4  12  26  40  60  98 134 166 226 280 316 384
#     4  10  21  38  63  97 130 164 218 276 336 404
#     4  11  25  42  64  98 130 173 227 278 326 402
#
# _framework density 23.148754
#
# number of rings (size 3 to 8) (size 9 to 14) (size 15 to 20)
#    0.000    1.600    1.333    2.800    5.600    1.067 
#    0.000    2.667    0.000    0.000    0.000    0.000 
#    0.000    0.000    0.000    0.000    0.000    0.000 
#
# Total GULP energy -334600.574565 kJ/mol
# GULP energy per Si atom -5576.676243 kJ/mol
# Density = 2.309607 g / cm^3
# Si number density = 23.148754 Si / 1000 Ang^3
#
#
#
# Elastic Constant Matrix: (Units=GPa)
#
#
# Indices 1 2 3 4 5 6 
#
# 1 18.4689 21.9925 2.9336 0.0000 0.0000 0.0000
# 2 21.9925 101.2906 11.1873 0.0000 0.0000 0.0000
# 3 2.9336 11.1873 108.6537 0.0000 0.0000 0.0000
# 4 0.0000 0.0000 0.0000 26.1686 0.0000 0.0000
# 5 0.0000 0.0000 0.0000 0.0000 22.6022 0.0000
# 6 0.0000 0.0000 0.0000 0.0000 0.0000 37.7927
#
#
#
# Elastic Compliance Matrix: (Units=1/GPa)
#
#
# Indices 1 2 3 4 5 6 
#
# 1 0.073038 -0.015820 -0.000343 0.000000 0.000000 0.000000
# 2 -0.015820 0.013413 -0.000954 0.000000 0.000000 0.000000
# 3 -0.000343 -0.000954 0.009311 0.000000 0.000000 0.000000
# 4 0.000000 0.000000 0.000000 0.038214 0.000000 0.000000
# 5 0.000000 0.000000 0.000000 0.000000 0.044243 0.000000
# 6 0.000000 0.000000 0.000000 0.000000 0.000000 0.026460
#
#
# Mechanical properties :
#
#
# Convention : Reuss Voigt Hill
#
# Bulk Modulus (GPa) = 16.25293 33.40445 24.82869
# Shear Modulus (GPa) = 19.27355 30.13270 24.70312
#
# Velocity S-wave (km/s) = 2.88860 3.61182 3.27027
# Velocity P-wave (km/s) = 4.26165 5.64405 5.00085
#
# Compressibility (1/GPa) = 0.06152736
#
# Stress axis : x y z
#
# Youngs Moduli (GPa) = 13.69150 74.55520 107.39955
#
# Poissons Ratio (x) = 1.17949 0.03685
# Poissons Ratio (y) = 0.21660 0.10245
# Poissons Ratio (z) = 0.00470 0.07112
#
# Static dielectric constant tensor:
#      x y z
#    x 1.915990 0.000000 0.000000 
#    y 0.000000 1.998710 0.000000 
#    z 0.000000 0.000000 1.894360 
# 
# From -- ./inp_files/25479.got.cif
#   From: 2010.05.17/outbox.cif.g08.bks.cpg/sg60_13_cif.got.tgz:25479.got - 2010.06.03 14:59:27.
