data_PCOD9455612
_publ_section_title
;
Structure prediction by ZEFSAII (Michael W. Deem and Ramdas Pophale) SiO2 
 PCOD9455612
Probable space group: P B C N
;
_chemical_formula_sum "Si O2"
_cell_formula_units_Z 60
_cell_length_a 11.050238
_cell_length_b 9.349514
_cell_length_c 24.032346
_cell_angle_alpha 90.000000
_cell_angle_beta 90.000000
_cell_angle_gamma 90.000000
_cell_volume 2482.886323
_symmetry_space_group_name_H-M "P B C N"
_symmetry_group_IT_number 60
_symmetry_cell_setting 'orthorhombic'
loop_
_space_group_symop_operation_xyz
x,y,z
1/2-x,1/2-y,1/2+z
1/2+x,1/2-y,-z
-x,y,1/2-z
-x,-y,-z
1/2+x,1/2+y,1/2-z
1/2-x,1/2+y,z
x,-y,1/2+z
loop_
_atom_site_type_symbol
_atom_site_label
_atom_site_fract_x
_atom_site_fract_y
_atom_site_fract_z
Si Si1 0.643220 0.999535 0.621280
Si Si2 0.133401 0.372730 0.001725
Si Si3 0.026108 0.001602 0.581613
Si Si4 0.500000 0.497265 0.750000
Si Si5 0.871535 0.817777 0.155500
Si Si6 0.872069 0.450654 0.370273
Si Si7 0.611662 0.306393 0.513303
Si Si8 0.809445 0.849215 0.828484
O O1 0.643597 0.965508 0.554743
O O2 0.650002 0.850203 0.654491
O O3 0.748522 0.104192 0.638871
O O4 0.514568 0.066848 0.635857
O O5 0.248718 0.264397 0.994688
O O6 0.147163 0.445973 0.062561
O O7 0.000827 0.299204 0.002613
O O8 0.094625 0.058999 0.527983
O O9 0.967658 0.142096 0.607687
O O10 0.120996 0.924936 0.620560
O O11 0.921407 0.883863 0.571234
O O12 0.569875 0.602517 0.707883
O O13 0.394432 0.398943 0.722461
O O14 0.824379 0.588005 0.336772
O O15 0.807085 0.317711 0.340749
#
# Coordination Sequence:
#
# PCOD9455612 Si02
#       8
#     8   8   8   4   8   8   8   8
#     4  12  29  47  77 116 162 204 259 325 395 480
#     4  12  25  42  71 113 168 212 265 301 400 476
#     4  10  20  40  68  96 146 202 250 308 376 452
#     4  10  28  54  88 102 148 210 270 336 400 442
#     4  11  26  51  75 110 150 199 264 329 393 459
#     4  12  29  47  77 116 162 204 259 325 395 480
#     4  11  22  38  65 105 147 213 247 315 371 472
#     4  11  26  51  75 110 150 199 264 329 393 459
#
# _framework density 24.165424999999999
#
# number of rings (size 3 to 8) (size 9 to 14) (size 15 to 20)
#    0.000    0.800    5.333    0.400   11.200    2.133 
#    0.000    0.000    0.000    0.000    0.000    0.000 
#    0.000    0.000    0.000    0.000    0.000    0.000 
#
# Total GULP energy -335616.830858 kJ/mol
# GULP energy per Si atom -5593.613848 kJ/mol
# Density = 2.411042 g / cm^3
# Si number density = 24.165425 Si / 1000 Ang^3
#
#
#
# Elastic Constant Matrix: (Units=GPa)
#
#
# Indices 1 2 3 4 5 6 
#
# 1 116.3319 11.3546 12.1749 0.0000 0.0000 0.0000
# 2 11.3546 79.8920 9.9517 0.0000 0.0000 0.0000
# 3 12.1749 9.9517 73.1350 0.0000 0.0000 0.0000
# 4 0.0000 0.0000 0.0000 17.7991 0.0000 0.0000
# 5 0.0000 0.0000 0.0000 0.0000 20.7025 0.0000
# 6 0.0000 0.0000 0.0000 0.0000 0.0000 46.1446
#
#
#
# Elastic Compliance Matrix: (Units=1/GPa)
#
#
# Indices 1 2 3 4 5 6 
#
# 1 0.008841 -0.001092 -0.001323 0.000000 0.000000 0.000000
# 2 -0.001092 0.012868 -0.001569 0.000000 0.000000 0.000000
# 3 -0.001323 -0.001569 0.014107 0.000000 0.000000 0.000000
# 4 0.000000 0.000000 0.000000 0.056183 0.000000 0.000000
# 5 0.000000 0.000000 0.000000 0.000000 0.048303 0.000000
# 6 0.000000 0.000000 0.000000 0.000000 0.000000 0.021671
#
#
# Mechanical properties :
#
#
# Convention : Reuss Voigt Hill
#
# Bulk Modulus (GPa) = 35.90985 37.36905 36.63945
# Shear Modulus (GPa) = 27.89812 32.65442 30.27627
#
# Velocity S-wave (km/s) = 3.40143 3.67997 3.54344
# Velocity P-wave (km/s) = 5.50623 5.79255 5.65120
#
# Compressibility (1/GPa) = 0.02784752
#
# Stress axis : x y z
#
# Youngs Moduli (GPa) = 113.10757 77.71507 70.88604
#
# Poissons Ratio (x) = 0.08484 0.09380
# Poissons Ratio (y) = 0.12348 0.11123
# Poissons Ratio (z) = 0.14967 0.12195
#
# Static dielectric constant tensor:
#      x y z
#    x 1.985050 0.000000 0.000000 
#    y 0.000000 1.949500 0.000000 
#    z 0.000000 0.000000 1.976640 
# 
# From -- ./inp_files/25329.got.cif
#   From: 2010.05.17/outbox.cif.g08.bks.cpg/sg60_13_cif.got.tgz:25329.got - 2010.06.03 14:59:27.
