data_PCOD9455096
_publ_section_title
;
Structure prediction by ZEFSAII (Michael W. Deem and Ramdas Pophale) SiO2 
 PCOD9455096
Probable space group: P B C N
;
_chemical_formula_sum "Si O2"
_cell_formula_units_Z 64
_cell_length_a 30.743863
_cell_length_b 5.445821
_cell_length_c 16.725906
_cell_angle_alpha 90.000000
_cell_angle_beta 90.000000
_cell_angle_gamma 90.000000
_cell_volume 2800.344425
_symmetry_space_group_name_H-M "P B C N"
_symmetry_group_IT_number 60
_symmetry_cell_setting 'orthorhombic'
loop_
_space_group_symop_operation_xyz
x,y,z
1/2-x,1/2-y,1/2+z
1/2+x,1/2-y,-z
-x,y,1/2-z
-x,-y,-z
1/2+x,1/2+y,1/2-z
1/2-x,1/2+y,z
x,-y,1/2+z
loop_
_atom_site_type_symbol
_atom_site_label
_atom_site_fract_x
_atom_site_fract_y
_atom_site_fract_z
Si Si1 0.353357 0.945376 0.282370
Si Si2 0.628761 0.468200 0.988185
Si Si3 0.034652 0.827609 0.955678
Si Si4 0.774773 0.078578 0.044892
Si Si5 0.913546 0.427971 0.580690
Si Si6 0.257736 0.071304 0.278225
Si Si7 0.540649 0.556542 0.703204
Si Si8 0.876554 0.039169 0.800425
O O1 0.306637 0.041995 0.309331
O O2 0.348940 0.681469 0.239820
O O3 0.385178 0.910573 0.357509
O O4 0.368496 0.178046 0.227188
O O5 0.628517 0.508100 0.894091
O O6 0.583513 0.584443 0.019934
O O7 0.674695 0.563422 0.021234
O O8 0.620646 0.191378 0.019606
O O9 0.045283 0.540188 0.966341
O O10 0.025680 0.851871 0.860459
O O11 0.000000 0.000000 0.000000
O O12 0.749197 0.830297 0.018197
O O13 0.771180 0.075075 0.141811
O O14 0.934799 0.239336 0.643542
O O15 0.246490 0.824307 0.231649
O O16 0.500000 0.665535 0.750000
O O17 0.575084 0.474442 0.769273
#
# Coordination Sequence:
#
# PCOD9455096 Si02
#       8
#     8   8   8   8   8   8   8   8
#     4  11  23  44  69  97 139 181 243 284 357 436
#     4  11  26  43  72 102 149 189 243 311 373 439
#     4  11  24  43  69 106 140 184 251 301 365 434
#     4  10  23  40  67 103 136 182 241 299 366 429
#     4  10  23  42  71 100 137 192 238 300 352 432
#     4  10  20  35  64  97 125 169 231 287 344 414
#     4  10  22  43  65  98 142 184 238 294 358 433
#     4  11  25  45  67 103 139 195 230 295 370 435
#
# _framework density 22.854331999999999
#
# number of rings (size 3 to 8) (size 9 to 14) (size 15 to 20)
#    0.000    1.500    1.250    3.000    7.000    2.500 
#    4.500    3.750    0.000    0.000    0.000    0.000 
#    0.000    0.000    0.000    0.000    0.000    0.000 
#
# Total GULP energy -356762.571998 kJ/mol
# GULP energy per Si atom -5574.415187 kJ/mol
# Density = 2.280231 g / cm^3
# Si number density = 22.854332 Si / 1000 Ang^3
#
#
#
# Elastic Constant Matrix: (Units=GPa)
#
#
# Indices 1 2 3 4 5 6 
#
# 1 113.9431 18.6980 57.3394 0.0000 0.0000 0.0000
# 2 18.6980 108.4156 24.4582 0.0000 0.0000 0.0000
# 3 57.3394 24.4582 101.4551 0.0000 0.0000 0.0000
# 4 0.0000 0.0000 0.0000 9.1055 0.0000 0.0000
# 5 0.0000 0.0000 0.0000 0.0000 22.5318 0.0000
# 6 0.0000 0.0000 0.0000 0.0000 0.0000 33.1872
#
#
#
# Elastic Compliance Matrix: (Units=1/GPa)
#
#
# Indices 1 2 3 4 5 6 
#
# 1 0.012299 -0.000585 -0.006810 0.000000 0.000000 0.000000
# 2 -0.000585 0.009782 -0.002028 0.000000 0.000000 0.000000
# 3 -0.006810 -0.002028 0.014194 0.000000 0.000000 0.000000
# 4 0.000000 0.000000 0.000000 0.109824 0.000000 0.000000
# 5 0.000000 0.000000 0.000000 0.000000 0.044382 0.000000
# 6 0.000000 0.000000 0.000000 0.000000 0.000000 0.030132
#
#
# Mechanical properties :
#
#
# Convention : Reuss Voigt Hill
#
# Bulk Modulus (GPa) = 57.37148 58.31167 57.84157
# Shear Modulus (GPa) = 20.38579 27.85279 24.11929
#
# Velocity S-wave (km/s) = 2.98986 3.49479 3.25214
# Velocity P-wave (km/s) = 6.08906 6.46951 6.28217
#
# Compressibility (1/GPa) = 0.01743026
#
# Stress axis : x y z
#
# Youngs Moduli (GPa) = 81.30482 102.22795 70.45062
#
# Poissons Ratio (x) = 0.05979 0.47979
# Poissons Ratio (y) = 0.04755 0.14285
# Poissons Ratio (z) = 0.55371 0.20728
#
# Static dielectric constant tensor:
#      x y z
#    x 1.910000 0.000000 0.000000 
#    y 0.000000 2.190180 0.000000 
#    z 0.000000 0.000000 1.801650 
# 
# From -- ./inp_files/21290.got.cif
#   From: 2010.05.17/outbox.cif.g08.bks.cpg/sg60_11_cif.got.tgz:21290.got - 2010.06.03 14:59:27.
