data_PCOD9455371
_publ_section_title
;
Structure prediction by ZEFSAII (Michael W. Deem and Ramdas Pophale) SiO2 
 PCOD9455371
Probable space group: P B C N
;
_chemical_formula_sum "Si O2"
_cell_formula_units_Z 60
_cell_length_a 12.891813
_cell_length_b 24.436568
_cell_length_c 8.027530
_cell_angle_alpha 90.000000
_cell_angle_beta 90.000000
_cell_angle_gamma 90.000000
_cell_volume 2528.926142
_symmetry_space_group_name_H-M "P B C N"
_symmetry_group_IT_number 60
_symmetry_cell_setting 'orthorhombic'
loop_
_space_group_symop_operation_xyz
x,y,z
1/2-x,1/2-y,1/2+z
1/2+x,1/2-y,-z
-x,y,1/2-z
-x,-y,-z
1/2+x,1/2+y,1/2-z
1/2-x,1/2+y,z
x,-y,1/2+z
loop_
_atom_site_type_symbol
_atom_site_label
_atom_site_fract_x
_atom_site_fract_y
_atom_site_fract_z
Si Si1 0.264887 0.618872 0.352559
Si Si2 0.874200 0.229928 0.252857
Si Si3 0.377414 0.038778 0.854148
Si Si4 0.684566 0.423654 0.011075
Si Si5 0.066367 0.575655 0.487858
Si Si6 0.500000 0.313222 0.250000
Si Si7 0.528540 0.398543 0.551687
Si Si8 0.203740 0.199110 0.881820
O O1 0.320934 0.677979 0.340415
O O2 0.273391 0.591361 0.171885
O O3 0.147058 0.619448 0.415152
O O4 0.351205 0.586507 0.461536
O O5 0.816288 0.281640 0.174078
O O6 0.831174 0.221954 0.439401
O O7 0.000000 0.232525 0.250000
O O8 0.443676 0.079976 0.974172
O O9 0.390223 0.060163 0.669417
O O10 0.259394 0.033972 0.905722
O O11 0.421758 0.978367 0.876793
O O12 0.564207 0.438641 0.000667
O O13 0.699491 0.366734 0.112021
O O14 0.510025 0.349209 0.419428
O O15 0.391056 0.281878 0.262986
O O16 0.500000 0.386834 0.750000
#
# Coordination Sequence:
#
# PCOD9455371 Si02
#       8
#     8   8   8   8   8   4   8   8
#     4  10  20  38  63  88 116 166 213 254 320 379
#     4  11  24  44  64  91 131 172 217 280 331 393
#     4  10  21  40  59  91 128 160 209 260 328 384
#     4   9  19  39  59  88 124 155 205 260 313 386
#     4  10  22  37  63  89 121 170 207 260 321 396
#     4  10  20  38  62  86 120 168 210 264 318 390
#     4   9  19  35  62  89 117 161 206 254 319 376
#     4  10  24  39  63  92 121 172 215 266 331 388
#
# _framework density 23.725483000000001
#
# number of rings (size 3 to 8) (size 9 to 14) (size 15 to 20)
#    0.000    2.133    0.000    4.400    7.467    1.600 
#    4.800    0.667    0.000    0.000    0.000    0.000 
#    0.000    0.000    0.000    0.000    0.000    0.000 
#
# Total GULP energy -334611.098935 kJ/mol
# GULP energy per Si atom -5576.851649 kJ/mol
# Density = 2.367148 g / cm^3
# Si number density = 23.725483 Si / 1000 Ang^3
#
#
#
# Elastic Constant Matrix: (Units=GPa)
#
#
# Indices 1 2 3 4 5 6 
#
# 1 161.6421 36.2076 35.9907 0.0000 0.0000 0.0000
# 2 36.2076 29.7044 11.7150 0.0000 0.0000 0.0000
# 3 35.9907 11.7150 53.9886 0.0000 0.0000 0.0000
# 4 0.0000 0.0000 0.0000 15.9749 0.0000 0.0000
# 5 0.0000 0.0000 0.0000 0.0000 43.8021 0.0000
# 6 0.0000 0.0000 0.0000 0.0000 0.0000 32.9935
#
#
#
# Elastic Compliance Matrix: (Units=1/GPa)
#
#
# Indices 1 2 3 4 5 6 
#
# 1 0.009263 -0.009684 -0.004074 0.000000 0.000000 0.000000
# 2 -0.009684 0.046940 -0.003730 0.000000 0.000000 0.000000
# 3 -0.004074 -0.003730 0.022047 0.000000 0.000000 0.000000
# 4 0.000000 0.000000 0.000000 0.062598 0.000000 0.000000
# 5 0.000000 0.000000 0.000000 0.000000 0.022830 0.000000
# 6 0.000000 0.000000 0.000000 0.000000 0.000000 0.030309
#
#
# Mechanical properties :
#
#
# Convention : Reuss Voigt Hill
#
# Bulk Modulus (GPa) = 23.10777 45.90684 34.50731
# Shear Modulus (GPa) = 20.54337 29.31554 24.92945
#
# Velocity S-wave (km/s) = 2.94577 3.51894 3.24504
# Velocity P-wave (km/s) = 4.61854 5.99181 5.34942
#
# Compressibility (1/GPa) = 0.04327548
#
# Stress axis : x y z
#
# Youngs Moduli (GPa) = 107.95964 21.30367 45.35702
#
# Poissons Ratio (x) = 0.20631 0.18476
# Poissons Ratio (y) = 1.04549 0.16917
# Poissons Ratio (z) = 0.43977 0.07946
#
# Static dielectric constant tensor:
#      x y z
#    x 1.987160 0.000000 0.000000 
#    y 0.000000 1.950370 0.000000 
#    z 0.000000 0.000000 1.930260 
# 
# From -- ./inp_files/5301.got.cif
#   From: 2010.05.17/outbox.cif.g08.bks.cpg/sg60_3_cif.got.tgz:5301.got - 2010.06.03 14:59:27.
