data_PCOD9455702
_publ_section_title
;
Structure prediction by ZEFSAII (Michael W. Deem and Ramdas Pophale) SiO2 
 PCOD9455702
Probable space group: P B C N
;
_chemical_formula_sum "Si O2"
_cell_formula_units_Z 64
_cell_length_a 11.455442
_cell_length_b 8.986383
_cell_length_c 29.102624
_cell_angle_alpha 90.000000
_cell_angle_beta 90.000000
_cell_angle_gamma 90.000000
_cell_volume 2995.911109
_symmetry_space_group_name_H-M "P B C N"
_symmetry_group_IT_number 60
_symmetry_cell_setting 'orthorhombic'
loop_
_space_group_symop_operation_xyz
x,y,z
1/2-x,1/2-y,1/2+z
1/2+x,1/2-y,-z
-x,y,1/2-z
-x,-y,-z
1/2+x,1/2+y,1/2-z
1/2-x,1/2+y,z
x,-y,1/2+z
loop_
_atom_site_type_symbol
_atom_site_label
_atom_site_fract_x
_atom_site_fract_y
_atom_site_fract_z
Si Si1 0.786568 0.919681 0.693797
Si Si2 0.858756 0.395417 0.356606
Si Si3 0.946465 0.869276 0.970195
Si Si4 0.524709 0.170755 0.051755
Si Si5 0.725337 0.155493 0.414953
Si Si6 0.836509 0.821229 0.131489
Si Si7 0.633019 0.851896 0.251685
Si Si8 0.083089 0.352659 0.410520
O O1 0.697412 0.815640 0.665035
O O2 0.857200 0.806632 0.726054
O O3 0.860331 0.026858 0.659678
O O4 0.714076 0.033577 0.724677
O O5 0.786455 0.298027 0.392914
O O6 0.825094 0.560761 0.372268
O O7 0.830811 0.350791 0.304947
O O8 0.995815 0.369728 0.367085
O O9 0.831610 0.918234 0.942938
O O10 0.041219 0.795757 0.936252
O O11 0.917764 0.738370 0.006434
O O12 0.000000 0.000000 0.000000
O O13 0.384421 0.181884 0.051814
O O14 0.567870 0.266746 0.095527
O O15 0.559152 0.999605 0.059401
O O16 0.715958 0.849278 0.104345
O O17 0.500000 0.904224 0.250000
#
# Coordination Sequence:
#
# PCOD9455702 Si02
#       8
#     8   8   8   8   8   8   8   8
#     4  10  23  42  64 102 129 164 230 277 333 416
#     4  10  20  42  66  92 128 171 214 263 341 403
#     4  11  25  42  66 103 134 170 228 281 327 396
#     4  11  24  42  67  93 130 184 217 279 336 400
#     4  10  23  42  65  95 133 172 221 268 330 413
#     4  11  22  43  66  94 130 174 224 275 340 400
#     4  11  23  42  70  98 134 175 215 286 347 407
#     4  10  23  43  68  90 129 181 216 274 337 399
#
# _framework density 21.362451
#
# number of rings (size 3 to 8) (size 9 to 14) (size 15 to 20)
#    0.000    1.500    1.250    3.375    5.250    0.000 
#    4.500    1.250    0.000    0.000    0.000    0.000 
#    0.000    0.000    0.000    0.000    0.000    0.000 
#
# Total GULP energy -357869.953356 kJ/mol
# GULP energy per Si atom -5591.718021 kJ/mol
# Density = 2.131383 g / cm^3
# Si number density = 21.362451 Si / 1000 Ang^3
#
#
#
# Elastic Constant Matrix: (Units=GPa)
#
#
# Indices 1 2 3 4 5 6 
#
# 1 70.7716 3.8281 6.8355 0.0000 0.0000 0.0000
# 2 3.8281 68.7726 14.3716 0.0000 0.0000 0.0000
# 3 6.8355 14.3716 78.2818 0.0000 0.0000 0.0000
# 4 0.0000 0.0000 0.0000 37.6366 0.0000 0.0000
# 5 0.0000 0.0000 0.0000 0.0000 27.1113 0.0000
# 6 0.0000 0.0000 0.0000 0.0000 0.0000 16.3304
#
#
#
# Elastic Compliance Matrix: (Units=1/GPa)
#
#
# Indices 1 2 3 4 5 6 
#
# 1 0.014271 -0.000555 -0.001144 0.000000 0.000000 0.000000
# 2 -0.000555 0.015142 -0.002731 0.000000 0.000000 0.000000
# 3 -0.001144 -0.002731 0.013376 0.000000 0.000000 0.000000
# 4 0.000000 0.000000 0.000000 0.026570 0.000000 0.000000
# 5 0.000000 0.000000 0.000000 0.000000 0.036885 0.000000
# 6 0.000000 0.000000 0.000000 0.000000 0.000000 0.061236
#
#
# Mechanical properties :
#
#
# Convention : Reuss Voigt Hill
#
# Bulk Modulus (GPa) = 29.47514 29.76626 29.62070
# Shear Modulus (GPa) = 26.64537 29.06836 27.85687
#
# Velocity S-wave (km/s) = 3.53554 3.69280 3.61503
# Velocity P-wave (km/s) = 5.52217 5.66979 5.59647
#
# Compressibility (1/GPa) = 0.03392689
#
# Stress axis : x y z
#
# Youngs Moduli (GPa) = 70.07457 66.03976 74.76228
#
# Poissons Ratio (x) = 0.03667 0.08554
# Poissons Ratio (y) = 0.03891 0.20421
# Poissons Ratio (z) = 0.08018 0.18039
#
# Static dielectric constant tensor:
#      x y z
#    x 1.734700 0.000000 0.000000 
#    y 0.000000 1.788510 0.000000 
#    z 0.000000 0.000000 1.787610 
# 
# From -- ./inp_files/26100.got.cif
#   From: 2010.05.17/outbox.cif.g08.bks.cpg/sg60_14_cif.got.tgz:26100.got - 2010.06.03 14:59:27.
