data_PCOD9455976
_publ_section_title
;
Structure prediction by ZEFSAII (Michael W. Deem and Ramdas Pophale) SiO2 
 PCOD9455976
Probable space group: P B C N
;
_chemical_formula_sum "Si O2"
_cell_formula_units_Z 56
_cell_length_a 16.097530
_cell_length_b 8.968182
_cell_length_c 18.651494
_cell_angle_alpha 90.000000
_cell_angle_beta 90.000000
_cell_angle_gamma 90.000000
_cell_volume 2692.633727
_symmetry_space_group_name_H-M "P B C N"
_symmetry_group_IT_number 60
_symmetry_cell_setting 'orthorhombic'
loop_
_space_group_symop_operation_xyz
x,y,z
1/2-x,1/2-y,1/2+z
1/2+x,1/2-y,-z
-x,y,1/2-z
-x,-y,-z
1/2+x,1/2+y,1/2-z
1/2-x,1/2+y,z
x,-y,1/2+z
loop_
_atom_site_type_symbol
_atom_site_label
_atom_site_fract_x
_atom_site_fract_y
_atom_site_fract_z
Si Si1 0.313866 0.791140 0.397245
Si Si2 0.649767 0.123893 0.150179
Si Si3 0.713660 0.403329 0.969846
Si Si4 0.990185 0.377417 0.936883
Si Si5 0.425371 0.394865 0.975854
Si Si6 0.274311 0.167126 0.633746
Si Si7 0.136722 0.596080 0.189789
O O1 0.237081 0.709065 0.359068
O O2 0.398386 0.694129 0.403896
O O3 0.333108 0.950258 0.364137
O O4 0.279691 0.824197 0.478349
O O5 0.581206 0.168906 0.091306
O O6 0.613988 0.142598 0.229915
O O7 0.650385 0.491031 0.018511
O O8 0.674114 0.282451 0.915720
O O9 0.749222 0.535458 0.920731
O O10 0.939740 0.239367 0.968681
O O11 0.936815 0.426328 0.867542
O O12 0.000000 0.500000 0.000000
O O13 0.500000 0.500000 0.000000
O O14 0.199611 0.272499 0.661955
O O15 0.318742 0.066981 0.693365
#
# Coordination Sequence:
#
# PCOD9455976 Si02
#       7
#     8   8   8   8   8   8   8
#     4  12  23  41  68 104 132 177 231 283 344 407
#     4  12  26  43  69  95 141 182 226 283 347 423
#     4  11  19  38  64 101 130 165 225 285 330 392
#     4  12  26  44  67 100 134 178 228 283 348 402
#     4  12  24  39  64 104 133 167 219 289 345 393
#     4  10  21  37  69  93 131 170 223 279 332 401
#     4  11  24  45  65 101 136 183 228 276 349 419
#
# _framework density 20.797481999999999
#
# number of rings (size 3 to 8) (size 9 to 14) (size 15 to 20)
#    0.000    0.571    5.714    3.000    4.000    0.000 
#    0.000    0.000    0.000    0.000    0.000    0.000 
#    0.000    0.000    0.000    0.000    0.000    0.000 
#
# Total GULP energy -312077.922945 kJ/mol
# GULP energy per Si atom -5572.820053 kJ/mol
# Density = 2.075015 g / cm^3
# Si number density = 20.797482 Si / 1000 Ang^3
#
#
#
# Elastic Constant Matrix: (Units=GPa)
#
#
# Indices 1 2 3 4 5 6 
#
# 1 61.1911 21.2926 16.7152 0.0000 0.0000 0.0000
# 2 21.2926 105.5375 17.9804 0.0000 0.0000 0.0000
# 3 16.7152 17.9804 91.0389 0.0000 0.0000 0.0000
# 4 0.0000 0.0000 0.0000 24.1542 0.0000 0.0000
# 5 0.0000 0.0000 0.0000 0.0000 25.0254 0.0000
# 6 0.0000 0.0000 0.0000 0.0000 0.0000 30.4321
#
#
#
# Elastic Compliance Matrix: (Units=1/GPa)
#
#
# Indices 1 2 3 4 5 6 
#
# 1 0.018199 -0.003210 -0.002707 0.000000 0.000000 0.000000
# 2 -0.003210 0.010372 -0.001459 0.000000 0.000000 0.000000
# 3 -0.002707 -0.001459 0.011770 0.000000 0.000000 0.000000
# 4 0.000000 0.000000 0.000000 0.041401 0.000000 0.000000
# 5 0.000000 0.000000 0.000000 0.000000 0.039959 0.000000
# 6 0.000000 0.000000 0.000000 0.000000 0.000000 0.032860
#
#
# Mechanical properties :
#
#
# Convention : Reuss Voigt Hill
#
# Bulk Modulus (GPa) = 39.08301 41.08264 40.08283
# Shear Modulus (GPa) = 28.11479 29.37432 28.74455
#
# Velocity S-wave (km/s) = 3.68072 3.76227 3.72172
# Velocity P-wave (km/s) = 6.07426 6.21847 6.14679
#
# Compressibility (1/GPa) = 0.02558656
#
# Stress axis : x y z
#
# Youngs Moduli (GPa) = 54.94828 96.41726 84.96510
#
# Poissons Ratio (x) = 0.30954 0.23003
# Poissons Ratio (y) = 0.17641 0.12396
# Poissons Ratio (z) = 0.14876 0.14067
#
# Static dielectric constant tensor:
#      x y z
#    x 1.919060 0.000000 0.000000 
#    y 0.000000 1.766740 0.000000 
#    z 0.000000 0.000000 1.834960 
# 
# From -- ./inp_files/23063.got.cif
#   From: 2010.05.17/outbox.cif.g08.bks.cpg/sg60_12_cif.got.tgz:23063.got - 2010.06.03 14:59:27.
