data_PCOD9455281
_publ_section_title
;
Structure prediction by ZEFSAII (Michael W. Deem and Ramdas Pophale) SiO2 
 PCOD9455281
Probable space group: P B C N
;
_chemical_formula_sum "Si O2"
_cell_formula_units_Z 40
_cell_length_a 7.940013
_cell_length_b 24.634549
_cell_length_c 8.483885
_cell_angle_alpha 90.000000
_cell_angle_beta 90.000000
_cell_angle_gamma 90.000000
_cell_volume 1659.436362
_symmetry_space_group_name_H-M "P B C N"
_symmetry_group_IT_number 60
_symmetry_cell_setting 'orthorhombic'
loop_
_space_group_symop_operation_xyz
x,y,z
1/2-x,1/2-y,1/2+z
1/2+x,1/2-y,-z
-x,y,1/2-z
-x,-y,-z
1/2+x,1/2+y,1/2-z
1/2-x,1/2+y,z
x,-y,1/2+z
loop_
_atom_site_type_symbol
_atom_site_label
_atom_site_fract_x
_atom_site_fract_y
_atom_site_fract_z
Si Si1 0.500000 0.479493 0.750000
Si Si2 0.173552 0.928195 0.039381
Si Si3 0.738554 0.803335 0.006391
Si Si4 0.000000 0.496007 0.250000
Si Si5 0.000000 0.161750 0.750000
Si Si6 0.425669 0.079261 0.997920
Si Si7 0.000000 0.759572 0.750000
O O1 0.395060 0.520495 0.638610
O O2 0.603175 0.440271 0.633934
O O3 0.097587 0.876271 0.126715
O O4 0.372658 0.917168 0.023333
O O5 0.667295 0.864598 0.985555
O O6 0.587213 0.771457 0.098945
O O7 0.876126 0.803842 0.144606
O O8 0.840228 0.787558 0.845032
O O9 0.876802 0.456290 0.153943
O O10 0.904684 0.537136 0.362545
#
# Coordination Sequence:
#
# PCOD9455281 Si02
#       7
#     4   8   8   4   4   8   4
#     4   9  20  35  60 100 148 204 264 321 376 453
#     4  10  20  37  62  96 145 200 254 316 387 456
#     4  12  28  52  82 115 153 200 263 336 408 482
#     4  10  23  38  65 104 146 194 246 292 358 450
#     4  11  24  42  67 103 146 189 245 322 404 477
#     4  11  23  42  70 105 148 198 251 309 374 465
#     4  12  29  55  86 115 152 203 269 343 420 484
#
# _framework density 24.104569000000001
#
# number of rings (size 3 to 8) (size 9 to 14) (size 15 to 20)
#    0.000    1.200    0.000    5.400    0.000   13.600 
#    0.000    0.000    0.000    2.400    0.000    0.000 
#    0.000    0.000    0.000    0.000    0.000    0.000 
#
# Total GULP energy -223401.559799 kJ/mol
# GULP energy per Si atom -5585.038995 kJ/mol
# Density = 2.404971 g / cm^3
# Si number density = 24.104569 Si / 1000 Ang^3
#
#
#
# Elastic Constant Matrix: (Units=GPa)
#
#
# Indices 1 2 3 4 5 6 
#
# 1 127.3297 52.0972 51.6042 0.0000 0.0000 0.0000
# 2 52.0972 124.3902 64.5524 0.0000 0.0000 0.0000
# 3 51.6042 64.5524 146.6108 0.0000 0.0000 0.0000
# 4 0.0000 0.0000 0.0000 19.5422 0.0000 0.0000
# 5 0.0000 0.0000 0.0000 0.0000 49.1401 0.0000
# 6 0.0000 0.0000 0.0000 0.0000 0.0000 46.7507
#
#
#
# Elastic Compliance Matrix: (Units=1/GPa)
#
#
# Indices 1 2 3 4 5 6 
#
# 1 0.009983 -0.003056 -0.002168 0.000000 0.000000 0.000000
# 2 -0.003056 0.011356 -0.003924 0.000000 0.000000 0.000000
# 3 -0.002168 -0.003924 0.009312 0.000000 0.000000 0.000000
# 4 0.000000 0.000000 0.000000 0.051171 0.000000 0.000000
# 5 0.000000 0.000000 0.000000 0.000000 0.020350 0.000000
# 6 0.000000 0.000000 0.000000 0.000000 0.000000 0.021390
#
#
# Mechanical properties :
#
#
# Convention : Reuss Voigt Hill
#
# Bulk Modulus (GPa) = 80.94883 81.64870 81.29877
# Shear Modulus (GPa) = 34.25230 38.42507 36.33868
#
# Velocity S-wave (km/s) = 3.77369 3.99695 3.88692
# Velocity P-wave (km/s) = 7.25554 7.43283 7.34472
#
# Compressibility (1/GPa) = 0.01235348
#
# Stress axis : x y z
#
# Youngs Moduli (GPa) = 100.17392 88.06299 107.39044
#
# Poissons Ratio (x) = 0.26909 0.23285
# Poissons Ratio (y) = 0.30610 0.42143
# Poissons Ratio (z) = 0.21721 0.34558
#
# Static dielectric constant tensor:
#      x y z
#    x 2.130600 0.000000 0.000000 
#    y 0.000000 1.909860 0.000000 
#    z 0.000000 0.000000 2.085320 
# 
# From -- ./inp_files/3931.got.cif
#   From: 2010.05.17/outbox.cif.g08.bks.cpg/sg60_2_cif.got.tgz:3931.got - 2010.06.03 14:59:27.
