data_PCOD9455594
_publ_section_title
;
Structure prediction by ZEFSAII (Michael W. Deem and Ramdas Pophale) SiO2 
 PCOD9455594
Probable space group: P B C N
;
_chemical_formula_sum "Si O2"
_cell_formula_units_Z 44
_cell_length_a 6.201518
_cell_length_b 18.718403
_cell_length_c 19.324117
_cell_angle_alpha 90.000000
_cell_angle_beta 90.000000
_cell_angle_gamma 90.000000
_cell_volume 2243.192065
_symmetry_space_group_name_H-M "P B C N"
_symmetry_group_IT_number 60
_symmetry_cell_setting 'orthorhombic'
loop_
_space_group_symop_operation_xyz
x,y,z
1/2-x,1/2-y,1/2+z
1/2+x,1/2-y,-z
-x,y,1/2-z
-x,-y,-z
1/2+x,1/2+y,1/2-z
1/2-x,1/2+y,z
x,-y,1/2+z
loop_
_atom_site_type_symbol
_atom_site_label
_atom_site_fract_x
_atom_site_fract_y
_atom_site_fract_z
Si Si1 0.122351 0.937795 0.678397
Si Si2 0.616800 0.672663 0.926759
Si Si3 0.000000 0.513699 0.750000
Si Si4 0.493062 0.079866 0.972929
Si Si5 0.658822 0.576150 0.651989
Si Si6 0.695614 0.674739 0.439596
O O1 0.112025 0.875050 0.622411
O O2 0.000000 0.918182 0.750000
O O3 0.366538 0.963279 0.696857
O O4 0.995634 0.007205 0.650375
O O5 0.482385 0.646811 0.859919
O O6 0.741583 0.746305 0.915601
O O7 0.783820 0.609791 0.944454
O O8 0.467816 0.680823 0.995347
O O9 0.814218 0.562962 0.716959
O O10 0.318614 0.078049 0.912447
O O11 0.405884 0.134146 0.030809
O O12 0.500000 0.000000 0.000000
#
# Coordination Sequence:
#
# PCOD9455594 Si02
#       6
#     8   8   4   8   8   8
#     4  10  22  41  66  89 119 161 213 259 306 381
#     4  11  22  38  61  93 131 167 201 267 314 374
#     4  10  20  40  66  88 116 166 204 270 302 374
#     4  11  21  36  62  96 117 161 203 260 309 366
#     4  10  21  37  62  92 120 156 210 255 310 364
#     4  11  22  39  62  92 129 166 208 256 322 373
#
# _framework density 19.614906000000001
#
# number of rings (size 3 to 8) (size 9 to 14) (size 15 to 20)
#    0.000    1.455    1.818    4.364    0.000    4.364 
#    0.000    0.000   26.000    0.000    0.000    0.000 
#    0.000    0.000    0.000    0.000    0.000    0.000 
#
# Total GULP energy -245659.624535 kJ/mol
# GULP energy per Si atom -5583.173285 kJ/mol
# Density = 1.957026 g / cm^3
# Si number density = 19.614906 Si / 1000 Ang^3
#
#
#
# Elastic Constant Matrix: (Units=GPa)
#
#
# Indices 1 2 3 4 5 6 
#
# 1 84.3688 46.5714 12.6344 0.0000 0.0000 0.0000
# 2 46.5714 126.0242 40.9026 0.0000 0.0000 0.0000
# 3 12.6344 40.9026 63.9765 0.0000 0.0000 0.0000
# 4 0.0000 0.0000 0.0000 27.0247 0.0000 0.0000
# 5 0.0000 0.0000 0.0000 0.0000 11.7056 0.0000
# 6 0.0000 0.0000 0.0000 0.0000 0.0000 18.4794
#
#
#
# Elastic Compliance Matrix: (Units=1/GPa)
#
#
# Indices 1 2 3 4 5 6 
#
# 1 0.014917 -0.005749 0.000730 0.000000 0.000000 0.000000
# 2 -0.005749 0.012229 -0.006683 0.000000 0.000000 0.000000
# 3 0.000730 -0.006683 0.019759 0.000000 0.000000 0.000000
# 4 0.000000 0.000000 0.000000 0.037003 0.000000 0.000000
# 5 0.000000 0.000000 0.000000 0.000000 0.085429 0.000000
# 6 0.000000 0.000000 0.000000 0.000000 0.000000 0.054114
#
#
# Mechanical properties :
#
#
# Convention : Reuss Voigt Hill
#
# Bulk Modulus (GPa) = 42.55273 52.73183 47.64228
# Shear Modulus (GPa) = 19.63175 23.05934 21.34554
#
# Velocity S-wave (km/s) = 3.16707 3.43243 3.30241
# Velocity P-wave (km/s) = 5.92578 6.53075 6.23561
#
# Compressibility (1/GPa) = 0.02350025
#
# Stress axis : x y z
#
# Youngs Moduli (GPa) = 67.03721 81.77539 50.60948
#
# Poissons Ratio (x) = 0.47016 -0.03694
# Poissons Ratio (y) = 0.38542 0.33821
# Poissons Ratio (z) = -0.04893 0.54649
#
# Static dielectric constant tensor:
#      x y z
#    x 1.713970 0.000000 0.000000 
#    y 0.000000 1.658290 0.000000 
#    z 0.000000 0.000000 1.705200 
# 
# From -- ./inp_files/21571.got.cif
#   From: 2010.05.17/outbox.cif.g08.bks.cpg/sg60_11_cif.got.tgz:21571.got - 2010.06.03 14:59:27.
