data_PCOD9455834
_publ_section_title
;
Structure prediction by ZEFSAII (Michael W. Deem and Ramdas Pophale) SiO2 
 PCOD9455834
Probable space group: P B C N
;
_chemical_formula_sum "Si O2"
_cell_formula_units_Z 60
_cell_length_a 16.962496
_cell_length_b 8.280579
_cell_length_c 20.028265
_cell_angle_alpha 90.000000
_cell_angle_beta 90.000000
_cell_angle_gamma 90.000000
_cell_volume 2813.155845
_symmetry_space_group_name_H-M "P B C N"
_symmetry_group_IT_number 60
_symmetry_cell_setting 'orthorhombic'
loop_
_space_group_symop_operation_xyz
x,y,z
1/2-x,1/2-y,1/2+z
1/2+x,1/2-y,-z
-x,y,1/2-z
-x,-y,-z
1/2+x,1/2+y,1/2-z
1/2-x,1/2+y,z
x,-y,1/2+z
loop_
_atom_site_type_symbol
_atom_site_label
_atom_site_fract_x
_atom_site_fract_y
_atom_site_fract_z
Si Si1 0.660721 0.378512 0.257116
Si Si2 0.203243 0.768250 0.387197
Si Si3 0.000000 0.323529 0.750000
Si Si4 0.682896 0.585177 0.036813
Si Si5 0.558120 0.814560 0.995630
Si Si6 0.706056 0.320474 0.836017
Si Si7 0.687390 0.047225 0.928661
Si Si8 0.053080 0.440022 0.891641
O O1 0.689334 0.363949 0.181175
O O2 0.576994 0.287757 0.262197
O O3 0.728168 0.280180 0.296243
O O4 0.659284 0.558302 0.287655
O O5 0.289991 0.699360 0.401647
O O6 0.143789 0.615837 0.386212
O O7 0.182082 0.900440 0.442660
O O8 0.983690 0.424564 0.682152
O O9 0.602460 0.647698 0.005791
O O10 0.754033 0.613191 0.985038
O O11 0.540735 0.894177 0.067745
O O12 0.487509 0.812607 0.942991
O O13 0.619972 0.940587 0.962094
O O14 0.658588 0.191860 0.880901
O O15 0.756907 0.431631 0.885338
#
# Coordination Sequence:
#
# PCOD9455834 Si02
#       8
#     8   8   4   8   8   8   8   8
#     4  10  22  40  61  88 122 162 209 250 308 372
#     4  11  21  38  60  88 120 164 201 255 311 363
#     4  10  22  42  64  84 126 174 204 252 314 372
#     4  12  21  36  63  91 122 154 202 257 307 364
#     4  11  22  39  61  93 125 158 205 254 307 376
#     4  10  21  35  61  92 117 158 207 255 303 365
#     4  11  19  35  59  91 119 153 194 252 314 346
#     4  10  23  41  60  86 124 166 208 246 309 371
#
# _framework density 21.328358999999999
#
# number of rings (size 3 to 8) (size 9 to 14) (size 15 to 20)
#    0.000    1.333    4.000    1.600    1.867    1.600 
#    0.000    6.667    0.000    4.000    0.000    0.000 
#    0.000    0.000    0.000    0.000    0.000    0.000 
#
# Total GULP energy -335091.943715 kJ/mol
# GULP energy per Si atom -5584.865729 kJ/mol
# Density = 2.127981 g / cm^3
# Si number density = 21.328359 Si / 1000 Ang^3
#
#
#
# Elastic Constant Matrix: (Units=GPa)
#
#
# Indices 1 2 3 4 5 6 
#
# 1 39.9953 -13.6706 7.2166 0.0000 0.0000 0.0000
# 2 -13.6706 52.0588 19.7856 0.0000 0.0000 0.0000
# 3 7.2166 19.7856 97.0588 0.0000 0.0000 0.0000
# 4 0.0000 0.0000 0.0000 26.9230 0.0000 0.0000
# 5 0.0000 0.0000 0.0000 0.0000 24.8199 0.0000
# 6 0.0000 0.0000 0.0000 0.0000 0.0000 25.8613
#
#
#
# Elastic Compliance Matrix: (Units=1/GPa)
#
#
# Indices 1 2 3 4 5 6 
#
# 1 0.028831 0.009090 -0.003997 0.000000 0.000000 0.000000
# 2 0.009090 0.023688 -0.005505 0.000000 0.000000 0.000000
# 3 -0.003997 -0.005505 0.011722 0.000000 0.000000 0.000000
# 4 0.000000 0.000000 0.000000 0.037143 0.000000 0.000000
# 5 0.000000 0.000000 0.000000 0.000000 0.040290 0.000000
# 6 0.000000 0.000000 0.000000 0.000000 0.000000 0.038668
#
#
# Mechanical properties :
#
#
# Convention : Reuss Voigt Hill
#
# Bulk Modulus (GPa) = 15.76819 23.97512 19.87165
# Shear Modulus (GPa) = 24.71514 27.23959 25.97736
#
# Velocity S-wave (km/s) = 3.40780 3.57761 3.49373
# Velocity P-wave (km/s) = 4.78469 5.32269 5.06084
#
# Compressibility (1/GPa) = 0.06341880
#
# Stress axis : x y z
#
# Youngs Moduli (GPa) = 34.68478 42.21506 85.30713
#
# Poissons Ratio (x) = -0.38373 0.34095
# Poissons Ratio (y) = -0.31528 0.46959
# Poissons Ratio (z) = 0.13862 0.23238
#
# Static dielectric constant tensor:
#      x y z
#    x 1.754780 0.000000 0.000000 
#    y 0.000000 1.766540 0.000000 
#    z 0.000000 0.000000 1.865160 
# 
# From -- ./inp_files/20895.got.cif
#   From: 2010.05.17/outbox.cif.g08.bks.cpg/sg60_11_cif.got.tgz:20895.got - 2010.06.03 14:59:27.
