data_PCOD9455030
_publ_section_title
;
Structure prediction by ZEFSAII (Michael W. Deem and Ramdas Pophale) SiO2 
 PCOD9455030
Probable space group: P B C N
;
_chemical_formula_sum "Si O2"
_cell_formula_units_Z 48
_cell_length_a 11.374349
_cell_length_b 23.674084
_cell_length_c 8.959193
_cell_angle_alpha 90.000000
_cell_angle_beta 90.000000
_cell_angle_gamma 90.000000
_cell_volume 2412.507245
_symmetry_space_group_name_H-M "P B C N"
_symmetry_group_IT_number 60
_symmetry_cell_setting 'orthorhombic'
loop_
_space_group_symop_operation_xyz
x,y,z
1/2-x,1/2-y,1/2+z
1/2+x,1/2-y,-z
-x,y,1/2-z
-x,-y,-z
1/2+x,1/2+y,1/2-z
1/2-x,1/2+y,z
x,-y,1/2+z
loop_
_atom_site_type_symbol
_atom_site_label
_atom_site_fract_x
_atom_site_fract_y
_atom_site_fract_z
Si Si1 0.745290 0.352617 0.714970
Si Si2 0.703619 0.778783 0.224633
Si Si3 0.527713 0.775158 0.476237
Si Si4 0.000000 0.642542 0.250000
Si Si5 0.380359 0.655014 0.965260
Si Si6 0.589910 0.425340 0.493998
Si Si7 0.000000 0.008244 0.750000
O O1 0.761568 0.283672 0.707476
O O2 0.676013 0.379761 0.574249
O O3 0.870391 0.384015 0.737184
O O4 0.673718 0.356013 0.870451
O O5 0.650019 0.787868 0.389119
O O6 0.585157 0.776097 0.128896
O O7 0.784401 0.828294 0.158907
O O8 0.498815 0.818703 0.604116
O O9 0.541496 0.711504 0.529991
O O10 0.469491 0.604928 0.942573
O O11 0.606655 0.460235 0.340944
O O12 0.561305 0.468913 0.626116
#
# Coordination Sequence:
#
# PCOD9455030 Si02
#       7
#     8   8   8   4   8   8   4
#     4  11  21  35  56  85 123 162 194 246 297 369
#     4  10  20  35  53  80 126 168 198 229 290 372
#     4  10  21  33  49  81 124 167 197 233 277 359
#     4  12  22  33  52  82 122 162 199 228 284 362
#     4  11  19  35  60  85 121 163 196 244 304 360
#     4  11  22  42  64  91 115 149 203 258 323 346
#     4  10  24  41  66  92 108 144 203 278 316 352
#
# _framework density 19.896312999999999
#
# number of rings (size 3 to 8) (size 9 to 14) (size 15 to 20)
#    0.000    1.333    6.667    0.000    0.000    2.000 
#    0.000    0.000    0.000    1.000    0.000    0.000 
#    0.000    0.000    0.000    0.000    0.000    0.000 
#
# Total GULP energy -267384.814457 kJ/mol
# GULP energy per Si atom -5570.516968 kJ/mol
# Density = 1.985103 g / cm^3
# Si number density = 19.896313 Si / 1000 Ang^3
#
#
#
# Elastic Constant Matrix: (Units=GPa)
#
#
# Indices 1 2 3 4 5 6 
#
# 1 72.0781 14.5492 6.3129 0.0000 0.0000 0.0000
# 2 14.5492 43.1494 19.2641 0.0000 0.0000 0.0000
# 3 6.3129 19.2641 77.5659 0.0000 0.0000 0.0000
# 4 0.0000 0.0000 0.0000 24.4148 0.0000 0.0000
# 5 0.0000 0.0000 0.0000 0.0000 33.6648 0.0000
# 6 0.0000 0.0000 0.0000 0.0000 0.0000 11.6121
#
#
#
# Elastic Compliance Matrix: (Units=1/GPa)
#
#
# Indices 1 2 3 4 5 6 
#
# 1 0.014887 -0.005037 0.000039 0.000000 0.000000 0.000000
# 2 -0.005037 0.027770 -0.006487 0.000000 0.000000 0.000000
# 3 0.000039 -0.006487 0.014500 0.000000 0.000000 0.000000
# 4 0.000000 0.000000 0.000000 0.040959 0.000000 0.000000
# 5 0.000000 0.000000 0.000000 0.000000 0.029705 0.000000
# 6 0.000000 0.000000 0.000000 0.000000 0.000000 0.086117
#
#
# Mechanical properties :
#
#
# Convention : Reuss Voigt Hill
#
# Bulk Modulus (GPa) = 29.25034 30.33843 29.79438
# Shear Modulus (GPa) = 20.13665 24.11613 22.12639
#
# Velocity S-wave (km/s) = 3.18477 3.48529 3.33841
# Velocity P-wave (km/s) = 5.31573 5.61050 5.46510
#
# Compressibility (1/GPa) = 0.03418764
#
# Stress axis : x y z
#
# Youngs Moduli (GPa) = 67.17185 36.01027 68.96495
#
# Poissons Ratio (x) = 0.18139 -0.00272
# Poissons Ratio (y) = 0.33836 0.44737
# Poissons Ratio (z) = -0.00265 0.23359
#
# Static dielectric constant tensor:
#      x y z
#    x 1.769010 0.000000 0.000000 
#    y 0.000000 1.732010 0.000000 
#    z 0.000000 0.000000 1.773460 
# 
# From -- ./inp_files/5098.got.cif
#   From: 2010.05.17/outbox.cif.g08.bks.cpg/sg60_3_cif.got.tgz:5098.got - 2010.06.03 14:59:27.
