data_PCOD9455415
_publ_section_title
;
Structure prediction by ZEFSAII (Michael W. Deem and Ramdas Pophale) SiO2 
 PCOD9455415
Probable space group: P B C N
;
_chemical_formula_sum "Si O2"
_cell_formula_units_Z 48
_cell_length_a 12.440920
_cell_length_b 12.664836
_cell_length_c 14.478968
_cell_angle_alpha 90.000000
_cell_angle_beta 90.000000
_cell_angle_gamma 90.000000
_cell_volume 2281.338218
_symmetry_space_group_name_H-M "P B C N"
_symmetry_group_IT_number 60
_symmetry_cell_setting 'orthorhombic'
loop_
_space_group_symop_operation_xyz
x,y,z
1/2-x,1/2-y,1/2+z
1/2+x,1/2-y,-z
-x,y,1/2-z
-x,-y,-z
1/2+x,1/2+y,1/2-z
1/2-x,1/2+y,z
x,-y,1/2+z
loop_
_atom_site_type_symbol
_atom_site_label
_atom_site_fract_x
_atom_site_fract_y
_atom_site_fract_z
Si Si1 0.404737 0.966387 0.066318
Si Si2 0.000000 0.005078 0.250000
Si Si3 0.325312 0.691293 0.249805
Si Si4 0.090748 0.050554 0.936825
Si Si5 0.000000 0.363584 0.250000
Si Si6 0.741298 0.827914 0.946867
Si Si7 0.754850 0.851299 0.562017
O O1 0.452127 0.929259 0.164384
O O2 0.341237 0.877917 0.007520
O O3 0.500000 0.000000 0.000000
O O4 0.325186 0.066403 0.074417
O O5 0.100514 0.086143 0.233317
O O6 0.035459 0.934995 0.337288
O O7 0.405126 0.784463 0.281116
O O8 0.238423 0.679359 0.331354
O O9 0.274432 0.717458 0.151875
O O10 0.177869 0.957793 0.927051
O O11 0.154664 0.141759 0.990222
O O12 0.000000 0.000000 0.000000
O O13 0.680830 0.741206 0.008913
#
# Coordination Sequence:
#
# PCOD9455415 Si02
#       7
#     8   4   8   8   4   8   8
#     4  11  25  41  64  93 129 174 214 269 322 392
#     4   9  18  36  60  89 118 156 201 252 316 375
#     4  10  20  38  67  87 123 167 207 263 320 387
#     4  10  20  38  64  90 121 160 204 260 313 380
#     4  11  22  42  68  93 124 178 219 256 340 393
#     4  11  22  41  63  93 128 164 214 265 319 383
#     4  10  23  41  59  93 125 164 212 263 320 379
#
# _framework density 21.040282999999999
#
# number of rings (size 3 to 8) (size 9 to 14) (size 15 to 20)
#    0.000    1.667    3.333    1.000    2.333    1.333 
#    6.000    0.000    0.000    0.000    0.000    0.000 
#    0.000    0.000    0.000    0.000    0.000    0.000 
#
# Total GULP energy -267685.415386 kJ/mol
# GULP energy per Si atom -5576.779487 kJ/mol
# Density = 2.099239 g / cm^3
# Si number density = 21.040283 Si / 1000 Ang^3
#
#
#
# Elastic Constant Matrix: (Units=GPa)
#
#
# Indices 1 2 3 4 5 6 
#
# 1 52.7670 10.2705 50.2398 0.0000 0.0000 0.0000
# 2 10.2705 62.9345 38.7357 0.0000 0.0000 0.0000
# 3 50.2398 38.7357 196.7965 0.0000 0.0000 0.0000
# 4 0.0000 0.0000 0.0000 31.1435 0.0000 0.0000
# 5 0.0000 0.0000 0.0000 0.0000 42.2685 0.0000
# 6 0.0000 0.0000 0.0000 0.0000 0.0000 -0.0147
#
#
#
# Elastic Compliance Matrix: (Units=1/GPa)
#
#
# Indices 1 2 3 4 5 6 
#
# 1 0.025038 -0.000173 -0.006358 0.000000 0.000000 0.000000
# 2 -0.000173 0.018081 -0.003515 0.000000 0.000000 0.000000
# 3 -0.006358 -0.003515 0.007396 0.000000 0.000000 0.000000
# 4 0.000000 0.000000 0.000000 0.032109 0.000000 0.000000
# 5 0.000000 0.000000 0.000000 0.000000 0.023658 0.000000
# 6 0.000000 0.000000 0.000000 0.000000 0.000000-67.831324
#
#
# Mechanical properties :
#
#
# Convention : Reuss Voigt Hill
#
# Bulk Modulus (GPa) = 32.86815 56.77665 44.82240
# Shear Modulus (GPa) = -0.07386 28.89625 14.41120
#
# Velocity S-wave (km/s) = -0.18757 3.70993 2.61996
# Velocity P-wave (km/s) = 3.95076 6.73756 5.52283
#
# Compressibility (1/GPa) = 0.03042459
#
# Stress axis : x y z
#
# Youngs Moduli (GPa) = 39.93876 55.30645 135.20224
#
# Poissons Ratio (x) = 0.00956 0.85961
# Poissons Ratio (y) = 0.00690 0.47521
# Poissons Ratio (z) = 0.25393 0.19439
#
# Static dielectric constant tensor:
#      x y z
#    x 1.779320 0.000000 0.000000 
#    y 0.000000 1.752440 0.000000 
#    z 0.000000 0.000000 1.766670 
# 
# From -- ./inp_files/16105.got.cif
#   From: 2010.05.17/outbox.cif.g08.bks.cpg/sg60_9_cif.got.tgz:16105.got - 2010.06.03 14:59:27.
