data_PCOD9455068
_publ_section_title
;
Structure prediction by ZEFSAII (Michael W. Deem and Ramdas Pophale) SiO2 
 PCOD9455068
Probable space group: P B C N
;
_chemical_formula_sum "Si O2"
_cell_formula_units_Z 56
_cell_length_a 33.005751
_cell_length_b 16.902889
_cell_length_c 4.930422
_cell_angle_alpha 90.000000
_cell_angle_beta 90.000000
_cell_angle_gamma 90.000000
_cell_volume 2750.645680
_symmetry_space_group_name_H-M "P B C N"
_symmetry_group_IT_number 60
_symmetry_cell_setting 'orthorhombic'
loop_
_space_group_symop_operation_xyz
x,y,z
1/2-x,1/2-y,1/2+z
1/2+x,1/2-y,-z
-x,y,1/2-z
-x,-y,-z
1/2+x,1/2+y,1/2-z
1/2-x,1/2+y,z
x,-y,1/2+z
loop_
_atom_site_type_symbol
_atom_site_label
_atom_site_fract_x
_atom_site_fract_y
_atom_site_fract_z
Si Si1 0.900316 0.274237 0.757344
Si Si2 0.857821 0.798742 0.744419
Si Si3 0.876402 0.446842 0.789863
Si Si4 0.281130 0.052019 0.276196
Si Si5 0.091463 0.052600 0.275157
Si Si6 0.265207 0.293487 0.585029
Si Si7 0.527061 0.325396 0.504704
O O1 0.888396 0.232451 0.476722
O O2 0.901154 0.368225 0.725111
O O3 0.865531 0.253137 0.977458
O O4 0.940822 0.236644 0.882355
O O5 0.870980 0.888347 0.676872
O O6 0.812786 0.792644 0.855208
O O7 0.883999 0.519717 0.587987
O O8 0.828642 0.426716 0.755711
O O9 0.254030 0.124121 0.179333
O O10 0.273991 0.023315 0.581169
O O11 0.052298 0.102856 0.362552
O O12 0.092290 0.975989 0.466525
O O13 0.255270 0.273293 0.275287
O O14 0.500000 0.291813 0.750000
O O15 0.500000 0.352128 0.250000
#
# Coordination Sequence:
#
# PCOD9455068 Si02
#       7
#     8   8   8   8   8   8   8
#     4  11  22  41  63  86 118 152 195 241 290 360
#     4  11  23  39  60  84 117 163 202 242 294 348
#     4  10  20  35  59  86 112 146 190 238 288 341
#     4  10  21  36  54  81 114 148 190 242 293 338
#     4  11  23  39  60  89 122 157 202 246 288 350
#     4  12  24  38  59  86 117 157 206 251 295 343
#     4  11  23  40  63  91 120 155 195 239 298 354
#
# _framework density 20.358854999999998
#
# number of rings (size 3 to 8) (size 9 to 14) (size 15 to 20)
#    0.000    1.143    0.000    8.571    0.000    5.143 
#    0.000    0.000    0.000    2.571    0.000    0.000 
#    0.000    0.000    0.000    0.000    0.000    0.000 
#
# Total GULP energy -313267.578152 kJ/mol
# GULP energy per Si atom -5594.063896 kJ/mol
# Density = 2.031252 g / cm^3
# Si number density = 20.358855 Si / 1000 Ang^3
#
#
#
# Elastic Constant Matrix: (Units=GPa)
#
#
# Indices 1 2 3 4 5 6 
#
# 1 48.8454 17.9329 -5.5973 0.0000 0.0000 0.0000
# 2 17.9329 61.7336 -11.9236 0.0000 0.0000 0.0000
# 3 -5.5973 -11.9236 71.2163 0.0000 0.0000 0.0000
# 4 0.0000 0.0000 0.0000 11.2681 0.0000 0.0000
# 5 0.0000 0.0000 0.0000 0.0000 202.0920 0.0000
# 6 0.0000 0.0000 0.0000 0.0000 0.0000 9.6116
#
#
#
# Elastic Compliance Matrix: (Units=1/GPa)
#
#
# Indices 1 2 3 4 5 6 
#
# 1 0.022952 -0.006530 0.000711 0.000000 0.000000 0.000000
# 2 -0.006530 0.018598 0.002601 0.000000 0.000000 0.000000
# 3 0.000711 0.002601 0.014533 0.000000 0.000000 0.000000
# 4 0.000000 0.000000 0.000000 0.088746 0.000000 0.000000
# 5 0.000000 0.000000 0.000000 0.000000 0.004948 0.000000
# 6 0.000000 0.000000 0.000000 0.000000 0.000000 0.104041
#
#
# Mechanical properties :
#
#
# Convention : Reuss Voigt Hill
#
# Bulk Modulus (GPa) = 20.14307 20.29103 20.21705
# Shear Modulus (GPa) = 18.06332 56.68656 37.37494
#
# Velocity S-wave (km/s) = 2.98190 5.28244 4.28928
# Velocity P-wave (km/s) = 4.66595 6.86978 5.87218
#
# Compressibility (1/GPa) = 0.04964485
#
# Stress axis : x y z
#
# Youngs Moduli (GPa) = 43.57009 53.76985 68.80902
#
# Poissons Ratio (x) = 0.35111 -0.04890
# Poissons Ratio (y) = 0.28451 -0.17894
# Poissons Ratio (z) = -0.03096 -0.13983
#
# Static dielectric constant tensor:
#      x y z
#    x 1.714760 0.000000 0.000000 
#    y 0.000000 1.699140 0.000000 
#    z 0.000000 0.000000 1.697920 
# 
# From -- ./inp_files/2691.got.cif
#   From: 2010.05.17/outbox.cif.g08.bks.cpg/sg60_2_cif.got.tgz:2691.got - 2010.06.03 14:59:27.
