data_PCOD9455102
_publ_section_title
;
Structure prediction by ZEFSAII (Michael W. Deem and Ramdas Pophale) SiO2 
 PCOD9455102
Probable space group: P B C N
;
_chemical_formula_sum "Si O2"
_cell_formula_units_Z 60
_cell_length_a 28.924034
_cell_length_b 13.234714
_cell_length_c 9.221486
_cell_angle_alpha 90.000000
_cell_angle_beta 90.000000
_cell_angle_gamma 90.000000
_cell_volume 3529.996992
_symmetry_space_group_name_H-M "P B C N"
_symmetry_group_IT_number 60
_symmetry_cell_setting 'orthorhombic'
loop_
_space_group_symop_operation_xyz
x,y,z
1/2-x,1/2-y,1/2+z
1/2+x,1/2-y,-z
-x,y,1/2-z
-x,-y,-z
1/2+x,1/2+y,1/2-z
1/2-x,1/2+y,z
x,-y,1/2+z
loop_
_atom_site_type_symbol
_atom_site_label
_atom_site_fract_x
_atom_site_fract_y
_atom_site_fract_z
Si Si1 0.307182 0.622056 0.448802
Si Si2 0.500000 0.997357 0.750000
Si Si3 0.854203 0.675210 0.619128
Si Si4 0.935635 0.443779 0.998235
Si Si5 0.134227 0.610652 0.564717
Si Si6 0.210221 0.060959 0.742176
Si Si7 0.794782 0.435296 0.902935
Si Si8 0.290609 0.215143 0.361455
O O1 0.339097 0.710679 0.393748
O O2 0.307633 0.523169 0.350747
O O3 0.321817 0.595591 0.610920
O O4 0.254790 0.668287 0.439321
O O5 0.529664 0.060132 0.633669
O O6 0.464061 0.936310 0.650081
O O7 0.895496 0.637917 0.516686
O O8 0.872499 0.663293 0.782019
O O9 0.809459 0.607693 0.563026
O O10 0.910444 0.554755 0.001080
O O11 0.165153 0.516070 0.617641
O O12 0.165117 0.679431 0.456755
O O13 0.217147 0.165929 0.831237
O O14 0.250234 0.001039 0.648072
O O15 0.795135 0.341126 0.793605
#
# Coordination Sequence:
#
# PCOD9455102 Si02
#       8
#     8   4   8   8   8   8   8   8
#     4  11  25  36  54  73 111 152 205 251 281 329
#     4  10  20  38  60  90 122 152 174 228 304 368
#     4  11  22  36  56  80 111 154 193 231 290 343
#     4  10  21  37  60  89 124 150 181 231 292 372
#     4  11  21  33  56  85 113 155 188 230 281 344
#     4  11  24  37  50  75 103 154 203 251 283 312
#     4  10  20  36  50  72 106 147 202 240 272 324
#     4  11  23  35  54  75 110 155 206 242 281 332
#
# _framework density 16.997181999999999
#
# number of rings (size 3 to 8) (size 9 to 14) (size 15 to 20)
#    0.000    1.333    4.000    2.400    7.467    0.000 
#    0.000    0.000    0.000    0.000    0.000    0.000 
#    0.000   18.133    0.000    0.000    0.000    0.000 
#
# Total GULP energy -334013.168296 kJ/mol
# GULP energy per Si atom -5566.886138 kJ/mol
# Density = 1.695850 g / cm^3
# Si number density = 16.997182 Si / 1000 Ang^3
#
#
#
# Elastic Constant Matrix: (Units=GPa)
#
#
# Indices 1 2 3 4 5 6 
#
# 1 52.2851 22.6150 15.3775 0.0000 0.0000 0.0000
# 2 22.6150 116.3342 26.4861 0.0000 0.0000 0.0000
# 3 15.3775 26.4861 68.0787 0.0000 0.0000 0.0000
# 4 0.0000 0.0000 0.0000 19.5734 0.0000 0.0000
# 5 0.0000 0.0000 0.0000 0.0000 21.4819 0.0000
# 6 0.0000 0.0000 0.0000 0.0000 0.0000 11.7051
#
#
#
# Elastic Compliance Matrix: (Units=1/GPa)
#
#
# Indices 1 2 3 4 5 6 
#
# 1 0.021644 -0.003395 -0.003568 0.000000 0.000000 0.000000
# 2 -0.003395 0.009964 -0.003110 0.000000 0.000000 0.000000
# 3 -0.003568 -0.003110 0.016705 0.000000 0.000000 0.000000
# 4 0.000000 0.000000 0.000000 0.051090 0.000000 0.000000
# 5 0.000000 0.000000 0.000000 0.000000 0.046551 0.000000
# 6 0.000000 0.000000 0.000000 0.000000 0.000000 0.085433
#
#
# Mechanical properties :
#
#
# Convention : Reuss Voigt Hill
#
# Bulk Modulus (GPa) = 35.50271 40.62836 38.06553
# Shear Modulus (GPa) = 19.16294 22.03336 20.59815
#
# Velocity S-wave (km/s) = 3.36135 3.60432 3.48495
# Velocity P-wave (km/s) = 5.99980 6.42467 6.21587
#
# Compressibility (1/GPa) = 0.02816687
#
# Stress axis : x y z
#
# Youngs Moduli (GPa) = 46.20266 100.36231 59.86371
#
# Poissons Ratio (x) = 0.34074 0.21359
# Poissons Ratio (y) = 0.15686 0.18615
# Poissons Ratio (z) = 0.16485 0.31209
#
# Static dielectric constant tensor:
#      x y z
#    x 1.594590 0.000000 0.000000 
#    y 0.000000 1.583320 0.000000 
#    z 0.000000 0.000000 1.634790 
# 
# From -- ./inp_files/8461.got.cif
#   From: 2010.05.17/outbox.cif.g08.bks.cpg/sg60_5_cif.got.tgz:8461.got - 2010.06.03 14:59:27.
