data_PCOD9455970
_publ_section_title
;
Structure prediction by ZEFSAII (Michael W. Deem and Ramdas Pophale) SiO2 
 PCOD9455970
Probable space group: P B C N
;
_chemical_formula_sum "Si O2"
_cell_formula_units_Z 60
_cell_length_a 10.317621
_cell_length_b 9.311998
_cell_length_c 24.576011
_cell_angle_alpha 90.000000
_cell_angle_beta 90.000000
_cell_angle_gamma 90.000000
_cell_volume 2361.205779
_symmetry_space_group_name_H-M "P B C N"
_symmetry_group_IT_number 60
_symmetry_cell_setting 'orthorhombic'
loop_
_space_group_symop_operation_xyz
x,y,z
1/2-x,1/2-y,1/2+z
1/2+x,1/2-y,-z
-x,y,1/2-z
-x,-y,-z
1/2+x,1/2+y,1/2-z
1/2-x,1/2+y,z
x,-y,1/2+z
loop_
_atom_site_type_symbol
_atom_site_label
_atom_site_fract_x
_atom_site_fract_y
_atom_site_fract_z
Si Si1 0.947767 0.463851 0.428649
Si Si2 0.493567 0.540403 0.179239
Si Si3 0.675305 0.203882 0.077393
Si Si4 0.992364 0.053091 0.937848
Si Si5 0.213225 0.577121 0.311166
Si Si6 0.500000 0.276907 0.250000
Si Si7 0.128072 0.297981 0.508423
Si Si8 0.504697 0.133660 0.812642
O O1 0.839026 0.550737 0.462631
O O2 0.062323 0.585366 0.428627
O O3 0.010437 0.336621 0.465433
O O4 0.919296 0.426956 0.365927
O O5 0.469725 0.542249 0.114255
O O6 0.640526 0.540955 0.204667
O O7 0.448579 0.384983 0.202278
O O8 0.451461 0.702114 0.192966
O O9 0.624555 0.366300 0.078434
O O10 0.738315 0.163199 0.133523
O O11 0.771567 0.213405 0.027993
O O12 0.897408 0.188209 0.942733
O O13 0.138415 0.429682 0.326121
O O14 0.117972 0.678829 0.274660
O O15 0.000000 0.000000 0.500000
O O16 0.500000 0.082844 0.750000
#
# Coordination Sequence:
#
# PCOD9455970 Si02
#       8
#     8   8   8   8   8   4   8   8
#     4   9  21  38  62  95 140 183 237 299 365 435
#     4  12  25  44  73 107 140 191 252 303 374 452
#     4  10  21  37  67 100 131 188 243 291 356 445
#     4  11  23  38  66 101 142 178 240 308 358 425
#     4  11  23  42  72 107 138 187 246 304 365 442
#     4  12  24  46  76 106 154 184 244 328 364 434
#     4  10  21  39  62  98 138 176 232 305 362 422
#     4  11  22  40  68  99 140 188 236 299 365 436
#
# _framework density 25.410744999999999
#
# number of rings (size 3 to 8) (size 9 to 14) (size 15 to 20)
#    0.000    1.333    2.667    3.200    5.600    0.000 
#    0.000    0.000    8.800    0.000    0.000    0.000 
#    0.000    0.000    0.000    0.000    0.000    0.000 
#
# Total GULP energy -334016.955521 kJ/mol
# GULP energy per Si atom -5566.949259 kJ/mol
# Density = 2.535291 g / cm^3
# Si number density = 25.410745 Si / 1000 Ang^3
#
#
#
# Elastic Constant Matrix: (Units=GPa)
#
#
# Indices 1 2 3 4 5 6 
#
# 1 15.7432 14.0034 2.3534 0.0000 0.0000 0.0000
# 2 14.0034 117.1531 54.5824 0.0000 0.0000 0.0000
# 3 2.3534 54.5824 162.4501 0.0000 0.0000 0.0000
# 4 0.0000 0.0000 0.0000 414.9725 0.0000 0.0000
# 5 0.0000 0.0000 0.0000 0.0000 29.7463 0.0000
# 6 0.0000 0.0000 0.0000 0.0000 0.0000 30.0017
#
#
#
# Elastic Compliance Matrix: (Units=1/GPa)
#
#
# Indices 1 2 3 4 5 6 
#
# 1 0.071724 -0.009590 0.002183 0.000000 0.000000 0.000000
# 2 -0.009590 0.011402 -0.003692 0.000000 0.000000 0.000000
# 3 0.002183 -0.003692 0.007365 0.000000 0.000000 0.000000
# 4 0.000000 0.000000 0.000000 0.002410 0.000000 0.000000
# 5 0.000000 0.000000 0.000000 0.000000 0.033618 0.000000
# 6 0.000000 0.000000 0.000000 0.000000 0.000000 0.033331
#
#
# Mechanical properties :
#
#
# Convention : Reuss Voigt Hill
#
# Bulk Modulus (GPa) = 14.64294 48.58051 31.61172
# Shear Modulus (GPa) = 24.41256 109.90459 67.15857
#
# Velocity S-wave (km/s) = 3.10291 6.58370 5.14651
# Velocity P-wave (km/s) = 4.31421 8.77229 6.91251
#
# Compressibility (1/GPa) = 0.06829229
#
# Stress axis : x y z
#
# Youngs Moduli (GPa) = 13.94235 87.70067 135.78330
#
# Poissons Ratio (x) = 0.84109 -0.29645
# Poissons Ratio (y) = 0.13371 0.50134
# Poissons Ratio (z) = -0.03044 0.32381
#
# Static dielectric constant tensor:
#      x y z
#    x 2.196840 0.000000 0.000000 
#    y 0.000000 2.065570 0.000000 
#    z 0.000000 0.000000 2.243700 
# 
# From -- ./inp_files/25438.got.cif
#   From: 2010.05.17/outbox.cif.g08.bks.cpg/sg60_13_cif.got.tgz:25438.got - 2010.06.03 14:59:27.
