data_PCOD9455661
_publ_section_title
;
Structure prediction by ZEFSAII (Michael W. Deem and Ramdas Pophale) SiO2 
 PCOD9455661
Probable space group: P B C N
;
_chemical_formula_sum "Si O2"
_cell_formula_units_Z 56
_cell_length_a 8.545868
_cell_length_b 15.442855
_cell_length_c 18.493727
_cell_angle_alpha 90.000000
_cell_angle_beta 90.000000
_cell_angle_gamma 90.000000
_cell_volume 2440.665243
_symmetry_space_group_name_H-M "P B C N"
_symmetry_group_IT_number 60
_symmetry_cell_setting 'orthorhombic'
loop_
_space_group_symop_operation_xyz
x,y,z
1/2-x,1/2-y,1/2+z
1/2+x,1/2-y,-z
-x,y,1/2-z
-x,-y,-z
1/2+x,1/2+y,1/2-z
1/2-x,1/2+y,z
x,-y,1/2+z
loop_
_atom_site_type_symbol
_atom_site_label
_atom_site_fract_x
_atom_site_fract_y
_atom_site_fract_z
Si Si1 0.486568 0.694984 0.104564
Si Si2 0.692394 0.968061 0.075321
Si Si3 0.582683 0.477953 0.681437
Si Si4 0.611868 0.125412 0.868764
Si Si5 0.162827 0.459887 0.710233
Si Si6 0.815175 0.664487 0.031329
Si Si7 0.340634 0.854373 0.563279
O O1 0.493471 0.601206 0.142927
O O2 0.442210 0.777980 0.153931
O O3 0.656696 0.706900 0.065264
O O4 0.329530 0.691017 0.054600
O O5 0.550220 0.924679 0.116909
O O6 0.851309 0.957276 0.121016
O O7 0.678554 0.070529 0.069936
O O8 0.675476 0.929907 0.995742
O O9 0.500000 0.521414 0.750000
O O10 0.721517 0.432093 0.726232
O O11 0.701744 0.057175 0.818950
O O12 0.695902 0.138104 0.946434
O O13 0.154620 0.394655 0.643145
O O14 0.000000 0.465506 0.750000
O O15 0.994945 0.695191 0.048112
#
# Coordination Sequence:
#
# PCOD9455661 Si02
#       7
#     8   8   8   8   8   8   8
#     4  11  26  40  65 100 139 171 220 288 346 401
#     4  10  20  41  68  93 128 175 223 278 325 412
#     4  11  23  41  62  99 132 169 227 282 333 410
#     4  11  22  40  66 100 132 176 224 283 341 408
#     4  12  21  41  70  92 123 184 229 270 334 408
#     4  10  21  41  66  98 130 172 227 276 335 415
#     4  11  21  42  70  93 129 181 224 269 346 409
#
# _framework density 22.944565999999998
#
# number of rings (size 3 to 8) (size 9 to 14) (size 15 to 20)
#    0.000    1.143    5.714    1.714    4.000    4.000 
#    0.000    1.429    0.000    0.857    0.000    0.000 
#    0.000    0.000    0.000    0.000    0.000    0.000 
#
# Total GULP energy -311973.220598 kJ/mol
# GULP energy per Si atom -5570.950368 kJ/mol
# Density = 2.289234 g / cm^3
# Si number density = 22.944566 Si / 1000 Ang^3
#
#
#
# Elastic Constant Matrix: (Units=GPa)
#
#
# Indices 1 2 3 4 5 6 
#
# 1 121.4529 12.3896 38.6743 0.0000 0.0000 0.0000
# 2 12.3896 46.7838 -9.9641 0.0000 0.0000 0.0000
# 3 38.6743 -9.9641 93.6165 0.0000 0.0000 0.0000
# 4 0.0000 0.0000 0.0000 7.9555 0.0000 0.0000
# 5 0.0000 0.0000 0.0000 0.0000 48.7812 0.0000
# 6 0.0000 0.0000 0.0000 0.0000 0.0000 28.6139
#
#
#
# Elastic Compliance Matrix: (Units=1/GPa)
#
#
# Indices 1 2 3 4 5 6 
#
# 1 0.010048 -0.003627 -0.004537 0.000000 0.000000 0.000000
# 2 -0.003627 0.023180 0.003966 0.000000 0.000000 0.000000
# 3 -0.004537 0.003966 0.012978 0.000000 0.000000 0.000000
# 4 0.000000 0.000000 0.000000 0.125698 0.000000 0.000000
# 5 0.000000 0.000000 0.000000 0.000000 0.020500 0.000000
# 6 0.000000 0.000000 0.000000 0.000000 0.000000 0.034948
#
#
# Mechanical properties :
#
#
# Convention : Reuss Voigt Hill
#
# Bulk Modulus (GPa) = 26.44863 38.22807 32.33835
# Shear Modulus (GPa) = 20.13253 31.78702 25.95977
#
# Velocity S-wave (km/s) = 2.96538 3.72611 3.36730
# Velocity P-wave (km/s) = 4.82461 5.93373 5.40768
#
# Compressibility (1/GPa) = 0.03780914
#
# Stress axis : x y z
#
# Youngs Moduli (GPa) = 99.51740 43.14024 77.05119
#
# Poissons Ratio (x) = 0.15649 0.34960
# Poissons Ratio (y) = 0.36100 -0.30557
# Poissons Ratio (z) = 0.45154 -0.17108
#
# Static dielectric constant tensor:
#      x y z
#    x 2.009410 0.000000 0.000000 
#    y 0.000000 1.926080 0.000000 
#    z 0.000000 0.000000 1.886480 
# 
# From -- ./inp_files/22194.got.cif
#   From: 2010.05.17/outbox.cif.g08.bks.cpg/sg60_12_cif.got.tgz:22194.got - 2010.06.03 14:59:27.
