data_PCOD9455848
_publ_section_title
;
Structure prediction by ZEFSAII (Michael W. Deem and Ramdas Pophale) SiO2 
 PCOD9455848
Probable space group: P B C N
;
_chemical_formula_sum "Si O2"
_cell_formula_units_Z 64
_cell_length_a 16.967663
_cell_length_b 22.508888
_cell_length_c 8.600042
_cell_angle_alpha 90.000000
_cell_angle_beta 90.000000
_cell_angle_gamma 90.000000
_cell_volume 3284.555785
_symmetry_space_group_name_H-M "P B C N"
_symmetry_group_IT_number 60
_symmetry_cell_setting 'orthorhombic'
loop_
_space_group_symop_operation_xyz
x,y,z
1/2-x,1/2-y,1/2+z
1/2+x,1/2-y,-z
-x,y,1/2-z
-x,-y,-z
1/2+x,1/2+y,1/2-z
1/2-x,1/2+y,z
x,-y,1/2+z
loop_
_atom_site_type_symbol
_atom_site_label
_atom_site_fract_x
_atom_site_fract_y
_atom_site_fract_z
Si Si1 0.962300 0.222675 0.078758
Si Si2 0.689397 0.299068 0.401766
Si Si3 0.360532 0.174548 0.526092
Si Si4 0.649680 0.074242 0.190167
Si Si5 0.112110 0.192412 0.919011
Si Si6 0.083586 0.469690 0.485295
Si Si7 0.742547 0.836213 0.893618
Si Si8 0.401685 0.155767 0.874845
O O1 0.955259 0.293800 0.044207
O O2 0.000000 0.214078 0.250000
O O3 0.871879 0.204229 0.045620
O O4 0.020486 0.188749 0.961361
O O5 0.766888 0.335301 0.446004
O O6 0.641732 0.322527 0.252860
O O7 0.722344 0.232943 0.354158
O O8 0.393164 0.122519 0.418560
O O9 0.371300 0.237513 0.445119
O O10 0.394382 0.176281 0.698534
O O11 0.605661 0.053217 0.344180
O O12 0.720390 0.114594 0.264717
O O13 0.649615 0.014777 0.084105
O O14 0.168876 0.160543 0.043570
O O15 0.072376 0.411691 0.380197
O O16 0.000000 0.500000 0.500000
O O17 0.682667 0.845174 0.038666
#
# Coordination Sequence:
#
# PCOD9455848 Si02
#       8
#     8   8   8   8   8   8   8   8
#     4  11  23  33  54  87 123 154 199 243 301 370
#     4  10  21  36  54  83 116 156 193 246 304 375
#     4  11  21  35  60  78 113 157 209 246 303 355
#     4  11  23  39  58  83 107 161 208 263 294 358
#     4  11  20  35  56  83 120 157 191 255 302 380
#     4  11  25  41  59  79 121 158 212 262 305 339
#     4   9  20  35  57  81 112 154 209 242 306 359
#     4  10  21  39  54  83 116 164 204 251 297 353
#
# _framework density 19.485129000000001
#
# number of rings (size 3 to 8) (size 9 to 14) (size 15 to 20)
#    0.000    1.500    3.750    1.500    3.500    1.000 
#    2.250    0.000    0.000    0.000    0.000    0.000 
#    0.000   18.000    0.000    0.000    0.000    0.000 
#
# Total GULP energy -356892.412817 kJ/mol
# GULP energy per Si atom -5576.443950 kJ/mol
# Density = 1.944078 g / cm^3
# Si number density = 19.485129 Si / 1000 Ang^3
#
#
#
# Elastic Constant Matrix: (Units=GPa)
#
#
# Indices 1 2 3 4 5 6 
#
# 1 79.6963 11.3287 7.2018 0.0000 0.0000 0.0000
# 2 11.3287 44.7062 20.0559 0.0000 0.0000 0.0000
# 3 7.2018 20.0559 76.3286 0.0000 0.0000 0.0000
# 4 0.0000 0.0000 0.0000 34.0746 0.0000 0.0000
# 5 0.0000 0.0000 0.0000 0.0000 32.0983 0.0000
# 6 0.0000 0.0000 0.0000 0.0000 0.0000 17.0851
#
#
#
# Elastic Compliance Matrix: (Units=1/GPa)
#
#
# Indices 1 2 3 4 5 6 
#
# 1 0.013028 -0.003117 -0.000410 0.000000 0.000000 0.000000
# 2 -0.003117 0.026103 -0.006565 0.000000 0.000000 0.000000
# 3 -0.000410 -0.006565 0.014865 0.000000 0.000000 0.000000
# 4 0.000000 0.000000 0.000000 0.029347 0.000000 0.000000
# 5 0.000000 0.000000 0.000000 0.000000 0.031154 0.000000
# 6 0.000000 0.000000 0.000000 0.000000 0.000000 0.058531
#
#
# Mechanical properties :
#
#
# Convention : Reuss Voigt Hill
#
# Bulk Modulus (GPa) = 29.57558 30.87821 30.22689
# Shear Modulus (GPa) = 24.45192 27.46123 25.95658
#
# Velocity S-wave (km/s) = 3.54630 3.75819 3.65378
# Velocity P-wave (km/s) = 5.65507 5.89182 5.77466
#
# Compressibility (1/GPa) = 0.03381168
#
# Stress axis : x y z
#
# Youngs Moduli (GPa) = 76.75885 38.30950 67.27273
#
# Poissons Ratio (x) = 0.11942 0.02759
# Poissons Ratio (y) = 0.23928 0.44162
# Poissons Ratio (z) = 0.03148 0.25149
#
# Static dielectric constant tensor:
#      x y z
#    x 1.750790 0.000000 0.000000 
#    y 0.000000 1.686330 0.000000 
#    z 0.000000 0.000000 1.742730 
# 
# From -- ./inp_files/7005.got.cif
#   From: 2010.05.17/outbox.cif.g08.bks.cpg/sg60_4_cif.got.tgz:7005.got - 2010.06.03 14:59:27.
