data_PCOD9455722
_publ_section_title
;
Structure prediction by ZEFSAII (Michael W. Deem and Ramdas Pophale) SiO2 
 PCOD9455722
Probable space group: P B C N
;
_chemical_formula_sum "Si O2"
_cell_formula_units_Z 60
_cell_length_a 8.345513
_cell_length_b 26.393362
_cell_length_c 11.661159
_cell_angle_alpha 90.000000
_cell_angle_beta 90.000000
_cell_angle_gamma 90.000000
_cell_volume 2568.558547
_symmetry_space_group_name_H-M "P B C N"
_symmetry_group_IT_number 60
_symmetry_cell_setting 'orthorhombic'
loop_
_space_group_symop_operation_xyz
x,y,z
1/2-x,1/2-y,1/2+z
1/2+x,1/2-y,-z
-x,y,1/2-z
-x,-y,-z
1/2+x,1/2+y,1/2-z
1/2-x,1/2+y,z
x,-y,1/2+z
loop_
_atom_site_type_symbol
_atom_site_label
_atom_site_fract_x
_atom_site_fract_y
_atom_site_fract_z
Si Si1 0.409873 0.205493 0.133104
Si Si2 0.000000 0.951346 0.250000
Si Si3 0.162382 0.014537 0.428131
Si Si4 0.431383 0.304150 0.999776
Si Si5 0.167402 0.740214 0.784803
Si Si6 0.227970 0.103267 0.565996
Si Si7 0.065863 0.446697 0.373145
Si Si8 0.247479 0.149780 0.936258
O O1 0.500000 0.190253 0.250000
O O2 0.485331 0.253626 0.067598
O O3 0.247393 0.231033 0.179884
O O4 0.372468 0.164213 0.037222
O O5 0.875317 0.990670 0.194019
O O6 0.899593 0.917695 0.339926
O O7 0.336055 0.987665 0.450966
O O8 0.182187 0.073935 0.448143
O O9 0.000000 0.000000 0.500000
O O10 0.289313 0.336683 0.057130
O O11 0.576045 0.344513 0.002019
O O12 0.369316 0.282854 0.880035
O O13 0.258759 0.693405 0.840406
O O14 0.000000 0.716821 0.750000
O O15 0.405491 0.083006 0.588811
O O16 0.199400 0.401465 0.375343
O O17 0.000000 0.467310 0.250000
#
# Coordination Sequence:
#
# PCOD9455722 Si02
#       8
#     8   4   8   8   8   8   8   8
#     4  11  24  40  65  89 138 182 226 275 336 389
#     4  10  20  42  70  94 124 170 210 260 344 396
#     4  10  22  45  69  96 132 168 210 275 335 404
#     4  11  25  40  64  98 130 177 227 276 333 406
#     4  11  23  42  61  91 133 182 223 276 329 395
#     4  11  25  41  68  98 133 163 222 278 328 406
#     4  12  25  42  72 103 130 171 226 282 335 402
#     4  11  24  40  63  99 133 174 227 281 331 400
#
# _framework density 23.359404999999999
#
# number of rings (size 3 to 8) (size 9 to 14) (size 15 to 20)
#    0.000    1.067    4.000    2.400    6.533    0.000 
#    1.200    1.333    0.000    0.000    0.000    0.000 
#    0.000    0.000    0.000    0.000    0.000    0.000 
#
# Total GULP energy -334559.346126 kJ/mol
# GULP energy per Si atom -5575.989102 kJ/mol
# Density = 2.330624 g / cm^3
# Si number density = 23.359405 Si / 1000 Ang^3
#
#
#
# Elastic Constant Matrix: (Units=GPa)
#
#
# Indices 1 2 3 4 5 6 
#
# 1 86.0406 15.5260 -7.8246 0.0000 0.0000 0.0000
# 2 15.5260 68.4854 33.1190 0.0000 0.0000 0.0000
# 3 -7.8246 33.1190 54.0833 0.0000 0.0000 0.0000
# 4 0.0000 0.0000 0.0000 22.4086 0.0000 0.0000
# 5 0.0000 0.0000 0.0000 0.0000 39.5084 0.0000
# 6 0.0000 0.0000 0.0000 0.0000 0.0000 33.3748
#
#
#
# Elastic Compliance Matrix: (Units=1/GPa)
#
#
# Indices 1 2 3 4 5 6 
#
# 1 0.013098 -0.005521 0.005276 0.000000 0.000000 0.000000
# 2 -0.005521 0.023072 -0.014927 0.000000 0.000000 0.000000
# 3 0.005276 -0.014927 0.028394 0.000000 0.000000 0.000000
# 4 0.000000 0.000000 0.000000 0.044626 0.000000 0.000000
# 5 0.000000 0.000000 0.000000 0.000000 0.025311 0.000000
# 6 0.000000 0.000000 0.000000 0.000000 0.000000 0.029963
#
#
# Mechanical properties :
#
#
# Convention : Reuss Voigt Hill
#
# Bulk Modulus (GPa) = 29.22260 32.25001 30.73630
# Shear Modulus (GPa) = 24.24647 30.24430 27.24538
#
# Velocity S-wave (km/s) = 3.22526 3.60215 3.41890
# Velocity P-wave (km/s) = 5.13876 5.58002 5.36393
#
# Compressibility (1/GPa) = 0.03422009
#
# Stress axis : x y z
#
# Youngs Moduli (GPa) = 76.34495 43.34257 35.21829
#
# Poissons Ratio (x) = 0.23929 -0.18581
# Poissons Ratio (y) = 0.42149 0.52572
# Poissons Ratio (z) = -0.40278 0.64699
#
# Static dielectric constant tensor:
#      x y z
#    x 2.062260 0.000000 0.000000 
#    y 0.000000 1.836830 0.000000 
#    z 0.000000 0.000000 1.914410 
# 
# From -- ./inp_files/10346.got.cif
#   From: 2010.05.17/outbox.cif.g08.bks.cpg/sg60_6_cif.got.tgz:10346.got - 2010.06.03 14:59:27.
