data_PCOD9455442
_publ_section_title
;
Structure prediction by ZEFSAII (Michael W. Deem and Ramdas Pophale) SiO2 
 PCOD9455442
Probable space group: P B C N
;
_chemical_formula_sum "Si O2"
_cell_formula_units_Z 44
_cell_length_a 9.384255
_cell_length_b 28.955111
_cell_length_c 8.231836
_cell_angle_alpha 90.000000
_cell_angle_beta 90.000000
_cell_angle_gamma 90.000000
_cell_volume 2236.772137
_symmetry_space_group_name_H-M "P B C N"
_symmetry_group_IT_number 60
_symmetry_cell_setting 'orthorhombic'
loop_
_space_group_symop_operation_xyz
x,y,z
1/2-x,1/2-y,1/2+z
1/2+x,1/2-y,-z
-x,y,1/2-z
-x,-y,-z
1/2+x,1/2+y,1/2-z
1/2-x,1/2+y,z
x,-y,1/2+z
loop_
_atom_site_type_symbol
_atom_site_label
_atom_site_fract_x
_atom_site_fract_y
_atom_site_fract_z
Si Si1 0.941360 0.276475 0.434272
Si Si2 0.435561 0.674423 0.929950
Si Si3 0.349044 0.851888 0.573813
Si Si4 0.000000 0.499927 0.750000
Si Si5 0.908517 0.570119 0.022810
Si Si6 0.225834 0.152318 0.439563
O O1 0.913957 0.227690 0.518566
O O2 0.797966 0.306839 0.454257
O O3 0.000000 0.271282 0.250000
O O4 0.058765 0.306755 0.529328
O O5 0.500000 0.670879 0.750000
O O6 0.287725 0.647869 0.956849
O O7 0.557982 0.656658 0.051256
O O8 0.455464 0.895403 0.549750
O O9 0.290621 0.846992 0.757381
O O10 0.887298 0.463841 0.675220
O O11 0.062338 0.534137 0.618214
O O12 0.779306 0.603988 0.989202
#
# Coordination Sequence:
#
# PCOD9455442 Si02
#       6
#     8   8   8   4   8   8
#     4  11  22  38  60  86 117 160 204 241 275 335
#     4  12  25  38  57  84 120 164 197 238 288 344
#     4  11  22  39  59  87 123 155 195 241 289 341
#     4  10  20  38  66  94 112 142 192 244 288 358
#     4  10  21  38  66  93 115 144 191 241 295 342
#     4  11  22  39  59  87 123 155 195 241 289 341
#
# _framework density 19.671203999999999
#
# number of rings (size 3 to 8) (size 9 to 14) (size 15 to 20)
#    0.000    1.091    1.818    6.545    7.636    0.000 
#    0.000    0.000    0.000    6.545    0.000    0.000 
#    0.000    0.000    0.000    0.000    0.000    0.000 
#
# Total GULP energy -245775.507986 kJ/mol
# GULP energy per Si atom -5585.807000 kJ/mol
# Density = 1.962643 g / cm^3
# Si number density = 19.671204 Si / 1000 Ang^3
#
#
#
# Elastic Constant Matrix: (Units=GPa)
#
#
# Indices 1 2 3 4 5 6 
#
# 1 84.7909 27.0566 -1.6255 0.0000 0.0000 0.0000
# 2 27.0566 114.1603 20.7624 0.0000 0.0000 0.0000
# 3 -1.6255 20.7624 69.4318 0.0000 0.0000 0.0000
# 4 0.0000 0.0000 0.0000 33.5516 0.0000 0.0000
# 5 0.0000 0.0000 0.0000 0.0000 24.8936 0.0000
# 6 0.0000 0.0000 0.0000 0.0000 0.0000 4.2853
#
#
#
# Elastic Compliance Matrix: (Units=1/GPa)
#
#
# Indices 1 2 3 4 5 6 
#
# 1 0.012866 -0.003283 0.001283 0.000000 0.000000 0.000000
# 2 -0.003283 0.010101 -0.003097 0.000000 0.000000 0.000000
# 3 0.001283 -0.003097 0.015359 0.000000 0.000000 0.000000
# 4 0.000000 0.000000 0.000000 0.029805 0.000000 0.000000
# 5 0.000000 0.000000 0.000000 0.000000 0.040171 0.000000
# 6 0.000000 0.000000 0.000000 0.000000 0.000000 0.233356
#
#
# Mechanical properties :
#
#
# Convention : Reuss Voigt Hill
#
# Bulk Modulus (GPa) = 35.54759 40.08557 37.81658
# Shear Modulus (GPa) = 13.84165 27.35873 20.60019
#
# Velocity S-wave (km/s) = 2.65552 3.73339 3.23960
# Velocity P-wave (km/s) = 5.24523 6.24550 5.76710
#
# Compressibility (1/GPa) = 0.02813130
#
# Stress axis : x y z
#
# Youngs Moduli (GPa) = 77.72570 99.00098 65.10900
#
# Poissons Ratio (x) = 0.32498 -0.08352
# Poissons Ratio (y) = 0.25514 0.20167
# Poissons Ratio (z) = -0.09971 0.30664
#
# Static dielectric constant tensor:
#      x y z
#    x 1.692830 0.000000 0.000000 
#    y 0.000000 1.654410 0.000000 
#    z 0.000000 0.000000 1.800610 
# 
# From -- ./inp_files/4122.got.cif
#   From: 2010.05.17/outbox.cif.g08.bks.cpg/sg60_3_cif.got.tgz:4122.got - 2010.06.03 14:59:27.
