data_PCOD9455299
_publ_section_title
;
Structure prediction by ZEFSAII (Michael W. Deem and Ramdas Pophale) SiO2 
 PCOD9455299
Probable space group: P B C N
;
_chemical_formula_sum "Si O2"
_cell_formula_units_Z 48
_cell_length_a 13.355882
_cell_length_b 10.461217
_cell_length_c 14.268720
_cell_angle_alpha 90.000000
_cell_angle_beta 90.000000
_cell_angle_gamma 90.000000
_cell_volume 1993.608148
_symmetry_space_group_name_H-M "P B C N"
_symmetry_group_IT_number 60
_symmetry_cell_setting 'orthorhombic'
loop_
_space_group_symop_operation_xyz
x,y,z
1/2-x,1/2-y,1/2+z
1/2+x,1/2-y,-z
-x,y,1/2-z
-x,-y,-z
1/2+x,1/2+y,1/2-z
1/2-x,1/2+y,z
x,-y,1/2+z
loop_
_atom_site_type_symbol
_atom_site_label
_atom_site_fract_x
_atom_site_fract_y
_atom_site_fract_z
Si Si1 0.281386 0.591691 0.782468
Si Si2 0.965731 0.307017 0.946075
Si Si3 0.874121 0.501297 0.599470
Si Si4 0.935775 0.835549 0.903794
Si Si5 0.500000 0.538133 0.750000
Si Si6 0.268091 0.836959 0.668545
Si Si7 0.500000 0.131346 0.750000
O O1 0.241081 0.532625 0.880260
O O2 0.400635 0.607671 0.783068
O O3 0.242792 0.730789 0.748582
O O4 0.251630 0.478969 0.708568
O O5 0.879819 0.304345 0.867413
O O6 0.073534 0.366167 0.917866
O O7 0.915102 0.407754 0.018203
O O8 0.995430 0.182183 0.005206
O O9 0.919593 0.544888 0.698963
O O10 0.966741 0.953092 0.838767
O O11 0.815704 0.826398 0.913271
O O12 0.960207 0.716649 0.834656
#
# Coordination Sequence:
#
# PCOD9455299 Si02
#       7
#     8   8   8   8   4   8   4
#     4  11  24  44  69  93 131 177 224 277 328 412
#     4  10  23  37  64 102 133 166 226 285 334 398
#     4  10  20  37  64  99 124 172 222 281 327 388
#     4   9  19  39  62  87 132 177 206 268 344 403
#     4   9  22  42  63  92 128 179 219 260 346 411
#     4  11  24  44  65  99 132 173 223 280 333 401
#     4   9  14  32  63  82 118 165 221 254 320 391
#
# _framework density 24.076948000000002
#
# number of rings (size 3 to 8) (size 9 to 14) (size 15 to 20)
#    0.000    2.000    1.667    1.000    7.000    2.667 
#    3.000    1.667    0.000    0.000    0.000    0.000 
#    0.000    0.000    0.000    0.000    0.000    0.000 
#
# Total GULP energy -267703.325602 kJ/mol
# GULP energy per Si atom -5577.152617 kJ/mol
# Density = 2.402215 g / cm^3
# Si number density = 24.076948 Si / 1000 Ang^3
#
#
#
# Elastic Constant Matrix: (Units=GPa)
#
#
# Indices 1 2 3 4 5 6 
#
# 1 117.3430 3.3677 19.8306 0.0000 0.0000 0.0000
# 2 3.3677 44.9564 23.4756 0.0000 0.0000 0.0000
# 3 19.8306 23.4756 65.4814 0.0000 0.0000 0.0000
# 4 0.0000 0.0000 0.0000 196.8077 0.0000 0.0000
# 5 0.0000 0.0000 0.0000 0.0000 46.7246 0.0000
# 6 0.0000 0.0000 0.0000 0.0000 0.0000 779.6156
#
#
#
# Elastic Compliance Matrix: (Units=1/GPa)
#
#
# Indices 1 2 3 4 5 6 
#
# 1 0.009013 0.000923 -0.003060 0.000000 0.000000 0.000000
# 2 0.000923 0.027462 -0.010125 0.000000 0.000000 0.000000
# 3 -0.003060 -0.010125 0.019828 0.000000 0.000000 0.000000
# 4 0.000000 0.000000 0.000000 0.005081 0.000000 0.000000
# 5 0.000000 0.000000 0.000000 0.000000 0.021402 0.000000
# 6 0.000000 0.000000 0.000000 0.000000 0.000000 0.001283
#
#
# Mechanical properties :
#
#
# Convention : Reuss Voigt Hill
#
# Bulk Modulus (GPa) = 31.46810 35.68095 33.57453
# Shear Modulus (GPa) = 41.95155 216.70338 129.32746
#
# Velocity S-wave (km/s) = 4.17873 9.49736 7.33695
# Velocity P-wave (km/s) = 6.03163 11.62404 9.26010
#
# Compressibility (1/GPa) = 0.03177821
#
# Stress axis : x y z
#
# Youngs Moduli (GPa) = 110.95431 36.41450 50.43352
#
# Poissons Ratio (x) = -0.03361 0.15434
# Poissons Ratio (y) = -0.10240 0.51062
# Poissons Ratio (z) = 0.33955 0.36869
#
# Static dielectric constant tensor:
#      x y z
#    x 1.292500 0.000000 0.000000 
#    y 0.000000 1.901890 0.000000 
#    z 0.000000 0.000000 1.915910 
# 
# From -- ./inp_files/16815.got.cif
#   From: 2010.05.17/outbox.cif.g08.bks.cpg/sg60_9_cif.got.tgz:16815.got - 2010.06.03 14:59:27.
