data_PCOD9455013
_publ_section_title
;
Structure prediction by ZEFSAII (Michael W. Deem and Ramdas Pophale) SiO2 
 PCOD9455013
Probable space group: P B C N
;
_chemical_formula_sum "Si O2"
_cell_formula_units_Z 40
_cell_length_a 7.223741
_cell_length_b 16.178123
_cell_length_c 14.556927
_cell_angle_alpha 90.000000
_cell_angle_beta 90.000000
_cell_angle_gamma 90.000000
_cell_volume 1701.218134
_symmetry_space_group_name_H-M "P B C N"
_symmetry_group_IT_number 60
_symmetry_cell_setting 'orthorhombic'
loop_
_space_group_symop_operation_xyz
x,y,z
1/2-x,1/2-y,1/2+z
1/2+x,1/2-y,-z
-x,y,1/2-z
-x,-y,-z
1/2+x,1/2+y,1/2-z
1/2-x,1/2+y,z
x,-y,1/2+z
loop_
_atom_site_type_symbol
_atom_site_label
_atom_site_fract_x
_atom_site_fract_y
_atom_site_fract_z
Si Si1 0.778378 0.361494 0.260115
Si Si2 0.355324 0.187832 0.543688
Si Si3 0.219651 0.459728 0.728025
Si Si4 0.186419 0.354069 0.570580
Si Si5 0.687999 0.805692 0.658254
O O1 0.754165 0.350513 0.369523
O O2 0.705950 0.452701 0.237333
O O3 0.711631 0.284563 0.200296
O O4 0.000000 0.358343 0.250000
O O5 0.346253 0.286443 0.562367
O O6 0.556614 0.147069 0.520896
O O7 0.250559 0.181700 0.446959
O O8 0.243547 0.438980 0.619622
O O9 0.281168 0.378346 0.783093
O O10 0.000000 0.466706 0.750000
O O11 0.033198 0.319429 0.643790
#
# Coordination Sequence:
#
# PCOD9455013 Si02
#       5
#     8   8   8   8   8
#     4  11  21  35  61  90 112 153 205 244 298 351
#     4  10  20  34  60  87 118 156 195 242 298 349
#     4   9  18  37  57  84 114 155 197 245 286 347
#     4   9  19  36  58  85 116 155 193 242 294 345
#     4   9  20  37  57  82 122 146 197 244 296 344
#
# _framework density 23.512564999999999
#
# number of rings (size 3 to 8) (size 9 to 14) (size 15 to 20)
#    1.200    1.200    2.000    1.200    0.000    0.800 
#    3.600    0.000    4.400    2.400    0.000    0.000 
#    0.000    0.000    0.000    0.000    0.000    0.000 
#
# Total GULP energy -222678.499167 kJ/mol
# GULP energy per Si atom -5566.962479 kJ/mol
# Density = 2.345905 g / cm^3
# Si number density = 23.512565 Si / 1000 Ang^3
#
#
#
# Elastic Constant Matrix: (Units=GPa)
#
#
# Indices 1 2 3 4 5 6 
#
# 1 60.3938 2.3367 -2.6259 0.0000 0.0000 0.0000
# 2 2.3367 147.8482 46.0908 0.0000 0.0000 0.0000
# 3 -2.6259 46.0908 119.2165 0.0000 0.0000 0.0000
# 4 0.0000 0.0000 0.0000 16.3056 0.0000 0.0000
# 5 0.0000 0.0000 0.0000 0.0000 15.8734 0.0000
# 6 0.0000 0.0000 0.0000 0.0000 0.0000 47.4364
#
#
#
# Elastic Compliance Matrix: (Units=1/GPa)
#
#
# Indices 1 2 3 4 5 6 
#
# 1 0.016598 -0.000428 0.000531 0.000000 0.000000 0.000000
# 2 -0.000428 0.007702 -0.002987 0.000000 0.000000 0.000000
# 3 0.000531 -0.002987 0.009555 0.000000 0.000000 0.000000
# 4 0.000000 0.000000 0.000000 0.061329 0.000000 0.000000
# 5 0.000000 0.000000 0.000000 0.000000 0.062998 0.000000
# 6 0.000000 0.000000 0.000000 0.000000 0.000000 0.021081
#
#
# Mechanical properties :
#
#
# Convention : Reuss Voigt Hill
#
# Bulk Modulus (GPa) = 35.60467 46.56240 41.08353
# Shear Modulus (GPa) = 25.72130 34.70022 30.21076
#
# Velocity S-wave (km/s) = 3.31106 3.84580 3.58841
# Velocity P-wave (km/s) = 5.45832 6.29019 5.88896
#
# Compressibility (1/GPa) = 0.02808620
#
# Stress axis : x y z
#
# Youngs Moduli (GPa) = 60.24954 129.84268 104.66158
#
# Poissons Ratio (x) = 0.05555 -0.05558
# Poissons Ratio (y) = 0.02578 0.31262
# Poissons Ratio (z) = -0.03199 0.38784
#
# Static dielectric constant tensor:
#      x y z
#    x 1.967690 0.000000 0.000000 
#    y 0.000000 1.912190 0.000000 
#    z 0.000000 0.000000 1.986680 
# 
# From -- ./inp_files/15938.got.cif
#   From: 2010.05.17/outbox.cif.g08.bks.cpg/sg60_8_cif.got.tgz:15938.got - 2010.06.03 14:59:27.
