data_PCOD9455755
_publ_section_title
;
Structure prediction by ZEFSAII (Michael W. Deem and Ramdas Pophale) SiO2 
 PCOD9455755
Probable space group: P B C N
;
_chemical_formula_sum "Si O2"
_cell_formula_units_Z 48
_cell_length_a 17.518014
_cell_length_b 7.904141
_cell_length_c 14.134158
_cell_angle_alpha 90.000000
_cell_angle_beta 90.000000
_cell_angle_gamma 90.000000
_cell_volume 1957.084105
_symmetry_space_group_name_H-M "P B C N"
_symmetry_group_IT_number 60
_symmetry_cell_setting 'orthorhombic'
loop_
_space_group_symop_operation_xyz
x,y,z
1/2-x,1/2-y,1/2+z
1/2+x,1/2-y,-z
-x,y,1/2-z
-x,-y,-z
1/2+x,1/2+y,1/2-z
1/2-x,1/2+y,z
x,-y,1/2+z
loop_
_atom_site_type_symbol
_atom_site_label
_atom_site_fract_x
_atom_site_fract_y
_atom_site_fract_z
Si Si1 0.664770 0.092402 0.650731
Si Si2 0.909350 0.910802 0.756811
Si Si3 0.159493 0.094146 0.902401
Si Si4 0.920189 0.410163 0.805595
Si Si5 0.916636 0.741756 0.940949
Si Si6 0.411669 0.725783 0.508430
O O1 0.638832 0.261618 0.707070
O O2 0.752957 0.089633 0.625776
O O3 0.617338 0.114634 0.554064
O O4 0.641954 0.946962 0.724645
O O5 0.891829 0.886400 0.866292
O O6 0.000000 0.878630 0.750000
O O7 0.889766 0.073271 0.693540
O O8 0.140235 0.251114 0.970294
O O9 0.134158 0.932277 0.965769
O O10 0.924258 0.575145 0.875855
O O11 0.903756 0.263519 0.880883
O O12 0.000000 0.395121 0.750000
O O13 0.999011 0.789177 0.983741
#
# Coordination Sequence:
#
# PCOD9455755 Si02
#       6
#     8   8   8   8   8   8
#     4  10  22  44  69 102 146 190 238 300 371 428
#     4  10  20  44  75 100 143 198 241 296 373 446
#     4  11  25  42  73 111 148 183 245 322 371 422
#     4  11  23  45  77 105 141 200 248 294 359 453
#     4  11  21  45  77 104 139 195 252 294 362 447
#     4  11  23  45  74 105 139 196 248 294 371 442
#
# _framework density 24.526281000000001
#
# number of rings (size 3 to 8) (size 9 to 14) (size 15 to 20)
#    0.000    1.333    5.000    2.000    0.000    4.000 
#    3.000    6.667    0.000    0.000    0.000    0.000 
#    0.000    0.000    0.000    0.000    0.000    0.000 
#
# Total GULP energy -268631.009290 kJ/mol
# GULP energy per Si atom -5596.479360 kJ/mol
# Density = 2.447046 g / cm^3
# Si number density = 24.526281 Si / 1000 Ang^3
#
#
#
# Elastic Constant Matrix: (Units=GPa)
#
#
# Indices 1 2 3 4 5 6 
#
# 1 175.3414 20.1582 83.6978 0.0000 0.0000 0.0000
# 2 20.1582 113.1753 42.1142 0.0000 0.0000 0.0000
# 3 83.6978 42.1142 214.2040 0.0000 0.0000 0.0000
# 4 0.0000 0.0000 0.0000 237.7977 0.0000 0.0000
# 5 0.0000 0.0000 0.0000 0.0000 45.8325 0.0000
# 6 0.0000 0.0000 0.0000 0.0000 0.0000 16.3390
#
#
#
# Elastic Compliance Matrix: (Units=1/GPa)
#
#
# Indices 1 2 3 4 5 6 
#
# 1 0.007017 -0.000248 -0.002693 0.000000 0.000000 0.000000
# 2 -0.000248 0.009542 -0.001779 0.000000 0.000000 0.000000
# 3 -0.002693 -0.001779 0.006071 0.000000 0.000000 0.000000
# 4 0.000000 0.000000 0.000000 0.004205 0.000000 0.000000
# 5 0.000000 0.000000 0.000000 0.000000 0.021819 0.000000
# 6 0.000000 0.000000 0.000000 0.000000 0.000000 0.061203
#
#
# Mechanical properties :
#
#
# Convention : Reuss Voigt Hill
#
# Bulk Modulus (GPa) = 75.81746 88.29566 82.05656
# Shear Modulus (GPa) = 40.42235 83.77721 62.09978
#
# Velocity S-wave (km/s) = 4.06411 5.85084 5.03733
# Velocity P-wave (km/s) = 7.28028 9.04000 8.20744
#
# Compressibility (1/GPa) = 0.01318957
#
# Stress axis : x y z
#
# Youngs Moduli (GPa) = 142.50672 104.79916 164.72836
#
# Poissons Ratio (x) = 0.02596 0.44365
# Poissons Ratio (y) = 0.03530 0.29310
# Poissons Ratio (z) = 0.38380 0.18647
#
# Static dielectric constant tensor:
#      x y z
#    x 1.835120 0.000000 0.000000 
#    y 0.000000 2.197020 0.000000 
#    z 0.000000 0.000000 2.000810 
# 
# From -- ./inp_files/17358.got.cif
#   From: 2010.05.17/outbox.cif.g08.bks.cpg/sg60_9_cif.got.tgz:17358.got - 2010.06.03 14:59:27.
