data_PCOD9455065
_publ_section_title
;
Structure prediction by ZEFSAII (Michael W. Deem and Ramdas Pophale) SiO2 
 PCOD9455065
Probable space group: P B C N
;
_chemical_formula_sum "Si O2"
_cell_formula_units_Z 56
_cell_length_a 10.746258
_cell_length_b 14.045645
_cell_length_c 18.114347
_cell_angle_alpha 90.000000
_cell_angle_beta 90.000000
_cell_angle_gamma 90.000000
_cell_volume 2734.145571
_symmetry_space_group_name_H-M "P B C N"
_symmetry_group_IT_number 60
_symmetry_cell_setting 'orthorhombic'
loop_
_space_group_symop_operation_xyz
x,y,z
1/2-x,1/2-y,1/2+z
1/2+x,1/2-y,-z
-x,y,1/2-z
-x,-y,-z
1/2+x,1/2+y,1/2-z
1/2-x,1/2+y,z
x,-y,1/2+z
loop_
_atom_site_type_symbol
_atom_site_label
_atom_site_fract_x
_atom_site_fract_y
_atom_site_fract_z
Si Si1 0.450183 0.743111 0.116033
Si Si2 0.567876 0.165831 0.323235
Si Si3 0.689625 0.440356 0.889874
Si Si4 0.820590 0.471990 0.032940
Si Si5 0.449839 0.153601 0.473607
Si Si6 0.612252 0.105795 0.692211
Si Si7 0.713893 0.357752 0.321260
O O1 0.416209 0.634909 0.132851
O O2 0.564070 0.792820 0.158751
O O3 0.332581 0.809749 0.137729
O O4 0.459275 0.758438 0.028360
O O5 0.500000 0.131353 0.250000
O O6 0.682503 0.098753 0.350539
O O7 0.469430 0.174305 0.388895
O O8 0.619161 0.271867 0.312574
O O9 0.669682 0.547697 0.862862
O O10 0.709728 0.437822 0.979056
O O11 0.832512 0.584526 0.017730
O O12 0.847540 0.454845 0.120017
O O13 0.935568 0.413395 0.998217
O O14 0.500000 0.077141 0.750000
O O15 0.733007 0.113869 0.741977
#
# Coordination Sequence:
#
# PCOD9455065 Si02
#       7
#     8   8   8   8   8   8   8
#     4   9  18  35  55  84 110 147 182 234 279 331
#     4  10  23  35  54  83 113 145 183 234 283 330
#     4  10  20  35  59  82 113 147 189 229 280 331
#     4   9  17  30  54  83 100 140 189 233 267 319
#     4   9  17  31  53  77 107 135 188 230 274 324
#     4   9  19  31  57  81 113 144 187 229 277 336
#     4  10  20  37  53  81 116 146 184 232 277 331
#
# _framework density 20.481718000000001
#
# number of rings (size 3 to 8) (size 9 to 14) (size 15 to 20)
#    0.000    2.571    1.429    0.000    8.000    1.143 
#    0.000    4.286    0.000    1.714    0.000    0.000 
#    0.000    0.000    0.000    0.000    0.000    0.000 
#
# Total GULP energy -311768.708283 kJ/mol
# GULP energy per Si atom -5567.298362 kJ/mol
# Density = 2.043510 g / cm^3
# Si number density = 20.481718 Si / 1000 Ang^3
#
#
#
# Elastic Constant Matrix: (Units=GPa)
#
#
# Indices 1 2 3 4 5 6 
#
# 1 9.3850 8.2536 6.8353 0.0000 0.0000 0.0000
# 2 8.2536 68.7784 4.5163 0.0000 0.0000 0.0000
# 3 6.8353 4.5163 138.0315 0.0000 0.0000 0.0000
# 4 0.0000 0.0000 0.0000 6.4241 0.0000 0.0000
# 5 0.0000 0.0000 0.0000 0.0000 11.2202 0.0000
# 6 0.0000 0.0000 0.0000 0.0000 0.0000 9.7176
#
#
#
# Elastic Compliance Matrix: (Units=1/GPa)
#
#
# Indices 1 2 3 4 5 6 
#
# 1 0.123350 -0.014432 -0.005636 0.000000 0.000000 0.000000
# 2 -0.014432 0.016259 0.000183 0.000000 0.000000 0.000000
# 3 -0.005636 0.000183 0.007518 0.000000 0.000000 0.000000
# 4 0.000000 0.000000 0.000000 0.155663 0.000000 0.000000
# 5 0.000000 0.000000 0.000000 0.000000 0.089125 0.000000
# 6 0.000000 0.000000 0.000000 0.000000 0.000000 0.102906
#
#
# Mechanical properties :
#
#
# Convention : Reuss Voigt Hill
#
# Bulk Modulus (GPa) = 9.31480 28.37836 18.84658
# Shear Modulus (GPa) = 8.76612 18.57838 13.67225
#
# Velocity S-wave (km/s) = 2.07105 3.01503 2.58647
# Velocity P-wave (km/s) = 3.20574 5.09962 4.25927
#
# Compressibility (1/GPa) = 0.10735608
#
# Stress axis : x y z
#
# Youngs Moduli (GPa) = 8.10701 61.50313 133.01690
#
# Poissons Ratio (x) = 0.88762 0.74969
# Poissons Ratio (y) = 0.11700 -0.02430
# Poissons Ratio (z) = 0.04569 -0.01124
#
# Static dielectric constant tensor:
#      x y z
#    x 1.905780 0.000000 0.000000 
#    y 0.000000 1.759410 0.000000 
#    z 0.000000 0.000000 1.785110 
# 
# From -- ./inp_files/16976.got.cif
#   From: 2010.05.17/outbox.cif.g08.bks.cpg/sg60_9_cif.got.tgz:16976.got - 2010.06.03 14:59:27.
