data_PCOD9455609
_publ_section_title
;
Structure prediction by ZEFSAII (Michael W. Deem and Ramdas Pophale) SiO2 
 PCOD9455609
Probable space group: P B C N
;
_chemical_formula_sum "Si O2"
_cell_formula_units_Z 60
_cell_length_a 10.904698
_cell_length_b 9.047620
_cell_length_c 28.043154
_cell_angle_alpha 90.000000
_cell_angle_beta 90.000000
_cell_angle_gamma 90.000000
_cell_volume 2766.781425
_symmetry_space_group_name_H-M "P B C N"
_symmetry_group_IT_number 60
_symmetry_cell_setting 'orthorhombic'
loop_
_space_group_symop_operation_xyz
x,y,z
1/2-x,1/2-y,1/2+z
1/2+x,1/2-y,-z
-x,y,1/2-z
-x,-y,-z
1/2+x,1/2+y,1/2-z
1/2-x,1/2+y,z
x,-y,1/2+z
loop_
_atom_site_type_symbol
_atom_site_label
_atom_site_fract_x
_atom_site_fract_y
_atom_site_fract_z
Si Si1 0.139962 0.347594 0.256855
Si Si2 0.162884 0.975905 0.801448
Si Si3 0.195820 0.251369 0.674073
Si Si4 0.000000 0.777280 0.250000
Si Si5 0.727923 0.288434 0.042773
Si Si6 0.863471 0.533720 0.982757
Si Si7 0.410424 0.453711 0.909719
Si Si8 0.814942 0.990411 0.894325
O O1 0.200859 0.459589 0.294512
O O2 0.213536 0.345607 0.207268
O O3 0.000000 0.383783 0.250000
O O4 0.150175 0.176927 0.273369
O O5 0.117941 0.942390 0.853960
O O6 0.083979 0.110230 0.780204
O O7 0.270383 0.377217 0.646483
O O8 0.088448 0.300447 0.711031
O O9 0.149805 0.142117 0.632663
O O10 0.635017 0.380635 0.076110
O O11 0.826581 0.175967 0.066650
O O12 0.793207 0.418721 0.015528
O O13 0.660832 0.196060 0.002217
O O14 0.799174 0.515640 0.930839
O O15 0.000000 0.500000 0.000000
O O16 0.556738 0.438042 0.918300
#
# Coordination Sequence:
#
# PCOD9455609 Si02
#       8
#     8   8   8   4   8   8   8   8
#     4  11  23  42  64  96 144 183 230 284 358 418
#     4  11  21  42  66  95 136 187 228 290 343 416
#     4  11  24  44  68 107 131 194 234 295 346 422
#     4  10  20  40  68  94 144 174 228 288 346 406
#     4  10  26  46  70 107 137 188 225 303 377 418
#     4  11  27  46  72 106 145 180 239 302 367 441
#     4  11  24  46  74 102 142 184 244 294 364 439
#     4  12  26  45  76 103 142 190 247 293 363 438
#
# _framework density 21.685846999999999
#
# number of rings (size 3 to 8) (size 9 to 14) (size 15 to 20)
#    0.000    1.067    2.000    4.000    7.467    1.067 
#   13.200    0.000    0.000    0.000    0.000    0.000 
#    0.000    0.000    0.000    0.000    0.000    0.000 
#
# Total GULP energy -334893.956943 kJ/mol
# GULP energy per Si atom -5581.565949 kJ/mol
# Density = 2.163649 g / cm^3
# Si number density = 21.685847 Si / 1000 Ang^3
#
#
#
# Elastic Constant Matrix: (Units=GPa)
#
#
# Indices 1 2 3 4 5 6 
#
# 1 137.4680 25.0437 32.0944 0.0000 0.0000 0.0000
# 2 25.0437 82.9361 12.4590 0.0000 0.0000 0.0000
# 3 32.0944 12.4590 83.9422 0.0000 0.0000 0.0000
# 4 0.0000 0.0000 0.0000 40.5215 0.0000 0.0000
# 5 0.0000 0.0000 0.0000 0.0000 26.7853 0.0000
# 6 0.0000 0.0000 0.0000 0.0000 0.0000 39.3455
#
#
#
# Elastic Compliance Matrix: (Units=1/GPa)
#
#
# Indices 1 2 3 4 5 6 
#
# 1 0.008325 -0.002082 -0.002874 0.000000 0.000000 0.000000
# 2 -0.002082 0.012853 -0.001112 0.000000 0.000000 0.000000
# 3 -0.002874 -0.001112 0.013177 0.000000 0.000000 0.000000
# 4 0.000000 0.000000 0.000000 0.024678 0.000000 0.000000
# 5 0.000000 0.000000 0.000000 0.000000 0.037334 0.000000
# 6 0.000000 0.000000 0.000000 0.000000 0.000000 0.025416
#
#
# Mechanical properties :
#
#
# Convention : Reuss Voigt Hill
#
# Bulk Modulus (GPa) = 45.00546 49.28226 47.14386
# Shear Modulus (GPa) = 35.37965 36.98040 36.18003
#
# Velocity S-wave (km/s) = 4.04352 4.13398 4.08900
# Velocity P-wave (km/s) = 6.52675 6.74991 6.63927
#
# Compressibility (1/GPa) = 0.02221953
#
# Stress axis : x y z
#
# Youngs Moduli (GPa) = 120.12490 77.80182 75.89134
#
# Poissons Ratio (x) = 0.16199 0.21810
# Poissons Ratio (y) = 0.25010 0.08437
# Poissons Ratio (z) = 0.34522 0.08649
#
# Static dielectric constant tensor:
#      x y z
#    x 1.914580 0.000000 0.000000 
#    y 0.000000 1.804410 0.000000 
#    z 0.000000 0.000000 1.795730 
# 
# From -- ./inp_files/26073.got.cif
#   From: 2010.05.17/outbox.cif.g08.bks.cpg/sg60_14_cif.got.tgz:26073.got - 2010.06.03 14:59:27.
