data_PCOD9455108
_publ_section_title
;
Structure prediction by ZEFSAII (Michael W. Deem and Ramdas Pophale) SiO2 
 PCOD9455108
Probable space group: P B C N
;
_chemical_formula_sum "Si O2"
_cell_formula_units_Z 48
_cell_length_a 13.422131
_cell_length_b 18.451325
_cell_length_c 8.523460
_cell_angle_alpha 90.000000
_cell_angle_beta 90.000000
_cell_angle_gamma 90.000000
_cell_volume 2110.886873
_symmetry_space_group_name_H-M "P B C N"
_symmetry_group_IT_number 60
_symmetry_cell_setting 'orthorhombic'
loop_
_space_group_symop_operation_xyz
x,y,z
1/2-x,1/2-y,1/2+z
1/2+x,1/2-y,-z
-x,y,1/2-z
-x,-y,-z
1/2+x,1/2+y,1/2-z
1/2-x,1/2+y,z
x,-y,1/2+z
loop_
_atom_site_type_symbol
_atom_site_label
_atom_site_fract_x
_atom_site_fract_y
_atom_site_fract_z
Si Si1 0.698966 0.109142 0.858315
Si Si2 0.652226 0.729056 0.352561
Si Si3 0.425251 0.754364 0.454420
Si Si4 0.000000 0.545646 0.750000
Si Si5 0.354532 0.924881 0.824759
Si Si6 0.500000 0.205878 0.250000
Si Si7 0.785915 0.611953 0.514286
O O1 0.711171 0.195657 0.864547
O O2 0.580458 0.091637 0.843968
O O3 0.741094 0.082721 0.688629
O O4 0.722269 0.077708 0.030482
O O5 0.539198 0.744708 0.402422
O O6 0.642962 0.711276 0.167227
O O7 0.701868 0.667478 0.454763
O O8 0.435298 0.742942 0.638309
O O9 0.382377 0.836697 0.449988
O O10 0.068785 0.490789 0.849367
O O11 0.418787 0.849899 0.823498
O O12 0.312726 0.931549 0.645615
#
# Coordination Sequence:
#
# PCOD9455108 Si02
#       7
#     8   8   8   4   8   4   8
#     4  11  22  34  56  78 116 161 199 247 307 359
#     4  10  20  36  53  81 117 159 207 249 304 373
#     4   9  18  32  53  74 110 150 197 245 300 356
#     4  11  24  38  60  92 124 166 212 255 310 397
#     4  10  22  35  54  81 118 157 209 246 297 366
#     4   9  16  30  48  80 104 148 202 239 284 363
#     4  10  23  36  55  83 118 165 206 253 306 368
#
# _framework density 22.739256000000001
#
# number of rings (size 3 to 8) (size 9 to 14) (size 15 to 20)
#    0.000    2.000    1.667    2.500   11.667    0.000 
#    0.000    0.000    0.000    0.000    0.000    0.000 
#    0.000   12.000    0.000    0.000    0.000    0.000 
#
# Total GULP energy -267494.894286 kJ/mol
# GULP energy per Si atom -5572.810298 kJ/mol
# Density = 2.268750 g / cm^3
# Si number density = 22.739256 Si / 1000 Ang^3
#
#
#
# Elastic Constant Matrix: (Units=GPa)
#
#
# Indices 1 2 3 4 5 6 
#
# 1 56.0147 27.6758 29.4591 0.0000 0.0000 0.0000
# 2 27.6758 47.1592 45.0778 0.0000 0.0000 0.0000
# 3 29.4591 45.0778 200.7507 0.0000 0.0000 0.0000
# 4 0.0000 0.0000 0.0000 29.6414 0.0000 0.0000
# 5 0.0000 0.0000 0.0000 0.0000 38.0644 0.0000
# 6 0.0000 0.0000 0.0000 0.0000 0.0000 36.3533
#
#
#
# Elastic Compliance Matrix: (Units=1/GPa)
#
#
# Indices 1 2 3 4 5 6 
#
# 1 0.025179 -0.014318 -0.000480 0.000000 0.000000 0.000000
# 2 -0.014318 0.035142 -0.005790 0.000000 0.000000 0.000000
# 3 -0.000480 -0.005790 0.006352 0.000000 0.000000 0.000000
# 4 0.000000 0.000000 0.000000 0.033737 0.000000 0.000000
# 5 0.000000 0.000000 0.000000 0.000000 0.026271 0.000000
# 6 0.000000 0.000000 0.000000 0.000000 0.000000 0.027508
#
#
# Mechanical properties :
#
#
# Convention : Reuss Voigt Hill
#
# Bulk Modulus (GPa) = 39.21975 56.48333 47.85154
# Shear Modulus (GPa) = 24.52635 34.25927 29.39281
#
# Velocity S-wave (km/s) = 3.28775 3.88572 3.59918
# Velocity P-wave (km/s) = 5.63005 6.71009 6.19366
#
# Compressibility (1/GPa) = 0.02549736
#
# Stress axis : x y z
#
# Youngs Moduli (GPa) = 39.71564 28.45626 157.43535
#
# Poissons Ratio (x) = 0.40743 0.07555
# Poissons Ratio (y) = 0.56864 0.91153
# Poissons Ratio (z) = 0.01906 0.16476
#
# Static dielectric constant tensor:
#      x y z
#    x 1.865220 0.000000 0.000000 
#    y 0.000000 1.867530 0.000000 
#    z 0.000000 0.000000 2.069880 
# 
# From -- ./inp_files/6059.got.cif
#   From: 2010.05.17/outbox.cif.g08.bks.cpg/sg60_4_cif.got.tgz:6059.got - 2010.06.03 14:59:27.
