data_PCOD9455357
_publ_section_title
;
Structure prediction by ZEFSAII (Michael W. Deem and Ramdas Pophale) SiO2 
 PCOD9455357
Probable space group: P B C N
;
_chemical_formula_sum "Si O2"
_cell_formula_units_Z 48
_cell_length_a 9.085664
_cell_length_b 9.409344
_cell_length_c 23.366920
_cell_angle_alpha 90.000000
_cell_angle_beta 90.000000
_cell_angle_gamma 90.000000
_cell_volume 1997.641216
_symmetry_space_group_name_H-M "P B C N"
_symmetry_group_IT_number 60
_symmetry_cell_setting 'orthorhombic'
loop_
_space_group_symop_operation_xyz
x,y,z
1/2-x,1/2-y,1/2+z
1/2+x,1/2-y,-z
-x,y,1/2-z
-x,-y,-z
1/2+x,1/2+y,1/2-z
1/2-x,1/2+y,z
x,-y,1/2+z
loop_
_atom_site_type_symbol
_atom_site_label
_atom_site_fract_x
_atom_site_fract_y
_atom_site_fract_z
Si Si1 0.101351 0.889792 0.308118
Si Si2 0.841974 0.920089 0.827434
Si Si3 0.646872 0.408465 0.507285
Si Si4 0.655205 0.907293 0.719679
Si Si5 0.674745 0.859896 0.390066
Si Si6 0.902613 0.584717 0.546777
O O1 0.262642 0.955489 0.303879
O O2 0.000000 0.877967 0.250000
O O3 0.003538 0.013382 0.336884
O O4 0.121694 0.724215 0.323499
O O5 0.780879 0.858613 0.767198
O O6 0.815233 0.804842 0.875959
O O7 0.739784 0.055158 0.837522
O O8 0.500000 0.500000 0.500000
O O9 0.729870 0.395003 0.446174
O O10 0.752372 0.498108 0.549284
O O11 0.621012 0.247545 0.527615
O O12 0.500000 0.938503 0.750000
O O13 0.508047 0.907579 0.399038
O O14 0.000000 0.500000 0.500000
#
# Coordination Sequence:
#
# PCOD9455357 Si02
#       6
#     8   8   8   8   8   8
#     4   9  20  37  58  85 116 157 199 237 300 376
#     4  11  22  39  62  90 123 157 203 265 315 359
#     4  11  21  39  64  88 123 167 209 252 308 391
#     4  10  20  38  61  84 115 159 201 242 300 375
#     4  11  22  39  61  90 122 157 205 264 316 362
#     4  10  21  38  60  87 117 163 208 244 310 387
#
# _framework density 24.02834
#
# number of rings (size 3 to 8) (size 9 to 14) (size 15 to 20)
#    0.000    1.667    0.000    8.000    0.000    3.333 
#    0.000    8.333    0.000    0.000    0.000    0.000 
#    0.000    0.000    0.000    0.000    0.000    0.000 
#
# Total GULP energy -268049.329367 kJ/mol
# GULP energy per Si atom -5584.361028 kJ/mol
# Density = 2.397365 g / cm^3
# Si number density = 24.028340 Si / 1000 Ang^3
#
#
#
# Elastic Constant Matrix: (Units=GPa)
#
#
# Indices 1 2 3 4 5 6 
#
# 1 157.8085 59.8018 10.2537 0.0000 0.0000 0.0000
# 2 59.8018 147.3707 -1.5396 0.0000 0.0000 0.0000
# 3 10.2537 -1.5396 25.3340 0.0000 0.0000 0.0000
# 4 0.0000 0.0000 0.0000 -1.9743 0.0000 0.0000
# 5 0.0000 0.0000 0.0000 0.0000 31.3130 0.0000
# 6 0.0000 0.0000 0.0000 0.0000 0.0000 45.0864
#
#
#
# Elastic Compliance Matrix: (Units=1/GPa)
#
#
# Indices 1 2 3 4 5 6 
#
# 1 0.007760 -0.003184 -0.003334 0.000000 0.000000 0.000000
# 2 -0.003184 0.008096 0.001781 0.000000 0.000000 0.000000
# 3 -0.003334 0.001781 0.040930 0.000000 0.000000 0.000000
# 4 0.000000 0.000000 0.000000 -0.506521 0.000000 0.000000
# 5 0.000000 0.000000 0.000000 0.000000 0.031936 0.000000
# 6 0.000000 0.000000 0.000000 0.000000 0.000000 0.022180
#
#
# Mechanical properties :
#
#
# Convention : Reuss Voigt Hill
#
# Bulk Modulus (GPa) = 21.13643 51.94944 36.54294
# Shear Modulus (GPa) = -13.49988 32.35154 9.42583
#
# Velocity S-wave (km/s) = -2.37287 3.67330 1.98275
# Velocity P-wave (km/s) = 1.14377 6.29745 4.52582
#
# Compressibility (1/GPa) = 0.04731168
#
# Stress axis : x y z
#
# Youngs Moduli (GPa) = 128.86725 123.51555 24.43175
#
# Poissons Ratio (x) = 0.39324 0.08146
# Poissons Ratio (y) = 0.41028 -0.04350
# Poissons Ratio (z) = 0.42968 -0.21994
#
# Static dielectric constant tensor:
#      x y z
#    x 1.983380 0.000000 0.000000 
#    y 0.000000 1.935650 0.000000 
#    z 0.000000 0.000000 2.040430 
# 
# From -- ./inp_files/25914.got.cif
#   From: 2010.05.17/outbox.cif.g08.bks.cpg/sg60_13_cif.got.tgz:25914.got - 2010.06.03 14:59:27.
