data_PCOD9455654
_publ_section_title
;
Structure prediction by ZEFSAII (Michael W. Deem and Ramdas Pophale) SiO2 
 PCOD9455654
Probable space group: P B C N
;
_chemical_formula_sum "Si O2"
_cell_formula_units_Z 56
_cell_length_a 12.091929
_cell_length_b 14.181104
_cell_length_c 15.032952
_cell_angle_alpha 90.000000
_cell_angle_beta 90.000000
_cell_angle_gamma 90.000000
_cell_volume 2577.804048
_symmetry_space_group_name_H-M "P B C N"
_symmetry_group_IT_number 60
_symmetry_cell_setting 'orthorhombic'
loop_
_space_group_symop_operation_xyz
x,y,z
1/2-x,1/2-y,1/2+z
1/2+x,1/2-y,-z
-x,y,1/2-z
-x,-y,-z
1/2+x,1/2+y,1/2-z
1/2-x,1/2+y,z
x,-y,1/2+z
loop_
_atom_site_type_symbol
_atom_site_label
_atom_site_fract_x
_atom_site_fract_y
_atom_site_fract_z
Si Si1 0.272169 0.765551 0.353362
Si Si2 0.493924 0.326191 0.653638
Si Si3 0.439417 0.613267 0.656686
Si Si4 0.734276 0.007685 0.397074
Si Si5 0.133405 0.889762 0.479673
Si Si6 0.607992 0.127761 0.792214
Si Si7 0.618218 0.179632 0.294296
O O1 0.383829 0.708088 0.375324
O O2 0.201985 0.804180 0.435823
O O3 0.307954 0.854163 0.289665
O O4 0.195889 0.704005 0.289188
O O5 0.500000 0.378136 0.750000
O O6 0.425972 0.369754 0.573523
O O7 0.426123 0.232019 0.678305
O O8 0.500000 0.611369 0.750000
O O9 0.339095 0.540792 0.651242
O O10 0.533311 0.587366 0.585671
O O11 0.398415 0.722701 0.649533
O O12 0.776582 0.030889 0.495560
O O13 0.680741 0.100465 0.352058
O O14 0.644890 0.927589 0.378683
O O15 0.500000 0.080803 0.750000
O O16 0.500000 0.153682 0.250000
#
# Coordination Sequence:
#
# PCOD9455654 Si02
#       7
#     8   8   8   8   8   8   8
#     4  10  20  41  66  91 130 181 216 278 343 385
#     4   9  22  41  65  95 135 176 224 275 341 405
#     4  11  24  47  69  95 146 176 226 295 335 402
#     4  12  24  37  70 100 132 179 228 274 343 409
#     4  12  24  39  67 106 131 177 233 274 335 410
#     4   9  19  42  63  90 135 178 220 282 341 399
#     4  11  22  43  72  96 130 181 227 273 347 399
#
# _framework density 21.723915999999999
#
# number of rings (size 3 to 8) (size 9 to 14) (size 15 to 20)
#    0.000    1.714    4.286    2.571    2.000    1.714 
#    0.000    8.571    0.000    0.000    0.000    0.000 
#    0.000    0.000    0.000    0.000    0.000    0.000 
#
# Total GULP energy -312497.859558 kJ/mol
# GULP energy per Si atom -5580.318921 kJ/mol
# Density = 2.167447 g / cm^3
# Si number density = 21.723916 Si / 1000 Ang^3
#
#
#
# Elastic Constant Matrix: (Units=GPa)
#
#
# Indices 1 2 3 4 5 6 
#
# 1 106.7581 24.0856 28.2831 0.0000 0.0000 0.0000
# 2 24.0856 70.5422 14.1646 0.0000 0.0000 0.0000
# 3 28.2831 14.1646 79.4813 0.0000 0.0000 0.0000
# 4 0.0000 0.0000 0.0000 -10.1094 0.0000 0.0000
# 5 0.0000 0.0000 0.0000 0.0000 44.9300 0.0000
# 6 0.0000 0.0000 0.0000 0.0000 0.0000 -450.3953
#
#
#
# Elastic Compliance Matrix: (Units=1/GPa)
#
#
# Indices 1 2 3 4 5 6 
#
# 1 0.010946 -0.003065 -0.003349 0.000000 0.000000 0.000000
# 2 -0.003065 0.015560 -0.001682 0.000000 0.000000 0.000000
# 3 -0.003349 -0.001682 0.014073 0.000000 0.000000 0.000000
# 4 0.000000 0.000000 0.000000 -0.098918 0.000000 0.000000
# 5 0.000000 0.000000 0.000000 0.000000 0.022257 0.000000
# 6 0.000000 0.000000 0.000000 0.000000 0.000000 -0.002220
#
#
# Mechanical properties :
#
#
# Convention : Reuss Voigt Hill
#
# Bulk Modulus (GPa) = 41.00573 43.31648 42.16110
# Shear Modulus (GPa) = -357.61852 -70.43171 -214.02512
#
# Velocity S-wave (km/s) = -12.84434 -5.70015 -9.93652
# Velocity P-wave (km/s) = 14.17930 4.83109 10.59226
#
# Compressibility (1/GPa) = 0.02438684
#
# Stress axis : x y z
#
# Youngs Moduli (GPa) = 91.36100 64.26665 71.05782
#
# Poissons Ratio (x) = 0.19696 0.23796
# Poissons Ratio (y) = 0.28000 0.11955
# Poissons Ratio (z) = 0.30595 0.10812
#
# Static dielectric constant tensor:
#      x y z
#    x 1.861490 0.000000 0.000000 
#    y 0.000000 1.838490 0.000000 
#    z 0.000000 0.000000 1.829230 
# 
# From -- ./inp_files/16187.got.cif
#   From: 2010.05.17/outbox.cif.g08.bks.cpg/sg60_9_cif.got.tgz:16187.got - 2010.06.03 14:59:27.
