data_PCOD9455986
_publ_section_title
;
Structure prediction by ZEFSAII (Michael W. Deem and Ramdas Pophale) SiO2 
 PCOD9455986
Probable space group: P B C N
;
_chemical_formula_sum "Si O2"
_cell_formula_units_Z 48
_cell_length_a 7.793433
_cell_length_b 10.170708
_cell_length_c 29.894085
_cell_angle_alpha 90.000000
_cell_angle_beta 90.000000
_cell_angle_gamma 90.000000
_cell_volume 2369.546617
_symmetry_space_group_name_H-M "P B C N"
_symmetry_group_IT_number 60
_symmetry_cell_setting 'orthorhombic'
loop_
_space_group_symop_operation_xyz
x,y,z
1/2-x,1/2-y,1/2+z
1/2+x,1/2-y,-z
-x,y,1/2-z
-x,-y,-z
1/2+x,1/2+y,1/2-z
1/2-x,1/2+y,z
x,-y,1/2+z
loop_
_atom_site_type_symbol
_atom_site_label
_atom_site_fract_x
_atom_site_fract_y
_atom_site_fract_z
Si Si1 0.061997 0.186126 0.882590
Si Si2 0.085394 0.522770 0.700653
Si Si3 0.218319 0.567541 0.985002
Si Si4 0.618710 0.269620 0.292744
Si Si5 0.147064 0.480891 0.889616
Si Si6 0.107276 0.170937 0.532945
O O1 0.157243 0.322942 0.895933
O O2 0.172637 0.054021 0.882454
O O3 0.011063 0.211120 0.832692
O O4 0.892802 0.175479 0.913388
O O5 0.176004 0.381470 0.705375
O O6 0.222550 0.637132 0.698828
O O7 0.000000 0.539524 0.750000
O O8 0.969412 0.514819 0.654605
O O9 0.110148 0.538169 0.939732
O O10 0.410856 0.622422 0.974545
O O11 0.262305 0.433113 0.011264
O O12 0.134316 0.685026 0.012858
O O13 0.500000 0.294890 0.250000
#
# Coordination Sequence:
#
# PCOD9455986 Si02
#       6
#     8   8   8   8   8   8
#     4  10  22  38  58  85 114 151 195 244 294 350
#     4  10  22  39  61  88 118 154 191 237 294 351
#     4  10  21  38  57  82 115 153 194 242 292 348
#     4  10  22  39  59  88 119 147 191 240 290 354
#     4  10  21  39  60  83 115 154 197 240 294 352
#     4  10  22  37  57  83 115 153 196 242 295 349
#
# _framework density 20.25704
#
# number of rings (size 3 to 8) (size 9 to 14) (size 15 to 20)
#    0.000    2.000    0.000    3.000    0.000    8.667 
#    0.000    0.000    0.000    0.000    0.000    0.000 
#    0.000    0.000    0.000    0.000    0.000    0.000 
#
# Total GULP energy -267288.365562 kJ/mol
# GULP energy per Si atom -5568.507616 kJ/mol
# Density = 2.021093 g / cm^3
# Si number density = 20.257040 Si / 1000 Ang^3
#
#
#
# Elastic Constant Matrix: (Units=GPa)
#
#
# Indices 1 2 3 4 5 6 
#
# 1 41.0711 28.8559 17.6710 0.0000 0.0000 0.0000
# 2 28.8559 76.1086 23.3829 0.0000 0.0000 0.0000
# 3 17.6710 23.3829 125.6372 0.0000 0.0000 0.0000
# 4 0.0000 0.0000 0.0000 30.2681 0.0000 0.0000
# 5 0.0000 0.0000 0.0000 0.0000 -18.8044 0.0000
# 6 0.0000 0.0000 0.0000 0.0000 0.0000 35.8134
#
#
#
# Elastic Compliance Matrix: (Units=1/GPa)
#
#
# Indices 1 2 3 4 5 6 
#
# 1 0.033926 -0.012088 -0.002522 0.000000 0.000000 0.000000
# 2 -0.012088 0.018243 -0.001695 0.000000 0.000000 0.000000
# 3 -0.002522 -0.001695 0.008630 0.000000 0.000000 0.000000
# 4 0.000000 0.000000 0.000000 0.033038 0.000000 0.000000
# 5 0.000000 0.000000 0.000000 0.000000 -0.053179 0.000000
# 6 0.000000 0.000000 0.000000 0.000000 0.000000 0.027922
#
#
# Mechanical properties :
#
#
# Convention : Reuss Voigt Hill
#
# Bulk Modulus (GPa) = 35.47546 42.51517 38.99531
# Shear Modulus (GPa) = 45.21379 20.98256 33.09818
#
# Velocity S-wave (km/s) = 4.72953 3.22190 4.04655
# Velocity P-wave (km/s) = 6.88297 5.90544 6.41286
#
# Compressibility (1/GPa) = 0.02818850
#
# Stress axis : x y z
#
# Youngs Moduli (GPa) = 29.47613 54.81592 115.87983
#
# Poissons Ratio (x) = 0.66260 0.29225
# Poissons Ratio (y) = 0.35630 0.19643
# Poissons Ratio (z) = 0.07434 0.09292
#
# Static dielectric constant tensor:
#      x y z
#    x 1.725150 0.000000 0.000000 
#    y 0.000000 1.775970 0.000000 
#    z 0.000000 0.000000 1.547970 
# 
# From -- ./inp_files/25925.got.cif
#   From: 2010.05.17/outbox.cif.g08.bks.cpg/sg60_13_cif.got.tgz:25925.got - 2010.06.03 14:59:27.
