data_PCOD9455507
_publ_section_title
;
Structure prediction by ZEFSAII (Michael W. Deem and Ramdas Pophale) SiO2 
 PCOD9455507
Probable space group: P B C N
;
_chemical_formula_sum "Si O2"
_cell_formula_units_Z 60
_cell_length_a 18.933073
_cell_length_b 5.528490
_cell_length_c 23.477509
_cell_angle_alpha 90.000000
_cell_angle_beta 90.000000
_cell_angle_gamma 90.000000
_cell_volume 2457.421499
_symmetry_space_group_name_H-M "P B C N"
_symmetry_group_IT_number 60
_symmetry_cell_setting 'orthorhombic'
loop_
_space_group_symop_operation_xyz
x,y,z
1/2-x,1/2-y,1/2+z
1/2+x,1/2-y,-z
-x,y,1/2-z
-x,-y,-z
1/2+x,1/2+y,1/2-z
1/2-x,1/2+y,z
x,-y,1/2+z
loop_
_atom_site_type_symbol
_atom_site_label
_atom_site_fract_x
_atom_site_fract_y
_atom_site_fract_z
Si Si1 0.370630 0.525044 0.732880
Si Si2 0.290060 0.669899 0.832970
Si Si3 0.015864 0.511349 0.933413
Si Si4 0.079419 0.421078 0.659657
Si Si5 0.500000 0.811554 0.250000
Si Si6 0.237187 0.481796 0.151061
Si Si7 0.712553 0.346150 0.029644
Si Si8 0.935711 0.014275 0.544277
O O1 0.354289 0.688649 0.788239
O O2 0.426601 0.331718 0.755496
O O3 0.293760 0.491662 0.702566
O O4 0.412879 0.647515 0.680113
O O5 0.258026 0.403345 0.820577
O O6 0.298060 0.661513 0.901212
O O7 0.940312 0.496921 0.903275
O O8 0.051908 0.255263 0.918314
O O9 0.060745 0.756047 0.923377
O O10 0.000000 0.500000 0.000000
O O11 0.156912 0.526390 0.672550
O O12 0.015317 0.527922 0.695350
O O13 0.244813 0.735842 0.118722
O O14 0.764793 0.571041 0.015300
O O15 0.635830 0.435981 0.009714
O O16 0.000000 0.000000 0.500000
#
# Coordination Sequence:
#
# PCOD9455507 Si02
#       8
#     8   8   8   8   4   8   8   8
#     4  11  24  40  61  95 144 188 230 285 347 421
#     4  10  22  38  62  92 131 180 232 273 336 421
#     4  10  24  44  72  99 132 178 243 302 366 429
#     4  11  25  42  68 101 144 184 240 297 353 435
#     4  12  26  40  60 108 144 188 234 290 352 426
#     4  10  20  39  64  89 131 185 230 277 345 412
#     4  10  21  38  63 100 135 180 235 289 352 435
#     4  10  22  43  71 101 133 181 231 299 371 431
#
# _framework density 24.415838000000001
#
# number of rings (size 3 to 8) (size 9 to 14) (size 15 to 20)
#    0.000    1.600    1.333    2.800    5.600    1.067 
#    0.000    0.000    0.000   38.400    0.000    0.000 
#    0.000    0.000    0.000    0.000    0.000    0.000 
#
# Total GULP energy -334481.104931 kJ/mol
# GULP energy per Si atom -5574.685082 kJ/mol
# Density = 2.436027 g / cm^3
# Si number density = 24.415838 Si / 1000 Ang^3
#
#
#
# Elastic Constant Matrix: (Units=GPa)
#
#
# Indices 1 2 3 4 5 6 
#
# 1 128.8729 43.1791 14.6833 0.0000 0.0000 0.0000
# 2 43.1791 167.0016 7.6806 0.0000 0.0000 0.0000
# 3 14.6833 7.6806 70.7495 0.0000 0.0000 0.0000
# 4 0.0000 0.0000 0.0000 4.6834 0.0000 0.0000
# 5 0.0000 0.0000 0.0000 0.0000 23.0013 0.0000
# 6 0.0000 0.0000 0.0000 0.0000 0.0000 35.5511
#
#
#
# Elastic Compliance Matrix: (Units=1/GPa)
#
#
# Indices 1 2 3 4 5 6 
#
# 1 0.008664 -0.002168 -0.001563 0.000000 0.000000 0.000000
# 2 -0.002168 0.006561 -0.000262 0.000000 0.000000 0.000000
# 3 -0.001563 -0.000262 0.014487 0.000000 0.000000 0.000000
# 4 0.000000 0.000000 0.000000 0.213522 0.000000 0.000000
# 5 0.000000 0.000000 0.000000 0.000000 0.043476 0.000000
# 6 0.000000 0.000000 0.000000 0.000000 0.000000 0.028128
#
#
# Mechanical properties :
#
#
# Convention : Reuss Voigt Hill
#
# Bulk Modulus (GPa) = 46.02900 55.30111 50.66505
# Shear Modulus (GPa) = 15.14847 32.71921 23.93384
#
# Velocity S-wave (km/s) = 2.49356 3.66468 3.13431
# Velocity P-wave (km/s) = 5.21378 6.37224 5.82189
#
# Compressibility (1/GPa) = 0.02172543
#
# Stress axis : x y z
#
# Youngs Moduli (GPa) = 115.41845 152.42395 69.02652
#
# Poissons Ratio (x) = 0.33050 0.10787
# Poissons Ratio (y) = 0.25026 0.01810
# Poissons Ratio (z) = 0.18037 0.03997
#
# Static dielectric constant tensor:
#      x y z
#    x 1.968070 0.000000 0.000000 
#    y 0.000000 2.108540 0.000000 
#    z 0.000000 0.000000 1.864610 
# 
# From -- ./inp_files/25477.got.cif
#   From: 2010.05.17/outbox.cif.g08.bks.cpg/sg60_13_cif.got.tgz:25477.got - 2010.06.03 14:59:27.
