data_PCOD9455623
_publ_section_title
;
Structure prediction by ZEFSAII (Michael W. Deem and Ramdas Pophale) SiO2 
 PCOD9455623
Probable space group: P B C N
;
_chemical_formula_sum "Si O2"
_cell_formula_units_Z 48
_cell_length_a 16.167923
_cell_length_b 9.860343
_cell_length_c 15.170037
_cell_angle_alpha 90.000000
_cell_angle_beta 90.000000
_cell_angle_gamma 90.000000
_cell_volume 2418.426510
_symmetry_space_group_name_H-M "P B C N"
_symmetry_group_IT_number 60
_symmetry_cell_setting 'orthorhombic'
loop_
_space_group_symop_operation_xyz
x,y,z
1/2-x,1/2-y,1/2+z
1/2+x,1/2-y,-z
-x,y,1/2-z
-x,-y,-z
1/2+x,1/2+y,1/2-z
1/2-x,1/2+y,z
x,-y,1/2+z
loop_
_atom_site_type_symbol
_atom_site_label
_atom_site_fract_x
_atom_site_fract_y
_atom_site_fract_z
Si Si1 0.880526 0.458239 0.060151
Si Si2 0.555791 0.325097 0.331356
Si Si3 0.619458 0.375549 0.836453
Si Si4 0.465503 0.773207 0.001422
Si Si5 0.096946 0.401268 0.247545
Si Si6 0.311208 0.898340 0.621474
O O1 0.858778 0.444460 0.162171
O O2 0.960664 0.361116 0.045920
O O3 0.905925 0.612220 0.039231
O O4 0.817627 0.412162 0.984281
O O5 0.500000 0.275686 0.250000
O O6 0.582516 0.478684 0.314491
O O7 0.503793 0.311570 0.421321
O O8 0.635718 0.230514 0.346162
O O9 0.578496 0.318285 0.926098
O O10 0.601934 0.259807 0.764685
O O11 0.717374 0.389623 0.849248
O O12 0.141688 0.473977 0.165695
O O13 0.000000 0.441192 0.250000
#
# Coordination Sequence:
#
# PCOD9455623 Si02
#       6
#     8   8   8   8   8   8
#     4  10  20  40  71  95 116 178 229 258 313 409
#     4  11  24  41  66  99 131 174 219 268 330 400
#     4  12  24  42  64  97 141 165 211 289 340 370
#     4  10  20  41  68  93 124 170 221 263 326 392
#     4  12  21  42  74  93 124 176 230 266 314 411
#     4  11  24  44  64  95 139 172 217 279 331 386
#
# _framework density 19.847614
#
# number of rings (size 3 to 8) (size 9 to 14) (size 15 to 20)
#    0.000    1.000    3.333    5.500    0.000    0.000 
#    9.000    0.000    0.000    0.000    0.000    0.000 
#    0.000    0.000    0.000    0.000    0.000    0.000 
#
# Total GULP energy -268413.719959 kJ/mol
# GULP energy per Si atom -5591.952499 kJ/mol
# Density = 1.980244 g / cm^3
# Si number density = 19.847614 Si / 1000 Ang^3
#
#
#
# Elastic Constant Matrix: (Units=GPa)
#
#
# Indices 1 2 3 4 5 6 
#
# 1 74.8006 -2.7449 2.5709 0.0000 0.0000 0.0000
# 2 -2.7449 84.0255 -8.1979 0.0000 0.0000 0.0000
# 3 2.5709 -8.1979 85.1864 0.0000 0.0000 0.0000
# 4 0.0000 0.0000 0.0000 23.2172 0.0000 0.0000
# 5 0.0000 0.0000 0.0000 0.0000 17.4168 0.0000
# 6 0.0000 0.0000 0.0000 0.0000 0.0000 8.8420
#
#
#
# Elastic Compliance Matrix: (Units=1/GPa)
#
#
# Indices 1 2 3 4 5 6 
#
# 1 0.013396 0.000402 -0.000366 0.000000 0.000000 0.000000
# 2 0.000402 0.012026 0.001145 0.000000 0.000000 0.000000
# 3 -0.000366 0.001145 0.011860 0.000000 0.000000 0.000000
# 4 0.000000 0.000000 0.000000 0.043071 0.000000 0.000000
# 5 0.000000 0.000000 0.000000 0.000000 0.057416 0.000000
# 6 0.000000 0.000000 0.000000 0.000000 0.000000 0.113096
#
#
# Mechanical properties :
#
#
# Convention : Reuss Voigt Hill
#
# Bulk Modulus (GPa) = 25.22357 25.25208 25.23783
# Shear Modulus (GPa) = 19.10452 26.72084 22.91268
#
# Velocity S-wave (km/s) = 3.10588 3.67318 3.40138
# Velocity P-wave (km/s) = 5.05947 5.54439 5.30747
#
# Compressibility (1/GPa) = 0.03964546
#
# Stress axis : x y z
#
# Youngs Moduli (GPa) = 74.64808 83.15307 84.31562
#
# Poissons Ratio (x) = -0.03342 0.03083
# Poissons Ratio (y) = -0.03000 -0.09656
# Poissons Ratio (z) = 0.02729 -0.09523
#
# Static dielectric constant tensor:
#      x y z
#    x 1.684110 0.000000 0.000000 
#    y 0.000000 1.687510 0.000000 
#    z 0.000000 0.000000 1.705170 
# 
# From -- ./inp_files/17355.got.cif
#   From: 2010.05.17/outbox.cif.g08.bks.cpg/sg60_9_cif.got.tgz:17355.got - 2010.06.03 14:59:27.
