data_PCOD9455179
_publ_section_title
;
Structure prediction by ZEFSAII (Michael W. Deem and Ramdas Pophale) SiO2 
 PCOD9455179
Probable space group: P B C N
;
_chemical_formula_sum "Si O2"
_cell_formula_units_Z 48
_cell_length_a 8.721018
_cell_length_b 28.376780
_cell_length_c 9.697412
_cell_angle_alpha 90.000000
_cell_angle_beta 90.000000
_cell_angle_gamma 90.000000
_cell_volume 2399.861305
_symmetry_space_group_name_H-M "P B C N"
_symmetry_group_IT_number 60
_symmetry_cell_setting 'orthorhombic'
loop_
_space_group_symop_operation_xyz
x,y,z
1/2-x,1/2-y,1/2+z
1/2+x,1/2-y,-z
-x,y,1/2-z
-x,-y,-z
1/2+x,1/2+y,1/2-z
1/2-x,1/2+y,z
x,-y,1/2+z
loop_
_atom_site_type_symbol
_atom_site_label
_atom_site_fract_x
_atom_site_fract_y
_atom_site_fract_z
Si Si1 0.320833 0.112372 0.253347
Si Si2 0.683638 0.116131 0.777337
Si Si3 0.841719 0.785367 0.330470
Si Si4 0.828042 0.454517 0.507762
Si Si5 0.842820 0.206552 0.163504
Si Si6 0.196057 0.558678 0.984648
O O1 0.500000 0.126782 0.250000
O O2 0.311667 0.063731 0.337776
O O3 0.225009 0.153976 0.320836
O O4 0.272484 0.096929 0.101795
O O5 0.500000 0.118136 0.750000
O O6 0.739866 0.168897 0.796776
O O7 0.747346 0.084257 0.653383
O O8 0.731775 0.086599 0.910717
O O9 0.767518 0.740965 0.251387
O O10 0.855296 0.780604 0.498924
O O11 0.000000 0.793382 0.250000
O O12 0.751464 0.505262 0.487993
O O13 0.011540 0.451550 0.476837
O O14 0.000000 0.208592 0.250000
#
# Coordination Sequence:
#
# PCOD9455179 Si02
#       6
#     8   8   8   8   8   8
#     4  10  20  36  62  93 129 165 210 259 314 370
#     4  10  20  36  62  93 129 165 210 259 314 370
#     4  12  27  46  69  94 127 164 210 262 321 386
#     4   9  16  34  52  93 128 167 210 261 306 359
#     4  12  27  46  69  94 127 164 210 262 321 386
#     4   9  18  28  60  91 128 165 212 259 306 361
#
# _framework density 20.001156999999999
#
# number of rings (size 3 to 8) (size 9 to 14) (size 15 to 20)
#    0.000    1.667    1.667    3.000    4.667    4.000 
#    0.000    0.000    0.000    6.000    0.000    0.000 
#    0.000    0.000    0.000    0.000    0.000    0.000 
#
# Total GULP energy -267461.319484 kJ/mol
# GULP energy per Si atom -5572.110823 kJ/mol
# Density = 1.995563 g / cm^3
# Si number density = 20.001157 Si / 1000 Ang^3
#
#
#
# Elastic Constant Matrix: (Units=GPa)
#
#
# Indices 1 2 3 4 5 6 
#
# 1 30.2412 12.4831 32.8574 0.0000 0.0000 0.0000
# 2 12.4831 86.4827 21.6333 0.0000 0.0000 0.0000
# 3 32.8574 21.6333 107.3350 0.0000 0.0000 0.0000
# 4 0.0000 0.0000 0.0000 100.1216 0.0000 0.0000
# 5 0.0000 0.0000 0.0000 0.0000 17.3539 0.0000
# 6 0.0000 0.0000 0.0000 0.0000 0.0000 28.7614
#
#
#
# Elastic Compliance Matrix: (Units=1/GPa)
#
#
# Indices 1 2 3 4 5 6 
#
# 1 0.050595 -0.003611 -0.014761 0.000000 0.000000 0.000000
# 2 -0.003611 0.012435 -0.001401 0.000000 0.000000 0.000000
# 3 -0.014761 -0.001401 0.014117 0.000000 0.000000 0.000000
# 4 0.000000 0.000000 0.000000 0.009988 0.000000 0.000000
# 5 0.000000 0.000000 0.000000 0.000000 0.057624 0.000000
# 6 0.000000 0.000000 0.000000 0.000000 0.000000 0.034769
#
#
# Mechanical properties :
#
#
# Convention : Reuss Voigt Hill
#
# Bulk Modulus (GPa) = 26.59350 39.77851 33.18600
# Shear Modulus (GPa) = 21.58831 39.71973 30.65402
#
# Velocity S-wave (km/s) = 3.28892 4.46115 3.91911
# Velocity P-wave (km/s) = 5.26759 6.81667 6.09157
#
# Compressibility (1/GPa) = 0.03760318
#
# Stress axis : x y z
#
# Youngs Moduli (GPa) = 19.76462 80.42073 70.83421
#
# Poissons Ratio (x) = 0.29038 1.04555
# Poissons Ratio (y) = 0.07137 0.09923
# Poissons Ratio (z) = 0.29174 0.11266
#
# Static dielectric constant tensor:
#      x y z
#    x 1.751850 0.000000 0.000000 
#    y 0.000000 1.690720 0.000000 
#    z 0.000000 0.000000 1.737150 
# 
# From -- ./inp_files/4214.got.cif
#   From: 2010.05.17/outbox.cif.g08.bks.cpg/sg60_3_cif.got.tgz:4214.got - 2010.06.03 14:59:27.
