data_PCOD9455255
_publ_section_title
;
Structure prediction by ZEFSAII (Michael W. Deem and Ramdas Pophale) SiO2 
 PCOD9455255
Probable space group: P B C N
;
_chemical_formula_sum "Si O2"
_cell_formula_units_Z 56
_cell_length_a 5.238999
_cell_length_b 14.420695
_cell_length_c 32.934600
_cell_angle_alpha 90.000000
_cell_angle_beta 90.000000
_cell_angle_gamma 90.000000
_cell_volume 2488.209250
_symmetry_space_group_name_H-M "P B C N"
_symmetry_group_IT_number 60
_symmetry_cell_setting 'orthorhombic'
loop_
_space_group_symop_operation_xyz
x,y,z
1/2-x,1/2-y,1/2+z
1/2+x,1/2-y,-z
-x,y,1/2-z
-x,-y,-z
1/2+x,1/2+y,1/2-z
1/2-x,1/2+y,z
x,-y,1/2+z
loop_
_atom_site_type_symbol
_atom_site_label
_atom_site_fract_x
_atom_site_fract_y
_atom_site_fract_z
Si Si1 0.515265 0.276832 0.661743
Si Si2 0.000000 0.383106 0.750000
Si Si3 0.804752 0.877966 0.123259
Si Si4 0.000000 0.241935 0.250000
Si Si5 0.316480 0.949954 0.829893
Si Si6 0.886823 0.773366 0.476397
Si Si7 0.629543 0.859190 0.902592
Si Si8 0.202654 0.435049 0.075513
O O1 0.746937 0.223649 0.639879
O O2 0.466495 0.219231 0.703517
O O3 0.581047 0.380700 0.676156
O O4 0.315729 0.298074 0.625990
O O5 0.242199 0.317035 0.751842
O O6 0.004787 0.441942 0.790996
O O7 0.581502 0.903982 0.090356
O O8 0.085559 0.899703 0.107548
O O9 0.762723 0.947357 0.160508
O O10 0.442789 0.908400 0.870489
O O11 0.640168 0.724676 0.496522
O O12 0.962734 0.711220 0.437196
O O13 0.784935 0.875318 0.463665
O O14 0.732441 0.953185 0.925240
#
# Coordination Sequence:
#
# PCOD9455255 Si02
#       8
#     8   4   8   4   8   8   8   8
#     4  11  21  40  65  92 133 176 216 268 318 379
#     4  10  20  37  60  91 136 168 216 269 314 373
#     4  11  23  37  68  98 127 172 221 259 309 389
#     4  10  22  35  60  95 130 174 220 263 318 373
#     4  10  22  39  65  95 132 173 222 260 329 372
#     4  12  28  45  69  99 131 169 212 277 336 391
#     4  11  23  43  70  92 131 176 215 264 331 389
#     4  11  24  44  67 100 127 164 220 260 320 401
#
# _framework density 22.506143000000002
#
# number of rings (size 3 to 8) (size 9 to 14) (size 15 to 20)
#    0.000    1.143    4.286    1.714    2.000    1.714 
#    0.000    0.000    0.000    6.000    0.000    0.000 
#    0.000    0.000    0.000    0.000    0.000    0.000 
#
# Total GULP energy -312106.875805 kJ/mol
# GULP energy per Si atom -5573.337068 kJ/mol
# Density = 2.245492 g / cm^3
# Si number density = 22.506143 Si / 1000 Ang^3
#
#
#
# Elastic Constant Matrix: (Units=GPa)
#
#
# Indices 1 2 3 4 5 6 
#
# 1 52.5177 -2.0528 1.0996 0.0000 0.0000 0.0000
# 2 -2.0528 89.7342 3.5553 0.0000 0.0000 0.0000
# 3 1.0996 3.5553 79.4074 0.0000 0.0000 0.0000
# 4 0.0000 0.0000 0.0000 4.3786 0.0000 0.0000
# 5 0.0000 0.0000 0.0000 0.0000 32.0076 0.0000
# 6 0.0000 0.0000 0.0000 0.0000 0.0000 16.6362
#
#
#
# Elastic Compliance Matrix: (Units=1/GPa)
#
#
# Indices 1 2 3 4 5 6 
#
# 1 0.019065 0.000447 -0.000284 0.000000 0.000000 0.000000
# 2 0.000447 0.011174 -0.000507 0.000000 0.000000 0.000000
# 3 -0.000284 -0.000507 0.012620 0.000000 0.000000 0.000000
# 4 0.000000 0.000000 0.000000 0.228385 0.000000 0.000000
# 5 0.000000 0.000000 0.000000 0.000000 0.031243 0.000000
# 6 0.000000 0.000000 0.000000 0.000000 0.000000 0.060110
#
#
# Mechanical properties :
#
#
# Convention : Reuss Voigt Hill
#
# Bulk Modulus (GPa) = 23.71211 25.20706 24.45958
# Shear Modulus (GPa) = 13.25065 25.20829 19.22947
#
# Velocity S-wave (km/s) = 2.42906 3.35036 2.92620
# Velocity P-wave (km/s) = 4.29253 5.11771 4.72318
#
# Compressibility (1/GPa) = 0.04217255
#
# Stress axis : x y z
#
# Youngs Moduli (GPa) = 52.45315 89.49082 79.23999
#
# Poissons Ratio (x) = -0.04004 0.02251
# Poissons Ratio (y) = -0.02347 0.04014
# Poissons Ratio (z) = 0.01490 0.04533
#
# Static dielectric constant tensor:
#      x y z
#    x 1.840570 0.000000 0.000000 
#    y 0.000000 1.819380 0.000000 
#    z 0.000000 0.000000 1.986350 
# 
# From -- ./inp_files/25717.got.cif
#   From: 2010.05.17/outbox.cif.g08.bks.cpg/sg60_13_cif.got.tgz:25717.got - 2010.06.03 14:59:27.
