data_PCOD9455336
_publ_section_title
;
Structure prediction by ZEFSAII (Michael W. Deem and Ramdas Pophale) SiO2 
 PCOD9455336
Probable space group: P B C N
;
_chemical_formula_sum "Si O2"
_cell_formula_units_Z 36
_cell_length_a 15.663842
_cell_length_b 9.110298
_cell_length_c 13.472216
_cell_angle_alpha 90.000000
_cell_angle_beta 90.000000
_cell_angle_gamma 90.000000
_cell_volume 1922.515784
_symmetry_space_group_name_H-M "P B C N"
_symmetry_group_IT_number 60
_symmetry_cell_setting 'orthorhombic'
loop_
_space_group_symop_operation_xyz
x,y,z
1/2-x,1/2-y,1/2+z
1/2+x,1/2-y,-z
-x,y,1/2-z
-x,-y,-z
1/2+x,1/2+y,1/2-z
1/2-x,1/2+y,z
x,-y,1/2+z
loop_
_atom_site_type_symbol
_atom_site_label
_atom_site_fract_x
_atom_site_fract_y
_atom_site_fract_z
Si Si1 0.760113 0.444660 0.141360
Si Si2 0.863168 0.286103 0.719362
Si Si3 0.526861 0.679275 0.888370
Si Si4 0.625438 0.315031 0.588386
Si Si5 0.500000 0.407732 0.750000
O O1 0.708739 0.339244 0.215995
O O2 0.821404 0.559937 0.194698
O O3 0.817510 0.331198 0.079145
O O4 0.689642 0.545687 0.086451
O O5 0.911430 0.282215 0.823292
O O6 0.932097 0.238262 0.635209
O O7 0.533738 0.520609 0.834491
O O8 0.557412 0.675345 0.000205
O O9 0.574460 0.319725 0.693551
#
# Coordination Sequence:
#
# PCOD9455336 Si02
#       5
#     8   8   8   8   4
#     4  10  21  38  56  86 118 144 186 247 278 332
#     4   9  20  38  58  81 117 151 187 235 289 328
#     4  10  20  38  62  82 114 158 188 231 283 351
#     4  11  22  39  61  85 115 149 198 227 289 339
#     4  10  20  38  60  82 112 160 184 238 274 350
#
# _framework density 18.725463000000001
#
# number of rings (size 3 to 8) (size 9 to 14) (size 15 to 20)
#    0.000    2.222    4.444    0.667    0.000    4.444 
#    0.000    0.000    0.000    0.000    0.000    0.000 
#    0.000    0.000    0.000    0.000    0.000    0.000 
#
# Total GULP energy -200633.439384 kJ/mol
# GULP energy per Si atom -5573.151094 kJ/mol
# Density = 1.868284 g / cm^3
# Si number density = 18.725463 Si / 1000 Ang^3
#
#
#
# Elastic Constant Matrix: (Units=GPa)
#
#
# Indices 1 2 3 4 5 6 
#
# 1 94.5417 41.4979 49.6180 0.0000 0.0000 0.0000
# 2 41.4979 106.3080 31.3950 0.0000 0.0000 0.0000
# 3 49.6180 31.3950 60.2632 0.0000 0.0000 0.0000
# 4 0.0000 0.0000 0.0000 6.1208 0.0000 0.0000
# 5 0.0000 0.0000 0.0000 0.0000 17.1512 0.0000
# 6 0.0000 0.0000 0.0000 0.0000 0.0000 16.2883
#
#
#
# Elastic Compliance Matrix: (Units=1/GPa)
#
#
# Indices 1 2 3 4 5 6 
#
# 1 0.019621 -0.003413 -0.014377 0.000000 0.000000 0.000000
# 2 -0.003413 0.011711 -0.003290 0.000000 0.000000 0.000000
# 3 -0.014377 -0.003290 0.030145 0.000000 0.000000 0.000000
# 4 0.000000 0.000000 0.000000 0.163378 0.000000 0.000000
# 5 0.000000 0.000000 0.000000 0.000000 0.058305 0.000000
# 6 0.000000 0.000000 0.000000 0.000000 0.000000 0.061394
#
#
# Mechanical properties :
#
#
# Convention : Reuss Voigt Hill
#
# Bulk Modulus (GPa) = 51.77113 56.23718 54.00415
# Shear Modulus (GPa) = 12.71768 17.15219 14.93494
#
# Velocity S-wave (km/s) = 2.60891 3.02980 2.82720
# Velocity P-wave (km/s) = 6.06487 6.50671 6.28967
#
# Compressibility (1/GPa) = 0.01931578
#
# Stress axis : x y z
#
# Youngs Moduli (GPa) = 50.96606 85.39115 33.17271
#
# Poissons Ratio (x) = 0.29147 0.47692
# Poissons Ratio (y) = 0.17397 0.10915
# Poissons Ratio (z) = 0.73273 0.28098
#
# Static dielectric constant tensor:
#      x y z
#    x 1.681420 0.000000 0.000000 
#    y 0.000000 1.656210 0.000000 
#    z 0.000000 0.000000 1.634560 
# 
# From -- ./inp_files/16539.got.cif
#   From: 2010.05.17/outbox.cif.g08.bks.cpg/sg60_9_cif.got.tgz:16539.got - 2010.06.03 14:59:27.
