data_PCOD9455182
_publ_section_title
;
Structure prediction by ZEFSAII (Michael W. Deem and Ramdas Pophale) SiO2 
 PCOD9455182
Probable space group: P B C N
;
_chemical_formula_sum "Si O2"
_cell_formula_units_Z 64
_cell_length_a 13.108280
_cell_length_b 9.258474
_cell_length_c 23.326246
_cell_angle_alpha 90.000000
_cell_angle_beta 90.000000
_cell_angle_gamma 90.000000
_cell_volume 2830.935485
_symmetry_space_group_name_H-M "P B C N"
_symmetry_group_IT_number 60
_symmetry_cell_setting 'orthorhombic'
loop_
_space_group_symop_operation_xyz
x,y,z
1/2-x,1/2-y,1/2+z
1/2+x,1/2-y,-z
-x,y,1/2-z
-x,-y,-z
1/2+x,1/2+y,1/2-z
1/2-x,1/2+y,z
x,-y,1/2+z
loop_
_atom_site_type_symbol
_atom_site_label
_atom_site_fract_x
_atom_site_fract_y
_atom_site_fract_z
Si Si1 0.620644 0.850359 0.813909
Si Si2 0.143922 0.137928 0.789569
Si Si3 0.922677 0.489281 0.415091
Si Si4 0.231111 0.286100 0.899304
Si Si5 0.557983 0.635901 0.155881
Si Si6 0.656669 0.285003 0.850691
Si Si7 0.629078 0.122855 0.736447
Si Si8 0.358627 0.952271 0.461255
O O1 0.616913 0.714544 0.770932
O O2 0.731185 0.851933 0.846089
O O3 0.551006 0.887286 0.868309
O O4 0.598269 0.982232 0.771062
O O5 0.163520 0.247022 0.843081
O O6 0.259384 0.079504 0.784794
O O7 0.072812 0.004455 0.804738
O O8 0.853774 0.363922 0.386086
O O9 0.867617 0.554730 0.470506
O O10 0.028776 0.418964 0.436442
O O11 0.338341 0.362465 0.881216
O O12 0.168203 0.386696 0.941511
O O13 0.272744 0.147080 0.933019
O O14 0.443776 0.626289 0.130866
O O15 0.566627 0.793692 0.187649
O O16 0.641594 0.246937 0.783766
#
# Coordination Sequence:
#
# PCOD9455182 Si02
#       8
#     8   8   8   8   8   8   8   8
#     4  10  22  41  64  95 136 178 226 271 333 416
#     4  10  20  36  62  96 136 165 216 281 336 409
#     4  10  24  45  69  97 133 183 234 280 338 422
#     4  11  22  40  70  99 131 172 220 285 341 406
#     4  11  20  36  63  96 131 176 218 274 349 411
#     4  10  20  37  63  90 132 181 218 266 348 405
#     4   9  19  34  56  86 125 176 221 259 322 415
#     4  11  24  45  73 100 130 175 241 285 340 402
#
# _framework density 22.607368000000001
#
# number of rings (size 3 to 8) (size 9 to 14) (size 15 to 20)
#    0.000    1.750    2.500    2.625    3.500    0.000 
#    0.000    9.375    0.000    4.500    0.000    0.000 
#    0.000    0.000    0.000    0.000    0.000    0.000 
#
# Total GULP energy -357007.090410 kJ/mol
# GULP energy per Si atom -5578.235788 kJ/mol
# Density = 2.255591 g / cm^3
# Si number density = 22.607368 Si / 1000 Ang^3
#
#
#
# Elastic Constant Matrix: (Units=GPa)
#
#
# Indices 1 2 3 4 5 6 
#
# 1 94.0157 34.9201 14.7509 0.0000 0.0000 0.0000
# 2 34.9201 79.2225 41.4188 0.0000 0.0000 0.0000
# 3 14.7509 41.4188 121.4389 0.0000 0.0000 0.0000
# 4 0.0000 0.0000 0.0000 21.8541 0.0000 0.0000
# 5 0.0000 0.0000 0.0000 0.0000 20.6186 0.0000
# 6 0.0000 0.0000 0.0000 0.0000 0.0000 28.5680
#
#
#
# Elastic Compliance Matrix: (Units=1/GPa)
#
#
# Indices 1 2 3 4 5 6 
#
# 1 0.012739 -0.005849 0.000448 0.000000 0.000000 0.000000
# 2 -0.005849 0.018048 -0.005445 0.000000 0.000000 0.000000
# 3 0.000448 -0.005445 0.010037 0.000000 0.000000 0.000000
# 4 0.000000 0.000000 0.000000 0.045758 0.000000 0.000000
# 5 0.000000 0.000000 0.000000 0.000000 0.048500 0.000000
# 6 0.000000 0.000000 0.000000 0.000000 0.000000 0.035004
#
#
# Mechanical properties :
#
#
# Convention : Reuss Voigt Hill
#
# Bulk Modulus (GPa) = 52.27178 52.98409 52.62794
# Shear Modulus (GPa) = 25.23267 27.78061 26.50664
#
# Velocity S-wave (km/s) = 3.34447 3.50927 3.42786
# Velocity P-wave (km/s) = 6.17137 6.31724 6.24473
#
# Compressibility (1/GPa) = 0.01913078
#
# Stress axis : x y z
#
# Youngs Moduli (GPa) = 78.50027 55.40907 99.62815
#
# Poissons Ratio (x) = 0.32409 -0.04459
# Poissons Ratio (y) = 0.45915 0.54247
# Poissons Ratio (z) = -0.03513 0.30170
#
# Static dielectric constant tensor:
#      x y z
#    x 1.919100 0.000000 0.000000 
#    y 0.000000 1.849310 0.000000 
#    z 0.000000 0.000000 1.844170 
# 
# From -- ./inp_files/24468.got.cif
#   From: 2010.05.17/outbox.cif.g08.bks.cpg/sg60_13_cif.got.tgz:24468.got - 2010.06.03 14:59:27.
