data_PCOD9455987
_publ_section_title
;
Structure prediction by ZEFSAII (Michael W. Deem and Ramdas Pophale) SiO2 
 PCOD9455987
Probable space group: P B C N
;
_chemical_formula_sum "Si O2"
_cell_formula_units_Z 44
_cell_length_a 12.905048
_cell_length_b 33.317767
_cell_length_c 4.904440
_cell_angle_alpha 90.000000
_cell_angle_beta 90.000000
_cell_angle_gamma 90.000000
_cell_volume 2108.749229
_symmetry_space_group_name_H-M "P B C N"
_symmetry_group_IT_number 60
_symmetry_cell_setting 'orthorhombic'
loop_
_space_group_symop_operation_xyz
x,y,z
1/2-x,1/2-y,1/2+z
1/2+x,1/2-y,-z
-x,y,1/2-z
-x,-y,-z
1/2+x,1/2+y,1/2-z
1/2-x,1/2+y,z
x,-y,1/2+z
loop_
_atom_site_type_symbol
_atom_site_label
_atom_site_fract_x
_atom_site_fract_y
_atom_site_fract_z
Si Si1 0.603453 0.527542 0.350448
Si Si2 0.000000 0.275453 0.750000
Si Si3 0.803393 0.766835 0.476554
Si Si4 0.161130 0.335792 0.047851
Si Si5 0.104715 0.615407 0.085719
Si Si6 0.161219 0.471927 0.673036
O O1 0.500000 0.550214 0.250000
O O2 0.600403 0.512340 0.659345
O O3 0.718933 0.542933 0.314720
O O4 0.919252 0.248104 0.918990
O O5 0.925160 0.303209 0.558792
O O6 0.770299 0.761627 0.789920
O O7 0.764391 0.810618 0.385945
O O8 0.120008 0.361200 0.304398
O O9 0.185505 0.366096 0.800924
O O10 0.104923 0.567544 0.066502
O O11 0.000000 0.624574 0.250000
O O12 0.141805 0.508846 0.467388
#
# Coordination Sequence:
#
# PCOD9455987 Si02
#       6
#     8   4   8   8   8   8
#     4   8  14  27  51  77 100 129 177 236 285 336
#     4  10  22  42  68  90 122 158 206 246 292 360
#     4  10  22  36  61  92 118 152 194 248 292 346
#     4  11  23  40  60  92 121 155 204 246 294 367
#     4  12  25  37  60  85 120 164 198 251 304 351
#     4  10  21  38  57  83 115 153 203 254 296 351
#
# _framework density 20.865449999999999
#
# number of rings (size 3 to 8) (size 9 to 14) (size 15 to 20)
#    0.000    1.818    0.909    3.818    2.545    2.909 
#    0.000    0.000    4.000    0.000    0.000    0.000 
#    0.000    0.000    0.000    0.000    0.000    0.000 
#
# Total GULP energy -245092.867581 kJ/mol
# GULP energy per Si atom -5570.292445 kJ/mol
# Density = 2.081796 g / cm^3
# Si number density = 20.865450 Si / 1000 Ang^3
#
#
#
# Elastic Constant Matrix: (Units=GPa)
#
#
# Indices 1 2 3 4 5 6 
#
# 1 56.0003 34.1489 8.5756 0.0000 0.0000 0.0000
# 2 34.1489 95.1388 21.6386 0.0000 0.0000 0.0000
# 3 8.5756 21.6386 100.1993 0.0000 0.0000 0.0000
# 4 0.0000 0.0000 0.0000 6.8031 0.0000 0.0000
# 5 0.0000 0.0000 0.0000 0.0000 15.8886 0.0000
# 6 0.0000 0.0000 0.0000 0.0000 0.0000 11.7748
#
#
#
# Elastic Compliance Matrix: (Units=1/GPa)
#
#
# Indices 1 2 3 4 5 6 
#
# 1 0.022864 -0.008163 -0.000194 0.000000 0.000000 0.000000
# 2 -0.008163 0.013968 -0.002318 0.000000 0.000000 0.000000
# 3 -0.000194 -0.002318 0.010497 0.000000 0.000000 0.000000
# 4 0.000000 0.000000 0.000000 0.146992 0.000000 0.000000
# 5 0.000000 0.000000 0.000000 0.000000 0.062938 0.000000
# 6 0.000000 0.000000 0.000000 0.000000 0.000000 0.084927
#
#
# Mechanical properties :
#
#
# Convention : Reuss Voigt Hill
#
# Bulk Modulus (GPa) = 38.49061 42.22941 40.36001
# Shear Modulus (GPa) = 13.43376 19.35832 16.39604
#
# Velocity S-wave (km/s) = 2.54013 3.04923 2.80625
# Velocity P-wave (km/s) = 5.20482 5.71664 5.46672
#
# Compressibility (1/GPa) = 0.02598036
#
# Stress axis : x y z
#
# Youngs Moduli (GPa) = 43.73609 71.59196 95.26284
#
# Poissons Ratio (x) = 0.58439 0.01849
# Poissons Ratio (y) = 0.35701 0.22081
# Poissons Ratio (z) = 0.00849 0.16594
#
# Static dielectric constant tensor:
#      x y z
#    x 1.921080 0.000000 0.000000 
#    y 0.000000 1.748340 0.000000 
#    z 0.000000 0.000000 1.780340 
# 
# From -- ./inp_files/1403.got.cif
#   From: 2010.05.17/outbox.cif.g08.bks.cpg/sg60_1_cif.got.tgz:1403.got - 2010.06.03 14:59:27.
