data_PCOD9455739
_publ_section_title
;
Structure prediction by ZEFSAII (Michael W. Deem and Ramdas Pophale) SiO2 
 PCOD9455739
Probable space group: P B C N
;
_chemical_formula_sum "Si O2"
_cell_formula_units_Z 56
_cell_length_a 30.381999
_cell_length_b 5.489535
_cell_length_c 13.683180
_cell_angle_alpha 90.000000
_cell_angle_beta 90.000000
_cell_angle_gamma 90.000000
_cell_volume 2282.122451
_symmetry_space_group_name_H-M "P B C N"
_symmetry_group_IT_number 60
_symmetry_cell_setting 'orthorhombic'
loop_
_space_group_symop_operation_xyz
x,y,z
1/2-x,1/2-y,1/2+z
1/2+x,1/2-y,-z
-x,y,1/2-z
-x,-y,-z
1/2+x,1/2+y,1/2-z
1/2-x,1/2+y,z
x,-y,1/2+z
loop_
_atom_site_type_symbol
_atom_site_label
_atom_site_fract_x
_atom_site_fract_y
_atom_site_fract_z
Si Si1 0.898482 0.528283 0.943087
Si Si2 0.239583 0.350196 0.218846
Si Si3 0.352752 0.368344 0.416728
Si Si4 0.145826 0.467785 0.741198
Si Si5 0.773372 0.148202 0.001699
Si Si6 0.489985 0.249520 0.560372
Si Si7 0.578151 0.277681 0.632268
O O1 0.879600 0.373691 0.853570
O O2 0.938831 0.707541 0.913086
O O3 0.860219 0.688392 0.992937
O O4 0.914424 0.352135 0.028186
O O5 0.254857 0.594825 0.270655
O O6 0.187767 0.383468 0.203754
O O7 0.267972 0.345059 0.117688
O O8 0.337365 0.225747 0.320474
O O9 0.320958 0.581992 0.454235
O O10 0.401228 0.457447 0.383478
O O11 0.110184 0.639822 0.793849
O O12 0.756611 0.415035 0.029977
O O13 0.500000 0.500000 0.500000
O O14 0.526102 0.263480 0.646885
O O15 0.500000 0.000000 0.500000
#
# Coordination Sequence:
#
# PCOD9455739 Si02
#       7
#     8   8   8   8   8   8   8
#     4  10  22  43  72  98 138 193 235 292 369 444
#     4  10  23  42  64  94 135 182 240 295 354 433
#     4  11  24  42  69 100 144 185 243 307 368 437
#     4  11  26  42  67 107 141 187 245 311 367 437
#     4  10  23  41  67  94 131 186 236 289 359 427
#     4  10  20  43  72 103 137 187 236 284 357 437
#     4  10  24  42  69 102 143 182 239 303 361 438
#
# _framework density 24.538558999999999
#
# number of rings (size 3 to 8) (size 9 to 14) (size 15 to 20)
#    0.000    1.714    1.429    1.714   10.000    2.857 
#    0.000    0.000    0.000    0.000    0.000    0.000 
#    0.000    0.000    0.000    0.000    0.000    0.000 
#
# Total GULP energy -312928.009309 kJ/mol
# GULP energy per Si atom -5588.000166 kJ/mol
# Density = 2.448271 g / cm^3
# Si number density = 24.538559 Si / 1000 Ang^3
#
#
#
# Elastic Constant Matrix: (Units=GPa)
#
#
# Indices 1 2 3 4 5 6 
#
# 1 98.6385 18.9069 50.6498 0.0000 0.0000 0.0000
# 2 18.9069 122.8421 26.2261 0.0000 0.0000 0.0000
# 3 50.6498 26.2261 91.4542 0.0000 0.0000 0.0000
# 4 0.0000 0.0000 0.0000 14.6158 0.0000 0.0000
# 5 0.0000 0.0000 0.0000 0.0000 33.9595 0.0000
# 6 0.0000 0.0000 0.0000 0.0000 0.0000 42.3247
#
#
#
# Elastic Compliance Matrix: (Units=1/GPa)
#
#
# Indices 1 2 3 4 5 6 
#
# 1 0.014200 -0.000540 -0.007710 0.000000 0.000000 0.000000
# 2 -0.000540 0.008692 -0.002194 0.000000 0.000000 0.000000
# 3 -0.007710 -0.002194 0.015833 0.000000 0.000000 0.000000
# 4 0.000000 0.000000 0.000000 0.068419 0.000000 0.000000
# 5 0.000000 0.000000 0.000000 0.000000 0.029447 0.000000
# 6 0.000000 0.000000 0.000000 0.000000 0.000000 0.023627
#
#
# Mechanical properties :
#
#
# Convention : Reuss Voigt Hill
#
# Bulk Modulus (GPa) = 56.05550 56.05560 56.05555
# Shear Modulus (GPa) = 26.73062 32.65678 29.69370
#
# Velocity S-wave (km/s) = 3.30408 3.65202 3.48240
# Velocity P-wave (km/s) = 6.11959 6.37781 6.25003
#
# Compressibility (1/GPa) = 0.01783946
#
# Stress axis : x y z
#
# Youngs Moduli (GPa) = 70.42076 115.04921 63.15755
#
# Poissons Ratio (x) = 0.06208 0.48693
# Poissons Ratio (y) = 0.03800 0.13855
# Poissons Ratio (z) = 0.54293 0.25238
#
# Static dielectric constant tensor:
#      x y z
#    x 2.038940 0.000000 0.000000 
#    y 0.000000 1.973170 0.000000 
#    z 0.000000 0.000000 1.974630 
# 
# From -- ./inp_files/18180.got.cif
#   From: 2010.05.17/outbox.cif.g08.bks.cpg/sg60_10_cif.got.tgz:18180.got - 2010.06.03 14:59:27.
