data_PCOD9455893
_publ_section_title
;
Structure prediction by ZEFSAII (Michael W. Deem and Ramdas Pophale) SiO2 
 PCOD9455893
Probable space group: P B C N
;
_chemical_formula_sum "Si O2"
_cell_formula_units_Z 56
_cell_length_a 29.351177
_cell_length_b 14.709289
_cell_length_c 5.449080
_cell_angle_alpha 90.000000
_cell_angle_beta 90.000000
_cell_angle_gamma 90.000000
_cell_volume 2352.558254
_symmetry_space_group_name_H-M "P B C N"
_symmetry_group_IT_number 60
_symmetry_cell_setting 'orthorhombic'
loop_
_space_group_symop_operation_xyz
x,y,z
1/2-x,1/2-y,1/2+z
1/2+x,1/2-y,-z
-x,y,1/2-z
-x,-y,-z
1/2+x,1/2+y,1/2-z
1/2-x,1/2+y,z
x,-y,1/2+z
loop_
_atom_site_type_symbol
_atom_site_label
_atom_site_fract_x
_atom_site_fract_y
_atom_site_fract_z
Si Si1 0.850110 0.696419 0.129560
Si Si2 0.399319 0.952201 0.627251
Si Si3 0.418349 0.526694 0.098424
Si Si4 0.907718 0.215069 0.271670
Si Si5 0.252431 0.810367 0.970931
Si Si6 0.500000 0.797430 0.250000
Si Si7 0.159280 0.119133 0.606956
Si Si8 0.500000 0.098395 0.250000
O O1 0.877448 0.647536 0.345387
O O2 0.802337 0.649018 0.075286
O O3 0.838331 0.802545 0.184108
O O4 0.884169 0.700811 0.903231
O O5 0.454282 0.950140 0.652807
O O6 0.384454 0.996596 0.374554
O O7 0.440962 0.519928 0.365357
O O8 0.417151 0.632953 0.037278
O O9 0.369360 0.473804 0.152106
O O10 0.955892 0.242319 0.164438
O O11 0.871986 0.168774 0.092876
O O12 0.243159 0.750599 0.722033
O O13 0.211249 0.881980 0.010747
O O14 0.514441 0.848712 0.500537
#
# Coordination Sequence:
#
# PCOD9455893 Si02
#       8
#     8   8   8   8   8   4   8   4
#     4  11  22  42  68  91 133 173 217 274 337 393
#     4  12  27  44  67  97 134 169 219 280 341 402
#     4  10  21  37  61  93 128 168 212 260 314 378
#     4  11  22  41  64  98 133 175 216 274 326 401
#     4  10  21  36  64  98 122 166 224 270 320 393
#     4  12  26  39  72 103 128 176 232 268 325 405
#     4  10  21  40  67  95 130 176 224 266 327 398
#     4  12  24  47  70  97 126 174 228 272 335 403
#
# _framework density 23.803874
#
# number of rings (size 3 to 8) (size 9 to 14) (size 15 to 20)
#    0.000    1.143    4.286    2.143    2.000    0.000 
#    0.000    5.714    0.000    0.000    0.000    0.000 
#    0.000    0.000    0.000    0.000    0.000    0.000 
#
# Total GULP energy -312310.476726 kJ/mol
# GULP energy per Si atom -5576.972799 kJ/mol
# Density = 2.374970 g / cm^3
# Si number density = 23.803874 Si / 1000 Ang^3
#
#
#
# Elastic Constant Matrix: (Units=GPa)
#
#
# Indices 1 2 3 4 5 6 
#
# 1 110.9476 13.2299 -0.3144 0.0000 0.0000 0.0000
# 2 13.2299 59.6676 13.1185 0.0000 0.0000 0.0000
# 3 -0.3144 13.1185 110.3199 0.0000 0.0000 0.0000
# 4 0.0000 0.0000 0.0000 39.0274 0.0000 0.0000
# 5 0.0000 0.0000 0.0000 0.0000 25.9938 0.0000
# 6 0.0000 0.0000 0.0000 0.0000 0.0000 24.1807
#
#
#
# Elastic Compliance Matrix: (Units=1/GPa)
#
#
# Indices 1 2 3 4 5 6 
#
# 1 0.009266 -0.002116 0.000278 0.000000 0.000000 0.000000
# 2 -0.002116 0.017693 -0.002110 0.000000 0.000000 0.000000
# 3 0.000278 -0.002110 0.009316 0.000000 0.000000 0.000000
# 4 0.000000 0.000000 0.000000 0.025623 0.000000 0.000000
# 5 0.000000 0.000000 0.000000 0.000000 0.038471 0.000000
# 6 0.000000 0.000000 0.000000 0.000000 0.000000 0.041355
#
#
# Mechanical properties :
#
#
# Convention : Reuss Voigt Hill
#
# Bulk Modulus (GPa) = 35.23626 37.00033 36.11829
# Shear Modulus (GPa) = 31.43089 34.83381 33.13235
#
# Velocity S-wave (km/s) = 3.63769 3.82955 3.73485
# Velocity P-wave (km/s) = 5.69900 5.92718 5.81421
#
# Compressibility (1/GPa) = 0.02837985
#
# Stress axis : x y z
#
# Youngs Moduli (GPa) = 107.91752 56.52108 107.33953
#
# Poissons Ratio (x) = 0.11958 -0.02984
# Poissons Ratio (y) = 0.22832 0.22648
# Poissons Ratio (z) = -0.03000 0.11925
#
# Static dielectric constant tensor:
#      x y z
#    x 1.932060 0.000000 0.000000 
#    y 0.000000 1.992380 0.000000 
#    z 0.000000 0.000000 1.978950 
# 
# From -- ./inp_files/2704.got.cif
#   From: 2010.05.17/outbox.cif.g08.bks.cpg/sg60_2_cif.got.tgz:2704.got - 2010.06.03 14:59:27.
