data_PCOD9455491
_publ_section_title
;
Structure prediction by ZEFSAII (Michael W. Deem and Ramdas Pophale) SiO2 
 PCOD9455491
Probable space group: P B C N
;
_chemical_formula_sum "Si O2"
_cell_formula_units_Z 56
_cell_length_a 12.852596
_cell_length_b 19.572180
_cell_length_c 10.181001
_cell_angle_alpha 90.000000
_cell_angle_beta 90.000000
_cell_angle_gamma 90.000000
_cell_volume 2561.064627
_symmetry_space_group_name_H-M "P B C N"
_symmetry_group_IT_number 60
_symmetry_cell_setting 'orthorhombic'
loop_
_space_group_symop_operation_xyz
x,y,z
1/2-x,1/2-y,1/2+z
1/2+x,1/2-y,-z
-x,y,1/2-z
-x,-y,-z
1/2+x,1/2+y,1/2-z
1/2-x,1/2+y,z
x,-y,1/2+z
loop_
_atom_site_type_symbol
_atom_site_label
_atom_site_fract_x
_atom_site_fract_y
_atom_site_fract_z
Si Si1 0.907405 0.537515 0.070028
Si Si2 0.711637 0.991086 0.829951
Si Si3 0.844098 0.191436 0.987970
Si Si4 0.213908 0.670288 0.117533
Si Si5 0.122176 0.682940 0.387929
Si Si6 0.121323 0.903030 0.264782
Si Si7 0.925926 0.178681 0.477811
O O1 0.870809 0.508283 0.209664
O O2 0.941975 0.615046 0.089371
O O3 0.817533 0.531840 0.960885
O O4 0.000000 0.500000 0.000000
O O5 0.811052 0.029847 0.767481
O O6 0.712775 0.912114 0.877964
O O7 0.826278 0.274530 0.990119
O O8 0.849195 0.155998 0.842337
O O9 0.953012 0.166178 0.052124
O O10 0.738044 0.167929 0.056527
O O11 0.142096 0.693333 0.236571
O O12 0.337848 0.685025 0.132855
O O13 0.072346 0.748053 0.452508
O O14 0.124864 0.872471 0.412966
O O15 0.000000 0.919488 0.250000
#
# Coordination Sequence:
#
# PCOD9455491 Si02
#       7
#     8   8   8   8   8   8   8
#     4  11  24  41  62  93 128 171 213 260 320 387
#     4  11  23  43  64  93 132 169 212 268 325 393
#     4  10  20  39  62  85 123 160 209 253 317 379
#     4  10  22  38  60  92 122 162 207 264 316 379
#     4  10  21  39  62  88 124 159 209 265 311 376
#     4  10  20  40  65  90 118 166 208 256 323 392
#     4  10  21  38  63  91 118 163 210 258 318 385
#
# _framework density 21.865905000000001
#
# number of rings (size 3 to 8) (size 9 to 14) (size 15 to 20)
#    0.000    1.714    2.857    1.286    2.000    0.571 
#    5.143    2.143    3.143    0.000    0.000    0.000 
#    0.000    0.000    0.000    0.000    0.000    0.000 
#
# Total GULP energy -312030.349693 kJ/mol
# GULP energy per Si atom -5571.970530 kJ/mol
# Density = 2.181614 g / cm^3
# Si number density = 21.865905 Si / 1000 Ang^3
#
#
#
# Elastic Constant Matrix: (Units=GPa)
#
#
# Indices 1 2 3 4 5 6 
#
# 1 69.1654 13.2802 -2.6219 0.0000 0.0000 0.0000
# 2 13.2802 95.1122 6.3214 0.0000 0.0000 0.0000
# 3 -2.6219 6.3214 40.4080 0.0000 0.0000 0.0000
# 4 0.0000 0.0000 0.0000 18.1611 0.0000 0.0000
# 5 0.0000 0.0000 0.0000 0.0000 33.1271 0.0000
# 6 0.0000 0.0000 0.0000 0.0000 0.0000 29.5378
#
#
#
# Elastic Compliance Matrix: (Units=1/GPa)
#
#
# Indices 1 2 3 4 5 6 
#
# 1 0.014924 -0.002171 0.001308 0.000000 0.000000 0.000000
# 2 -0.002171 0.010940 -0.001852 0.000000 0.000000 0.000000
# 3 0.001308 -0.001852 0.025122 0.000000 0.000000 0.000000
# 4 0.000000 0.000000 0.000000 0.055063 0.000000 0.000000
# 5 0.000000 0.000000 0.000000 0.000000 0.030187 0.000000
# 6 0.000000 0.000000 0.000000 0.000000 0.000000 0.033855
#
#
# Mechanical properties :
#
#
# Convention : Reuss Voigt Hill
#
# Bulk Modulus (GPa) = 21.95073 26.51611 24.23342
# Shear Modulus (GPa) = 26.21824 28.67894 27.44859
#
# Velocity S-wave (km/s) = 3.46648 3.62551 3.54689
# Velocity P-wave (km/s) = 5.10711 5.44782 5.28021
#
# Compressibility (1/GPa) = 0.04555657
#
# Stress axis : x y z
#
# Youngs Moduli (GPa) = 67.00397 91.40681 39.80543
#
# Poissons Ratio (x) = 0.19843 -0.05206
# Poissons Ratio (y) = 0.14545 0.07373
# Poissons Ratio (z) = -0.08764 0.16931
#
# Static dielectric constant tensor:
#      x y z
#    x 1.827330 0.000000 0.000000 
#    y 0.000000 1.983020 0.000000 
#    z 0.000000 0.000000 1.860190 
# 
# From -- ./inp_files/11202.got.cif
#   From: 2010.05.17/outbox.cif.g08.bks.cpg/sg60_6_cif.got.tgz:11202.got - 2010.06.03 14:59:27.
