data_PCOD9455747
_publ_section_title
;
Structure prediction by ZEFSAII (Michael W. Deem and Ramdas Pophale) SiO2 
 PCOD9455747
Probable space group: P B C N
;
_chemical_formula_sum "Si O2"
_cell_formula_units_Z 40
_cell_length_a 9.575141
_cell_length_b 11.576114
_cell_length_c 14.562290
_cell_angle_alpha 90.000000
_cell_angle_beta 90.000000
_cell_angle_gamma 90.000000
_cell_volume 1614.126801
_symmetry_space_group_name_H-M "P B C N"
_symmetry_group_IT_number 60
_symmetry_cell_setting 'orthorhombic'
loop_
_space_group_symop_operation_xyz
x,y,z
1/2-x,1/2-y,1/2+z
1/2+x,1/2-y,-z
-x,y,1/2-z
-x,-y,-z
1/2+x,1/2+y,1/2-z
1/2-x,1/2+y,z
x,-y,1/2+z
loop_
_atom_site_type_symbol
_atom_site_label
_atom_site_fract_x
_atom_site_fract_y
_atom_site_fract_z
Si Si1 0.807496 0.383880 0.931726
Si Si2 0.158030 0.294469 0.759089
Si Si3 0.123160 0.626177 0.800871
Si Si4 0.244252 0.560215 0.430937
Si Si5 0.998419 0.786976 0.545145
O O1 0.810549 0.385076 0.821950
O O2 0.659074 0.325745 0.961849
O O3 0.822400 0.512531 0.974428
O O4 0.929601 0.299818 0.970072
O O5 0.265483 0.192111 0.739752
O O6 0.185548 0.342254 0.861609
O O7 0.000000 0.255649 0.750000
O O8 0.216605 0.551360 0.868685
O O9 0.036396 0.720505 0.859947
O O10 0.000000 0.558711 0.750000
O O11 0.399902 0.600184 0.453020
#
# Coordination Sequence:
#
# PCOD9455747 Si02
#       5
#     8   8   8   8   8
#     4  11  24  44  70  96 142 180 225 285 342 400
#     4  11  25  43  67 100 136 182 228 278 340 407
#     4  10  20  44  66  94 137 177 222 280 340 400
#     4  10  24  42  70  99 134 170 238 276 338 409
#     4  10  23  43  66  98 135 180 225 284 339 407
#
# _framework density 24.781200999999999
#
# number of rings (size 3 to 8) (size 9 to 14) (size 15 to 20)
#    0.000    1.600    2.000    1.200    8.400    2.400 
#    7.200    0.000    0.000    0.000    0.000    0.000 
#    0.000    0.000    0.000    0.000    0.000    0.000 
#
# Total GULP energy -223534.693093 kJ/mol
# GULP energy per Si atom -5588.367327 kJ/mol
# Density = 2.472480 g / cm^3
# Si number density = 24.781201 Si / 1000 Ang^3
#
#
#
# Elastic Constant Matrix: (Units=GPa)
#
#
# Indices 1 2 3 4 5 6 
#
# 1 179.7227 51.1586 49.8987 0.0000 0.0000 0.0000
# 2 51.1586 59.8063 8.2053 0.0000 0.0000 0.0000
# 3 49.8987 8.2053 83.3132 0.0000 0.0000 0.0000
# 4 0.0000 0.0000 0.0000 20.2256 0.0000 0.0000
# 5 0.0000 0.0000 0.0000 0.0000 37.9102 0.0000
# 6 0.0000 0.0000 0.0000 0.0000 0.0000 32.6475
#
#
#
# Elastic Compliance Matrix: (Units=1/GPa)
#
#
# Indices 1 2 3 4 5 6 
#
# 1 0.008804 -0.006900 -0.004593 0.000000 0.000000 0.000000
# 2 -0.006900 0.022358 0.001931 0.000000 0.000000 0.000000
# 3 -0.004593 0.001931 0.014564 0.000000 0.000000 0.000000
# 4 0.000000 0.000000 0.000000 0.049442 0.000000 0.000000
# 5 0.000000 0.000000 0.000000 0.000000 0.026378 0.000000
# 6 0.000000 0.000000 0.000000 0.000000 0.000000 0.030630
#
#
# Mechanical properties :
#
#
# Convention : Reuss Voigt Hill
#
# Bulk Modulus (GPa) = 37.59361 60.15194 48.87278
# Shear Modulus (GPa) = 27.75177 32.39530 30.07354
#
# Velocity S-wave (km/s) = 3.35008 3.61952 3.48740
# Velocity P-wave (km/s) = 5.49247 6.46481 5.99837
#
# Compressibility (1/GPa) = 0.02660026
#
# Stress axis : x y z
#
# Youngs Moduli (GPa) = 113.58964 44.72586 68.66391
#
# Poissons Ratio (x) = 0.30863 0.31538
# Poissons Ratio (y) = 0.78382 -0.13258
# Poissons Ratio (z) = 0.52173 -0.08636
#
# Static dielectric constant tensor:
#      x y z
#    x 1.913120 0.000000 0.000000 
#    y 0.000000 1.976470 0.000000 
#    z 0.000000 0.000000 2.026430 
# 
# From -- ./inp_files/19040.got.cif
#   From: 2010.05.17/outbox.cif.g08.bks.cpg/sg60_10_cif.got.tgz:19040.got - 2010.06.03 14:59:27.
