data_PCOD9455374
_publ_section_title
;
Structure prediction by ZEFSAII (Michael W. Deem and Ramdas Pophale) SiO2 
 PCOD9455374
Probable space group: P B C N
;
_chemical_formula_sum "Si O2"
_cell_formula_units_Z 48
_cell_length_a 8.401306
_cell_length_b 9.396884
_cell_length_c 25.663510
_cell_angle_alpha 90.000000
_cell_angle_beta 90.000000
_cell_angle_gamma 90.000000
_cell_volume 2026.033974
_symmetry_space_group_name_H-M "P B C N"
_symmetry_group_IT_number 60
_symmetry_cell_setting 'orthorhombic'
loop_
_space_group_symop_operation_xyz
x,y,z
1/2-x,1/2-y,1/2+z
1/2+x,1/2-y,-z
-x,y,1/2-z
-x,-y,-z
1/2+x,1/2+y,1/2-z
1/2-x,1/2+y,z
x,-y,1/2+z
loop_
_atom_site_type_symbol
_atom_site_label
_atom_site_fract_x
_atom_site_fract_y
_atom_site_fract_z
Si Si1 0.589288 0.443119 0.193811
Si Si2 0.656883 0.151624 0.218247
Si Si3 0.841587 0.182739 0.321787
Si Si4 0.428407 0.890997 0.957727
Si Si5 0.371341 0.609720 0.523153
Si Si6 0.631018 0.026082 0.882433
O O1 0.500000 0.425491 0.250000
O O2 0.615737 0.279610 0.178741
O O3 0.760867 0.512970 0.196546
O O4 0.478966 0.564541 0.168924
O O5 0.500000 0.113598 0.250000
O O6 0.789251 0.203766 0.261554
O O7 0.876290 0.332140 0.348332
O O8 0.694431 0.105690 0.349370
O O9 0.535000 0.749483 0.958649
O O10 0.462526 0.979188 0.905852
O O11 0.251368 0.856080 0.976230
O O12 0.500000 0.000000 0.000000
O O13 0.500000 0.500000 0.500000
O O14 0.261153 0.553210 0.570942
#
# Coordination Sequence:
#
# PCOD9455374 Si02
#       6
#     8   8   8   8   8   8
#     4   9  20  37  60  87 117 165 209 257 314 391
#     4  10  20  38  62  88 118 166 221 257 313 394
#     4  11  22  40  64  93 134 165 212 278 335 383
#     4  10  21  39  65  94 124 173 222 256 327 396
#     4  11  23  42  68  93 128 175 224 267 319 410
#     4  11  22  40  63  97 131 172 213 279 339 379
#
# _framework density 23.691606
#
# number of rings (size 3 to 8) (size 9 to 14) (size 15 to 20)
#    0.000    1.667    1.667    5.000    2.333    3.333 
#    0.000    5.000    0.000    0.000    0.000    0.000 
#    0.000    0.000    0.000    0.000    0.000    0.000 
#
# Total GULP energy -268226.341071 kJ/mol
# GULP energy per Si atom -5588.048772 kJ/mol
# Density = 2.363768 g / cm^3
# Si number density = 23.691606 Si / 1000 Ang^3
#
#
#
# Elastic Constant Matrix: (Units=GPa)
#
#
# Indices 1 2 3 4 5 6 
#
# 1 111.7873 34.5035 13.7283 0.0000 0.0000 0.0000
# 2 34.5035 112.6188 28.1884 0.0000 0.0000 0.0000
# 3 13.7283 28.1884 54.5139 0.0000 0.0000 0.0000
# 4 0.0000 0.0000 0.0000 32.8594 0.0000 0.0000
# 5 0.0000 0.0000 0.0000 0.0000 35.2935 0.0000
# 6 0.0000 0.0000 0.0000 0.0000 0.0000 45.3805
#
#
#
# Elastic Compliance Matrix: (Units=1/GPa)
#
#
# Indices 1 2 3 4 5 6 
#
# 1 0.009933 -0.002777 -0.001066 0.000000 0.000000 0.000000
# 2 -0.002777 0.010976 -0.004976 0.000000 0.000000 0.000000
# 3 -0.001066 -0.004976 0.021185 0.000000 0.000000 0.000000
# 4 0.000000 0.000000 0.000000 0.030433 0.000000 0.000000
# 5 0.000000 0.000000 0.000000 0.000000 0.028334 0.000000
# 6 0.000000 0.000000 0.000000 0.000000 0.000000 0.022036
#
#
# Mechanical properties :
#
#
# Convention : Reuss Voigt Hill
#
# Bulk Modulus (GPa) = 40.88725 47.97338 44.43032
# Shear Modulus (GPa) = 33.62774 36.20665 34.91720
#
# Velocity S-wave (km/s) = 3.77157 3.91352 3.84320
# Velocity P-wave (km/s) = 6.02179 6.38075 6.20386
#
# Compressibility (1/GPa) = 0.02445750
#
# Stress axis : x y z
#
# Youngs Moduli (GPa) = 100.67001 91.11019 47.20213
#
# Poissons Ratio (x) = 0.25297 0.05031
# Poissons Ratio (y) = 0.27952 0.23489
# Poissons Ratio (z) = 0.10730 0.45338
#
# Static dielectric constant tensor:
#      x y z
#    x 1.920030 0.000000 0.000000 
#    y 0.000000 1.840980 0.000000 
#    z 0.000000 0.000000 2.036160 
# 
# From -- ./inp_files/25919.got.cif
#   From: 2010.05.17/outbox.cif.g08.bks.cpg/sg60_13_cif.got.tgz:25919.got - 2010.06.03 14:59:27.
