data_PCOD9455477
_publ_section_title
;
Structure prediction by ZEFSAII (Michael W. Deem and Ramdas Pophale) SiO2 
 PCOD9455477
Probable space group: P B C N
;
_chemical_formula_sum "Si O2"
_cell_formula_units_Z 64
_cell_length_a 7.813869
_cell_length_b 16.105055
_cell_length_c 24.777079
_cell_angle_alpha 90.000000
_cell_angle_beta 90.000000
_cell_angle_gamma 90.000000
_cell_volume 3118.016750
_symmetry_space_group_name_H-M "P B C N"
_symmetry_group_IT_number 60
_symmetry_cell_setting 'orthorhombic'
loop_
_space_group_symop_operation_xyz
x,y,z
1/2-x,1/2-y,1/2+z
1/2+x,1/2-y,-z
-x,y,1/2-z
-x,-y,-z
1/2+x,1/2+y,1/2-z
1/2-x,1/2+y,z
x,-y,1/2+z
loop_
_atom_site_type_symbol
_atom_site_label
_atom_site_fract_x
_atom_site_fract_y
_atom_site_fract_z
Si Si1 0.269740 0.707752 0.595423
Si Si2 0.320351 0.682071 0.921111
Si Si3 0.840473 0.654877 0.019986
Si Si4 0.196754 0.978404 0.496609
Si Si5 0.796021 0.091304 0.807438
Si Si6 0.001833 0.543898 0.310425
Si Si7 0.197174 0.089048 0.815129
Si Si8 0.348343 0.118077 0.086844
O O1 0.473388 0.692571 0.584900
O O2 0.176979 0.673161 0.542938
O O3 0.234537 0.658755 0.649831
O O4 0.227591 0.805079 0.601024
O O5 0.255639 0.768995 0.946642
O O6 0.285671 0.603626 0.960011
O O7 0.258360 0.654785 0.861832
O O8 0.780897 0.560290 0.028636
O O9 0.033584 0.653019 0.039284
O O10 0.261541 0.959908 0.557672
O O11 0.000000 0.000000 0.500000
O O12 0.786795 0.122735 0.745807
O O13 0.994145 0.066976 0.820100
O O14 0.664458 0.015655 0.810951
O O15 0.967856 0.601611 0.361706
O O16 0.000000 0.582275 0.250000
O O17 0.172907 0.488794 0.318539
#
# Coordination Sequence:
#
# PCOD9455477 Si02
#       8
#     8   8   8   8   8   8   8   8
#     4  10  20  39  60  88 125 166 209 260 325 381
#     4  10  21  38  59  90 129 159 212 257 311 389
#     4  11  22  39  60  89 126 167 207 261 322 388
#     4  12  23  38  61  89 128 167 209 255 325 388
#     4   9  19  38  67  91 120 164 213 262 321 384
#     4  10  21  41  65  96 126 165 217 270 324 390
#     4   9  19  38  64  94 120 164 211 265 319 385
#     4  11  24  40  59  94 130 165 215 268 327 387
#
# _framework density 20.525867999999999
#
# number of rings (size 3 to 8) (size 9 to 14) (size 15 to 20)
#    0.000    1.750    2.500    1.875    1.750    1.000 
#    9.000    0.000    0.000    0.000    9.750    0.000 
#    0.000    0.000    0.000    0.000    0.000    0.000 
#
# Total GULP energy -356903.798543 kJ/mol
# GULP energy per Si atom -5576.621852 kJ/mol
# Density = 2.047915 g / cm^3
# Si number density = 20.525868 Si / 1000 Ang^3
#
#
#
# Elastic Constant Matrix: (Units=GPa)
#
#
# Indices 1 2 3 4 5 6 
#
# 1 32.1726 -2.5060 18.6486 0.0000 0.0000 0.0000
# 2 -2.5060 76.8669 19.8500 0.0000 0.0000 0.0000
# 3 18.6486 19.8500 102.5252 0.0000 0.0000 0.0000
# 4 0.0000 0.0000 0.0000 16.2946 0.0000 0.0000
# 5 0.0000 0.0000 0.0000 0.0000 24.0109 0.0000
# 6 0.0000 0.0000 0.0000 0.0000 0.0000 3.9929
#
#
#
# Elastic Compliance Matrix: (Units=1/GPa)
#
#
# Indices 1 2 3 4 5 6 
#
# 1 0.035375 0.002963 -0.007008 0.000000 0.000000 0.000000
# 2 0.002963 0.013942 -0.003238 0.000000 0.000000 0.000000
# 3 -0.007008 -0.003238 0.011655 0.000000 0.000000 0.000000
# 4 0.000000 0.000000 0.000000 0.061370 0.000000 0.000000
# 5 0.000000 0.000000 0.000000 0.000000 0.041648 0.000000
# 6 0.000000 0.000000 0.000000 0.000000 0.000000 0.250442
#
#
# Mechanical properties :
#
#
# Convention : Reuss Voigt Hill
#
# Bulk Modulus (GPa) = 21.54882 31.50555 26.52719
# Shear Modulus (GPa) = 11.24937 20.56448 15.90693
#
# Velocity S-wave (km/s) = 2.34360 3.16868 2.78685
# Velocity P-wave (km/s) = 4.22427 5.36376 4.82775
#
# Compressibility (1/GPa) = 0.04640626
#
# Stress axis : x y z
#
# Youngs Moduli (GPa) = 28.26819 71.72384 85.79694
#
# Poissons Ratio (x) = -0.21252 0.60128
# Poissons Ratio (y) = -0.08376 0.27784
# Poissons Ratio (z) = 0.19811 0.23227
#
# Static dielectric constant tensor:
#      x y z
#    x 1.726340 0.000000 0.000000 
#    y 0.000000 1.588730 0.000000 
#    z 0.000000 0.000000 1.773750 
# 
# From -- ./inp_files/24090.got.cif
#   From: 2010.05.17/outbox.cif.g08.bks.cpg/sg60_13_cif.got.tgz:24090.got - 2010.06.03 14:59:27.
