data_PCOD9455191
_publ_section_title
;
Structure prediction by ZEFSAII (Michael W. Deem and Ramdas Pophale) SiO2 
 PCOD9455191
Probable space group: P B C N
;
_chemical_formula_sum "Si O2"
_cell_formula_units_Z 60
_cell_length_a 23.587086
_cell_length_b 9.615639
_cell_length_c 13.667719
_cell_angle_alpha 90.000000
_cell_angle_beta 90.000000
_cell_angle_gamma 90.000000
_cell_volume 3099.905696
_symmetry_space_group_name_H-M "P B C N"
_symmetry_group_IT_number 60
_symmetry_cell_setting 'orthorhombic'
loop_
_space_group_symop_operation_xyz
x,y,z
1/2-x,1/2-y,1/2+z
1/2+x,1/2-y,-z
-x,y,1/2-z
-x,-y,-z
1/2+x,1/2+y,1/2-z
1/2-x,1/2+y,z
x,-y,1/2+z
loop_
_atom_site_type_symbol
_atom_site_label
_atom_site_fract_x
_atom_site_fract_y
_atom_site_fract_z
Si Si1 0.860906 0.420793 0.473798
Si Si2 0.811138 0.185910 0.121574
Si Si3 0.749464 0.938249 0.029135
Si Si4 0.913837 0.712255 0.497654
Si Si5 0.416315 0.501557 0.600073
Si Si6 0.000000 0.105660 0.750000
Si Si7 0.809811 0.181866 0.350814
Si Si8 0.539701 0.723139 0.545491
O O1 0.806627 0.467765 0.535862
O O2 0.893162 0.565762 0.454191
O O3 0.832286 0.333038 0.386012
O O4 0.906629 0.322504 0.527260
O O5 0.764925 0.299202 0.087493
O O6 0.873091 0.246865 0.089520
O O7 0.801660 0.173353 0.236312
O O8 0.799398 0.037245 0.069105
O O9 0.760193 0.878729 0.919806
O O10 0.982385 0.715944 0.505560
O O11 0.902774 0.839957 0.425084
O O12 0.455525 0.508193 0.694960
O O13 0.360926 0.419246 0.624191
O O14 0.445630 0.421511 0.509474
O O15 0.026694 0.194701 0.839888
#
# Coordination Sequence:
#
# PCOD9455191 Si02
#       8
#     8   8   8   8   8   4   8   8
#     4  10  23  43  63  87 131 169 206 266 322 374
#     4  11  25  40  66  96 121 172 214 264 329 386
#     4  11  23  46  62  90 135 161 216 275 317 381
#     4  10  20  42  65  91 128 165 206 265 323 371
#     4  10  22  38  65  92 129 167 207 268 309 386
#     4  10  20  36  64  98 124 164 216 250 318 382
#     4  11  24  41  66  92 125 171 220 259 328 386
#     4  10  22  41  64  93 130 168 209 262 321 383
#
# _framework density 19.355426999999999
#
# number of rings (size 3 to 8) (size 9 to 14) (size 15 to 20)
#    0.000    1.600    2.667    2.000    5.600    0.000 
#    9.600    0.000    0.000    0.000    0.000    0.000 
#    0.000    0.000    0.000    0.000    0.000    0.000 
#
# Total GULP energy -334285.368615 kJ/mol
# GULP energy per Si atom -5571.422810 kJ/mol
# Density = 1.931137 g / cm^3
# Si number density = 19.355427 Si / 1000 Ang^3
#
#
#
# Elastic Constant Matrix: (Units=GPa)
#
#
# Indices 1 2 3 4 5 6 
#
# 1 71.7523 26.0350 36.5324 0.0000 0.0000 0.0000
# 2 26.0350 104.9820 38.2017 0.0000 0.0000 0.0000
# 3 36.5324 38.2017 116.8513 0.0000 0.0000 0.0000
# 4 0.0000 0.0000 0.0000 18.4481 0.0000 0.0000
# 5 0.0000 0.0000 0.0000 0.0000 27.8623 0.0000
# 6 0.0000 0.0000 0.0000 0.0000 0.0000 6.0574
#
#
#
# Elastic Compliance Matrix: (Units=1/GPa)
#
#
# Indices 1 2 3 4 5 6 
#
# 1 0.017187 -0.002618 -0.004517 0.000000 0.000000 0.000000
# 2 -0.002618 0.011211 -0.002846 0.000000 0.000000 0.000000
# 3 -0.004517 -0.002846 0.010901 0.000000 0.000000 0.000000
# 4 0.000000 0.000000 0.000000 0.054206 0.000000 0.000000
# 5 0.000000 0.000000 0.000000 0.000000 0.035891 0.000000
# 6 0.000000 0.000000 0.000000 0.000000 0.000000 0.165089
#
#
# Mechanical properties :
#
#
# Convention : Reuss Voigt Hill
#
# Bulk Modulus (GPa) = 51.72253 55.01374 53.36813
# Shear Modulus (GPa) = 15.58154 23.32799 19.45477
#
# Velocity S-wave (km/s) = 2.84037 3.47543 3.17382
# Velocity P-wave (km/s) = 6.12678 6.67753 6.40807
#
# Compressibility (1/GPa) = 0.01933394
#
# Stress axis : x y z
#
# Youngs Moduli (GPa) = 58.18388 89.20150 91.73709
#
# Poissons Ratio (x) = 0.23357 0.41440
# Poissons Ratio (y) = 0.15235 0.26112
# Poissons Ratio (z) = 0.26283 0.25390
#
# Static dielectric constant tensor:
#      x y z
#    x 1.739710 0.000000 0.000000 
#    y 0.000000 1.699910 0.000000 
#    z 0.000000 0.000000 1.699440 
# 
# From -- ./inp_files/13283.got.cif
#   From: 2010.05.17/outbox.cif.g08.bks.cpg/sg60_7_cif.got.tgz:13283.got - 2010.06.03 14:59:27.
