data_PCOD9455041
_publ_section_title
;
Structure prediction by ZEFSAII (Michael W. Deem and Ramdas Pophale) SiO2 
 PCOD9455041
Probable space group: P B C N
;
_chemical_formula_sum "Si O2"
_cell_formula_units_Z 32
_cell_length_a 14.246653
_cell_length_b 12.942708
_cell_length_c 8.948514
_cell_angle_alpha 90.000000
_cell_angle_beta 90.000000
_cell_angle_gamma 90.000000
_cell_volume 1650.018910
_symmetry_space_group_name_H-M "P B C N"
_symmetry_group_IT_number 60
_symmetry_cell_setting 'orthorhombic'
loop_
_space_group_symop_operation_xyz
x,y,z
1/2-x,1/2-y,1/2+z
1/2+x,1/2-y,-z
-x,y,1/2-z
-x,-y,-z
1/2+x,1/2+y,1/2-z
1/2-x,1/2+y,z
x,-y,1/2+z
loop_
_atom_site_type_symbol
_atom_site_label
_atom_site_fract_x
_atom_site_fract_y
_atom_site_fract_z
Si Si1 0.248424 0.857088 0.566599
Si Si2 0.272934 0.006218 0.816363
Si Si3 0.354964 0.855304 0.072231
Si Si4 0.972193 0.389665 0.924530
O O1 0.217417 0.908531 0.410710
O O2 0.210750 0.743428 0.591174
O O3 0.362777 0.861740 0.562809
O O4 0.219399 0.935237 0.698212
O O5 0.348063 0.071831 0.718210
O O6 0.316146 0.926346 0.936005
O O7 0.457862 0.818753 0.021738
O O8 0.000000 0.387169 0.750000
O O9 0.000000 0.500000 0.000000
#
# Coordination Sequence:
#
# PCOD9455041 Si02
#       4
#     8   8   8   8
#     4  11  21  35  58  86 116 150 186 234 288 334
#     4  10  20  35  56  83 116 148 188 235 282 333
#     4  11  21  35  58  86 116 150 186 234 288 334
#     4  12  20  36  58  87 113 144 190 245 281 327
#
# _framework density 19.393716000000001
#
# number of rings (size 3 to 8) (size 9 to 14) (size 15 to 20)
#    0.000    1.000    7.500    1.500    0.000    0.000 
#    0.000    0.000    0.000    9.000    0.000    0.000 
#    0.000    0.000    0.000    0.000    0.000    0.000 
#
# Total GULP energy -178396.472472 kJ/mol
# GULP energy per Si atom -5574.889765 kJ/mol
# Density = 1.934957 g / cm^3
# Si number density = 19.393716 Si / 1000 Ang^3
#
#
#
# Elastic Constant Matrix: (Units=GPa)
#
#
# Indices 1 2 3 4 5 6 
#
# 1 59.5276 45.4528 2.0756 0.0000 0.0000 0.0000
# 2 45.4528 106.1923 33.6104 0.0000 0.0000 0.0000
# 3 2.0756 33.6104 111.5021 0.0000 0.0000 0.0000
# 4 0.0000 0.0000 0.0000 24.2823 0.0000 0.0000
# 5 0.0000 0.0000 0.0000 0.0000 12.9779 0.0000
# 6 0.0000 0.0000 0.0000 0.0000 0.0000 28.0547
#
#
#
# Elastic Compliance Matrix: (Units=1/GPa)
#
#
# Indices 1 2 3 4 5 6 
#
# 1 0.025927 -0.012099 0.003164 0.000000 0.000000 0.000000
# 2 -0.012099 0.016056 -0.004615 0.000000 0.000000 0.000000
# 3 0.003164 -0.004615 0.010301 0.000000 0.000000 0.000000
# 4 0.000000 0.000000 0.000000 0.041182 0.000000 0.000000
# 5 0.000000 0.000000 0.000000 0.000000 0.077054 0.000000
# 6 0.000000 0.000000 0.000000 0.000000 0.000000 0.035645
#
#
# Mechanical properties :
#
#
# Convention : Reuss Voigt Hill
#
# Bulk Modulus (GPa) = 39.70587 48.83328 44.26957
# Shear Modulus (GPa) = 20.69044 26.13517 23.41281
#
# Velocity S-wave (km/s) = 3.26983 3.67496 3.47830
# Velocity P-wave (km/s) = 5.89693 6.57585 6.24562
#
# Compressibility (1/GPa) = 0.02518519
#
# Stress axis : x y z
#
# Youngs Moduli (GPa) = 38.57030 62.28208 97.08237
#
# Poissons Ratio (x) = 0.75354 -0.30720
# Poissons Ratio (y) = 0.46665 0.44800
# Poissons Ratio (z) = -0.12205 0.28741
#
# Static dielectric constant tensor:
#      x y z
#    x 1.752520 0.000000 0.000000 
#    y 0.000000 1.692600 0.000000 
#    z 0.000000 0.000000 1.751970 
# 
# From -- ./inp_files/4530.got.cif
#   From: 2010.05.17/outbox.cif.g08.bks.cpg/sg60_3_cif.got.tgz:4530.got - 2010.06.03 14:59:27.
