data_PCOD9455950
_publ_section_title
;
Structure prediction by ZEFSAII (Michael W. Deem and Ramdas Pophale) SiO2 
 PCOD9455950
Probable space group: P B C N
;
_chemical_formula_sum "Si O2"
_cell_formula_units_Z 48
_cell_length_a 13.125266
_cell_length_b 11.787786
_cell_length_c 17.130307
_cell_angle_alpha 90.000000
_cell_angle_beta 90.000000
_cell_angle_gamma 90.000000
_cell_volume 2650.363871
_symmetry_space_group_name_H-M "P B C N"
_symmetry_group_IT_number 60
_symmetry_cell_setting 'orthorhombic'
loop_
_space_group_symop_operation_xyz
x,y,z
1/2-x,1/2-y,1/2+z
1/2+x,1/2-y,-z
-x,y,1/2-z
-x,-y,-z
1/2+x,1/2+y,1/2-z
1/2-x,1/2+y,z
x,-y,1/2+z
loop_
_atom_site_type_symbol
_atom_site_label
_atom_site_fract_x
_atom_site_fract_y
_atom_site_fract_z
Si Si1 0.133416 0.349809 0.365745
Si Si2 0.056739 0.000511 0.322604
Si Si3 0.059328 0.806264 0.591543
Si Si4 0.898523 0.602026 0.197502
Si Si5 0.346271 0.696059 0.920933
Si Si6 0.696062 0.314809 0.765570
O O1 0.114847 0.481267 0.346259
O O2 0.223264 0.315771 0.426408
O O3 0.178865 0.296916 0.285906
O O4 0.028992 0.285817 0.389287
O O5 0.123419 0.094053 0.277508
O O6 0.000000 0.940140 0.250000
O O7 0.985972 0.071860 0.381619
O O8 0.121534 0.914210 0.372102
O O9 0.097527 0.802581 0.503555
O O10 0.154916 0.789757 0.649017
O O11 0.883776 0.696976 0.130254
O O12 0.807084 0.632898 0.257018
O O13 0.000000 0.603717 0.250000
#
# Coordination Sequence:
#
# PCOD9455950 Si02
#       6
#     8   8   8   8   8   8
#     4  10  21  40  62  80 120 161 194 242 304 355
#     4   9  17  36  61  84 111 153 206 243 283 351
#     4  10  21  37  62  87 115 158 201 244 295 363
#     4  11  22  37  62  86 119 156 196 250 300 357
#     4  11  22  36  57  89 123 151 193 251 310 345
#     4   9  19  38  61  83 108 158 208 232 282 366
#
# _framework density 18.110720000000001
#
# number of rings (size 3 to 8) (size 9 to 14) (size 15 to 20)
#    0.000    2.000    1.667    3.500    0.000    2.000 
#    0.000    1.667    0.000    0.000    0.000    0.000 
#    0.000    0.000    0.000    0.000    0.000    0.000 
#
# Total GULP energy -267529.568743 kJ/mol
# GULP energy per Si atom -5573.532682 kJ/mol
# Density = 1.806950 g / cm^3
# Si number density = 18.110720 Si / 1000 Ang^3
#
#
#
# Elastic Constant Matrix: (Units=GPa)
#
#
# Indices 1 2 3 4 5 6 
#
# 1 104.1267 12.7640 61.2400 0.0000 0.0000 0.0000
# 2 12.7640 76.1330 42.2203 0.0000 0.0000 0.0000
# 3 61.2400 42.2203 99.5061 0.0000 0.0000 0.0000
# 4 0.0000 0.0000 0.0000 8.0293 0.0000 0.0000
# 5 0.0000 0.0000 0.0000 0.0000 31.3194 0.0000
# 6 0.0000 0.0000 0.0000 0.0000 0.0000 10.3843
#
#
#
# Elastic Compliance Matrix: (Units=1/GPa)
#
#
# Indices 1 2 3 4 5 6 
#
# 1 0.015764 0.003580 -0.011221 0.000000 0.000000 0.000000
# 2 0.003580 0.017989 -0.009836 0.000000 0.000000 0.000000
# 3 -0.011221 -0.009836 0.021129 0.000000 0.000000 0.000000
# 4 0.000000 0.000000 0.000000 0.124543 0.000000 0.000000
# 5 0.000000 0.000000 0.000000 0.000000 0.031929 0.000000
# 6 0.000000 0.000000 0.000000 0.000000 0.000000 0.096299
#
#
# Mechanical properties :
#
#
# Convention : Reuss Voigt Hill
#
# Bulk Modulus (GPa) = 50.18017 56.91270 53.54643
# Shear Modulus (GPa) = 14.31638 20.84938 17.58288
#
# Velocity S-wave (km/s) = 2.81462 3.39664 3.11923
# Velocity P-wave (km/s) = 6.19115 6.84660 6.52711
#
# Compressibility (1/GPa) = 0.01992819
#
# Stress axis : x y z
#
# Youngs Moduli (GPa) = 63.43521 55.58841 47.32907
#
# Poissons Ratio (x) = -0.19899 0.53107
# Poissons Ratio (y) = -0.22707 0.46552
# Poissons Ratio (z) = 0.71179 0.54676
#
# Static dielectric constant tensor:
#      x y z
#    x 1.680380 0.000000 0.000000 
#    y 0.000000 1.620700 0.000000 
#    z 0.000000 0.000000 1.599770 
# 
# From -- ./inp_files/20017.got.cif
#   From: 2010.05.17/outbox.cif.g08.bks.cpg/sg60_11_cif.got.tgz:20017.got - 2010.06.03 14:59:27.
