data_PCOD9455805
_publ_section_title
;
Structure prediction by ZEFSAII (Michael W. Deem and Ramdas Pophale) SiO2 
 PCOD9455805
Probable space group: P B C N
;
_chemical_formula_sum "Si O2"
_cell_formula_units_Z 64
_cell_length_a 13.701006
_cell_length_b 17.383154
_cell_length_c 12.458967
_cell_angle_alpha 90.000000
_cell_angle_beta 90.000000
_cell_angle_gamma 90.000000
_cell_volume 2967.311022
_symmetry_space_group_name_H-M "P B C N"
_symmetry_group_IT_number 60
_symmetry_cell_setting 'orthorhombic'
loop_
_space_group_symop_operation_xyz
x,y,z
1/2-x,1/2-y,1/2+z
1/2+x,1/2-y,-z
-x,y,1/2-z
-x,-y,-z
1/2+x,1/2+y,1/2-z
1/2-x,1/2+y,z
x,-y,1/2+z
loop_
_atom_site_type_symbol
_atom_site_label
_atom_site_fract_x
_atom_site_fract_y
_atom_site_fract_z
Si Si1 0.857355 0.695882 0.628957
Si Si2 0.915183 0.424829 0.829445
Si Si3 0.726689 0.494618 0.709214
Si Si4 0.303221 0.718850 0.040773
Si Si5 0.848968 0.531317 0.008911
Si Si6 0.522759 0.821948 0.540053
Si Si7 0.758783 0.633442 0.827905
Si Si8 0.885438 0.849829 0.746557
O O1 0.771256 0.682601 0.543422
O O2 0.844319 0.649832 0.740267
O O3 0.845165 0.784457 0.666536
O O4 0.958883 0.681486 0.568644
O O5 0.811837 0.447107 0.775452
O O6 0.909551 0.469776 0.942017
O O7 0.000000 0.454273 0.750000
O O8 0.944593 0.336896 0.863027
O O9 0.781220 0.506606 0.597149
O O10 0.691740 0.576436 0.757190
O O11 0.640793 0.433491 0.703607
O O12 0.246922 0.786405 0.109139
O O13 0.343399 0.663664 0.133911
O O14 0.395675 0.755739 0.975886
O O15 0.785759 0.575705 0.921636
O O16 0.912594 0.601405 0.054230
O O17 0.000000 0.836767 0.750000
#
# Coordination Sequence:
#
# PCOD9455805 Si02
#       8
#     8   8   8   8   8   8   8   8
#     4  11  22  38  65  86 126 166 213 270 314 375
#     4  11  22  32  55  93 127 162 192 251 333 389
#     4  11  22  40  61  90 133 161 207 266 321 384
#     4  10  22  41  62  91 123 166 220 262 320 382
#     4  10  21  34  56  91 128 159 198 249 324 396
#     4  11  20  35  57  86 121 159 206 251 315 379
#     4   9  22  38  63  89 120 166 210 254 321 378
#     4  11  22  41  65  93 121 174 224 262 310 381
#
# _framework density 21.568348
#
# number of rings (size 3 to 8) (size 9 to 14) (size 15 to 20)
#    0.000    1.500    2.500    3.375    3.500    1.000 
#    0.000    0.000    2.750    4.500    0.000    0.000 
#    0.000    0.000    0.000    0.000    0.000    0.000 
#
# Total GULP energy -356456.024099 kJ/mol
# GULP energy per Si atom -5569.625377 kJ/mol
# Density = 2.151926 g / cm^3
# Si number density = 21.568348 Si / 1000 Ang^3
#
#
#
# Elastic Constant Matrix: (Units=GPa)
#
#
# Indices 1 2 3 4 5 6 
#
# 1 40.7097 -2.6586 21.8561 0.0000 0.0000 0.0000
# 2 -2.6586 51.9283 14.2053 0.0000 0.0000 0.0000
# 3 21.8561 14.2053 94.1677 0.0000 0.0000 0.0000
# 4 0.0000 0.0000 0.0000 24.2626 0.0000 0.0000
# 5 0.0000 0.0000 0.0000 0.0000 26.6813 0.0000
# 6 0.0000 0.0000 0.0000 0.0000 0.0000 5.5764
#
#
#
# Elastic Compliance Matrix: (Units=1/GPa)
#
#
# Indices 1 2 3 4 5 6 
#
# 1 0.028633 0.003425 -0.007162 0.000000 0.000000 0.000000
# 2 0.003425 0.020496 -0.003887 0.000000 0.000000 0.000000
# 3 -0.007162 -0.003887 0.012868 0.000000 0.000000 0.000000
# 4 0.000000 0.000000 0.000000 0.041216 0.000000 0.000000
# 5 0.000000 0.000000 0.000000 0.000000 0.037479 0.000000
# 6 0.000000 0.000000 0.000000 0.000000 0.000000 0.179328
#
#
# Mechanical properties :
#
#
# Convention : Reuss Voigt Hill
#
# Bulk Modulus (GPa) = 21.39072 28.17905 24.78489
# Shear Modulus (GPa) = 14.25104 21.53089 17.89097
#
# Velocity S-wave (km/s) = 2.57327 3.16296 2.88323
# Velocity P-wave (km/s) = 4.33222 5.14125 4.75398
#
# Compressibility (1/GPa) = 0.04674923
#
# Stress axis : x y z
#
# Youngs Moduli (GPa) = 34.92448 48.79012 77.71167
#
# Poissons Ratio (x) = -0.16712 0.55660
# Poissons Ratio (y) = -0.11963 0.30205
# Poissons Ratio (z) = 0.25014 0.18964
#
# Static dielectric constant tensor:
#      x y z
#    x 1.840920 0.000000 0.000000 
#    y 0.000000 1.862960 0.000000 
#    z 0.000000 0.000000 1.861540 
# 
# From -- ./inp_files/12143.got.cif
#   From: 2010.05.17/outbox.cif.g08.bks.cpg/sg60_7_cif.got.tgz:12143.got - 2010.06.03 14:59:27.
