data_PCOD9455326
_publ_section_title
;
Structure prediction by ZEFSAII (Michael W. Deem and Ramdas Pophale) SiO2 
 PCOD9455326
Probable space group: P B C N
;
_chemical_formula_sum "Si O2"
_cell_formula_units_Z 56
_cell_length_a 6.733909
_cell_length_b 22.731578
_cell_length_c 19.030128
_cell_angle_alpha 90.000000
_cell_angle_beta 90.000000
_cell_angle_gamma 90.000000
_cell_volume 2912.986940
_symmetry_space_group_name_H-M "P B C N"
_symmetry_group_IT_number 60
_symmetry_cell_setting 'orthorhombic'
loop_
_space_group_symop_operation_xyz
x,y,z
1/2-x,1/2-y,1/2+z
1/2+x,1/2-y,-z
-x,y,1/2-z
-x,-y,-z
1/2+x,1/2+y,1/2-z
1/2-x,1/2+y,z
x,-y,1/2+z
loop_
_atom_site_type_symbol
_atom_site_label
_atom_site_fract_x
_atom_site_fract_y
_atom_site_fract_z
Si Si1 0.002687 0.262392 0.333005
Si Si2 0.740642 0.965714 0.434254
Si Si3 0.967888 0.599185 0.669768
Si Si4 0.636278 0.405359 0.074695
Si Si5 0.443913 0.083913 0.047738
Si Si6 0.186266 0.692146 0.428728
Si Si7 0.878234 0.204834 0.922454
O O1 0.070370 0.330808 0.337551
O O2 0.146730 0.218153 0.375948
O O3 0.000000 0.247123 0.250000
O O4 0.785962 0.268966 0.369420
O O5 0.655349 0.921912 0.374942
O O6 0.618279 0.948242 0.503814
O O7 0.970446 0.952524 0.444931
O O8 0.678870 0.032140 0.414815
O O9 0.778116 0.569368 0.634700
O O10 0.000000 0.585239 0.750000
O O11 0.516729 0.348673 0.102146
O O12 0.785562 0.390456 0.009861
O O13 0.557006 0.134521 0.090719
O O14 0.280319 0.681648 0.505487
O O15 0.026614 0.743029 0.440571
#
# Coordination Sequence:
#
# PCOD9455326 Si02
#       7
#     8   8   8   8   8   8   8
#     4  11  24  40  58  91 127 159 205 259 317 370
#     4  10  20  38  58  88 122 153 203 252 312 358
#     4  10  21  38  58  86 119 158 208 256 301 368
#     4  11  19  36  60  92 125 154 200 258 317 361
#     4  10  22  35  59  93 120 156 196 255 305 370
#     4  12  22  37  62  92 127 161 207 254 311 376
#     4  12  21  36  63  91 119 160 206 253 307 373
#
# _framework density 19.224254999999999
#
# number of rings (size 3 to 8) (size 9 to 14) (size 15 to 20)
#    0.000    1.143    5.714    2.143    0.000    1.143 
#    0.000    0.000    3.143    0.000    0.000    0.000 
#    0.000    0.000    0.000    0.000    0.000    0.000 
#
# Total GULP energy -312240.636929 kJ/mol
# GULP energy per Si atom -5575.725659 kJ/mol
# Density = 1.918050 g / cm^3
# Si number density = 19.224255 Si / 1000 Ang^3
#
#
#
# Elastic Constant Matrix: (Units=GPa)
#
#
# Indices 1 2 3 4 5 6 
#
# 1 116.9211 19.0222 32.2707 0.0000 0.0000 0.0000
# 2 19.0222 74.6781 8.4766 0.0000 0.0000 0.0000
# 3 32.2707 8.4766 77.6349 0.0000 0.0000 0.0000
# 4 0.0000 0.0000 0.0000 14.1116 0.0000 0.0000
# 5 0.0000 0.0000 0.0000 0.0000 8.1598 0.0000
# 6 0.0000 0.0000 0.0000 0.0000 0.0000 23.6898
#
#
#
# Elastic Compliance Matrix: (Units=1/GPa)
#
#
# Indices 1 2 3 4 5 6 
#
# 1 0.009975 -0.002096 -0.003917 0.000000 0.000000 0.000000
# 2 -0.002096 0.013999 -0.000657 0.000000 0.000000 0.000000
# 3 -0.003917 -0.000657 0.014581 0.000000 0.000000 0.000000
# 4 0.000000 0.000000 0.000000 0.070864 0.000000 0.000000
# 5 0.000000 0.000000 0.000000 0.000000 0.122551 0.000000
# 6 0.000000 0.000000 0.000000 0.000000 0.000000 0.042212
#
#
# Mechanical properties :
#
#
# Convention : Reuss Voigt Hill
#
# Bulk Modulus (GPa) = 39.66116 43.19703 41.42910
# Shear Modulus (GPa) = 16.89596 23.15656 20.02626
#
# Velocity S-wave (km/s) = 2.96782 3.47443 3.23107
# Velocity P-wave (km/s) = 5.69381 6.21405 5.95961
#
# Compressibility (1/GPa) = 0.02521359
#
# Stress axis : x y z
#
# Youngs Moduli (GPa) = 100.25002 71.43187 68.58265
#
# Poissons Ratio (x) = 0.14974 0.26867
# Poissons Ratio (y) = 0.21014 0.04507
# Poissons Ratio (z) = 0.39273 0.04694
#
# Static dielectric constant tensor:
#      x y z
#    x 1.708140 0.000000 0.000000 
#    y 0.000000 1.728560 0.000000 
#    z 0.000000 0.000000 1.669680 
# 
# From -- ./inp_files/21739.got.cif
#   From: 2010.05.17/outbox.cif.g08.bks.cpg/sg60_11_cif.got.tgz:21739.got - 2010.06.03 14:59:27.
