data_PCOD9455743
_publ_section_title
;
Structure prediction by ZEFSAII (Michael W. Deem and Ramdas Pophale) SiO2 
 PCOD9455743
Probable space group: P B C N
;
_chemical_formula_sum "Si O2"
_cell_formula_units_Z 28
_cell_length_a 4.840056
_cell_length_b 19.105027
_cell_length_c 12.455119
_cell_angle_alpha 90.000000
_cell_angle_beta 90.000000
_cell_angle_gamma 90.000000
_cell_volume 1151.717388
_symmetry_space_group_name_H-M "P B C N"
_symmetry_group_IT_number 60
_symmetry_cell_setting 'orthorhombic'
loop_
_space_group_symop_operation_xyz
x,y,z
1/2-x,1/2-y,1/2+z
1/2+x,1/2-y,-z
-x,y,1/2-z
-x,-y,-z
1/2+x,1/2+y,1/2-z
1/2-x,1/2+y,z
x,-y,1/2+z
loop_
_atom_site_type_symbol
_atom_site_label
_atom_site_fract_x
_atom_site_fract_y
_atom_site_fract_z
Si Si1 0.073317 0.232141 0.932406
Si Si2 0.802202 0.415633 0.051607
Si Si3 0.807787 0.933769 0.598741
Si Si4 0.500000 0.166134 0.250000
O O1 0.195480 0.156955 0.898881
O O2 0.923435 0.279677 0.844018
O O3 0.342494 0.273000 0.975641
O O4 0.751159 0.484442 0.121967
O O5 0.616335 0.425813 0.944272
O O6 0.110800 0.415975 0.004549
O O7 0.722076 0.884692 0.695950
#
# Coordination Sequence:
#
# PCOD9455743 Si02
#       4
#     8   8   8   4
#     4  12  24  42  67 101 143 179 232 295 352 409
#     4  10  20  44  61  96 132 187 216 299 345 403
#     4  10  22  38  70  91 135 177 242 274 348 414
#     4  12  24  42  72 108 132 192 238 284 348 438
#
# _framework density 24.311518
#
# number of rings (size 3 to 8) (size 9 to 14) (size 15 to 20)
#    0.000    1.143    5.714    0.000    0.000    4.571 
#    0.000   11.429    0.000    0.000    0.000    0.000 
#    0.000    0.000    0.000    0.000    0.000    0.000 
#
# Total GULP energy -156571.124843 kJ/mol
# GULP energy per Si atom -5591.825887 kJ/mol
# Density = 2.425618 g / cm^3
# Si number density = 24.311518 Si / 1000 Ang^3
#
#
#
# Elastic Constant Matrix: (Units=GPa)
#
#
# Indices 1 2 3 4 5 6 
#
# 1 72.1063 2.8146 8.4111 0.0000 0.0000 0.0000
# 2 2.8146 219.5600 40.6493 0.0000 0.0000 0.0000
# 3 8.4111 40.6493 65.1713 0.0000 0.0000 0.0000
# 4 0.0000 0.0000 0.0000 44.6298 0.0000 0.0000
# 5 0.0000 0.0000 0.0000 0.0000 25.2639 0.0000
# 6 0.0000 0.0000 0.0000 0.0000 0.0000 26.4407
#
#
#
# Elastic Compliance Matrix: (Units=1/GPa)
#
#
# Indices 1 2 3 4 5 6 
#
# 1 0.014086 0.000176 -0.001928 0.000000 0.000000 0.000000
# 2 0.000176 0.005151 -0.003236 0.000000 0.000000 0.000000
# 3 -0.001928 -0.003236 0.017611 0.000000 0.000000 0.000000
# 4 0.000000 0.000000 0.000000 0.022407 0.000000 0.000000
# 5 0.000000 0.000000 0.000000 0.000000 0.039582 0.000000
# 6 0.000000 0.000000 0.000000 0.000000 0.000000 0.037820
#
#
# Mechanical properties :
#
#
# Convention : Reuss Voigt Hill
#
# Bulk Modulus (GPa) = 37.21052 51.17641 44.19346
# Shear Modulus (GPa) = 32.13548 39.59773 35.86661
#
# Velocity S-wave (km/s) = 3.63963 4.04017 3.84512
# Velocity P-wave (km/s) = 5.74469 6.54675 6.15879
#
# Compressibility (1/GPa) = 0.02687412
#
# Stress axis : x y z
#
# Youngs Moduli (GPa) = 70.99033 194.12255 56.78174
#
# Poissons Ratio (x) = -0.03424 0.10948
# Poissons Ratio (y) = -0.01252 0.18374
# Poissons Ratio (z) = 0.13687 0.62815
#
# Static dielectric constant tensor:
#      x y z
#    x 1.886790 0.000000 0.000000 
#    y 0.000000 2.003290 0.000000 
#    z 0.000000 0.000000 1.984170 
# 
# From -- ./inp_files/8765.got.cif
#   From: 2010.05.17/outbox.cif.g08.bks.cpg/sg60_5_cif.got.tgz:8765.got - 2010.06.03 14:59:27.
