data_PCOD9455232
_publ_section_title
;
Structure prediction by ZEFSAII (Michael W. Deem and Ramdas Pophale) SiO2 
 PCOD9455232
Probable space group: P B C N
;
_chemical_formula_sum "Si O2"
_cell_formula_units_Z 64
_cell_length_a 11.552288
_cell_length_b 20.304038
_cell_length_c 14.953233
_cell_angle_alpha 90.000000
_cell_angle_beta 90.000000
_cell_angle_gamma 90.000000
_cell_volume 3507.401840
_symmetry_space_group_name_H-M "P B C N"
_symmetry_group_IT_number 60
_symmetry_cell_setting 'orthorhombic'
loop_
_space_group_symop_operation_xyz
x,y,z
1/2-x,1/2-y,1/2+z
1/2+x,1/2-y,-z
-x,y,1/2-z
-x,-y,-z
1/2+x,1/2+y,1/2-z
1/2-x,1/2+y,z
x,-y,1/2+z
loop_
_atom_site_type_symbol
_atom_site_label
_atom_site_fract_x
_atom_site_fract_y
_atom_site_fract_z
Si Si1 0.631011 0.109384 0.220848
Si Si2 0.776482 0.650107 0.396760
Si Si3 0.563611 0.069084 0.517015
Si Si4 0.847178 0.800090 0.408744
Si Si5 0.905596 0.179046 0.540352
Si Si6 0.631492 0.620024 0.734409
Si Si7 0.870081 0.547791 0.715570
Si Si8 0.864984 0.666054 0.024635
O O1 0.500000 0.130530 0.250000
O O2 0.721102 0.140422 0.290820
O O3 0.654582 0.130714 0.119567
O O4 0.634645 0.030655 0.228096
O O5 0.852420 0.590673 0.437090
O O6 0.834629 0.721288 0.416107
O O7 0.658733 0.651991 0.453048
O O8 0.628524 0.063500 0.610287
O O9 0.471314 0.127942 0.519868
O O10 0.500000 0.000000 0.500000
O O11 0.862637 0.820294 0.305601
O O12 0.737717 0.834228 0.453645
O O13 0.957231 0.827113 0.461677
O O14 0.864148 0.145483 0.632395
O O15 0.884617 0.257296 0.545496
O O16 0.500000 0.590738 0.750000
O O17 0.749306 0.578304 0.752102
O O18 0.000000 0.569084 0.750000
#
# Coordination Sequence:
#
# PCOD9455232 Si02
#       8
#     8   8   8   8   8   8   8   8
#     4  11  20  37  58  85 116 155 201 245 293 358
#     4  11  21  36  59  85 117 154 200 242 298 353
#     4  12  20  36  60  88 119 151 191 253 298 346
#     4  10  21  37  58  87 118 156 198 247 300 356
#     4  10  20  37  59  83 118 157 197 243 294 364
#     4  10  21  39  59  83 117 160 200 241 297 367
#     4  11  22  37  59  90 120 152 201 254 304 350
#     4  11  21  35  59  88 119 149 199 250 300 352
#
# _framework density 18.247125
#
# number of rings (size 3 to 8) (size 9 to 14) (size 15 to 20)
#    0.000    1.250    5.000    2.250    0.000    1.000 
#    0.000    1.875    0.000    3.750    0.000    0.000 
#    0.000    0.000    0.000    0.000    0.000    0.000 
#
# Total GULP energy -356758.743581 kJ/mol
# GULP energy per Si atom -5574.355368 kJ/mol
# Density = 1.820559 g / cm^3
# Si number density = 18.247125 Si / 1000 Ang^3
#
#
#
# Elastic Constant Matrix: (Units=GPa)
#
#
# Indices 1 2 3 4 5 6 
#
# 1 76.2605 21.6280 16.3073 0.0000 0.0000 0.0000
# 2 21.6280 55.9539 4.9175 0.0000 0.0000 0.0000
# 3 16.3073 4.9175 74.9272 0.0000 0.0000 0.0000
# 4 0.0000 0.0000 0.0000 25.9479 0.0000 0.0000
# 5 0.0000 0.0000 0.0000 0.0000 31.7845 0.0000
# 6 0.0000 0.0000 0.0000 0.0000 0.0000 18.8031
#
#
#
# Elastic Compliance Matrix: (Units=1/GPa)
#
#
# Indices 1 2 3 4 5 6 
#
# 1 0.015358 -0.005675 -0.002970 0.000000 0.000000 0.000000
# 2 -0.005675 0.020073 -0.000082 0.000000 0.000000 0.000000
# 3 -0.002970 -0.000082 0.013998 0.000000 0.000000 0.000000
# 4 0.000000 0.000000 0.000000 0.038539 0.000000 0.000000
# 5 0.000000 0.000000 0.000000 0.000000 0.031462 0.000000
# 6 0.000000 0.000000 0.000000 0.000000 0.000000 0.053183
#
#
# Mechanical properties :
#
#
# Convention : Reuss Voigt Hill
#
# Bulk Modulus (GPa) = 31.27583 32.53858 31.90720
# Shear Modulus (GPa) = 24.90979 26.25969 25.58474
#
# Velocity S-wave (km/s) = 3.69878 3.79768 3.74856
# Velocity P-wave (km/s) = 5.95136 6.09104 6.02160
#
# Compressibility (1/GPa) = 0.03197357
#
# Stress axis : x y z
#
# Youngs Moduli (GPa) = 65.11455 49.81888 71.43844
#
# Poissons Ratio (x) = 0.28273 0.21217
# Poissons Ratio (y) = 0.36954 0.00588
# Poissons Ratio (z) = 0.19339 0.00410
#
# Static dielectric constant tensor:
#      x y z
#    x 1.660300 0.000000 0.000000 
#    y 0.000000 1.611140 0.000000 
#    z 0.000000 0.000000 1.623100 
# 
# From -- ./inp_files/16382.got.cif
#   From: 2010.05.17/outbox.cif.g08.bks.cpg/sg60_9_cif.got.tgz:16382.got - 2010.06.03 14:59:27.
