data_PCOD9455673
_publ_section_title
;
Structure prediction by ZEFSAII (Michael W. Deem and Ramdas Pophale) SiO2 
 PCOD9455673
Probable space group: P B C N
;
_chemical_formula_sum "Si O2"
_cell_formula_units_Z 40
_cell_length_a 8.430674
_cell_length_b 10.952318
_cell_length_c 17.587748
_cell_angle_alpha 90.000000
_cell_angle_beta 90.000000
_cell_angle_gamma 90.000000
_cell_volume 1623.972144
_symmetry_space_group_name_H-M "P B C N"
_symmetry_group_IT_number 60
_symmetry_cell_setting 'orthorhombic'
loop_
_space_group_symop_operation_xyz
x,y,z
1/2-x,1/2-y,1/2+z
1/2+x,1/2-y,-z
-x,y,1/2-z
-x,-y,-z
1/2+x,1/2+y,1/2-z
1/2-x,1/2+y,z
x,-y,1/2+z
loop_
_atom_site_type_symbol
_atom_site_label
_atom_site_fract_x
_atom_site_fract_y
_atom_site_fract_z
Si Si1 0.049880 0.392784 0.057501
Si Si2 0.081279 0.030216 0.320881
Si Si3 0.052269 0.784561 0.162756
Si Si4 0.341691 0.962376 0.702743
Si Si5 0.756839 0.211594 0.066536
O O1 0.889023 0.316014 0.067376
O O2 0.115202 0.445805 0.135725
O O3 0.000000 0.500000 0.000000
O O4 0.192894 0.319378 0.017027
O O5 0.228378 0.984454 0.269174
O O6 0.000000 0.104167 0.250000
O O7 0.957616 0.931363 0.354855
O O8 0.155461 0.102266 0.390015
O O9 0.183325 0.675016 0.165772
O O10 0.000000 0.795497 0.250000
O O11 0.904483 0.737849 0.112642
O O12 0.500000 0.943473 0.750000
#
# Coordination Sequence:
#
# PCOD9455673 Si02
#       5
#     8   8   8   8   8
#     4  12  27  48  75 104 151 198 243 308 383 452
#     4  11  25  44  75 112 141 190 256 309 366 452
#     4  10  20  41  74  97 145 186 239 307 367 436
#     4  11  21  47  75 101 145 195 242 310 381 438
#     4  12  25  47  72 106 151 196 256 304 378 450
#
# _framework density 24.630963000000001
#
# number of rings (size 3 to 8) (size 9 to 14) (size 15 to 20)
#    0.000    0.800    6.000    2.400    0.000    7.200 
#    0.000    3.000    0.000    0.000    0.000    0.000 
#    0.000    0.000    0.000    0.000    0.000    0.000 
#
# Total GULP energy -222929.674241 kJ/mol
# GULP energy per Si atom -5573.241856 kJ/mol
# Density = 2.457490 g / cm^3
# Si number density = 24.630963 Si / 1000 Ang^3
#
#
#
# Elastic Constant Matrix: (Units=GPa)
#
#
# Indices 1 2 3 4 5 6 
#
# 1 87.5720 32.7249 14.8868 0.0000 0.0000 0.0000
# 2 32.7249 102.9844 37.5271 0.0000 0.0000 0.0000
# 3 14.8868 37.5271 104.9891 0.0000 0.0000 0.0000
# 4 0.0000 0.0000 0.0000 25.5575 0.0000 0.0000
# 5 0.0000 0.0000 0.0000 0.0000 44.2492 0.0000
# 6 0.0000 0.0000 0.0000 0.0000 0.0000 -331.5974
#
#
#
# Elastic Compliance Matrix: (Units=1/GPa)
#
#
# Indices 1 2 3 4 5 6 
#
# 1 0.012974 -0.003969 -0.000421 0.000000 0.000000 0.000000
# 2 -0.003969 0.012379 -0.003862 0.000000 0.000000 0.000000
# 3 -0.000421 -0.003862 0.010965 0.000000 0.000000 0.000000
# 4 0.000000 0.000000 0.000000 0.039127 0.000000 0.000000
# 5 0.000000 0.000000 0.000000 0.000000 0.022599 0.000000
# 6 0.000000 0.000000 0.000000 0.000000 0.000000 -0.003016
#
#
# Mechanical properties :
#
#
# Convention : Reuss Voigt Hill
#
# Bulk Modulus (GPa) = 50.47032 51.75811 51.11421
# Shear Modulus (GPa) = 42.32369 -38.33103 1.99633
#
# Velocity S-wave (km/s) = 4.14975 -3.94917 0.90125
# Velocity P-wave (km/s) = 6.59512 0.51430 4.67761
#
# Compressibility (1/GPa) = 0.01981363
#
# Stress axis : x y z
#
# Youngs Moduli (GPa) = 77.07701 80.78358 91.20069
#
# Poissons Ratio (x) = 0.32066 0.03838
# Poissons Ratio (y) = 0.30595 0.35220
# Poissons Ratio (z) = 0.03244 0.31197
#
# Static dielectric constant tensor:
#      x y z
#    x 2.192310 0.000000 0.000000 
#    y 0.000000 2.264810 0.000000 
#    z 0.000000 0.000000 2.604620 
# 
# From -- ./inp_files/19041.got.cif
#   From: 2010.05.17/outbox.cif.g08.bks.cpg/sg60_10_cif.got.tgz:19041.got - 2010.06.03 14:59:27.
