data_PCOD9455877
_publ_section_title
;
Structure prediction by ZEFSAII (Michael W. Deem and Ramdas Pophale) SiO2 
 PCOD9455877
Probable space group: P B C N
;
_chemical_formula_sum "Si O2"
_cell_formula_units_Z 40
_cell_length_a 6.260779
_cell_length_b 22.549259
_cell_length_c 14.050092
_cell_angle_alpha 90.000000
_cell_angle_beta 90.000000
_cell_angle_gamma 90.000000
_cell_volume 1983.534766
_symmetry_space_group_name_H-M "P B C N"
_symmetry_group_IT_number 60
_symmetry_cell_setting 'orthorhombic'
loop_
_space_group_symop_operation_xyz
x,y,z
1/2-x,1/2-y,1/2+z
1/2+x,1/2-y,-z
-x,y,1/2-z
-x,-y,-z
1/2+x,1/2+y,1/2-z
1/2-x,1/2+y,z
x,-y,1/2+z
loop_
_atom_site_type_symbol
_atom_site_label
_atom_site_fract_x
_atom_site_fract_y
_atom_site_fract_z
Si Si1 0.064559 0.013833 0.149866
Si Si2 0.951920 0.191397 0.025675
Si Si3 0.410413 0.772321 0.850743
Si Si4 0.343479 0.115202 0.100038
Si Si5 0.727873 0.069062 0.003241
O O1 0.213934 0.071152 0.167403
O O2 0.000000 0.987482 0.250000
O O3 0.863101 0.038435 0.089049
O O4 0.196760 0.967279 0.087814
O O5 0.839135 0.222410 0.117496
O O6 0.801311 0.137311 0.993077
O O7 0.170030 0.157888 0.051488
O O8 0.988417 0.236415 0.939285
O O9 0.500000 0.748009 0.750000
O O10 0.492511 0.840001 0.852672
O O11 0.478008 0.074082 0.027486
#
# Coordination Sequence:
#
# PCOD9455877 Si02
#       5
#     8   8   8   8   8
#     4  10  21  36  61  89 121 156 207 253 308 374
#     4  10  21  41  59  88 126 161 206 261 307 374
#     4  11  23  37  62  90 122 165 210 258 316 374
#     4  10  21  37  61  85 126 158 206 257 310 368
#     4   9  21  39  58  86 122 164 198 253 314 368
#
# _framework density 20.166018999999999
#
# number of rings (size 3 to 8) (size 9 to 14) (size 15 to 20)
#    0.000    2.000    2.000    0.600    8.400    0.800 
#    0.000    0.000    0.000    7.200    0.000    0.000 
#    0.000    0.000    0.000    0.000    0.000    0.000 
#
# Total GULP energy -222937.715822 kJ/mol
# GULP energy per Si atom -5573.442896 kJ/mol
# Density = 2.012012 g / cm^3
# Si number density = 20.166019 Si / 1000 Ang^3
#
#
#
# Elastic Constant Matrix: (Units=GPa)
#
#
# Indices 1 2 3 4 5 6 
#
# 1 102.9451 19.9718 46.1269 0.0000 0.0000 0.0000
# 2 19.9718 53.6941 28.8903 0.0000 0.0000 0.0000
# 3 46.1269 28.8903 118.2932 0.0000 0.0000 0.0000
# 4 0.0000 0.0000 0.0000 18.5706 0.0000 0.0000
# 5 0.0000 0.0000 0.0000 0.0000 11.5411 0.0000
# 6 0.0000 0.0000 0.0000 0.0000 0.0000 33.6705
#
#
#
# Elastic Compliance Matrix: (Units=1/GPa)
#
#
# Indices 1 2 3 4 5 6 
#
# 1 0.012000 -0.002240 -0.004132 0.000000 0.000000 0.000000
# 2 -0.002240 0.021860 -0.004465 0.000000 0.000000 0.000000
# 3 -0.004132 -0.004465 0.011155 0.000000 0.000000 0.000000
# 4 0.000000 0.000000 0.000000 0.053849 0.000000 0.000000
# 5 0.000000 0.000000 0.000000 0.000000 0.086647 0.000000
# 6 0.000000 0.000000 0.000000 0.000000 0.000000 0.029700
#
#
# Mechanical properties :
#
#
# Convention : Reuss Voigt Hill
#
# Bulk Modulus (GPa) = 42.84463 51.65672 47.25067
# Shear Modulus (GPa) = 20.43605 24.75265 22.59435
#
# Velocity S-wave (km/s) = 3.18683 3.50729 3.35089
# Velocity P-wave (km/s) = 5.90197 6.48635 6.20105
#
# Compressibility (1/GPa) = 0.02334015
#
# Stress axis : x y z
#
# Youngs Moduli (GPa) = 83.33324 45.74609 89.64293
#
# Poissons Ratio (x) = 0.10248 0.37042
# Poissons Ratio (y) = 0.18668 0.40028
# Poissons Ratio (z) = 0.34435 0.20427
#
# Static dielectric constant tensor:
#      x y z
#    x 1.815480 0.000000 0.000000 
#    y 0.000000 1.710780 0.000000 
#    z 0.000000 0.000000 1.722550 
# 
# From -- ./inp_files/13852.got.cif
#   From: 2010.05.17/outbox.cif.g08.bks.cpg/sg60_7_cif.got.tgz:13852.got - 2010.06.03 14:59:27.
