data_PCOD9455022
_publ_section_title
;
Structure prediction by ZEFSAII (Michael W. Deem and Ramdas Pophale) SiO2 
 PCOD9455022
Probable space group: P B C N
;
_chemical_formula_sum "Si O2"
_cell_formula_units_Z 40
_cell_length_a 19.485792
_cell_length_b 10.154313
_cell_length_c 8.475579
_cell_angle_alpha 90.000000
_cell_angle_beta 90.000000
_cell_angle_gamma 90.000000
_cell_volume 1677.019007
_symmetry_space_group_name_H-M "P B C N"
_symmetry_group_IT_number 60
_symmetry_cell_setting 'orthorhombic'
loop_
_space_group_symop_operation_xyz
x,y,z
1/2-x,1/2-y,1/2+z
1/2+x,1/2-y,-z
-x,y,1/2-z
-x,-y,-z
1/2+x,1/2+y,1/2-z
1/2-x,1/2+y,z
x,-y,1/2+z
loop_
_atom_site_type_symbol
_atom_site_label
_atom_site_fract_x
_atom_site_fract_y
_atom_site_fract_z
Si Si1 0.500000 0.456417 0.250000
Si Si2 0.682658 0.168274 0.981273
Si Si3 0.500000 0.030841 0.250000
Si Si4 0.548845 0.327212 0.952200
Si Si5 0.925088 0.663915 0.537799
Si Si6 0.208007 0.626878 0.142008
O O1 0.455059 0.370176 0.367332
O O2 0.445224 0.540504 0.148187
O O3 0.604137 0.211352 0.941830
O O4 0.724998 0.291690 0.910123
O O5 0.705049 0.030154 0.898843
O O6 0.693056 0.151433 0.171386
O O7 0.440051 0.946203 0.332178
O O8 0.464879 0.113397 0.115633
O O9 0.470994 0.284788 0.908164
O O10 0.849410 0.685533 0.478233
#
# Coordination Sequence:
#
# PCOD9455022 Si02
#       6
#     4   8   4   8   8   8
#     4  10  24  42  66 102 140 178 230 288 356 422
#     4  12  28  48  73 103 144 191 242 298 361 429
#     4  10  20  34  64 100 128 158 218 290 344 398
#     4  11  24  43  69 100 137 183 231 289 352 423
#     4  11  21  39  66  97 131 172 225 284 345 411
#     4  12  27  47  71 104 144 190 242 299 360 429
#
# _framework density 23.851849000000001
#
# number of rings (size 3 to 8) (size 9 to 14) (size 15 to 20)
#    0.000    0.800    0.000    8.400    0.000   11.200 
#    0.000    0.000    0.000    0.000    0.000    0.000 
#    0.000    0.000    0.000    0.000    0.000    0.000 
#
# Total GULP energy -223683.015639 kJ/mol
# GULP energy per Si atom -5592.075391 kJ/mol
# Density = 2.379756 g / cm^3
# Si number density = 23.851849 Si / 1000 Ang^3
#
#
#
# Elastic Constant Matrix: (Units=GPa)
#
#
# Indices 1 2 3 4 5 6 
#
# 1 76.7480 32.5641 16.7631 0.0000 0.0000 0.0000
# 2 32.5641 119.3285 31.7519 0.0000 0.0000 0.0000
# 3 16.7631 31.7519 91.3834 0.0000 0.0000 0.0000
# 4 0.0000 0.0000 0.0000 64.0461 0.0000 0.0000
# 5 0.0000 0.0000 0.0000 0.0000 29.0895 0.0000
# 6 0.0000 0.0000 0.0000 0.0000 0.0000 39.6705
#
#
#
# Elastic Compliance Matrix: (Units=1/GPa)
#
#
# Indices 1 2 3 4 5 6 
#
# 1 0.014910 -0.003681 -0.001456 0.000000 0.000000 0.000000
# 2 -0.003681 0.010143 -0.002849 0.000000 0.000000 0.000000
# 3 -0.001456 -0.002849 0.012200 0.000000 0.000000 0.000000
# 4 0.000000 0.000000 0.000000 0.015614 0.000000 0.000000
# 5 0.000000 0.000000 0.000000 0.000000 0.034377 0.000000
# 6 0.000000 0.000000 0.000000 0.000000 0.000000 0.025208
#
#
# Mechanical properties :
#
#
# Convention : Reuss Voigt Hill
#
# Bulk Modulus (GPa) = 46.99230 49.95756 48.47493
# Shear Modulus (GPa) = 36.89596 40.31994 38.60795
#
# Velocity S-wave (km/s) = 3.93731 4.11595 4.02762
# Velocity P-wave (km/s) = 6.35723 6.60140 6.48046
#
# Compressibility (1/GPa) = 0.02128008
#
# Stress axis : x y z
#
# Youngs Moduli (GPa) = 67.07064 98.59084 81.96828
#
# Poissons Ratio (x) = 0.36295 0.11933
# Poissons Ratio (y) = 0.24691 0.23352
# Poissons Ratio (z) = 0.09764 0.28088
#
# Static dielectric constant tensor:
#      x y z
#    x 2.029050 0.000000 0.000000 
#    y 0.000000 1.947390 0.000000 
#    z 0.000000 0.000000 1.953090 
# 
# From -- ./inp_files/6549.got.cif
#   From: 2010.05.17/outbox.cif.g08.bks.cpg/sg60_4_cif.got.tgz:6549.got - 2010.06.03 14:59:27.
