data_PCOD9455672
_publ_section_title
;
Structure prediction by ZEFSAII (Michael W. Deem and Ramdas Pophale) SiO2 
 PCOD9455672
Probable space group: P B C N
;
_chemical_formula_sum "Si O2"
_cell_formula_units_Z 64
_cell_length_a 13.864041
_cell_length_b 7.116289
_cell_length_c 22.760703
_cell_angle_alpha 90.000000
_cell_angle_beta 90.000000
_cell_angle_gamma 90.000000
_cell_volume 2245.582850
_symmetry_space_group_name_H-M "P B C N"
_symmetry_group_IT_number 60
_symmetry_cell_setting 'orthorhombic'
loop_
_space_group_symop_operation_xyz
x,y,z
1/2-x,1/2-y,1/2+z
1/2+x,1/2-y,-z
-x,y,1/2-z
-x,-y,-z
1/2+x,1/2+y,1/2-z
1/2-x,1/2+y,z
x,-y,1/2+z
loop_
_atom_site_type_symbol
_atom_site_label
_atom_site_fract_x
_atom_site_fract_y
_atom_site_fract_z
Si Si1 0.395781 0.119860 0.606917
Si Si2 0.257051 0.291380 0.186971
Si Si3 0.866507 0.941931 0.422734
Si Si4 0.900198 0.213062 0.231399
Si Si5 0.690425 0.061602 0.008293
Si Si6 0.910379 0.869447 0.083031
Si Si7 0.587266 0.705091 0.711895
Si Si8 0.621714 0.801133 0.110576
O O1 0.325238 0.056451 0.660492
O O2 0.360799 0.335582 0.593938
O O3 0.374720 0.003724 0.548045
O O4 0.509401 0.138602 0.613913
O O5 0.330902 0.322414 0.133341
O O6 0.169500 0.165061 0.214798
O O7 0.322359 0.284736 0.245352
O O8 0.792132 0.908005 0.475623
O O9 0.977560 0.894582 0.433756
O O10 0.846474 0.319752 0.178608
O O11 0.000000 0.308637 0.250000
O O12 0.935871 0.017187 0.204451
O O13 0.642933 0.251128 0.033491
O O14 0.822692 0.419447 0.062145
O O15 0.900873 0.747634 0.143570
O O16 0.871608 0.081220 0.092806
O O17 0.500000 0.786895 0.750000
#
# Coordination Sequence:
#
# PCOD9455672 Si02
#       8
#     8   8   8   8   8   8   8   8
#     4  10  22  46  72 107 146 205 258 320 389 464
#     4  11  20  39  73 115 143 190 267 316 380 472
#     4  10  23  47  77 109 155 208 269 327 390 480
#     4  10  20  41  72 102 153 201 245 314 401 467
#     4  11  25  49  72 116 153 202 274 328 382 469
#     4  10  23  50  80 112 156 213 260 326 412 469
#     4  10  20  42  74 109 147 200 258 317 390 477
#     4  10  22  47  77 108 155 204 255 325 400 468
#
# _framework density 28.500397
#
# number of rings (size 3 to 8) (size 9 to 14) (size 15 to 20)
#    0.000    1.750    2.500    1.125    0.000    2.000 
#   27.000    1.875    0.000    0.000    3.250    0.000 
#    0.000    0.000    0.000    0.000    0.000    0.000 
#
# Total GULP energy -358030.288003 kJ/mol
# GULP energy per Si atom -5594.223250 kJ/mol
# Density = 2.843553 g / cm^3
# Si number density = 28.500397 Si / 1000 Ang^3
#
#
#
# Elastic Constant Matrix: (Units=GPa)
#
#
# Indices 1 2 3 4 5 6 
#
# 1 195.2718 35.5764 97.8042 0.0000 0.0000 0.0000
# 2 35.5764 112.7674 34.6831 0.0000 0.0000 0.0000
# 3 97.8042 34.6831 248.8836 0.0000 0.0000 0.0000
# 4 0.0000 0.0000 0.0000 44.6435 0.0000 0.0000
# 5 0.0000 0.0000 0.0000 0.0000 38.7873 0.0000
# 6 0.0000 0.0000 0.0000 0.0000 0.0000 8409.2308
#
#
#
# Elastic Compliance Matrix: (Units=1/GPa)
#
#
# Indices 1 2 3 4 5 6 
#
# 1 0.006563 -0.001334 -0.002393 0.000000 0.000000 0.000000
# 2 -0.001334 0.009536 -0.000805 0.000000 0.000000 0.000000
# 3 -0.002393 -0.000805 0.005070 0.000000 0.000000 0.000000
# 4 0.000000 0.000000 0.000000 0.022400 0.000000 0.000000
# 5 0.000000 0.000000 0.000000 0.000000 0.025782 0.000000
# 6 0.000000 0.000000 0.000000 0.000000 0.000000 0.000119
#
#
# Mechanical properties :
#
#
# Convention : Reuss Voigt Hill
#
# Bulk Modulus (GPa) = 82.60722 99.22782 90.91752
# Shear Modulus (GPa) = 60.55553 1724.45626 892.50589
#
# Velocity S-wave (km/s) = 4.61448 24.62473 17.71540
# Velocity P-wave (km/s) = 7.57883 29.04127 21.22303
#
# Compressibility (1/GPa) = 0.01210548
#
# Stress axis : x y z
#
# Youngs Moduli (GPa) = 152.37493 104.86304 197.22143
#
# Poissons Ratio (x) = 0.13993 0.47195
# Poissons Ratio (y) = 0.20334 0.15867
# Poissons Ratio (z) = 0.36464 0.08436
#
# Static dielectric constant tensor:
#      x y z
#    x 2.145520 0.000000 0.000000 
#    y 0.000000 2.516170 0.000000 
#    z 0.000000 0.000000 2.310760 
# 
# From -- ./inp_files/24298.got.cif
#   From: 2010.05.17/outbox.cif.g08.bks.cpg/sg60_13_cif.got.tgz:24298.got - 2010.06.03 14:59:27.
