data_PCOD9455244
_publ_section_title
;
Structure prediction by ZEFSAII (Michael W. Deem and Ramdas Pophale) SiO2 
 PCOD9455244
Probable space group: P B C N
;
_chemical_formula_sum "Si O2"
_cell_formula_units_Z 56
_cell_length_a 14.699609
_cell_length_b 11.652031
_cell_length_c 14.533505
_cell_angle_alpha 90.000000
_cell_angle_beta 90.000000
_cell_angle_gamma 90.000000
_cell_volume 2489.303093
_symmetry_space_group_name_H-M "P B C N"
_symmetry_group_IT_number 60
_symmetry_cell_setting 'orthorhombic'
loop_
_space_group_symop_operation_xyz
x,y,z
1/2-x,1/2-y,1/2+z
1/2+x,1/2-y,-z
-x,y,1/2-z
-x,-y,-z
1/2+x,1/2+y,1/2-z
1/2-x,1/2+y,z
x,-y,1/2+z
loop_
_atom_site_type_symbol
_atom_site_label
_atom_site_fract_x
_atom_site_fract_y
_atom_site_fract_z
Si Si1 0.657065 0.776774 0.073397
Si Si2 0.355592 0.616694 0.966143
Si Si3 0.656400 0.386662 0.422776
Si Si4 0.343459 0.230599 0.620384
Si Si5 0.096893 0.171690 0.770410
Si Si6 0.596099 0.060160 0.725120
Si Si7 0.748471 0.866451 0.726748
O O1 0.750539 0.844454 0.048913
O O2 0.597809 0.867502 0.130420
O O3 0.686369 0.670230 0.141482
O O4 0.617448 0.721827 0.980448
O O5 0.401796 0.607670 0.867144
O O6 0.360516 0.498586 0.019007
O O7 0.393971 0.716209 0.033065
O O8 0.762481 0.351864 0.415099
O O9 0.621051 0.401068 0.319480
O O10 0.394853 0.155270 0.694932
O O11 0.299787 0.337448 0.677955
O O12 0.172497 0.267808 0.777654
O O13 0.000000 0.224225 0.750000
O O14 0.500000 0.000434 0.750000
O O15 0.688130 0.981988 0.724191
#
# Coordination Sequence:
#
# PCOD9455244 Si02
#       7
#     8   8   8   8   8   8   8
#     4   9  20  36  58  86 114 150 197 237 277 343
#     4  10  20  37  60  80 106 150 199 239 280 340
#     4  10  20  37  60  80 106 150 199 239 280 340
#     4   9  20  36  58  86 114 150 197 237 277 343
#     4  10  22  37  53  79 112 148 190 235 289 350
#     4  11  21  34  59  95 126 148 182 243 299 332
#     4   9  18  37  61  82 116 160 192 224 283 356
#
# _framework density 22.496257
#
# number of rings (size 3 to 8) (size 9 to 14) (size 15 to 20)
#    0.000    2.286    0.000    3.000    0.000    4.000 
#    0.000    2.857    0.000   18.000    0.000    0.000 
#    0.000    0.000    0.000    0.000    0.000    0.000 
#
# Total GULP energy -312549.353708 kJ/mol
# GULP energy per Si atom -5581.238459 kJ/mol
# Density = 2.244505 g / cm^3
# Si number density = 22.496257 Si / 1000 Ang^3
#
#
#
# Elastic Constant Matrix: (Units=GPa)
#
#
# Indices 1 2 3 4 5 6 
#
# 1 10.5599 -4.5606 -14.0020 0.0000 0.0000 0.0000
# 2 -4.5606 81.6761 41.6556 0.0000 0.0000 0.0000
# 3 -14.0020 41.6556 134.8525 0.0000 0.0000 0.0000
# 4 0.0000 0.0000 0.0000 26.7168 0.0000 0.0000
# 5 0.0000 0.0000 0.0000 0.0000 3.4130 0.0000
# 6 0.0000 0.0000 0.0000 0.0000 0.0000 -5.3941
#
#
#
# Elastic Compliance Matrix: (Units=1/GPa)
#
#
# Indices 1 2 3 4 5 6 
#
# 1 0.109827 0.000376 0.011287 0.000000 0.000000 0.000000
# 2 0.000376 0.014534 -0.004451 0.000000 0.000000 0.000000
# 3 0.011287 -0.004451 0.009962 0.000000 0.000000 0.000000
# 4 0.000000 0.000000 0.000000 0.037430 0.000000 0.000000
# 5 0.000000 0.000000 0.000000 0.000000 0.292997 0.000000
# 6 0.000000 0.000000 0.000000 0.000000 0.000000 -0.185387
#
#
# Mechanical properties :
#
#
# Convention : Reuss Voigt Hill
#
# Bulk Modulus (GPa) = 6.72277 30.36383 18.54330
# Shear Modulus (GPa) = 15.89721 18.54683 17.22202
#
# Velocity S-wave (km/s) = 2.66119 2.87442 2.76986
# Velocity P-wave (km/s) = 3.52668 4.95409 4.30003
#
# Compressibility (1/GPa) = 0.14874831
#
# Stress axis : x y z
#
# Youngs Moduli (GPa) = 9.10527 68.80274 100.37863
#
# Poissons Ratio (x) = -0.02585 -1.13302
# Poissons Ratio (y) = -0.00342 0.44674
# Poissons Ratio (z) = -0.10278 0.30621
#
# Static dielectric constant tensor:
#      x y z
#    x 1.880560 0.000000 0.000000 
#    y 0.000000 1.820930 0.000000 
#    z 0.000000 0.000000 1.882840 
# 
# From -- ./inp_files/16855.got.cif
#   From: 2010.05.17/outbox.cif.g08.bks.cpg/sg60_9_cif.got.tgz:16855.got - 2010.06.03 14:59:27.
