data_PCOD9455545
_publ_section_title
;
Structure prediction by ZEFSAII (Michael W. Deem and Ramdas Pophale) SiO2 
 PCOD9455545
Probable space group: P B C N
;
_chemical_formula_sum "Si O2"
_cell_formula_units_Z 28
_cell_length_a 7.696220
_cell_length_b 9.847845
_cell_length_c 15.685946
_cell_angle_alpha 90.000000
_cell_angle_beta 90.000000
_cell_angle_gamma 90.000000
_cell_volume 1188.856383
_symmetry_space_group_name_H-M "P B C N"
_symmetry_group_IT_number 60
_symmetry_cell_setting 'orthorhombic'
loop_
_space_group_symop_operation_xyz
x,y,z
1/2-x,1/2-y,1/2+z
1/2+x,1/2-y,-z
-x,y,1/2-z
-x,-y,-z
1/2+x,1/2+y,1/2-z
1/2-x,1/2+y,z
x,-y,1/2+z
loop_
_atom_site_type_symbol
_atom_site_label
_atom_site_fract_x
_atom_site_fract_y
_atom_site_fract_z
Si Si1 0.409385 0.263955 0.121235
Si Si2 0.247236 0.869212 0.878642
Si Si3 0.000000 0.025332 0.750000
Si Si4 0.783758 0.124140 0.518882
O O1 0.558418 0.160754 0.153744
O O2 0.377487 0.374491 0.193800
O O3 0.519290 0.347358 0.048661
O O4 0.260806 0.179282 0.074354
O O5 0.186035 0.723337 0.913550
O O6 0.268439 0.972585 0.958100
O O7 0.119552 0.936395 0.811511
#
# Coordination Sequence:
#
# PCOD9455545 Si02
#       4
#     8   8   4   8
#     4   9  20  39  60  91 117 163 202 253 296 368
#     4   9  20  39  61  87 125 157 206 253 297 367
#     4  10  20  40  56  90 134 152 196 256 316 352
#     4   9  19  37  62  86 120 158 212 243 300 362
#
# _framework density 23.552047000000002
#
# number of rings (size 3 to 8) (size 9 to 14) (size 15 to 20)
#    1.714    1.143    0.000    0.857    0.000    4.571 
#   10.286    1.429    0.000    0.000    0.000    0.000 
#    0.000    0.000    0.000    0.000    0.000    0.000 
#
# Total GULP energy -156044.546569 kJ/mol
# GULP energy per Si atom -5573.019520 kJ/mol
# Density = 2.349844 g / cm^3
# Si number density = 23.552047 Si / 1000 Ang^3
#
#
#
# Elastic Constant Matrix: (Units=GPa)
#
#
# Indices 1 2 3 4 5 6 
#
# 1 29.3682 22.3934 33.8003 0.0000 0.0000 0.0000
# 2 22.3934 108.2777 27.9608 0.0000 0.0000 0.0000
# 3 33.8003 27.9608 79.9690 0.0000 0.0000 0.0000
# 4 0.0000 0.0000 0.0000 33.3733 0.0000 0.0000
# 5 0.0000 0.0000 0.0000 0.0000 29.1627 0.0000
# 6 0.0000 0.0000 0.0000 0.0000 0.0000 10.8538
#
#
#
# Elastic Compliance Matrix: (Units=1/GPa)
#
#
# Indices 1 2 3 4 5 6 
#
# 1 0.071702 -0.007698 -0.027615 0.000000 0.000000 0.000000
# 2 -0.007698 0.010979 -0.000585 0.000000 0.000000 0.000000
# 3 -0.027615 -0.000585 0.024381 0.000000 0.000000 0.000000
# 4 0.000000 0.000000 0.000000 0.029964 0.000000 0.000000
# 5 0.000000 0.000000 0.000000 0.000000 0.034290 0.000000
# 6 0.000000 0.000000 0.000000 0.000000 0.000000 0.092134
#
#
# Mechanical properties :
#
#
# Convention : Reuss Voigt Hill
#
# Bulk Modulus (GPa) = 28.35519 42.88042 35.61780
# Shear Modulus (GPa) = 14.40915 23.57530 18.99223
#
# Velocity S-wave (km/s) = 2.47614 3.16727 2.84279
# Velocity P-wave (km/s) = 4.49895 5.62331 5.09226
#
# Compressibility (1/GPa) = 0.03526692
#
# Stress axis : x y z
#
# Youngs Moduli (GPa) = 13.94653 91.08608 41.01525
#
# Poissons Ratio (x) = 0.70119 1.13262
# Poissons Ratio (y) = 0.10736 0.02399
# Poissons Ratio (z) = 0.38513 0.05328
#
# Static dielectric constant tensor:
#      x y z
#    x 1.926570 0.000000 0.000000 
#    y 0.000000 1.880110 0.000000 
#    z 0.000000 0.000000 1.953000 
# 
# From -- ./inp_files/14239.got.cif
#   From: 2010.05.17/outbox.cif.g08.bks.cpg/sg60_8_cif.got.tgz:14239.got - 2010.06.03 14:59:27.
