data_PCOD9455513
_publ_section_title
;
Structure prediction by ZEFSAII (Michael W. Deem and Ramdas Pophale) SiO2 
 PCOD9455513
Probable space group: P B C N
;
_chemical_formula_sum "Si O2"
_cell_formula_units_Z 48
_cell_length_a 15.445601
_cell_length_b 14.422409
_cell_length_c 8.380364
_cell_angle_alpha 90.000000
_cell_angle_beta 90.000000
_cell_angle_gamma 90.000000
_cell_volume 1866.833139
_symmetry_space_group_name_H-M "P B C N"
_symmetry_group_IT_number 60
_symmetry_cell_setting 'orthorhombic'
loop_
_space_group_symop_operation_xyz
x,y,z
1/2-x,1/2-y,1/2+z
1/2+x,1/2-y,-z
-x,y,1/2-z
-x,-y,-z
1/2+x,1/2+y,1/2-z
1/2-x,1/2+y,z
x,-y,1/2+z
loop_
_atom_site_type_symbol
_atom_site_label
_atom_site_fract_x
_atom_site_fract_y
_atom_site_fract_z
Si Si1 0.246563 0.816164 0.135673
Si Si2 0.914948 0.871020 0.177840
Si Si3 0.881690 0.239881 0.138452
Si Si4 0.696605 0.989388 0.780818
Si Si5 0.612732 0.428095 0.812371
Si Si6 0.075121 0.423873 0.484907
O O1 0.174075 0.821026 0.274808
O O2 0.332744 0.766929 0.197935
O O3 0.276723 0.922458 0.107597
O O4 0.193676 0.771867 0.992022
O O5 0.000000 0.820989 0.250000
O O6 0.913173 0.966468 0.279931
O O7 0.908918 0.897867 0.992189
O O8 0.921818 0.140560 0.175032
O O9 0.945160 0.321769 0.081005
O O10 0.784023 0.931644 0.774460
O O11 0.652155 0.040478 0.631686
O O12 0.621770 0.923101 0.845773
O O13 0.000000 0.500000 0.500000
#
# Coordination Sequence:
#
# PCOD9455513 Si02
#       6
#     8   8   8   8   8   8
#     4  10  21  39  63  95 126 171 226 279 335 396
#     4  11  23  41  65  96 136 171 207 267 352 418
#     4  11  22  39  66  96 129 170 232 288 330 401
#     4  10  20  39  65  88 123 172 223 272 334 407
#     4  11  21  40  68  96 126 171 222 274 331 410
#     4  11  23  40  61  91 130 177 221 274 345 404
#
# _framework density 25.711994000000001
#
# number of rings (size 3 to 8) (size 9 to 14) (size 15 to 20)
#    0.000    1.333    0.000    9.000    0.000    0.000 
#    0.000   15.000    0.000    2.000    0.000    0.000 
#    0.000    0.000    0.000    0.000    0.000    0.000 
#
# Total GULP energy -268433.389383 kJ/mol
# GULP energy per Si atom -5592.362279 kJ/mol
# Density = 2.565347 g / cm^3
# Si number density = 25.711994 Si / 1000 Ang^3
#
#
#
# Elastic Constant Matrix: (Units=GPa)
#
#
# Indices 1 2 3 4 5 6 
#
# 1 107.5827 1.7727 -2.5403 0.0000 0.0000 0.0000
# 2 1.7727 80.8772 8.9614 0.0000 0.0000 0.0000
# 3 -2.5403 8.9614 89.9201 0.0000 0.0000 0.0000
# 4 0.0000 0.0000 0.0000 30.8955 0.0000 0.0000
# 5 0.0000 0.0000 0.0000 0.0000 41.6586 0.0000
# 6 0.0000 0.0000 0.0000 0.0000 0.0000 16.0179
#
#
#
# Elastic Compliance Matrix: (Units=1/GPa)
#
#
# Indices 1 2 3 4 5 6 
#
# 1 0.009306 -0.000236 0.000286 0.000000 0.000000 0.000000
# 2 -0.000236 0.012508 -0.001253 0.000000 0.000000 0.000000
# 3 0.000286 -0.001253 0.011254 0.000000 0.000000 0.000000
# 4 0.000000 0.000000 0.000000 0.032367 0.000000 0.000000
# 5 0.000000 0.000000 0.000000 0.000000 0.024005 0.000000
# 6 0.000000 0.000000 0.000000 0.000000 0.000000 0.062430
#
#
# Mechanical properties :
#
#
# Convention : Reuss Voigt Hill
#
# Bulk Modulus (GPa) = 32.61246 32.75195 32.68220
# Shear Modulus (GPa) = 30.39584 35.72683 33.06133
#
# Velocity S-wave (km/s) = 3.44199 3.73164 3.58974
# Velocity P-wave (km/s) = 5.33926 5.59755 5.46993
#
# Compressibility (1/GPa) = 0.03066313
#
# Stress axis : x y z
#
# Youngs Moduli (GPa) = 107.45963 79.94595 88.85750
#
# Poissons Ratio (x) = 0.01884 -0.02545
# Poissons Ratio (y) = 0.02533 0.11136
# Poissons Ratio (z) = -0.03077 0.10019
#
# Static dielectric constant tensor:
#      x y z
#    x 2.144650 0.000000 0.000000 
#    y 0.000000 2.072040 0.000000 
#    z 0.000000 0.000000 2.039000 
# 
# From -- ./inp_files/6733.got.cif
#   From: 2010.05.17/outbox.cif.g08.bks.cpg/sg60_4_cif.got.tgz:6733.got - 2010.06.03 14:59:27.
