data_PCOD9455121
_publ_section_title
;
Structure prediction by ZEFSAII (Michael W. Deem and Ramdas Pophale) SiO2 
 PCOD9455121
Probable space group: P B C N
;
_chemical_formula_sum "Si O2"
_cell_formula_units_Z 32
_cell_length_a 9.117691
_cell_length_b 26.747156
_cell_length_c 5.147259
_cell_angle_alpha 90.000000
_cell_angle_beta 90.000000
_cell_angle_gamma 90.000000
_cell_volume 1255.273909
_symmetry_space_group_name_H-M "P B C N"
_symmetry_group_IT_number 60
_symmetry_cell_setting 'orthorhombic'
loop_
_space_group_symop_operation_xyz
x,y,z
1/2-x,1/2-y,1/2+z
1/2+x,1/2-y,-z
-x,y,1/2-z
-x,-y,-z
1/2+x,1/2+y,1/2-z
1/2-x,1/2+y,z
x,-y,1/2+z
loop_
_atom_site_type_symbol
_atom_site_label
_atom_site_fract_x
_atom_site_fract_y
_atom_site_fract_z
Si Si1 0.872888 0.798216 0.045458
Si Si2 0.069110 0.055414 0.500410
Si Si3 0.796520 0.683920 0.029001
Si Si4 0.908155 0.574271 0.012917
O O1 0.872939 0.737644 0.053587
O O2 0.738727 0.818173 0.220964
O O3 0.000000 0.812305 0.250000
O O4 0.835913 0.812629 0.745989
O O5 0.243348 0.052677 0.506961
O O6 0.000000 0.080903 0.750000
O O7 0.000000 0.000000 0.500000
O O8 0.000000 0.081222 0.250000
O O9 0.878634 0.632524 0.078332
O O10 0.000000 0.551398 0.250000
O O11 0.000000 0.569829 0.750000
#
# Coordination Sequence:
#
# PCOD9455121 Si02
#       4
#     8   8   8   8
#     4  10  20  36  56  83 123 179 228 268 323 382
#     4  10  23  47  72  99 135 172 211 270 340 407
#     4  10  22  36  56  88 127 170 222 276 323 381
#     4  12  25  43  69 102 135 175 224 278 337 398
#
# _framework density 25.492446000000001
#
# number of rings (size 3 to 8) (size 9 to 14) (size 15 to 20)
#    0.000    1.500    0.000    4.500    0.000    7.000 
#    0.000   15.000    0.000    0.000    0.000    0.000 
#    0.000    0.000    0.000    0.000    0.000    0.000 
#
# Total GULP energy -178725.572322 kJ/mol
# GULP energy per Si atom -5585.174135 kJ/mol
# Density = 2.543442 g / cm^3
# Si number density = 25.492446 Si / 1000 Ang^3
#
#
#
# Elastic Constant Matrix: (Units=GPa)
#
#
# Indices 1 2 3 4 5 6 
#
# 1 180.4957 41.1710 73.8961 0.0000 0.0000 0.0000
# 2 41.1710 129.8984 6.1346 0.0000 0.0000 0.0000
# 3 73.8961 6.1346 234.7863 0.0000 0.0000 0.0000
# 4 0.0000 0.0000 0.0000 -99.6375 0.0000 0.0000
# 5 0.0000 0.0000 0.0000 0.0000 34.6399 0.0000
# 6 0.0000 0.0000 0.0000 0.0000 0.0000 698.3045
#
#
#
# Elastic Compliance Matrix: (Units=1/GPa)
#
#
# Indices 1 2 3 4 5 6 
#
# 1 0.006879 -0.002081 -0.002111 0.000000 0.000000 0.000000
# 2 -0.002081 0.008337 0.000437 0.000000 0.000000 0.000000
# 3 -0.002111 0.000437 0.004912 0.000000 0.000000 0.000000
# 4 0.000000 0.000000 0.000000 -0.010036 0.000000 0.000000
# 5 0.000000 0.000000 0.000000 0.000000 0.028868 0.000000
# 6 0.000000 0.000000 0.000000 0.000000 0.000000 0.001432
#
#
# Mechanical properties :
#
#
# Convention : Reuss Voigt Hill
#
# Bulk Modulus (GPa) = 79.24179 87.50930 83.37554
# Shear Modulus (GPa) = 95.95542 154.92664 125.44103
#
# Velocity S-wave (km/s) = 6.14186 7.80420 7.02239
# Velocity P-wave (km/s) = 9.02488 10.75218 9.92617
#
# Compressibility (1/GPa) = 0.01261960
#
# Stress axis : x y z
#
# Youngs Moduli (GPa) = 145.36936 119.94538 203.57902
#
# Poissons Ratio (x) = 0.24956 0.42970
# Poissons Ratio (y) = 0.30246 -0.08897
# Poissons Ratio (z) = 0.30683 -0.05242
#
# Static dielectric constant tensor:
#      x y z
#    x 2.165450 0.000000 0.000000 
#    y 0.000000 2.139080 0.000000 
#    z 0.000000 0.000000 2.120890 
# 
# From -- ./inp_files/431.got.cif
#   From: 2010.05.17/outbox.cif.g08.bks.cpg/sg60_1_cif.got.tgz:431.got - 2010.06.03 14:59:27.
