data_PCOD9455334
_publ_section_title
;
Structure prediction by ZEFSAII (Michael W. Deem and Ramdas Pophale) SiO2 
 PCOD9455334
Probable space group: P B C N
;
_chemical_formula_sum "Si O2"
_cell_formula_units_Z 48
_cell_length_a 25.923842
_cell_length_b 11.368044
_cell_length_c 8.699014
_cell_angle_alpha 90.000000
_cell_angle_beta 90.000000
_cell_angle_gamma 90.000000
_cell_volume 2563.628798
_symmetry_space_group_name_H-M "P B C N"
_symmetry_group_IT_number 60
_symmetry_cell_setting 'orthorhombic'
loop_
_space_group_symop_operation_xyz
x,y,z
1/2-x,1/2-y,1/2+z
1/2+x,1/2-y,-z
-x,y,1/2-z
-x,-y,-z
1/2+x,1/2+y,1/2-z
1/2-x,1/2+y,z
x,-y,1/2+z
loop_
_atom_site_type_symbol
_atom_site_label
_atom_site_fract_x
_atom_site_fract_y
_atom_site_fract_z
Si Si1 0.239845 0.906437 0.782404
Si Si2 0.554503 0.175521 0.807520
Si Si3 0.348554 0.799861 0.762587
Si Si4 0.149687 0.828046 0.588420
Si Si5 0.551903 0.936352 0.652337
Si Si6 0.815568 0.082437 0.905577
O O1 0.298812 0.882686 0.746579
O O2 0.202400 0.819707 0.686168
O O3 0.220300 0.035598 0.732880
O O4 0.223355 0.893926 0.956829
O O5 0.500000 0.228682 0.750000
O O6 0.600644 0.268765 0.828439
O O7 0.564689 0.074010 0.680340
O O8 0.548336 0.108665 0.974983
O O9 0.401542 0.868264 0.767275
O O10 0.346062 0.698194 0.636739
O O11 0.344057 0.735946 0.927216
O O12 0.147336 0.969849 0.563050
O O13 0.500000 0.914393 0.750000
#
# Coordination Sequence:
#
# PCOD9455334 Si02
#       6
#     8   8   8   8   8   8
#     4  10  21  34  59  80 117 147 184 233 282 339
#     4  10  20  38  60  81 116 148 195 237 289 340
#     4  11  21  37  58  83 111 154 189 231 290 345
#     4   9  20  39  54  83 115 147 188 235 278 337
#     4  10  22  37  56  86 116 145 193 246 283 337
#     4  10  20  39  54  82 120 142 191 234 277 340
#
# _framework density 18.723458999999998
#
# number of rings (size 3 to 8) (size 9 to 14) (size 15 to 20)
#    1.000    1.000    1.667    3.000    0.000    6.667 
#    0.000    0.833    0.000    5.000    0.000    0.000 
#    0.000    0.000    0.000    0.000    0.000    0.000 
#
# Total GULP energy -267341.142235 kJ/mol
# GULP energy per Si atom -5569.607130 kJ/mol
# Density = 1.868084 g / cm^3
# Si number density = 18.723459 Si / 1000 Ang^3
#
#
#
# Elastic Constant Matrix: (Units=GPa)
#
#
# Indices 1 2 3 4 5 6 
#
# 1 97.9926 36.6353 7.9279 0.0000 0.0000 0.0000
# 2 36.6353 48.5070 -8.4261 0.0000 0.0000 0.0000
# 3 7.9279 -8.4261 30.1461 0.0000 0.0000 0.0000
# 4 0.0000 0.0000 0.0000 -291.3694 0.0000 0.0000
# 5 0.0000 0.0000 0.0000 0.0000 13.1221 0.0000
# 6 0.0000 0.0000 0.0000 0.0000 0.0000 -447.5090
#
#
#
# Elastic Compliance Matrix: (Units=1/GPa)
#
#
# Indices 1 2 3 4 5 6 
#
# 1 0.015822 -0.013319 -0.007884 0.000000 0.000000 0.000000
# 2 -0.013319 0.032880 0.012693 0.000000 0.000000 0.000000
# 3 -0.007884 0.012693 0.038793 0.000000 0.000000 0.000000
# 4 0.000000 0.000000 0.000000 -0.003432 0.000000 0.000000
# 5 0.000000 0.000000 0.000000 0.000000 0.076207 0.000000
# 6 0.000000 0.000000 0.000000 0.000000 0.000000 -0.002235
#
#
# Mechanical properties :
#
#
# Convention : Reuss Voigt Hill
#
# Bulk Modulus (GPa) = 14.18947 27.65777 20.92362
# Shear Modulus (GPa) = 25.18287 -135.78401 -55.30057
#
# Velocity S-wave (km/s) = 3.67139 -8.52515 -5.44055
# Velocity P-wave (km/s) = 5.05639 9.06093 5.31665
#
# Compressibility (1/GPa) = 0.07047480
#
# Stress axis : x y z
#
# Youngs Moduli (GPa) = 63.20216 30.41360 25.77787
#
# Poissons Ratio (x) = 0.40509 0.20323
# Poissons Ratio (y) = 0.84181 -0.32720
# Poissons Ratio (z) = 0.49828 -0.38604
#
# Static dielectric constant tensor:
#      x y z
#    x 1.633940 0.000000 0.000000 
#    y 0.000000 1.661870 0.000000 
#    z 0.000000 0.000000 1.684450 
# 
# From -- ./inp_files/8120.got.cif
#   From: 2010.05.17/outbox.cif.g08.bks.cpg/sg60_5_cif.got.tgz:8120.got - 2010.06.03 14:59:27.
