data_PCOD9455444
_publ_section_title
;
Structure prediction by ZEFSAII (Michael W. Deem and Ramdas Pophale) SiO2 
 PCOD9455444
Probable space group: P B C N
;
_chemical_formula_sum "Si O2"
_cell_formula_units_Z 60
_cell_length_a 12.533196
_cell_length_b 17.680189
_cell_length_c 10.473524
_cell_angle_alpha 90.000000
_cell_angle_beta 90.000000
_cell_angle_gamma 90.000000
_cell_volume 2320.820580
_symmetry_space_group_name_H-M "P B C N"
_symmetry_group_IT_number 60
_symmetry_cell_setting 'orthorhombic'
loop_
_space_group_symop_operation_xyz
x,y,z
1/2-x,1/2-y,1/2+z
1/2+x,1/2-y,-z
-x,y,1/2-z
-x,-y,-z
1/2+x,1/2+y,1/2-z
1/2-x,1/2+y,z
x,-y,1/2+z
loop_
_atom_site_type_symbol
_atom_site_label
_atom_site_fract_x
_atom_site_fract_y
_atom_site_fract_z
Si Si1 0.637083 0.454240 0.032533
Si Si2 0.476327 0.824516 0.961045
Si Si3 0.178579 0.890009 0.074140
Si Si4 0.595668 0.075628 0.818728
Si Si5 0.908200 0.814140 0.854570
Si Si6 0.500000 0.386814 0.250000
Si Si7 0.223097 0.708569 0.343042
Si Si8 0.178341 0.356736 0.421970
O O1 0.575661 0.437211 0.162028
O O2 0.762979 0.435287 0.052369
O O3 0.621054 0.538930 0.989517
O O4 0.601338 0.392487 0.929453
O O5 0.444180 0.899257 0.042396
O O6 0.440532 0.754060 0.051142
O O7 0.603176 0.829718 0.963957
O O8 0.399434 0.816985 0.840462
O O9 0.276352 0.929318 0.153282
O O10 0.088096 0.847404 0.158523
O O11 0.224824 0.838263 0.961532
O O12 0.500000 0.026027 0.750000
O O13 0.606122 0.138019 0.705020
O O14 0.797001 0.800594 0.780147
O O15 0.000000 0.819477 0.750000
O O16 0.233124 0.795298 0.387766
#
# Coordination Sequence:
#
# PCOD9455444 Si02
#       8
#     8   8   8   8   8   4   8   8
#     4  12  28  44  70 102 138 188 228 292 350 428
#     4  10  20  38  67 100 128 182 224 286 356 400
#     4  11  26  44  67 102 140 187 228 286 363 416
#     4   9  18  40  70  96 127 181 232 278 342 415
#     4  12  22  39  68  98 136 179 234 281 357 424
#     4  12  26  48  68  98 146 178 234 284 352 436
#     4  11  23  40  67 102 139 175 234 293 338 426
#     4  11  20  42  68  96 137 175 234 290 345 416
#
# _framework density 25.852924000000002
#
# number of rings (size 3 to 8) (size 9 to 14) (size 15 to 20)
#    0.000    1.067    5.333    1.600    2.800    0.000 
#    0.000    8.000    0.000    0.000    0.000    0.000 
#    0.000    0.000    0.000    0.000    0.000    0.000 
#
# Total GULP energy -335245.748369 kJ/mol
# GULP energy per Si atom -5587.429139 kJ/mol
# Density = 2.579408 g / cm^3
# Si number density = 25.852924 Si / 1000 Ang^3
#
#
#
# Elastic Constant Matrix: (Units=GPa)
#
#
# Indices 1 2 3 4 5 6 
#
# 1 154.8681 -6.2599 38.6642 0.0000 0.0000 0.0000
# 2 -6.2599 47.4504 14.8882 0.0000 0.0000 0.0000
# 3 38.6642 14.8882 82.0527 0.0000 0.0000 0.0000
# 4 0.0000 0.0000 0.0000 16.9687 0.0000 0.0000
# 5 0.0000 0.0000 0.0000 0.0000 68.6698 0.0000
# 6 0.0000 0.0000 0.0000 0.0000 0.0000 31.6763
#
#
#
# Elastic Compliance Matrix: (Units=1/GPa)
#
#
# Indices 1 2 3 4 5 6 
#
# 1 0.007535 0.002235 -0.003956 0.000000 0.000000 0.000000
# 2 0.002235 0.023010 -0.005228 0.000000 0.000000 0.000000
# 3 -0.003956 -0.005228 0.015000 0.000000 0.000000 0.000000
# 4 0.000000 0.000000 0.000000 0.058932 0.000000 0.000000
# 5 0.000000 0.000000 0.000000 0.000000 0.014562 0.000000
# 6 0.000000 0.000000 0.000000 0.000000 0.000000 0.031569
#
#
# Mechanical properties :
#
#
# Convention : Reuss Voigt Hill
#
# Bulk Modulus (GPa) = 31.59876 42.10625 36.85251
# Shear Modulus (GPa) = 28.56218 39.26821 33.91520
#
# Velocity S-wave (km/s) = 3.32745 3.90155 3.62588
# Velocity P-wave (km/s) = 5.19727 6.05130 5.64047
#
# Compressibility (1/GPa) = 0.03164681
#
# Stress axis : x y z
#
# Youngs Moduli (GPa) = 132.71076 43.45932 66.66572
#
# Poissons Ratio (x) = -0.09715 0.26375
# Poissons Ratio (y) = -0.29666 0.34856
# Poissons Ratio (z) = 0.52504 0.22722
#
# Static dielectric constant tensor:
#      x y z
#    x 2.197270 0.000000 0.000000 
#    y 0.000000 1.969670 0.000000 
#    z 0.000000 0.000000 2.113150 
# 
# From -- ./inp_files/11274.got.cif
#   From: 2010.05.17/outbox.cif.g08.bks.cpg/sg60_6_cif.got.tgz:11274.got - 2010.06.03 14:59:27.
