data_PCOD9455411
_publ_section_title
;
Structure prediction by ZEFSAII (Michael W. Deem and Ramdas Pophale) SiO2 
 PCOD9455411
Probable space group: P B C N
;
_chemical_formula_sum "Si O2"
_cell_formula_units_Z 60
_cell_length_a 12.907090
_cell_length_b 9.805239
_cell_length_c 24.575030
_cell_angle_alpha 90.000000
_cell_angle_beta 90.000000
_cell_angle_gamma 90.000000
_cell_volume 3110.144584
_symmetry_space_group_name_H-M "P B C N"
_symmetry_group_IT_number 60
_symmetry_cell_setting 'orthorhombic'
loop_
_space_group_symop_operation_xyz
x,y,z
1/2-x,1/2-y,1/2+z
1/2+x,1/2-y,-z
-x,y,1/2-z
-x,-y,-z
1/2+x,1/2+y,1/2-z
1/2-x,1/2+y,z
x,-y,1/2+z
loop_
_atom_site_type_symbol
_atom_site_label
_atom_site_fract_x
_atom_site_fract_y
_atom_site_fract_z
Si Si1 0.720764 0.881092 0.585433
Si Si2 0.560569 0.468430 0.916174
Si Si3 0.642256 0.604846 0.531055
Si Si4 0.328984 0.634648 0.672765
Si Si5 0.346494 0.069883 0.206163
Si Si6 0.079465 0.504563 0.322212
Si Si7 0.585322 0.685417 0.163173
Si Si8 0.500000 0.514654 0.750000
O O1 0.679245 0.749745 0.553641
O O2 0.631456 0.947363 0.622168
O O3 0.812493 0.838935 0.627195
O O4 0.770654 0.993161 0.545750
O O5 0.462004 0.554877 0.938036
O O6 0.635860 0.572046 0.884685
O O7 0.512625 0.356414 0.874910
O O8 0.615606 0.399197 0.967439
O O9 0.231649 0.550793 0.693751
O O10 0.305140 0.793006 0.678626
O O11 0.428076 0.605209 0.711547
O O12 0.459705 0.043134 0.181740
O O13 0.362897 0.075562 0.271254
O O14 0.085619 0.340923 0.317439
O O15 0.573648 0.582141 0.213644
#
# Coordination Sequence:
#
# PCOD9455411 Si02
#       8
#     8   8   8   8   8   8   8   4
#     4  11  21  38  66  93 122 157 215 261 324 368
#     4   9  22  42  66  83 128 160 216 253 325 369
#     4  10  21  41  64  92 116 163 206 273 311 374
#     4  11  24  41  61  92 122 174 203 258 311 381
#     4  11  26  38  61  89 133 165 207 250 318 381
#     4  11  23  40  61  92 131 159 210 260 310 386
#     4  10  21  38  65  96 120 167 200 264 311 386
#     4  10  20  38  64  86 126 158 214 244 320 374
#
# _framework density 19.291706999999999
#
# number of rings (size 3 to 8) (size 9 to 14) (size 15 to 20)
#    0.000    1.600    1.333    3.200    7.467    3.200 
#    0.000    2.000    0.000    0.000    0.000    0.000 
#    0.000    0.000    0.000    0.000    0.000    0.000 
#
# Total GULP energy -335356.521357 kJ/mol
# GULP energy per Si atom -5589.275356 kJ/mol
# Density = 1.924780 g / cm^3
# Si number density = 19.291707 Si / 1000 Ang^3
#
#
#
# Elastic Constant Matrix: (Units=GPa)
#
#
# Indices 1 2 3 4 5 6 
#
# 1 50.7842 -6.5833 0.2025 0.0000 0.0000 0.0000
# 2 -6.5833 50.0076 -19.5988 0.0000 0.0000 0.0000
# 3 0.2025 -19.5988 44.6515 0.0000 0.0000 0.0000
# 4 0.0000 0.0000 0.0000 -9.8249 0.0000 0.0000
# 5 0.0000 0.0000 0.0000 0.0000 25.4275 0.0000
# 6 0.0000 0.0000 0.0000 0.0000 0.0000 17.4917
#
#
#
# Elastic Compliance Matrix: (Units=1/GPa)
#
#
# Indices 1 2 3 4 5 6 
#
# 1 0.020095 0.003152 0.001292 0.000000 0.000000 0.000000
# 2 0.003152 0.024646 0.010803 0.000000 0.000000 0.000000
# 3 0.001292 0.010803 0.027132 0.000000 0.000000 0.000000
# 4 0.000000 0.000000 0.000000 -0.101782 0.000000 0.000000
# 5 0.000000 0.000000 0.000000 0.000000 0.039328 0.000000
# 6 0.000000 0.000000 0.000000 0.000000 0.000000 0.057170
#
#
# Mechanical properties :
#
#
# Convention : Reuss Voigt Hill
#
# Bulk Modulus (GPa) = 9.76873 10.38714 10.07793
# Shear Modulus (GPa) = 71.20985 18.04704 44.62844
#
# Velocity S-wave (km/s) = 6.08213 3.06188 4.81495
# Velocity P-wave (km/s) = 7.37548 4.23038 6.01223
#
# Compressibility (1/GPa) = 0.10236749
#
# Stress axis : x y z
#
# Youngs Moduli (GPa) = 49.76462 40.57466 36.85716
#
# Poissons Ratio (x) = -0.12788 -0.04763
# Poissons Ratio (y) = -0.15685 -0.39819
# Poissons Ratio (z) = -0.06431 -0.43835
#
# Static dielectric constant tensor:
#      x y z
#    x 1.661600 0.000000 0.000000 
#    y 0.000000 1.644100 0.000000 
#    z 0.000000 0.000000 1.707920 
# 
# From -- ./inp_files/25340.got.cif
#   From: 2010.05.17/outbox.cif.g08.bks.cpg/sg60_13_cif.got.tgz:25340.got - 2010.06.03 14:59:27.
