data_PCOD9455794
_publ_section_title
;
Structure prediction by ZEFSAII (Michael W. Deem and Ramdas Pophale) SiO2 
 PCOD9455794
Probable space group: P B C N
;
_chemical_formula_sum "Si O2"
_cell_formula_units_Z 64
_cell_length_a 16.271057
_cell_length_b 8.839448
_cell_length_c 21.287203
_cell_angle_alpha 90.000000
_cell_angle_beta 90.000000
_cell_angle_gamma 90.000000
_cell_volume 3061.678000
_symmetry_space_group_name_H-M "P B C N"
_symmetry_group_IT_number 60
_symmetry_cell_setting 'orthorhombic'
loop_
_space_group_symop_operation_xyz
x,y,z
1/2-x,1/2-y,1/2+z
1/2+x,1/2-y,-z
-x,y,1/2-z
-x,-y,-z
1/2+x,1/2+y,1/2-z
1/2-x,1/2+y,z
x,-y,1/2+z
loop_
_atom_site_type_symbol
_atom_site_label
_atom_site_fract_x
_atom_site_fract_y
_atom_site_fract_z
Si Si1 0.169942 0.572960 0.374105
Si Si2 0.157701 0.902970 0.542413
Si Si3 0.258905 0.659980 0.621862
Si Si4 0.364256 0.077312 0.142741
Si Si5 0.091099 0.426907 0.497067
Si Si6 0.027225 0.844219 0.923690
Si Si7 0.163265 0.919531 0.396672
Si Si8 0.979480 0.409718 0.181541
O O1 0.139414 0.521112 0.444062
O O2 0.159185 0.752518 0.367752
O O3 0.263561 0.519460 0.367928
O O4 0.110079 0.481348 0.327768
O O5 0.199624 0.768514 0.581597
O O6 0.183597 0.894438 0.470358
O O7 0.059375 0.891085 0.546913
O O8 0.189583 0.054009 0.575423
O O9 0.199262 0.553664 0.662050
O O10 0.322832 0.764270 0.659005
O O11 0.454054 0.040689 0.167278
O O12 0.370395 0.069775 0.066185
O O13 0.080502 0.254584 0.473155
O O14 0.000000 0.500000 0.500000
O O15 0.009757 0.722774 0.868994
O O16 0.079537 0.983982 0.897710
O O17 0.000000 0.350655 0.250000
#
# Coordination Sequence:
#
# PCOD9455794 Si02
#       8
#     8   8   8   8   8   8   8   8
#     4  11  23  39  63  91 130 167 208 259 318 390
#     4  11  20  35  58  98 141 166 198 245 317 398
#     4  10  21  33  58  90 128 165 196 246 307 388
#     4  11  20  38  60  90 122 155 202 251 319 374
#     4  11  18  33  59  91 127 164 197 248 316 387
#     4  11  23  38  62  97 131 173 207 259 326 384
#     4  12  23  37  62 100 132 167 204 253 321 399
#     4  11  25  46  67  84 120 171 225 274 322 373
#
# _framework density 20.903570999999999
#
# number of rings (size 3 to 8) (size 9 to 14) (size 15 to 20)
#    0.000    1.000    3.750    6.375    1.750    0.000 
#    0.000    3.125    0.000    0.000    0.000    0.000 
#    0.000    0.000    0.000    0.000    0.000    0.000 
#
# Total GULP energy -358020.119466 kJ/mol
# GULP energy per Si atom -5594.064367 kJ/mol
# Density = 2.085599 g / cm^3
# Si number density = 20.903571 Si / 1000 Ang^3
#
#
#
# Elastic Constant Matrix: (Units=GPa)
#
#
# Indices 1 2 3 4 5 6 
#
# 1 82.9836 39.5723 4.0592 0.0000 0.0000 0.0000
# 2 39.5723 97.5905 -7.6278 0.0000 0.0000 0.0000
# 3 4.0592 -7.6278 25.0416 0.0000 0.0000 0.0000
# 4 0.0000 0.0000 0.0000 3.7598 0.0000 0.0000
# 5 0.0000 0.0000 0.0000 0.0000 0.9272 0.0000
# 6 0.0000 0.0000 0.0000 0.0000 0.0000 42.6073
#
#
#
# Elastic Compliance Matrix: (Units=1/GPa)
#
#
# Indices 1 2 3 4 5 6 
#
# 1 0.015421 -0.006606 -0.004512 0.000000 0.000000 0.000000
# 2 -0.006606 0.013327 0.005130 0.000000 0.000000 0.000000
# 3 -0.004512 0.005130 0.042228 0.000000 0.000000 0.000000
# 4 0.000000 0.000000 0.000000 0.265975 0.000000 0.000000
# 5 0.000000 0.000000 0.000000 0.000000 1.078471 0.000000
# 6 0.000000 0.000000 0.000000 0.000000 0.000000 0.023470
#
#
# Mechanical properties :
#
#
# Convention : Reuss Voigt Hill
#
# Bulk Modulus (GPa) = 16.94917 30.84702 23.89810
# Shear Modulus (GPa) = 3.40013 20.76632 12.08323
#
# Velocity S-wave (km/s) = 1.27676 3.15530 2.40687
# Velocity P-wave (km/s) = 3.20926 5.29749 4.37965
#
# Compressibility (1/GPa) = 0.05899993
#
# Stress axis : x y z
#
# Youngs Moduli (GPa) = 64.84464 75.03816 23.68120
#
# Poissons Ratio (x) = 0.49570 0.10685
# Poissons Ratio (y) = 0.42836 -0.12149
# Poissons Ratio (z) = 0.29258 -0.38496
#
# Static dielectric constant tensor:
#      x y z
#    x 1.757980 0.000000 0.000000 
#    y 0.000000 1.764280 0.000000 
#    z 0.000000 0.000000 1.763620 
# 
# From -- ./inp_files/24445.got.cif
#   From: 2010.05.17/outbox.cif.g08.bks.cpg/sg60_13_cif.got.tgz:24445.got - 2010.06.03 14:59:27.
