data_PCOD9455040
_publ_section_title
;
Structure prediction by ZEFSAII (Michael W. Deem and Ramdas Pophale) SiO2 
 PCOD9455040
Probable space group: P B C N
;
_chemical_formula_sum "Si O2"
_cell_formula_units_Z 48
_cell_length_a 11.586473
_cell_length_b 22.565581
_cell_length_c 10.496528
_cell_angle_alpha 90.000000
_cell_angle_beta 90.000000
_cell_angle_gamma 90.000000
_cell_volume 2744.374924
_symmetry_space_group_name_H-M "P B C N"
_symmetry_group_IT_number 60
_symmetry_cell_setting 'orthorhombic'
loop_
_space_group_symop_operation_xyz
x,y,z
1/2-x,1/2-y,1/2+z
1/2+x,1/2-y,-z
-x,y,1/2-z
-x,-y,-z
1/2+x,1/2+y,1/2-z
1/2-x,1/2+y,z
x,-y,1/2+z
loop_
_atom_site_type_symbol
_atom_site_label
_atom_site_fract_x
_atom_site_fract_y
_atom_site_fract_z
Si Si1 0.626863 0.030530 0.504597
Si Si2 0.074435 0.781706 0.876866
Si Si3 0.682619 0.179897 0.221887
Si Si4 0.817369 0.664709 0.525861
Si Si5 0.071040 0.198348 0.872080
Si Si6 0.365191 0.044108 0.270879
O O1 0.624439 0.100351 0.533758
O O2 0.686973 0.029000 0.366782
O O3 0.500000 0.000000 0.500000
O O4 0.687234 0.994379 0.616623
O O5 0.194582 0.814055 0.847175
O O6 0.106301 0.713456 0.903553
O O7 0.000000 0.787571 0.750000
O O8 0.007924 0.803009 0.002412
O O9 0.693376 0.184045 0.376363
O O10 0.606477 0.233631 0.165735
O O11 0.637125 0.113753 0.198582
O O12 0.691212 0.666423 0.591473
O O13 0.000000 0.175144 0.750000
O O14 0.500000 0.028985 0.250000
#
# Coordination Sequence:
#
# PCOD9455040 Si02
#       6
#     8   8   8   8   8   8
#     4   9  19  34  54  80 109 140 178 230 281 332
#     4  11  22  35  54  83 112 144 188 233 278 341
#     4  10  20  35  56  80 111 152 188 224 288 345
#     4  10  21  36  56  84 116 148 190 232 285 350
#     4  11  21  36  57  80 115 152 190 231 287 340
#     4   9  18  34  55  77 106 144 178 225 277 335
#
# _framework density 17.490321000000002
#
# number of rings (size 3 to 8) (size 9 to 14) (size 15 to 20)
#    0.000    2.000    3.333    0.500    4.667    2.000 
#    3.000    0.000    0.000    2.000    0.000    0.000 
#    0.000    0.000    0.000    0.000    0.000    0.000 
#
# Total GULP energy -267365.115847 kJ/mol
# GULP energy per Si atom -5570.106580 kJ/mol
# Density = 1.745051 g / cm^3
# Si number density = 17.490321 Si / 1000 Ang^3
#
#
#
# Elastic Constant Matrix: (Units=GPa)
#
#
# Indices 1 2 3 4 5 6 
#
# 1 57.5846 -2.0632 19.4537 0.0000 0.0000 0.0000
# 2 -2.0632 58.5790 29.0982 0.0000 0.0000 0.0000
# 3 19.4537 29.0982 107.3499 0.0000 0.0000 0.0000
# 4 0.0000 0.0000 0.0000 26.8545 0.0000 0.0000
# 5 0.0000 0.0000 0.0000 0.0000 20.4307 0.0000
# 6 0.0000 0.0000 0.0000 0.0000 0.0000 18.7187
#
#
#
# Elastic Compliance Matrix: (Units=1/GPa)
#
#
# Indices 1 2 3 4 5 6 
#
# 1 0.018869 0.002731 -0.004160 0.000000 0.000000 0.000000
# 2 0.002731 0.020122 -0.005949 0.000000 0.000000 0.000000
# 3 -0.004160 -0.005949 0.011682 0.000000 0.000000 0.000000
# 4 0.000000 0.000000 0.000000 0.037238 0.000000 0.000000
# 5 0.000000 0.000000 0.000000 0.000000 0.048946 0.000000
# 6 0.000000 0.000000 0.000000 0.000000 0.000000 0.053423
#
#
# Mechanical properties :
#
#
# Convention : Reuss Voigt Hill
#
# Bulk Modulus (GPa) = 27.84208 35.16564 31.50386
# Shear Modulus (GPa) = 23.04070 25.00244 24.02157
#
# Velocity S-wave (km/s) = 3.63346 3.78498 3.70999
# Velocity P-wave (km/s) = 5.79274 6.26505 6.03352
#
# Compressibility (1/GPa) = 0.03591685
#
# Stress axis : x y z
#
# Youngs Moduli (GPa) = 52.99754 49.69603 85.60394
#
# Poissons Ratio (x) = -0.13571 0.35607
# Poissons Ratio (y) = -0.14472 0.50928
# Poissons Ratio (z) = 0.22045 0.29565
#
# Static dielectric constant tensor:
#      x y z
#    x 1.625020 0.000000 0.000000 
#    y 0.000000 1.577080 0.000000 
#    z 0.000000 0.000000 1.579220 
# 
# From -- ./inp_files/11119.got.cif
#   From: 2010.05.17/outbox.cif.g08.bks.cpg/sg60_6_cif.got.tgz:11119.got - 2010.06.03 14:59:27.
