data_PCOD9455352
_publ_section_title
;
Structure prediction by ZEFSAII (Michael W. Deem and Ramdas Pophale) SiO2 
 PCOD9455352
Probable space group: P B C N
;
_chemical_formula_sum "Si O2"
_cell_formula_units_Z 64
_cell_length_a 22.718745
_cell_length_b 14.511093
_cell_length_c 8.323551
_cell_angle_alpha 90.000000
_cell_angle_beta 90.000000
_cell_angle_gamma 90.000000
_cell_volume 2744.056867
_symmetry_space_group_name_H-M "P B C N"
_symmetry_group_IT_number 60
_symmetry_cell_setting 'orthorhombic'
loop_
_space_group_symop_operation_xyz
x,y,z
1/2-x,1/2-y,1/2+z
1/2+x,1/2-y,-z
-x,y,1/2-z
-x,-y,-z
1/2+x,1/2+y,1/2-z
1/2-x,1/2+y,z
x,-y,1/2+z
loop_
_atom_site_type_symbol
_atom_site_label
_atom_site_fract_x
_atom_site_fract_y
_atom_site_fract_z
Si Si1 0.865770 0.489121 0.185180
Si Si2 0.830541 0.773935 0.365373
Si Si3 0.419348 0.645060 0.411676
Si Si4 0.403531 0.519240 0.127674
Si Si5 0.560695 0.174912 0.797132
Si Si6 0.063937 0.322792 0.829265
Si Si7 0.289503 0.078686 0.080673
Si Si8 0.320021 0.573436 0.869337
O O1 0.887928 0.399596 0.279185
O O2 0.912240 0.571928 0.175178
O O3 0.804651 0.531318 0.252086
O O4 0.849064 0.449003 0.012706
O O5 0.853258 0.830503 0.521066
O O6 0.889819 0.734753 0.278769
O O7 0.789630 0.688495 0.406188
O O8 0.801760 0.836992 0.229977
O O9 0.434037 0.582976 0.257007
O O10 0.435600 0.572550 0.557659
O O11 0.437066 0.744919 0.339318
O O12 0.345642 0.491310 0.230839
O O13 0.378315 0.579527 0.981216
O O14 0.500000 0.124515 0.750000
O O15 0.561639 0.206711 0.982914
O O16 0.000000 0.315125 0.750000
O O17 0.232656 0.047291 0.985592
#
# Coordination Sequence:
#
# PCOD9455352 Si02
#       8
#     8   8   8   8   8   8   8   8
#     4  11  23  40  62  91 135 176 218 272 322 394
#     4  10  22  39  60  93 133 169 218 280 322 393
#     4  10  20  40  64  93 123 165 212 273 340 397
#     4   9  20  38  65  86 122 165 209 271 330 399
#     4  12  24  39  66  95 125 175 222 277 337 396
#     4  11  24  41  64  95 135 178 224 270 334 400
#     4  11  22  39  59  93 132 174 216 267 325 390
#     4  10  20  38  60  91 122 170 217 263 330 386
#
# _framework density 23.323132000000001
#
# number of rings (size 3 to 8) (size 9 to 14) (size 15 to 20)
#    0.000    1.500    2.500    2.625    1.750    2.000 
#    2.250    3.125    0.000    5.250    0.000    0.000 
#    0.000    0.000    0.000    0.000    0.000    0.000 
#
# Total GULP energy -356477.619058 kJ/mol
# GULP energy per Si atom -5569.962798 kJ/mol
# Density = 2.327005 g / cm^3
# Si number density = 23.323132 Si / 1000 Ang^3
#
#
#
# Elastic Constant Matrix: (Units=GPa)
#
#
# Indices 1 2 3 4 5 6 
#
# 1 51.1366 4.7792 18.6972 0.0000 0.0000 0.0000
# 2 4.7792 85.5188 21.9762 0.0000 0.0000 0.0000
# 3 18.6972 21.9762 110.6833 0.0000 0.0000 0.0000
# 4 0.0000 0.0000 0.0000 28.7949 0.0000 0.0000
# 5 0.0000 0.0000 0.0000 0.0000 17.6729 0.0000
# 6 0.0000 0.0000 0.0000 0.0000 0.0000 -23.9304
#
#
#
# Elastic Compliance Matrix: (Units=1/GPa)
#
#
# Indices 1 2 3 4 5 6 
#
# 1 0.020849 -0.000274 -0.003467 0.000000 0.000000 0.000000
# 2 -0.000274 0.012326 -0.002401 0.000000 0.000000 0.000000
# 3 -0.003467 -0.002401 0.010097 0.000000 0.000000 0.000000
# 4 0.000000 0.000000 0.000000 0.034728 0.000000 0.000000
# 5 0.000000 0.000000 0.000000 0.000000 0.056584 0.000000
# 6 0.000000 0.000000 0.000000 0.000000 0.000000 -0.041788
#
#
# Mechanical properties :
#
#
# Convention : Reuss Voigt Hill
#
# Bulk Modulus (GPa) = 32.27189 37.58267 34.92728
# Shear Modulus (GPa) = 43.32378 17.96656 30.64517
#
# Velocity S-wave (km/s) = 4.31460 2.77850 3.62876
# Velocity P-wave (km/s) = 6.21996 5.14221 5.70658
#
# Compressibility (1/GPa) = 0.03098672
#
# Stress axis : x y z
#
# Youngs Moduli (GPa) = 47.96414 81.13169 99.03692
#
# Poissons Ratio (x) = 0.02224 0.34341
# Poissons Ratio (y) = 0.01315 0.23778
# Poissons Ratio (z) = 0.16632 0.19479
#
# Static dielectric constant tensor:
#      x y z
#    x 1.903750 0.000000 0.000000 
#    y 0.000000 1.921970 0.000000 
#    z 0.000000 0.000000 1.964940 
# 
# From -- ./inp_files/7987.got.cif
#   From: 2010.05.17/outbox.cif.g08.bks.cpg/sg60_4_cif.got.tgz:7987.got - 2010.06.03 14:59:27.
