data_PCOD9455816
_publ_section_title
;
Structure prediction by ZEFSAII (Michael W. Deem and Ramdas Pophale) SiO2 
 PCOD9455816
Probable space group: P B C N
;
_chemical_formula_sum "Si O2"
_cell_formula_units_Z 36
_cell_length_a 17.784525
_cell_length_b 20.595226
_cell_length_c 5.030389
_cell_angle_alpha 90.000000
_cell_angle_beta 90.000000
_cell_angle_gamma 90.000000
_cell_volume 1842.512329
_symmetry_space_group_name_H-M "P B C N"
_symmetry_group_IT_number 60
_symmetry_cell_setting 'orthorhombic'
loop_
_space_group_symop_operation_xyz
x,y,z
1/2-x,1/2-y,1/2+z
1/2+x,1/2-y,-z
-x,y,1/2-z
-x,-y,-z
1/2+x,1/2+y,1/2-z
1/2-x,1/2+y,z
x,-y,1/2+z
loop_
_atom_site_type_symbol
_atom_site_label
_atom_site_fract_x
_atom_site_fract_y
_atom_site_fract_z
Si Si1 0.652458 0.223787 0.416514
Si Si2 0.548249 0.589552 0.509954
Si Si3 0.223881 0.665942 0.593523
Si Si4 0.500000 0.281481 0.250000
Si Si5 0.718651 0.541189 0.590233
O O1 0.700561 0.290379 0.393768
O O2 0.664115 0.200098 0.714557
O O3 0.565973 0.238325 0.366921
O O4 0.690576 0.173806 0.203956
O O5 0.500000 0.561886 0.750000
O O6 0.542675 0.667787 0.553054
O O7 0.631451 0.562649 0.551111
O O8 0.500000 0.576787 0.250000
O O9 0.242538 0.599416 0.746388
O O10 0.735463 0.519496 0.287943
#
# Coordination Sequence:
#
# PCOD9455816 Si02
#       5
#     8   8   8   4   8
#     4  10  21  34  63  77 122 140 193 237 306 335
#     4  10  22  35  52  80 125 148 192 226 280 341
#     4  10  21  39  53  88 106 159 189 246 281 348
#     4  10  22  36  58  92 114 158 176 252 286 366
#     4  12  24  38  58  80 116 161 203 233 273 341
#
# _framework density 19.538540000000001
#
# number of rings (size 3 to 8) (size 9 to 14) (size 15 to 20)
#    0.667    0.889    2.222    2.667    3.111    4.444 
#    0.000    0.000    0.000    0.000    0.000   15.556 
#    0.000    0.000    0.000    0.000    0.000    0.000 
#
# Total GULP energy -200543.541741 kJ/mol
# GULP energy per Si atom -5570.653937 kJ/mol
# Density = 1.949407 g / cm^3
# Si number density = 19.538540 Si / 1000 Ang^3
#
#
#
# Elastic Constant Matrix: (Units=GPa)
#
#
# Indices 1 2 3 4 5 6 
#
# 1 27.2041 -1.1885 -22.1514 0.0000 0.0000 0.0000
# 2 -1.1885 46.9867 -10.1997 0.0000 0.0000 0.0000
# 3 -22.1514 -10.1997 94.1294 0.0000 0.0000 0.0000
# 4 0.0000 0.0000 0.0000 -0.7422 0.0000 0.0000
# 5 0.0000 0.0000 0.0000 0.0000 7.0186 0.0000
# 6 0.0000 0.0000 0.0000 0.0000 0.0000 -151.2933
#
#
#
# Elastic Compliance Matrix: (Units=1/GPa)
#
#
# Indices 1 2 3 4 5 6 
#
# 1 0.046061 0.003603 0.011230 0.000000 0.000000 0.000000
# 2 0.003603 0.022077 0.003240 0.000000 0.000000 0.000000
# 3 0.011230 0.003240 0.013617 0.000000 0.000000 0.000000
# 4 0.000000 0.000000 0.000000 -1.347381 0.000000 0.000000
# 5 0.000000 0.000000 0.000000 0.000000 0.142479 0.000000
# 6 0.000000 0.000000 0.000000 0.000000 0.000000 -0.006610
#
#
# Mechanical properties :
#
#
# Convention : Reuss Voigt Hill
#
# Bulk Modulus (GPa) = 8.48171 11.24897 9.86534
# Shear Modulus (GPa) = -4.43813 -15.54605 -9.99209
#
# Velocity S-wave (km/s) = -1.50878 -2.82381 -2.26388
# Velocity P-wave (km/s) = 1.14684 2.20500 1.33169
#
# Compressibility (1/GPa) = 0.11790080
#
# Stress axis : x y z
#
# Youngs Moduli (GPa) = 21.71052 45.29576 73.43502
#
# Poissons Ratio (x) = -0.16319 -0.82466
# Poissons Ratio (y) = -0.07822 -0.23794
# Poissons Ratio (z) = -0.24381 -0.14676
#
# Static dielectric constant tensor:
#      x y z
#    x 1.638880 0.000000 0.000000 
#    y 0.000000 1.769110 0.000000 
#    z 0.000000 0.000000 1.686310 
# 
# From -- ./inp_files/1684.got.cif
#   From: 2010.05.17/outbox.cif.g08.bks.cpg/sg60_1_cif.got.tgz:1684.got - 2010.06.03 14:59:27.
