data_PCOD9455458
_publ_section_title
;
Structure prediction by ZEFSAII (Michael W. Deem and Ramdas Pophale) SiO2 
 PCOD9455458
Probable space group: P B C N
;
_chemical_formula_sum "Si O2"
_cell_formula_units_Z 52
_cell_length_a 5.388728
_cell_length_b 17.112684
_cell_length_c 24.319872
_cell_angle_alpha 90.000000
_cell_angle_beta 90.000000
_cell_angle_gamma 90.000000
_cell_volume 2242.671574
_symmetry_space_group_name_H-M "P B C N"
_symmetry_group_IT_number 60
_symmetry_cell_setting 'orthorhombic'
loop_
_space_group_symop_operation_xyz
x,y,z
1/2-x,1/2-y,1/2+z
1/2+x,1/2-y,-z
-x,y,1/2-z
-x,-y,-z
1/2+x,1/2+y,1/2-z
1/2-x,1/2+y,z
x,-y,1/2+z
loop_
_atom_site_type_symbol
_atom_site_label
_atom_site_fract_x
_atom_site_fract_y
_atom_site_fract_z
Si Si1 0.329812 0.180533 0.171368
Si Si2 0.000296 0.447114 0.907633
Si Si3 0.814032 0.174449 0.653940
Si Si4 0.031721 0.253428 0.076468
Si Si5 0.500000 0.239344 0.750000
Si Si6 0.174973 0.908162 0.090038
Si Si7 0.495443 0.597615 0.027490
O O1 0.459801 0.103082 0.148220
O O2 0.512235 0.253067 0.167217
O O3 0.108706 0.197586 0.127614
O O4 0.205845 0.198811 0.229333
O O5 0.910375 0.536113 0.897933
O O6 0.782659 0.419367 0.950152
O O7 0.269314 0.429527 0.934103
O O8 0.705639 0.198330 0.594907
O O9 0.605272 0.182224 0.701544
O O10 0.986882 0.099658 0.641628
O O11 0.994292 0.192728 0.028411
O O12 0.230130 0.321889 0.075410
O O13 0.041555 0.933783 0.033840
#
# Coordination Sequence:
#
# PCOD9455458 Si02
#       7
#     8   8   8   8   4   8   8
#     4   9  19  39  64  90 123 167 228 277 338 420
#     4  11  24  43  63  98 138 189 225 283 343 423
#     4  10  20  39  61  99 125 169 226 293 339 408
#     4   9  21  36  59  92 126 175 225 283 330 403
#     4  10  20  38  72  94 122 172 236 296 354 408
#     4  11  25  36  65  96 145 179 232 290 352 401
#     4  11  24  41  64  93 140 191 237 268 341 428
#
# _framework density 23.186633
#
# number of rings (size 3 to 8) (size 9 to 14) (size 15 to 20)
#    0.000    1.846    1.538    1.385    6.462    0.000 
#    0.000    0.000   10.154    0.000    0.000    0.000 
#    0.000    0.000    0.000    0.000    0.000    0.000 
#
# Total GULP energy -289742.839381 kJ/mol
# GULP energy per Si atom -5571.977680 kJ/mol
# Density = 2.313386 g / cm^3
# Si number density = 23.186633 Si / 1000 Ang^3
#
#
#
# Elastic Constant Matrix: (Units=GPa)
#
#
# Indices 1 2 3 4 5 6 
#
# 1 113.3701 21.8942 26.2108 0.0000 0.0000 0.0000
# 2 21.8942 87.7656 23.6883 0.0000 0.0000 0.0000
# 3 26.2108 23.6883 75.3831 0.0000 0.0000 0.0000
# 4 0.0000 0.0000 0.0000 13.1334 0.0000 0.0000
# 5 0.0000 0.0000 0.0000 0.0000 33.4266 0.0000
# 6 0.0000 0.0000 0.0000 0.0000 0.0000 20.0903
#
#
#
# Elastic Compliance Matrix: (Units=1/GPa)
#
#
# Indices 1 2 3 4 5 6 
#
# 1 0.009810 -0.001668 -0.002887 0.000000 0.000000 0.000000
# 2 -0.001668 0.012734 -0.003421 0.000000 0.000000 0.000000
# 3 -0.002887 -0.003421 0.015344 0.000000 0.000000 0.000000
# 4 0.000000 0.000000 0.000000 0.076142 0.000000 0.000000
# 5 0.000000 0.000000 0.000000 0.000000 0.029916 0.000000
# 6 0.000000 0.000000 0.000000 0.000000 0.000000 0.049775
#
#
# Mechanical properties :
#
#
# Convention : Reuss Voigt Hill
#
# Bulk Modulus (GPa) = 45.58799 46.67836 46.13318
# Shear Modulus (GPa) = 23.04298 26.97844 25.01071
#
# Velocity S-wave (km/s) = 3.15589 3.41476 3.28787
# Velocity P-wave (km/s) = 5.74313 5.97685 5.86115
#
# Compressibility (1/GPa) = 0.02193560
#
# Stress axis : x y z
#
# Youngs Moduli (GPa) = 101.93426 78.53266 65.17006
#
# Poissons Ratio (x) = 0.13100 0.18814
# Poissons Ratio (y) = 0.17004 0.22297
# Poissons Ratio (z) = 0.29427 0.26869
#
# Static dielectric constant tensor:
#      x y z
#    x 1.987310 0.000000 0.000000 
#    y 0.000000 1.986900 0.000000 
#    z 0.000000 0.000000 1.953410 
# 
# From -- ./inp_files/24947.got.cif
#   From: 2010.05.17/outbox.cif.g08.bks.cpg/sg60_13_cif.got.tgz:24947.got - 2010.06.03 14:59:27.
