data_PCOD9455452
_publ_section_title
;
Structure prediction by ZEFSAII (Michael W. Deem and Ramdas Pophale) SiO2 
 PCOD9455452
Probable space group: P B C N
;
_chemical_formula_sum "Si O2"
_cell_formula_units_Z 44
_cell_length_a 10.887325
_cell_length_b 18.018284
_cell_length_c 9.965272
_cell_angle_alpha 90.000000
_cell_angle_beta 90.000000
_cell_angle_gamma 90.000000
_cell_volume 1954.896515
_symmetry_space_group_name_H-M "P B C N"
_symmetry_group_IT_number 60
_symmetry_cell_setting 'orthorhombic'
loop_
_space_group_symop_operation_xyz
x,y,z
1/2-x,1/2-y,1/2+z
1/2+x,1/2-y,-z
-x,y,1/2-z
-x,-y,-z
1/2+x,1/2+y,1/2-z
1/2-x,1/2+y,z
x,-y,1/2+z
loop_
_atom_site_type_symbol
_atom_site_label
_atom_site_fract_x
_atom_site_fract_y
_atom_site_fract_z
Si Si1 0.892486 0.140321 0.846297
Si Si2 0.860694 0.672856 0.951015
Si Si3 0.625825 0.484269 0.917883
Si Si4 0.500000 0.922465 0.250000
Si Si5 0.128960 0.523308 0.424503
Si Si6 0.542688 0.324672 0.895992
O O1 0.756210 0.172015 0.851005
O O2 0.000000 0.169202 0.750000
O O3 0.876074 0.052826 0.815251
O O4 0.936107 0.152776 0.000019
O O5 0.969514 0.633119 0.869573
O O6 0.888131 0.758475 0.973209
O O7 0.851033 0.612774 0.072333
O O8 0.617420 0.400227 0.868426
O O9 0.500000 0.500000 0.000000
O O10 0.749701 0.493281 0.003091
O O11 0.609738 0.979322 0.213833
O O12 0.000000 0.500000 0.500000
O O13 0.500000 0.297756 0.750000
#
# Coordination Sequence:
#
# PCOD9455452 Si02
#       6
#     8   8   8   4   8   8
#     4  10  23  42  65  96 132 172 222 271 325 395
#     4  10  22  40  64  94 133 168 221 271 334 390
#     4   9  20  39  66  93 128 169 222 269 323 390
#     4  10  20  38  68  86 136 182 214 264 334 402
#     4   9  20  39  59  93 123 174 219 256 319 399
#     4  11  23  41  64  98 133 172 215 276 334 387
#
# _framework density 22.507584000000001
#
# number of rings (size 3 to 8) (size 9 to 14) (size 15 to 20)
#    0.000    2.182    0.909    0.545    5.091    4.364 
#   21.273    0.000    0.000    0.000    0.000    0.000 
#    0.000    0.000    0.000    0.000    0.000    0.000 
#
# Total GULP energy -244969.983758 kJ/mol
# GULP energy per Si atom -5567.499631 kJ/mol
# Density = 2.245636 g / cm^3
# Si number density = 22.507584 Si / 1000 Ang^3
#
#
#
# Elastic Constant Matrix: (Units=GPa)
#
#
# Indices 1 2 3 4 5 6 
#
# 1 110.8042 26.1774 6.7353 0.0000 0.0000 0.0000
# 2 26.1774 143.2765 -4.8948 0.0000 0.0000 0.0000
# 3 6.7353 -4.8948 46.3175 0.0000 0.0000 0.0000
# 4 0.0000 0.0000 0.0000 5.0253 0.0000 0.0000
# 5 0.0000 0.0000 0.0000 0.0000 35.5719 0.0000
# 6 0.0000 0.0000 0.0000 0.0000 0.0000 26.6289
#
#
#
# Elastic Compliance Matrix: (Units=1/GPa)
#
#
# Indices 1 2 3 4 5 6 
#
# 1 0.009546 -0.001798 -0.001578 0.000000 0.000000 0.000000
# 2 -0.001798 0.007343 0.001037 0.000000 0.000000 0.000000
# 3 -0.001578 0.001037 0.021929 0.000000 0.000000 0.000000
# 4 0.000000 0.000000 0.000000 0.198991 0.000000 0.000000
# 5 0.000000 0.000000 0.000000 0.000000 0.028112 0.000000
# 6 0.000000 0.000000 0.000000 0.000000 0.000000 0.037553
#
#
# Mechanical properties :
#
#
# Convention : Reuss Voigt Hill
#
# Bulk Modulus (GPa) = 29.29011 39.60378 34.44694
# Shear Modulus (GPa) = 15.64788 31.60394 23.62591
#
# Velocity S-wave (km/s) = 2.63958 3.75126 3.24340
# Velocity P-wave (km/s) = 4.72562 6.03295 5.41886
#
# Compressibility (1/GPa) = 0.03414121
#
# Stress axis : x y z
#
# Youngs Moduli (GPa) = 104.76019 136.17583 45.60127
#
# Poissons Ratio (x) = 0.24484 0.07196
# Poissons Ratio (y) = 0.18835 -0.04731
# Poissons Ratio (z) = 0.16532 -0.14128
#
# Static dielectric constant tensor:
#      x y z
#    x 1.880870 0.000000 0.000000 
#    y 0.000000 1.856270 0.000000 
#    z 0.000000 0.000000 2.025370 
# 
# From -- ./inp_files/10969.got.cif
#   From: 2010.05.17/outbox.cif.g08.bks.cpg/sg60_6_cif.got.tgz:10969.got - 2010.06.03 14:59:27.
