data_PCOD9455837
_publ_section_title
;
Structure prediction by ZEFSAII (Michael W. Deem and Ramdas Pophale) SiO2 
 PCOD9455837
Probable space group: P B C N
;
_chemical_formula_sum "Si O2"
_cell_formula_units_Z 32
_cell_length_a 5.179223
_cell_length_b 16.690790
_cell_length_c 20.767510
_cell_angle_alpha 90.000000
_cell_angle_beta 90.000000
_cell_angle_gamma 90.000000
_cell_volume 1795.254119
_symmetry_space_group_name_H-M "P B C N"
_symmetry_group_IT_number 60
_symmetry_cell_setting 'orthorhombic'
loop_
_space_group_symop_operation_xyz
x,y,z
1/2-x,1/2-y,1/2+z
1/2+x,1/2-y,-z
-x,y,1/2-z
-x,-y,-z
1/2+x,1/2+y,1/2-z
1/2-x,1/2+y,z
x,-y,1/2+z
loop_
_atom_site_type_symbol
_atom_site_label
_atom_site_fract_x
_atom_site_fract_y
_atom_site_fract_z
Si Si1 0.521875 0.481492 0.177857
Si Si2 0.685162 0.542118 0.447832
Si Si3 0.605263 0.200986 0.514169
Si Si4 0.033192 0.411505 0.124184
O O1 0.500000 0.513031 0.250000
O O2 0.467139 0.545064 0.120638
O O3 0.298122 0.415162 0.164241
O O4 0.796329 0.441214 0.166298
O O5 0.500000 0.500000 0.500000
O O6 0.786558 0.626138 0.473064
O O7 0.912653 0.479895 0.430037
O O8 0.341258 0.236469 0.485256
O O9 0.534610 0.167690 0.584938
#
# Coordination Sequence:
#
# PCOD9455837 Si02
#       4
#     8   8   8   8
#     4  10  21  35  63  88 110 151 205 248 288 341
#     4  10  21  37  63  86 118 147 201 249 290 345
#     4  12  23  34  56  93 123 151 187 244 307 349
#     4  10  21  37  59  83 120 148 201 241 291 342
#
# _framework density 17.824776
#
# number of rings (size 3 to 8) (size 9 to 14) (size 15 to 20)
#    1.500    0.000    2.500    4.500    3.500    0.000 
#    0.000    0.000    0.000    6.000    0.000    0.000 
#    0.000    0.000    0.000    0.000    0.000    0.000 
#
# Total GULP energy -178214.054163 kJ/mol
# GULP energy per Si atom -5569.189193 kJ/mol
# Density = 1.778421 g / cm^3
# Si number density = 17.824776 Si / 1000 Ang^3
#
#
#
# Elastic Constant Matrix: (Units=GPa)
#
#
# Indices 1 2 3 4 5 6 
#
# 1 110.9732 6.8999 17.3323 0.0000 0.0000 0.0000
# 2 6.8999 28.6159 8.7150 0.0000 0.0000 0.0000
# 3 17.3323 8.7150 111.1360 0.0000 0.0000 0.0000
# 4 0.0000 0.0000 0.0000 12.7949 0.0000 0.0000
# 5 0.0000 0.0000 0.0000 0.0000 33.8895 0.0000
# 6 0.0000 0.0000 0.0000 0.0000 0.0000 33.9162
#
#
#
# Elastic Compliance Matrix: (Units=1/GPa)
#
#
# Indices 1 2 3 4 5 6 
#
# 1 0.009331 -0.001851 -0.001310 0.000000 0.000000 0.000000
# 2 -0.001851 0.036168 -0.002548 0.000000 0.000000 0.000000
# 3 -0.001310 -0.002548 0.009402 0.000000 0.000000 0.000000
# 4 0.000000 0.000000 0.000000 0.078156 0.000000 0.000000
# 5 0.000000 0.000000 0.000000 0.000000 0.029508 0.000000
# 6 0.000000 0.000000 0.000000 0.000000 0.000000 0.029484
#
#
# Mechanical properties :
#
#
# Convention : Reuss Voigt Hill
#
# Bulk Modulus (GPa) = 22.99710 35.17995 29.08852
# Shear Modulus (GPa) = 22.93991 30.63862 26.78927
#
# Velocity S-wave (km/s) = 3.59133 4.15043 3.88096
# Velocity P-wave (km/s) = 5.48877 6.53816 6.03631
#
# Compressibility (1/GPa) = 0.04348375
#
# Stress axis : x y z
#
# Youngs Moduli (GPa) = 107.17105 27.64893 106.35958
#
# Poissons Ratio (x) = 0.05118 0.13934
# Poissons Ratio (y) = 0.19836 0.27095
# Poissons Ratio (z) = 0.14040 0.07044
#
# Static dielectric constant tensor:
#      x y z
#    x 1.636070 0.000000 0.000000 
#    y 0.000000 1.601940 0.000000 
#    z 0.000000 0.000000 1.641660 
# 
# From -- ./inp_files/18449.got.cif
#   From: 2010.05.17/outbox.cif.g08.bks.cpg/sg60_10_cif.got.tgz:18449.got - 2010.06.03 14:59:27.
