data_PCOD9455028
_publ_section_title
;
Structure prediction by ZEFSAII (Michael W. Deem and Ramdas Pophale) SiO2 
 PCOD9455028
Probable space group: P B C N
;
_chemical_formula_sum "Si O2"
_cell_formula_units_Z 32
_cell_length_a 11.292594
_cell_length_b 29.811693
_cell_length_c 4.921624
_cell_angle_alpha 90.000000
_cell_angle_beta 90.000000
_cell_angle_gamma 90.000000
_cell_volume 1656.871342
_symmetry_space_group_name_H-M "P B C N"
_symmetry_group_IT_number 60
_symmetry_cell_setting 'orthorhombic'
loop_
_space_group_symop_operation_xyz
x,y,z
1/2-x,1/2-y,1/2+z
1/2+x,1/2-y,-z
-x,y,1/2-z
-x,-y,-z
1/2+x,1/2+y,1/2-z
1/2-x,1/2+y,z
x,-y,1/2+z
loop_
_atom_site_type_symbol
_atom_site_label
_atom_site_fract_x
_atom_site_fract_y
_atom_site_fract_z
Si Si1 0.144252 0.973514 0.736228
Si Si2 0.367144 0.207865 0.181423
Si Si3 0.781071 0.808724 0.313530
Si Si4 0.579888 0.387006 0.009894
O O1 0.167310 0.924279 0.616475
O O2 0.000000 0.973758 0.750000
O O3 0.185890 0.012014 0.530648
O O4 0.500000 0.194875 0.250000
O O5 0.268127 0.186374 0.381672
O O6 0.350678 0.261664 0.210738
O O7 0.334048 0.196470 0.874917
O O8 0.858001 0.847563 0.177543
O O9 0.500000 0.409365 0.250000
O O10 0.500000 0.371691 0.750000
#
# Coordination Sequence:
#
# PCOD9455028 Si02
#       4
#     8   8   8   8
#     4   9  16  27  42  63  93 128 156 180 225 283
#     4  10  20  35  51  67  95 127 157 200 243 278
#     4  10  21  33  49  73  94 123 165 196 233 290
#     4  11  20  30  47  70 100 130 157 194 231 276
#
# _framework density 19.313507999999999
#
# number of rings (size 3 to 8) (size 9 to 14) (size 15 to 20)
#    0.000    2.000    0.000    6.750    0.000    4.000 
#    0.000    0.000    0.000    0.000    0.000    0.000 
#    0.000   20.000    0.000    0.000    0.000    0.000 
#
# Total GULP energy -178437.194774 kJ/mol
# GULP energy per Si atom -5576.162337 kJ/mol
# Density = 1.926955 g / cm^3
# Si number density = 19.313508 Si / 1000 Ang^3
#
#
#
# Elastic Constant Matrix: (Units=GPa)
#
#
# Indices 1 2 3 4 5 6 
#
# 1 33.6746 -1.2517 -2.8808 0.0000 0.0000 0.0000
# 2 -1.2517 75.3199 8.2457 0.0000 0.0000 0.0000
# 3 -2.8808 8.2457 82.4981 0.0000 0.0000 0.0000
# 4 0.0000 0.0000 0.0000 24.7852 0.0000 0.0000
# 5 0.0000 0.0000 0.0000 0.0000 13.0189 0.0000
# 6 0.0000 0.0000 0.0000 0.0000 0.0000 4.9641
#
#
#
# Elastic Compliance Matrix: (Units=1/GPa)
#
#
# Indices 1 2 3 4 5 6 
#
# 1 0.029796 0.000385 0.001002 0.000000 0.000000 0.000000
# 2 0.000385 0.013429 -0.001329 0.000000 0.000000 0.000000
# 3 0.001002 -0.001329 0.012289 0.000000 0.000000 0.000000
# 4 0.000000 0.000000 0.000000 0.040347 0.000000 0.000000
# 5 0.000000 0.000000 0.000000 0.000000 0.076812 0.000000
# 6 0.000000 0.000000 0.000000 0.000000 0.000000 0.201447
#
#
# Mechanical properties :
#
#
# Convention : Reuss Voigt Hill
#
# Bulk Modulus (GPa) = 17.97551 22.19100 20.08325
# Shear Modulus (GPa) = 12.73738 21.04559 16.89149
#
# Velocity S-wave (km/s) = 2.57087 3.30462 2.96056
# Velocity P-wave (km/s) = 4.25910 5.10641 4.70188
#
# Compressibility (1/GPa) = 0.05563125
#
# Stress axis : x y z
#
# Youngs Moduli (GPa) = 33.56155 74.46811 81.37166
#
# Poissons Ratio (x) = -0.02871 -0.08153
# Poissons Ratio (y) = -0.01294 0.10812
# Poissons Ratio (z) = -0.03363 0.09895
#
# Static dielectric constant tensor:
#      x y z
#    x 1.677780 0.000000 0.000000 
#    y 0.000000 1.741930 0.000000 
#    z 0.000000 0.000000 1.693900 
# 
# From -- ./inp_files/367.got.cif
#   From: 2010.05.17/outbox.cif.g08.bks.cpg/sg60_1_cif.got.tgz:367.got - 2010.06.03 14:59:27.
