data_PCOD9455844
_publ_section_title
;
Structure prediction by ZEFSAII (Michael W. Deem and Ramdas Pophale) SiO2 
 PCOD9455844
Probable space group: P B C N
;
_chemical_formula_sum "Si O2"
_cell_formula_units_Z 56
_cell_length_a 15.627777
_cell_length_b 33.787626
_cell_length_c 5.371825
_cell_angle_alpha 90.000000
_cell_angle_beta 90.000000
_cell_angle_gamma 90.000000
_cell_volume 2836.460498
_symmetry_space_group_name_H-M "P B C N"
_symmetry_group_IT_number 60
_symmetry_cell_setting 'orthorhombic'
loop_
_space_group_symop_operation_xyz
x,y,z
1/2-x,1/2-y,1/2+z
1/2+x,1/2-y,-z
-x,y,1/2-z
-x,-y,-z
1/2+x,1/2+y,1/2-z
1/2-x,1/2+y,z
x,-y,1/2+z
loop_
_atom_site_type_symbol
_atom_site_label
_atom_site_fract_x
_atom_site_fract_y
_atom_site_fract_z
Si Si1 0.798724 0.784292 0.951071
Si Si2 0.250904 0.131148 0.927246
Si Si3 0.611918 0.239453 0.312110
Si Si4 0.338399 0.395929 0.948683
Si Si5 0.920826 0.817554 0.567082
Si Si6 0.097992 0.016576 0.483914
Si Si7 0.552362 0.154078 0.489617
O O1 0.782961 0.823314 0.121931
O O2 0.866629 0.750313 0.025943
O O3 0.708402 0.764156 0.913721
O O4 0.834411 0.806032 0.711190
O O5 0.229232 0.106633 0.677296
O O6 0.352667 0.135590 0.977875
O O7 0.204261 0.113451 0.176508
O O8 0.568224 0.279283 0.401151
O O9 0.568522 0.200004 0.410040
O O10 0.405633 0.361587 0.025871
O O11 0.389260 0.437061 0.940908
O O12 0.000000 0.819484 0.750000
O O13 0.138080 0.005315 0.747814
O O14 0.000000 0.000000 0.500000
O O15 0.500000 0.151860 0.750000
O O16 0.500000 0.137338 0.250000
#
# Coordination Sequence:
#
# PCOD9455844 Si02
#       7
#     8   8   8   8   8   8   8
#     4  10  21  36  54  71 108 162 209 262 320 364
#     4  10  22  41  64  86 121 163 213 262 313 374
#     4  11  21  35  55  73 113 161 216 263 322 366
#     4  11  22  42  63  90 121 168 209 248 302 377
#     4  11  24  35  52  80 112 149 213 271 305 352
#     4  10  22  40  64  92 129 165 204 240 304 366
#     4  11  25  39  60  89 124 162 212 272 327 376
#
# _framework density 19.742915
#
# number of rings (size 3 to 8) (size 9 to 14) (size 15 to 20)
#    0.000    1.429    2.857    2.143    6.000    0.000 
#    2.571    0.000    0.000    0.000    0.000    0.000 
#    0.000   40.000    0.000    0.000    0.000    0.000 
#
# Total GULP energy -311902.422663 kJ/mol
# GULP energy per Si atom -5569.686119 kJ/mol
# Density = 1.969798 g / cm^3
# Si number density = 19.742915 Si / 1000 Ang^3
#
#
#
# Elastic Constant Matrix: (Units=GPa)
#
#
# Indices 1 2 3 4 5 6 
#
# 1 94.1462 43.2089 30.6108 0.0000 0.0000 0.0000
# 2 43.2089 111.9871 26.1936 0.0000 0.0000 0.0000
# 3 30.6108 26.1936 107.3839 0.0000 0.0000 0.0000
# 4 0.0000 0.0000 0.0000 22.1811 0.0000 0.0000
# 5 0.0000 0.0000 0.0000 0.0000 31.7774 0.0000
# 6 0.0000 0.0000 0.0000 0.0000 0.0000 13.9136
#
#
#
# Elastic Compliance Matrix: (Units=1/GPa)
#
#
# Indices 1 2 3 4 5 6 
#
# 1 0.013638 -0.004616 -0.002762 0.000000 0.000000 0.000000
# 2 -0.004616 0.011032 -0.001375 0.000000 0.000000 0.000000
# 3 -0.002762 -0.001375 0.010435 0.000000 0.000000 0.000000
# 4 0.000000 0.000000 0.000000 0.045083 0.000000 0.000000
# 5 0.000000 0.000000 0.000000 0.000000 0.031469 0.000000
# 6 0.000000 0.000000 0.000000 0.000000 0.000000 0.071872
#
#
# Mechanical properties :
#
#
# Convention : Reuss Voigt Hill
#
# Bulk Modulus (GPa) = 56.81965 57.06042 56.94003
# Shear Modulus (GPa) = 24.16590 27.80800 25.98695
#
# Velocity S-wave (km/s) = 3.50241 3.75708 3.63198
# Velocity P-wave (km/s) = 6.72295 6.91269 6.81848
#
# Compressibility (1/GPa) = 0.01759955
#
# Stress axis : x y z
#
# Youngs Moduli (GPa) = 73.32248 90.64228 95.83064
#
# Poissons Ratio (x) = 0.41843 0.26466
# Poissons Ratio (y) = 0.33847 0.13178
# Poissons Ratio (z) = 0.20250 0.12465
#
# Static dielectric constant tensor:
#      x y z
#    x 1.707800 0.000000 0.000000 
#    y 0.000000 1.685500 0.000000 
#    z 0.000000 0.000000 0.835470 
# 
# From -- ./inp_files/1486.got.cif
#   From: 2010.05.17/outbox.cif.g08.bks.cpg/sg60_1_cif.got.tgz:1486.got - 2010.06.03 14:59:27.
