data_PCOD9455768
_publ_section_title
;
Structure prediction by ZEFSAII (Michael W. Deem and Ramdas Pophale) SiO2 
 PCOD9455768
Probable space group: P B C N
;
_chemical_formula_sum "Si O2"
_cell_formula_units_Z 28
_cell_length_a 7.465726
_cell_length_b 28.784016
_cell_length_c 5.859350
_cell_angle_alpha 90.000000
_cell_angle_beta 90.000000
_cell_angle_gamma 90.000000
_cell_volume 1259.136678
_symmetry_space_group_name_H-M "P B C N"
_symmetry_group_IT_number 60
_symmetry_cell_setting 'orthorhombic'
loop_
_space_group_symop_operation_xyz
x,y,z
1/2-x,1/2-y,1/2+z
1/2+x,1/2-y,-z
-x,y,1/2-z
-x,-y,-z
1/2+x,1/2+y,1/2-z
1/2-x,1/2+y,z
x,-y,1/2+z
loop_
_atom_site_type_symbol
_atom_site_label
_atom_site_fract_x
_atom_site_fract_y
_atom_site_fract_z
Si Si1 0.500000 0.974178 0.750000
Si Si2 0.500000 0.365128 0.250000
Si Si3 0.000000 0.730727 0.750000
Si Si4 0.194799 0.902112 0.860415
Si Si5 0.753188 0.688843 0.402322
O O1 0.327278 0.941154 0.774279
O O2 0.500000 0.000000 0.500000
O O3 0.648971 0.396861 0.372891
O O4 0.395613 0.332121 0.424572
O O5 0.167007 0.764237 0.694916
O O6 0.932785 0.700332 0.538755
O O7 0.266967 0.851962 0.780968
O O8 0.000000 0.909617 0.750000
#
# Coordination Sequence:
#
# PCOD9455768 Si02
#       5
#     4   4   4   8   8
#     4  12  32  51  81 124 146 186 256 322 394 482
#     4  10  20  46  69  99 140 202 243 289 386 444
#     4  12  24  39  66  99 152 184 267 299 356 434
#     4  10  25  48  76 103 150 196 243 304 396 452
#     4  11  24  41  63 104 141 203 238 312 358 444
#
# _framework density 22.237456999999999
#
# number of rings (size 3 to 8) (size 9 to 14) (size 15 to 20)
#    0.000    1.143    4.286    1.714   12.000    1.143 
#    0.000    0.000    0.000    0.000    0.000    0.000 
#    0.000    0.000    0.000    0.000    0.000    0.000 
#
# Total GULP energy -156528.453791 kJ/mol
# GULP energy per Si atom -5590.301921 kJ/mol
# Density = 2.218684 g / cm^3
# Si number density = 22.237457 Si / 1000 Ang^3
#
#
#
# Elastic Constant Matrix: (Units=GPa)
#
#
# Indices 1 2 3 4 5 6 
#
# 1 118.0862 90.9893 48.2763 0.0000 0.0000 0.0000
# 2 90.9893 97.0361 65.6718 0.0000 0.0000 0.0000
# 3 48.2763 65.6718 121.7206 0.0000 0.0000 0.0000
# 4 0.0000 0.0000 0.0000 25.6841 0.0000 0.0000
# 5 0.0000 0.0000 0.0000 0.0000 50.2336 0.0000
# 6 0.0000 0.0000 0.0000 0.0000 0.0000 48.1932
#
#
#
# Elastic Compliance Matrix: (Units=1/GPa)
#
#
# Indices 1 2 3 4 5 6 
#
# 1 0.032812 -0.034590 0.005649 0.000000 0.000000 0.000000
# 2 -0.034590 0.052697 -0.014713 0.000000 0.000000 0.000000
# 3 0.005649 -0.014713 0.013913 0.000000 0.000000 0.000000
# 4 0.000000 0.000000 0.000000 0.038935 0.000000 0.000000
# 5 0.000000 0.000000 0.000000 0.000000 0.019907 0.000000
# 6 0.000000 0.000000 0.000000 0.000000 0.000000 0.020750
#
#
# Mechanical properties :
#
#
# Convention : Reuss Voigt Hill
#
# Bulk Modulus (GPa) = 82.54945 82.96865 82.75905
# Shear Modulus (GPa) = 18.49385 33.61589 26.05487
#
# Velocity S-wave (km/s) = 2.88697 3.89225 3.42667
# Velocity P-wave (km/s) = 6.95091 7.58886 7.27688
#
# Compressibility (1/GPa) = 0.01211395
#
# Stress axis : x y z
#
# Youngs Moduli (GPa) = 30.47674 18.97630 71.87443
#
# Poissons Ratio (x) = 0.65639 -0.40599
# Poissons Ratio (y) = 1.05419 1.05747
# Poissons Ratio (z) = -0.17215 0.27919
#
# Static dielectric constant tensor:
#      x y z
#    x 1.818350 0.000000 0.000000 
#    y 0.000000 1.782410 0.000000 
#    z 0.000000 0.000000 1.879670 
# 
# From -- ./inp_files/313.got.cif
#   From: 2010.05.17/outbox.cif.g08.bks.cpg/sg60_1_cif.got.tgz:313.got - 2010.06.03 14:59:27.
