data_PCOD9455337
_publ_section_title
;
Structure prediction by ZEFSAII (Michael W. Deem and Ramdas Pophale) SiO2 
 PCOD9455337
Probable space group: P B C N
;
_chemical_formula_sum "Si O2"
_cell_formula_units_Z 64
_cell_length_a 14.503640
_cell_length_b 21.023499
_cell_length_c 9.786457
_cell_angle_alpha 90.000000
_cell_angle_beta 90.000000
_cell_angle_gamma 90.000000
_cell_volume 2984.059664
_symmetry_space_group_name_H-M "P B C N"
_symmetry_group_IT_number 60
_symmetry_cell_setting 'orthorhombic'
loop_
_space_group_symop_operation_xyz
x,y,z
1/2-x,1/2-y,1/2+z
1/2+x,1/2-y,-z
-x,y,1/2-z
-x,-y,-z
1/2+x,1/2+y,1/2-z
1/2-x,1/2+y,z
x,-y,1/2+z
loop_
_atom_site_type_symbol
_atom_site_label
_atom_site_fract_x
_atom_site_fract_y
_atom_site_fract_z
Si Si1 0.052983 0.458679 0.887455
Si Si2 0.942196 0.345424 0.958954
Si Si3 0.671467 0.653591 0.278666
Si Si4 0.923550 0.263454 0.414819
Si Si5 0.267493 0.447883 0.921467
Si Si6 0.152350 0.733374 0.278315
Si Si7 0.258312 0.911297 0.463590
Si Si8 0.753289 0.350635 0.331343
O O1 0.162643 0.460704 0.867431
O O2 0.000000 0.474839 0.750000
O O3 0.000000 0.500000 0.000000
O O4 0.032282 0.385934 0.925099
O O5 0.865730 0.397443 0.000915
O O6 0.906122 0.309626 0.825365
O O7 0.975257 0.294943 0.072387
O O8 0.589506 0.700628 0.322955
O O9 0.669286 0.588554 0.189889
O O10 0.750344 0.696097 0.203267
O O11 0.709888 0.633411 0.426477
O O12 0.892743 0.252095 0.574726
O O13 0.849243 0.314031 0.357420
O O14 0.287235 0.519131 0.972819
O O15 0.263152 0.399837 0.047752
O O16 0.176869 0.796303 0.191877
O O17 0.252145 0.888699 0.309261
#
# Coordination Sequence:
#
# PCOD9455337 Si02
#       8
#     8   8   8   8   8   8   8   8
#     4  12  24  37  55  84 128 167 199 238 302 375
#     4  11  22  38  61  90 123 163 202 250 320 374
#     4  10  21  37  59  85 117 161 214 253 304 363
#     4  11  20  37  60  87 120 162 204 264 306 368
#     4  12  23  39  59  83 121 170 204 251 301 375
#     4  10  20  38  60  82 119 159 208 256 308 372
#     4  11  23  38  58  89 124 159 205 249 304 376
#     4  11  23  37  58  84 119 161 208 252 305 357
#
# _framework density 21.447291
#
# number of rings (size 3 to 8) (size 9 to 14) (size 15 to 20)
#    0.000    1.000    5.000    3.375    1.750    0.500 
#    0.000    0.000    0.000    0.000    0.000    5.250 
#    0.000    0.000    0.000    0.000    0.000    0.000 
#
# Total GULP energy -357215.266378 kJ/mol
# GULP energy per Si atom -5581.488537 kJ/mol
# Density = 2.139848 g / cm^3
# Si number density = 21.447291 Si / 1000 Ang^3
#
#
#
# Elastic Constant Matrix: (Units=GPa)
#
#
# Indices 1 2 3 4 5 6 
#
# 1 27.8112 29.9608 20.1781 0.0000 0.0000 0.0000
# 2 29.9608 107.8662 37.4250 0.0000 0.0000 0.0000
# 3 20.1781 37.4250 117.3928 0.0000 0.0000 0.0000
# 4 0.0000 0.0000 0.0000 30.3985 0.0000 0.0000
# 5 0.0000 0.0000 0.0000 0.0000 21.9062 0.0000
# 6 0.0000 0.0000 0.0000 0.0000 0.0000 28.3271
#
#
#
# Elastic Compliance Matrix: (Units=1/GPa)
#
#
# Indices 1 2 3 4 5 6 
#
# 1 0.053842 -0.013205 -0.005045 0.000000 0.000000 0.000000
# 2 -0.013205 0.013662 -0.002086 0.000000 0.000000 0.000000
# 3 -0.005045 -0.002086 0.010051 0.000000 0.000000 0.000000
# 4 0.000000 0.000000 0.000000 0.032896 0.000000 0.000000
# 5 0.000000 0.000000 0.000000 0.000000 0.045649 0.000000
# 6 0.000000 0.000000 0.000000 0.000000 0.000000 0.035302
#
#
# Mechanical properties :
#
#
# Convention : Reuss Voigt Hill
#
# Bulk Modulus (GPa) = 27.11210 47.57756 37.34483
# Shear Modulus (GPa) = 20.46091 27.16012 23.81051
#
# Velocity S-wave (km/s) = 3.09205 3.56246 3.33556
# Velocity P-wave (km/s) = 5.04147 6.25725 5.68197
#
# Compressibility (1/GPa) = 0.03688390
#
# Stress axis : x y z
#
# Youngs Moduli (GPa) = 18.57270 73.19470 99.49718
#
# Poissons Ratio (x) = 0.96652 0.50196
# Poissons Ratio (y) = 0.24525 0.20753
# Poissons Ratio (z) = 0.09370 0.15267
#
# Static dielectric constant tensor:
#      x y z
#    x 1.829060 0.000000 0.000000 
#    y 0.000000 1.843520 0.000000 
#    z 0.000000 0.000000 1.829670 
# 
# From -- ./inp_files/7023.got.cif
#   From: 2010.05.17/outbox.cif.g08.bks.cpg/sg60_4_cif.got.tgz:7023.got - 2010.06.03 14:59:27.
