data_PCOD9455802
_publ_section_title
;
Structure prediction by ZEFSAII (Michael W. Deem and Ramdas Pophale) SiO2 
 PCOD9455802
Probable space group: P B C N
;
_chemical_formula_sum "Si O2"
_cell_formula_units_Z 48
_cell_length_a 22.646743
_cell_length_b 4.867091
_cell_length_c 20.621957
_cell_angle_alpha 90.000000
_cell_angle_beta 90.000000
_cell_angle_gamma 90.000000
_cell_volume 2273.029619
_symmetry_space_group_name_H-M "P B C N"
_symmetry_group_IT_number 60
_symmetry_cell_setting 'orthorhombic'
loop_
_space_group_symop_operation_xyz
x,y,z
1/2-x,1/2-y,1/2+z
1/2+x,1/2-y,-z
-x,y,1/2-z
-x,-y,-z
1/2+x,1/2+y,1/2-z
1/2-x,1/2+y,z
x,-y,1/2+z
loop_
_atom_site_type_symbol
_atom_site_label
_atom_site_fract_x
_atom_site_fract_y
_atom_site_fract_z
Si Si1 0.710556 0.698263 0.559805
Si Si2 0.521545 0.552482 0.821220
Si Si3 0.594072 0.038612 0.866046
Si Si4 0.586076 0.326440 0.085883
Si Si5 0.061980 0.340272 0.495124
Si Si6 0.289135 0.680017 0.095123
O O1 0.765780 0.500854 0.572028
O O2 0.653704 0.599126 0.599607
O O3 0.696082 0.686315 0.482149
O O4 0.500000 0.474719 0.750000
O O5 0.547527 0.287514 0.858054
O O6 0.464228 0.657217 0.860435
O O7 0.570689 0.795414 0.819322
O O8 0.656944 0.192532 0.864491
O O9 0.591354 0.887469 0.935668
O O10 0.563802 0.528677 0.028301
O O11 0.593124 0.017386 0.060253
O O12 0.000000 0.500000 0.500000
O O13 0.268166 0.371014 0.107488
#
# Coordination Sequence:
#
# PCOD9455802 Si02
#       6
#     8   8   8   8   8   8
#     4  10  21  34  54  86 125 158 186 232 298 371
#     4  12  26  42  61  87 118 165 208 254 301 348
#     4  12  23  39  63  88 125 156 195 251 306 369
#     4  12  22  37  59  87 125 154 195 244 302 369
#     4  12  21  34  58  95 120 151 186 242 320 368
#     4  10  21  35  56  89 125 156 186 233 300 370
#
# _framework density 21.117190000000001
#
# number of rings (size 3 to 8) (size 9 to 14) (size 15 to 20)
#    0.000    0.667    5.000    4.000    4.667    0.000 
#    0.000    0.000    0.000    6.000    0.000    0.000 
#    0.000    0.000    0.000    0.000    0.000    0.000 
#
# Total GULP energy -268018.366676 kJ/mol
# GULP energy per Si atom -5583.715972 kJ/mol
# Density = 2.106913 g / cm^3
# Si number density = 21.117190 Si / 1000 Ang^3
#
#
#
# Elastic Constant Matrix: (Units=GPa)
#
#
# Indices 1 2 3 4 5 6 
#
# 1 100.1735 5.8068 15.5649 0.0000 0.0000 0.0000
# 2 5.8068 93.4702 9.0547 0.0000 0.0000 0.0000
# 3 15.5649 9.0547 52.4458 0.0000 0.0000 0.0000
# 4 0.0000 0.0000 0.0000 10.4933 0.0000 0.0000
# 5 0.0000 0.0000 0.0000 0.0000 4.3859 0.0000
# 6 0.0000 0.0000 0.0000 0.0000 0.0000 30.4345
#
#
#
# Elastic Compliance Matrix: (Units=1/GPa)
#
#
# Indices 1 2 3 4 5 6 
#
# 1 0.010477 -0.000356 -0.003048 0.000000 0.000000 0.000000
# 2 -0.000356 0.010893 -0.001775 0.000000 0.000000 0.000000
# 3 -0.003048 -0.001775 0.020278 0.000000 0.000000 0.000000
# 4 0.000000 0.000000 0.000000 0.095299 0.000000 0.000000
# 5 0.000000 0.000000 0.000000 0.000000 0.228001 0.000000
# 6 0.000000 0.000000 0.000000 0.000000 0.000000 0.032857
#
#
# Mechanical properties :
#
#
# Convention : Reuss Voigt Hill
#
# Bulk Modulus (GPa) = 31.95844 34.10470 33.03157
# Shear Modulus (GPa) = 11.94480 23.44029 17.69255
#
# Velocity S-wave (km/s) = 2.38091 3.33530 2.89766
# Velocity P-wave (km/s) = 4.76707 5.56934 5.18375
#
# Compressibility (1/GPa) = 0.03129064
#
# Stress axis : x y z
#
# Youngs Moduli (GPa) = 95.44832 91.80505 49.31368
#
# Poissons Ratio (x) = 0.03265 0.15030
# Poissons Ratio (y) = 0.03394 0.08754
# Poissons Ratio (z) = 0.29092 0.16296
#
# Static dielectric constant tensor:
#      x y z
#    x 1.892740 0.000000 0.000000 
#    y 0.000000 1.765090 0.000000 
#    z 0.000000 0.000000 1.749320 
# 
# From -- ./inp_files/23168.got.cif
#   From: 2010.05.17/outbox.cif.g08.bks.cpg/sg60_12_cif.got.tgz:23168.got - 2010.06.03 14:59:27.
