data_PCOD9455583
_publ_section_title
;
Structure prediction by ZEFSAII (Michael W. Deem and Ramdas Pophale) SiO2 
 PCOD9455583
Probable space group: P B C N
;
_chemical_formula_sum "Si O2"
_cell_formula_units_Z 64
_cell_length_a 11.733153
_cell_length_b 7.956725
_cell_length_c 28.573261
_cell_angle_alpha 90.000000
_cell_angle_beta 90.000000
_cell_angle_gamma 90.000000
_cell_volume 2667.527408
_symmetry_space_group_name_H-M "P B C N"
_symmetry_group_IT_number 60
_symmetry_cell_setting 'orthorhombic'
loop_
_space_group_symop_operation_xyz
x,y,z
1/2-x,1/2-y,1/2+z
1/2+x,1/2-y,-z
-x,y,1/2-z
-x,-y,-z
1/2+x,1/2+y,1/2-z
1/2-x,1/2+y,z
x,-y,1/2+z
loop_
_atom_site_type_symbol
_atom_site_label
_atom_site_fract_x
_atom_site_fract_y
_atom_site_fract_z
Si Si1 0.592582 0.759315 0.792274
Si Si2 0.407214 0.155578 0.487272
Si Si3 0.817087 0.662654 0.546055
Si Si4 0.513300 0.282108 0.109928
Si Si5 0.357268 0.359480 0.711039
Si Si6 0.588916 0.759734 0.185435
Si Si7 0.235933 0.031920 0.860947
Si Si8 0.993376 0.908400 0.949153
O O1 0.500000 0.802787 0.750000
O O2 0.547690 0.793439 0.845006
O O3 0.609896 0.556485 0.789650
O O4 0.720351 0.837519 0.792086
O O5 0.298491 0.270333 0.474465
O O6 0.480821 0.185722 0.439601
O O7 0.430977 0.235915 0.538202
O O8 0.380252 0.958771 0.490299
O O9 0.800408 0.541563 0.589913
O O10 0.883415 0.830198 0.560022
O O11 0.639542 0.324342 0.129987
O O12 0.461393 0.461503 0.091005
O O13 0.386004 0.284885 0.761457
O O14 0.452283 0.262494 0.678294
O O15 0.660020 0.620535 0.156717
O O16 0.660672 0.926909 0.174287
O O17 0.000000 0.000000 0.000000
#
# Coordination Sequence:
#
# PCOD9455583 Si02
#       8
#     8   8   8   8   8   8   8   8
#     4  12  24  48  69  94 143 184 228 285 347 417
#     4  10  21  38  62  95 130 170 225 285 346 414
#     4  11  21  36  65 101 130 171 234 284 348 432
#     4  10  20  40  64  94 129 182 229 277 351 412
#     4  11  24  43  66  96 137 183 232 291 343 418
#     4  11  21  40  64 100 132 177 236 288 354 402
#     4  11  20  37  70  95 133 175 230 296 348 409
#     4  10  21  39  65  92 134 175 220 288 345 408
#
# _framework density 23.992256999999999
#
# number of rings (size 3 to 8) (size 9 to 14) (size 15 to 20)
#    0.000    1.250    2.500    6.375    0.000    0.000 
#    9.000    3.750    0.000    0.000    0.000    0.000 
#    0.000    0.000    0.000    0.000    0.000    0.000 
#
# Total GULP energy -356721.319119 kJ/mol
# GULP energy per Si atom -5573.770611 kJ/mol
# Density = 2.393765 g / cm^3
# Si number density = 23.992257 Si / 1000 Ang^3
#
#
#
# Elastic Constant Matrix: (Units=GPa)
#
#
# Indices 1 2 3 4 5 6 
#
# 1 118.8097 16.7254 62.0290 0.0000 0.0000 0.0000
# 2 16.7254 61.6528 19.5632 0.0000 0.0000 0.0000
# 3 62.0290 19.5632 106.9645 0.0000 0.0000 0.0000
# 4 0.0000 0.0000 0.0000 28.3388 0.0000 0.0000
# 5 0.0000 0.0000 0.0000 0.0000 29.5028 0.0000
# 6 0.0000 0.0000 0.0000 0.0000 0.0000 34.4148
#
#
#
# Elastic Compliance Matrix: (Units=1/GPa)
#
#
# Indices 1 2 3 4 5 6 
#
# 1 0.012145 -0.001125 -0.006837 0.000000 0.000000 0.000000
# 2 -0.001125 0.017323 -0.002516 0.000000 0.000000 0.000000
# 3 -0.006837 -0.002516 0.013774 0.000000 0.000000 0.000000
# 4 0.000000 0.000000 0.000000 0.035287 0.000000 0.000000
# 5 0.000000 0.000000 0.000000 0.000000 0.033895 0.000000
# 6 0.000000 0.000000 0.000000 0.000000 0.000000 0.029057
#
#
# Mechanical properties :
#
#
# Convention : Reuss Voigt Hill
#
# Bulk Modulus (GPa) = 44.87140 53.78469 49.32804
# Shear Modulus (GPa) = 29.43493 31.05858 30.24675
#
# Velocity S-wave (km/s) = 3.50644 3.60185 3.55447
# Velocity P-wave (km/s) = 5.92761 6.30587 6.11966
#
# Compressibility (1/GPa) = 0.02228591
#
# Stress axis : x y z
#
# Youngs Moduli (GPa) = 82.34039 57.72529 72.60159
#
# Poissons Ratio (x) = 0.06495 0.49637
# Poissons Ratio (y) = 0.09265 0.18266
# Poissons Ratio (z) = 0.56296 0.14523
#
# Static dielectric constant tensor:
#      x y z
#    x 2.204650 0.000000 0.000000 
#    y 0.000000 2.028490 0.000000 
#    z 0.000000 0.000000 1.963270 
# 
# From -- ./inp_files/26090.got.cif
#   From: 2010.05.17/outbox.cif.g08.bks.cpg/sg60_14_cif.got.tgz:26090.got - 2010.06.03 14:59:27.
