data_PCOD9455787
_publ_section_title
;
Structure prediction by ZEFSAII (Michael W. Deem and Ramdas Pophale) SiO2 
 PCOD9455787
Probable space group: P B C N
;
_chemical_formula_sum "Si O2"
_cell_formula_units_Z 56
_cell_length_a 17.939823
_cell_length_b 26.638721
_cell_length_c 5.516675
_cell_angle_alpha 90.000000
_cell_angle_beta 90.000000
_cell_angle_gamma 90.000000
_cell_volume 2636.385550
_symmetry_space_group_name_H-M "P B C N"
_symmetry_group_IT_number 60
_symmetry_cell_setting 'orthorhombic'
loop_
_space_group_symop_operation_xyz
x,y,z
1/2-x,1/2-y,1/2+z
1/2+x,1/2-y,-z
-x,y,1/2-z
-x,-y,-z
1/2+x,1/2+y,1/2-z
1/2-x,1/2+y,z
x,-y,1/2+z
loop_
_atom_site_type_symbol
_atom_site_label
_atom_site_fract_x
_atom_site_fract_y
_atom_site_fract_z
Si Si1 0.405540 0.027187 0.916119
Si Si2 0.827842 0.780657 0.241753
Si Si3 0.956981 0.747536 0.505037
Si Si4 0.608224 0.139105 0.613992
Si Si5 0.776157 0.974110 0.067983
Si Si6 0.221923 0.135962 0.091770
Si Si7 0.695796 0.820630 0.506987
O O1 0.427872 0.085627 0.938361
O O2 0.314492 0.027116 0.922166
O O3 0.427013 0.004312 0.654703
O O4 0.884718 0.782703 0.464065
O O5 0.741999 0.786369 0.318650
O O6 0.839966 0.723645 0.159844
O O7 0.830286 0.822413 0.032772
O O8 0.936318 0.688771 0.545094
O O9 0.000000 0.762348 0.750000
O O10 0.000000 0.753093 0.250000
O O11 0.690767 0.140336 0.493895
O O12 0.632035 0.144931 0.895716
O O13 0.798529 0.990856 0.339168
O O14 0.802143 0.918672 0.992060
O O15 0.238975 0.146154 0.373139
#
# Coordination Sequence:
#
# PCOD9455787 Si02
#       7
#     8   8   8   8   8   8   8
#     4   9  19  31  53  79 107 144 185 241 291 336
#     4  11  21  36  55  86 116 146 199 234 289 354
#     4  12  27  42  59  79 115 163 197 244 292 346
#     4  10  22  36  55  83 113 148 203 233 290 354
#     4   9  19  32  47  79 120 147 180 215 281 358
#     4  10  21  32  60  83 113 158 181 241 288 339
#     4  11  19  33  59  87 116 151 183 249 285 348
#
# _framework density 21.241202000000001
#
# number of rings (size 3 to 8) (size 9 to 14) (size 15 to 20)
#    0.000    1.714    2.857    1.714   14.000    0.000 
#    0.000    0.000    0.000    2.571    0.000    0.000 
#    0.000    3.429    0.000    0.000    0.000    0.000 
#
# Total GULP energy -312178.904165 kJ/mol
# GULP energy per Si atom -5574.623289 kJ/mol
# Density = 2.119286 g / cm^3
# Si number density = 21.241202 Si / 1000 Ang^3
#
#
#
# Elastic Constant Matrix: (Units=GPa)
#
#
# Indices 1 2 3 4 5 6 
#
# 1 36.5605 10.5614 15.6174 0.0000 0.0000 0.0000
# 2 10.5614 79.1343 30.5550 0.0000 0.0000 0.0000
# 3 15.6174 30.5550 97.4732 0.0000 0.0000 0.0000
# 4 0.0000 0.0000 0.0000 26.6268 0.0000 0.0000
# 5 0.0000 0.0000 0.0000 0.0000 29.0554 0.0000
# 6 0.0000 0.0000 0.0000 0.0000 0.0000 14.6139
#
#
#
# Elastic Compliance Matrix: (Units=1/GPa)
#
#
# Indices 1 2 3 4 5 6 
#
# 1 0.029765 -0.002425 -0.004009 0.000000 0.000000 0.000000
# 2 -0.002425 0.014574 -0.004180 0.000000 0.000000 0.000000
# 3 -0.004009 -0.004180 0.012212 0.000000 0.000000 0.000000
# 4 0.000000 0.000000 0.000000 0.037556 0.000000 0.000000
# 5 0.000000 0.000000 0.000000 0.000000 0.034417 0.000000
# 6 0.000000 0.000000 0.000000 0.000000 0.000000 0.068428
#
#
# Mechanical properties :
#
#
# Convention : Reuss Voigt Hill
#
# Bulk Modulus (GPa) = 28.30957 36.29284 32.30121
# Shear Modulus (GPa) = 21.74347 24.48818 23.11583
#
# Velocity S-wave (km/s) = 3.20292 3.39907 3.30245
# Velocity P-wave (km/s) = 5.19950 5.70333 5.45724
#
# Compressibility (1/GPa) = 0.03532374
#
# Stress axis : x y z
#
# Youngs Moduli (GPa) = 33.59674 68.61369 81.88723
#
# Poissons Ratio (x) = 0.16636 0.32828
# Poissons Ratio (y) = 0.08146 0.34230
# Poissons Ratio (z) = 0.13469 0.28682
#
# Static dielectric constant tensor:
#      x y z
#    x 1.793860 0.000000 0.000000 
#    y 0.000000 1.761270 0.000000 
#    z 0.000000 0.000000 2.090440 
# 
# From -- ./inp_files/2143.got.cif
#   From: 2010.05.17/outbox.cif.g08.bks.cpg/sg60_2_cif.got.tgz:2143.got - 2010.06.03 14:59:27.
