data_PCOD9455241
_publ_section_title
;
Structure prediction by ZEFSAII (Michael W. Deem and Ramdas Pophale) SiO2 
 PCOD9455241
Probable space group: P B C N
;
_chemical_formula_sum "Si O2"
_cell_formula_units_Z 52
_cell_length_a 13.704218
_cell_length_b 19.591174
_cell_length_c 8.422096
_cell_angle_alpha 90.000000
_cell_angle_beta 90.000000
_cell_angle_gamma 90.000000
_cell_volume 2261.178815
_symmetry_space_group_name_H-M "P B C N"
_symmetry_group_IT_number 60
_symmetry_cell_setting 'orthorhombic'
loop_
_space_group_symop_operation_xyz
x,y,z
1/2-x,1/2-y,1/2+z
1/2+x,1/2-y,-z
-x,y,1/2-z
-x,-y,-z
1/2+x,1/2+y,1/2-z
1/2-x,1/2+y,z
x,-y,1/2+z
loop_
_atom_site_type_symbol
_atom_site_label
_atom_site_fract_x
_atom_site_fract_y
_atom_site_fract_z
Si Si1 0.698959 0.839000 0.274859
Si Si2 0.302108 0.598891 0.183604
Si Si3 0.214218 0.974017 0.355712
Si Si4 0.000000 0.751167 0.250000
Si Si5 0.000000 0.060688 0.750000
Si Si6 0.311133 0.777935 0.578424
Si Si7 0.500000 0.770973 0.250000
Si Si8 0.512379 0.344309 0.978889
O O1 0.728637 0.918040 0.251823
O O2 0.771485 0.797982 0.390428
O O3 0.587214 0.817559 0.316875
O O4 0.705701 0.806593 0.097304
O O5 0.266228 0.553422 0.328917
O O6 0.255116 0.672595 0.185208
O O7 0.270477 0.553165 0.032384
O O8 0.414101 0.615946 0.136144
O O9 0.098427 0.972845 0.313009
O O10 0.919371 0.712548 0.350445
O O11 0.940874 0.799459 0.124256
O O12 0.961340 0.101198 0.907646
O O13 0.461432 0.715595 0.379844
#
# Coordination Sequence:
#
# PCOD9455241 Si02
#       8
#     8   8   8   4   4   8   4   8
#     4  11  24  39  63  91 127 161 208 266 313 370
#     4  10  22  40  58  88 123 163 211 248 308 379
#     4  10  23  40  58  86 128 167 204 253 309 380
#     4  11  20  38  63  89 126 159 196 266 337 354
#     4   9  20  39  58  84 125 163 196 248 323 373
#     4  11  22  40  63  91 123 161 210 262 317 379
#     4  12  22  37  59  99 123 158 206 268 300 373
#     4  10  20  37  59  89 121 155 205 253 310 373
#
# _framework density 22.996855
#
# number of rings (size 3 to 8) (size 9 to 14) (size 15 to 20)
#    0.000    1.538    3.077    3.692    0.000    5.538 
#    0.000    0.769    0.000    3.692    0.000    0.000 
#    0.000    0.000    0.000    0.000    0.000    0.000 
#
# Total GULP energy -289722.553116 kJ/mol
# GULP energy per Si atom -5571.587560 kJ/mol
# Density = 2.294451 g / cm^3
# Si number density = 22.996855 Si / 1000 Ang^3
#
#
#
# Elastic Constant Matrix: (Units=GPa)
#
#
# Indices 1 2 3 4 5 6 
#
# 1 66.1657 -1.4000 4.5196 0.0000 0.0000 0.0000
# 2 -1.4000 72.8699 8.6284 0.0000 0.0000 0.0000
# 3 4.5196 8.6284 50.2020 0.0000 0.0000 0.0000
# 4 0.0000 0.0000 0.0000 27.2141 0.0000 0.0000
# 5 0.0000 0.0000 0.0000 0.0000 20.3255 0.0000
# 6 0.0000 0.0000 0.0000 0.0000 0.0000 -20.9124
#
#
#
# Elastic Compliance Matrix: (Units=1/GPa)
#
#
# Indices 1 2 3 4 5 6 
#
# 1 0.015222 0.000464 -0.001450 0.000000 0.000000 0.000000
# 2 0.000464 0.014022 -0.002452 0.000000 0.000000 0.000000
# 3 -0.001450 -0.002452 0.020472 0.000000 0.000000 0.000000
# 4 0.000000 0.000000 0.000000 0.036746 0.000000 0.000000
# 5 0.000000 0.000000 0.000000 0.000000 0.049199 0.000000
# 6 0.000000 0.000000 0.000000 0.000000 0.000000 -0.047819
#
#
# Mechanical properties :
#
#
# Convention : Reuss Voigt Hill
#
# Bulk Modulus (GPa) = 23.34242 23.63706 23.48974
# Shear Modulus (GPa) = 45.87215 17.15809 31.51512
#
# Velocity S-wave (km/s) = 4.47107 2.73446 3.70592
# Velocity P-wave (km/s) = 6.06846 4.50226 5.34306
#
# Compressibility (1/GPa) = 0.04284046
#
# Stress axis : x y z
#
# Youngs Moduli (GPa) = 65.69245 71.31488 48.84836
#
# Poissons Ratio (x) = -0.03310 0.07084
# Poissons Ratio (y) = -0.03049 0.11977
# Poissons Ratio (z) = 0.09527 0.17485
#
# Static dielectric constant tensor:
#      x y z
#    x 1.900450 0.000000 0.000000 
#    y 0.000000 1.892270 0.000000 
#    z 0.000000 0.000000 1.984310 
# 
# From -- ./inp_files/6118.got.cif
#   From: 2010.05.17/outbox.cif.g08.bks.cpg/sg60_4_cif.got.tgz:6118.got - 2010.06.03 14:59:27.
