data_PCOD9455432
_publ_section_title
;
Structure prediction by ZEFSAII (Michael W. Deem and Ramdas Pophale) SiO2 
 PCOD9455432
Probable space group: P B C N
;
_chemical_formula_sum "Si O2"
_cell_formula_units_Z 56
_cell_length_a 13.707010
_cell_length_b 14.344661
_cell_length_c 14.752776
_cell_angle_alpha 90.000000
_cell_angle_beta 90.000000
_cell_angle_gamma 90.000000
_cell_volume 2900.726397
_symmetry_space_group_name_H-M "P B C N"
_symmetry_group_IT_number 60
_symmetry_cell_setting 'orthorhombic'
loop_
_space_group_symop_operation_xyz
x,y,z
1/2-x,1/2-y,1/2+z
1/2+x,1/2-y,-z
-x,y,1/2-z
-x,-y,-z
1/2+x,1/2+y,1/2-z
1/2-x,1/2+y,z
x,-y,1/2+z
loop_
_atom_site_type_symbol
_atom_site_label
_atom_site_fract_x
_atom_site_fract_y
_atom_site_fract_z
Si Si1 0.829553 0.259502 0.901419
Si Si2 0.207927 0.595202 0.521472
Si Si3 0.810357 0.028451 0.154812
Si Si4 0.513977 0.578407 0.422702
Si Si5 0.775590 0.060448 0.350270
Si Si6 0.391256 0.669638 0.785922
Si Si7 0.455639 0.231615 0.465863
O O1 0.786810 0.176989 0.962222
O O2 0.757277 0.345942 0.899497
O O3 0.841489 0.218449 0.800020
O O4 0.934192 0.292167 0.937534
O O5 0.242676 0.539586 0.432673
O O6 0.217756 0.525363 0.605770
O O7 0.105458 0.647530 0.508942
O O8 0.759753 0.069823 0.243562
O O9 0.914098 0.077717 0.133730
O O10 0.836119 0.922131 0.180104
O O11 0.500000 0.500000 0.500000
O O12 0.608915 0.547513 0.366555
O O13 0.535613 0.677674 0.469437
O O14 0.500000 0.644050 0.750000
O O15 0.403245 0.736167 0.872750
#
# Coordination Sequence:
#
# PCOD9455432 Si02
#       7
#     8   8   8   8   8   8   8
#     4  11  23  42  64  91 132 175 216 269 333 393
#     4  12  24  41  64  97 131 171 220 269 326 397
#     4  12  23  37  64  99 128 160 217 280 327 377
#     4  12  20  37  65  97 126 160 213 279 330 369
#     4  12  24  41  65  93 131 172 214 266 331 395
#     4  10  20  38  65  95 125 166 217 274 332 386
#     4  11  22  40  65  93 131 171 217 264 325 399
#
# _framework density 19.305509000000001
#
# number of rings (size 3 to 8) (size 9 to 14) (size 15 to 20)
#    0.000    0.571    7.143    2.143    0.000    0.571 
#    0.000    0.000    0.000    0.000    0.000    0.000 
#    0.000    0.000    0.000    0.000    0.000    0.000 
#
# Total GULP energy -313080.238329 kJ/mol
# GULP energy per Si atom -5590.718542 kJ/mol
# Density = 1.926157 g / cm^3
# Si number density = 19.305509 Si / 1000 Ang^3
#
#
#
# Elastic Constant Matrix: (Units=GPa)
#
#
# Indices 1 2 3 4 5 6 
#
# 1 62.7674 36.5252 30.9719 0.0000 0.0000 0.0000
# 2 36.5252 81.3544 23.2020 0.0000 0.0000 0.0000
# 3 30.9719 23.2020 89.6862 0.0000 0.0000 0.0000
# 4 0.0000 0.0000 0.0000 14.2457 0.0000 0.0000
# 5 0.0000 0.0000 0.0000 0.0000 24.8883 0.0000
# 6 0.0000 0.0000 0.0000 0.0000 0.0000 35.2875
#
#
#
# Elastic Compliance Matrix: (Units=1/GPa)
#
#
# Indices 1 2 3 4 5 6 
#
# 1 0.024223 -0.009166 -0.005994 0.000000 0.000000 0.000000
# 2 -0.009166 0.016739 -0.001165 0.000000 0.000000 0.000000
# 3 -0.005994 -0.001165 0.013521 0.000000 0.000000 0.000000
# 4 0.000000 0.000000 0.000000 0.070197 0.000000 0.000000
# 5 0.000000 0.000000 0.000000 0.000000 0.040180 0.000000
# 6 0.000000 0.000000 0.000000 0.000000 0.000000 0.028339
#
#
# Mechanical properties :
#
#
# Convention : Reuss Voigt Hill
#
# Bulk Modulus (GPa) = 45.80032 46.13402 45.96717
# Shear Modulus (GPa) = 21.44757 24.42489 22.93623
#
# Velocity S-wave (km/s) = 3.33672 3.56079 3.45057
# Velocity P-wave (km/s) = 6.21453 6.39174 6.30376
#
# Compressibility (1/GPa) = 0.02183391
#
# Stress axis : x y z
#
# Youngs Moduli (GPa) = 41.28263 59.73944 73.95706
#
# Poissons Ratio (x) = 0.54757 0.44329
# Poissons Ratio (y) = 0.37839 0.08617
# Poissons Ratio (z) = 0.24745 0.06961
#
# Static dielectric constant tensor:
#      x y z
#    x 1.672270 0.000000 0.000000 
#    y 0.000000 1.659720 0.000000 
#    z 0.000000 0.000000 1.683890 
# 
# From -- ./inp_files/16872.got.cif
#   From: 2010.05.17/outbox.cif.g08.bks.cpg/sg60_9_cif.got.tgz:16872.got - 2010.06.03 14:59:27.
