data_PCOD9455547
_publ_section_title
;
Structure prediction by ZEFSAII (Michael W. Deem and Ramdas Pophale) SiO2 
 PCOD9455547
Probable space group: P B C N
;
_chemical_formula_sum "Si O2"
_cell_formula_units_Z 36
_cell_length_a 18.906086
_cell_length_b 7.262883
_cell_length_c 10.404321
_cell_angle_alpha 90.000000
_cell_angle_beta 90.000000
_cell_angle_gamma 90.000000
_cell_volume 1428.645310
_symmetry_space_group_name_H-M "P B C N"
_symmetry_group_IT_number 60
_symmetry_cell_setting 'orthorhombic'
loop_
_space_group_symop_operation_xyz
x,y,z
1/2-x,1/2-y,1/2+z
1/2+x,1/2-y,-z
-x,y,1/2-z
-x,-y,-z
1/2+x,1/2+y,1/2-z
1/2-x,1/2+y,z
x,-y,1/2+z
loop_
_atom_site_type_symbol
_atom_site_label
_atom_site_fract_x
_atom_site_fract_y
_atom_site_fract_z
Si Si1 0.145082 0.264877 0.422953
Si Si2 0.500000 0.250978 0.250000
Si Si3 0.397473 0.139017 0.465564
Si Si4 0.288439 0.576636 0.855319
Si Si5 0.902301 0.919475 0.806420
O O1 0.118391 0.430891 0.510367
O O2 0.187148 0.079177 0.459927
O O3 0.207278 0.371821 0.344728
O O4 0.084088 0.186359 0.329778
O O5 0.458087 0.138943 0.357412
O O6 0.552777 0.396047 0.319812
O O7 0.331861 0.242638 0.395611
O O8 0.413095 0.275357 0.582038
O O9 0.322776 0.488857 0.728134
#
# Coordination Sequence:
#
# PCOD9455547 Si02
#       5
#     8   4   8   8   8
#     4  10  20  40  58  91 120 150 190 243 292 356
#     4  10  22  42  60  84 124 150 204 256 278 340
#     4  11  20  41  61  85 116 164 188 245 300 334
#     4   9  20  39  59  86 127 141 194 245 287 358
#     4   9  22  38  62  86 116 156 201 235 293 352
#
# _framework density 25.198699000000001
#
# number of rings (size 3 to 8) (size 9 to 14) (size 15 to 20)
#    1.333    0.889    2.222    0.667    0.000    2.667 
#    8.000    2.222    0.000    0.000    0.000    0.000 
#    0.000    0.000    0.000    0.000    0.000    0.000 
#
# Total GULP energy -200581.504672 kJ/mol
# GULP energy per Si atom -5571.708463 kJ/mol
# Density = 2.514135 g / cm^3
# Si number density = 25.198699 Si / 1000 Ang^3
#
#
#
# Elastic Constant Matrix: (Units=GPa)
#
#
# Indices 1 2 3 4 5 6 
#
# 1 56.2991 18.8122 -9.7237 0.0000 0.0000 0.0000
# 2 18.8122 173.9672 5.8827 0.0000 0.0000 0.0000
# 3 -9.7237 5.8827 56.2913 0.0000 0.0000 0.0000
# 4 0.0000 0.0000 0.0000 7.8320 0.0000 0.0000
# 5 0.0000 0.0000 0.0000 0.0000 1.8149 0.0000
# 6 0.0000 0.0000 0.0000 0.0000 0.0000 30.5933
#
#
#
# Elastic Compliance Matrix: (Units=1/GPa)
#
#
# Indices 1 2 3 4 5 6 
#
# 1 0.019102 -0.002185 0.003528 0.000000 0.000000 0.000000
# 2 -0.002185 0.006019 -0.001006 0.000000 0.000000 0.000000
# 3 0.003528 -0.001006 0.018479 0.000000 0.000000 0.000000
# 4 0.000000 0.000000 0.000000 0.127681 0.000000 0.000000
# 5 0.000000 0.000000 0.000000 0.000000 0.550984 0.000000
# 6 0.000000 0.000000 0.000000 0.000000 0.000000 0.032687
#
#
# Mechanical properties :
#
#
# Convention : Reuss Voigt Hill
#
# Bulk Modulus (GPa) = 22.58721 35.16666 28.87694
# Shear Modulus (GPa) = 6.50165 26.15380 16.32772
#
# Velocity S-wave (km/s) = 1.60803 3.22515 2.54827
# Velocity P-wave (km/s) = 3.52573 5.27776 4.48807
#
# Compressibility (1/GPa) = 0.04427284
#
# Stress axis : x y z
#
# Youngs Moduli (GPa) = 52.35145 166.15416 54.11452
#
# Poissons Ratio (x) = 0.36303 -0.19091
# Poissons Ratio (y) = 0.11438 0.05446
# Poissons Ratio (z) = -0.18469 0.16721
#
# Static dielectric constant tensor:
#      x y z
#    x 0.774110 0.000000 0.000000 
#    y 0.000000 1.998260 0.000000 
#    z 0.000000 0.000000 2.069980 
# 
# From -- ./inp_files/12739.got.cif
#   From: 2010.05.17/outbox.cif.g08.bks.cpg/sg60_7_cif.got.tgz:12739.got - 2010.06.03 14:59:27.
