data_PCOD9455445
_publ_section_title
;
Structure prediction by ZEFSAII (Michael W. Deem and Ramdas Pophale) SiO2 
 PCOD9455445
Probable space group: P B C N
;
_chemical_formula_sum "Si O2"
_cell_formula_units_Z 56
_cell_length_a 13.876482
_cell_length_b 14.090659
_cell_length_c 12.905828
_cell_angle_alpha 90.000000
_cell_angle_beta 90.000000
_cell_angle_gamma 90.000000
_cell_volume 2523.460752
_symmetry_space_group_name_H-M "P B C N"
_symmetry_group_IT_number 60
_symmetry_cell_setting 'orthorhombic'
loop_
_space_group_symop_operation_xyz
x,y,z
1/2-x,1/2-y,1/2+z
1/2+x,1/2-y,-z
-x,y,1/2-z
-x,-y,-z
1/2+x,1/2+y,1/2-z
1/2-x,1/2+y,z
x,-y,1/2+z
loop_
_atom_site_type_symbol
_atom_site_label
_atom_site_fract_x
_atom_site_fract_y
_atom_site_fract_z
Si Si1 0.199307 0.595739 0.825390
Si Si2 0.399626 0.688702 0.813760
Si Si3 0.413325 0.407595 0.802086
Si Si4 0.695834 0.818098 0.943931
Si Si5 0.688682 0.102250 0.224377
Si Si6 0.518911 0.701525 0.004437
Si Si7 0.382852 0.771097 0.152550
O O1 0.311580 0.617261 0.788567
O O2 0.146641 0.493465 0.822811
O O3 0.140868 0.653600 0.739075
O O4 0.199220 0.637838 0.941594
O O5 0.500000 0.688639 0.750000
O O6 0.353042 0.795712 0.810440
O O7 0.436485 0.664710 0.928955
O O8 0.500000 0.470008 0.750000
O O9 0.298831 0.420141 0.808781
O O10 0.443480 0.377910 0.917349
O O11 0.409285 0.322157 0.718250
O O12 0.685593 0.892724 0.849673
O O13 0.789158 0.756085 0.914320
O O14 0.605740 0.747226 0.942001
O O15 0.471102 0.784234 0.074918
#
# Coordination Sequence:
#
# PCOD9455445 Si02
#       7
#     8   8   8   8   8   8   8
#     4  12  24  44  70  97 134 184 228 274 347 411
#     4  12  23  44  68 100 139 179 224 288 340 410
#     4   9  19  39  66  94 125 169 220 277 326 404
#     4  11  21  43  64  97 138 172 223 283 332 404
#     4  11  25  44  65  98 144 173 223 287 338 404
#     4  11  20  37  73  92 124 183 221 270 347 390
#     4  10  20  38  67  93 127 174 222 268 332 405
#
# _framework density 22.191745000000001
#
# number of rings (size 3 to 8) (size 9 to 14) (size 15 to 20)
#    0.000    1.143    7.143    0.000    0.000    1.714 
#    5.143    2.143    0.000    0.000    0.000    0.000 
#    0.000    0.000    0.000    0.000    0.000    0.000 
#
# Total GULP energy -311837.347291 kJ/mol
# GULP energy per Si atom -5568.524059 kJ/mol
# Density = 2.214124 g / cm^3
# Si number density = 22.191745 Si / 1000 Ang^3
#
#
#
# Elastic Constant Matrix: (Units=GPa)
#
#
# Indices 1 2 3 4 5 6 
#
# 1 57.0719 5.3063 5.0296 0.0000 0.0000 0.0000
# 2 5.3063 72.6012 5.2789 0.0000 0.0000 0.0000
# 3 5.0296 5.2789 91.8177 0.0000 0.0000 0.0000
# 4 0.0000 0.0000 0.0000 19.8508 0.0000 0.0000
# 5 0.0000 0.0000 0.0000 0.0000 51.7368 0.0000
# 6 0.0000 0.0000 0.0000 0.0000 0.0000 2.7236
#
#
#
# Elastic Compliance Matrix: (Units=1/GPa)
#
#
# Indices 1 2 3 4 5 6 
#
# 1 0.017715 -0.001229 -0.000900 0.000000 0.000000 0.000000
# 2 -0.001229 0.013917 -0.000733 0.000000 0.000000 0.000000
# 3 -0.000900 -0.000733 0.010983 0.000000 0.000000 0.000000
# 4 0.000000 0.000000 0.000000 0.050376 0.000000 0.000000
# 5 0.000000 0.000000 0.000000 0.000000 0.019329 0.000000
# 6 0.000000 0.000000 0.000000 0.000000 0.000000 0.367157
#
#
# Mechanical properties :
#
#
# Convention : Reuss Voigt Hill
#
# Bulk Modulus (GPa) = 27.10677 28.08005 27.59341
# Shear Modulus (GPa) = 10.05031 28.58730 19.31880
#
# Velocity S-wave (km/s) = 2.13042 3.59304 2.95369
# Velocity P-wave (km/s) = 4.27702 5.46755 4.90851
#
# Compressibility (1/GPa) = 0.03689115
#
# Stress axis : x y z
#
# Youngs Moduli (GPa) = 56.44821 71.85452 91.05344
#
# Poissons Ratio (x) = 0.08834 0.08192
# Poissons Ratio (y) = 0.06940 0.06672
# Poissons Ratio (z) = 0.05079 0.05265
#
# Static dielectric constant tensor:
#      x y z
#    x 2.080310 0.000000 0.000000 
#    y 0.000000 1.853810 0.000000 
#    z 0.000000 0.000000 1.855200 
# 
# From -- ./inp_files/11950.got.cif
#   From: 2010.05.17/outbox.cif.g08.bks.cpg/sg60_6_cif.got.tgz:11950.got - 2010.06.03 14:59:27.
