data_PCOD9455599
_publ_section_title
;
Structure prediction by ZEFSAII (Michael W. Deem and Ramdas Pophale) SiO2 
 PCOD9455599
Probable space group: P B C N
;
_chemical_formula_sum "Si O2"
_cell_formula_units_Z 56
_cell_length_a 32.182145
_cell_length_b 6.042418
_cell_length_c 12.746276
_cell_angle_alpha 90.000000
_cell_angle_beta 90.000000
_cell_angle_gamma 90.000000
_cell_volume 2478.614984
_symmetry_space_group_name_H-M "P B C N"
_symmetry_group_IT_number 60
_symmetry_cell_setting 'orthorhombic'
loop_
_space_group_symop_operation_xyz
x,y,z
1/2-x,1/2-y,1/2+z
1/2+x,1/2-y,-z
-x,y,1/2-z
-x,-y,-z
1/2+x,1/2+y,1/2-z
1/2-x,1/2+y,z
x,-y,1/2+z
loop_
_atom_site_type_symbol
_atom_site_label
_atom_site_fract_x
_atom_site_fract_y
_atom_site_fract_z
Si Si1 0.761907 0.119822 0.709054
Si Si2 0.971628 0.697770 0.111975
Si Si3 0.266623 0.127790 0.547073
Si Si4 0.087537 0.064581 0.404029
Si Si5 0.600923 0.063283 0.729799
Si Si6 0.561006 0.076558 0.428265
Si Si7 0.839919 0.736116 0.099369
O O1 0.750163 0.371483 0.669513
O O2 0.810627 0.131193 0.680968
O O3 0.743235 0.123500 0.827463
O O4 0.941617 0.539354 0.179853
O O5 0.020434 0.679174 0.127853
O O6 0.955276 0.944089 0.121779
O O7 0.959473 0.623255 0.993752
O O8 0.248005 0.375037 0.516199
O O9 0.312922 0.151559 0.499053
O O10 0.101677 0.180846 0.297082
O O11 0.080156 0.246443 0.492372
O O12 0.122334 0.890347 0.436952
O O13 0.596322 0.003851 0.850051
O O14 0.639034 0.956247 0.667718
#
# Coordination Sequence:
#
# PCOD9455599 Si02
#       7
#     8   8   8   8   8   8   8
#     4  10  23  43  66 100 126 174 233 277 345 421
#     4   9  20  40  63  96 128 178 223 284 326 406
#     4  10  23  43  69  97 129 175 231 282 344 418
#     4  10  23  41  63  98 134 178 221 279 358 406
#     4  10  23  40  61  97 134 177 218 279 350 410
#     4  10  20  40  66  92 134 172 235 275 334 408
#     4  11  24  41  65  91 137 170 218 291 344 411
#
# _framework density 22.593260999999998
#
# number of rings (size 3 to 8) (size 9 to 14) (size 15 to 20)
#    0.000    2.000    0.000    1.714    4.000    4.571 
#   12.857    8.571    0.000    0.000    0.000    0.000 
#    0.000    0.000    0.000    0.000    0.000    0.000 
#
# Total GULP energy -311978.218335 kJ/mol
# GULP energy per Si atom -5571.039613 kJ/mol
# Density = 2.254184 g / cm^3
# Si number density = 22.593261 Si / 1000 Ang^3
#
#
#
# Elastic Constant Matrix: (Units=GPa)
#
#
# Indices 1 2 3 4 5 6 
#
# 1 73.9539 7.9742 14.8811 0.0000 0.0000 0.0000
# 2 7.9742 127.2928 16.2644 0.0000 0.0000 0.0000
# 3 14.8811 16.2644 35.2765 0.0000 0.0000 0.0000
# 4 0.0000 0.0000 0.0000 28.8075 0.0000 0.0000
# 5 0.0000 0.0000 0.0000 0.0000 36.7473 0.0000
# 6 0.0000 0.0000 0.0000 0.0000 0.0000 14.5036
#
#
#
# Elastic Compliance Matrix: (Units=1/GPa)
#
#
# Indices 1 2 3 4 5 6 
#
# 1 0.014778 -0.000137 -0.006171 0.000000 0.000000 0.000000
# 2 -0.000137 0.008349 -0.003791 0.000000 0.000000 0.000000
# 3 -0.006171 -0.003791 0.032699 0.000000 0.000000 0.000000
# 4 0.000000 0.000000 0.000000 0.034713 0.000000 0.000000
# 5 0.000000 0.000000 0.000000 0.000000 0.027213 0.000000
# 6 0.000000 0.000000 0.000000 0.000000 0.000000 0.068948
#
#
# Mechanical properties :
#
#
# Convention : Reuss Voigt Hill
#
# Bulk Modulus (GPa) = 28.06869 34.97362 31.52116
# Shear Modulus (GPa) = 22.85450 29.17190 26.01320
#
# Velocity S-wave (km/s) = 3.18396 3.59719 3.39687
# Velocity P-wave (km/s) = 5.09581 5.72419 5.41911
#
# Compressibility (1/GPa) = 0.03562688
#
# Stress axis : x y z
#
# Youngs Moduli (GPa) = 67.66606 119.77571 30.58234
#
# Poissons Ratio (x) = 0.01645 0.18872
# Poissons Ratio (y) = 0.00929 0.11595
# Poissons Ratio (z) = 0.41756 0.45411
#
# Static dielectric constant tensor:
#      x y z
#    x 1.880030 0.000000 0.000000 
#    y 0.000000 1.868550 0.000000 
#    z 0.000000 0.000000 1.953150 
# 
# From -- ./inp_files/18157.got.cif
#   From: 2010.05.17/outbox.cif.g08.bks.cpg/sg60_10_cif.got.tgz:18157.got - 2010.06.03 14:59:27.
