data_PCOD9455603
_publ_section_title
;
Structure prediction by ZEFSAII (Michael W. Deem and Ramdas Pophale) SiO2 
 PCOD9455603
Probable space group: P B C N
;
_chemical_formula_sum "Si O2"
_cell_formula_units_Z 56
_cell_length_a 9.131241
_cell_length_b 15.514727
_cell_length_c 19.065736
_cell_angle_alpha 90.000000
_cell_angle_beta 90.000000
_cell_angle_gamma 90.000000
_cell_volume 2701.018249
_symmetry_space_group_name_H-M "P B C N"
_symmetry_group_IT_number 60
_symmetry_cell_setting 'orthorhombic'
loop_
_space_group_symop_operation_xyz
x,y,z
1/2-x,1/2-y,1/2+z
1/2+x,1/2-y,-z
-x,y,1/2-z
-x,-y,-z
1/2+x,1/2+y,1/2-z
1/2-x,1/2+y,z
x,-y,1/2+z
loop_
_atom_site_type_symbol
_atom_site_label
_atom_site_fract_x
_atom_site_fract_y
_atom_site_fract_z
Si Si1 0.427507 0.579087 0.458359
Si Si2 0.967671 0.199497 0.577511
Si Si3 0.514439 0.317343 0.831168
Si Si4 0.232691 0.174912 0.678034
Si Si5 0.913450 0.603553 0.047207
Si Si6 0.549777 0.949481 0.388564
Si Si7 0.295372 0.161552 0.838059
O O1 0.500000 0.500000 0.500000
O O2 0.455688 0.660262 0.509512
O O3 0.505449 0.604332 0.385408
O O4 0.253362 0.569172 0.447258
O O5 0.081732 0.194328 0.640763
O O6 0.920566 0.296763 0.564341
O O7 0.823406 0.148553 0.601666
O O8 0.500000 0.344371 0.750000
O O9 0.655284 0.254377 0.837474
O O10 0.378774 0.252805 0.847223
O O11 0.302741 0.088247 0.644495
O O12 0.225151 0.163792 0.761253
O O13 0.020944 0.549677 0.097908
O O14 0.961905 0.590173 0.966776
O O15 0.419815 0.910582 0.341888
#
# Coordination Sequence:
#
# PCOD9455603 Si02
#       7
#     8   8   8   8   8   8   8
#     4  12  25  42  66 100 135 175 225 275 338 393
#     4  12  23  39  66  97 135 166 223 282 326 398
#     4   9  20  40  67  92 127 173 218 265 328 396
#     4  10  21  40  65  98 126 175 219 268 336 393
#     4  11  24  40  66  98 130 170 224 274 334 387
#     4  10  21  41  64  93 130 171 218 269 327 402
#     4  10  20  40  67  92 134 174 216 270 333 392
#
# _framework density 20.732923
#
# number of rings (size 3 to 8) (size 9 to 14) (size 15 to 20)
#    0.000    1.429    2.857    4.286    0.000    2.286 
#    0.000    5.714    0.000    0.000    0.000    0.000 
#    0.000    0.000    0.000    0.000    0.000    0.000 
#
# Total GULP energy -312965.160192 kJ/mol
# GULP energy per Si atom -5588.663575 kJ/mol
# Density = 2.068573 g / cm^3
# Si number density = 20.732923 Si / 1000 Ang^3
#
#
#
# Elastic Constant Matrix: (Units=GPa)
#
#
# Indices 1 2 3 4 5 6 
#
# 1 54.6401 3.6042 0.6599 0.0000 0.0000 0.0000
# 2 3.6042 72.3409 15.9380 0.0000 0.0000 0.0000
# 3 0.6599 15.9380 61.9494 0.0000 0.0000 0.0000
# 4 0.0000 0.0000 0.0000 30.7394 0.0000 0.0000
# 5 0.0000 0.0000 0.0000 0.0000 30.9862 0.0000
# 6 0.0000 0.0000 0.0000 0.0000 0.0000 16.5375
#
#
#
# Elastic Compliance Matrix: (Units=1/GPa)
#
#
# Indices 1 2 3 4 5 6 
#
# 1 0.018362 -0.000924 0.000042 0.000000 0.000000 0.000000
# 2 -0.000924 0.014701 -0.003772 0.000000 0.000000 0.000000
# 3 0.000042 -0.003772 0.017112 0.000000 0.000000 0.000000
# 4 0.000000 0.000000 0.000000 0.032532 0.000000 0.000000
# 5 0.000000 0.000000 0.000000 0.000000 0.032272 0.000000
# 6 0.000000 0.000000 0.000000 0.000000 0.000000 0.060469
#
#
# Mechanical properties :
#
#
# Convention : Reuss Voigt Hill
#
# Bulk Modulus (GPa) = 24.46996 25.48162 24.97579
# Shear Modulus (GPa) = 25.20439 26.90117 26.05278
#
# Velocity S-wave (km/s) = 3.49043 3.60600 3.54869
# Velocity P-wave (km/s) = 5.29832 5.44562 5.37248
#
# Compressibility (1/GPa) = 0.04086643
#
# Stress axis : x y z
#
# Youngs Moduli (GPa) = 54.46022 68.02459 58.43771
#
# Poissons Ratio (x) = 0.06286 -0.00246
# Poissons Ratio (y) = 0.05033 0.22044
# Poissons Ratio (z) = -0.00230 0.25660
#
# Static dielectric constant tensor:
#      x y z
#    x 1.757600 0.000000 0.000000 
#    y 0.000000 1.746090 0.000000 
#    z 0.000000 0.000000 1.780340 
# 
# From -- ./inp_files/22204.got.cif
#   From: 2010.05.17/outbox.cif.g08.bks.cpg/sg60_12_cif.got.tgz:22204.got - 2010.06.03 14:59:27.
