data_PCOD9455460
_publ_section_title
;
Structure prediction by ZEFSAII (Michael W. Deem and Ramdas Pophale) SiO2 
 PCOD9455460
Probable space group: P B C N
;
_chemical_formula_sum "Si O2"
_cell_formula_units_Z 60
_cell_length_a 17.707408
_cell_length_b 5.317757
_cell_length_c 27.621082
_cell_angle_alpha 90.000000
_cell_angle_beta 90.000000
_cell_angle_gamma 90.000000
_cell_volume 2600.903081
_symmetry_space_group_name_H-M "P B C N"
_symmetry_group_IT_number 60
_symmetry_cell_setting 'orthorhombic'
loop_
_space_group_symop_operation_xyz
x,y,z
1/2-x,1/2-y,1/2+z
1/2+x,1/2-y,-z
-x,y,1/2-z
-x,-y,-z
1/2+x,1/2+y,1/2-z
1/2-x,1/2+y,z
x,-y,1/2+z
loop_
_atom_site_type_symbol
_atom_site_label
_atom_site_fract_x
_atom_site_fract_y
_atom_site_fract_z
Si Si1 0.500000 0.317511 0.250000
Si Si2 0.731342 0.137802 0.146563
Si Si3 0.160397 0.899383 0.757740
Si Si4 0.073210 0.294298 0.599965
Si Si5 0.551239 0.750766 0.004356
Si Si6 0.475678 0.699508 0.392585
Si Si7 0.212066 0.939721 0.155307
Si Si8 0.415199 0.987187 0.308616
O O1 0.490357 0.131946 0.295324
O O2 0.421436 0.463542 0.252323
O O3 0.742955 0.880549 0.118978
O O4 0.784784 0.096580 0.194733
O O5 0.644916 0.151183 0.162602
O O6 0.205930 0.015935 0.713160
O O7 0.129193 0.612799 0.761325
O O8 0.101511 0.263916 0.543911
O O9 0.039462 0.576410 0.605624
O O10 0.137095 0.194501 0.635865
O O11 0.008325 0.080524 0.605261
O O12 0.576615 0.743753 0.060218
O O13 0.500000 0.500000 0.000000
O O14 0.500000 0.000000 0.000000
O O15 0.434230 0.751930 0.342369
O O16 0.274201 0.730265 0.139751
#
# Coordination Sequence:
#
# PCOD9455460 Si02
#       8
#     4   8   8   8   8   8   8   8
#     4  12  24  38  60  86 114 156 204 264 294 332
#     4  10  20  39  55  71 106 154 189 222 280 347
#     4  11  25  40  56  82 118 162 200 245 299 355
#     4  10  21  39  62  89 125 151 201 260 307 365
#     4   8  16  34  59  87 118 154 183 236 312 364
#     4  10  21  36  61  94 123 155 197 253 308 366
#     4  12  26  41  62  85 118 167 210 246 303 373
#     4  11  24  36  58  86 118 156 202 250 293 352
#
# _framework density 23.068909000000001
#
# number of rings (size 3 to 8) (size 9 to 14) (size 15 to 20)
#    0.000    1.600    1.333    3.600    7.467    0.000 
#    0.000    0.000    0.000    3.200    0.000    0.000 
#    0.000    0.000    0.000    0.000    0.000    0.000 
#
# Total GULP energy -334239.889524 kJ/mol
# GULP energy per Si atom -5570.664825 kJ/mol
# Density = 2.301640 g / cm^3
# Si number density = 23.068909 Si / 1000 Ang^3
#
#
#
# Elastic Constant Matrix: (Units=GPa)
#
#
# Indices 1 2 3 4 5 6 
#
# 1 64.1990 7.7585 9.3286 0.0000 0.0000 0.0000
# 2 7.7585 121.0130 8.7832 0.0000 0.0000 0.0000
# 3 9.3286 8.7832 60.0495 0.0000 0.0000 0.0000
# 4 0.0000 0.0000 0.0000 24.9948 0.0000 0.0000
# 5 0.0000 0.0000 0.0000 0.0000 14.0614 0.0000
# 6 0.0000 0.0000 0.0000 0.0000 0.0000 36.9079
#
#
#
# Elastic Compliance Matrix: (Units=1/GPa)
#
#
# Indices 1 2 3 4 5 6 
#
# 1 0.016024 -0.000856 -0.002364 0.000000 0.000000 0.000000
# 2 -0.000856 0.008398 -0.001095 0.000000 0.000000 0.000000
# 3 -0.002364 -0.001095 0.017180 0.000000 0.000000 0.000000
# 4 0.000000 0.000000 0.000000 0.040008 0.000000 0.000000
# 5 0.000000 0.000000 0.000000 0.000000 0.071116 0.000000
# 6 0.000000 0.000000 0.000000 0.000000 0.000000 0.027095
#
#
# Mechanical properties :
#
#
# Convention : Reuss Voigt Hill
#
# Bulk Modulus (GPa) = 30.32924 33.00022 31.66473
# Shear Modulus (GPa) = 25.06994 29.81889 27.44442
#
# Velocity S-wave (km/s) = 3.30015 3.59918 3.45290
# Velocity P-wave (km/s) = 5.26281 5.62212 5.44543
#
# Compressibility (1/GPa) = 0.03297149
#
# Stress axis : x y z
#
# Youngs Moduli (GPa) = 62.40832 119.07673 58.20583
#
# Poissons Ratio (x) = 0.10190 0.13760
# Poissons Ratio (y) = 0.05340 0.06376
# Poissons Ratio (z) = 0.14754 0.13044
#
# Static dielectric constant tensor:
#      x y z
#    x 1.869500 0.000000 0.000000 
#    y 0.000000 1.998390 0.000000 
#    z 0.000000 0.000000 1.958970 
# 
# From -- ./inp_files/25472.got.cif
#   From: 2010.05.17/outbox.cif.g08.bks.cpg/sg60_13_cif.got.tgz:25472.got - 2010.06.03 14:59:27.
