data_PCOD9455476
_publ_section_title
;
Structure prediction by ZEFSAII (Michael W. Deem and Ramdas Pophale) SiO2 
 PCOD9455476
Probable space group: P B C N
;
_chemical_formula_sum "Si O2"
_cell_formula_units_Z 36
_cell_length_a 6.961221
_cell_length_b 15.427450
_cell_length_c 14.778973
_cell_angle_alpha 90.000000
_cell_angle_beta 90.000000
_cell_angle_gamma 90.000000
_cell_volume 1587.171385
_symmetry_space_group_name_H-M "P B C N"
_symmetry_group_IT_number 60
_symmetry_cell_setting 'orthorhombic'
loop_
_space_group_symop_operation_xyz
x,y,z
1/2-x,1/2-y,1/2+z
1/2+x,1/2-y,-z
-x,y,1/2-z
-x,-y,-z
1/2+x,1/2+y,1/2-z
1/2-x,1/2+y,z
x,-y,1/2+z
loop_
_atom_site_type_symbol
_atom_site_label
_atom_site_fract_x
_atom_site_fract_y
_atom_site_fract_z
Si Si1 0.227324 0.253091 0.728445
Si Si2 0.854875 0.309999 0.963057
Si Si3 0.670771 0.974864 0.068582
Si Si4 0.500000 0.094372 0.750000
Si Si5 0.705779 0.653704 0.088428
O O1 0.253655 0.297944 0.631349
O O2 0.328146 0.159706 0.723352
O O3 0.315468 0.308529 0.810841
O O4 0.000000 0.243581 0.750000
O O5 0.066739 0.338375 0.933185
O O6 0.765591 0.381168 0.030611
O O7 0.880089 0.219940 0.015999
O O8 0.574325 0.961487 0.166384
O O9 0.827455 0.051286 0.075777
O O10 0.500000 0.000000 0.000000
#
# Coordination Sequence:
#
# PCOD9455476 Si02
#       5
#     8   8   8   4   8
#     4  10  22  38  66  90 125 164 209 263 312 372
#     4  10  20  39  60  87 124 161 206 257 316 369
#     4  10  22  36  65  93 119 169 211 253 321 378
#     4  12  22  42  72  90 126 172 212 254 322 384
#     4  10  21  39  61  92 122 164 210 258 318 371
#
# _framework density 22.68186
#
# number of rings (size 3 to 8) (size 9 to 14) (size 15 to 20)
#    0.000    1.778    2.222    2.667    7.778    0.000 
#    0.000    1.111   12.222    0.000    0.000    0.000 
#    0.000    0.000    0.000    0.000    0.000    0.000 
#
# Total GULP energy -201207.918994 kJ/mol
# GULP energy per Si atom -5589.108861 kJ/mol
# Density = 2.263023 g / cm^3
# Si number density = 22.681860 Si / 1000 Ang^3
#
#
#
# Elastic Constant Matrix: (Units=GPa)
#
#
# Indices 1 2 3 4 5 6 
#
# 1 45.1290 7.3107 3.7667 0.0000 0.0000 0.0000
# 2 7.3107 135.5528 59.9050 0.0000 0.0000 0.0000
# 3 3.7667 59.9050 167.3501 0.0000 0.0000 0.0000
# 4 0.0000 0.0000 0.0000 34.4484 0.0000 0.0000
# 5 0.0000 0.0000 0.0000 0.0000 50.3290 0.0000
# 6 0.0000 0.0000 0.0000 0.0000 0.0000 29.1037
#
#
#
# Elastic Compliance Matrix: (Units=1/GPa)
#
#
# Indices 1 2 3 4 5 6 
#
# 1 0.022355 -0.001168 -0.000085 0.000000 0.000000 0.000000
# 2 -0.001168 0.008825 -0.003133 0.000000 0.000000 0.000000
# 3 -0.000085 -0.003133 0.007099 0.000000 0.000000 0.000000
# 4 0.000000 0.000000 0.000000 0.029029 0.000000 0.000000
# 5 0.000000 0.000000 0.000000 0.000000 0.019869 0.000000
# 6 0.000000 0.000000 0.000000 0.000000 0.000000 0.034360
#
#
# Mechanical properties :
#
#
# Convention : Reuss Voigt Hill
#
# Bulk Modulus (GPa) = 33.89030 54.44407 44.16719
# Shear Modulus (GPa) = 35.67774 41.24621 38.46197
#
# Velocity S-wave (km/s) = 3.97036 4.26897 4.12237
# Velocity P-wave (km/s) = 5.99937 6.95373 6.49410
#
# Compressibility (1/GPa) = 0.02950697
#
# Stress axis : x y z
#
# Youngs Moduli (GPa) = 44.73269 113.31991 140.86986
#
# Poissons Ratio (x) = 0.13237 0.01198
# Poissons Ratio (y) = 0.05225 0.44128
# Poissons Ratio (z) = 0.00380 0.35498
#
# Static dielectric constant tensor:
#      x y z
#    x 1.910890 0.000000 0.000000 
#    y 0.000000 1.849550 0.000000 
#    z 0.000000 0.000000 1.272890 
# 
# From -- ./inp_files/14552.got.cif
#   From: 2010.05.17/outbox.cif.g08.bks.cpg/sg60_8_cif.got.tgz:14552.got - 2010.06.03 14:59:27.
