data_PCOD9455571
_publ_section_title
;
Structure prediction by ZEFSAII (Michael W. Deem and Ramdas Pophale) SiO2 
 PCOD9455571
Probable space group: P B C N
;
_chemical_formula_sum "Si O2"
_cell_formula_units_Z 48
_cell_length_a 28.260646
_cell_length_b 4.915077
_cell_length_c 15.647663
_cell_angle_alpha 90.000000
_cell_angle_beta 90.000000
_cell_angle_gamma 90.000000
_cell_volume 2173.511264
_symmetry_space_group_name_H-M "P B C N"
_symmetry_group_IT_number 60
_symmetry_cell_setting 'orthorhombic'
loop_
_space_group_symop_operation_xyz
x,y,z
1/2-x,1/2-y,1/2+z
1/2+x,1/2-y,-z
-x,y,1/2-z
-x,-y,-z
1/2+x,1/2+y,1/2-z
1/2-x,1/2+y,z
x,-y,1/2+z
loop_
_atom_site_type_symbol
_atom_site_label
_atom_site_fract_x
_atom_site_fract_y
_atom_site_fract_z
Si Si1 0.647468 0.949594 0.861126
Si Si2 0.541201 0.618806 0.562666
Si Si3 0.281578 0.040223 0.487898
Si Si4 0.782580 0.513308 0.210419
Si Si5 0.507266 0.842373 0.155610
Si Si6 0.590300 0.441296 0.898179
O O1 0.676795 0.898648 0.775519
O O2 0.602617 0.751103 0.876152
O O3 0.631053 0.260217 0.858412
O O4 0.680638 0.935814 0.944278
O O5 0.500000 0.500000 0.500000
O O6 0.544484 0.402904 0.639644
O O7 0.586199 0.612470 0.500329
O O8 0.523667 0.910928 0.595035
O O9 0.235590 0.848525 0.500484
O O10 0.297284 0.022497 0.389095
O O11 0.761998 0.213102 0.224963
O O12 0.500000 0.954033 0.250000
O O13 0.457827 0.688075 0.137863
#
# Coordination Sequence:
#
# PCOD9455571 Si02
#       6
#     8   8   8   8   8   8
#     4  12  22  38  60  93 126 157 200 262 321 359
#     4  10  20  40  64  83 118 165 206 246 299 378
#     4  10  21  39  62  86 117 163 210 242 297 383
#     4  10  21  39  62  86 120 165 207 248 299 373
#     4  11  22  41  65  90 118 165 217 252 307 384
#     4  11  23  39  59  90 125 155 203 256 315 370
#
# _framework density 22.084083
#
# number of rings (size 3 to 8) (size 9 to 14) (size 15 to 20)
#    0.000    1.333    0.000    8.500    0.000    0.000 
#    9.000    0.000    0.000    0.000    0.000    0.000 
#    0.000    0.000    0.000    0.000    0.000    0.000 
#
# Total GULP energy -267903.637978 kJ/mol
# GULP energy per Si atom -5581.325791 kJ/mol
# Density = 2.203382 g / cm^3
# Si number density = 22.084083 Si / 1000 Ang^3
#
#
#
# Elastic Constant Matrix: (Units=GPa)
#
#
# Indices 1 2 3 4 5 6 
#
# 1 18.6275 -1.0198 8.2219 0.0000 0.0000 0.0000
# 2 -1.0198 93.3526 20.1263 0.0000 0.0000 0.0000
# 3 8.2219 20.1263 52.0743 0.0000 0.0000 0.0000
# 4 0.0000 0.0000 0.0000 18.0009 0.0000 0.0000
# 5 0.0000 0.0000 0.0000 0.0000 -14.4420 0.0000
# 6 0.0000 0.0000 0.0000 0.0000 0.0000 32.1074
#
#
#
# Elastic Compliance Matrix: (Units=1/GPa)
#
#
# Indices 1 2 3 4 5 6 
#
# 1 0.058399 0.002865 -0.010328 0.000000 0.000000 0.000000
# 2 0.002865 0.011826 -0.005023 0.000000 0.000000 0.000000
# 3 -0.010328 -0.005023 0.022775 0.000000 0.000000 0.000000
# 4 0.000000 0.000000 0.000000 0.055553 0.000000 0.000000
# 5 0.000000 0.000000 0.000000 0.000000 -0.069242 0.000000
# 6 0.000000 0.000000 0.000000 0.000000 0.000000 0.031145
#
#
# Mechanical properties :
#
#
# Convention : Reuss Voigt Hill
#
# Bulk Modulus (GPa) = 14.69970 24.30125 19.50048
# Shear Modulus (GPa) = 31.62448 16.24833 23.93640
#
# Velocity S-wave (km/s) = 3.78829 2.71541 3.29580
# Velocity P-wave (km/s) = 5.07991 4.56718 4.83035
#
# Compressibility (1/GPa) = 0.06802860
#
# Stress axis : x y z
#
# Youngs Moduli (GPa) = 17.12348 84.55729 43.90718
#
# Poissons Ratio (x) = -0.24222 0.45346
# Poissons Ratio (y) = -0.04905 0.22055
# Poissons Ratio (z) = 0.17685 0.42474
#
# Static dielectric constant tensor:
#      x y z
#    x 1.900260 0.000000 0.000000 
#    y 0.000000 1.789610 0.000000 
#    z 0.000000 0.000000 1.887820 
# 
# From -- ./inp_files/21247.got.cif
#   From: 2010.05.17/outbox.cif.g08.bks.cpg/sg60_11_cif.got.tgz:21247.got - 2010.06.03 14:59:27.
