data_PCOD9455782
_publ_section_title
;
Structure prediction by ZEFSAII (Michael W. Deem and Ramdas Pophale) SiO2 
 PCOD9455782
Probable space group: P B C N
;
_chemical_formula_sum "Si O2"
_cell_formula_units_Z 40
_cell_length_a 15.633871
_cell_length_b 17.186267
_cell_length_c 5.463046
_cell_angle_alpha 90.000000
_cell_angle_beta 90.000000
_cell_angle_gamma 90.000000
_cell_volume 1467.854255
_symmetry_space_group_name_H-M "P B C N"
_symmetry_group_IT_number 60
_symmetry_cell_setting 'orthorhombic'
loop_
_space_group_symop_operation_xyz
x,y,z
1/2-x,1/2-y,1/2+z
1/2+x,1/2-y,-z
-x,y,1/2-z
-x,-y,-z
1/2+x,1/2+y,1/2-z
1/2-x,1/2+y,z
x,-y,1/2+z
loop_
_atom_site_type_symbol
_atom_site_label
_atom_site_fract_x
_atom_site_fract_y
_atom_site_fract_z
Si Si1 0.292751 0.213676 0.941024
Si Si2 0.867352 0.973872 0.122285
Si Si3 0.983041 0.327600 0.002673
Si Si4 0.176363 0.469952 0.340422
Si Si5 0.048549 0.168308 0.002311
O O1 0.245623 0.241384 0.198007
O O2 0.395198 0.223263 0.998704
O O3 0.304455 0.121654 0.869610
O O4 0.772323 0.007296 0.161211
O O5 0.907474 0.017449 0.890645
O O6 0.869048 0.884649 0.033279
O O7 0.000000 0.369662 0.750000
O O8 0.055971 0.260726 0.015216
O O9 0.000000 0.374035 0.250000
O O10 0.135796 0.496521 0.086620
O O11 0.000000 0.154012 0.750000
O O12 0.000000 0.144144 0.250000
#
# Coordination Sequence:
#
# PCOD9455782 Si02
#       5
#     8   8   8   8   8
#     4  12  26  42  76 107 137 183 251 295 351 422
#     4  10  21  35  53  81 120 171 215 245 313 405
#     4  10  23  42  63  95 136 177 218 295 357 406
#     4  10  23  43  65  96 139 183 225 291 356 417
#     4  10  21  32  53  74 120 163 207 254 315 372
#
# _framework density 27.250664
#
# number of rings (size 3 to 8) (size 9 to 14) (size 15 to 20)
#    0.000    1.600    0.000    3.600   11.200    2.400 
#    0.000    0.000    0.000    3.600    0.000    0.000 
#    0.000    0.000    0.000    0.000    0.000    0.000 
#
# Total GULP energy -223015.747219 kJ/mol
# GULP energy per Si atom -5575.393680 kJ/mol
# Density = 2.718864 g / cm^3
# Si number density = 27.250664 Si / 1000 Ang^3
#
#
#
# Elastic Constant Matrix: (Units=GPa)
#
#
# Indices 1 2 3 4 5 6 
#
# 1 79.9095 -0.8932 48.4159 0.0000 0.0000 0.0000
# 2 -0.8932 102.2570 43.7630 0.0000 0.0000 0.0000
# 3 48.4159 43.7630 320.6274 0.0000 0.0000 0.0000
# 4 0.0000 0.0000 0.0000 15.5761 0.0000 0.0000
# 5 0.0000 0.0000 0.0000 0.0000 25.2293 0.0000
# 6 0.0000 0.0000 0.0000 0.0000 0.0000 24.0886
#
#
#
# Elastic Compliance Matrix: (Units=1/GPa)
#
#
# Indices 1 2 3 4 5 6 
#
# 1 0.013886 0.001082 -0.002245 0.000000 0.000000 0.000000
# 2 0.001082 0.010470 -0.001592 0.000000 0.000000 0.000000
# 3 -0.002245 -0.001592 0.003675 0.000000 0.000000 0.000000
# 4 0.000000 0.000000 0.000000 0.064201 0.000000 0.000000
# 5 0.000000 0.000000 0.000000 0.000000 0.039636 0.000000
# 6 0.000000 0.000000 0.000000 0.000000 0.000000 0.041513
#
#
# Mechanical properties :
#
#
# Convention : Reuss Voigt Hill
#
# Bulk Modulus (GPa) = 44.40226 76.15170 60.27698
# Shear Modulus (GPa) = 26.82407 40.41268 33.61838
#
# Velocity S-wave (km/s) = 3.14083 3.85515 3.51618
# Velocity P-wave (km/s) = 5.42978 6.91533 6.21708
#
# Compressibility (1/GPa) = 0.02252138
#
# Stress axis : x y z
#
# Youngs Moduli (GPa) = 72.01408 95.50862 272.09570
#
# Poissons Ratio (x) = -0.10333 0.61073
# Poissons Ratio (y) = -0.07791 0.43330
# Poissons Ratio (z) = 0.16164 0.15209
#
# Static dielectric constant tensor:
#      x y z
#    x 2.385650 0.000000 0.000000 
#    y 0.000000 2.143650 0.000000 
#    z 0.000000 0.000000 2.231840 
# 
# From -- ./inp_files/2032.got.cif
#   From: 2010.05.17/outbox.cif.g08.bks.cpg/sg60_2_cif.got.tgz:2032.got - 2010.06.03 14:59:27.
