data_PCOD9455988
_publ_section_title
;
Structure prediction by ZEFSAII (Michael W. Deem and Ramdas Pophale) SiO2 
 PCOD9455988
Probable space group: P B C N
;
_chemical_formula_sum "Si O2"
_cell_formula_units_Z 32
_cell_length_a 8.191282
_cell_length_b 12.328315
_cell_length_c 14.820478
_cell_angle_alpha 90.000000
_cell_angle_beta 90.000000
_cell_angle_gamma 90.000000
_cell_volume 1496.641595
_symmetry_space_group_name_H-M "P B C N"
_symmetry_group_IT_number 60
_symmetry_cell_setting 'orthorhombic'
loop_
_space_group_symop_operation_xyz
x,y,z
1/2-x,1/2-y,1/2+z
1/2+x,1/2-y,-z
-x,y,1/2-z
-x,-y,-z
1/2+x,1/2+y,1/2-z
1/2-x,1/2+y,z
x,-y,1/2+z
loop_
_atom_site_type_symbol
_atom_site_label
_atom_site_fract_x
_atom_site_fract_y
_atom_site_fract_z
Si Si1 0.107808 0.498834 0.329285
Si Si2 0.399782 0.783391 0.120407
Si Si3 0.181238 0.181744 0.781125
Si Si4 0.220947 0.180541 0.441470
O O1 0.998906 0.397504 0.366133
O O2 0.260349 0.442008 0.280374
O O3 0.183125 0.575123 0.405178
O O4 0.000000 0.553520 0.250000
O O5 0.689668 0.758277 0.285135
O O6 0.530560 0.695043 0.084865
O O7 0.261056 0.801676 0.045569
O O8 0.197255 0.224866 0.881988
O O9 0.000000 0.194019 0.750000
#
# Coordination Sequence:
#
# PCOD9455988 Si02
#       4
#     8   8   8   8
#     4   9  20  37  58  83 116 152 190 237 288 338
#     4  10  22  38  57  87 117 147 194 241 279 339
#     4  10  21  38  57  84 117 147 189 243 286 337
#     4  11  20  37  60  82 114 156 189 231 291 342
#
# _framework density 21.381204
#
# number of rings (size 3 to 8) (size 9 to 14) (size 15 to 20)
#    0.000    2.000    0.000    5.250    0.000    2.000 
#    0.000   16.250    0.000    0.000    0.000    0.000 
#    0.000    0.000    0.000    0.000    0.000    0.000 
#
# Total GULP energy -178446.460686 kJ/mol
# GULP energy per Si atom -5576.451896 kJ/mol
# Density = 2.133254 g / cm^3
# Si number density = 21.381204 Si / 1000 Ang^3
#
#
#
# Elastic Constant Matrix: (Units=GPa)
#
#
# Indices 1 2 3 4 5 6 
#
# 1 83.1692 14.7831 1.3150 0.0000 0.0000 0.0000
# 2 14.7831 40.9357 1.8827 0.0000 0.0000 0.0000
# 3 1.3150 1.8827 74.6975 0.0000 0.0000 0.0000
# 4 0.0000 0.0000 0.0000 19.0394 0.0000 0.0000
# 5 0.0000 0.0000 0.0000 0.0000 33.9868 0.0000
# 6 0.0000 0.0000 0.0000 0.0000 0.0000 3.7179
#
#
#
# Elastic Compliance Matrix: (Units=1/GPa)
#
#
# Indices 1 2 3 4 5 6 
#
# 1 0.012849 -0.004635 -0.000109 0.000000 0.000000 0.000000
# 2 -0.004635 0.026129 -0.000577 0.000000 0.000000 0.000000
# 3 -0.000109 -0.000577 0.013404 0.000000 0.000000 0.000000
# 4 0.000000 0.000000 0.000000 0.052523 0.000000 0.000000
# 5 0.000000 0.000000 0.000000 0.000000 0.029423 0.000000
# 6 0.000000 0.000000 0.000000 0.000000 0.000000 0.268968
#
#
# Mechanical properties :
#
#
# Convention : Reuss Voigt Hill
#
# Bulk Modulus (GPa) = 23.95843 26.08490 25.02167
# Shear Modulus (GPa) = 11.68627 23.40358 17.54492
#
# Velocity S-wave (km/s) = 2.34041 3.31204 2.86768
# Velocity P-wave (km/s) = 4.30501 5.18195 4.76370
#
# Compressibility (1/GPa) = 0.04173896
#
# Stress axis : x y z
#
# Youngs Moduli (GPa) = 77.82520 38.27160 74.60575
#
# Poissons Ratio (x) = 0.17740 0.00816
# Poissons Ratio (y) = 0.36074 0.04304
# Poissons Ratio (z) = 0.00851 0.02208
#
# Static dielectric constant tensor:
#      x y z
#    x 1.814200 0.000000 0.000000 
#    y 0.000000 1.809720 0.000000 
#    z 0.000000 0.000000 1.755800 
# 
# From -- ./inp_files/10603.got.cif
#   From: 2010.05.17/outbox.cif.g08.bks.cpg/sg60_6_cif.got.tgz:10603.got - 2010.06.03 14:59:27.
