data_PCOD9455641
_publ_section_title
;
Structure prediction by ZEFSAII (Michael W. Deem and Ramdas Pophale) SiO2 
 PCOD9455641
Probable space group: P B C N
;
_chemical_formula_sum "Si O2"
_cell_formula_units_Z 56
_cell_length_a 20.456407
_cell_length_b 9.515013
_cell_length_c 14.085321
_cell_angle_alpha 90.000000
_cell_angle_beta 90.000000
_cell_angle_gamma 90.000000
_cell_volume 2741.608833
_symmetry_space_group_name_H-M "P B C N"
_symmetry_group_IT_number 60
_symmetry_cell_setting 'orthorhombic'
loop_
_space_group_symop_operation_xyz
x,y,z
1/2-x,1/2-y,1/2+z
1/2+x,1/2-y,-z
-x,y,1/2-z
-x,-y,-z
1/2+x,1/2+y,1/2-z
1/2-x,1/2+y,z
x,-y,1/2+z
loop_
_atom_site_type_symbol
_atom_site_label
_atom_site_fract_x
_atom_site_fract_y
_atom_site_fract_z
Si Si1 0.810809 0.863054 0.910411
Si Si2 0.886304 0.814847 0.615442
Si Si3 0.253750 0.692167 0.883247
Si Si4 0.569694 0.428903 0.019112
Si Si5 0.206939 0.434999 0.752964
Si Si6 0.993825 0.341614 0.466831
Si Si7 0.608610 0.144717 0.807244
O O1 0.757908 0.919195 0.834986
O O2 0.833904 0.712275 0.871249
O O3 0.784012 0.847570 0.016432
O O4 0.879574 0.944197 0.930541
O O5 0.811910 0.779311 0.592838
O O6 0.897310 0.749628 0.718809
O O7 0.936017 0.731343 0.546954
O O8 0.900331 0.980080 0.604552
O O9 0.233535 0.555849 0.823355
O O10 0.295093 0.792422 0.813709
O O11 0.500000 0.500000 0.000000
O O12 0.552316 0.263854 0.028037
O O13 0.136183 0.492782 0.721294
O O14 0.957434 0.351520 0.365806
O O15 0.000000 0.500000 0.500000
#
# Coordination Sequence:
#
# PCOD9455641 Si02
#       7
#     8   8   8   8   8   8   8
#     4  11  23  40  67  93 135 165 222 275 341 393
#     4  10  20  41  63  88 131 173 224 262 338 395
#     4  11  25  38  66  97 129 177 214 288 332 402
#     4   9  21  40  66  95 124 174 223 267 331 405
#     4  11  23  42  59 100 128 168 227 262 349 401
#     4  10  22  40  65  97 129 173 225 274 340 403
#     4  10  23  39  63  92 131 179 211 278 334 401
#
# _framework density 20.425961999999998
#
# number of rings (size 3 to 8) (size 9 to 14) (size 15 to 20)
#    0.000    1.714    2.857    1.286    6.000    3.429 
#    2.571    0.000    0.000    8.571    0.000    0.000 
#    0.000    0.000    0.000    0.000    0.000    0.000 
#
# Total GULP energy -312314.723173 kJ/mol
# GULP energy per Si atom -5577.048628 kJ/mol
# Density = 2.037947 g / cm^3
# Si number density = 20.425962 Si / 1000 Ang^3
#
#
#
# Elastic Constant Matrix: (Units=GPa)
#
#
# Indices 1 2 3 4 5 6 
#
# 1 68.6696 13.3610 25.7083 0.0000 0.0000 0.0000
# 2 13.3610 91.8623 22.3340 0.0000 0.0000 0.0000
# 3 25.7083 22.3340 74.0393 0.0000 0.0000 0.0000
# 4 0.0000 0.0000 0.0000 27.9398 0.0000 0.0000
# 5 0.0000 0.0000 0.0000 0.0000 22.4164 0.0000
# 6 0.0000 0.0000 0.0000 0.0000 0.0000 28.4939
#
#
#
# Elastic Compliance Matrix: (Units=1/GPa)
#
#
# Indices 1 2 3 4 5 6 
#
# 1 0.016842 -0.001109 -0.005514 0.000000 0.000000 0.000000
# 2 -0.001109 0.011820 -0.003181 0.000000 0.000000 0.000000
# 3 -0.005514 -0.003181 0.016380 0.000000 0.000000 0.000000
# 4 0.000000 0.000000 0.000000 0.035791 0.000000 0.000000
# 5 0.000000 0.000000 0.000000 0.000000 0.044610 0.000000
# 6 0.000000 0.000000 0.000000 0.000000 0.000000 0.035095
#
#
# Mechanical properties :
#
#
# Convention : Reuss Voigt Hill
#
# Bulk Modulus (GPa) = 39.31342 39.70865 39.51104
# Shear Modulus (GPa) = 26.50760 27.31453 26.91107
#
# Velocity S-wave (km/s) = 3.60632 3.66080 3.63367
# Velocity P-wave (km/s) = 6.05222 6.11156 6.08196
#
# Compressibility (1/GPa) = 0.02543661
#
# Stress axis : x y z
#
# Youngs Moduli (GPa) = 59.37378 84.59921 61.04936
#
# Poissons Ratio (x) = 0.09384 0.33660
# Poissons Ratio (y) = 0.06586 0.19417
# Poissons Ratio (z) = 0.32736 0.26907
#
# Static dielectric constant tensor:
#      x y z
#    x 1.777930 0.000000 0.000000 
#    y 0.000000 1.740340 0.000000 
#    z 0.000000 0.000000 1.733880 
# 
# From -- ./inp_files/17702.got.cif
#   From: 2010.05.17/outbox.cif.g08.bks.cpg/sg60_9_cif.got.tgz:17702.got - 2010.06.03 14:59:27.
