data_PCOD9455621
_publ_section_title
;
Structure prediction by ZEFSAII (Michael W. Deem and Ramdas Pophale) SiO2 
 PCOD9455621
Probable space group: P B C N
;
_chemical_formula_sum "Si O2"
_cell_formula_units_Z 64
_cell_length_a 10.745325
_cell_length_b 15.043850
_cell_length_c 18.747985
_cell_angle_alpha 90.000000
_cell_angle_beta 90.000000
_cell_angle_gamma 90.000000
_cell_volume 3030.631601
_symmetry_space_group_name_H-M "P B C N"
_symmetry_group_IT_number 60
_symmetry_cell_setting 'orthorhombic'
loop_
_space_group_symop_operation_xyz
x,y,z
1/2-x,1/2-y,1/2+z
1/2+x,1/2-y,-z
-x,y,1/2-z
-x,-y,-z
1/2+x,1/2+y,1/2-z
1/2-x,1/2+y,z
x,-y,1/2+z
loop_
_atom_site_type_symbol
_atom_site_label
_atom_site_fract_x
_atom_site_fract_y
_atom_site_fract_z
Si Si1 0.267198 0.775353 0.670221
Si Si2 0.098520 0.077372 0.983747
Si Si3 0.490229 0.058206 0.929161
Si Si4 0.238692 0.964584 0.344196
Si Si5 0.476879 0.259557 0.573395
Si Si6 0.770157 0.533637 0.387270
Si Si7 0.878607 0.151664 0.200670
Si Si8 0.129336 0.095978 0.708722
O O1 0.153444 0.755040 0.616442
O O2 0.313220 0.873133 0.646685
O O3 0.211100 0.791203 0.748929
O O4 0.358448 0.691442 0.671040
O O5 0.041846 0.170400 0.009996
O O6 0.216251 0.055708 0.034787
O O7 0.144453 0.075421 0.902939
O O8 0.000000 0.000000 0.000000
O O9 0.373098 0.034048 0.880367
O O10 0.484865 0.161582 0.949135
O O11 0.617805 0.035616 0.888294
O O12 0.500000 0.000000 0.000000
O O13 0.233366 0.910492 0.270838
O O14 0.189105 0.062065 0.323563
O O15 0.574711 0.297826 0.630491
O O16 0.658662 0.486198 0.343712
O O17 0.000000 0.132688 0.250000
O O18 0.000000 0.086492 0.750000
#
# Coordination Sequence:
#
# PCOD9455621 Si02
#       8
#     8   8   8   8   8   8   8   8
#     4  10  22  42  69 100 136 176 225 276 345 414
#     4  11  22  43  69 100 130 175 235 285 336 408
#     4  12  26  49  65  96 145 185 227 285 339 424
#     4  12  24  42  68 104 135 177 228 284 346 402
#     4  10  22  43  72  92 134 190 225 269 352 419
#     4  11  24  47  70  96 140 189 222 280 359 400
#     4  10  20  40  71 103 136 175 230 284 335 414
#     4  12  25  44  71 105 140 171 230 294 340 403
#
# _framework density 21.117708
#
# number of rings (size 3 to 8) (size 9 to 14) (size 15 to 20)
#    0.000    1.000    5.000    1.875    1.750    1.500 
#   11.250    0.000    0.000    0.000    0.000    0.000 
#    0.000    0.000    0.000    0.000    0.000    0.000 
#
# Total GULP energy -357972.577480 kJ/mol
# GULP energy per Si atom -5593.321523 kJ/mol
# Density = 2.106964 g / cm^3
# Si number density = 21.117708 Si / 1000 Ang^3
#
#
#
# Elastic Constant Matrix: (Units=GPa)
#
#
# Indices 1 2 3 4 5 6 
#
# 1 44.1036 16.0060 -7.5938 0.0000 0.0000 0.0000
# 2 16.0060 163.1424 26.7510 0.0000 0.0000 0.0000
# 3 -7.5938 26.7510 69.0564 0.0000 0.0000 0.0000
# 4 0.0000 0.0000 0.0000 24.8646 0.0000 0.0000
# 5 0.0000 0.0000 0.0000 0.0000 23.8113 0.0000
# 6 0.0000 0.0000 0.0000 0.0000 0.0000 26.0915
#
#
#
# Elastic Compliance Matrix: (Units=1/GPa)
#
#
# Indices 1 2 3 4 5 6 
#
# 1 0.024439 -0.003031 0.003862 0.000000 0.000000 0.000000
# 2 -0.003031 0.006921 -0.003014 0.000000 0.000000 0.000000
# 3 0.003862 -0.003014 0.016073 0.000000 0.000000 0.000000
# 4 0.000000 0.000000 0.000000 0.040218 0.000000 0.000000
# 5 0.000000 0.000000 0.000000 0.000000 0.041997 0.000000
# 6 0.000000 0.000000 0.000000 0.000000 0.000000 0.038327
#
#
# Mechanical properties :
#
#
# Convention : Reuss Voigt Hill
#
# Bulk Modulus (GPa) = 23.22034 38.51430 30.86732
# Shear Modulus (GPa) = 26.78128 31.02942 28.90535
#
# Velocity S-wave (km/s) = 3.56503 3.83738 3.70371
# Velocity P-wave (km/s) = 5.28824 6.15723 5.73920
#
# Compressibility (1/GPa) = 0.04306569
#
# Stress axis : x y z
#
# Youngs Moduli (GPa) = 40.91862 144.48229 62.21501
#
# Poissons Ratio (x) = 0.43791 -0.24024
# Poissons Ratio (y) = 0.12402 0.18754
# Poissons Ratio (z) = -0.15801 0.43553
#
# Static dielectric constant tensor:
#      x y z
#    x 1.789490 0.000000 0.000000 
#    y 0.000000 1.745140 0.000000 
#    z 0.000000 0.000000 1.752090 
# 
# From -- ./inp_files/20209.got.cif
#   From: 2010.05.17/outbox.cif.g08.bks.cpg/sg60_11_cif.got.tgz:20209.got - 2010.06.03 14:59:27.
