data_PCOD9455488
_publ_section_title
;
Structure prediction by ZEFSAII (Michael W. Deem and Ramdas Pophale) SiO2 
 PCOD9455488
Probable space group: P B C N
;
_chemical_formula_sum "Si O2"
_cell_formula_units_Z 52
_cell_length_a 16.834926
_cell_length_b 16.320521
_cell_length_c 9.496175
_cell_angle_alpha 90.000000
_cell_angle_beta 90.000000
_cell_angle_gamma 90.000000
_cell_volume 2609.119315
_symmetry_space_group_name_H-M "P B C N"
_symmetry_group_IT_number 60
_symmetry_cell_setting 'orthorhombic'
loop_
_space_group_symop_operation_xyz
x,y,z
1/2-x,1/2-y,1/2+z
1/2+x,1/2-y,-z
-x,y,1/2-z
-x,-y,-z
1/2+x,1/2+y,1/2-z
1/2-x,1/2+y,z
x,-y,1/2+z
loop_
_atom_site_type_symbol
_atom_site_label
_atom_site_fract_x
_atom_site_fract_y
_atom_site_fract_z
Si Si1 0.581844 0.314948 0.489587
Si Si2 0.500000 0.793559 0.750000
Si Si3 0.864905 0.014298 0.858312
Si Si4 0.637173 0.847338 0.065280
Si Si5 0.500000 0.601448 0.250000
Si Si6 0.380192 0.931771 0.734865
Si Si7 0.500000 0.077781 0.750000
Si Si8 0.254803 0.526177 0.891951
O O1 0.528794 0.263576 0.377934
O O2 0.611429 0.397170 0.416174
O O3 0.646731 0.248012 0.536106
O O4 0.541635 0.342611 0.633953
O O5 0.432426 0.857959 0.800603
O O6 0.832540 0.020062 0.701570
O O7 0.939816 0.954512 0.841849
O O8 0.790941 0.983318 0.952754
O O9 0.552502 0.868363 0.140734
O O10 0.710640 0.888737 0.143725
O O11 0.640766 0.894961 0.916819
O O12 0.433215 0.012430 0.698815
O O13 0.309872 0.959196 0.839338
#
# Coordination Sequence:
#
# PCOD9455488 Si02
#       8
#     8   4   8   8   4   8   4   8
#     4  11  24  43  64  99 124 164 218 270 321 368
#     4   9  21  40  67  97 134 168 210 265 323 380
#     4  12  25  46  68  90 124 172 226 264 320 391
#     4  10  20  39  61  96 136 161 210 268 326 377
#     4  12  26  46  72  90 124 170 228 276 306 386
#     4   9  18  37  63  96 131 170 211 254 316 396
#     4   9  17  30  63  93 128 174 206 251 307 396
#     4  11  23  43  68  93 128 173 214 262 328 398
#
# _framework density 19.930098000000001
#
# number of rings (size 3 to 8) (size 9 to 14) (size 15 to 20)
#    0.000    1.538    3.077    1.846    2.154    1.231 
#   11.077    0.000    0.000    0.000    0.000    0.000 
#    0.000    0.000    0.000    0.000    0.000    0.000 
#
# Total GULP energy -289714.276204 kJ/mol
# GULP energy per Si atom -5571.428389 kJ/mol
# Density = 1.988474 g / cm^3
# Si number density = 19.930098 Si / 1000 Ang^3
#
#
#
# Elastic Constant Matrix: (Units=GPa)
#
#
# Indices 1 2 3 4 5 6 
#
# 1 48.3380 23.2544 9.9727 0.0000 0.0000 0.0000
# 2 23.2544 104.6804 30.4334 0.0000 0.0000 0.0000
# 3 9.9727 30.4334 29.3969 0.0000 0.0000 0.0000
# 4 0.0000 0.0000 0.0000 120.0987 0.0000 0.0000
# 5 0.0000 0.0000 0.0000 0.0000 34.2410 0.0000
# 6 0.0000 0.0000 0.0000 0.0000 0.0000 200.5352
#
#
#
# Elastic Compliance Matrix: (Units=1/GPa)
#
#
# Indices 1 2 3 4 5 6 
#
# 1 0.023436 -0.004141 -0.003663 0.000000 0.000000 0.000000
# 2 -0.004141 0.014398 -0.013501 0.000000 0.000000 0.000000
# 3 -0.003663 -0.013501 0.049236 0.000000 0.000000 0.000000
# 4 0.000000 0.000000 0.000000 0.008326 0.000000 0.000000
# 5 0.000000 0.000000 0.000000 0.000000 0.029205 0.000000
# 6 0.000000 0.000000 0.000000 0.000000 0.000000 0.004987
#
#
# Mechanical properties :
#
#
# Convention : Reuss Voigt Hill
#
# Bulk Modulus (GPa) = 22.49210 34.41513 28.45361
# Shear Modulus (GPa) = 26.73544 78.89197 52.81370
#
# Velocity S-wave (km/s) = 3.66657 6.29843 5.15335
# Velocity P-wave (km/s) = 5.40694 8.37849 7.05103
#
# Compressibility (1/GPa) = 0.04446006
#
# Stress axis : x y z
#
# Youngs Moduli (GPa) = 42.67009 69.45501 20.31015
#
# Poissons Ratio (x) = 0.28762 0.07440
# Poissons Ratio (y) = 0.17670 0.27420
# Poissons Ratio (z) = 0.15631 0.93768
#
# Static dielectric constant tensor:
#      x y z
#    x 1.774080 0.000000 0.000000 
#    y 0.000000 1.689460 0.000000 
#    z 0.000000 0.000000 1.625690 
# 
# From -- ./inp_files/6901.got.cif
#   From: 2010.05.17/outbox.cif.g08.bks.cpg/sg60_4_cif.got.tgz:6901.got - 2010.06.03 14:59:27.
