data_PCOD9455246
_publ_section_title
;
Structure prediction by ZEFSAII (Michael W. Deem and Ramdas Pophale) SiO2 
 PCOD9455246
Probable space group: P B C N
;
_chemical_formula_sum "Si O2"
_cell_formula_units_Z 48
_cell_length_a 26.831937
_cell_length_b 9.373411
_cell_length_c 8.550222
_cell_angle_alpha 90.000000
_cell_angle_beta 90.000000
_cell_angle_gamma 90.000000
_cell_volume 2150.438747
_symmetry_space_group_name_H-M "P B C N"
_symmetry_group_IT_number 60
_symmetry_cell_setting 'orthorhombic'
loop_
_space_group_symop_operation_xyz
x,y,z
1/2-x,1/2-y,1/2+z
1/2+x,1/2-y,-z
-x,y,1/2-z
-x,-y,-z
1/2+x,1/2+y,1/2-z
1/2-x,1/2+y,z
x,-y,1/2+z
loop_
_atom_site_type_symbol
_atom_site_label
_atom_site_fract_x
_atom_site_fract_y
_atom_site_fract_z
Si Si1 0.237626 0.872456 0.017634
Si Si2 0.607579 0.542401 0.803561
Si Si3 0.500000 0.080279 0.250000
Si Si4 0.500000 0.415141 0.750000
Si Si5 0.140739 0.799508 0.884034
Si Si6 0.801680 0.163422 0.633853
Si Si7 0.046130 0.333704 0.453058
O O1 0.226884 0.848423 0.199290
O O2 0.197145 0.774457 0.925959
O O3 0.289448 0.810707 0.954509
O O4 0.220644 0.031298 0.967463
O O5 0.549253 0.509572 0.778992
O O6 0.633418 0.388075 0.773769
O O7 0.640338 0.640177 0.684480
O O8 0.618624 0.601096 0.975118
O O9 0.537920 0.164437 0.361081
O O10 0.527137 0.975682 0.130179
O O11 0.484227 0.303422 0.886707
O O12 0.102933 0.672065 0.896376
#
# Coordination Sequence:
#
# PCOD9455246 Si02
#       7
#     8   8   4   4   8   8   8
#     4  10  20  37  60  84 115 150 191 241 296 348
#     4   9  19  33  53  81 113 142 180 227 280 338
#     4   9  18  33  52  74 106 149 190 233 270 320
#     4   9  18  33  54  82 114 145 180 229 284 340
#     4   9  19  34  52  78 109 141 180 229 281 340
#     4  10  20  37  60  86 117 154 194 242 293 350
#     4   9  18  33  52  75 108 148 188 227 275 330
#
# _framework density 22.321027999999998
#
# number of rings (size 3 to 8) (size 9 to 14) (size 15 to 20)
#    0.000    2.667    0.000    1.000    0.000    6.000 
#    0.000    5.000    0.000    4.000    0.000    0.000 
#    0.000    0.000    0.000    0.000    0.000    0.000 
#
# Total GULP energy -267572.450833 kJ/mol
# GULP energy per Si atom -5574.426059 kJ/mol
# Density = 2.227022 g / cm^3
# Si number density = 22.321028 Si / 1000 Ang^3
#
#
#
# Elastic Constant Matrix: (Units=GPa)
#
#
# Indices 1 2 3 4 5 6 
#
# 1 96.5666 21.5377 7.8784 0.0000 0.0000 0.0000
# 2 21.5377 50.4172 16.0738 0.0000 0.0000 0.0000
# 3 7.8784 16.0738 66.7737 0.0000 0.0000 0.0000
# 4 0.0000 0.0000 0.0000 52.0798 0.0000 0.0000
# 5 0.0000 0.0000 0.0000 0.0000 23.3718 0.0000
# 6 0.0000 0.0000 0.0000 0.0000 0.0000 42.8444
#
#
#
# Elastic Compliance Matrix: (Units=1/GPa)
#
#
# Indices 1 2 3 4 5 6 
#
# 1 0.011448 -0.004831 -0.000188 0.000000 0.000000 0.000000
# 2 -0.004831 0.023522 -0.005092 0.000000 0.000000 0.000000
# 3 -0.000188 -0.005092 0.016224 0.000000 0.000000 0.000000
# 4 0.000000 0.000000 0.000000 0.019201 0.000000 0.000000
# 5 0.000000 0.000000 0.000000 0.000000 0.042787 0.000000
# 6 0.000000 0.000000 0.000000 0.000000 0.000000 0.023340
#
#
# Mechanical properties :
#
#
# Convention : Reuss Voigt Hill
#
# Bulk Modulus (GPa) = 32.28695 33.85970 33.07332
# Shear Modulus (GPa) = 29.92799 34.87702 32.40251
#
# Velocity S-wave (km/s) = 3.66566 3.95716 3.81420
# Velocity P-wave (km/s) = 5.69318 6.00676 5.85207
#
# Compressibility (1/GPa) = 0.03097227
#
# Stress axis : x y z
#
# Youngs Moduli (GPa) = 87.34933 42.51414 61.63733
#
# Poissons Ratio (x) = 0.20537 0.01158
# Poissons Ratio (y) = 0.42196 0.31387
# Poissons Ratio (z) = 0.01641 0.21649
#
# Static dielectric constant tensor:
#      x y z
#    x 1.887120 0.000000 0.000000 
#    y 0.000000 1.857910 0.000000 
#    z 0.000000 0.000000 1.840170 
# 
# From -- ./inp_files/8425.got.cif
#   From: 2010.05.17/outbox.cif.g08.bks.cpg/sg60_5_cif.got.tgz:8425.got - 2010.06.03 14:59:27.
