data_PCOD9455920
_publ_section_title
;
Structure prediction by ZEFSAII (Michael W. Deem and Ramdas Pophale) SiO2 
 PCOD9455920
Probable space group: P B C N
;
_chemical_formula_sum "Si O2"
_cell_formula_units_Z 56
_cell_length_a 22.336763
_cell_length_b 11.288603
_cell_length_c 11.060382
_cell_angle_alpha 90.000000
_cell_angle_beta 90.000000
_cell_angle_gamma 90.000000
_cell_volume 2788.884721
_symmetry_space_group_name_H-M "P B C N"
_symmetry_group_IT_number 60
_symmetry_cell_setting 'orthorhombic'
loop_
_space_group_symop_operation_xyz
x,y,z
1/2-x,1/2-y,1/2+z
1/2+x,1/2-y,-z
-x,y,1/2-z
-x,-y,-z
1/2+x,1/2+y,1/2-z
1/2-x,1/2+y,z
x,-y,1/2+z
loop_
_atom_site_type_symbol
_atom_site_label
_atom_site_fract_x
_atom_site_fract_y
_atom_site_fract_z
Si Si1 0.860724 0.339628 0.381439
Si Si2 0.463555 0.510394 0.374794
Si Si3 0.673276 0.070288 0.480726
Si Si4 0.723837 0.723573 0.830300
Si Si5 0.139111 0.828351 0.394691
Si Si6 0.625435 0.276886 0.649744
Si Si7 0.711815 0.554414 0.047770
O O1 0.866985 0.478936 0.405130
O O2 0.793063 0.315805 0.330994
O O3 0.870193 0.273213 0.507426
O O4 0.897029 0.276102 0.276231
O O5 0.500000 0.524528 0.250000
O O6 0.500000 0.500000 0.500000
O O7 0.421846 0.393519 0.356227
O O8 0.422194 0.626422 0.392635
O O9 0.713516 0.148571 0.390011
O O10 0.639162 0.164583 0.564042
O O11 0.719235 0.985953 0.555345
O O12 0.683808 0.712705 0.711369
O O13 0.699154 0.628334 0.927223
O O14 0.175142 0.934657 0.457309
O O15 0.686513 0.358501 0.651549
#
# Coordination Sequence:
#
# PCOD9455920 Si02
#       7
#     8   8   8   8   8   8   8
#     4  11  23  35  61  95 135 177 212 250 325 407
#     4  11  26  46  74  97 123 166 232 300 354 381
#     4  10  21  37  57  90 133 173 206 239 320 397
#     4  10  22  35  56  90 136 173 206 249 309 402
#     4  11  23  38  64  91 128 163 223 272 329 382
#     4  10  23  39  65  89 134 162 220 273 321 388
#     4   9  20  36  55  87 128 173 204 248 317 378
#
# _framework density 20.079711
#
# number of rings (size 3 to 8) (size 9 to 14) (size 15 to 20)
#    0.000    1.714    1.429    1.714   16.000    0.000 
#    0.000    0.000    0.000    4.286    0.000    0.000 
#    0.000    0.000    0.000    0.000    0.000    0.000 
#
# Total GULP energy -312307.811871 kJ/mol
# GULP energy per Si atom -5576.925212 kJ/mol
# Density = 2.003401 g / cm^3
# Si number density = 20.079711 Si / 1000 Ang^3
#
#
#
# Elastic Constant Matrix: (Units=GPa)
#
#
# Indices 1 2 3 4 5 6 
#
# 1 59.7520 29.1085 32.8387 0.0000 0.0000 0.0000
# 2 29.1085 134.1164 45.5714 0.0000 0.0000 0.0000
# 3 32.8387 45.5714 83.7534 0.0000 0.0000 0.0000
# 4 0.0000 0.0000 0.0000 25.0350 0.0000 0.0000
# 5 0.0000 0.0000 0.0000 0.0000 29.2962 0.0000
# 6 0.0000 0.0000 0.0000 0.0000 0.0000 20.4318
#
#
#
# Elastic Compliance Matrix: (Units=1/GPa)
#
#
# Indices 1 2 3 4 5 6 
#
# 1 0.021872 -0.002249 -0.007352 0.000000 0.000000 0.000000
# 2 -0.002249 0.009379 -0.004221 0.000000 0.000000 0.000000
# 3 -0.007352 -0.004221 0.017119 0.000000 0.000000 0.000000
# 4 0.000000 0.000000 0.000000 0.039944 0.000000 0.000000
# 5 0.000000 0.000000 0.000000 0.000000 0.034134 0.000000
# 6 0.000000 0.000000 0.000000 0.000000 0.000000 0.048943
#
#
# Mechanical properties :
#
#
# Convention : Reuss Voigt Hill
#
# Bulk Modulus (GPa) = 48.24990 54.73989 51.49490
# Shear Modulus (GPa) = 24.27836 26.29281 25.28559
#
# Velocity S-wave (km/s) = 3.48098 3.62252 3.55246
# Velocity P-wave (km/s) = 6.34332 6.69457 6.52131
#
# Compressibility (1/GPa) = 0.02072543
#
# Stress axis : x y z
#
# Youngs Moduli (GPa) = 45.72055 106.62503 58.41345
#
# Poissons Ratio (x) = 0.23979 0.42946
# Poissons Ratio (y) = 0.10282 0.24658
# Poissons Ratio (z) = 0.33614 0.45010
#
# Static dielectric constant tensor:
#      x y z
#    x 1.769400 0.000000 0.000000 
#    y 0.000000 1.706810 0.000000 
#    z 0.000000 0.000000 1.804190 
# 
# From -- ./inp_files/12828.got.cif
#   From: 2010.05.17/outbox.cif.g08.bks.cpg/sg60_7_cif.got.tgz:12828.got - 2010.06.03 14:59:27.
