data_PCOD9455031
_publ_section_title
;
Structure prediction by ZEFSAII (Michael W. Deem and Ramdas Pophale) SiO2 
 PCOD9455031
Probable space group: P B C N
;
_chemical_formula_sum "Si O2"
_cell_formula_units_Z 64
_cell_length_a 27.487593
_cell_length_b 13.655971
_cell_length_c 9.620411
_cell_angle_alpha 90.000000
_cell_angle_beta 90.000000
_cell_angle_gamma 90.000000
_cell_volume 3611.211492
_symmetry_space_group_name_H-M "P B C N"
_symmetry_group_IT_number 60
_symmetry_cell_setting 'orthorhombic'
loop_
_space_group_symop_operation_xyz
x,y,z
1/2-x,1/2-y,1/2+z
1/2+x,1/2-y,-z
-x,y,1/2-z
-x,-y,-z
1/2+x,1/2+y,1/2-z
1/2-x,1/2+y,z
x,-y,1/2+z
loop_
_atom_site_type_symbol
_atom_site_label
_atom_site_fract_x
_atom_site_fract_y
_atom_site_fract_z
Si Si1 0.956577 0.072569 0.137427
Si Si2 0.691433 0.104563 0.027245
Si Si3 0.357622 0.399736 0.700366
Si Si4 0.118205 0.767659 0.437684
Si Si5 0.708901 0.294020 0.584417
Si Si6 0.172187 0.883005 0.198238
Si Si7 0.281824 0.916102 0.291997
Si Si8 0.481097 0.648052 0.904955
O O1 0.906719 0.103111 0.208527
O O2 0.000000 0.076525 0.250000
O O3 0.955099 0.959429 0.087471
O O4 0.973855 0.139080 0.009761
O O5 0.641344 0.160240 0.057352
O O6 0.734306 0.181478 0.065244
O O7 0.701987 0.009228 0.119063
O O8 0.697272 0.080219 0.864375
O O9 0.362079 0.328693 0.569526
O O10 0.313734 0.363309 0.797171
O O11 0.362919 0.675566 0.801017
O O12 0.223367 0.907083 0.274290
O O13 0.059989 0.774177 0.442703
O O14 0.684072 0.320635 0.438484
O O15 0.701713 0.183157 0.632059
O O16 0.150003 0.987877 0.156180
O O17 0.500000 0.661978 0.750000
#
# Coordination Sequence:
#
# PCOD9455031 Si02
#       8
#     8   8   8   8   8   8   8   8
#     4  10  20  35  53  82 119 161 193 241 293 362
#     4  11  25  40  62  86 120 162 207 251 296 353
#     4  12  22  38  58  89 123 164 206 239 299 361
#     4  12  23  38  58  88 120 162 204 247 299 365
#     4  11  24  39  58  87 125 165 204 241 298 356
#     4  11  24  34  59  87 126 166 198 245 296 357
#     4  11  24  42  58  86 122 164 206 254 292 347
#     4  10  22  35  55  85 122 154 196 245 308 365
#
# _framework density 17.722584000000001
#
# number of rings (size 3 to 8) (size 9 to 14) (size 15 to 20)
#    0.000    1.000    6.250    0.750    5.250    0.000 
#    0.000    0.000    0.000    0.000    0.000    4.375 
#    0.000    0.000    0.000    0.000    0.000    0.000 
#
# Total GULP energy -357777.453987 kJ/mol
# GULP energy per Si atom -5590.272719 kJ/mol
# Density = 1.768225 g / cm^3
# Si number density = 17.722584 Si / 1000 Ang^3
#
#
#
# Elastic Constant Matrix: (Units=GPa)
#
#
# Indices 1 2 3 4 5 6 
#
# 1 56.4505 15.1996 21.3706 0.0000 0.0000 0.0000
# 2 15.1996 89.2176 42.0022 0.0000 0.0000 0.0000
# 3 21.3706 42.0022 85.8842 0.0000 0.0000 0.0000
# 4 0.0000 0.0000 0.0000 17.5394 0.0000 0.0000
# 5 0.0000 0.0000 0.0000 0.0000 22.9939 0.0000
# 6 0.0000 0.0000 0.0000 0.0000 0.0000 26.5423
#
#
#
# Elastic Compliance Matrix: (Units=1/GPa)
#
#
# Indices 1 2 3 4 5 6 
#
# 1 0.019683 -0.001361 -0.004232 0.000000 0.000000 0.000000
# 2 -0.001361 0.014655 -0.006829 0.000000 0.000000 0.000000
# 3 -0.004232 -0.006829 0.016036 0.000000 0.000000 0.000000
# 4 0.000000 0.000000 0.000000 0.057014 0.000000 0.000000
# 5 0.000000 0.000000 0.000000 0.000000 0.043490 0.000000
# 6 0.000000 0.000000 0.000000 0.000000 0.000000 0.037676
#
#
# Mechanical properties :
#
#
# Convention : Reuss Voigt Hill
#
# Bulk Modulus (GPa) = 39.16763 43.18858 41.17811
# Shear Modulus (GPa) = 22.53180 23.61377 23.07279
#
# Velocity S-wave (km/s) = 3.56948 3.65418 3.61208
# Velocity P-wave (km/s) = 6.25593 6.49817 6.37820
#
# Compressibility (1/GPa) = 0.02553129
#
# Stress axis : x y z
#
# Youngs Moduli (GPa) = 50.80455 68.23526 62.35869
#
# Poissons Ratio (x) = 0.09286 0.26392
# Poissons Ratio (y) = 0.06914 0.42582
# Poissons Ratio (z) = 0.21502 0.46595
#
# Static dielectric constant tensor:
#      x y z
#    x 1.607270 0.000000 0.000000 
#    y 0.000000 1.586980 0.000000 
#    z 0.000000 0.000000 1.614630 
# 
# From -- ./inp_files/8504.got.cif
#   From: 2010.05.17/outbox.cif.g08.bks.cpg/sg60_5_cif.got.tgz:8504.got - 2010.06.03 14:59:27.
