data_PCOD9455499
_publ_section_title
;
Structure prediction by ZEFSAII (Michael W. Deem and Ramdas Pophale) SiO2 
 PCOD9455499
Probable space group: P B C N
;
_chemical_formula_sum "Si O2"
_cell_formula_units_Z 48
_cell_length_a 15.763771
_cell_length_b 14.425846
_cell_length_c 10.439614
_cell_angle_alpha 90.000000
_cell_angle_beta 90.000000
_cell_angle_gamma 90.000000
_cell_volume 2374.028072
_symmetry_space_group_name_H-M "P B C N"
_symmetry_group_IT_number 60
_symmetry_cell_setting 'orthorhombic'
loop_
_space_group_symop_operation_xyz
x,y,z
1/2-x,1/2-y,1/2+z
1/2+x,1/2-y,-z
-x,y,1/2-z
-x,-y,-z
1/2+x,1/2+y,1/2-z
1/2-x,1/2+y,z
x,-y,1/2+z
loop_
_atom_site_type_symbol
_atom_site_label
_atom_site_fract_x
_atom_site_fract_y
_atom_site_fract_z
Si Si1 0.258539 0.392171 0.828725
Si Si2 0.500000 0.905139 0.250000
Si Si3 0.745248 0.085287 0.598540
Si Si4 0.500000 0.787848 0.750000
Si Si5 0.383434 0.059899 0.121934
Si Si6 0.639556 0.783815 0.251571
Si Si7 0.635147 0.250357 0.039914
O O1 0.292753 0.488558 0.882444
O O2 0.197736 0.427203 0.714420
O O3 0.328304 0.315752 0.794147
O O4 0.194032 0.336206 0.919263
O O5 0.563188 0.834448 0.179485
O O6 0.441773 0.972011 0.161414
O O7 0.661512 0.058528 0.515795
O O8 0.715974 0.142808 0.725317
O O9 0.804940 0.159702 0.530348
O O10 0.557055 0.852959 0.842629
O O11 0.435627 0.737603 0.848964
O O12 0.608854 0.772878 0.396438
#
# Coordination Sequence:
#
# PCOD9455499 Si02
#       7
#     8   4   8   4   8   8   8
#     4  10  21  39  60  90 123 167 215 261 322 387
#     4  11  22  36  61  98 134 164 207 274 335 370
#     4  11  22  39  65  92 127 174 218 262 322 394
#     4   9  22  38  63  94 128 164 209 268 329 378
#     4  10  20  39  62  95 127 166 211 267 320 390
#     4  11  23  37  59  95 126 165 211 270 325 390
#     4  10  22  40  64  89 128 166 217 265 322 390
#
# _framework density 20.218800999999999
#
# number of rings (size 3 to 8) (size 9 to 14) (size 15 to 20)
#    0.000    1.667    3.333    1.000    2.333    0.667 
#    0.000    0.833    0.000    2.000    0.000    0.000 
#    0.000    0.000    0.000    0.000    0.000    0.000 
#
# Total GULP energy -267293.170329 kJ/mol
# GULP energy per Si atom -5568.607715 kJ/mol
# Density = 2.017278 g / cm^3
# Si number density = 20.218801 Si / 1000 Ang^3
#
#
#
# Elastic Constant Matrix: (Units=GPa)
#
#
# Indices 1 2 3 4 5 6 
#
# 1 79.3368 50.9890 31.3984 0.0000 0.0000 0.0000
# 2 50.9890 163.5257 39.4408 0.0000 0.0000 0.0000
# 3 31.3984 39.4408 79.7534 0.0000 0.0000 0.0000
# 4 0.0000 0.0000 0.0000 5.3825 0.0000 0.0000
# 5 0.0000 0.0000 0.0000 0.0000 31.8891 0.0000
# 6 0.0000 0.0000 0.0000 0.0000 0.0000 73.3577
#
#
#
# Elastic Compliance Matrix: (Units=1/GPa)
#
#
# Indices 1 2 3 4 5 6 
#
# 1 0.017169 -0.004227 -0.004669 0.000000 0.000000 0.000000
# 2 -0.004227 0.007984 -0.002284 0.000000 0.000000 0.000000
# 3 -0.004669 -0.002284 0.015506 0.000000 0.000000 0.000000
# 4 0.000000 0.000000 0.000000 0.185787 0.000000 0.000000
# 5 0.000000 0.000000 0.000000 0.000000 0.031359 0.000000
# 6 0.000000 0.000000 0.000000 0.000000 0.000000 0.013632
#
#
# Mechanical properties :
#
#
# Convention : Reuss Voigt Hill
#
# Bulk Modulus (GPa) = 54.64787 62.91914 58.78351
# Shear Modulus (GPa) = 16.67232 35.51170 26.09201
#
# Velocity S-wave (km/s) = 2.87469 4.19545 3.59623
# Velocity P-wave (km/s) = 6.17296 7.39296 6.81033
#
# Compressibility (1/GPa) = 0.01829897
#
# Stress axis : x y z
#
# Youngs Moduli (GPa) = 58.24401 125.24517 64.48982
#
# Poissons Ratio (x) = 0.52947 0.30109
# Poissons Ratio (y) = 0.24622 0.14731
# Poissons Ratio (z) = 0.27193 0.28609
#
# Static dielectric constant tensor:
#      x y z
#    x 1.774930 0.000000 0.000000 
#    y 0.000000 1.705320 0.000000 
#    z 0.000000 0.000000 1.798590 
# 
# From -- ./inp_files/11904.got.cif
#   From: 2010.05.17/outbox.cif.g08.bks.cpg/sg60_6_cif.got.tgz:11904.got - 2010.06.03 14:59:27.
