data_PCOD9455674
_publ_section_title
;
Structure prediction by ZEFSAII (Michael W. Deem and Ramdas Pophale) SiO2 
 PCOD9455674
Probable space group: P B C N
;
_chemical_formula_sum "Si O2"
_cell_formula_units_Z 56
_cell_length_a 5.428386
_cell_length_b 16.078393
_cell_length_c 27.583206
_cell_angle_alpha 90.000000
_cell_angle_beta 90.000000
_cell_angle_gamma 90.000000
_cell_volume 2407.454592
_symmetry_space_group_name_H-M "P B C N"
_symmetry_group_IT_number 60
_symmetry_cell_setting 'orthorhombic'
loop_
_space_group_symop_operation_xyz
x,y,z
1/2-x,1/2-y,1/2+z
1/2+x,1/2-y,-z
-x,y,1/2-z
-x,-y,-z
1/2+x,1/2+y,1/2-z
1/2-x,1/2+y,z
x,-y,1/2+z
loop_
_atom_site_type_symbol
_atom_site_label
_atom_site_fract_x
_atom_site_fract_y
_atom_site_fract_z
Si Si1 0.121733 0.632949 0.474869
Si Si2 0.255407 0.085224 0.698305
Si Si3 0.115130 0.831063 0.804300
Si Si4 0.247794 0.019233 0.808408
Si Si5 0.708960 0.534998 0.536262
Si Si6 0.458100 0.690679 0.565423
Si Si7 0.641018 0.247180 0.332280
O O1 0.209184 0.554368 0.441943
O O2 0.296205 0.664556 0.518784
O O3 0.899060 0.585923 0.502226
O O4 0.069385 0.718078 0.446655
O O5 0.237049 0.183528 0.705370
O O6 0.254504 0.043275 0.751182
O O7 0.502460 0.057979 0.671371
O O8 0.007133 0.055714 0.672934
O O9 0.232153 0.921295 0.811180
O O10 0.355849 0.774716 0.818889
O O11 0.000000 0.825560 0.750000
O O12 0.858681 0.821023 0.833818
O O13 0.500000 0.500000 0.500000
O O14 0.627476 0.609304 0.570858
O O15 0.332906 0.707089 0.616316
#
# Coordination Sequence:
#
# PCOD9455674 Si02
#       7
#     8   8   8   8   8   8   8
#     4  10  20  41  75  97 138 195 236 280 367 454
#     4  10  21  41  64  97 125 180 228 291 352 415
#     4  12  26  47  70  99 140 193 240 295 361 441
#     4  10  21  42  70  89 128 182 241 277 357 430
#     4   9  20  40  68 103 127 191 242 277 348 445
#     4  11  23  43  70 106 150 185 237 305 369 432
#     4  12  29  42  71 111 145 181 244 312 363 429
#
# _framework density 23.261081000000001
#
# number of rings (size 3 to 8) (size 9 to 14) (size 15 to 20)
#    0.000    1.429    2.857    2.143   10.000    0.000 
#    2.571    5.714    0.000    0.000    0.000    0.000 
#    0.000    0.000    0.000    0.000    0.000    0.000 
#
# Total GULP energy -311921.049072 kJ/mol
# GULP energy per Si atom -5570.018733 kJ/mol
# Density = 2.320814 g / cm^3
# Si number density = 23.261081 Si / 1000 Ang^3
#
#
#
# Elastic Constant Matrix: (Units=GPa)
#
#
# Indices 1 2 3 4 5 6 
#
# 1 142.9599 46.0573 5.6291 0.0000 0.0000 0.0000
# 2 46.0573 158.4344 30.1162 0.0000 0.0000 0.0000
# 3 5.6291 30.1162 42.8378 0.0000 0.0000 0.0000
# 4 0.0000 0.0000 0.0000 25.1343 0.0000 0.0000
# 5 0.0000 0.0000 0.0000 0.0000 15.9307 0.0000
# 6 0.0000 0.0000 0.0000 0.0000 0.0000 40.5815
#
#
#
# Elastic Compliance Matrix: (Units=1/GPa)
#
#
# Indices 1 2 3 4 5 6 
#
# 1 0.007733 -0.002372 0.000651 0.000000 0.000000 0.000000
# 2 -0.002372 0.008013 -0.005322 0.000000 0.000000 0.000000
# 3 0.000651 -0.005322 0.027000 0.000000 0.000000 0.000000
# 4 0.000000 0.000000 0.000000 0.039786 0.000000 0.000000
# 5 0.000000 0.000000 0.000000 0.000000 0.062772 0.000000
# 6 0.000000 0.000000 0.000000 0.000000 0.000000 0.024642
#
#
# Mechanical properties :
#
#
# Convention : Reuss Voigt Hill
#
# Bulk Modulus (GPa) = 34.89008 56.42638 45.65823
# Shear Modulus (GPa) = 25.82858 33.82458 29.82658
#
# Velocity S-wave (km/s) = 3.33585 3.81744 3.58474
# Velocity P-wave (km/s) = 5.46526 6.61370 6.06671
#
# Compressibility (1/GPa) = 0.02866145
#
# Stress axis : x y z
#
# Youngs Moduli (GPa) = 129.30759 124.79940 37.03771
#
# Poissons Ratio (x) = 0.29602 -0.02412
# Poissons Ratio (y) = 0.30671 0.19710
# Poissons Ratio (z) = -0.08422 0.66413
#
# Static dielectric constant tensor:
#      x y z
#    x 1.953580 0.000000 0.000000 
#    y 0.000000 1.983140 0.000000 
#    z 0.000000 0.000000 1.838800 
# 
# From -- ./inp_files/25691.got.cif
#   From: 2010.05.17/outbox.cif.g08.bks.cpg/sg60_13_cif.got.tgz:25691.got - 2010.06.03 14:59:27.
