data_PCOD9455917
_publ_section_title
;
Structure prediction by ZEFSAII (Michael W. Deem and Ramdas Pophale) SiO2 
 PCOD9455917
Probable space group: P B C N
;
_chemical_formula_sum "Si O2"
_cell_formula_units_Z 56
_cell_length_a 8.242942
_cell_length_b 14.321641
_cell_length_c 25.852245
_cell_angle_alpha 90.000000
_cell_angle_beta 90.000000
_cell_angle_gamma 90.000000
_cell_volume 3051.921018
_symmetry_space_group_name_H-M "P B C N"
_symmetry_group_IT_number 60
_symmetry_cell_setting 'orthorhombic'
loop_
_space_group_symop_operation_xyz
x,y,z
1/2-x,1/2-y,1/2+z
1/2+x,1/2-y,-z
-x,y,1/2-z
-x,-y,-z
1/2+x,1/2+y,1/2-z
1/2-x,1/2+y,z
x,-y,1/2+z
loop_
_atom_site_type_symbol
_atom_site_label
_atom_site_fract_x
_atom_site_fract_y
_atom_site_fract_z
Si Si1 0.688158 0.513378 0.873805
Si Si2 0.760283 0.638639 0.603207
Si Si3 0.597360 0.468333 0.551226
Si Si4 0.501728 0.663601 0.688661
Si Si5 0.363595 0.814654 0.958102
Si Si6 0.882910 0.321091 0.422161
Si Si7 0.864512 0.330533 0.877321
O O1 0.538342 0.467201 0.904333
O O2 0.620263 0.582151 0.830094
O O3 0.780736 0.584170 0.912517
O O4 0.797711 0.427688 0.855831
O O5 0.728387 0.543222 0.572263
O O6 0.669168 0.639800 0.658420
O O7 0.671257 0.714863 0.567272
O O8 0.947407 0.665761 0.606983
O O9 0.500000 0.500000 0.500000
O O10 0.698127 0.374193 0.543524
O O11 0.500000 0.667127 0.750000
O O12 0.445230 0.762750 0.664928
O O13 0.506286 0.855021 0.922238
O O14 0.416981 0.808641 0.017252
O O15 0.776278 0.234162 0.402415
#
# Coordination Sequence:
#
# PCOD9455917 Si02
#       7
#     8   8   8   8   8   8   8
#     4  10  21  37  57  84 118 151 197 245 290 351
#     4  10  23  36  56  85 112 154 201 235 295 358
#     4  11  22  35  53  84 120 160 197 228 282 352
#     4   9  21  45  63  79 113 152 194 259 308 345
#     4  11  22  33  56  83 122 168 188 232 289 351
#     4  11  21  34  55  84 124 158 191 238 289 355
#     4  10  22  37  57  87 114 151 202 242 289 355
#
# _framework density 18.349098000000001
#
# number of rings (size 3 to 8) (size 9 to 14) (size 15 to 20)
#    0.000    1.714    1.429    3.429    6.000    1.143 
#    0.000   11.429    0.000    0.000    0.000    0.000 
#    0.000    0.000    0.000    0.000    0.000    0.000 
#
# Total GULP energy -312596.976332 kJ/mol
# GULP energy per Si atom -5582.088863 kJ/mol
# Density = 1.830733 g / cm^3
# Si number density = 18.349098 Si / 1000 Ang^3
#
#
#
# Elastic Constant Matrix: (Units=GPa)
#
#
# Indices 1 2 3 4 5 6 
#
# 1 78.1180 8.7914 28.3256 0.0000 0.0000 0.0000
# 2 8.7914 69.1048 19.2936 0.0000 0.0000 0.0000
# 3 28.3256 19.2936 129.0928 0.0000 0.0000 0.0000
# 4 0.0000 0.0000 0.0000 9.6323 0.0000 0.0000
# 5 0.0000 0.0000 0.0000 0.0000 8.5096 0.0000
# 6 0.0000 0.0000 0.0000 0.0000 0.0000 31.5025
#
#
#
# Elastic Compliance Matrix: (Units=1/GPa)
#
#
# Indices 1 2 3 4 5 6 
#
# 1 0.013969 -0.000961 -0.002921 0.000000 0.000000 0.000000
# 2 -0.000961 0.015167 -0.002056 0.000000 0.000000 0.000000
# 3 -0.002921 -0.002056 0.008695 0.000000 0.000000 0.000000
# 4 0.000000 0.000000 0.000000 0.103817 0.000000 0.000000
# 5 0.000000 0.000000 0.000000 0.000000 0.117514 0.000000
# 6 0.000000 0.000000 0.000000 0.000000 0.000000 0.031744
#
#
# Mechanical properties :
#
#
# Convention : Reuss Voigt Hill
#
# Bulk Modulus (GPa) = 38.53105 43.23742 40.88424
# Shear Modulus (GPa) = 16.05479 24.58921 20.32200
#
# Velocity S-wave (km/s) = 2.96119 3.66468 3.33155
# Velocity P-wave (km/s) = 5.72154 6.44371 6.09333
#
# Compressibility (1/GPa) = 0.02595310
#
# Stress axis : x y z
#
# Youngs Moduli (GPa) = 71.58906 65.93232 115.01369
#
# Poissons Ratio (x) = 0.06339 0.33599
# Poissons Ratio (y) = 0.06883 0.23645
# Poissons Ratio (z) = 0.20913 0.13555
#
# Static dielectric constant tensor:
#      x y z
#    x 1.661640 0.000000 0.000000 
#    y 0.000000 1.640650 0.000000 
#    z 0.000000 0.000000 1.584260 
# 
# From -- ./inp_files/22224.got.cif
#   From: 2010.05.17/outbox.cif.g08.bks.cpg/sg60_12_cif.got.tgz:22224.got - 2010.06.03 14:59:27.
