data_PCOD9455991
_publ_section_title
;
Structure prediction by ZEFSAII (Michael W. Deem and Ramdas Pophale) SiO2 
 PCOD9455991
Probable space group: P B C N
;
_chemical_formula_sum "Si O2"
_cell_formula_units_Z 44
_cell_length_a 33.450570
_cell_length_b 6.905039
_cell_length_c 7.965836
_cell_angle_alpha 90.000000
_cell_angle_beta 90.000000
_cell_angle_gamma 90.000000
_cell_volume 1839.928808
_symmetry_space_group_name_H-M "P B C N"
_symmetry_group_IT_number 60
_symmetry_cell_setting 'orthorhombic'
loop_
_space_group_symop_operation_xyz
x,y,z
1/2-x,1/2-y,1/2+z
1/2+x,1/2-y,-z
-x,y,1/2-z
-x,-y,-z
1/2+x,1/2+y,1/2-z
1/2-x,1/2+y,z
x,-y,1/2+z
loop_
_atom_site_type_symbol
_atom_site_label
_atom_site_fract_x
_atom_site_fract_y
_atom_site_fract_z
Si Si1 0.210332 0.801697 0.539468
Si Si2 0.292061 0.075393 0.187859
Si Si3 0.500000 0.572852 0.250000
Si Si4 0.559265 0.660265 0.987560
Si Si5 0.880247 0.563114 0.318473
Si Si6 0.877185 0.181585 0.482150
O O1 0.205967 0.656276 0.697380
O O2 0.211938 0.690939 0.360696
O O3 0.252429 0.899107 0.575982
O O4 0.167552 0.907101 0.532586
O O5 0.335831 0.116546 0.110418
O O6 0.531530 0.699512 0.146980
O O7 0.527505 0.430472 0.358630
O O8 0.591128 0.486050 0.011122
O O9 0.583690 0.840105 0.918188
O O10 0.884192 0.329846 0.326932
O O11 0.879279 0.667788 0.137812
#
# Coordination Sequence:
#
# PCOD9455991 Si02
#       6
#     8   8   4   8   8   8
#     4  10  21  38  57  88 125 163 210 257 301 365
#     4  10  21  38  57  88 125 163 210 257 301 365
#     4  10  24  42  70  94 126 158 208 270 314 392
#     4  11  22  46  66  94 130 162 206 262 326 375
#     4  10  23  41  65  94 126 169 214 255 313 378
#     4  10  23  41  65  94 126 169 214 255 313 378
#
# _framework density 23.913969000000002
#
# number of rings (size 3 to 8) (size 9 to 14) (size 15 to 20)
#    0.000    1.818    1.818    1.091    5.091    1.455 
#    0.000    5.455    0.000    0.000    0.000    0.000 
#    0.000    0.000    0.000    0.000    0.000    0.000 
#
# Total GULP energy -245621.777349 kJ/mol
# GULP energy per Si atom -5582.313122 kJ/mol
# Density = 2.385954 g / cm^3
# Si number density = 23.913969 Si / 1000 Ang^3
#
#
#
# Elastic Constant Matrix: (Units=GPa)
#
#
# Indices 1 2 3 4 5 6 
#
# 1 184.7383 18.0038 33.4582 0.0000 0.0000 0.0000
# 2 18.0038 27.5017 -7.9817 0.0000 0.0000 0.0000
# 3 33.4582 -7.9817 39.0601 0.0000 0.0000 0.0000
# 4 0.0000 0.0000 0.0000 30.4583 0.0000 0.0000
# 5 0.0000 0.0000 0.0000 0.0000 37.2596 0.0000
# 6 0.0000 0.0000 0.0000 0.0000 0.0000 28.4240
#
#
#
# Elastic Compliance Matrix: (Units=1/GPa)
#
#
# Indices 1 2 3 4 5 6 
#
# 1 0.007563 -0.007262 -0.007962 0.000000 0.000000 0.000000
# 2 -0.007262 0.045627 0.015544 0.000000 0.000000 0.000000
# 3 -0.007962 0.015544 0.035598 0.000000 0.000000 0.000000
# 4 0.000000 0.000000 0.000000 0.032832 0.000000 0.000000
# 5 0.000000 0.000000 0.000000 0.000000 0.026839 0.000000
# 6 0.000000 0.000000 0.000000 0.000000 0.000000 0.035182
#
#
# Mechanical properties :
#
#
# Convention : Reuss Voigt Hill
#
# Bulk Modulus (GPa) = 11.18225 37.58450 24.38338
# Shear Modulus (GPa) = 23.49530 33.08301 28.28916
#
# Velocity S-wave (km/s) = 3.13787 3.72347 3.44314
# Velocity P-wave (km/s) = 4.22073 5.85118 5.10151
#
# Compressibility (1/GPa) = 0.08942740
#
# Stress axis : x y z
#
# Youngs Moduli (GPa) = 132.22664 21.91708 28.09145
#
# Poissons Ratio (x) = 0.15916 0.22366
# Poissons Ratio (y) = 0.96019 -0.43665
# Poissons Ratio (z) = 1.05279 -0.34067
#
# Static dielectric constant tensor:
#      x y z
#    x 1.903580 0.000000 0.000000 
#    y 0.000000 1.891810 0.000000 
#    z 0.000000 0.000000 2.026840 
# 
# From -- ./inp_files/8338.got.cif
#   From: 2010.05.17/outbox.cif.g08.bks.cpg/sg60_5_cif.got.tgz:8338.got - 2010.06.03 14:59:27.
