data_PCOD9455384
_publ_section_title
;
Structure prediction by ZEFSAII (Michael W. Deem and Ramdas Pophale) SiO2 
 PCOD9455384
Probable space group: P B C N
;
_chemical_formula_sum "Si O2"
_cell_formula_units_Z 48
_cell_length_a 13.676360
_cell_length_b 9.126981
_cell_length_c 16.779791
_cell_angle_alpha 90.000000
_cell_angle_beta 90.000000
_cell_angle_gamma 90.000000
_cell_volume 2094.518582
_symmetry_space_group_name_H-M "P B C N"
_symmetry_group_IT_number 60
_symmetry_cell_setting 'orthorhombic'
loop_
_space_group_symop_operation_xyz
x,y,z
1/2-x,1/2-y,1/2+z
1/2+x,1/2-y,-z
-x,y,1/2-z
-x,-y,-z
1/2+x,1/2+y,1/2-z
1/2-x,1/2+y,z
x,-y,1/2+z
loop_
_atom_site_type_symbol
_atom_site_label
_atom_site_fract_x
_atom_site_fract_y
_atom_site_fract_z
Si Si1 0.201982 0.623619 0.298510
Si Si2 0.979897 0.580533 0.662824
Si Si3 0.360136 0.577910 0.727468
Si Si4 0.980317 0.929133 0.107645
Si Si5 0.444646 0.876530 0.553762
Si Si6 0.362035 0.692279 0.432444
O O1 0.113049 0.528353 0.332832
O O2 0.167280 0.753720 0.241605
O O3 0.267940 0.520648 0.244577
O O4 0.269166 0.679169 0.373807
O O5 0.948319 0.720100 0.612878
O O6 0.000000 0.636042 0.750000
O O7 0.067363 0.478028 0.631221
O O8 0.410927 0.543146 0.643277
O O9 0.424750 0.556271 0.807614
O O10 0.986999 0.763683 0.074516
O O11 0.914864 0.035896 0.052272
O O12 0.353602 0.798866 0.509301
O O13 0.500000 0.000000 0.500000
#
# Coordination Sequence:
#
# PCOD9455384 Si02
#       6
#     8   8   8   8   8   8
#     4  11  20  37  58  93 125 161 205 256 317 363
#     4  11  22  38  66  90 123 166 214 260 311 377
#     4  10  21  34  64  91 123 156 209 257 307 369
#     4  10  20  38  62  92 119 163 207 255 307 369
#     4  10  21  39  62  90 119 164 207 251 312 376
#     4  10  23  37  63  91 128 163 209 259 313 384
#
# _framework density 22.916961000000001
#
# number of rings (size 3 to 8) (size 9 to 14) (size 15 to 20)
#    0.000    1.667    3.333    1.500    4.667    0.000 
#    0.000    0.000   25.667    0.000    0.000    0.000 
#    0.000    0.000    0.000    0.000    0.000    0.000 
#
# Total GULP energy -267381.568586 kJ/mol
# GULP energy per Si atom -5570.449346 kJ/mol
# Density = 2.286480 g / cm^3
# Si number density = 22.916961 Si / 1000 Ang^3
#
#
#
# Elastic Constant Matrix: (Units=GPa)
#
#
# Indices 1 2 3 4 5 6 
#
# 1 40.4268 -5.2164 3.2583 0.0000 0.0000 0.0000
# 2 -5.2164 43.9506 -13.9944 0.0000 0.0000 0.0000
# 3 3.2583 -13.9944 37.6902 0.0000 0.0000 0.0000
# 4 0.0000 0.0000 0.0000 33.4640 0.0000 0.0000
# 5 0.0000 0.0000 0.0000 0.0000 27.7480 0.0000
# 6 0.0000 0.0000 0.0000 0.0000 0.0000 34.4882
#
#
#
# Elastic Compliance Matrix: (Units=1/GPa)
#
#
# Indices 1 2 3 4 5 6 
#
# 1 0.025169 0.002602 -0.001210 0.000000 0.000000 0.000000
# 2 0.002602 0.026072 0.009456 0.000000 0.000000 0.000000
# 3 -0.001210 0.009456 0.030148 0.000000 0.000000 0.000000
# 4 0.000000 0.000000 0.000000 0.029883 0.000000 0.000000
# 5 0.000000 0.000000 0.000000 0.000000 0.036039 0.000000
# 6 0.000000 0.000000 0.000000 0.000000 0.000000 0.028995
#
#
# Mechanical properties :
#
#
# Convention : Reuss Voigt Hill
#
# Bulk Modulus (GPa) = 9.70067 10.01808 9.85938
# Shear Modulus (GPa) = 26.45894 28.34136 27.40015
#
# Velocity S-wave (km/s) = 3.40156 3.52049 3.46154
# Velocity P-wave (km/s) = 4.43505 4.57232 4.50421
#
# Compressibility (1/GPa) = 0.10308562
#
# Stress axis : x y z
#
# Youngs Moduli (GPa) = 39.73089 38.35467 33.17014
#
# Poissons Ratio (x) = -0.09980 0.04013
# Poissons Ratio (y) = -0.10338 -0.31365
# Poissons Ratio (z) = 0.04806 -0.36267
#
# Static dielectric constant tensor:
#      x y z
#    x 1.901100 0.000000 0.000000 
#    y 0.000000 1.816450 0.000000 
#    z 0.000000 0.000000 2.089510 
# 
# From -- ./inp_files/20803.got.cif
#   From: 2010.05.17/outbox.cif.g08.bks.cpg/sg60_11_cif.got.tgz:20803.got - 2010.06.03 14:59:27.
