data_PCOD9455642
_publ_section_title
;
Structure prediction by ZEFSAII (Michael W. Deem and Ramdas Pophale) SiO2 
 PCOD9455642
Probable space group: P B C N
;
_chemical_formula_sum "Si O2"
_cell_formula_units_Z 40
_cell_length_a 10.103942
_cell_length_b 12.282864
_cell_length_c 14.667711
_cell_angle_alpha 90.000000
_cell_angle_beta 90.000000
_cell_angle_gamma 90.000000
_cell_volume 1820.341341
_symmetry_space_group_name_H-M "P B C N"
_symmetry_group_IT_number 60
_symmetry_cell_setting 'orthorhombic'
loop_
_space_group_symop_operation_xyz
x,y,z
1/2-x,1/2-y,1/2+z
1/2+x,1/2-y,-z
-x,y,1/2-z
-x,-y,-z
1/2+x,1/2+y,1/2-z
1/2-x,1/2+y,z
x,-y,1/2+z
loop_
_atom_site_type_symbol
_atom_site_label
_atom_site_fract_x
_atom_site_fract_y
_atom_site_fract_z
Si Si1 0.996261 0.697232 0.491487
Si Si2 0.606576 0.097237 0.191345
Si Si3 0.649785 0.333279 0.235420
Si Si4 0.775510 0.869900 0.433193
Si Si5 0.737490 0.940268 0.070500
O O1 0.904089 0.802549 0.470149
O O2 0.901520 0.616422 0.548313
O O3 0.026753 0.640566 0.395716
O O4 0.141535 0.696718 0.538805
O O5 0.500000 0.032087 0.250000
O O6 0.655521 0.202344 0.245466
O O7 0.723602 0.028535 0.151043
O O8 0.500000 0.369740 0.250000
O O9 0.724895 0.379852 0.323570
O O10 0.680686 0.352755 0.128431
O O11 0.777936 0.988092 0.483135
#
# Coordination Sequence:
#
# PCOD9455642 Si02
#       5
#     8   8   8   8   8
#     4  11  23  44  68  97 133 174 225 276 331 398
#     4  10  20  41  63  89 131 171 207 273 333 381
#     4  11  24  45  64  98 139 176 215 281 340 381
#     4  11  24  44  70  96 136 180 216 276 340 389
#     4  11  25  39  68 101 128 171 233 265 324 411
#
# _framework density 21.973901000000001
#
# number of rings (size 3 to 8) (size 9 to 14) (size 15 to 20)
#    0.000    1.200    4.000    4.800    5.600    0.800 
#    3.600    0.000    0.000    0.000    0.000    0.000 
#    0.000    0.000    0.000    0.000    0.000    0.000 
#
# Total GULP energy -222837.298955 kJ/mol
# GULP energy per Si atom -5570.932474 kJ/mol
# Density = 2.192389 g / cm^3
# Si number density = 21.973901 Si / 1000 Ang^3
#
#
#
# Elastic Constant Matrix: (Units=GPa)
#
#
# Indices 1 2 3 4 5 6 
#
# 1 82.5968 14.2504 23.5411 0.0000 0.0000 0.0000
# 2 14.2504 31.2248 15.8152 0.0000 0.0000 0.0000
# 3 23.5411 15.8152 106.4653 0.0000 0.0000 0.0000
# 4 0.0000 0.0000 0.0000 39.3886 0.0000 0.0000
# 5 0.0000 0.0000 0.0000 0.0000 37.8320 0.0000
# 6 0.0000 0.0000 0.0000 0.0000 0.0000 -0.0203
#
#
#
# Elastic Compliance Matrix: (Units=1/GPa)
#
#
# Indices 1 2 3 4 5 6 
#
# 1 0.013626 -0.005075 -0.002259 0.000000 0.000000 0.000000
# 2 -0.005075 0.036521 -0.004303 0.000000 0.000000 0.000000
# 3 -0.002259 -0.004303 0.010531 0.000000 0.000000 0.000000
# 4 0.000000 0.000000 0.000000 0.025388 0.000000 0.000000
# 5 0.000000 0.000000 0.000000 0.000000 0.026433 0.000000
# 6 0.000000 0.000000 0.000000 0.000000 0.000000-49.141547
#
#
# Mechanical properties :
#
#
# Convention : Reuss Voigt Hill
#
# Bulk Modulus (GPa) = 26.73404 36.38890 31.56147
# Shear Modulus (GPa) = -0.10205 26.55207 13.22501
#
# Velocity S-wave (km/s) = -0.21574 3.47990 2.45593
# Velocity P-wave (km/s) = 3.48290 5.72209 4.73671
#
# Compressibility (1/GPa) = 0.03740550
#
# Stress axis : x y z
#
# Youngs Moduli (GPa) = 73.38691 27.38129 94.95337
#
# Poissons Ratio (x) = 0.13895 0.21452
# Poissons Ratio (y) = 0.37241 0.40859
# Poissons Ratio (z) = 0.16579 0.11782
#
# Static dielectric constant tensor:
#      x y z
#    x 1.914740 0.000000 0.000000 
#    y 0.000000 1.943980 0.000000 
#    z 0.000000 0.000000 1.797730 
# 
# From -- ./inp_files/14688.got.cif
#   From: 2010.05.17/outbox.cif.g08.bks.cpg/sg60_8_cif.got.tgz:14688.got - 2010.06.03 14:59:27.
