data_PCOD9455058
_publ_section_title
;
Structure prediction by ZEFSAII (Michael W. Deem and Ramdas Pophale) SiO2 
 PCOD9455058
Probable space group: P B C N
;
_chemical_formula_sum "Si O2"
_cell_formula_units_Z 36
_cell_length_a 9.216067
_cell_length_b 8.495288
_cell_length_c 20.202222
_cell_angle_alpha 90.000000
_cell_angle_beta 90.000000
_cell_angle_gamma 90.000000
_cell_volume 1581.695464
_symmetry_space_group_name_H-M "P B C N"
_symmetry_group_IT_number 60
_symmetry_cell_setting 'orthorhombic'
loop_
_space_group_symop_operation_xyz
x,y,z
1/2-x,1/2-y,1/2+z
1/2+x,1/2-y,-z
-x,y,1/2-z
-x,-y,-z
1/2+x,1/2+y,1/2-z
1/2-x,1/2+y,z
x,-y,1/2+z
loop_
_atom_site_type_symbol
_atom_site_label
_atom_site_fract_x
_atom_site_fract_y
_atom_site_fract_z
Si Si1 0.075233 0.396013 0.912280
Si Si2 0.691811 0.908446 0.440430
Si Si3 0.935316 0.907145 0.889141
Si Si4 0.693228 0.221611 0.643212
Si Si5 0.000000 0.859717 0.750000
O O1 0.138322 0.255814 0.867875
O O2 0.148333 0.551998 0.881573
O O3 0.907593 0.443544 0.917007
O O4 0.134132 0.370209 0.986420
O O5 0.651264 0.757824 0.396868
O O6 0.857128 0.964323 0.433834
O O7 0.934146 0.953708 0.811710
O O8 0.099765 0.848024 0.901007
O O9 0.625817 0.255856 0.715211
#
# Coordination Sequence:
#
# PCOD9455058 Si02
#       5
#     8   8   8   8   4
#     4  10  20  35  58  86 109 138 181 227 278 322
#     4  10  20  35  58  86 109 138 181 227 278 322
#     4   9  20  37  54  77 112 143 178 226 267 322
#     4   9  20  37  54  77 112 143 178 226 267 322
#     4   8  20  40  50  74 112 148 182 220 268 316
#
# _framework density 22.760387999999999
#
# number of rings (size 3 to 8) (size 9 to 14) (size 15 to 20)
#    1.333    1.333    0.000    1.333    0.000    4.444 
#    0.000    0.000    0.000    0.000    0.000    0.000 
#    0.000    0.000    0.000    0.000    0.000    0.000 
#
# Total GULP energy -200524.521762 kJ/mol
# GULP energy per Si atom -5570.125605 kJ/mol
# Density = 2.270858 g / cm^3
# Si number density = 22.760388 Si / 1000 Ang^3
#
#
#
# Elastic Constant Matrix: (Units=GPa)
#
#
# Indices 1 2 3 4 5 6 
#
# 1 55.1004 16.3207 9.4845 0.0000 0.0000 0.0000
# 2 16.3207 19.1468 14.5964 0.0000 0.0000 0.0000
# 3 9.4845 14.5964 69.2775 0.0000 0.0000 0.0000
# 4 0.0000 0.0000 0.0000 7.1660 0.0000 0.0000
# 5 0.0000 0.0000 0.0000 0.0000 29.0028 0.0000
# 6 0.0000 0.0000 0.0000 0.0000 0.0000 36.3719
#
#
#
# Elastic Compliance Matrix: (Units=1/GPa)
#
#
# Indices 1 2 3 4 5 6 
#
# 1 0.024367 -0.021715 0.001239 0.000000 0.000000 0.000000
# 2 -0.021715 0.081574 -0.014214 0.000000 0.000000 0.000000
# 3 0.001239 -0.014214 0.017260 0.000000 0.000000 0.000000
# 4 0.000000 0.000000 0.000000 0.139547 0.000000 0.000000
# 5 0.000000 0.000000 0.000000 0.000000 0.034479 0.000000
# 6 0.000000 0.000000 0.000000 0.000000 0.000000 0.027494
#
#
# Mechanical properties :
#
#
# Convention : Reuss Voigt Hill
#
# Bulk Modulus (GPa) = 18.58023 24.92533 21.75278
# Shear Modulus (GPa) = 12.13466 21.38304 16.75885
#
# Velocity S-wave (km/s) = 2.31151 3.06843 2.71646
# Velocity P-wave (km/s) = 3.91219 4.85063 4.40646
#
# Compressibility (1/GPa) = 0.05382066
#
# Stress axis : x y z
#
# Youngs Moduli (GPa) = 41.03835 12.25877 57.93775
#
# Poissons Ratio (x) = 0.26621 -0.07180
# Poissons Ratio (y) = 0.89117 0.82354
# Poissons Ratio (z) = -0.05086 0.17425
#
# Static dielectric constant tensor:
#      x y z
#    x 1.861070 0.000000 0.000000 
#    y 0.000000 1.843170 0.000000 
#    z 0.000000 0.000000 1.841650 
# 
# From -- ./inp_files/22517.got.cif
#   From: 2010.05.17/outbox.cif.g08.bks.cpg/sg60_12_cif.got.tgz:22517.got - 2010.06.03 14:59:27.
