data_PCOD9455878
_publ_section_title
;
Structure prediction by ZEFSAII (Michael W. Deem and Ramdas Pophale) SiO2 
 PCOD9455878
Probable space group: P B C N
;
_chemical_formula_sum "Si O2"
_cell_formula_units_Z 48
_cell_length_a 5.236347
_cell_length_b 30.884199
_cell_length_c 14.055693
_cell_angle_alpha 90.000000
_cell_angle_beta 90.000000
_cell_angle_gamma 90.000000
_cell_volume 2273.092052
_symmetry_space_group_name_H-M "P B C N"
_symmetry_group_IT_number 60
_symmetry_cell_setting 'orthorhombic'
loop_
_space_group_symop_operation_xyz
x,y,z
1/2-x,1/2-y,1/2+z
1/2+x,1/2-y,-z
-x,y,1/2-z
-x,-y,-z
1/2+x,1/2+y,1/2-z
1/2-x,1/2+y,z
x,-y,1/2+z
loop_
_atom_site_type_symbol
_atom_site_label
_atom_site_fract_x
_atom_site_fract_y
_atom_site_fract_z
Si Si1 0.565209 0.572709 0.045769
Si Si2 0.472885 0.482741 0.364039
Si Si3 0.978099 0.274876 0.032046
Si Si4 0.000000 0.141870 0.750000
Si Si5 0.539455 0.126966 0.473284
Si Si6 0.131204 0.415592 0.349567
Si Si7 0.000000 0.699463 0.750000
O O1 0.617405 0.545229 0.946499
O O2 0.313325 0.603490 0.042152
O O3 0.806487 0.602078 0.077727
O O4 0.505535 0.533141 0.116490
O O5 0.500000 0.474769 0.250000
O O6 0.190313 0.463512 0.385162
O O7 0.948875 0.321332 0.978054
O O8 0.954400 0.277944 0.147415
O O9 0.753583 0.244259 0.993800
O O10 0.897146 0.110277 0.667623
O O11 0.756170 0.171690 0.767969
O O12 0.475911 0.114503 0.581881
O O13 0.000000 0.419084 0.250000
#
# Coordination Sequence:
#
# PCOD9455878 Si02
#       7
#     8   8   8   4   8   8   4
#     4  10  24  40  59  92 128 171 210 265 317 371
#     4  10  21  36  61  89 129 171 220 261 306 372
#     4  12  26  44  73 103 132 170 215 276 341 403
#     4  12  20  36  60 102 129 168 205 280 344 396
#     4  11  23  41  64  87 131 161 208 266 327 387
#     4  11  21  32  62  97 130 159 211 267 337 378
#     4  12  26  42  70 102 137 162 219 266 348 418
#
# _framework density 21.116610999999999
#
# number of rings (size 3 to 8) (size 9 to 14) (size 15 to 20)
#    0.000    1.000    3.333    3.000    7.000    7.333 
#    0.000    0.000   11.000    0.000    0.000    0.000 
#    0.000    0.000    0.000    0.000    0.000    0.000 
#
# Total GULP energy -267237.785871 kJ/mol
# GULP energy per Si atom -5567.453872 kJ/mol
# Density = 2.106855 g / cm^3
# Si number density = 21.116611 Si / 1000 Ang^3
#
#
#
# Elastic Constant Matrix: (Units=GPa)
#
#
# Indices 1 2 3 4 5 6 
#
# 1 91.8244 8.1257 -1.7563 0.0000 0.0000 0.0000
# 2 8.1257 92.2032 3.4746 0.0000 0.0000 0.0000
# 3 -1.7563 3.4746 53.2408 0.0000 0.0000 0.0000
# 4 0.0000 0.0000 0.0000 15.9348 0.0000 0.0000
# 5 0.0000 0.0000 0.0000 0.0000 18.7393 0.0000
# 6 0.0000 0.0000 0.0000 0.0000 0.0000 35.6237
#
#
#
# Elastic Compliance Matrix: (Units=1/GPa)
#
#
# Indices 1 2 3 4 5 6 
#
# 1 0.010986 -0.000984 0.000427 0.000000 0.000000 0.000000
# 2 -0.000984 0.010961 -0.000748 0.000000 0.000000 0.000000
# 3 0.000427 -0.000748 0.018845 0.000000 0.000000 0.000000
# 4 0.000000 0.000000 0.000000 0.062756 0.000000 0.000000
# 5 0.000000 0.000000 0.000000 0.000000 0.053364 0.000000
# 6 0.000000 0.000000 0.000000 0.000000 0.000000 0.028071
#
#
# Mechanical properties :
#
#
# Convention : Reuss Voigt Hill
#
# Bulk Modulus (GPa) = 26.19112 28.55070 27.37091
# Shear Modulus (GPa) = 24.96009 29.22120 27.09064
#
# Velocity S-wave (km/s) = 3.44177 3.72398 3.58565
# Velocity P-wave (km/s) = 5.31266 5.66044 5.48931
#
# Compressibility (1/GPa) = 0.03818088
#
# Stress axis : x y z
#
# Youngs Moduli (GPa) = 91.02814 91.23645 53.06314
#
# Poissons Ratio (x) = 0.08980 -0.02264
# Poissons Ratio (y) = 0.08959 0.03968
# Poissons Ratio (z) = -0.03884 0.06822
#
# Static dielectric constant tensor:
#      x y z
#    x 1.839440 0.000000 0.000000 
#    y 0.000000 1.796280 0.000000 
#    z 0.000000 0.000000 1.847710 
# 
# From -- ./inp_files/13966.got.cif
#   From: 2010.05.17/outbox.cif.g08.bks.cpg/sg60_7_cif.got.tgz:13966.got - 2010.06.03 14:59:27.
