data_PCOD9455714
_publ_section_title
;
Structure prediction by ZEFSAII (Michael W. Deem and Ramdas Pophale) SiO2 
 PCOD9455714
Probable space group: P B C N
;
_chemical_formula_sum "Si O2"
_cell_formula_units_Z 64
_cell_length_a 12.841505
_cell_length_b 12.399889
_cell_length_c 19.336170
_cell_angle_alpha 90.000000
_cell_angle_beta 90.000000
_cell_angle_gamma 90.000000
_cell_volume 3078.960932
_symmetry_space_group_name_H-M "P B C N"
_symmetry_group_IT_number 60
_symmetry_cell_setting 'orthorhombic'
loop_
_space_group_symop_operation_xyz
x,y,z
1/2-x,1/2-y,1/2+z
1/2+x,1/2-y,-z
-x,y,1/2-z
-x,-y,-z
1/2+x,1/2+y,1/2-z
1/2-x,1/2+y,z
x,-y,1/2+z
loop_
_atom_site_type_symbol
_atom_site_label
_atom_site_fract_x
_atom_site_fract_y
_atom_site_fract_z
Si Si1 0.130435 0.064287 0.623272
Si Si2 0.805519 0.046546 0.508184
Si Si3 0.535067 0.715988 0.449668
Si Si4 0.182037 0.880805 0.729114
Si Si5 0.339000 0.834827 0.167993
Si Si6 0.083296 0.026933 0.365738
Si Si7 0.090199 0.574724 0.196523
Si Si8 0.569511 0.096915 0.466903
O O1 0.215387 0.147407 0.652600
O O2 0.152997 0.048196 0.542442
O O3 0.160490 0.950363 0.660047
O O4 0.007015 0.065041 0.636458
O O5 0.882620 0.145354 0.492521
O O6 0.688632 0.072590 0.487212
O O7 0.822297 0.012194 0.586610
O O8 0.601835 0.794709 0.400288
O O9 0.467717 0.631403 0.403849
O O10 0.466627 0.791540 0.498710
O O11 0.142510 0.759872 0.722328
O O12 0.125787 0.941218 0.791233
O O13 0.305939 0.874888 0.729259
O O14 0.385014 0.947182 0.192531
O O15 0.065853 0.604656 0.116717
O O16 0.000000 0.598054 0.250000
O O17 0.500000 0.000000 0.500000
#
# Coordination Sequence:
#
# PCOD9455714 Si02
#       8
#     8   8   8   8   8   8   8   8
#     4  10  20  42  68  95 129 181 219 278 342 393
#     4  11  23  44  64 101 139 172 226 283 339 395
#     4  11  23  41  72 100 129 182 232 276 339 411
#     4  11  23  43  67  99 135 176 225 275 340 407
#     4  11  21  41  74  96 127 179 230 272 340 414
#     4  11  25  40  69 102 137 178 231 287 329 409
#     4  11  26  45  68  96 142 177 220 283 348 402
#     4  12  24  44  70 102 135 182 222 284 345 401
#
# _framework density 20.786232999999999
#
# number of rings (size 3 to 8) (size 9 to 14) (size 15 to 20)
#    0.000    1.000    6.250    1.875    3.500    5.000 
#    2.250    2.500    0.000    0.000    0.000    0.000 
#    0.000    0.000    0.000    0.000    0.000    0.000 
#
# Total GULP energy -357598.164946 kJ/mol
# GULP energy per Si atom -5587.471327 kJ/mol
# Density = 2.073892 g / cm^3
# Si number density = 20.786233 Si / 1000 Ang^3
#
#
#
# Elastic Constant Matrix: (Units=GPa)
#
#
# Indices 1 2 3 4 5 6 
#
# 1 109.4670 11.6672 64.5020 0.0000 0.0000 0.0000
# 2 11.6672 34.9184 1.0420 0.0000 0.0000 0.0000
# 3 64.5020 1.0420 83.5082 0.0000 0.0000 0.0000
# 4 0.0000 0.0000 0.0000 22.6453 0.0000 0.0000
# 5 0.0000 0.0000 0.0000 0.0000 38.3928 0.0000
# 6 0.0000 0.0000 0.0000 0.0000 0.0000 20.0793
#
#
#
# Elastic Compliance Matrix: (Units=1/GPa)
#
#
# Indices 1 2 3 4 5 6 
#
# 1 0.017773 -0.005531 -0.013659 0.000000 0.000000 0.000000
# 2 -0.005531 0.030370 0.003893 0.000000 0.000000 0.000000
# 3 -0.013659 0.003893 0.022476 0.000000 0.000000 0.000000
# 4 0.000000 0.000000 0.000000 0.044159 0.000000 0.000000
# 5 0.000000 0.000000 0.000000 0.000000 0.026047 0.000000
# 6 0.000000 0.000000 0.000000 0.000000 0.000000 0.049803
#
#
# Mechanical properties :
#
#
# Convention : Reuss Voigt Hill
#
# Bulk Modulus (GPa) = 24.98368 42.47959 33.73163
# Shear Modulus (GPa) = 21.31621 26.26898 23.79260
#
# Velocity S-wave (km/s) = 3.20581 3.55881 3.38691
# Velocity P-wave (km/s) = 5.07429 6.11290 5.61765
#
# Compressibility (1/GPa) = 0.04002613
#
# Stress axis : x y z
#
# Youngs Moduli (GPa) = 56.26508 32.92721 44.49093
#
# Poissons Ratio (x) = 0.18212 0.60770
# Poissons Ratio (y) = 0.31119 -0.17321
# Poissons Ratio (z) = 0.76852 -0.12819
#
# Static dielectric constant tensor:
#      x y z
#    x 1.782090 0.000000 0.000000 
#    y 0.000000 1.748550 0.000000 
#    z 0.000000 0.000000 1.719810 
# 
# From -- ./inp_files/20215.got.cif
#   From: 2010.05.17/outbox.cif.g08.bks.cpg/sg60_11_cif.got.tgz:20215.got - 2010.06.03 14:59:27.
