data_PCOD9455268
_publ_section_title
;
Structure prediction by ZEFSAII (Michael W. Deem and Ramdas Pophale) SiO2 
 PCOD9455268
Probable space group: P B C N
;
_chemical_formula_sum "Si O2"
_cell_formula_units_Z 36
_cell_length_a 5.746335
_cell_length_b 17.570946
_cell_length_c 13.074723
_cell_angle_alpha 90.000000
_cell_angle_beta 90.000000
_cell_angle_gamma 90.000000
_cell_volume 1320.135718
_symmetry_space_group_name_H-M "P B C N"
_symmetry_group_IT_number 60
_symmetry_cell_setting 'orthorhombic'
loop_
_space_group_symop_operation_xyz
x,y,z
1/2-x,1/2-y,1/2+z
1/2+x,1/2-y,-z
-x,y,1/2-z
-x,-y,-z
1/2+x,1/2+y,1/2-z
1/2-x,1/2+y,z
x,-y,1/2+z
loop_
_atom_site_type_symbol
_atom_site_label
_atom_site_fract_x
_atom_site_fract_y
_atom_site_fract_z
Si Si1 0.317959 0.617517 0.642460
Si Si2 0.500000 0.241924 0.750000
Si Si3 0.588227 0.958792 0.851419
Si Si4 0.289438 0.715034 0.462229
Si Si5 0.193494 0.943345 0.457305
O O1 0.188871 0.685757 0.697650
O O2 0.244153 0.533087 0.677107
O O3 0.260667 0.635371 0.522603
O O4 0.596485 0.611955 0.630149
O O5 0.632069 0.285679 0.657049
O O6 0.500000 0.918710 0.750000
O O7 0.381028 0.003853 0.904928
O O8 0.710596 0.907883 0.937313
O O9 0.530246 0.748726 0.516508
O O10 0.000000 0.000000 0.500000
#
# Coordination Sequence:
#
# PCOD9455268 Si02
#       5
#     8   4   8   8   8
#     4  10  21  38  64  89 124 171 214 274 331 395
#     4  10  22  42  62  98 122 174 226 270 342 402
#     4  10  20  37  61  95 123 165 221 263 325 405
#     4  10  24  40  61  93 132 163 218 282 326 398
#     4   9  21  37  58  91 127 160 210 273 322 386
#
# _framework density 27.269921
#
# number of rings (size 3 to 8) (size 9 to 14) (size 15 to 20)
#    0.000    2.222    1.111    0.000    6.222    8.889 
#    0.000    6.667    0.000    0.000    0.000    0.000 
#    0.000    0.000    0.000    0.000    0.000    0.000 
#
# Total GULP energy -200760.367912 kJ/mol
# GULP energy per Si atom -5576.676886 kJ/mol
# Density = 2.720785 g / cm^3
# Si number density = 27.269921 Si / 1000 Ang^3
#
#
#
# Elastic Constant Matrix: (Units=GPa)
#
#
# Indices 1 2 3 4 5 6 
#
# 1 97.2237 22.8645 81.6125 0.0000 0.0000 0.0000
# 2 22.8645 70.7770 15.2584 0.0000 0.0000 0.0000
# 3 81.6125 15.2584 174.9156 0.0000 0.0000 0.0000
# 4 0.0000 0.0000 0.0000 39.0881 0.0000 0.0000
# 5 0.0000 0.0000 0.0000 0.0000 56.0168 0.0000
# 6 0.0000 0.0000 0.0000 0.0000 0.0000 39.4105
#
#
#
# Elastic Compliance Matrix: (Units=1/GPa)
#
#
# Indices 1 2 3 4 5 6 
#
# 1 0.017994 -0.004080 -0.008040 0.000000 0.000000 0.000000
# 2 -0.004080 0.015325 0.000567 0.000000 0.000000 0.000000
# 3 -0.008040 0.000567 0.009419 0.000000 0.000000 0.000000
# 4 0.000000 0.000000 0.000000 0.025583 0.000000 0.000000
# 5 0.000000 0.000000 0.000000 0.000000 0.017852 0.000000
# 6 0.000000 0.000000 0.000000 0.000000 0.000000 0.025374
#
#
# Mechanical properties :
#
#
# Convention : Reuss Voigt Hill
#
# Bulk Modulus (GPa) = 50.93760 64.70970 57.82365
# Shear Modulus (GPa) = 35.41194 41.78181 38.59687
#
# Velocity S-wave (km/s) = 3.60748 3.91852 3.76621
# Velocity P-wave (km/s) = 6.00595 6.65236 6.33741
#
# Compressibility (1/GPa) = 0.01963186
#
# Stress axis : x y z
#
# Youngs Moduli (GPa) = 55.57494 65.25443 106.17088
#
# Poissons Ratio (x) = 0.26621 0.85358
# Poissons Ratio (y) = 0.22672 -0.06016
# Poissons Ratio (z) = 0.44680 -0.03698
#
# Static dielectric constant tensor:
#      x y z
#    x 2.362590 0.000000 0.000000 
#    y 0.000000 2.133520 0.000000 
#    z 0.000000 0.000000 2.377100 
# 
# From -- ./inp_files/13707.got.cif
#   From: 2010.05.17/outbox.cif.g08.bks.cpg/sg60_7_cif.got.tgz:13707.got - 2010.06.03 14:59:27.
