data_PCOD9455736
_publ_section_title
;
Structure prediction by ZEFSAII (Michael W. Deem and Ramdas Pophale) SiO2 
 PCOD9455736
Probable space group: P B C N
;
_chemical_formula_sum "Si O2"
_cell_formula_units_Z 36
_cell_length_a 5.094283
_cell_length_b 18.246760
_cell_length_c 14.564685
_cell_angle_alpha 90.000000
_cell_angle_beta 90.000000
_cell_angle_gamma 90.000000
_cell_volume 1353.848049
_symmetry_space_group_name_H-M "P B C N"
_symmetry_group_IT_number 60
_symmetry_cell_setting 'orthorhombic'
loop_
_space_group_symop_operation_xyz
x,y,z
1/2-x,1/2-y,1/2+z
1/2+x,1/2-y,-z
-x,y,1/2-z
-x,-y,-z
1/2+x,1/2+y,1/2-z
1/2-x,1/2+y,z
x,-y,1/2+z
loop_
_atom_site_type_symbol
_atom_site_label
_atom_site_fract_x
_atom_site_fract_y
_atom_site_fract_z
Si Si1 0.023110 0.086722 0.484186
Si Si2 0.839133 0.111635 0.661235
Si Si3 0.236480 0.452169 0.811543
Si Si4 0.734543 0.219639 0.441807
Si Si5 0.000000 0.734599 0.750000
O O1 0.065509 0.118250 0.584666
O O2 0.763166 0.131675 0.458170
O O3 0.213022 0.097257 0.399777
O O4 0.000000 0.000000 0.500000
O O5 0.675771 0.182672 0.684685
O O6 0.000000 0.095923 0.750000
O O7 0.678803 0.035407 0.651442
O O8 0.500000 0.448957 0.750000
O O9 0.000000 0.427743 0.750000
O O10 0.466488 0.245335 0.492656
O O11 0.811370 0.230227 0.331840
#
# Coordination Sequence:
#
# PCOD9455736 Si02
#       5
#     8   8   8   8   4
#     4  10  23  47  73 109 153 200 254 320 392 468
#     4  10  20  43  69 103 137 197 250 304 374 460
#     4  10  22  41  67 103 146 188 245 304 376 449
#     4  12  28  49  75 111 148 197 258 316 386 465
#     4  12  24  42  80  96 158 188 258 308 394 448
#
# _framework density 26.590869999999999
#
# number of rings (size 3 to 8) (size 9 to 14) (size 15 to 20)
#    0.000    1.333    3.333    1.333    1.556    1.778 
#    4.000    5.556    0.000    0.000    0.000    0.000 
#    0.000    0.000    0.000    0.000    0.000    0.000 
#
# Total GULP energy -200714.010319 kJ/mol
# GULP energy per Si atom -5575.389176 kJ/mol
# Density = 2.653035 g / cm^3
# Si number density = 26.590870 Si / 1000 Ang^3
#
#
#
# Elastic Constant Matrix: (Units=GPa)
#
#
# Indices 1 2 3 4 5 6 
#
# 1 136.1371 19.7190 53.4934 0.0000 0.0000 0.0000
# 2 19.7190 88.7200 22.2672 0.0000 0.0000 0.0000
# 3 53.4934 22.2672 222.8981 0.0000 0.0000 0.0000
# 4 0.0000 0.0000 0.0000 32.4611 0.0000 0.0000
# 5 0.0000 0.0000 0.0000 0.0000 51.1816 0.0000
# 6 0.0000 0.0000 0.0000 0.0000 0.0000 23.8106
#
#
#
# Elastic Compliance Matrix: (Units=1/GPa)
#
#
# Indices 1 2 3 4 5 6 
#
# 1 0.008271 -0.001375 -0.001848 0.000000 0.000000 0.000000
# 2 -0.001375 0.011790 -0.000848 0.000000 0.000000 0.000000
# 3 -0.001848 -0.000848 0.005014 0.000000 0.000000 0.000000
# 4 0.000000 0.000000 0.000000 0.030806 0.000000 0.000000
# 5 0.000000 0.000000 0.000000 0.000000 0.019538 0.000000
# 6 0.000000 0.000000 0.000000 0.000000 0.000000 0.041998
#
#
# Mechanical properties :
#
#
# Convention : Reuss Voigt Hill
#
# Bulk Modulus (GPa) = 59.04996 70.96829 65.00912
# Shear Modulus (GPa) = 38.10914 44.97570 41.54242
#
# Velocity S-wave (km/s) = 3.78983 4.11712 3.95686
# Velocity P-wave (km/s) = 6.43471 7.02480 6.73622
#
# Compressibility (1/GPa) = 0.01693481
#
# Stress axis : x y z
#
# Youngs Moduli (GPa) = 120.91015 84.81964 199.42345
#
# Poissons Ratio (x) = 0.11659 0.36845
# Poissons Ratio (y) = 0.16619 0.16909
# Poissons Ratio (z) = 0.22339 0.07192
#
# Static dielectric constant tensor:
#      x y z
#    x 1.992940 0.000000 0.000000 
#    y 0.000000 2.308850 0.000000 
#    z 0.000000 0.000000 2.170400 
# 
# From -- ./inp_files/13750.got.cif
#   From: 2010.05.17/outbox.cif.g08.bks.cpg/sg60_7_cif.got.tgz:13750.got - 2010.06.03 14:59:27.
