data_PCOD9455202
_publ_section_title
;
Structure prediction by ZEFSAII (Michael W. Deem and Ramdas Pophale) SiO2 
 PCOD9455202
Probable space group: P B C N
;
_chemical_formula_sum "Si O2"
_cell_formula_units_Z 44
_cell_length_a 5.107414
_cell_length_b 23.809160
_cell_length_c 15.833322
_cell_angle_alpha 90.000000
_cell_angle_beta 90.000000
_cell_angle_gamma 90.000000
_cell_volume 1925.383209
_symmetry_space_group_name_H-M "P B C N"
_symmetry_group_IT_number 60
_symmetry_cell_setting 'orthorhombic'
loop_
_space_group_symop_operation_xyz
x,y,z
1/2-x,1/2-y,1/2+z
1/2+x,1/2-y,-z
-x,y,1/2-z
-x,-y,-z
1/2+x,1/2+y,1/2-z
1/2-x,1/2+y,z
x,-y,1/2+z
loop_
_atom_site_type_symbol
_atom_site_label
_atom_site_fract_x
_atom_site_fract_y
_atom_site_fract_z
Si Si1 0.917992 0.714691 0.984680
Si Si2 0.797121 0.939634 0.092927
Si Si3 0.610079 0.339860 0.333692
Si Si4 0.506865 0.095410 0.069908
Si Si5 0.473020 0.543551 0.149927
Si Si6 0.000000 0.428194 0.250000
O O1 0.788022 0.695742 0.896206
O O2 0.694444 0.754102 0.025662
O O3 0.963206 0.659744 0.041492
O O4 0.627108 0.960232 0.172961
O O5 0.899813 0.876420 0.112595
O O6 0.033419 0.983960 0.098996
O O7 0.611798 0.935900 0.012731
O O8 0.500000 0.309025 0.250000
O O9 0.785143 0.388228 0.291327
O O10 0.783661 0.074291 0.104304
O O11 0.282211 0.081636 0.136957
O O12 0.500000 0.534744 0.250000
#
# Coordination Sequence:
#
# PCOD9455202 Si02
#       6
#     8   8   8   8   8   4
#     4  12  26  48  75 100 134 187 243 301 366 417
#     4  11  23  41  71 109 145 186 236 284 364 421
#     4  10  22  41  69 108 142 175 231 311 360 421
#     4  12  26  47  72 104 142 186 243 298 346 425
#     4  12  27  45  71 104 153 198 231 271 347 435
#     4  10  20  36  72 100 150 172 228 304 364 400
#
# _framework density 22.852594
#
# number of rings (size 3 to 8) (size 9 to 14) (size 15 to 20)
#    0.000    0.727    1.818    6.545    7.636    0.000 
#    0.000    3.636    2.000    0.000    0.000    0.000 
#    0.000    0.000    0.000    0.000    0.000    0.000 
#
# Total GULP energy -246137.711004 kJ/mol
# GULP energy per Si atom -5594.038886 kJ/mol
# Density = 2.280058 g / cm^3
# Si number density = 22.852594 Si / 1000 Ang^3
#
#
#
# Elastic Constant Matrix: (Units=GPa)
#
#
# Indices 1 2 3 4 5 6 
#
# 1 94.9613 26.3544 9.2468 0.0000 0.0000 0.0000
# 2 26.3544 106.3576 28.9599 0.0000 0.0000 0.0000
# 3 9.2468 28.9599 86.4534 0.0000 0.0000 0.0000
# 4 0.0000 0.0000 0.0000 15.8453 0.0000 0.0000
# 5 0.0000 0.0000 0.0000 0.0000 40.3298 0.0000
# 6 0.0000 0.0000 0.0000 0.0000 0.0000 42.4992
#
#
#
# Elastic Compliance Matrix: (Units=1/GPa)
#
#
# Indices 1 2 3 4 5 6 
#
# 1 0.011315 -0.002723 -0.000298 0.000000 0.000000 0.000000
# 2 -0.002723 0.011001 -0.003394 0.000000 0.000000 0.000000
# 3 -0.000298 -0.003394 0.012736 0.000000 0.000000 0.000000
# 4 0.000000 0.000000 0.000000 0.063110 0.000000 0.000000
# 5 0.000000 0.000000 0.000000 0.000000 0.024796 0.000000
# 6 0.000000 0.000000 0.000000 0.000000 0.000000 0.023530
#
#
# Mechanical properties :
#
#
# Convention : Reuss Voigt Hill
#
# Bulk Modulus (GPa) = 44.99942 46.32159 45.66050
# Shear Modulus (GPa) = 29.98960 34.61561 32.30261
#
# Velocity S-wave (km/s) = 3.62651 3.89618 3.76376
# Velocity P-wave (km/s) = 6.10486 6.36821 6.23792
#
# Compressibility (1/GPa) = 0.02222251
#
# Stress axis : x y z
#
# Youngs Moduli (GPa) = 88.37632 90.90087 78.51943
#
# Poissons Ratio (x) = 0.24749 0.02342
# Poissons Ratio (y) = 0.24061 0.26649
# Poissons Ratio (z) = 0.02636 0.30851
#
# Static dielectric constant tensor:
#      x y z
#    x 1.957980 0.000000 0.000000 
#    y 0.000000 1.842320 0.000000 
#    z 0.000000 0.000000 1.877790 
# 
# From -- ./inp_files/13874.got.cif
#   From: 2010.05.17/outbox.cif.g08.bks.cpg/sg60_7_cif.got.tgz:13874.got - 2010.06.03 14:59:27.
