data_PCOD9455879
_publ_section_title
;
Structure prediction by ZEFSAII (Michael W. Deem and Ramdas Pophale) SiO2 
 PCOD9455879
Probable space group: P B C N
;
_chemical_formula_sum "Si O2"
_cell_formula_units_Z 52
_cell_length_a 23.087068
_cell_length_b 8.654292
_cell_length_c 11.239200
_cell_angle_alpha 90.000000
_cell_angle_beta 90.000000
_cell_angle_gamma 90.000000
_cell_volume 2245.617200
_symmetry_space_group_name_H-M "P B C N"
_symmetry_group_IT_number 60
_symmetry_cell_setting 'orthorhombic'
loop_
_space_group_symop_operation_xyz
x,y,z
1/2-x,1/2-y,1/2+z
1/2+x,1/2-y,-z
-x,y,1/2-z
-x,-y,-z
1/2+x,1/2+y,1/2-z
1/2-x,1/2+y,z
x,-y,1/2+z
loop_
_atom_site_type_symbol
_atom_site_label
_atom_site_fract_x
_atom_site_fract_y
_atom_site_fract_z
Si Si1 0.214032 0.380600 0.641622
Si Si2 0.624127 0.127304 0.151098
Si Si3 0.000000 0.128873 0.250000
Si Si4 0.586123 0.784489 0.078291
Si Si5 0.739468 0.852596 0.515988
Si Si6 0.912202 0.863009 0.314137
Si Si7 0.818546 0.076918 0.210566
O O1 0.158719 0.392821 0.724555
O O2 0.225647 0.550295 0.598494
O O3 0.215182 0.277579 0.523647
O O4 0.272484 0.333334 0.709452
O O5 0.676657 0.191388 0.069047
O O6 0.577370 0.252405 0.197848
O O7 0.600465 0.967268 0.096212
O O8 0.027505 0.236469 0.352281
O O9 0.045625 0.010327 0.190217
O O10 0.632711 0.684401 0.153581
O O11 0.584248 0.723622 0.941404
O O12 0.774682 0.966433 0.604415
O O13 0.849282 0.940279 0.283594
#
# Coordination Sequence:
#
# PCOD9455879 Si02
#       7
#     8   8   4   8   8   8   8
#     4  11  21  35  56  91 134 174 209 249 299 367
#     4  11  23  37  61  96 131 169 213 257 313 383
#     4  10  26  48  72  94 116 158 220 278 342 410
#     4  11  23  44  67  94 128 165 215 278 333 382
#     4  11  21  35  56  91 134 174 209 249 299 365
#     4  11  23  44  67  92 124 165 214 272 333 393
#     4  10  21  36  61  90 127 175 219 252 304 386
#
# _framework density 23.156217999999999
#
# number of rings (size 3 to 8) (size 9 to 14) (size 15 to 20)
#    0.000    1.231    0.000    6.923    0.000    6.769 
#    0.000    7.692    0.000    0.000    0.000    0.000 
#    0.000    0.000    0.000    0.000    0.000    0.000 
#
# Total GULP energy -289921.379503 kJ/mol
# GULP energy per Si atom -5575.411144 kJ/mol
# Density = 2.310351 g / cm^3
# Si number density = 23.156218 Si / 1000 Ang^3
#
#
#
# Elastic Constant Matrix: (Units=GPa)
#
#
# Indices 1 2 3 4 5 6 
#
# 1 38.5254 5.0862 13.4491 0.0000 0.0000 0.0000
# 2 5.0862 93.4958 29.6912 0.0000 0.0000 0.0000
# 3 13.4491 29.6912 77.8081 0.0000 0.0000 0.0000
# 4 0.0000 0.0000 0.0000 41.7187 0.0000 0.0000
# 5 0.0000 0.0000 0.0000 0.0000 26.0214 0.0000
# 6 0.0000 0.0000 0.0000 0.0000 0.0000 101.2658
#
#
#
# Elastic Compliance Matrix: (Units=1/GPa)
#
#
# Indices 1 2 3 4 5 6 
#
# 1 0.027624 0.000015 -0.004781 0.000000 0.000000 0.000000
# 2 0.000015 0.012171 -0.004647 0.000000 0.000000 0.000000
# 3 -0.004781 -0.004647 0.015452 0.000000 0.000000 0.000000
# 4 0.000000 0.000000 0.000000 0.023970 0.000000 0.000000
# 5 0.000000 0.000000 0.000000 0.000000 0.038430 0.000000
# 6 0.000000 0.000000 0.000000 0.000000 0.000000 0.009875
#
#
# Mechanical properties :
#
#
# Convention : Reuss Voigt Hill
#
# Bulk Modulus (GPa) = 27.45608 34.03137 30.74372
# Shear Modulus (GPa) = 31.54857 44.57468 38.06162
#
# Velocity S-wave (km/s) = 3.69511 4.39219 4.05864
# Velocity P-wave (km/s) = 5.48523 6.36004 5.93876
#
# Compressibility (1/GPa) = 0.03642180
#
# Stress axis : x y z
#
# Youngs Moduli (GPa) = 36.20071 82.16573 64.71786
#
# Poissons Ratio (x) = -0.00127 0.30939
# Poissons Ratio (y) = -0.00056 0.30074
# Poissons Ratio (z) = 0.17306 0.38181
#
# Static dielectric constant tensor:
#      x y z
#    x 2.027240 0.000000 0.000000 
#    y 0.000000 1.923290 0.000000 
#    z 0.000000 0.000000 2.019640 
# 
# From -- ./inp_files/13250.got.cif
#   From: 2010.05.17/outbox.cif.g08.bks.cpg/sg60_7_cif.got.tgz:13250.got - 2010.06.03 14:59:27.
