data_PCOD9455003
_publ_section_title
;
Structure prediction by ZEFSAII (Michael W. Deem and Ramdas Pophale) SiO2 
 PCOD9455003
Probable space group: P B C N
;
_chemical_formula_sum "Si O2"
_cell_formula_units_Z 60
_cell_length_a 22.193094
_cell_length_b 14.629142
_cell_length_c 8.942800
_cell_angle_alpha 90.000000
_cell_angle_beta 90.000000
_cell_angle_gamma 90.000000
_cell_volume 2903.422421
_symmetry_space_group_name_H-M "P B C N"
_symmetry_group_IT_number 60
_symmetry_cell_setting 'orthorhombic'
loop_
_space_group_symop_operation_xyz
x,y,z
1/2-x,1/2-y,1/2+z
1/2+x,1/2-y,-z
-x,y,1/2-z
-x,-y,-z
1/2+x,1/2+y,1/2-z
1/2-x,1/2+y,z
x,-y,1/2+z
loop_
_atom_site_type_symbol
_atom_site_label
_atom_site_fract_x
_atom_site_fract_y
_atom_site_fract_z
Si Si1 0.078006 0.526820 0.258043
Si Si2 0.684811 0.792026 0.405456
Si Si3 0.445699 0.125878 0.536936
Si Si4 0.000000 0.226093 0.250000
Si Si5 0.874717 0.800525 0.623079
Si Si6 0.215663 0.892211 0.438921
Si Si7 0.198075 0.077128 0.603542
Si Si8 0.642526 0.892469 0.009095
O O1 0.043236 0.464147 0.137486
O O2 0.046789 0.601942 0.363828
O O3 0.130195 0.572909 0.157763
O O4 0.107045 0.456340 0.375335
O O5 0.624247 0.847316 0.440699
O O6 0.696848 0.710213 0.520015
O O7 0.739561 0.863977 0.408923
O O8 0.671344 0.736302 0.251450
O O9 0.482256 0.207801 0.611599
O O10 0.061526 0.175525 0.298382
O O11 0.847034 0.875179 0.513428
O O12 0.882850 0.709103 0.524851
O O13 0.186303 0.916452 0.280017
O O14 0.288326 0.894375 0.441602
O O15 0.200450 0.971354 0.557308
#
# Coordination Sequence:
#
# PCOD9455003 Si02
#       8
#     8   8   8   4   8   8   8   8
#     4  10  20  34  58  88 125 168 217 253 313 387
#     4  11  21  39  60  92 129 165 206 263 323 390
#     4  10  21  37  59  87 128 168 221 264 318 382
#     4  10  22  44  64  86 130 184 222 276 322 382
#     4  11  23  42  64  89 129 176 216 262 332 382
#     4  12  24  36  65  94 133 166 211 262 338 398
#     4  12  23  40  61  96 127 167 210 268 328 393
#     4  11  19  37  56  92 130 171 201 261 322 397
#
# _framework density 20.665267
#
# number of rings (size 3 to 8) (size 9 to 14) (size 15 to 20)
#    0.000    1.067    5.333    3.200    1.867    1.600 
#    0.000    0.000    0.000    7.200    0.000    0.000 
#    0.000    0.000    0.000    0.000    0.000    0.000 
#
# Total GULP energy -335140.191301 kJ/mol
# GULP energy per Si atom -5585.669855 kJ/mol
# Density = 2.061823 g / cm^3
# Si number density = 20.665267 Si / 1000 Ang^3
#
#
#
# Elastic Constant Matrix: (Units=GPa)
#
#
# Indices 1 2 3 4 5 6 
#
# 1 69.0839 -2.5146 12.2736 0.0000 0.0000 0.0000
# 2 -2.5146 50.5771 10.1947 0.0000 0.0000 0.0000
# 3 12.2736 10.1947 106.0345 0.0000 0.0000 0.0000
# 4 0.0000 0.0000 0.0000 38.4089 0.0000 0.0000
# 5 0.0000 0.0000 0.0000 0.0000 23.3559 0.0000
# 6 0.0000 0.0000 0.0000 0.0000 0.0000 21.2309
#
#
#
# Elastic Compliance Matrix: (Units=1/GPa)
#
#
# Indices 1 2 3 4 5 6 
#
# 1 0.014839 0.001105 -0.001824 0.000000 0.000000 0.000000
# 2 0.001105 0.020245 -0.002074 0.000000 0.000000 0.000000
# 3 -0.001824 -0.002074 0.009841 0.000000 0.000000 0.000000
# 4 0.000000 0.000000 0.000000 0.026036 0.000000 0.000000
# 5 0.000000 0.000000 0.000000 0.000000 0.042816 0.000000
# 6 0.000000 0.000000 0.000000 0.000000 0.000000 0.047101
#
#
# Mechanical properties :
#
#
# Convention : Reuss Voigt Hill
#
# Bulk Modulus (GPa) = 25.41948 29.51146 27.46547
# Shear Modulus (GPa) = 27.84312 30.31525 29.07919
#
# Velocity S-wave (km/s) = 3.67459 3.83425 3.75527
# Velocity P-wave (km/s) = 5.50734 5.82355 5.66765
#
# Compressibility (1/GPa) = 0.03933991
#
# Stress axis : x y z
#
# Youngs Moduli (GPa) = 67.38801 49.39522 101.61088
#
# Poissons Ratio (x) = -0.05460 0.18534
# Poissons Ratio (y) = -0.07449 0.21078
# Poissons Ratio (z) = 0.12291 0.10247
#
# Static dielectric constant tensor:
#      x y z
#    x 1.792860 0.000000 0.000000 
#    y 0.000000 1.722380 0.000000 
#    z 0.000000 0.000000 1.781590 
# 
# From -- ./inp_files/7939.got.cif
#   From: 2010.05.17/outbox.cif.g08.bks.cpg/sg60_4_cif.got.tgz:7939.got - 2010.06.03 14:59:27.
