data_PCOD9455161
_publ_section_title
;
Structure prediction by ZEFSAII (Michael W. Deem and Ramdas Pophale) SiO2 
 PCOD9455161
Probable space group: P B C N
;
_chemical_formula_sum "Si O2"
_cell_formula_units_Z 40
_cell_length_a 8.782294
_cell_length_b 20.309083
_cell_length_c 8.937800
_cell_angle_alpha 90.000000
_cell_angle_beta 90.000000
_cell_angle_gamma 90.000000
_cell_volume 1594.149027
_symmetry_space_group_name_H-M "P B C N"
_symmetry_group_IT_number 60
_symmetry_cell_setting 'orthorhombic'
loop_
_space_group_symop_operation_xyz
x,y,z
1/2-x,1/2-y,1/2+z
1/2+x,1/2-y,-z
-x,y,1/2-z
-x,-y,-z
1/2+x,1/2+y,1/2-z
1/2-x,1/2+y,z
x,-y,1/2+z
loop_
_atom_site_type_symbol
_atom_site_label
_atom_site_fract_x
_atom_site_fract_y
_atom_site_fract_z
Si Si1 0.860122 0.959089 0.841586
Si Si2 0.626933 0.800812 0.621963
Si Si3 0.326189 0.685579 0.103226
Si Si4 0.949859 0.638146 0.598559
Si Si5 0.157413 0.498122 0.906357
O O1 0.905963 0.885669 0.892672
O O2 0.000000 0.988575 0.750000
O O3 0.710174 0.954548 0.733817
O O4 0.797928 0.000712 0.979058
O O5 0.500000 0.795283 0.750000
O O6 0.779002 0.798821 0.724242
O O7 0.605970 0.742911 0.499591
O O8 0.594337 0.864754 0.515889
O O9 0.173859 0.670954 0.007286
O O10 0.863617 0.572755 0.657158
O O11 0.000000 0.672869 0.750000
O O12 0.000000 0.500000 0.000000
#
# Coordination Sequence:
#
# PCOD9455161 Si02
#       5
#     8   8   8   8   8
#     4  11  24  41  63  96 133 170 214 276 344 398
#     4  10  21  38  60  89 125 167 221 273 324 400
#     4  10  22  38  60  91 128 171 213 266 336 400
#     4  10  20  36  60  90 120 162 216 269 321 383
#     4  11  22  41  66  92 124 168 221 270 322 393
#
# _framework density 25.091757000000001
#
# number of rings (size 3 to 8) (size 9 to 14) (size 15 to 20)
#    0.000    1.600    0.000    4.800    0.000    7.200 
#    0.000   10.000    0.000    0.000    0.000    0.000 
#    0.000    0.000    0.000    0.000    0.000    0.000 
#
# Total GULP energy -222897.314712 kJ/mol
# GULP energy per Si atom -5572.432868 kJ/mol
# Density = 2.503465 g / cm^3
# Si number density = 25.091757 Si / 1000 Ang^3
#
#
#
# Elastic Constant Matrix: (Units=GPa)
#
#
# Indices 1 2 3 4 5 6 
#
# 1 51.0934 -9.3875 24.2671 0.0000 0.0000 0.0000
# 2 -9.3875 27.1807 1.9752 0.0000 0.0000 0.0000
# 3 24.2671 1.9752 148.2950 0.0000 0.0000 0.0000
# 4 0.0000 0.0000 0.0000 34.5457 0.0000 0.0000
# 5 0.0000 0.0000 0.0000 0.0000 59.1854 0.0000
# 6 0.0000 0.0000 0.0000 0.0000 0.0000 20.3372
#
#
#
# Elastic Compliance Matrix: (Units=1/GPa)
#
#
# Indices 1 2 3 4 5 6 
#
# 1 0.022910 0.008193 -0.003858 0.000000 0.000000 0.000000
# 2 0.008193 0.039756 -0.001870 0.000000 0.000000 0.000000
# 3 -0.003858 -0.001870 0.007400 0.000000 0.000000 0.000000
# 4 0.000000 0.000000 0.000000 0.028947 0.000000 0.000000
# 5 0.000000 0.000000 0.000000 0.000000 0.016896 0.000000
# 6 0.000000 0.000000 0.000000 0.000000 0.000000 0.049171
#
#
# Mechanical properties :
#
#
# Convention : Reuss Voigt Hill
#
# Bulk Modulus (GPa) = 13.33432 28.91986 21.12709
# Shear Modulus (GPa) = 27.00528 36.79461 31.89995
#
# Velocity S-wave (km/s) = 3.28420 3.83352 3.56944
# Velocity P-wave (km/s) = 4.43926 5.58078 5.04243
#
# Compressibility (1/GPa) = 0.07499445
#
# Stress axis : x y z
#
# Youngs Moduli (GPa) = 43.64964 25.15328 135.14310
#
# Poissons Ratio (x) = -0.20607 0.52139
# Poissons Ratio (y) = -0.35761 0.25274
# Poissons Ratio (z) = 0.16840 0.04704
#
# Static dielectric constant tensor:
#      x y z
#    x 2.154080 0.000000 0.000000 
#    y 0.000000 2.121910 0.000000 
#    z 0.000000 0.000000 1.964890 
# 
# From -- ./inp_files/3886.got.cif
#   From: 2010.05.17/outbox.cif.g08.bks.cpg/sg60_2_cif.got.tgz:3886.got - 2010.06.03 14:59:27.
