data_PCOD9455132
_publ_section_title
;
Structure prediction by ZEFSAII (Michael W. Deem and Ramdas Pophale) SiO2 
 PCOD9455132
Probable space group: P B C N
;
_chemical_formula_sum "Si O2"
_cell_formula_units_Z 60
_cell_length_a 13.673885
_cell_length_b 18.430319
_cell_length_c 8.909626
_cell_angle_alpha 90.000000
_cell_angle_beta 90.000000
_cell_angle_gamma 90.000000
_cell_volume 2245.351044
_symmetry_space_group_name_H-M "P B C N"
_symmetry_group_IT_number 60
_symmetry_cell_setting 'orthorhombic'
loop_
_space_group_symop_operation_xyz
x,y,z
1/2-x,1/2-y,1/2+z
1/2+x,1/2-y,-z
-x,y,1/2-z
-x,-y,-z
1/2+x,1/2+y,1/2-z
1/2-x,1/2+y,z
x,-y,1/2+z
loop_
_atom_site_type_symbol
_atom_site_label
_atom_site_fract_x
_atom_site_fract_y
_atom_site_fract_z
Si Si1 0.000000 0.492781 0.750000
Si Si2 0.037424 0.260811 0.088210
Si Si3 0.151441 0.082698 0.620734
Si Si4 0.858839 0.540014 0.999007
Si Si5 0.277152 0.756465 0.905789
Si Si6 0.728129 0.583497 0.567372
Si Si7 0.529488 0.415501 0.913641
Si Si8 0.879891 0.758560 0.384194
O O1 0.926434 0.446741 0.644120
O O2 0.069729 0.542122 0.643891
O O3 0.030065 0.173106 0.087314
O O4 0.000000 0.286932 0.250000
O O5 0.973308 0.282890 0.942935
O O6 0.147137 0.278336 0.037223
O O7 0.253101 0.078998 0.523075
O O8 0.190563 0.049579 0.776157
O O9 0.055275 0.060728 0.528872
O O10 0.110048 0.161111 0.682448
O O11 0.825737 0.455879 0.016903
O O12 0.260613 0.669394 0.913941
O O13 0.315037 0.779491 0.742975
O O14 0.172168 0.781345 0.959134
O O15 0.641586 0.568654 0.451602
O O16 0.500000 0.440976 0.750000
#
# Coordination Sequence:
#
# PCOD9455132 Si02
#       8
#     4   8   8   8   8   8   8   8
#     4  10  24  42  64  80 116 156 200 254 304 344
#     4   9  17  33  54  80 113 151 184 231 292 339
#     4  10  21  38  61  87 120 157 193 238 301 361
#     4  11  22  43  64  88 112 157 202 247 302 346
#     4  10  20  36  58  84 116 154 193 238 292 351
#     4  10  21  38  61  87 120 157 193 238 301 361
#     4   9  19  32  56  91 121 148 184 234 286 350
#     4  10  20  36  58  84 116 154 193 238 292 351
#
# _framework density 26.721879999999999
#
# number of rings (size 3 to 8) (size 9 to 14) (size 15 to 20)
#    0.000    2.133    1.333    1.600    1.867    4.800 
#    0.000    2.667    2.933    0.000    0.000    0.000 
#    0.000    0.000    0.000    0.000    0.000    0.000 
#
# Total GULP energy -335229.667685 kJ/mol
# GULP energy per Si atom -5587.161128 kJ/mol
# Density = 2.666106 g / cm^3
# Si number density = 26.721880 Si / 1000 Ang^3
#
#
#
# Elastic Constant Matrix: (Units=GPa)
#
#
# Indices 1 2 3 4 5 6 
#
# 1 151.4432 12.3869 42.9393 0.0000 0.0000 0.0000
# 2 12.3869 44.2763 1.7235 0.0000 0.0000 0.0000
# 3 42.9393 1.7235 119.5318 0.0000 0.0000 0.0000
# 4 0.0000 0.0000 0.0000 17.9528 0.0000 0.0000
# 5 0.0000 0.0000 0.0000 0.0000 60.3160 0.0000
# 6 0.0000 0.0000 0.0000 0.0000 0.0000 24.2348
#
#
#
# Elastic Compliance Matrix: (Units=1/GPa)
#
#
# Indices 1 2 3 4 5 6 
#
# 1 0.007525 -0.002001 -0.002674 0.000000 0.000000 0.000000
# 2 -0.002001 0.023130 0.000385 0.000000 0.000000 0.000000
# 3 -0.002674 0.000385 0.009321 0.000000 0.000000 0.000000
# 4 0.000000 0.000000 0.000000 0.055702 0.000000 0.000000
# 5 0.000000 0.000000 0.000000 0.000000 0.016579 0.000000
# 6 0.000000 0.000000 0.000000 0.000000 0.000000 0.041263
#
#
# Mechanical properties :
#
#
# Convention : Reuss Voigt Hill
#
# Bulk Modulus (GPa) = 31.85099 47.70563 39.77831
# Shear Modulus (GPa) = 28.97440 37.71416 33.34428
#
# Velocity S-wave (km/s) = 3.29644 3.76088 3.53629
# Velocity P-wave (km/s) = 5.14140 6.06221 5.62069
#
# Compressibility (1/GPa) = 0.03139620
#
# Stress axis : x y z
#
# Youngs Moduli (GPa) = 132.88873 43.23332 107.28313
#
# Poissons Ratio (x) = 0.08652 0.28692
# Poissons Ratio (y) = 0.26593 -0.04134
# Poissons Ratio (z) = 0.35539 -0.01666
#
# Static dielectric constant tensor:
#      x y z
#    x 2.078760 0.000000 0.000000 
#    y 0.000000 2.250670 0.000000 
#    z 0.000000 0.000000 2.095770 
# 
# From -- ./inp_files/5255.got.cif
#   From: 2010.05.17/outbox.cif.g08.bks.cpg/sg60_3_cif.got.tgz:5255.got - 2010.06.03 14:59:27.
