data_PCOD9455012
_publ_section_title
;
Structure prediction by ZEFSAII (Michael W. Deem and Ramdas Pophale) SiO2 
 PCOD9455012
Probable space group: P B C N
;
_chemical_formula_sum "Si O2"
_cell_formula_units_Z 56
_cell_length_a 11.165762
_cell_length_b 10.345550
_cell_length_c 21.185203
_cell_angle_alpha 90.000000
_cell_angle_beta 90.000000
_cell_angle_gamma 90.000000
_cell_volume 2447.228831
_symmetry_space_group_name_H-M "P B C N"
_symmetry_group_IT_number 60
_symmetry_cell_setting 'orthorhombic'
loop_
_space_group_symop_operation_xyz
x,y,z
1/2-x,1/2-y,1/2+z
1/2+x,1/2-y,-z
-x,y,1/2-z
-x,-y,-z
1/2+x,1/2+y,1/2-z
1/2-x,1/2+y,z
x,-y,1/2+z
loop_
_atom_site_type_symbol
_atom_site_label
_atom_site_fract_x
_atom_site_fract_y
_atom_site_fract_z
Si Si1 0.078628 0.075529 0.696103
Si Si2 0.959584 0.422817 0.815456
Si Si3 0.177798 0.671557 0.744261
Si Si4 0.913431 0.917214 0.086518
Si Si5 0.712610 0.641581 0.363013
Si Si6 0.364274 0.104657 0.882366
Si Si7 0.981105 0.194972 0.455503
O O1 0.181350 0.145867 0.736099
O O2 0.000000 0.005433 0.750000
O O3 0.978005 0.132710 0.649789
O O4 0.162289 0.001908 0.645052
O O5 0.891821 0.549394 0.785586
O O6 0.854794 0.356438 0.856004
O O7 0.000000 0.354224 0.750000
O O8 0.067467 0.474875 0.858634
O O9 0.156518 0.790880 0.698735
O O10 0.143883 0.686412 0.816897
O O11 0.770366 0.916769 0.094300
O O12 0.954085 0.065365 0.071735
O O13 0.958834 0.830115 0.028700
O O14 0.649955 0.703861 0.422888
O O15 0.442217 0.182549 0.933203
#
# Coordination Sequence:
#
# PCOD9455012 Si02
#       7
#     8   8   8   8   8   8   8
#     4  10  20  36  58  86 117 155 196 250 300 351
#     4   9  20  36  55  91 122 152 196 258 302 356
#     4  10  20  34  59  90 120 155 200 244 309 363
#     4  10  23  43  61  90 122 160 213 249 295 372
#     4  10  21  36  61  84 123 157 196 246 307 368
#     4  11  21  39  65  89 121 160 206 258 305 358
#     4  10  23  42  65  86 121 174 205 243 304 376
#
# _framework density 22.883026000000001
#
# number of rings (size 3 to 8) (size 9 to 14) (size 15 to 20)
#    0.000    2.000    2.857    0.000    4.000    1.714 
#    7.714    0.714    0.000    0.000    0.000    0.000 
#    0.000    0.000    0.000    0.000    0.000    0.000 
#
# Total GULP energy -312433.692895 kJ/mol
# GULP energy per Si atom -5579.173087 kJ/mol
# Density = 2.283094 g / cm^3
# Si number density = 22.883026 Si / 1000 Ang^3
#
#
#
# Elastic Constant Matrix: (Units=GPa)
#
#
# Indices 1 2 3 4 5 6 
#
# 1 158.9847 17.0169 47.1051 0.0000 0.0000 0.0000
# 2 17.0169 10.4113 -6.6061 0.0000 0.0000 0.0000
# 3 47.1051 -6.6061 83.6372 0.0000 0.0000 0.0000
# 4 0.0000 0.0000 0.0000 19.5444 0.0000 0.0000
# 5 0.0000 0.0000 0.0000 0.0000 33.1990 0.0000
# 6 0.0000 0.0000 0.0000 0.0000 0.0000 26.5166
#
#
#
# Elastic Compliance Matrix: (Units=1/GPa)
#
#
# Indices 1 2 3 4 5 6 
#
# 1 0.011240 -0.023569 -0.008192 0.000000 0.000000 0.000000
# 2 -0.023569 0.150539 0.025164 0.000000 0.000000 0.000000
# 3 -0.008192 0.025164 0.018558 0.000000 0.000000 0.000000
# 4 0.000000 0.000000 0.000000 0.051165 0.000000 0.000000
# 5 0.000000 0.000000 0.000000 0.000000 0.030121 0.000000
# 6 0.000000 0.000000 0.000000 0.000000 0.000000 0.037712
#
#
# Mechanical properties :
#
#
# Convention : Reuss Voigt Hill
#
# Bulk Modulus (GPa) = 5.98287 40.89610 23.43948
# Shear Modulus (GPa) = 13.57800 28.88649 21.23224
#
# Velocity S-wave (km/s) = 2.43855 3.55682 3.04938
# Velocity P-wave (km/s) = 3.24791 5.89733 4.76064
#
# Compressibility (1/GPa) = 0.16714397
#
# Stress axis : x y z
#
# Youngs Moduli (GPa) = 88.97003 6.64280 53.88585
#
# Poissons Ratio (x) = 0.15656 0.44143
# Poissons Ratio (y) = 2.09692 -1.35601
# Poissons Ratio (z) = 0.72883 -0.16716
#
# Static dielectric constant tensor:
#      x y z
#    x 1.861640 0.000000 0.000000 
#    y 0.000000 2.002310 0.000000 
#    z 0.000000 0.000000 1.816780 
# 
# From -- ./inp_files/24289.got.cif
#   From: 2010.05.17/outbox.cif.g08.bks.cpg/sg60_13_cif.got.tgz:24289.got - 2010.06.03 14:59:27.
