data_PCOD9455345
_publ_section_title
;
Structure prediction by ZEFSAII (Michael W. Deem and Ramdas Pophale) SiO2 
 PCOD9455345
Probable space group: P B C N
;
_chemical_formula_sum "Si O2"
_cell_formula_units_Z 48
_cell_length_a 5.039055
_cell_length_b 21.740200
_cell_length_c 21.000750
_cell_angle_alpha 90.000000
_cell_angle_beta 90.000000
_cell_angle_gamma 90.000000
_cell_volume 2300.633496
_symmetry_space_group_name_H-M "P B C N"
_symmetry_group_IT_number 60
_symmetry_cell_setting 'orthorhombic'
loop_
_space_group_symop_operation_xyz
x,y,z
1/2-x,1/2-y,1/2+z
1/2+x,1/2-y,-z
-x,y,1/2-z
-x,-y,-z
1/2+x,1/2+y,1/2-z
1/2-x,1/2+y,z
x,-y,1/2+z
loop_
_atom_site_type_symbol
_atom_site_label
_atom_site_fract_x
_atom_site_fract_y
_atom_site_fract_z
Si Si1 0.261305 0.893835 0.294153
Si Si2 0.742227 0.247056 0.705524
Si Si3 0.166808 0.071804 0.185314
Si Si4 0.160903 0.637317 0.369154
Si Si5 0.533124 0.467112 0.397409
Si Si6 0.804729 0.556254 0.015891
O O1 0.500000 0.916989 0.250000
O O2 0.324913 0.823118 0.312535
O O3 0.000000 0.893295 0.250000
O O4 0.187310 0.932711 0.356127
O O5 0.500000 0.271290 0.750000
O O6 0.814314 0.290853 0.646611
O O7 0.000000 0.245791 0.750000
O O8 0.445209 0.107270 0.179146
O O9 0.000000 0.060938 0.250000
O O10 0.953675 0.112590 0.146997
O O11 0.210530 0.005885 0.151736
O O12 0.089706 0.611137 0.439316
O O13 0.408127 0.520521 0.440750
O O14 0.684878 0.424275 0.447761
O O15 0.000000 0.500000 0.000000
#
# Coordination Sequence:
#
# PCOD9455345 Si02
#       6
#     8   8   8   8   8   8
#     4  10  23  39  63  90 120 158 197 250 313 369
#     4  10  20  38  60  87 119 154 197 250 309 369
#     4  11  21  32  54  87 113 146 189 251 307 366
#     4  11  21  35  58  81 117 154 197 244 305 360
#     4  10  22  37  57  83 118 154 201 243 302 368
#     4  10  21  38  57  80 115 163 199 246 299 362
#
# _framework density 20.863818999999999
#
# number of rings (size 3 to 8) (size 9 to 14) (size 15 to 20)
#    0.000    1.667    1.667    3.500    2.333    2.667 
#    0.000    0.000    3.667    0.000    0.000    0.000 
#    0.000    0.000    0.000    0.000    0.000    0.000 
#
# Total GULP energy -267636.254832 kJ/mol
# GULP energy per Si atom -5575.755309 kJ/mol
# Density = 2.081633 g / cm^3
# Si number density = 20.863819 Si / 1000 Ang^3
#
#
#
# Elastic Constant Matrix: (Units=GPa)
#
#
# Indices 1 2 3 4 5 6 
#
# 1 95.1325 9.8197 20.8664 0.0000 0.0000 0.0000
# 2 9.8197 63.2037 40.5097 0.0000 0.0000 0.0000
# 3 20.8664 40.5097 91.6237 0.0000 0.0000 0.0000
# 4 0.0000 0.0000 0.0000 17.8612 0.0000 0.0000
# 5 0.0000 0.0000 0.0000 0.0000 32.9151 0.0000
# 6 0.0000 0.0000 0.0000 0.0000 0.0000 21.9871
#
#
#
# Elastic Compliance Matrix: (Units=1/GPa)
#
#
# Indices 1 2 3 4 5 6 
#
# 1 0.011065 -0.000145 -0.002456 0.000000 0.000000 0.000000
# 2 -0.000145 0.022080 -0.009729 0.000000 0.000000 0.000000
# 3 -0.002456 -0.009729 0.015775 0.000000 0.000000 0.000000
# 4 0.000000 0.000000 0.000000 0.055987 0.000000 0.000000
# 5 0.000000 0.000000 0.000000 0.000000 0.030381 0.000000
# 6 0.000000 0.000000 0.000000 0.000000 0.000000 0.045481
#
#
# Mechanical properties :
#
#
# Convention : Reuss Voigt Hill
#
# Bulk Modulus (GPa) = 41.21990 43.59462 42.40726
# Shear Modulus (GPa) = 23.41724 26.47029 24.94376
#
# Velocity S-wave (km/s) = 3.35384 3.56577 3.46143
# Velocity P-wave (km/s) = 5.89891 6.15574 6.02869
#
# Compressibility (1/GPa) = 0.02426012
#
# Stress axis : x y z
#
# Youngs Moduli (GPa) = 90.37261 45.28919 63.39085
#
# Poissons Ratio (x) = 0.00657 0.15568
# Poissons Ratio (y) = 0.01312 0.61675
# Poissons Ratio (z) = 0.22194 0.44063
#
# Static dielectric constant tensor:
#      x y z
#    x 0.713160 0.000000 0.000000 
#    y 0.000000 1.789440 0.000000 
#    z 0.000000 0.000000 1.848890 
# 
# From -- ./inp_files/21623.got.cif
#   From: 2010.05.17/outbox.cif.g08.bks.cpg/sg60_11_cif.got.tgz:21623.got - 2010.06.03 14:59:27.
