data_PCOD9455788
_publ_section_title
;
Structure prediction by ZEFSAII (Michael W. Deem and Ramdas Pophale) SiO2 
 PCOD9455788
Probable space group: P B C N
;
_chemical_formula_sum "Si O2"
_cell_formula_units_Z 64
_cell_length_a 30.118274
_cell_length_b 20.029520
_cell_length_c 5.397937
_cell_angle_alpha 90.000000
_cell_angle_beta 90.000000
_cell_angle_gamma 90.000000
_cell_volume 3256.330172
_symmetry_space_group_name_H-M "P B C N"
_symmetry_group_IT_number 60
_symmetry_cell_setting 'orthorhombic'
loop_
_space_group_symop_operation_xyz
x,y,z
1/2-x,1/2-y,1/2+z
1/2+x,1/2-y,-z
-x,y,1/2-z
-x,-y,-z
1/2+x,1/2+y,1/2-z
1/2-x,1/2+y,z
x,-y,1/2+z
loop_
_atom_site_type_symbol
_atom_site_label
_atom_site_fract_x
_atom_site_fract_y
_atom_site_fract_z
Si Si1 0.393846 0.222649 0.416075
Si Si2 0.951854 0.043320 0.697236
Si Si3 0.050038 0.525829 0.934450
Si Si4 0.381063 0.356718 0.117951
Si Si5 0.952705 0.798213 0.707117
Si Si6 0.209358 0.813403 0.136307
Si Si7 0.542428 0.836772 0.914432
Si Si8 0.697135 0.772800 0.362258
O O1 0.379596 0.283139 0.237368
O O2 0.434009 0.256351 0.564841
O O3 0.413814 0.164436 0.253286
O O4 0.352948 0.203222 0.589566
O O5 0.910233 0.092626 0.722048
O O6 0.000000 0.077524 0.750000
O O7 0.950161 0.008706 0.428393
O O8 0.071299 0.489554 0.701188
O O9 0.047672 0.605031 0.886304
O O10 0.000000 0.500000 0.000000
O O11 0.412536 0.345732 0.878604
O O12 0.328438 0.370348 0.099077
O O13 0.962333 0.738348 0.513937
O O14 0.000000 0.832937 0.750000
O O15 0.199515 0.763371 0.904421
O O16 0.262432 0.825364 0.116904
O O17 0.205243 0.779567 0.409854
O O18 0.500000 0.853887 0.750000
#
# Coordination Sequence:
#
# PCOD9455788 Si02
#       8
#     8   8   8   8   8   8   8   8
#     4  10  21  33  48  77 110 145 169 218 269 334
#     4  10  24  40  56  77 106 145 186 236 274 319
#     4  10  21  33  51  68  90 133 181 226 252 279
#     4  10  22  35  53  79 105 139 188 214 276 333
#     4  11  22  29  50  73 110 146 170 211 265 324
#     4   9  17  31  54  76 102 137 166 218 250 325
#     4  11  21  32  45  72 105 138 181 216 258 310
#     4   9  17  32  49  76 109 134 170 204 269 311
#
# _framework density 19.654026999999999
#
# number of rings (size 3 to 8) (size 9 to 14) (size 15 to 20)
#    0.000    2.000    3.750    0.000    7.000    0.500 
#    0.000    0.000    0.000    0.000    0.000    1.750 
#    0.000    0.000    0.000    0.000    0.000    0.000 
#
# Total GULP energy -356295.699782 kJ/mol
# GULP energy per Si atom -5567.120309 kJ/mol
# Density = 1.960929 g / cm^3
# Si number density = 19.654027 Si / 1000 Ang^3
#
#
#
# Elastic Constant Matrix: (Units=GPa)
#
#
# Indices 1 2 3 4 5 6 
#
# 1 114.2936 5.1206 5.6754 0.0000 0.0000 0.0000
# 2 5.1206 26.4662 4.8799 0.0000 0.0000 0.0000
# 3 5.6754 4.8799 90.2779 0.0000 0.0000 0.0000
# 4 0.0000 0.0000 0.0000 14.5545 0.0000 0.0000
# 5 0.0000 0.0000 0.0000 0.0000 23.5254 0.0000
# 6 0.0000 0.0000 0.0000 0.0000 0.0000 15.6561
#
#
#
# Elastic Compliance Matrix: (Units=1/GPa)
#
#
# Indices 1 2 3 4 5 6 
#
# 1 0.008845 -0.001625 -0.000468 0.000000 0.000000 0.000000
# 2 -0.001625 0.038463 -0.001977 0.000000 0.000000 0.000000
# 3 -0.000468 -0.001977 0.011213 0.000000 0.000000 0.000000
# 4 0.000000 0.000000 0.000000 0.068707 0.000000 0.000000
# 5 0.000000 0.000000 0.000000 0.000000 0.042507 0.000000
# 6 0.000000 0.000000 0.000000 0.000000 0.000000 0.063873
#
#
# Mechanical properties :
#
#
# Convention : Reuss Voigt Hill
#
# Bulk Modulus (GPa) = 19.84865 29.15436 24.50150
# Shear Modulus (GPa) = 19.33913 25.10466 22.22189
#
# Velocity S-wave (km/s) = 3.14025 3.57785 3.36617
# Velocity P-wave (km/s) = 4.82381 5.65102 5.25372
#
# Compressibility (1/GPa) = 0.05038127
#
# Stress axis : x y z
#
# Youngs Moduli (GPa) = 113.05240 25.99900 89.18056
#
# Poissons Ratio (x) = 0.04225 0.04176
# Poissons Ratio (y) = 0.18372 0.17630
# Poissons Ratio (z) = 0.05293 0.05140
#
# Static dielectric constant tensor:
#      x y z
#    x 1.770030 0.000000 0.000000 
#    y 0.000000 1.698210 0.000000 
#    z 0.000000 0.000000 1.743470 
# 
# From -- ./inp_files/2736.got.cif
#   From: 2010.05.17/outbox.cif.g08.bks.cpg/sg60_2_cif.got.tgz:2736.got - 2010.06.03 14:59:27.
