data_PCOD9455190
_publ_section_title
;
Structure prediction by ZEFSAII (Michael W. Deem and Ramdas Pophale) SiO2 
 PCOD9455190
Probable space group: P B C N
;
_chemical_formula_sum "Si O2"
_cell_formula_units_Z 64
_cell_length_a 18.211524
_cell_length_b 8.964357
_cell_length_c 17.361745
_cell_angle_alpha 90.000000
_cell_angle_beta 90.000000
_cell_angle_gamma 90.000000
_cell_volume 2834.384781
_symmetry_space_group_name_H-M "P B C N"
_symmetry_group_IT_number 60
_symmetry_cell_setting 'orthorhombic'
loop_
_space_group_symop_operation_xyz
x,y,z
1/2-x,1/2-y,1/2+z
1/2+x,1/2-y,-z
-x,y,1/2-z
-x,-y,-z
1/2+x,1/2+y,1/2-z
1/2-x,1/2+y,z
x,-y,1/2+z
loop_
_atom_site_type_symbol
_atom_site_label
_atom_site_fract_x
_atom_site_fract_y
_atom_site_fract_z
Si Si1 0.045773 0.351406 0.519851
Si Si2 0.708403 0.775919 0.010609
Si Si3 0.658853 0.333606 0.212674
Si Si4 0.725065 0.058777 0.261241
Si Si5 0.553226 0.632775 0.427095
Si Si6 0.806652 0.299334 0.366257
Si Si7 0.654459 0.526438 0.563813
Si Si8 0.458767 0.345270 0.169574
O O1 0.133741 0.364799 0.509298
O O2 0.000000 0.500000 0.500000
O O3 0.012949 0.227576 0.461616
O O4 0.032890 0.281502 0.605004
O O5 0.746657 0.701609 0.935087
O O6 0.773344 0.875799 0.044397
O O7 0.681714 0.643172 0.066563
O O8 0.500000 0.314091 0.250000
O O9 0.674445 0.159055 0.206995
O O10 0.729747 0.439007 0.213306
O O11 0.624399 0.351301 0.297141
O O12 0.777457 0.177319 0.304550
O O13 0.686956 0.959952 0.326650
O O14 0.614579 0.744597 0.394430
O O15 0.597214 0.546116 0.494367
O O16 0.529959 0.508838 0.365904
O O17 0.617955 0.599910 0.639249
#
# Coordination Sequence:
#
# PCOD9455190 Si02
#       8
#     8   8   8   8   8   8   8   8
#     4  12  28  46  74 108 148 193 241 296 365 438
#     4  11  24  41  72 102 144 181 248 292 358 425
#     4  11  23  41  66  98 140 177 230 299 361 418
#     4  10  20  36  64  97 137 166 231 286 368 403
#     4  11  24  45  72 101 136 192 242 289 351 438
#     4  10  20  38  69 101 131 185 233 297 351 423
#     4  11  24  43  72 105 139 186 243 296 363 421
#     4  12  26  48  73 101 140 189 240 290 361 429
#
# _framework density 22.579854999999998
#
# number of rings (size 3 to 8) (size 9 to 14) (size 15 to 20)
#    0.000    1.000    2.500    4.875    8.750    0.000 
#    2.250    0.625    0.000    0.000    0.000    0.000 
#    0.000    0.000    0.000    0.000    0.000    0.000 
#
# Total GULP energy -357916.306625 kJ/mol
# GULP energy per Si atom -5592.442291 kJ/mol
# Density = 2.252846 g / cm^3
# Si number density = 22.579855 Si / 1000 Ang^3
#
#
#
# Elastic Constant Matrix: (Units=GPa)
#
#
# Indices 1 2 3 4 5 6 
#
# 1 97.5331 33.8378 21.0837 0.0000 0.0000 0.0000
# 2 33.8378 129.9583 32.3653 0.0000 0.0000 0.0000
# 3 21.0837 32.3653 93.1929 0.0000 0.0000 0.0000
# 4 0.0000 0.0000 0.0000 38.2982 0.0000 0.0000
# 5 0.0000 0.0000 0.0000 0.0000 35.7225 0.0000
# 6 0.0000 0.0000 0.0000 0.0000 0.0000 29.5828
#
#
#
# Elastic Compliance Matrix: (Units=1/GPa)
#
#
# Indices 1 2 3 4 5 6 
#
# 1 0.011515 -0.002572 -0.001712 0.000000 0.000000 0.000000
# 2 -0.002572 0.008998 -0.002543 0.000000 0.000000 0.000000
# 3 -0.001712 -0.002543 0.012001 0.000000 0.000000 0.000000
# 4 0.000000 0.000000 0.000000 0.026111 0.000000 0.000000
# 5 0.000000 0.000000 0.000000 0.000000 0.027994 0.000000
# 6 0.000000 0.000000 0.000000 0.000000 0.000000 0.033803
#
#
# Mechanical properties :
#
#
# Convention : Reuss Voigt Hill
#
# Bulk Modulus (GPa) = 53.02182 55.02867 54.02525
# Shear Modulus (GPa) = 35.62206 36.28051 35.95128
#
# Velocity S-wave (km/s) = 3.97621 4.01280 3.99455
# Velocity P-wave (km/s) = 6.67932 6.77448 6.72707
#
# Compressibility (1/GPa) = 0.01886016
#
# Stress axis : x y z
#
# Youngs Moduli (GPa) = 86.84095 111.13881 83.32701
#
# Poissons Ratio (x) = 0.28584 0.14265
# Poissons Ratio (y) = 0.22335 0.21190
# Poissons Ratio (z) = 0.14867 0.28263
#
# Static dielectric constant tensor:
#      x y z
#    x 1.978870 0.000000 0.000000 
#    y 0.000000 1.819490 0.000000 
#    z 0.000000 0.000000 1.880530 
# 
# From -- ./inp_files/24458.got.cif
#   From: 2010.05.17/outbox.cif.g08.bks.cpg/sg60_13_cif.got.tgz:24458.got - 2010.06.03 14:59:27.
