data_PCOD9455983
_publ_section_title
;
Structure prediction by ZEFSAII (Michael W. Deem and Ramdas Pophale) SiO2 
 PCOD9455983
Probable space group: P B C N
;
_chemical_formula_sum "Si O2"
_cell_formula_units_Z 32
_cell_length_a 7.748099
_cell_length_b 34.244594
_cell_length_c 5.175074
_cell_angle_alpha 90.000000
_cell_angle_beta 90.000000
_cell_angle_gamma 90.000000
_cell_volume 1373.104995
_symmetry_space_group_name_H-M "P B C N"
_symmetry_group_IT_number 60
_symmetry_cell_setting 'orthorhombic'
loop_
_space_group_symop_operation_xyz
x,y,z
1/2-x,1/2-y,1/2+z
1/2+x,1/2-y,-z
-x,y,1/2-z
-x,-y,-z
1/2+x,1/2+y,1/2-z
1/2-x,1/2+y,z
x,-y,1/2+z
loop_
_atom_site_type_symbol
_atom_site_label
_atom_site_fract_x
_atom_site_fract_y
_atom_site_fract_z
Si Si1 0.790960 0.901065 0.253078
Si Si2 0.791656 0.145369 0.252215
Si Si3 0.682674 0.767534 0.630894
Si Si4 0.195005 0.484343 0.452368
O O1 0.741107 0.886685 0.537579
O O2 0.000000 0.905833 0.250000
O O3 0.743737 0.868614 0.038700
O O4 0.707039 0.941306 0.161820
O O5 0.716056 0.186710 0.169395
O O6 0.000000 0.148845 0.250000
O O7 0.694417 0.754996 0.334018
O O8 0.500000 0.756653 0.750000
O O9 0.277829 0.512003 0.234424
O O10 0.000000 0.500000 0.500000
#
# Coordination Sequence:
#
# PCOD9455983 Si02
#       4
#     8   8   8   8
#     4  10  21  38  62  88 122 163 212 267 324 392
#     4  10  21  40  63  94 128 167 210 266 332 388
#     4  12  25  44  69 102 136 179 224 274 331 404
#     4  10  21  38  56  84 117 160 209 256 331 375
#
# _framework density 23.304849000000001
#
# number of rings (size 3 to 8) (size 9 to 14) (size 15 to 20)
#    0.000    1.500    0.000    5.250    0.000    3.000 
#   13.500    0.000    0.000    0.000    0.000    0.000 
#    0.000    0.000    0.000    0.000    0.000    0.000 
#
# Total GULP energy -178966.434017 kJ/mol
# GULP energy per Si atom -5592.701063 kJ/mol
# Density = 2.325181 g / cm^3
# Si number density = 23.304849 Si / 1000 Ang^3
#
#
#
# Elastic Constant Matrix: (Units=GPa)
#
#
# Indices 1 2 3 4 5 6 
#
# 1 50.0834 9.7858 10.9739 0.0000 0.0000 0.0000
# 2 9.7858 92.7933 3.8736 0.0000 0.0000 0.0000
# 3 10.9739 3.8736 129.3874 0.0000 0.0000 0.0000
# 4 0.0000 0.0000 0.0000 47.7090 0.0000 0.0000
# 5 0.0000 0.0000 0.0000 0.0000 14.8914 0.0000
# 6 0.0000 0.0000 0.0000 0.0000 0.0000 37.0103
#
#
#
# Elastic Compliance Matrix: (Units=1/GPa)
#
#
# Indices 1 2 3 4 5 6 
#
# 1 0.020752 -0.002118 -0.001697 0.000000 0.000000 0.000000
# 2 -0.002118 0.011006 -0.000150 0.000000 0.000000 0.000000
# 3 -0.001697 -0.000150 0.007877 0.000000 0.000000 0.000000
# 4 0.000000 0.000000 0.000000 0.020960 0.000000 0.000000
# 5 0.000000 0.000000 0.000000 0.000000 0.067153 0.000000
# 6 0.000000 0.000000 0.000000 0.000000 0.000000 0.027020
#
#
# Mechanical properties :
#
#
# Convention : Reuss Voigt Hill
#
# Bulk Modulus (GPa) = 31.53871 35.72564 33.63217
# Shear Modulus (GPa) = 28.85736 36.43085 32.64411
#
# Velocity S-wave (km/s) = 3.52270 3.95806 3.74671
# Velocity P-wave (km/s) = 5.48711 6.02091 5.76020
#
# Compressibility (1/GPa) = 0.03170707
#
# Stress axis : x y z
#
# Youngs Moduli (GPa) = 48.18761 90.85768 126.95000
#
# Poissons Ratio (x) = 0.19241 0.21539
# Poissons Ratio (y) = 0.10205 0.01903
# Poissons Ratio (z) = 0.08176 0.01362
#
# Static dielectric constant tensor:
#      x y z
#    x 2.014120 0.000000 0.000000 
#    y 0.000000 1.833130 0.000000 
#    z 0.000000 0.000000 2.011510 
# 
# From -- ./inp_files/364.got.cif
#   From: 2010.05.17/outbox.cif.g08.bks.cpg/sg60_1_cif.got.tgz:364.got - 2010.06.03 14:59:27.
