data_PCOD9455559
_publ_section_title
;
Structure prediction by ZEFSAII (Michael W. Deem and Ramdas Pophale) SiO2 
 PCOD9455559
Probable space group: P B C N
;
_chemical_formula_sum "Si O2"
_cell_formula_units_Z 48
_cell_length_a 12.239924
_cell_length_b 14.604412
_cell_length_c 13.574084
_cell_angle_alpha 90.000000
_cell_angle_beta 90.000000
_cell_angle_gamma 90.000000
_cell_volume 2426.461080
_symmetry_space_group_name_H-M "P B C N"
_symmetry_group_IT_number 60
_symmetry_cell_setting 'orthorhombic'
loop_
_space_group_symop_operation_xyz
x,y,z
1/2-x,1/2-y,1/2+z
1/2+x,1/2-y,-z
-x,y,1/2-z
-x,-y,-z
1/2+x,1/2+y,1/2-z
1/2-x,1/2+y,z
x,-y,1/2+z
loop_
_atom_site_type_symbol
_atom_site_label
_atom_site_fract_x
_atom_site_fract_y
_atom_site_fract_z
Si Si1 0.171381 0.020841 0.566898
Si Si2 0.478954 0.390473 0.918869
Si Si3 0.953317 0.271734 0.546144
Si Si4 0.000000 0.656145 0.250000
Si Si5 0.000000 0.252460 0.250000
Si Si6 0.660478 0.131986 0.404981
Si Si7 0.699308 0.812466 0.373685
O O1 0.125865 0.061504 0.464852
O O2 0.217296 0.103865 0.632127
O O3 0.267934 0.948432 0.552476
O O4 0.069163 0.964961 0.612189
O O5 0.458358 0.316100 0.835302
O O6 0.531911 0.331463 0.008774
O O7 0.857671 0.315351 0.481748
O O8 0.944744 0.283480 0.663521
O O9 0.067439 0.325232 0.524758
O O10 0.908893 0.600491 0.309389
O O11 0.899671 0.308720 0.296108
O O12 0.736360 0.216373 0.371365
#
# Coordination Sequence:
#
# PCOD9455559 Si02
#       7
#     8   8   8   4   4   8   8
#     4  11  21  39  68  92 128 175 217 273 332 380
#     4  10  21  41  68  96 130 170 229 275 312 408
#     4   9  19  41  63  88 127 174 210 267 327 389
#     4   8  20  37  63  86 130 166 226 255 325 406
#     4  10  22  43  63 100 136 170 224 277 321 408
#     4  10  20  40  62  91 131 171 210 277 322 387
#     4  11  22  40  68  93 133 174 214 274 341 381
#
# _framework density 19.781896
#
# number of rings (size 3 to 8) (size 9 to 14) (size 15 to 20)
#    1.000    1.000    5.000    0.000    0.000    2.667 
#    0.000   10.833    0.000    0.000    0.000    0.000 
#    0.000    0.000    0.000    0.000    0.000    0.000 
#
# Total GULP energy -267320.949256 kJ/mol
# GULP energy per Si atom -5569.186443 kJ/mol
# Density = 1.973687 g / cm^3
# Si number density = 19.781896 Si / 1000 Ang^3
#
#
#
# Elastic Constant Matrix: (Units=GPa)
#
#
# Indices 1 2 3 4 5 6 
#
# 1 103.6827 41.7685 29.3745 0.0000 0.0000 0.0000
# 2 41.7685 90.5325 15.5721 0.0000 0.0000 0.0000
# 3 29.3745 15.5721 75.9860 0.0000 0.0000 0.0000
# 4 0.0000 0.0000 0.0000 4.1742 0.0000 0.0000
# 5 0.0000 0.0000 0.0000 0.0000 28.7166 0.0000
# 6 0.0000 0.0000 0.0000 0.0000 0.0000 24.6420
#
#
#
# Elastic Compliance Matrix: (Units=1/GPa)
#
#
# Indices 1 2 3 4 5 6 
#
# 1 0.012871 -0.005268 -0.003896 0.000000 0.000000 0.000000
# 2 -0.005268 0.013606 -0.000752 0.000000 0.000000 0.000000
# 3 -0.003896 -0.000752 0.014820 0.000000 0.000000 0.000000
# 4 0.000000 0.000000 0.000000 0.239566 0.000000 0.000000
# 5 0.000000 0.000000 0.000000 0.000000 0.034823 0.000000
# 6 0.000000 0.000000 0.000000 0.000000 0.000000 0.040581
#
#
# Mechanical properties :
#
#
# Convention : Reuss Voigt Hill
#
# Bulk Modulus (GPa) = 46.58666 49.29237 47.93951
# Shear Modulus (GPa) = 13.04618 23.73897 18.39258
#
# Velocity S-wave (km/s) = 2.57086 3.46791 3.05252
# Velocity P-wave (km/s) = 5.69330 6.40369 6.05892
#
# Compressibility (1/GPa) = 0.02146537
#
# Stress axis : x y z
#
# Youngs Moduli (GPa) = 77.69526 73.49953 67.47421
#
# Poissons Ratio (x) = 0.38720 0.26288
# Poissons Ratio (y) = 0.40930 0.05072
# Poissons Ratio (z) = 0.30270 0.05525
#
# Static dielectric constant tensor:
#      x y z
#    x 1.734520 0.000000 0.000000 
#    y 0.000000 1.702970 0.000000 
#    z 0.000000 0.000000 1.712900 
# 
# From -- ./inp_files/16109.got.cif
#   From: 2010.05.17/outbox.cif.g08.bks.cpg/sg60_9_cif.got.tgz:16109.got - 2010.06.03 14:59:27.
