data_PCOD9455778
_publ_section_title
;
Structure prediction by ZEFSAII (Michael W. Deem and Ramdas Pophale) SiO2 
 PCOD9455778
Probable space group: P B C N
;
_chemical_formula_sum "Si O2"
_cell_formula_units_Z 36
_cell_length_a 16.560822
_cell_length_b 25.543655
_cell_length_c 5.051981
_cell_angle_alpha 90.000000
_cell_angle_beta 90.000000
_cell_angle_gamma 90.000000
_cell_volume 2137.108825
_symmetry_space_group_name_H-M "P B C N"
_symmetry_group_IT_number 60
_symmetry_cell_setting 'orthorhombic'
loop_
_space_group_symop_operation_xyz
x,y,z
1/2-x,1/2-y,1/2+z
1/2+x,1/2-y,-z
-x,y,1/2-z
-x,-y,-z
1/2+x,1/2+y,1/2-z
1/2-x,1/2+y,z
x,-y,1/2+z
loop_
_atom_site_type_symbol
_atom_site_label
_atom_site_fract_x
_atom_site_fract_y
_atom_site_fract_z
Si Si1 0.000000 0.961527 0.250000
Si Si2 0.423645 0.371364 0.542475
Si Si3 0.175771 0.697322 0.784672
Si Si4 0.500000 0.208327 0.750000
Si Si5 0.500000 0.719083 0.750000
Si Si6 0.777601 0.818979 0.713402
O O1 0.069294 0.920472 0.344703
O O2 0.000000 0.000000 0.500000
O O3 0.500000 0.372858 0.750000
O O4 0.431935 0.320353 0.354842
O O5 0.343392 0.362202 0.709492
O O6 0.240060 0.675682 0.575187
O O7 0.182484 0.760872 0.764645
O O8 0.085247 0.680010 0.710563
O O9 0.204921 0.681563 0.074992
O O10 0.518425 0.244516 0.496740
#
# Coordination Sequence:
#
# PCOD9455778 Si02
#       6
#     4   8   8   4   4   8
#     4  11  24  39  54  80 102 132 174 220 273 324
#     4  11  22  34  57  72 100 138 174 217 255 320
#     4  10  21  31  46  66 104 127 178 223 244 295
#     4  12  20  33  48  67  98 146 172 223 259 288
#     4  11  20  28  50  69  90 132 188 205 242 300
#     4  10  21  32  45  73  94 132 174 221 250 282
#
# _framework density 16.845189000000001
#
# number of rings (size 3 to 8) (size 9 to 14) (size 15 to 20)
#    0.000    1.333    4.444    1.333   12.444    0.000 
#    0.000    0.000    0.000    0.000    0.000    0.000 
#    0.000    0.000    0.000   20.000    0.000    0.000 
#
# Total GULP energy -200700.398209 kJ/mol
# GULP energy per Si atom -5575.011061 kJ/mol
# Density = 1.680685 g / cm^3
# Si number density = 16.845189 Si / 1000 Ang^3
#
#
#
# Elastic Constant Matrix: (Units=GPa)
#
#
# Indices 1 2 3 4 5 6 
#
# 1 84.1684 6.3902 -1.0532 0.0000 0.0000 0.0000
# 2 6.3902 38.9417 10.6592 0.0000 0.0000 0.0000
# 3 -1.0532 10.6592 86.4548 0.0000 0.0000 0.0000
# 4 0.0000 0.0000 0.0000 15.8903 0.0000 0.0000
# 5 0.0000 0.0000 0.0000 0.0000 23.6241 0.0000
# 6 0.0000 0.0000 0.0000 0.0000 0.0000 7.9551
#
#
#
# Elastic Compliance Matrix: (Units=1/GPa)
#
#
# Indices 1 2 3 4 5 6 
#
# 1 0.012044 -0.002087 0.000404 0.000000 0.000000 0.000000
# 2 -0.002087 0.026938 -0.003347 0.000000 0.000000 0.000000
# 3 0.000404 -0.003347 0.011984 0.000000 0.000000 0.000000
# 4 0.000000 0.000000 0.000000 0.062931 0.000000 0.000000
# 5 0.000000 0.000000 0.000000 0.000000 0.042330 0.000000
# 6 0.000000 0.000000 0.000000 0.000000 0.000000 0.125706
#
#
# Mechanical properties :
#
#
# Convention : Reuss Voigt Hill
#
# Bulk Modulus (GPa) = 24.44548 26.83969 25.64259
# Shear Modulus (GPa) = 16.35972 22.39848 19.37910
#
# Velocity S-wave (km/s) = 3.11976 3.65041 3.39547
# Velocity P-wave (km/s) = 5.24600 5.80819 5.53424
#
# Compressibility (1/GPa) = 0.04090735
#
# Stress axis : x y z
#
# Youngs Moduli (GPa) = 83.02578 37.12232 83.44268
#
# Poissons Ratio (x) = 0.07748 -0.03371
# Poissons Ratio (y) = 0.17328 0.27925
# Poissons Ratio (z) = -0.03355 0.12424
#
# Static dielectric constant tensor:
#      x y z
#    x 1.635400 0.000000 0.000000 
#    y 0.000000 1.553360 0.000000 
#    z 0.000000 0.000000 1.603480 
# 
# From -- ./inp_files/1194.got.cif
#   From: 2010.05.17/outbox.cif.g08.bks.cpg/sg60_1_cif.got.tgz:1194.got - 2010.06.03 14:59:27.
