data_PCOD9455160
_publ_section_title
;
Structure prediction by ZEFSAII (Michael W. Deem and Ramdas Pophale) SiO2 
 PCOD9455160
Probable space group: P B C N
;
_chemical_formula_sum "Si O2"
_cell_formula_units_Z 48
_cell_length_a 5.014378
_cell_length_b 30.717432
_cell_length_c 14.648124
_cell_angle_alpha 90.000000
_cell_angle_beta 90.000000
_cell_angle_gamma 90.000000
_cell_volume 2256.233185
_symmetry_space_group_name_H-M "P B C N"
_symmetry_group_IT_number 60
_symmetry_cell_setting 'orthorhombic'
loop_
_space_group_symop_operation_xyz
x,y,z
1/2-x,1/2-y,1/2+z
1/2+x,1/2-y,-z
-x,y,1/2-z
-x,-y,-z
1/2+x,1/2+y,1/2-z
1/2-x,1/2+y,z
x,-y,1/2+z
loop_
_atom_site_type_symbol
_atom_site_label
_atom_site_fract_x
_atom_site_fract_y
_atom_site_fract_z
Si Si1 0.256221 0.001479 0.315341
Si Si2 0.425289 0.722691 0.988630
Si Si3 0.994218 0.409082 0.858980
Si Si4 0.234586 0.678265 0.809766
Si Si5 0.881256 0.090222 0.647080
Si Si6 0.980356 0.126822 0.043218
O O1 0.500000 0.987613 0.250000
O O2 0.196212 0.959154 0.375611
O O3 0.000000 0.012792 0.250000
O O4 0.373585 0.042883 0.368648
O O5 0.299981 0.708663 0.892971
O O6 0.718683 0.742037 0.973372
O O7 0.437859 0.677400 0.043089
O O8 0.198182 0.377361 0.908551
O O9 0.000000 0.401766 0.750000
O O10 0.704935 0.401376 0.903322
O O11 0.500000 0.673985 0.750000
O O12 0.164224 0.628922 0.842361
O O13 0.000000 0.696383 0.750000
O O14 0.044108 0.109368 0.561182
O O15 0.000000 0.085376 0.750000
#
# Coordination Sequence:
#
# PCOD9455160 Si02
#       6
#     8   8   8   8   8   8
#     4  10  20  36  60  88 124 167 205 249 300 347
#     4  11  23  42  63  88 121 151 193 253 308 364
#     4  11  23  42  62  87 127 169 211 251 286 346
#     4  10  20  37  61  87 118 153 190 239 304 369
#     4   9  21  38  62  94 126 156 198 252 308 369
#     4  11  24  41  66  92 118 164 207 247 315 367
#
# _framework density 21.274394999999998
#
# number of rings (size 3 to 8) (size 9 to 14) (size 15 to 20)
#    0.000    1.667    0.000    5.000    0.000   10.667 
#    0.000    8.333    0.000    0.000    0.000    0.000 
#    0.000    0.000    0.000    0.000    0.000    0.000 
#
# Total GULP energy -267820.656408 kJ/mol
# GULP energy per Si atom -5579.597009 kJ/mol
# Density = 2.122597 g / cm^3
# Si number density = 21.274395 Si / 1000 Ang^3
#
#
#
# Elastic Constant Matrix: (Units=GPa)
#
#
# Indices 1 2 3 4 5 6 
#
# 1 77.0184 -4.8523 6.4553 0.0000 0.0000 0.0000
# 2 -4.8523 84.3881 11.1817 0.0000 0.0000 0.0000
# 3 6.4553 11.1817 75.4611 0.0000 0.0000 0.0000
# 4 0.0000 0.0000 0.0000 25.1537 0.0000 0.0000
# 5 0.0000 0.0000 0.0000 0.0000 36.4514 0.0000
# 6 0.0000 0.0000 0.0000 0.0000 0.0000 -4.6634
#
#
#
# Elastic Compliance Matrix: (Units=1/GPa)
#
#
# Indices 1 2 3 4 5 6 
#
# 1 0.013148 0.000923 -0.001262 0.000000 0.000000 0.000000
# 2 0.000923 0.012152 -0.001880 0.000000 0.000000 0.000000
# 3 -0.001262 -0.001880 0.013638 0.000000 0.000000 0.000000
# 4 0.000000 0.000000 0.000000 0.039756 0.000000 0.000000
# 5 0.000000 0.000000 0.000000 0.000000 0.027434 0.000000
# 6 0.000000 0.000000 0.000000 0.000000 0.000000 -0.214437
#
#
# Mechanical properties :
#
#
# Convention : Reuss Voigt Hill
#
# Bulk Modulus (GPa) = 28.98364 29.15966 29.07165
# Shear Modulus (GPa) = -54.12837 26.32719 -13.90059
#
# Velocity S-wave (km/s) = -5.04957 3.52164 -2.55893
# Velocity P-wave (km/s) = 4.51047 5.50201 2.22798
#
# Compressibility (1/GPa) = 0.03450223
#
# Stress axis : x y z
#
# Youngs Moduli (GPa) = 76.05833 82.28993 73.32289
#
# Poissons Ratio (x) = -0.07597 0.09250
# Poissons Ratio (y) = -0.07021 0.13782
# Poissons Ratio (z) = 0.09595 0.15468
#
# Static dielectric constant tensor:
#      x y z
#    x 1.653100 0.000000 0.000000 
#    y 0.000000 1.817500 0.000000 
#    z 0.000000 0.000000 1.767690 
# 
# From -- ./inp_files/13926.got.cif
#   From: 2010.05.17/outbox.cif.g08.bks.cpg/sg60_7_cif.got.tgz:13926.got - 2010.06.03 14:59:27.
