data_PCOD9455198
_publ_section_title
;
Structure prediction by ZEFSAII (Michael W. Deem and Ramdas Pophale) SiO2 
 PCOD9455198
Probable space group: P B C N
;
_chemical_formula_sum "Si O2"
_cell_formula_units_Z 44
_cell_length_a 4.983427
_cell_length_b 24.437668
_cell_length_c 15.380066
_cell_angle_alpha 90.000000
_cell_angle_beta 90.000000
_cell_angle_gamma 90.000000
_cell_volume 1873.035723
_symmetry_space_group_name_H-M "P B C N"
_symmetry_group_IT_number 60
_symmetry_cell_setting 'orthorhombic'
loop_
_space_group_symop_operation_xyz
x,y,z
1/2-x,1/2-y,1/2+z
1/2+x,1/2-y,-z
-x,y,1/2-z
-x,-y,-z
1/2+x,1/2+y,1/2-z
1/2-x,1/2+y,z
x,-y,1/2+z
loop_
_atom_site_type_symbol
_atom_site_label
_atom_site_fract_x
_atom_site_fract_y
_atom_site_fract_z
Si Si1 0.712962 0.781225 0.019605
Si Si2 0.810423 0.942265 0.109064
Si Si3 0.591266 0.336700 0.350429
Si Si4 0.504779 0.102438 0.046351
Si Si5 0.491178 0.562183 0.145833
Si Si6 0.000000 0.384763 0.250000
O O1 0.915398 0.792416 0.100256
O O2 0.445367 0.746150 0.041401
O O3 0.585761 0.836166 0.978957
O O4 0.700901 0.926774 0.204332
O O5 0.018605 0.892300 0.097389
O O6 0.942195 0.000976 0.112779
O O7 0.577550 0.934808 0.037500
O O8 0.500000 0.335644 0.250000
O O9 0.904209 0.345796 0.329157
O O10 0.795486 0.098350 0.090661
O O11 0.303734 0.079632 0.118771
O O12 0.500000 0.565181 0.250000
#
# Coordination Sequence:
#
# PCOD9455198 Si02
#       6
#     8   8   8   8   8   4
#     4  11  25  45  72  96 129 173 233 291 357 411
#     4  10  23  38  67 101 142 178 230 271 344 403
#     4   9  21  38  64 101 135 166 217 292 344 402
#     4  11  26  44  69  99 138 180 233 292 340 403
#     4  12  25  43  67  99 147 192 227 263 331 421
#     4  10  20  36  68 100 140 170 218 284 348 392
#
# _framework density 23.491278000000001
#
# number of rings (size 3 to 8) (size 9 to 14) (size 15 to 20)
#    0.000    1.455    0.000    4.364   17.818    0.000 
#    0.000    3.636    0.000    0.000    0.000    0.000 
#    0.000    0.000    0.000    0.000    0.000    0.000 
#
# Total GULP energy -245380.857045 kJ/mol
# GULP energy per Si atom -5576.837660 kJ/mol
# Density = 2.343781 g / cm^3
# Si number density = 23.491278 Si / 1000 Ang^3
#
#
#
# Elastic Constant Matrix: (Units=GPa)
#
#
# Indices 1 2 3 4 5 6 
#
# 1 87.2088 5.5487 9.4606 0.0000 0.0000 0.0000
# 2 5.5487 77.3285 12.3145 0.0000 0.0000 0.0000
# 3 9.4606 12.3145 109.4321 0.0000 0.0000 0.0000
# 4 0.0000 0.0000 0.0000 16.3562 0.0000 0.0000
# 5 0.0000 0.0000 0.0000 0.0000 44.9396 0.0000
# 6 0.0000 0.0000 0.0000 0.0000 0.0000 24.3440
#
#
#
# Elastic Compliance Matrix: (Units=1/GPa)
#
#
# Indices 1 2 3 4 5 6 
#
# 1 0.011611 -0.000686 -0.000927 0.000000 0.000000 0.000000
# 2 -0.000686 0.013208 -0.001427 0.000000 0.000000 0.000000
# 3 -0.000927 -0.001427 0.009379 0.000000 0.000000 0.000000
# 4 0.000000 0.000000 0.000000 0.061139 0.000000 0.000000
# 5 0.000000 0.000000 0.000000 0.000000 0.022252 0.000000
# 6 0.000000 0.000000 0.000000 0.000000 0.000000 0.041078
#
#
# Mechanical properties :
#
#
# Convention : Reuss Voigt Hill
#
# Bulk Modulus (GPa) = 35.56264 36.51300 36.03782
# Shear Modulus (GPa) = 28.71610 33.57102 31.14356
#
# Velocity S-wave (km/s) = 3.50010 3.78442 3.64503
# Velocity P-wave (km/s) = 5.61300 5.88836 5.75233
#
# Compressibility (1/GPa) = 0.02811940
#
# Stress axis : x y z
#
# Youngs Moduli (GPa) = 86.12620 75.71002 106.62362
#
# Poissons Ratio (x) = 0.05190 0.09880
# Poissons Ratio (y) = 0.05905 0.15216
# Poissons Ratio (z) = 0.07981 0.10804
#
# Static dielectric constant tensor:
#      x y z
#    x 2.197790 0.000000 0.000000 
#    y 0.000000 1.960020 0.000000 
#    z 0.000000 0.000000 1.904910 
# 
# From -- ./inp_files/13875.got.cif
#   From: 2010.05.17/outbox.cif.g08.bks.cpg/sg60_7_cif.got.tgz:13875.got - 2010.06.03 14:59:27.
