data_PCOD9455570
_publ_section_title
;
Structure prediction by ZEFSAII (Michael W. Deem and Ramdas Pophale) SiO2 
 PCOD9455570
Probable space group: P B C N
;
_chemical_formula_sum "Si O2"
_cell_formula_units_Z 28
_cell_length_a 5.054805
_cell_length_b 13.454280
_cell_length_c 16.756026
_cell_angle_alpha 90.000000
_cell_angle_beta 90.000000
_cell_angle_gamma 90.000000
_cell_volume 1139.556581
_symmetry_space_group_name_H-M "P B C N"
_symmetry_group_IT_number 60
_symmetry_cell_setting 'orthorhombic'
loop_
_space_group_symop_operation_xyz
x,y,z
1/2-x,1/2-y,1/2+z
1/2+x,1/2-y,-z
-x,y,1/2-z
-x,-y,-z
1/2+x,1/2+y,1/2-z
1/2-x,1/2+y,z
x,-y,1/2+z
loop_
_atom_site_type_symbol
_atom_site_label
_atom_site_fract_x
_atom_site_fract_y
_atom_site_fract_z
Si Si1 0.000000 0.292815 0.250000
Si Si2 0.390147 0.742481 0.551858
Si Si3 0.144690 0.620045 0.322138
Si Si4 0.639438 0.579785 0.663112
O O1 0.778814 0.211150 0.225529
O O2 0.926977 0.368211 0.177597
O O3 0.091072 0.746888 0.522337
O O4 0.458964 0.833013 0.611188
O O5 0.478848 0.643805 0.599105
O O6 0.334893 0.536095 0.357861
O O7 0.000000 0.564525 0.250000
O O8 0.500000 0.588936 0.750000
#
# Coordination Sequence:
#
# PCOD9455570 Si02
#       4
#     4   8   8   8
#     4  10  20  40  64 100 136 166 224 296 350 398
#     4  11  28  45  68 102 152 193 228 289 363 435
#     4  11  24  42  75 103 134 184 245 300 350 416
#     4  11  24  42  75 103 134 184 245 300 350 416
#
# _framework density 24.570959999999999
#
# number of rings (size 3 to 8) (size 9 to 14) (size 15 to 20)
#    0.000    1.143    2.857    3.429   16.000    2.286 
#    0.000    0.000    0.000    0.000    0.000    0.000 
#    0.000    0.000    0.000    0.000    0.000    0.000 
#
# Total GULP energy -156238.205708 kJ/mol
# GULP energy per Si atom -5579.935918 kJ/mol
# Density = 2.451504 g / cm^3
# Si number density = 24.570960 Si / 1000 Ang^3
#
#
#
# Elastic Constant Matrix: (Units=GPa)
#
#
# Indices 1 2 3 4 5 6 
#
# 1 54.9707 4.2709 9.8644 0.0000 0.0000 0.0000
# 2 4.2709 147.3410 17.9119 0.0000 0.0000 0.0000
# 3 9.8644 17.9119 85.1487 0.0000 0.0000 0.0000
# 4 0.0000 0.0000 0.0000 22.1545 0.0000 0.0000
# 5 0.0000 0.0000 0.0000 0.0000 56.1808 0.0000
# 6 0.0000 0.0000 0.0000 0.0000 0.0000 15.6575
#
#
#
# Elastic Compliance Matrix: (Units=1/GPa)
#
#
# Indices 1 2 3 4 5 6 
#
# 1 0.018589 -0.000284 -0.002094 0.000000 0.000000 0.000000
# 2 -0.000284 0.006969 -0.001433 0.000000 0.000000 0.000000
# 3 -0.002094 -0.001433 0.012288 0.000000 0.000000 0.000000
# 4 0.000000 0.000000 0.000000 0.045138 0.000000 0.000000
# 5 0.000000 0.000000 0.000000 0.000000 0.017800 0.000000
# 6 0.000000 0.000000 0.000000 0.000000 0.000000 0.063867
#
#
# Mechanical properties :
#
#
# Convention : Reuss Voigt Hill
#
# Bulk Modulus (GPa) = 33.08571 39.06164 36.07367
# Shear Modulus (GPa) = 27.42002 35.82610 31.62306
#
# Velocity S-wave (km/s) = 3.34421 3.82261 3.59138
# Velocity P-wave (km/s) = 5.32975 5.95106 5.64895
#
# Compressibility (1/GPa) = 0.03022453
#
# Stress axis : x y z
#
# Youngs Moduli (GPa) = 53.79432 143.48343 81.37888
#
# Poissons Ratio (x) = 0.04079 0.17039
# Poissons Ratio (y) = 0.01529 0.11663
# Poissons Ratio (z) = 0.11263 0.20563
#
# Static dielectric constant tensor:
#      x y z
#    x 2.058390 0.000000 0.000000 
#    y 0.000000 1.941530 0.000000 
#    z 0.000000 0.000000 1.980590 
# 
# From -- ./inp_files/18337.got.cif
#   From: 2010.05.17/outbox.cif.g08.bks.cpg/sg60_10_cif.got.tgz:18337.got - 2010.06.03 14:59:27.
