data_PCOD9455330
_publ_section_title
;
Structure prediction by ZEFSAII (Michael W. Deem and Ramdas Pophale) SiO2 
 PCOD9455330
Probable space group: P B C N
;
_chemical_formula_sum "Si O2"
_cell_formula_units_Z 56
_cell_length_a 14.687005
_cell_length_b 17.674808
_cell_length_c 8.492929
_cell_angle_alpha 90.000000
_cell_angle_beta 90.000000
_cell_angle_gamma 90.000000
_cell_volume 2204.679384
_symmetry_space_group_name_H-M "P B C N"
_symmetry_group_IT_number 60
_symmetry_cell_setting 'orthorhombic'
loop_
_space_group_symop_operation_xyz
x,y,z
1/2-x,1/2-y,1/2+z
1/2+x,1/2-y,-z
-x,y,1/2-z
-x,-y,-z
1/2+x,1/2+y,1/2-z
1/2-x,1/2+y,z
x,-y,1/2+z
loop_
_atom_site_type_symbol
_atom_site_label
_atom_site_fract_x
_atom_site_fract_y
_atom_site_fract_z
Si Si1 0.147366 0.962783 0.416011
Si Si2 0.393356 0.755463 0.403535
Si Si3 0.440002 0.804963 0.912656
Si Si4 0.141159 0.896248 0.738918
Si Si5 0.151730 0.419703 0.418100
Si Si6 0.356382 0.935963 0.760828
Si Si7 0.108694 0.175603 0.733396
O O1 0.106283 0.922108 0.567879
O O2 0.254550 0.965276 0.453099
O O3 0.148374 0.906524 0.266521
O O4 0.107017 0.042782 0.367554
O O5 0.495795 0.784213 0.442832
O O6 0.383682 0.688832 0.279315
O O7 0.339351 0.832652 0.366858
O O8 0.365524 0.714404 0.568931
O O9 0.500000 0.804208 0.750000
O O10 0.392518 0.885113 0.904491
O O11 0.370920 0.736159 0.872410
O O12 0.250497 0.909278 0.746821
O O13 0.114913 0.477581 0.290408
O O14 0.104287 0.415522 0.588110
O O15 0.000000 0.160213 0.750000
#
# Coordination Sequence:
#
# PCOD9455330 Si02
#       7
#     8   8   8   8   8   8   8
#     4  10  21  38  60  91 120 162 202 259 306 373
#     4  10  20  38  59  89 120 161 205 257 296 371
#     4   9  18  37  60  82 119 161 199 236 304 370
#     4  10  22  38  61  91 127 153 209 257 308 360
#     4  10  21  36  61  90 123 158 209 247 310 359
#     4  10  20  40  58  90 123 165 198 251 307 372
#     4   9  19  38  64  86 117 164 204 240 314 364
#
# _framework density 25.400518999999999
#
# number of rings (size 3 to 8) (size 9 to 14) (size 15 to 20)
#    0.000    2.571    2.857    0.857    2.000    1.714 
#    2.571    9.286    0.000    0.000    0.000    0.000 
#    0.000    0.000    0.000    0.000    0.000    0.000 
#
# Total GULP energy -312466.223466 kJ/mol
# GULP energy per Si atom -5579.753990 kJ/mol
# Density = 2.534271 g / cm^3
# Si number density = 25.400519 Si / 1000 Ang^3
#
#
#
# Elastic Constant Matrix: (Units=GPa)
#
#
# Indices 1 2 3 4 5 6 
#
# 1 42.7265 10.1941 -2.8684 0.0000 0.0000 0.0000
# 2 10.1941 188.0103 61.1469 0.0000 0.0000 0.0000
# 3 -2.8684 61.1469 75.1145 0.0000 0.0000 0.0000
# 4 0.0000 0.0000 0.0000 30.0439 0.0000 0.0000
# 5 0.0000 0.0000 0.0000 0.0000 13.1996 0.0000
# 6 0.0000 0.0000 0.0000 0.0000 0.0000 42.3577
#
#
#
# Elastic Compliance Matrix: (Units=1/GPa)
#
#
# Indices 1 2 3 4 5 6 
#
# 1 0.024107 -0.002185 0.002699 0.000000 0.000000 0.000000
# 2 -0.002185 0.007432 -0.006134 0.000000 0.000000 0.000000
# 3 0.002699 -0.006134 0.018409 0.000000 0.000000 0.000000
# 4 0.000000 0.000000 0.000000 0.033285 0.000000 0.000000
# 5 0.000000 0.000000 0.000000 0.000000 0.075760 0.000000
# 6 0.000000 0.000000 0.000000 0.000000 0.000000 0.023608
#
#
# Mechanical properties :
#
#
# Convention : Reuss Voigt Hill
#
# Bulk Modulus (GPa) = 25.83319 49.19961 37.51640
# Shear Modulus (GPa) = 24.18459 32.94550 28.56504
#
# Velocity S-wave (km/s) = 3.08901 3.60535 3.35712
# Velocity P-wave (km/s) = 4.78697 6.06160 5.46159
#
# Compressibility (1/GPa) = 0.03870989
#
# Stress axis : x y z
#
# Youngs Moduli (GPa) = 41.48136 134.55023 54.32090
#
# Poissons Ratio (x) = 0.29399 -0.14663
# Poissons Ratio (y) = 0.09064 0.33318
# Poissons Ratio (z) = -0.11197 0.82528
#
# Static dielectric constant tensor:
#      x y z
#    x 2.114330 0.000000 0.000000 
#    y 0.000000 2.097370 0.000000 
#    z 0.000000 0.000000 2.084880 
# 
# From -- ./inp_files/7389.got.cif
#   From: 2010.05.17/outbox.cif.g08.bks.cpg/sg60_4_cif.got.tgz:7389.got - 2010.06.03 14:59:27.
