data_PCOD9455716
_publ_section_title
;
Structure prediction by ZEFSAII (Michael W. Deem and Ramdas Pophale) SiO2 
 PCOD9455716
Probable space group: P B C N
;
_chemical_formula_sum "Si O2"
_cell_formula_units_Z 48
_cell_length_a 21.919649
_cell_length_b 7.750666
_cell_length_c 11.675411
_cell_angle_alpha 90.000000
_cell_angle_beta 90.000000
_cell_angle_gamma 90.000000
_cell_volume 1983.557504
_symmetry_space_group_name_H-M "P B C N"
_symmetry_group_IT_number 60
_symmetry_cell_setting 'orthorhombic'
loop_
_space_group_symop_operation_xyz
x,y,z
1/2-x,1/2-y,1/2+z
1/2+x,1/2-y,-z
-x,y,1/2-z
-x,-y,-z
1/2+x,1/2+y,1/2-z
1/2-x,1/2+y,z
x,-y,1/2+z
loop_
_atom_site_type_symbol
_atom_site_label
_atom_site_fract_x
_atom_site_fract_y
_atom_site_fract_z
Si Si1 0.650856 0.343105 0.208189
Si Si2 0.437272 0.656014 0.578219
Si Si3 0.066484 0.760570 0.489586
Si Si4 0.164027 0.778843 0.898757
Si Si5 0.345223 0.845979 0.156196
Si Si6 0.263971 0.169725 0.106028
O O1 0.595316 0.346826 0.299424
O O2 0.621455 0.242141 0.101262
O O3 0.665692 0.529689 0.154725
O O4 0.706757 0.268753 0.283330
O O5 0.501239 0.755983 0.570939
O O6 0.439985 0.455544 0.539497
O O7 0.392480 0.738037 0.484733
O O8 0.089146 0.649389 0.597690
O O9 0.154687 0.652199 0.792515
O O10 0.220852 0.746957 0.981660
O O11 0.308655 0.670351 0.121205
O O12 0.299899 0.991252 0.110807
#
# Coordination Sequence:
#
# PCOD9455716 Si02
#       6
#     8   8   8   8   8   8
#     4  10  20  42  68  98 134 175 221 271 337 397
#     4   9  19  40  67 103 128 171 220 274 331 395
#     4  10  21  36  69 100 133 168 225 275 326 403
#     4  10  23  43  68  94 138 173 224 281 334 410
#     4  12  26  43  65  98 133 185 227 280 348 390
#     4  11  28  42  67  97 139 180 229 281 338 411
#
# _framework density 24.198944999999998
#
# number of rings (size 3 to 8) (size 9 to 14) (size 15 to 20)
#    0.000    1.667    1.667    1.500    9.333    0.667 
#    0.000    3.333    7.333    0.000    0.000    0.000 
#    0.000    0.000    0.000    0.000    0.000    0.000 
#
# Total GULP energy -268362.116683 kJ/mol
# GULP energy per Si atom -5590.877431 kJ/mol
# Density = 2.414387 g / cm^3
# Si number density = 24.198945 Si / 1000 Ang^3
#
#
#
# Elastic Constant Matrix: (Units=GPa)
#
#
# Indices 1 2 3 4 5 6 
#
# 1 47.6328 10.2289 7.7400 0.0000 0.0000 0.0000
# 2 10.2289 45.9329 17.7340 0.0000 0.0000 0.0000
# 3 7.7400 17.7340 151.8419 0.0000 0.0000 0.0000
# 4 0.0000 0.0000 0.0000 32.4612 0.0000 0.0000
# 5 0.0000 0.0000 0.0000 0.0000 19.8282 0.0000
# 6 0.0000 0.0000 0.0000 0.0000 0.0000 24.2715
#
#
#
# Elastic Compliance Matrix: (Units=1/GPa)
#
#
# Indices 1 2 3 4 5 6 
#
# 1 0.022097 -0.004698 -0.000578 0.000000 0.000000 0.000000
# 2 -0.004698 0.023798 -0.002540 0.000000 0.000000 0.000000
# 3 -0.000578 -0.002540 0.006912 0.000000 0.000000 0.000000
# 4 0.000000 0.000000 0.000000 0.030806 0.000000 0.000000
# 5 0.000000 0.000000 0.000000 0.000000 0.050433 0.000000
# 6 0.000000 0.000000 0.000000 0.000000 0.000000 0.041201
#
#
# Mechanical properties :
#
#
# Convention : Reuss Voigt Hill
#
# Bulk Modulus (GPa) = 26.89944 35.20151 31.05047
# Shear Modulus (GPa) = 24.59800 29.29248 26.94524
#
# Velocity S-wave (km/s) = 3.19170 3.48298 3.34052
# Velocity P-wave (km/s) = 4.97219 5.54555 5.26668
#
# Compressibility (1/GPa) = 0.03717550
#
# Stress axis : x y z
#
# Youngs Moduli (GPa) = 45.25585 42.02099 144.67825
#
# Poissons Ratio (x) = 0.19740 0.08358
# Poissons Ratio (y) = 0.21260 0.36747
# Poissons Ratio (z) = 0.02614 0.10673
#
# Static dielectric constant tensor:
#      x y z
#    x 1.917610 0.000000 0.000000 
#    y 0.000000 2.086160 0.000000 
#    z 0.000000 0.000000 1.911260 
# 
# From -- ./inp_files/13071.got.cif
#   From: 2010.05.17/outbox.cif.g08.bks.cpg/sg60_7_cif.got.tgz:13071.got - 2010.06.03 14:59:27.
