data_PCOD9455744
_publ_section_title
;
Structure prediction by ZEFSAII (Michael W. Deem and Ramdas Pophale) SiO2 
 PCOD9455744
Probable space group: P B C N
;
_chemical_formula_sum "Si O2"
_cell_formula_units_Z 60
_cell_length_a 24.235823
_cell_length_b 8.836548
_cell_length_c 12.630940
_cell_angle_alpha 90.000000
_cell_angle_beta 90.000000
_cell_angle_gamma 90.000000
_cell_volume 2705.054909
_symmetry_space_group_name_H-M "P B C N"
_symmetry_group_IT_number 60
_symmetry_cell_setting 'orthorhombic'
loop_
_space_group_symop_operation_xyz
x,y,z
1/2-x,1/2-y,1/2+z
1/2+x,1/2-y,-z
-x,y,1/2-z
-x,-y,-z
1/2+x,1/2+y,1/2-z
1/2-x,1/2+y,z
x,-y,1/2+z
loop_
_atom_site_type_symbol
_atom_site_label
_atom_site_fract_x
_atom_site_fract_y
_atom_site_fract_z
Si Si1 0.467558 0.878441 0.571053
Si Si2 0.762538 0.658304 0.354773
Si Si3 0.082178 0.216445 0.394814
Si Si4 0.152314 0.244576 0.825436
Si Si5 0.207951 0.603512 0.499026
Si Si6 0.538239 0.395958 0.153636
Si Si7 0.805205 0.922164 0.661814
Si Si8 0.000000 0.585404 0.750000
O O1 0.417125 0.809677 0.504366
O O2 0.505813 0.731476 0.589248
O O3 0.500000 0.000000 0.500000
O O4 0.462152 0.972780 0.679109
O O5 0.811870 0.709211 0.276334
O O6 0.722826 0.784879 0.404981
O O7 0.787926 0.559827 0.448808
O O8 0.721177 0.566955 0.277763
O O9 0.142226 0.187372 0.345031
O O10 0.040783 0.309637 0.318815
O O11 0.057950 0.045640 0.407806
O O12 0.090999 0.191814 0.798659
O O13 0.178309 0.090354 0.871942
O O14 0.155833 0.361977 0.923450
O O15 0.257974 0.629332 0.417202
O O16 0.500000 0.448041 0.250000
#
# Coordination Sequence:
#
# PCOD9455744 Si02
#       8
#     8   8   8   8   8   8   8   4
#     4  10  22  43  63  90 138 170 215 280 334 393
#     4  11  22  43  65  97 130 173 217 269 337 396
#     4  10  22  43  68  97 128 180 223 274 334 398
#     4  10  23  42  67  96 130 170 223 277 327 399
#     4  11  22  43  65  94 133 172 215 270 341 396
#     4  11  22  44  68  96 131 176 229 276 331 406
#     4  10  22  42  67  96 133 165 225 279 317 407
#     4  10  20  44  64  94 136 174 222 278 344 404
#
# _framework density 22.180693999999999
#
# number of rings (size 3 to 8) (size 9 to 14) (size 15 to 20)
#    0.000    1.600    4.000    0.400    0.000    1.067 
#   16.800    0.000    0.000    0.000    0.000    0.000 
#    0.000    0.000    0.000    0.000    0.000    0.000 
#
# Total GULP energy -334908.976435 kJ/mol
# GULP energy per Si atom -5581.816274 kJ/mol
# Density = 2.213021 g / cm^3
# Si number density = 22.180694 Si / 1000 Ang^3
#
#
#
# Elastic Constant Matrix: (Units=GPa)
#
#
# Indices 1 2 3 4 5 6 
#
# 1 73.2507 15.3494 12.6800 0.0000 0.0000 0.0000
# 2 15.3494 93.4355 25.6728 0.0000 0.0000 0.0000
# 3 12.6800 25.6728 62.8006 0.0000 0.0000 0.0000
# 4 0.0000 0.0000 0.0000 38.8342 0.0000 0.0000
# 5 0.0000 0.0000 0.0000 0.0000 19.6608 0.0000
# 6 0.0000 0.0000 0.0000 0.0000 0.0000 23.8088
#
#
#
# Elastic Compliance Matrix: (Units=1/GPa)
#
#
# Indices 1 2 3 4 5 6 
#
# 1 0.014400 -0.001765 -0.002186 0.000000 0.000000 0.000000
# 2 -0.001765 0.012273 -0.004661 0.000000 0.000000 0.000000
# 3 -0.002186 -0.004661 0.018270 0.000000 0.000000 0.000000
# 4 0.000000 0.000000 0.000000 0.025751 0.000000 0.000000
# 5 0.000000 0.000000 0.000000 0.000000 0.050863 0.000000
# 6 0.000000 0.000000 0.000000 0.000000 0.000000 0.042001
#
#
# Mechanical properties :
#
#
# Convention : Reuss Voigt Hill
#
# Bulk Modulus (GPa) = 36.07551 37.43236 36.75393
# Shear Modulus (GPa) = 26.31283 28.17972 27.24627
#
# Velocity S-wave (km/s) = 3.44800 3.56822 3.50862
# Velocity P-wave (km/s) = 5.67021 5.82143 5.74631
#
# Compressibility (1/GPa) = 0.02771964
#
# Stress axis : x y z
#
# Youngs Moduli (GPa) = 69.44449 81.47855 54.73406
#
# Poissons Ratio (x) = 0.14381 0.11965
# Poissons Ratio (y) = 0.12257 0.25511
# Poissons Ratio (z) = 0.15180 0.37976
#
# Static dielectric constant tensor:
#      x y z
#    x 1.821200 0.000000 0.000000 
#    y 0.000000 1.791220 0.000000 
#    z 0.000000 0.000000 1.831850 
# 
# From -- ./inp_files/13291.got.cif
#   From: 2010.05.17/outbox.cif.g08.bks.cpg/sg60_7_cif.got.tgz:13291.got - 2010.06.03 14:59:27.
