data_PCOD9455209
_publ_section_title
;
Structure prediction by ZEFSAII (Michael W. Deem and Ramdas Pophale) SiO2 
 PCOD9455209
Probable space group: P B C N
;
_chemical_formula_sum "Si O2"
_cell_formula_units_Z 40
_cell_length_a 8.466161
_cell_length_b 11.778721
_cell_length_c 17.556434
_cell_angle_alpha 90.000000
_cell_angle_beta 90.000000
_cell_angle_gamma 90.000000
_cell_volume 1750.737226
_symmetry_space_group_name_H-M "P B C N"
_symmetry_group_IT_number 60
_symmetry_cell_setting 'orthorhombic'
loop_
_space_group_symop_operation_xyz
x,y,z
1/2-x,1/2-y,1/2+z
1/2+x,1/2-y,-z
-x,y,1/2-z
-x,-y,-z
1/2+x,1/2+y,1/2-z
1/2-x,1/2+y,z
x,-y,1/2+z
loop_
_atom_site_type_symbol
_atom_site_label
_atom_site_fract_x
_atom_site_fract_y
_atom_site_fract_z
Si Si1 0.053658 0.053875 0.419565
Si Si2 0.602124 0.636001 0.818222
Si Si3 0.902721 0.509216 0.817159
Si Si4 0.872314 0.551062 0.557845
Si Si5 0.244620 0.818903 0.576285
O O1 0.242689 0.046289 0.422815
O O2 0.999840 0.966596 0.353707
O O3 0.000000 0.000000 0.500000
O O4 0.944378 0.165951 0.413241
O O5 0.500000 0.689025 0.750000
O O6 0.764246 0.586644 0.784502
O O7 0.666737 0.710872 0.888980
O O8 0.817772 0.420402 0.872595
O O9 0.000000 0.452636 0.750000
O O10 0.028076 0.578662 0.867579
O O11 0.788066 0.652429 0.511256
O O12 0.000000 0.500000 0.500000
#
# Coordination Sequence:
#
# PCOD9455209 Si02
#       5
#     8   8   8   8   8
#     4   9  19  38  61  84 117 157 198 246 301 359
#     4  11  22  37  59  90 121 156 201 248 300 365
#     4  10  20  37  56  79 115 154 194 243 296 350
#     4   9  18  35  59  85 113 154 199 241 293 357
#     4   9  20  37  59  84 115 153 196 246 301 353
#
# _framework density 22.847518000000001
#
# number of rings (size 3 to 8) (size 9 to 14) (size 15 to 20)
#    0.000    2.400    0.000    3.000    0.000    3.200 
#    0.000   14.000    0.000    0.000    0.000    0.000 
#    0.000    0.000    0.000    0.000    0.000    0.000 
#
# Total GULP energy -222990.566740 kJ/mol
# GULP energy per Si atom -5574.764169 kJ/mol
# Density = 2.279552 g / cm^3
# Si number density = 22.847518 Si / 1000 Ang^3
#
#
#
# Elastic Constant Matrix: (Units=GPa)
#
#
# Indices 1 2 3 4 5 6 
#
# 1 173.7038 24.9748 40.3386 0.0000 0.0000 0.0000
# 2 24.9748 34.3953 3.8452 0.0000 0.0000 0.0000
# 3 40.3386 3.8452 78.6927 0.0000 0.0000 0.0000
# 4 0.0000 0.0000 0.0000 10.5220 0.0000 0.0000
# 5 0.0000 0.0000 0.0000 0.0000 46.5532 0.0000
# 6 0.0000 0.0000 0.0000 0.0000 0.0000 18.0298
#
#
#
# Elastic Compliance Matrix: (Units=1/GPa)
#
#
# Indices 1 2 3 4 5 6 
#
# 1 0.007270 -0.004889 -0.003488 0.000000 0.000000 0.000000
# 2 -0.004889 0.032521 0.000917 0.000000 0.000000 0.000000
# 3 -0.003488 0.000917 0.014451 0.000000 0.000000 0.000000
# 4 0.000000 0.000000 0.000000 0.095039 0.000000 0.000000
# 5 0.000000 0.000000 0.000000 0.000000 0.021481 0.000000
# 6 0.000000 0.000000 0.000000 0.000000 0.000000 0.055464
#
#
# Mechanical properties :
#
#
# Convention : Reuss Voigt Hill
#
# Bulk Modulus (GPa) = 25.43077 47.23434 36.33255
# Shear Modulus (GPa) = 19.66561 29.52989 24.59775
#
# Velocity S-wave (km/s) = 2.93701 3.59900 3.28473
# Velocity P-wave (km/s) = 4.75985 6.16353 5.50660
#
# Compressibility (1/GPa) = 0.03932245
#
# Stress axis : x y z
#
# Youngs Moduli (GPa) = 137.55645 30.74937 69.20101
#
# Poissons Ratio (x) = 0.15033 0.24135
# Poissons Ratio (y) = 0.67248 -0.06345
# Poissons Ratio (z) = 0.47975 -0.02819
#
# Static dielectric constant tensor:
#      x y z
#    x 1.914860 0.000000 0.000000 
#    y 0.000000 1.906360 0.000000 
#    z 0.000000 0.000000 2.474080 
# 
# From -- ./inp_files/19010.got.cif
#   From: 2010.05.17/outbox.cif.g08.bks.cpg/sg60_10_cif.got.tgz:19010.got - 2010.06.03 14:59:27.
