data_PCOD9455911
_publ_section_title
;
Structure prediction by ZEFSAII (Michael W. Deem and Ramdas Pophale) SiO2 
 PCOD9455911
Probable space group: P B C N
;
_chemical_formula_sum "Si O2"
_cell_formula_units_Z 60
_cell_length_a 31.041433
_cell_length_b 5.243910
_cell_length_c 14.509025
_cell_angle_alpha 90.000000
_cell_angle_beta 90.000000
_cell_angle_gamma 90.000000
_cell_volume 2361.757049
_symmetry_space_group_name_H-M "P B C N"
_symmetry_group_IT_number 60
_symmetry_cell_setting 'orthorhombic'
loop_
_space_group_symop_operation_xyz
x,y,z
1/2-x,1/2-y,1/2+z
1/2+x,1/2-y,-z
-x,y,1/2-z
-x,-y,-z
1/2+x,1/2+y,1/2-z
1/2-x,1/2+y,z
x,-y,1/2+z
loop_
_atom_site_type_symbol
_atom_site_label
_atom_site_fract_x
_atom_site_fract_y
_atom_site_fract_z
Si Si1 0.000000 0.199669 0.250000
Si Si2 0.228438 0.618515 0.817503
Si Si3 0.138042 0.149488 0.353320
Si Si4 0.424982 0.329101 0.263509
Si Si5 0.642972 0.450287 0.950182
Si Si6 0.051960 0.536439 0.905344
Si Si7 0.911660 0.544700 0.408345
Si Si8 0.731927 0.193895 0.900114
O O1 0.960104 0.019403 0.276172
O O2 0.984906 0.350516 0.159479
O O3 0.243593 0.350882 0.856949
O O4 0.238383 0.630443 0.708056
O O5 0.178371 0.678137 0.828789
O O6 0.121036 0.964270 0.273057
O O7 0.149806 0.976860 0.440453
O O8 0.096691 0.319398 0.379196
O O9 0.440321 0.247570 0.365837
O O10 0.424666 0.086212 0.197142
O O11 0.623036 0.724939 0.922757
O O12 0.609233 0.227298 0.927585
O O13 0.687387 0.347258 0.908614
O O14 0.050836 0.571482 0.014900
O O15 0.765758 0.404699 0.939226
#
# Coordination Sequence:
#
# PCOD9455911 Si02
#       8
#     4   8   8   8   8   8   8   8
#     4  10  24  44  68 102 136 176 216 280 334 412
#     4  10  23  37  58  93 129 172 225 273 330 395
#     4  10  23  40  66  92 134 175 226 284 333 401
#     4  11  23  43  71  97 133 181 220 274 349 396
#     4  11  23  42  62  97 130 171 233 279 332 402
#     4  10  23  45  66 101 138 169 229 276 334 406
#     4  11  25  41  70  99 132 177 224 277 331 404
#     4  10  21  37  56  86 129 171 217 278 333 393
#
# _framework density 25.404817000000001
#
# number of rings (size 3 to 8) (size 9 to 14) (size 15 to 20)
#    0.000    1.600    1.333    2.000    7.467    2.667 
#    0.000    2.667    0.000    0.000    0.000    0.000 
#    0.000    0.000    0.000    0.000    0.000    0.000 
#
# Total GULP energy -335906.396091 kJ/mol
# GULP energy per Si atom -5598.439935 kJ/mol
# Density = 2.534699 g / cm^3
# Si number density = 25.404817 Si / 1000 Ang^3
#
#
#
# Elastic Constant Matrix: (Units=GPa)
#
#
# Indices 1 2 3 4 5 6 
#
# 1 44.1468 26.6842 7.9060 0.0000 0.0000 0.0000
# 2 26.6842 101.0189 16.7776 0.0000 0.0000 0.0000
# 3 7.9060 16.7776 85.2086 0.0000 0.0000 0.0000
# 4 0.0000 0.0000 0.0000 27.9340 0.0000 0.0000
# 5 0.0000 0.0000 0.0000 0.0000 25.0287 0.0000
# 6 0.0000 0.0000 0.0000 0.0000 0.0000 38.2477
#
#
#
# Elastic Compliance Matrix: (Units=1/GPa)
#
#
# Indices 1 2 3 4 5 6 
#
# 1 0.027062 -0.006959 -0.001141 0.000000 0.000000 0.000000
# 2 -0.006959 0.012023 -0.001722 0.000000 0.000000 0.000000
# 3 -0.001141 -0.001722 0.012181 0.000000 0.000000 0.000000
# 4 0.000000 0.000000 0.000000 0.035799 0.000000 0.000000
# 5 0.000000 0.000000 0.000000 0.000000 0.039954 0.000000
# 6 0.000000 0.000000 0.000000 0.000000 0.000000 0.026145
#
#
# Mechanical properties :
#
#
# Convention : Reuss Voigt Hill
#
# Bulk Modulus (GPa) = 31.62214 37.01223 34.31719
# Shear Modulus (GPa) = 27.27044 30.17584 28.72314
#
# Velocity S-wave (km/s) = 3.27989 3.45019 3.36611
# Velocity P-wave (km/s) = 5.17860 5.52017 5.35211
#
# Compressibility (1/GPa) = 0.03162342
#
# Stress axis : x y z
#
# Youngs Moduli (GPa) = 36.95171 83.17161 82.09674
#
# Poissons Ratio (x) = 0.57880 0.09365
# Poissons Ratio (y) = 0.25715 0.14135
# Poissons Ratio (z) = 0.04215 0.14320
#
# Static dielectric constant tensor:
#      x y z
#    x 1.987200 0.000000 0.000000 
#    y 0.000000 2.007220 0.000000 
#    z 0.000000 0.000000 2.027260 
# 
# From -- ./inp_files/21276.got.cif
#   From: 2010.05.17/outbox.cif.g08.bks.cpg/sg60_11_cif.got.tgz:21276.got - 2010.06.03 14:59:27.
