data_PCOD9455194
_publ_section_title
;
Structure prediction by ZEFSAII (Michael W. Deem and Ramdas Pophale) SiO2 
 PCOD9455194
Probable space group: P B C N
;
_chemical_formula_sum "Si O2"
_cell_formula_units_Z 48
_cell_length_a 8.053130
_cell_length_b 28.629824
_cell_length_c 9.639127
_cell_angle_alpha 90.000000
_cell_angle_beta 90.000000
_cell_angle_gamma 90.000000
_cell_volume 2222.394177
_symmetry_space_group_name_H-M "P B C N"
_symmetry_group_IT_number 60
_symmetry_cell_setting 'orthorhombic'
loop_
_space_group_symop_operation_xyz
x,y,z
1/2-x,1/2-y,1/2+z
1/2+x,1/2-y,-z
-x,y,1/2-z
-x,-y,-z
1/2+x,1/2+y,1/2-z
1/2-x,1/2+y,z
x,-y,1/2+z
loop_
_atom_site_type_symbol
_atom_site_label
_atom_site_fract_x
_atom_site_fract_y
_atom_site_fract_z
Si Si1 0.676278 0.314658 0.962806
Si Si2 0.700869 0.638433 0.735751
Si Si3 0.684351 0.145844 0.194147
Si Si4 0.168134 0.954249 0.843225
Si Si5 0.320699 0.461435 0.171667
Si Si6 0.798295 0.210995 0.961986
O O1 0.742054 0.351190 0.077008
O O2 0.774025 0.265977 0.959218
O O3 0.692313 0.338313 0.815336
O O4 0.488428 0.301788 0.003310
O O5 0.500000 0.636894 0.750000
O O6 0.760969 0.589001 0.796408
O O7 0.751278 0.684362 0.821244
O O8 0.500000 0.142848 0.250000
O O9 0.741854 0.095224 0.145739
O O10 0.691383 0.185771 0.079092
O O11 0.000000 0.946436 0.750000
O O12 0.259291 0.994557 0.752441
O O13 0.152291 0.968561 0.006495
O O14 0.500000 0.459054 0.250000
#
# Coordination Sequence:
#
# PCOD9455194 Si02
#       6
#     8   8   8   8   8   8
#     4  11  23  38  69  92 127 166 208 264 323 384
#     4   9  20  36  61  92 123 154 200 259 317 383
#     4  12  26  42  60  89 131 175 218 259 306 375
#     4  11  22  38  68  96 123 160 210 267 325 386
#     4  10  20  36  65  99 125 151 206 266 324 393
#     4  11  21  42  63  96 125 163 210 262 324 380
#
# _framework density 21.598327999999999
#
# number of rings (size 3 to 8) (size 9 to 14) (size 15 to 20)
#    0.000    1.333    1.667    5.500    7.000    1.333 
#    0.000    3.333    0.000    0.000    0.000    0.000 
#    0.000    0.000    0.000    0.000    0.000    0.000 
#
# Total GULP energy -267950.118815 kJ/mol
# GULP energy per Si atom -5582.294142 kJ/mol
# Density = 2.154917 g / cm^3
# Si number density = 21.598328 Si / 1000 Ang^3
#
#
#
# Elastic Constant Matrix: (Units=GPa)
#
#
# Indices 1 2 3 4 5 6 
#
# 1 26.3698 4.0057 6.0347 0.0000 0.0000 0.0000
# 2 4.0057 130.7349 44.3408 0.0000 0.0000 0.0000
# 3 6.0347 44.3408 122.7514 0.0000 0.0000 0.0000
# 4 0.0000 0.0000 0.0000 76.6026 0.0000 0.0000
# 5 0.0000 0.0000 0.0000 0.0000 11.2913 0.0000
# 6 0.0000 0.0000 0.0000 0.0000 0.0000 58.3370
#
#
#
# Elastic Compliance Matrix: (Units=1/GPa)
#
#
# Indices 1 2 3 4 5 6 
#
# 1 0.038397 -0.000611 -0.001667 0.000000 0.000000 0.000000
# 2 -0.000611 0.008727 -0.003122 0.000000 0.000000 0.000000
# 3 -0.001667 -0.003122 0.009356 0.000000 0.000000 0.000000
# 4 0.000000 0.000000 0.000000 0.013054 0.000000 0.000000
# 5 0.000000 0.000000 0.000000 0.000000 0.088564 0.000000
# 6 0.000000 0.000000 0.000000 0.000000 0.000000 0.017142
#
#
# Mechanical properties :
#
#
# Convention : Reuss Voigt Hill
#
# Bulk Modulus (GPa) = 21.89187 43.17982 32.53585
# Shear Modulus (GPa) = 24.84268 44.27784 34.56026
#
# Velocity S-wave (km/s) = 3.39516 4.53267 4.00451
# Velocity P-wave (km/s) = 5.05246 6.88688 6.03972
#
# Compressibility (1/GPa) = 0.04567905
#
# Stress axis : x y z
#
# Youngs Moduli (GPa) = 26.04403 114.59009 106.87941
#
# Poissons Ratio (x) = 0.07003 0.17816
# Poissons Ratio (y) = 0.01592 0.33371
# Poissons Ratio (z) = 0.04341 0.35778
#
# Static dielectric constant tensor:
#      x y z
#    x 1.805740 0.000000 0.000000 
#    y 0.000000 1.801090 0.000000 
#    z 0.000000 0.000000 3.140620 
# 
# From -- ./inp_files/4182.got.cif
#   From: 2010.05.17/outbox.cif.g08.bks.cpg/sg60_3_cif.got.tgz:4182.got - 2010.06.03 14:59:27.
