data_PCOD9455332
_publ_section_title
;
Structure prediction by ZEFSAII (Michael W. Deem and Ramdas Pophale) SiO2 
 PCOD9455332
Probable space group: P B C N
;
_chemical_formula_sum "Si O2"
_cell_formula_units_Z 36
_cell_length_a 17.491555
_cell_length_b 8.972203
_cell_length_c 9.755053
_cell_angle_alpha 90.000000
_cell_angle_beta 90.000000
_cell_angle_gamma 90.000000
_cell_volume 1530.936384
_symmetry_space_group_name_H-M "P B C N"
_symmetry_group_IT_number 60
_symmetry_cell_setting 'orthorhombic'
loop_
_space_group_symop_operation_xyz
x,y,z
1/2-x,1/2-y,1/2+z
1/2+x,1/2-y,-z
-x,y,1/2-z
-x,-y,-z
1/2+x,1/2+y,1/2-z
1/2-x,1/2+y,z
x,-y,1/2+z
loop_
_atom_site_type_symbol
_atom_site_label
_atom_site_fract_x
_atom_site_fract_y
_atom_site_fract_z
Si Si1 0.353886 0.212228 0.342200
Si Si2 0.262489 0.507345 0.941275
Si Si3 0.136941 0.262407 0.541932
Si Si4 0.000000 0.995015 0.750000
Si Si5 0.528712 0.697848 0.479737
O O1 0.284735 0.096377 0.338659
O O2 0.315850 0.371690 0.371025
O O3 0.410945 0.180771 0.468500
O O4 0.392513 0.215386 0.195761
O O5 0.314899 0.391397 0.026101
O O6 0.196979 0.607154 0.012059
O O7 0.058319 0.251010 0.456747
O O8 0.054413 0.885206 0.659584
O O9 0.027284 0.091121 0.882590
#
# Coordination Sequence:
#
# PCOD9455332 Si02
#       5
#     8   8   8   4   8
#     4  11  22  42  64  96 125 171 210 268 312 382
#     4  10  24  40  62  92 134 166 210 256 328 376
#     4  11  22  42  64  96 125 171 210 268 312 382
#     4  10  20  38  60 100 122 166 208 264 312 378
#     4  11  22  39  68  91 128 165 219 262 313 377
#
# _framework density 23.515021999999998
#
# number of rings (size 3 to 8) (size 9 to 14) (size 15 to 20)
#    0.000    1.333    2.222    4.000    0.000    0.889 
#   20.000    0.000    0.000    0.000    0.000    0.000 
#    0.000    0.000    0.000    0.000    0.000    0.000 
#
# Total GULP energy -200655.600598 kJ/mol
# GULP energy per Si atom -5573.766683 kJ/mol
# Density = 2.346150 g / cm^3
# Si number density = 23.515022 Si / 1000 Ang^3
#
#
#
# Elastic Constant Matrix: (Units=GPa)
#
#
# Indices 1 2 3 4 5 6 
#
# 1 115.1541 30.4733 -3.7438 0.0000 0.0000 0.0000
# 2 30.4733 74.9396 -1.7097 0.0000 0.0000 0.0000
# 3 -3.7438 -1.7097 89.5794 0.0000 0.0000 0.0000
# 4 0.0000 0.0000 0.0000 -5.2152 0.0000 0.0000
# 5 0.0000 0.0000 0.0000 0.0000 33.1741 0.0000
# 6 0.0000 0.0000 0.0000 0.0000 0.0000 27.3518
#
#
#
# Elastic Compliance Matrix: (Units=1/GPa)
#
#
# Indices 1 2 3 4 5 6 
#
# 1 0.009741 -0.003953 0.000332 0.000000 0.000000 0.000000
# 2 -0.003953 0.014954 0.000120 0.000000 0.000000 0.000000
# 3 0.000332 0.000120 0.011179 0.000000 0.000000 0.000000
# 4 0.000000 0.000000 0.000000 -0.191747 0.000000 0.000000
# 5 0.000000 0.000000 0.000000 0.000000 0.030144 0.000000
# 6 0.000000 0.000000 0.000000 0.000000 0.000000 0.036561
#
#
# Mechanical properties :
#
#
# Convention : Reuss Voigt Hill
#
# Bulk Modulus (GPa) = 34.63611 36.63473 35.63542
# Shear Modulus (GPa) = -68.92718 28.03902 -20.44408
#
# Velocity S-wave (km/s) = -5.41993 3.45684 -2.95177
# Velocity P-wave (km/s) = 4.94026 5.61659 1.88944
#
# Compressibility (1/GPa) = 0.02887160
#
# Stress axis : x y z
#
# Youngs Moduli (GPa) = 102.65872 66.86968 89.44996
#
# Poissons Ratio (x) = 0.26437 -0.02967
# Poissons Ratio (y) = 0.40586 -0.01075
# Poissons Ratio (z) = -0.03405 -0.00804
#
# Static dielectric constant tensor:
#      x y z
#    x 1.917920 0.000000 0.000000 
#    y 0.000000 1.982580 0.000000 
#    z 0.000000 0.000000 1.903020 
# 
# From -- ./inp_files/7176.got.cif
#   From: 2010.05.17/outbox.cif.g08.bks.cpg/sg60_4_cif.got.tgz:7176.got - 2010.06.03 14:59:27.
