data_PCOD9455311
_publ_section_title
;
Structure prediction by ZEFSAII (Michael W. Deem and Ramdas Pophale) SiO2 
 PCOD9455311
Probable space group: P B C N
;
_chemical_formula_sum "Si O2"
_cell_formula_units_Z 60
_cell_length_a 10.639453
_cell_length_b 9.697645
_cell_length_c 23.310627
_cell_angle_alpha 90.000000
_cell_angle_beta 90.000000
_cell_angle_gamma 90.000000
_cell_volume 2405.135439
_symmetry_space_group_name_H-M "P B C N"
_symmetry_group_IT_number 60
_symmetry_cell_setting 'orthorhombic'
loop_
_space_group_symop_operation_xyz
x,y,z
1/2-x,1/2-y,1/2+z
1/2+x,1/2-y,-z
-x,y,1/2-z
-x,-y,-z
1/2+x,1/2+y,1/2-z
1/2-x,1/2+y,z
x,-y,1/2+z
loop_
_atom_site_type_symbol
_atom_site_label
_atom_site_fract_x
_atom_site_fract_y
_atom_site_fract_z
Si Si1 0.566532 0.163763 0.166006
Si Si2 0.112283 0.701443 0.932518
Si Si3 0.488145 0.543523 0.660700
Si Si4 0.696714 0.456315 0.425874
Si Si5 0.579938 0.846050 0.945014
Si Si6 0.139355 0.212601 0.309751
Si Si7 0.151924 0.013686 0.952139
Si Si8 0.000000 0.572924 0.750000
O O1 0.497085 0.304198 0.185137
O O2 0.533725 0.148391 0.099192
O O3 0.508649 0.033204 0.197793
O O4 0.714354 0.183557 0.178509
O O5 0.073773 0.719020 0.866563
O O6 0.223062 0.592560 0.935659
O O7 0.168770 0.851529 0.945630
O O8 0.033011 0.668615 0.989526
O O9 0.351589 0.501721 0.637586
O O10 0.567594 0.432384 0.695429
O O11 0.556253 0.554258 0.597845
O O12 0.834894 0.518802 0.434595
O O13 0.667082 0.291568 0.431912
O O14 0.626760 0.532985 0.480047
O O15 0.115293 0.320193 0.258763
#
# Coordination Sequence:
#
# PCOD9455311 Si02
#       8
#     8   8   8   8   8   8   8   4
#     4  11  24  48  73 103 142 190 251 305 370 436
#     4   9  18  34  65 102 144 185 234 290 356 447
#     4  10  20  37  68  97 134 187 231 299 367 435
#     4   9  18  34  58  97 146 182 228 274 355 445
#     4   9  20  39  65 104 148 194 229 294 365 441
#     4  11  24  47  73 104 143 188 250 305 367 445
#     4   9  16  30  58  97 134 188 224 272 349 437
#     4  12  30  50  74 106 134 196 264 316 364 412
#
# _framework density 24.946619999999999
#
# number of rings (size 3 to 8) (size 9 to 14) (size 15 to 20)
#    0.000    2.133    1.333    1.200    1.867    2.667 
#    7.200    0.667    0.000    0.000    0.000    0.000 
#    0.000    0.000    0.000    0.000    0.000    0.000 
#
# Total GULP energy -335026.912736 kJ/mol
# GULP energy per Si atom -5583.781879 kJ/mol
# Density = 2.488984 g / cm^3
# Si number density = 24.946620 Si / 1000 Ang^3
#
#
#
# Elastic Constant Matrix: (Units=GPa)
#
#
# Indices 1 2 3 4 5 6 
#
# 1 76.6722 55.3338 41.6444 0.0000 0.0000 0.0000
# 2 55.3338 140.2234 20.7905 0.0000 0.0000 0.0000
# 3 41.6444 20.7905 72.9528 0.0000 0.0000 0.0000
# 4 0.0000 0.0000 0.0000 20.7551 0.0000 0.0000
# 5 0.0000 0.0000 0.0000 0.0000 22.3607 0.0000
# 6 0.0000 0.0000 0.0000 0.0000 0.0000 -42.9944
#
#
#
# Elastic Compliance Matrix: (Units=1/GPa)
#
#
# Indices 1 2 3 4 5 6 
#
# 1 0.025752 -0.008335 -0.012325 0.000000 0.000000 0.000000
# 2 -0.008335 0.010144 0.001867 0.000000 0.000000 0.000000
# 3 -0.012325 0.001867 0.020211 0.000000 0.000000 0.000000
# 4 0.000000 0.000000 0.000000 0.048181 0.000000 0.000000
# 5 0.000000 0.000000 0.000000 0.000000 0.044721 0.000000
# 6 0.000000 0.000000 0.000000 0.000000 0.000000 -0.023259
#
#
# Mechanical properties :
#
#
# Convention : Reuss Voigt Hill
#
# Bulk Modulus (GPa) = 53.99203 58.37621 56.18412
# Shear Modulus (GPa) = 29.49700 11.49626 20.49663
#
# Velocity S-wave (km/s) = 3.44234 2.14903 2.86950
# Velocity P-wave (km/s) = 6.12288 5.44142 5.79218
#
# Compressibility (1/GPa) = 0.01852125
#
# Stress axis : x y z
#
# Youngs Moduli (GPa) = 38.83223 98.58440 49.47795
#
# Poissons Ratio (x) = 0.82166 0.60981
# Poissons Ratio (y) = 0.32365 -0.09237
# Poissons Ratio (z) = 0.47860 -0.18405
#
# Static dielectric constant tensor:
#      x y z
#    x 2.032380 0.000000 0.000000 
#    y 0.000000 1.982630 0.000000 
#    z 0.000000 0.000000 2.092860 
# 
# From -- ./inp_files/25433.got.cif
#   From: 2010.05.17/outbox.cif.g08.bks.cpg/sg60_13_cif.got.tgz:25433.got - 2010.06.03 14:59:27.
