data_PCOD9455235
_publ_section_title
;
Structure prediction by ZEFSAII (Michael W. Deem and Ramdas Pophale) SiO2 
 PCOD9455235
Probable space group: P B C N
;
_chemical_formula_sum "Si O2"
_cell_formula_units_Z 48
_cell_length_a 7.391353
_cell_length_b 16.310171
_cell_length_c 16.695599
_cell_angle_alpha 90.000000
_cell_angle_beta 90.000000
_cell_angle_gamma 90.000000
_cell_volume 2012.725104
_symmetry_space_group_name_H-M "P B C N"
_symmetry_group_IT_number 60
_symmetry_cell_setting 'orthorhombic'
loop_
_space_group_symop_operation_xyz
x,y,z
1/2-x,1/2-y,1/2+z
1/2+x,1/2-y,-z
-x,y,1/2-z
-x,-y,-z
1/2+x,1/2+y,1/2-z
1/2-x,1/2+y,z
x,-y,1/2+z
loop_
_atom_site_type_symbol
_atom_site_label
_atom_site_fract_x
_atom_site_fract_y
_atom_site_fract_z
Si Si1 0.000000 0.201707 0.750000
Si Si2 0.835147 0.267248 0.971630
Si Si3 0.213641 0.712902 0.375857
Si Si4 0.172486 0.469590 0.886233
Si Si5 0.500000 0.063943 0.750000
Si Si6 0.284796 0.609987 0.624005
Si Si7 0.735718 0.943475 0.955281
O O1 0.837923 0.256533 0.713107
O O2 0.942974 0.143238 0.821163
O O3 0.764180 0.177730 0.945148
O O4 0.718941 0.347679 0.947347
O O5 0.023868 0.277606 0.925047
O O6 0.846318 0.265241 0.068044
O O7 0.267220 0.617816 0.376411
O O8 0.141299 0.509055 0.799826
O O9 0.972563 0.451046 0.924083
O O10 0.253054 0.530757 0.951932
O O11 0.609809 0.110318 0.818498
O O12 0.323046 0.518792 0.592616
#
# Coordination Sequence:
#
# PCOD9455235 Si02
#       7
#     4   8   8   8   4   8   8
#     4  10  23  36  53  82 128 152 172 231 317 342
#     4  10  21  36  60  83 113 151 194 235 280 343
#     4  10  20  37  59  84 115 151 191 238 288 345
#     4   9  17  33  57  87 107 140 194 246 275 319
#     4  10  21  32  63  86 110 144 200 245 283 322
#     4  10  21  40  55  85 116 151 185 242 287 345
#     4   9  18  34  59  81 111 146 193 235 274 332
#
# _framework density 23.848265000000001
#
# number of rings (size 3 to 8) (size 9 to 14) (size 15 to 20)
#    0.000    2.333    1.667    0.500    4.667    1.333 
#    0.000    5.833    0.000    0.000    0.000    0.000 
#    0.000    0.000    0.000    0.000    0.000    0.000 
#
# Total GULP energy -267932.161548 kJ/mol
# GULP energy per Si atom -5581.920032 kJ/mol
# Density = 2.379399 g / cm^3
# Si number density = 23.848265 Si / 1000 Ang^3
#
#
#
# Elastic Constant Matrix: (Units=GPa)
#
#
# Indices 1 2 3 4 5 6 
#
# 1 24.7542 2.0325 -6.2260 0.0000 0.0000 0.0000
# 2 2.0325 107.2673 17.1008 0.0000 0.0000 0.0000
# 3 -6.2260 17.1008 97.2289 0.0000 0.0000 0.0000
# 4 0.0000 0.0000 0.0000 21.4438 0.0000 0.0000
# 5 0.0000 0.0000 0.0000 0.0000 35.8172 0.0000
# 6 0.0000 0.0000 0.0000 0.0000 0.0000 6.0699
#
#
#
# Elastic Compliance Matrix: (Units=1/GPa)
#
#
# Indices 1 2 3 4 5 6 
#
# 1 0.041217 -0.001236 0.002857 0.000000 0.000000 0.000000
# 2 -0.001236 0.009629 -0.001773 0.000000 0.000000 0.000000
# 3 0.002857 -0.001773 0.010780 0.000000 0.000000 0.000000
# 4 0.000000 0.000000 0.000000 0.046634 0.000000 0.000000
# 5 0.000000 0.000000 0.000000 0.000000 0.027920 0.000000
# 6 0.000000 0.000000 0.000000 0.000000 0.000000 0.164748
#
#
# Mechanical properties :
#
#
# Convention : Reuss Voigt Hill
#
# Bulk Modulus (GPa) = 16.30765 28.34055 22.32410
# Shear Modulus (GPa) = 15.54382 27.08904 21.31643
#
# Velocity S-wave (km/s) = 2.55577 3.37396 2.99295
# Velocity P-wave (km/s) = 3.94489 5.20457 4.61789
#
# Compressibility (1/GPa) = 0.06132091
#
# Stress axis : x y z
#
# Youngs Moduli (GPa) = 24.26168 103.85798 92.76679
#
# Poissons Ratio (x) = 0.12841 -0.26501
# Poissons Ratio (y) = 0.03000 0.16444
# Poissons Ratio (z) = -0.06931 0.18410
#
# Static dielectric constant tensor:
#      x y z
#    x 2.014430 0.000000 0.000000 
#    y 0.000000 1.917330 0.000000 
#    z 0.000000 0.000000 1.920450 
# 
# From -- ./inp_files/16108.got.cif
#   From: 2010.05.17/outbox.cif.g08.bks.cpg/sg60_9_cif.got.tgz:16108.got - 2010.06.03 14:59:27.
