data_PCOD9455167
_publ_section_title
;
Structure prediction by ZEFSAII (Michael W. Deem and Ramdas Pophale) SiO2 
 PCOD9455167
Probable space group: P B C N
;
_chemical_formula_sum "Si O2"
_cell_formula_units_Z 44
_cell_length_a 14.129351
_cell_length_b 8.838568
_cell_length_c 17.239812
_cell_angle_alpha 90.000000
_cell_angle_beta 90.000000
_cell_angle_gamma 90.000000
_cell_volume 2152.963400
_symmetry_space_group_name_H-M "P B C N"
_symmetry_group_IT_number 60
_symmetry_cell_setting 'orthorhombic'
loop_
_space_group_symop_operation_xyz
x,y,z
1/2-x,1/2-y,1/2+z
1/2+x,1/2-y,-z
-x,y,1/2-z
-x,-y,-z
1/2+x,1/2+y,1/2-z
1/2-x,1/2+y,z
x,-y,1/2+z
loop_
_atom_site_type_symbol
_atom_site_label
_atom_site_fract_x
_atom_site_fract_y
_atom_site_fract_z
Si Si1 0.694667 0.554758 0.838827
Si Si2 0.205137 0.352701 0.762374
Si Si3 0.672548 0.242727 0.063403
Si Si4 0.500000 0.878354 0.750000
Si Si5 0.171779 0.565020 0.026642
Si Si6 0.973125 0.803868 0.407250
O O1 0.705053 0.449966 0.763413
O O2 0.702592 0.721105 0.802207
O O3 0.778371 0.506540 0.896978
O O4 0.597952 0.559740 0.887681
O O5 0.207374 0.284954 0.848401
O O6 0.105766 0.448576 0.754578
O O7 0.575515 0.338296 0.058554
O O8 0.752315 0.327069 0.014915
O O9 0.650023 0.077490 0.028003
O O10 0.501589 0.773222 0.825219
O O11 0.084032 0.673809 0.046635
#
# Coordination Sequence:
#
# PCOD9455167 Si02
#       6
#     8   8   8   4   8   8
#     4  11  19  38  63  87 121 164 211 253 306 372
#     4  10  20  36  61  85 116 162 208 253 309 368
#     4  11  24  39  63  92 129 167 207 263 322 377
#     4   8  16  34  58  82 104 154 202 242 292 370
#     4  12  21  40  61  94 127 164 211 261 318 374
#     4  10  21  38  63  90 123 166 213 248 321 373
#
# _framework density 20.436948000000001
#
# number of rings (size 3 to 8) (size 9 to 14) (size 15 to 20)
#    0.000    1.455    5.455    1.636    0.000    0.727 
#    0.000    0.000    0.000    6.545    0.000    0.000 
#    0.000    0.000    0.000    0.000    0.000    0.000 
#
# Total GULP energy -245176.677249 kJ/mol
# GULP energy per Si atom -5572.197210 kJ/mol
# Density = 2.039043 g / cm^3
# Si number density = 20.436948 Si / 1000 Ang^3
#
#
#
# Elastic Constant Matrix: (Units=GPa)
#
#
# Indices 1 2 3 4 5 6 
#
# 1 59.6271 32.2507 13.7321 0.0000 0.0000 0.0000
# 2 32.2507 43.7503 18.4723 0.0000 0.0000 0.0000
# 3 13.7321 18.4723 79.1820 0.0000 0.0000 0.0000
# 4 0.0000 0.0000 0.0000 -71.6950 0.0000 0.0000
# 5 0.0000 0.0000 0.0000 0.0000 35.3866 0.0000
# 6 0.0000 0.0000 0.0000 0.0000 0.0000 18.4788
#
#
#
# Elastic Compliance Matrix: (Units=1/GPa)
#
#
# Indices 1 2 3 4 5 6 
#
# 1 0.027892 -0.020541 -0.000045 0.000000 0.000000 0.000000
# 2 -0.020541 0.040483 -0.005882 0.000000 0.000000 0.000000
# 3 -0.000045 -0.005882 0.014009 0.000000 0.000000 0.000000
# 4 0.000000 0.000000 0.000000 -0.013948 0.000000 0.000000
# 5 0.000000 0.000000 0.000000 0.000000 0.028259 0.000000
# 6 0.000000 0.000000 0.000000 0.000000 0.000000 0.054116
#
#
# Mechanical properties :
#
#
# Convention : Reuss Voigt Hill
#
# Bulk Modulus (GPa) = 33.95942 34.60774 34.28358
# Shear Modulus (GPa) = 23.41235 4.30769 13.86002
#
# Velocity S-wave (km/s) = 3.38833 1.45340 2.60702
# Velocity P-wave (km/s) = 5.65336 4.44828 5.08663
#
# Compressibility (1/GPa) = 0.02944691
#
# Stress axis : x y z
#
# Youngs Moduli (GPa) = 35.85314 24.70203 71.38221
#
# Poissons Ratio (x) = 0.50741 0.00321
# Poissons Ratio (y) = 0.73647 0.41985
# Poissons Ratio (z) = 0.00161 0.14529
#
# Static dielectric constant tensor:
#      x y z
#    x 1.825470 0.000000 0.000000 
#    y 0.000000 1.734800 0.000000 
#    z 0.000000 0.000000 1.753450 
# 
# From -- ./inp_files/20426.got.cif
#   From: 2010.05.17/outbox.cif.g08.bks.cpg/sg60_11_cif.got.tgz:20426.got - 2010.06.03 14:59:27.
