data_PCOD9455185
_publ_section_title
;
Structure prediction by ZEFSAII (Michael W. Deem and Ramdas Pophale) SiO2 
 PCOD9455185
Probable space group: P B C N
;
_chemical_formula_sum "Si O2"
_cell_formula_units_Z 44
_cell_length_a 14.662415
_cell_length_b 17.843580
_cell_length_c 9.648577
_cell_angle_alpha 90.000000
_cell_angle_beta 90.000000
_cell_angle_gamma 90.000000
_cell_volume 2524.356960
_symmetry_space_group_name_H-M "P B C N"
_symmetry_group_IT_number 60
_symmetry_cell_setting 'orthorhombic'
loop_
_space_group_symop_operation_xyz
x,y,z
1/2-x,1/2-y,1/2+z
1/2+x,1/2-y,-z
-x,y,1/2-z
-x,-y,-z
1/2+x,1/2+y,1/2-z
1/2-x,1/2+y,z
x,-y,1/2+z
loop_
_atom_site_type_symbol
_atom_site_label
_atom_site_fract_x
_atom_site_fract_y
_atom_site_fract_z
Si Si1 0.000000 0.446098 0.250000
Si Si2 0.371740 0.086243 0.260318
Si Si3 0.089854 0.954856 0.547981
Si Si4 0.833027 0.062054 0.151683
Si Si5 0.017829 0.651253 0.026728
Si Si6 0.019607 0.815905 0.912320
O O1 0.086223 0.502572 0.250561
O O2 0.005112 0.395522 0.386255
O O3 0.267320 0.085282 0.302732
O O4 0.432695 0.130122 0.374071
O O5 0.394171 0.123855 0.112905
O O6 0.112873 0.963150 0.709791
O O7 0.062385 0.868229 0.530540
O O8 0.167408 0.992866 0.455319
O O9 0.000000 0.000000 0.500000
O O10 0.889944 0.131734 0.087385
O O11 0.025455 0.738589 0.992741
O O12 0.000000 0.800397 0.750000
#
# Coordination Sequence:
#
# PCOD9455185 Si02
#       6
#     4   8   8   8   8   8
#     4  10  20  36  64  76 110 156 198 226 300 342
#     4  10  22  37  55  88 116 146 198 246 276 341
#     4   9  19  37  61  84 114 153 188 235 292 344
#     4  10  21  37  60  90 116 145 201 241 278 348
#     4  10  20  39  59  80 119 157 185 235 303 342
#     4   9  18  39  59  80 116 155 186 230 295 347
#
# _framework density 17.430181999999999
#
# number of rings (size 3 to 8) (size 9 to 14) (size 15 to 20)
#    0.000    2.545    0.909    3.818    5.091    0.000 
#   19.636    0.000    0.000    0.000    0.000    0.000 
#    0.000    0.000    0.000    0.000    0.000    0.000 
#
# Total GULP energy -245204.592358 kJ/mol
# GULP energy per Si atom -5572.831645 kJ/mol
# Density = 1.739051 g / cm^3
# Si number density = 17.430182 Si / 1000 Ang^3
#
#
#
# Elastic Constant Matrix: (Units=GPa)
#
#
# Indices 1 2 3 4 5 6 
#
# 1 81.1377 32.9743 31.7135 0.0000 0.0000 0.0000
# 2 32.9743 137.1942 74.9014 0.0000 0.0000 0.0000
# 3 31.7135 74.9014 107.7503 0.0000 0.0000 0.0000
# 4 0.0000 0.0000 0.0000 16.7186 0.0000 0.0000
# 5 0.0000 0.0000 0.0000 0.0000 18.9492 0.0000
# 6 0.0000 0.0000 0.0000 0.0000 0.0000 5.1436
#
#
#
# Elastic Compliance Matrix: (Units=1/GPa)
#
#
# Indices 1 2 3 4 5 6 
#
# 1 0.014204 -0.001824 -0.002913 0.000000 0.000000 0.000000
# 2 -0.001824 0.011981 -0.007792 0.000000 0.000000 0.000000
# 3 -0.002913 -0.007792 0.015555 0.000000 0.000000 0.000000
# 4 0.000000 0.000000 0.000000 0.059814 0.000000 0.000000
# 5 0.000000 0.000000 0.000000 0.000000 0.052773 0.000000
# 6 0.000000 0.000000 0.000000 0.000000 0.000000 0.194415
#
#
# Mechanical properties :
#
#
# Convention : Reuss Voigt Hill
#
# Bulk Modulus (GPa) = 59.94086 67.25119 63.59602
# Shear Modulus (GPa) = 13.18012 20.59515 16.88763
#
# Velocity S-wave (km/s) = 2.75283 3.44114 3.11605
# Velocity P-wave (km/s) = 6.67592 7.37940 7.03646
#
# Compressibility (1/GPa) = 0.01668311
#
# Stress axis : x y z
#
# Youngs Moduli (GPa) = 70.40054 83.46392 64.28992
#
# Poissons Ratio (x) = 0.15221 0.18728
# Poissons Ratio (y) = 0.12838 0.50094
# Poissons Ratio (z) = 0.20508 0.65034
#
# Static dielectric constant tensor:
#      x y z
#    x 1.610290 0.000000 0.000000 
#    y 0.000000 1.581300 0.000000 
#    z 0.000000 0.000000 1.601790 
# 
# From -- ./inp_files/5847.got.cif
#   From: 2010.05.17/outbox.cif.g08.bks.cpg/sg60_3_cif.got.tgz:5847.got - 2010.06.03 14:59:27.
