data_PCOD9455154
_publ_section_title
;
Structure prediction by ZEFSAII (Michael W. Deem and Ramdas Pophale) SiO2 
 PCOD9455154
Probable space group: P B C N
;
_chemical_formula_sum "Si O2"
_cell_formula_units_Z 36
_cell_length_a 4.961353
_cell_length_b 13.792339
_cell_length_c 18.982060
_cell_angle_alpha 90.000000
_cell_angle_beta 90.000000
_cell_angle_gamma 90.000000
_cell_volume 1298.916977
_symmetry_space_group_name_H-M "P B C N"
_symmetry_group_IT_number 60
_symmetry_cell_setting 'orthorhombic'
loop_
_space_group_symop_operation_xyz
x,y,z
1/2-x,1/2-y,1/2+z
1/2+x,1/2-y,-z
-x,y,1/2-z
-x,-y,-z
1/2+x,1/2+y,1/2-z
1/2-x,1/2+y,z
x,-y,1/2+z
loop_
_atom_site_type_symbol
_atom_site_label
_atom_site_fract_x
_atom_site_fract_y
_atom_site_fract_z
Si Si1 0.122831 0.832402 0.359860
Si Si2 0.000000 0.266963 0.250000
Si Si3 0.376675 0.059911 0.583281
Si Si4 0.253606 0.195176 0.470795
Si Si5 0.260916 0.420144 0.701323
O O1 0.268452 0.828590 0.285613
O O2 0.318575 0.906666 0.402646
O O3 0.168643 0.724481 0.392146
O O4 0.823078 0.866821 0.373909
O O5 0.852133 0.191192 0.301801
O O6 0.305384 0.088410 0.502432
O O7 0.295042 0.962798 0.624110
O O8 0.453880 0.267427 0.513990
O O9 0.500000 0.466223 0.750000
O O10 0.000000 0.429038 0.750000
#
# Coordination Sequence:
#
# PCOD9455154 Si02
#       5
#     8   4   8   8   8
#     4  10  21  34  59  84 105 140 184 229 277 317
#     4  10  26  34  54  78 124 142 178 224 278 322
#     4  10  20  36  60  79 104 143 188 227 267 326
#     4   8  16  33  53  81 105 129 178 235 272 311
#     4  10  23  38  51  76 115 148 179 219 272 324
#
# _framework density 27.715396999999999
#
# number of rings (size 3 to 8) (size 9 to 14) (size 15 to 20)
#    0.667    1.778    0.000    1.333    7.778    0.000 
#    0.000    1.111    0.000    1.333    0.000    0.000 
#    0.000    0.000    0.000    0.000    0.000    0.000 
#
# Total GULP energy -201441.488134 kJ/mol
# GULP energy per Si atom -5595.596893 kJ/mol
# Density = 2.765232 g / cm^3
# Si number density = 27.715397 Si / 1000 Ang^3
#
#
#
# Elastic Constant Matrix: (Units=GPa)
#
#
# Indices 1 2 3 4 5 6 
#
# 1 152.5332 23.8292 15.5665 0.0000 0.0000 0.0000
# 2 23.8292 93.6764 17.0520 0.0000 0.0000 0.0000
# 3 15.5665 17.0520 64.0882 0.0000 0.0000 0.0000
# 4 0.0000 0.0000 0.0000 48.8124 0.0000 0.0000
# 5 0.0000 0.0000 0.0000 0.0000 39.9235 0.0000
# 6 0.0000 0.0000 0.0000 0.0000 0.0000 29.5738
#
#
#
# Elastic Compliance Matrix: (Units=1/GPa)
#
#
# Indices 1 2 3 4 5 6 
#
# 1 0.006925 -0.001529 -0.001275 0.000000 0.000000 0.000000
# 2 -0.001529 0.011556 -0.002703 0.000000 0.000000 0.000000
# 3 -0.001275 -0.002703 0.016632 0.000000 0.000000 0.000000
# 4 0.000000 0.000000 0.000000 0.020487 0.000000 0.000000
# 5 0.000000 0.000000 0.000000 0.000000 0.025048 0.000000
# 6 0.000000 0.000000 0.000000 0.000000 0.000000 0.033814
#
#
# Mechanical properties :
#
#
# Convention : Reuss Voigt Hill
#
# Bulk Modulus (GPa) = 41.49719 47.02149 44.25934
# Shear Modulus (GPa) = 37.45033 40.58529 39.01781
#
# Velocity S-wave (km/s) = 3.67992 3.83085 3.75614
# Velocity P-wave (km/s) = 5.74986 6.04730 5.90045
#
# Compressibility (1/GPa) = 0.02409802
#
# Stress axis : x y z
#
# Youngs Moduli (GPa) = 144.40398 86.53375 60.12339
#
# Poissons Ratio (x) = 0.13235 0.07666
# Poissons Ratio (y) = 0.22086 0.16253
# Poissons Ratio (z) = 0.18413 0.23392
#
# Static dielectric constant tensor:
#      x y z
#    x 2.083160 0.000000 0.000000 
#    y 0.000000 2.171010 0.000000 
#    z 0.000000 0.000000 2.295910 
# 
# From -- ./inp_files/21469.got.cif
#   From: 2010.05.17/outbox.cif.g08.bks.cpg/sg60_11_cif.got.tgz:21469.got - 2010.06.03 14:59:27.
