data_PCOD9455264
_publ_section_title
;
Structure prediction by ZEFSAII (Michael W. Deem and Ramdas Pophale) SiO2 
 PCOD9455264
Probable space group: P B C N
;
_chemical_formula_sum "Si O2"
_cell_formula_units_Z 48
_cell_length_a 15.942317
_cell_length_b 15.858345
_cell_length_c 8.897167
_cell_angle_alpha 90.000000
_cell_angle_beta 90.000000
_cell_angle_gamma 90.000000
_cell_volume 2249.370756
_symmetry_space_group_name_H-M "P B C N"
_symmetry_group_IT_number 60
_symmetry_cell_setting 'orthorhombic'
loop_
_space_group_symop_operation_xyz
x,y,z
1/2-x,1/2-y,1/2+z
1/2+x,1/2-y,-z
-x,y,1/2-z
-x,-y,-z
1/2+x,1/2+y,1/2-z
1/2-x,1/2+y,z
x,-y,1/2+z
loop_
_atom_site_type_symbol
_atom_site_label
_atom_site_fract_x
_atom_site_fract_y
_atom_site_fract_z
Si Si1 0.500000 0.739933 0.250000
Si Si2 0.393866 0.938979 0.904032
Si Si3 0.078671 0.889521 0.957670
Si Si4 0.911643 0.394994 0.927646
Si Si5 0.330636 0.818238 0.144993
Si Si6 0.500000 0.530300 0.750000
Si Si7 0.705548 0.757782 0.051942
O O1 0.486032 0.679192 0.391481
O O2 0.421195 0.796318 0.210730
O O3 0.372592 0.924593 0.730939
O O4 0.487345 0.897931 0.916713
O O5 0.339607 0.897200 0.035743
O O6 0.395447 0.037322 0.941466
O O7 0.166171 0.837483 0.934879
O O8 0.062529 0.970372 0.849115
O O9 0.053440 0.916718 0.126577
O O10 0.867033 0.308280 0.965270
O O11 0.276354 0.808837 0.295366
O O12 0.291018 0.747198 0.039076
#
# Coordination Sequence:
#
# PCOD9455264 Si02
#       7
#     4   8   8   8   8   4   8
#     4   9  20  38  62  85 114 160 204 251 310 374
#     4  10  20  37  61  89 122 162 204 248 306 374
#     4   9  19  36  59  86 114 151 196 242 295 360
#     4  10  21  37  61  90 121 159 206 254 305 371
#     4  11  22  39  60  86 124 161 205 260 320 383
#     4   9  18  36  60  85 118 156 196 237 292 370
#     4  11  23  38  58  87 121 157 203 258 313 366
#
# _framework density 21.339303999999998
#
# number of rings (size 3 to 8) (size 9 to 14) (size 15 to 20)
#    0.000    2.000    0.000    4.000    0.000    6.667 
#    0.000   10.000    0.000    0.000    0.000    0.000 
#    0.000    0.000    0.000    0.000    0.000    0.000 
#
# Total GULP energy -267410.909641 kJ/mol
# GULP energy per Si atom -5571.060618 kJ/mol
# Density = 2.129073 g / cm^3
# Si number density = 21.339304 Si / 1000 Ang^3
#
#
#
# Elastic Constant Matrix: (Units=GPa)
#
#
# Indices 1 2 3 4 5 6 
#
# 1 45.7761 16.2851 7.2297 0.0000 0.0000 0.0000
# 2 16.2851 63.0328 28.7234 0.0000 0.0000 0.0000
# 3 7.2297 28.7234 133.7006 0.0000 0.0000 0.0000
# 4 0.0000 0.0000 0.0000 33.8631 0.0000 0.0000
# 5 0.0000 0.0000 0.0000 0.0000 26.0996 0.0000
# 6 0.0000 0.0000 0.0000 0.0000 0.0000 18.0261
#
#
#
# Elastic Compliance Matrix: (Units=1/GPa)
#
#
# Indices 1 2 3 4 5 6 
#
# 1 0.024057 -0.006233 0.000038 0.000000 0.000000 0.000000
# 2 -0.006233 0.019201 -0.003788 0.000000 0.000000 0.000000
# 3 0.000038 -0.003788 0.008291 0.000000 0.000000 0.000000
# 4 0.000000 0.000000 0.000000 0.029531 0.000000 0.000000
# 5 0.000000 0.000000 0.000000 0.000000 0.038315 0.000000
# 6 0.000000 0.000000 0.000000 0.000000 0.000000 0.055475
#
#
# Mechanical properties :
#
#
# Convention : Reuss Voigt Hill
#
# Bulk Modulus (GPa) = 31.66165 38.55398 35.10781
# Shear Modulus (GPa) = 24.34718 28.28252 26.31485
#
# Velocity S-wave (km/s) = 3.38147 3.64452 3.51545
# Velocity P-wave (km/s) = 5.48773 5.98468 5.74158
#
# Compressibility (1/GPa) = 0.03158395
#
# Stress axis : x y z
#
# Youngs Moduli (GPa) = 41.56845 52.08012 120.61069
#
# Poissons Ratio (x) = 0.32460 -0.00460
# Poissons Ratio (y) = 0.25908 0.45688
# Poissons Ratio (z) = -0.00159 0.19728
#
# Static dielectric constant tensor:
#      x y z
#    x 1.816910 0.000000 0.000000 
#    y 0.000000 1.766360 0.000000 
#    z 0.000000 0.000000 1.914560 
# 
# From -- ./inp_files/6769.got.cif
#   From: 2010.05.17/outbox.cif.g08.bks.cpg/sg60_4_cif.got.tgz:6769.got - 2010.06.03 14:59:27.
