data_PCOD9455767
_publ_section_title
;
Structure prediction by ZEFSAII (Michael W. Deem and Ramdas Pophale) SiO2 
 PCOD9455767
Probable space group: P B C N
;
_chemical_formula_sum "Si O2"
_cell_formula_units_Z 32
_cell_length_a 7.267353
_cell_length_b 31.414859
_cell_length_c 5.724072
_cell_angle_alpha 90.000000
_cell_angle_beta 90.000000
_cell_angle_gamma 90.000000
_cell_volume 1306.822065
_symmetry_space_group_name_H-M "P B C N"
_symmetry_group_IT_number 60
_symmetry_cell_setting 'orthorhombic'
loop_
_space_group_symop_operation_xyz
x,y,z
1/2-x,1/2-y,1/2+z
1/2+x,1/2-y,-z
-x,y,1/2-z
-x,-y,-z
1/2+x,1/2+y,1/2-z
1/2-x,1/2+y,z
x,-y,1/2+z
loop_
_atom_site_type_symbol
_atom_site_label
_atom_site_fract_x
_atom_site_fract_y
_atom_site_fract_z
Si Si1 0.697650 0.389546 0.872557
Si Si2 0.000000 0.261078 0.250000
Si Si3 0.792036 0.484264 0.964772
Si Si4 0.282552 0.805241 0.889123
Si Si5 0.500000 0.340041 0.250000
O O1 0.500000 0.397781 0.750000
O O2 0.792513 0.351475 0.729921
O O3 0.793913 0.434235 0.908032
O O4 0.645787 0.369404 0.119504
O O5 0.817851 0.231657 0.257892
O O6 0.966229 0.290587 0.477424
O O7 0.711514 0.493809 0.226597
O O8 0.000000 0.500000 0.000000
O O9 0.118935 0.812075 0.077607
#
# Coordination Sequence:
#
# PCOD9455767 Si02
#       5
#     8   4   8   8   4
#     4  10  23  44  74 104 147 193 248 307 394 455
#     4  12  24  46  74 105 154 192 265 308 384 456
#     4  10  24  47  70 106 147 191 245 318 377 458
#     4  11  24  45  69 109 146 200 241 318 374 467
#     4  10  20  46  68 105 146 192 245 306 382 462
#
# _framework density 24.486886999999999
#
# number of rings (size 3 to 8) (size 9 to 14) (size 15 to 20)
#    0.000    1.500    3.750    1.500    7.000    1.000 
#    9.000    0.000    0.000    0.000    0.000    0.000 
#    0.000    0.000    0.000    0.000    0.000    0.000 
#
# Total GULP energy -178883.838859 kJ/mol
# GULP energy per Si atom -5590.119964 kJ/mol
# Density = 2.443115 g / cm^3
# Si number density = 24.486887 Si / 1000 Ang^3
#
#
#
# Elastic Constant Matrix: (Units=GPa)
#
#
# Indices 1 2 3 4 5 6 
#
# 1 118.8129 69.2620 23.4951 0.0000 0.0000 0.0000
# 2 69.2620 218.6013 67.3254 0.0000 0.0000 0.0000
# 3 23.4951 67.3254 135.8665 0.0000 0.0000 0.0000
# 4 0.0000 0.0000 0.0000 31.2623 0.0000 0.0000
# 5 0.0000 0.0000 0.0000 0.0000 30.7522 0.0000
# 6 0.0000 0.0000 0.0000 0.0000 0.0000 52.0421
#
#
#
# Elastic Compliance Matrix: (Units=1/GPa)
#
#
# Indices 1 2 3 4 5 6 
#
# 1 0.010328 -0.003212 -0.000194 0.000000 0.000000 0.000000
# 2 -0.003212 0.006398 -0.002615 0.000000 0.000000 0.000000
# 3 -0.000194 -0.002615 0.008689 0.000000 0.000000 0.000000
# 4 0.000000 0.000000 0.000000 0.031987 0.000000 0.000000
# 5 0.000000 0.000000 0.000000 0.000000 0.032518 0.000000
# 6 0.000000 0.000000 0.000000 0.000000 0.000000 0.019215
#
#
# Mechanical properties :
#
#
# Convention : Reuss Voigt Hill
#
# Bulk Modulus (GPa) = 74.78176 88.16064 81.47120
# Shear Modulus (GPa) = 39.79775 43.69120 41.74448
#
# Velocity S-wave (km/s) = 4.03583 4.22864 4.13336
# Velocity P-wave (km/s) = 7.23347 7.74101 7.49154
#
# Compressibility (1/GPa) = 0.01337225
#
# Stress axis : x y z
#
# Youngs Moduli (GPa) = 96.82721 156.30724 115.08314
#
# Poissons Ratio (x) = 0.50213 0.02234
# Poissons Ratio (y) = 0.31105 0.30091
# Poissons Ratio (z) = 0.01879 0.40869
#
# Static dielectric constant tensor:
#      x y z
#    x 1.972000 0.000000 0.000000 
#    y 0.000000 1.871500 0.000000 
#    z 0.000000 0.000000 2.900170 
# 
# From -- ./inp_files/410.got.cif
#   From: 2010.05.17/outbox.cif.g08.bks.cpg/sg60_1_cif.got.tgz:410.got - 2010.06.03 14:59:27.
