data_PCOD9455543
_publ_section_title
;
Structure prediction by ZEFSAII (Michael W. Deem and Ramdas Pophale) SiO2 
 PCOD9455543
Probable space group: P B C N
;
_chemical_formula_sum "Si O2"
_cell_formula_units_Z 56
_cell_length_a 15.339376
_cell_length_b 9.194060
_cell_length_c 17.291834
_cell_angle_alpha 90.000000
_cell_angle_beta 90.000000
_cell_angle_gamma 90.000000
_cell_volume 2438.687119
_symmetry_space_group_name_H-M "P B C N"
_symmetry_group_IT_number 60
_symmetry_cell_setting 'orthorhombic'
loop_
_space_group_symop_operation_xyz
x,y,z
1/2-x,1/2-y,1/2+z
1/2+x,1/2-y,-z
-x,y,1/2-z
-x,-y,-z
1/2+x,1/2+y,1/2-z
1/2-x,1/2+y,z
x,-y,1/2+z
loop_
_atom_site_type_symbol
_atom_site_label
_atom_site_fract_x
_atom_site_fract_y
_atom_site_fract_z
Si Si1 0.535388 0.164705 0.496263
Si Si2 0.740182 0.180823 0.457208
Si Si3 0.024027 0.936215 0.917035
Si Si4 0.085795 0.941877 0.202725
Si Si5 0.095943 0.380196 0.743034
Si Si6 0.235094 0.563708 0.652759
Si Si7 0.872612 0.788143 0.098421
O O1 0.635527 0.184713 0.469681
O O2 0.536752 0.264139 0.573985
O O3 0.460650 0.231868 0.442030
O O4 0.500000 0.000000 0.500000
O O5 0.768337 0.274215 0.381308
O O6 0.794981 0.217504 0.534908
O O7 0.755108 0.017517 0.428144
O O8 0.102483 0.040718 0.885489
O O9 0.935683 0.967761 0.872455
O O10 0.000000 0.000000 0.000000
O O11 0.078680 0.768122 0.195183
O O12 0.187734 0.959551 0.214938
O O13 0.000000 0.985483 0.250000
O O14 0.153552 0.492030 0.694940
O O15 0.134781 0.311909 0.823869
O O16 0.000000 0.447088 0.750000
#
# Coordination Sequence:
#
# PCOD9455543 Si02
#       7
#     8   8   8   8   8   8   8
#     4  11  24  44  70 110 150 190 246 318 385 446
#     4  12  25  43  71 105 153 191 249 312 381 455
#     4  10  20  39  73  99 132 184 250 294 370 450
#     4  11  22  44  72  99 140 197 250 303 376 458
#     4  11  23  46  76 100 148 201 249 304 392 454
#     4  12  24  45  69 105 143 202 248 307 384 461
#     4  11  22  43  71 108 140 200 253 311 374 459
#
# _framework density 22.963175
#
# number of rings (size 3 to 8) (size 9 to 14) (size 15 to 20)
#    0.000    0.857    4.286    6.000    0.000    1.143 
#    5.143    2.143    0.000    0.000    0.000    0.000 
#    0.000    0.000    0.000    0.000    0.000    0.000 
#
# Total GULP energy -311736.225100 kJ/mol
# GULP energy per Si atom -5566.718305 kJ/mol
# Density = 2.291091 g / cm^3
# Si number density = 22.963175 Si / 1000 Ang^3
#
#
#
# Elastic Constant Matrix: (Units=GPa)
#
#
# Indices 1 2 3 4 5 6 
#
# 1 166.8039 28.1311 52.7076 0.0000 0.0000 0.0000
# 2 28.1311 92.7996 17.6525 0.0000 0.0000 0.0000
# 3 52.7076 17.6525 72.2175 0.0000 0.0000 0.0000
# 4 0.0000 0.0000 0.0000 30.2055 0.0000 0.0000
# 5 0.0000 0.0000 0.0000 0.0000 33.3220 0.0000
# 6 0.0000 0.0000 0.0000 0.0000 0.0000 30.2220
#
#
#
# Elastic Compliance Matrix: (Units=1/GPa)
#
#
# Indices 1 2 3 4 5 6 
#
# 1 0.007955 -0.001371 -0.005471 0.000000 0.000000 0.000000
# 2 -0.001371 0.011538 -0.001820 0.000000 0.000000 0.000000
# 3 -0.005471 -0.001820 0.018285 0.000000 0.000000 0.000000
# 4 0.000000 0.000000 0.000000 0.033107 0.000000 0.000000
# 5 0.000000 0.000000 0.000000 0.000000 0.030010 0.000000
# 6 0.000000 0.000000 0.000000 0.000000 0.000000 0.033088
#
#
# Mechanical properties :
#
#
# Convention : Reuss Voigt Hill
#
# Bulk Modulus (GPa) = 48.88877 58.75595 53.82236
# Shear Modulus (GPa) = 31.62090 34.30523 32.96306
#
# Velocity S-wave (km/s) = 3.71486 3.86932 3.79288
# Velocity P-wave (km/s) = 6.30369 6.75313 6.53228
#
# Compressibility (1/GPa) = 0.02045459
#
# Stress axis : x y z
#
# Youngs Moduli (GPa) = 125.70801 86.67317 54.69044
#
# Poissons Ratio (x) = 0.11881 0.29920
# Poissons Ratio (y) = 0.17232 0.09952
# Poissons Ratio (z) = 0.68773 0.15772
#
# Static dielectric constant tensor:
#      x y z
#    x 1.891510 0.000000 0.000000 
#    y 0.000000 1.909310 0.000000 
#    z 0.000000 0.000000 2.030460 
# 
# From -- ./inp_files/22914.got.cif
#   From: 2010.05.17/outbox.cif.g08.bks.cpg/sg60_12_cif.got.tgz:22914.got - 2010.06.03 14:59:27.
