data_PCOD9455168
_publ_section_title
;
Structure prediction by ZEFSAII (Michael W. Deem and Ramdas Pophale) SiO2 
 PCOD9455168
Probable space group: P B C N
;
_chemical_formula_sum "Si O2"
_cell_formula_units_Z 64
_cell_length_a 9.364512
_cell_length_b 9.537256
_cell_length_c 31.026745
_cell_angle_alpha 90.000000
_cell_angle_beta 90.000000
_cell_angle_gamma 90.000000
_cell_volume 2771.052839
_symmetry_space_group_name_H-M "P B C N"
_symmetry_group_IT_number 60
_symmetry_cell_setting 'orthorhombic'
loop_
_space_group_symop_operation_xyz
x,y,z
1/2-x,1/2-y,1/2+z
1/2+x,1/2-y,-z
-x,y,1/2-z
-x,-y,-z
1/2+x,1/2+y,1/2-z
1/2-x,1/2+y,z
x,-y,1/2+z
loop_
_atom_site_type_symbol
_atom_site_label
_atom_site_fract_x
_atom_site_fract_y
_atom_site_fract_z
Si Si1 0.939700 0.286920 0.298616
Si Si2 0.305848 0.507676 0.047285
Si Si3 0.999096 0.574076 0.332253
Si Si4 0.094156 0.267728 0.582738
Si Si5 0.784963 0.850975 0.083535
Si Si6 0.637858 0.265088 0.261078
Si Si7 0.379598 0.623857 0.455782
Si Si8 0.784932 0.802990 0.671496
O O1 0.957477 0.414700 0.331104
O O2 0.771318 0.279206 0.292929
O O3 0.000000 0.313912 0.250000
O O4 0.047658 0.171429 0.319205
O O5 0.317321 0.377954 0.080949
O O6 0.174534 0.611791 0.055641
O O7 0.451744 0.599070 0.048655
O O8 0.318817 0.430152 0.001262
O O9 0.934031 0.665274 0.370563
O O10 0.944413 0.642046 0.287616
O O11 0.170772 0.573990 0.333925
O O12 0.935629 0.218586 0.568015
O O13 0.664970 0.782125 0.053461
O O14 0.806496 0.016386 0.078258
O O15 0.747331 0.795760 0.130883
O O16 0.500000 0.363428 0.250000
O O17 0.721106 0.259139 0.215892
#
# Coordination Sequence:
#
# PCOD9455168 Si02
#       8
#     8   8   8   8   8   8   8   8
#     4  10  20  36  61  85 116 167 208 251 315 374
#     4  10  22  42  61  89 122 162 201 264 317 393
#     4  10  21  38  58  84 124 162 203 263 308 372
#     4  10  23  38  62  89 124 160 208 258 320 375
#     4  10  22  38  60  94 120 162 206 261 312 382
#     4   9  19  38  58  86 123 160 202 259 307 369
#     4  10  22  40  63  88 124 157 207 255 327 386
#     4   9  20  36  57  85 120 155 208 251 303 364
#
# _framework density 23.095915999999999
#
# number of rings (size 3 to 8) (size 9 to 14) (size 15 to 20)
#    0.000    2.250    0.000    1.875    5.250    2.500 
#    0.000    5.625    0.000    0.000    0.000    0.000 
#    0.000    0.000    0.000    0.000    0.000    0.000 
#
# Total GULP energy -356388.165757 kJ/mol
# GULP energy per Si atom -5568.565090 kJ/mol
# Density = 2.304335 g / cm^3
# Si number density = 23.095916 Si / 1000 Ang^3
#
#
#
# Elastic Constant Matrix: (Units=GPa)
#
#
# Indices 1 2 3 4 5 6 
#
# 1 143.7551 32.8282 29.8343 0.0000 0.0000 0.0000
# 2 32.8282 38.0555 8.3246 0.0000 0.0000 0.0000
# 3 29.8343 8.3246 66.9926 0.0000 0.0000 0.0000
# 4 0.0000 0.0000 0.0000 17.8421 0.0000 0.0000
# 5 0.0000 0.0000 0.0000 0.0000 29.6103 0.0000
# 6 0.0000 0.0000 0.0000 0.0000 0.0000 15.9151
#
#
#
# Elastic Compliance Matrix: (Units=1/GPa)
#
#
# Indices 1 2 3 4 5 6 
#
# 1 0.009297 -0.007313 -0.003232 0.000000 0.000000 0.000000
# 2 -0.007313 0.032764 -0.000815 0.000000 0.000000 0.000000
# 3 -0.003232 -0.000815 0.016467 0.000000 0.000000 0.000000
# 4 0.000000 0.000000 0.000000 0.056047 0.000000 0.000000
# 5 0.000000 0.000000 0.000000 0.000000 0.033772 0.000000
# 6 0.000000 0.000000 0.000000 0.000000 0.000000 0.062833
#
#
# Mechanical properties :
#
#
# Convention : Reuss Voigt Hill
#
# Bulk Modulus (GPa) = 27.92502 43.41971 35.67237
# Shear Modulus (GPa) = 20.33874 24.52790 22.43332
#
# Velocity S-wave (km/s) = 2.97074 3.26237 3.11997
# Velocity P-wave (km/s) = 4.88715 5.74729 5.33458
#
# Compressibility (1/GPa) = 0.03581018
#
# Stress axis : x y z
#
# Youngs Moduli (GPa) = 107.56210 30.52119 60.72616
#
# Poissons Ratio (x) = 0.22320 0.19624
# Poissons Ratio (y) = 0.78660 0.04946
# Poissons Ratio (z) = 0.34759 0.02486
#
# Static dielectric constant tensor:
#      x y z
#    x 1.956960 0.000000 0.000000 
#    y 0.000000 1.897770 0.000000 
#    z 0.000000 0.000000 1.996550 
# 
# From -- ./inp_files/26033.got.cif
#   From: 2010.05.17/outbox.cif.g08.bks.cpg/sg60_14_cif.got.tgz:26033.got - 2010.06.03 14:59:27.
