data_PCOD9455361
_publ_section_title
;
Structure prediction by ZEFSAII (Michael W. Deem and Ramdas Pophale) SiO2 
 PCOD9455361
Probable space group: P B C N
;
_chemical_formula_sum "Si O2"
_cell_formula_units_Z 64
_cell_length_a 23.030420
_cell_length_b 9.241175
_cell_length_c 14.917568
_cell_angle_alpha 90.000000
_cell_angle_beta 90.000000
_cell_angle_gamma 90.000000
_cell_volume 3174.878274
_symmetry_space_group_name_H-M "P B C N"
_symmetry_group_IT_number 60
_symmetry_cell_setting 'orthorhombic'
loop_
_space_group_symop_operation_xyz
x,y,z
1/2-x,1/2-y,1/2+z
1/2+x,1/2-y,-z
-x,y,1/2-z
-x,-y,-z
1/2+x,1/2+y,1/2-z
1/2-x,1/2+y,z
x,-y,1/2+z
loop_
_atom_site_type_symbol
_atom_site_label
_atom_site_fract_x
_atom_site_fract_y
_atom_site_fract_z
Si Si1 0.135050 0.918646 0.184959
Si Si2 0.936751 0.567031 0.012209
Si Si3 0.369140 0.281157 0.598880
Si Si4 0.234793 0.723362 0.455787
Si Si5 0.565517 0.180140 0.215076
Si Si6 0.339128 0.956893 0.220978
Si Si7 0.727890 0.464170 0.165222
Si Si8 0.336433 0.142552 0.060608
O O1 0.118735 0.052536 0.120543
O O2 0.185713 0.982590 0.249464
O O3 0.089627 0.836487 0.251379
O O4 0.151658 0.788699 0.116805
O O5 0.930797 0.639208 0.110190
O O6 0.923287 0.695901 0.943062
O O7 0.889991 0.440526 0.987129
O O8 0.000000 0.500000 0.000000
O O9 0.315386 0.239431 0.531578
O O10 0.355880 0.202946 0.692723
O O11 0.265765 0.580263 0.415268
O O12 0.288024 0.818018 0.490316
O O13 0.208573 0.808072 0.371399
O O14 0.500000 0.166903 0.250000
O O15 0.605596 0.056822 0.260208
O O16 0.293095 0.956869 0.298556
O O17 0.310953 0.031525 0.133613
#
# Coordination Sequence:
#
# PCOD9455361 Si02
#       8
#     8   8   8   8   8   8   8   8
#     4  11  23  39  59  91 131 165 199 262 333 379
#     4  11  23  44  70  90 116 163 219 261 299 371
#     4  11  22  39  61  90 124 164 208 257 315 378
#     4  12  22  35  57  89 126 165 206 253 307 373
#     4  11  23  44  67  91 123 164 212 264 317 377
#     4  10  20  38  61  86 118 165 215 256 301 371
#     4  12  22  35  57  89 126 165 204 253 312 373
#     4  10  21  38  60  88 122 165 209 258 310 368
#
# _framework density 20.158252999999998
#
# number of rings (size 3 to 8) (size 9 to 14) (size 15 to 20)
#    0.000    1.000    0.000   10.500    0.000    0.000 
#    0.000    5.625    0.000    0.000    0.000    0.000 
#    0.000    0.000    0.000    0.000    0.000    0.000 
#
# Total GULP energy -356778.537739 kJ/mol
# GULP energy per Si atom -5574.664652 kJ/mol
# Density = 2.011237 g / cm^3
# Si number density = 20.158253 Si / 1000 Ang^3
#
#
#
# Elastic Constant Matrix: (Units=GPa)
#
#
# Indices 1 2 3 4 5 6 
#
# 1 93.4773 31.7669 38.2276 0.0000 0.0000 0.0000
# 2 31.7669 140.1841 43.1437 0.0000 0.0000 0.0000
# 3 38.2276 43.1437 83.0123 0.0000 0.0000 0.0000
# 4 0.0000 0.0000 0.0000 35.6755 0.0000 0.0000
# 5 0.0000 0.0000 0.0000 0.0000 30.9979 0.0000
# 6 0.0000 0.0000 0.0000 0.0000 0.0000 18.7809
#
#
#
# Elastic Compliance Matrix: (Units=1/GPa)
#
#
# Indices 1 2 3 4 5 6 
#
# 1 0.013392 -0.001353 -0.005464 0.000000 0.000000 0.000000
# 2 -0.001353 0.008628 -0.003861 0.000000 0.000000 0.000000
# 3 -0.005464 -0.003861 0.016569 0.000000 0.000000 0.000000
# 4 0.000000 0.000000 0.000000 0.028030 0.000000 0.000000
# 5 0.000000 0.000000 0.000000 0.000000 0.032260 0.000000
# 6 0.000000 0.000000 0.000000 0.000000 0.000000 0.053246
#
#
# Mechanical properties :
#
#
# Convention : Reuss Voigt Hill
#
# Bulk Modulus (GPa) = 58.02728 60.32778 59.17753
# Shear Modulus (GPa) = 27.89753 30.65989 29.27871
#
# Velocity S-wave (km/s) = 3.72415 3.90418 3.81523
# Velocity P-wave (km/s) = 6.88046 7.09335 6.98771
#
# Compressibility (1/GPa) = 0.01723327
#
# Stress axis : x y z
#
# Youngs Moduli (GPa) = 74.67094 115.89515 60.35233
#
# Poissons Ratio (x) = 0.15683 0.32976
# Poissons Ratio (y) = 0.10104 0.23304
# Poissons Ratio (z) = 0.40799 0.44751
#
# Static dielectric constant tensor:
#      x y z
#    x 1.702710 0.000000 0.000000 
#    y 0.000000 1.770820 0.000000 
#    z 0.000000 0.000000 1.803010 
# 
# From -- ./inp_files/17955.got.cif
#   From: 2010.05.17/outbox.cif.g08.bks.cpg/sg60_9_cif.got.tgz:17955.got - 2010.06.03 14:59:27.
