data_PCOD9455900
_publ_section_title
;
Structure prediction by ZEFSAII (Michael W. Deem and Ramdas Pophale) SiO2 
 PCOD9455900
Probable space group: P B C N
;
_chemical_formula_sum "Si O2"
_cell_formula_units_Z 52
_cell_length_a 16.224735
_cell_length_b 15.423980
_cell_length_c 8.746012
_cell_angle_alpha 90.000000
_cell_angle_beta 90.000000
_cell_angle_gamma 90.000000
_cell_volume 2188.689399
_symmetry_space_group_name_H-M "P B C N"
_symmetry_group_IT_number 60
_symmetry_cell_setting 'orthorhombic'
loop_
_space_group_symop_operation_xyz
x,y,z
1/2-x,1/2-y,1/2+z
1/2+x,1/2-y,-z
-x,y,1/2-z
-x,-y,-z
1/2+x,1/2+y,1/2-z
1/2-x,1/2+y,z
x,-y,1/2+z
loop_
_atom_site_type_symbol
_atom_site_label
_atom_site_fract_x
_atom_site_fract_y
_atom_site_fract_z
Si Si1 0.814728 0.700713 0.197749
Si Si2 0.000000 0.242922 0.750000
Si Si3 0.249980 0.941839 0.584516
Si Si4 0.384980 0.060710 0.498201
Si Si5 0.062777 0.107215 0.544894
Si Si6 0.000000 0.047694 0.250000
Si Si7 0.703518 0.391553 0.222937
Si Si8 0.500000 0.982651 0.250000
O O1 0.911426 0.710897 0.249896
O O2 0.826295 0.640137 0.047717
O O3 0.770620 0.793520 0.177176
O O4 0.933323 0.572298 0.843907
O O5 0.996683 0.177776 0.603661
O O6 0.334312 0.970758 0.501599
O O7 0.241952 0.023028 0.699317
O O8 0.264663 0.856623 0.681953
O O9 0.183845 0.929294 0.448194
O O10 0.453227 0.043468 0.369776
O O11 0.059923 0.099817 0.362954
O O12 0.144070 0.133634 0.635049
O O13 0.044972 0.016410 0.632170
#
# Coordination Sequence:
#
# PCOD9455900 Si02
#       8
#     8   4   8   8   8   4   8   4
#     4  11  24  42  70  96 143 176 232 297 351 422
#     4   9  21  40  60  90 130 172 219 291 366 394
#     4  12  24  43  67  95 140 184 236 279 352 429
#     4  11  21  41  64 101 128 185 217 294 345 427
#     4   9  18  36  61  94 131 170 225 287 344 419
#     4   9  16  32  66  92 123 170 228 281 352 404
#     4  11  25  42  67  98 139 191 232 288 350 425
#     4  10  21  36  70  96 137 172 229 276 370 420
#
# _framework density 23.758510999999999
#
# number of rings (size 3 to 8) (size 9 to 14) (size 15 to 20)
#    0.000    1.538    3.077    1.385    4.308    1.231 
#    0.000    0.769    3.385    0.000    0.000    0.000 
#    0.000    0.000    0.000    0.000    0.000    0.000 
#
# Total GULP energy -289497.942254 kJ/mol
# GULP energy per Si atom -5567.268120 kJ/mol
# Density = 2.370444 g / cm^3
# Si number density = 23.758511 Si / 1000 Ang^3
#
#
#
# Elastic Constant Matrix: (Units=GPa)
#
#
# Indices 1 2 3 4 5 6 
#
# 1 34.1691 4.8639 20.7209 0.0000 0.0000 0.0000
# 2 4.8639 118.2322 51.1236 0.0000 0.0000 0.0000
# 3 20.7209 51.1236 160.8635 0.0000 0.0000 0.0000
# 4 0.0000 0.0000 0.0000 13.8455 0.0000 0.0000
# 5 0.0000 0.0000 0.0000 0.0000 35.3978 0.0000
# 6 0.0000 0.0000 0.0000 0.0000 0.0000 45.0058
#
#
#
# Elastic Compliance Matrix: (Units=1/GPa)
#
#
# Indices 1 2 3 4 5 6 
#
# 1 0.031775 0.000536 -0.004263 0.000000 0.000000 0.000000
# 2 0.000536 0.009814 -0.003188 0.000000 0.000000 0.000000
# 3 -0.004263 -0.003188 0.007779 0.000000 0.000000 0.000000
# 4 0.000000 0.000000 0.000000 0.072226 0.000000 0.000000
# 5 0.000000 0.000000 0.000000 0.000000 0.028250 0.000000
# 6 0.000000 0.000000 0.000000 0.000000 0.000000 0.022219
#
#
# Mechanical properties :
#
#
# Convention : Reuss Voigt Hill
#
# Bulk Modulus (GPa) = 28.13888 51.85352 39.99620
# Shear Modulus (GPa) = 25.28567 34.62025 29.95296
#
# Velocity S-wave (km/s) = 3.26587 3.82143 3.55452
# Velocity P-wave (km/s) = 5.10790 6.42991 5.80665
#
# Compressibility (1/GPa) = 0.03553802
#
# Stress axis : x y z
#
# Youngs Moduli (GPa) = 31.47094 101.89071 128.55363
#
# Poissons Ratio (x) = -0.05465 0.54808
# Poissons Ratio (y) = -0.01688 0.40985
# Poissons Ratio (z) = 0.13417 0.32485
#
# Static dielectric constant tensor:
#      x y z
#    x 2.142810 0.000000 0.000000 
#    y 0.000000 1.959340 0.000000 
#    z 0.000000 0.000000 1.968240 
# 
# From -- ./inp_files/7380.got.cif
#   From: 2010.05.17/outbox.cif.g08.bks.cpg/sg60_4_cif.got.tgz:7380.got - 2010.06.03 14:59:27.
