data_PCOD9455178
_publ_section_title
;
Structure prediction by ZEFSAII (Michael W. Deem and Ramdas Pophale) SiO2 
 PCOD9455178
Probable space group: P B C N
;
_chemical_formula_sum "Si O2"
_cell_formula_units_Z 56
_cell_length_a 5.042107
_cell_length_b 16.208180
_cell_length_c 27.627166
_cell_angle_alpha 90.000000
_cell_angle_beta 90.000000
_cell_angle_gamma 90.000000
_cell_volume 2257.785326
_symmetry_space_group_name_H-M "P B C N"
_symmetry_group_IT_number 60
_symmetry_cell_setting 'orthorhombic'
loop_
_space_group_symop_operation_xyz
x,y,z
1/2-x,1/2-y,1/2+z
1/2+x,1/2-y,-z
-x,y,1/2-z
-x,-y,-z
1/2+x,1/2+y,1/2-z
1/2-x,1/2+y,z
x,-y,1/2+z
loop_
_atom_site_type_symbol
_atom_site_label
_atom_site_fract_x
_atom_site_fract_y
_atom_site_fract_z
Si Si1 0.017654 0.049779 0.195925
Si Si2 0.683717 0.307382 0.989671
Si Si3 0.108924 0.274837 0.303232
Si Si4 0.252073 0.111615 0.916668
Si Si5 0.885288 0.873838 0.327687
Si Si6 0.018853 0.449460 0.871548
Si Si7 0.374156 0.693639 0.396912
O O1 0.000000 0.087643 0.250000
O O2 0.589628 0.305542 0.192976
O O3 0.726925 0.041748 0.172751
O O4 0.105564 0.954619 0.203899
O O5 0.590692 0.331625 0.936126
O O6 0.951970 0.253736 0.990156
O O7 0.700877 0.384679 0.025985
O O8 0.074534 0.198028 0.339010
O O9 0.000000 0.263336 0.250000
O O10 0.911912 0.342406 0.325827
O O11 0.996985 0.105928 0.881248
O O12 0.331110 0.208777 0.908543
O O13 0.438308 0.034264 0.902017
O O14 0.760742 0.068227 0.345974
O O15 0.133361 0.370679 0.900801
#
# Coordination Sequence:
#
# PCOD9455178 Si02
#       7
#     8   8   8   8   8   8   8
#     4  11  22  40  62  90 129 170 217 271 325 394
#     4  10  21  39  67  96 126 174 222 272 344 404
#     4  11  21  35  59  90 122 164 211 262 325 389
#     4   9  21  42  67  93 129 168 216 277 337 402
#     4  10  20  36  62  92 122 159 209 265 325 390
#     4  11  25  40  63  96 128 172 219 269 336 395
#     4  10  23  42  64  92 132 170 219 277 329 402
#
# _framework density 24.803066999999999
#
# number of rings (size 3 to 8) (size 9 to 14) (size 15 to 20)
#    0.000    1.714    0.000    5.143    0.000    9.143 
#    0.000    2.857    0.000   18.857    0.000    0.000 
#    0.000    0.000    0.000    0.000    0.000    0.000 
#
# Total GULP energy -312609.987706 kJ/mol
# GULP energy per Si atom -5582.321209 kJ/mol
# Density = 2.474661 g / cm^3
# Si number density = 24.803067 Si / 1000 Ang^3
#
#
#
# Elastic Constant Matrix: (Units=GPa)
#
#
# Indices 1 2 3 4 5 6 
#
# 1 64.3895 18.6900 44.2183 0.0000 0.0000 0.0000
# 2 18.6900 103.3314 30.3180 0.0000 0.0000 0.0000
# 3 44.2183 30.3180 129.5553 0.0000 0.0000 0.0000
# 4 0.0000 0.0000 0.0000 16.9954 0.0000 0.0000
# 5 0.0000 0.0000 0.0000 0.0000 19.2183 0.0000
# 6 0.0000 0.0000 0.0000 0.0000 0.0000 29.0172
#
#
#
# Elastic Compliance Matrix: (Units=1/GPa)
#
#
# Indices 1 2 3 4 5 6 
#
# 1 0.020587 -0.001785 -0.006609 0.000000 0.000000 0.000000
# 2 -0.001785 0.010546 -0.001859 0.000000 0.000000 0.000000
# 3 -0.006609 -0.001859 0.010409 0.000000 0.000000 0.000000
# 4 0.000000 0.000000 0.000000 0.058839 0.000000 0.000000
# 5 0.000000 0.000000 0.000000 0.000000 0.052034 0.000000
# 6 0.000000 0.000000 0.000000 0.000000 0.000000 0.034462
#
#
# Mechanical properties :
#
#
# Convention : Reuss Voigt Hill
#
# Bulk Modulus (GPa) = 47.53389 53.74765 50.64077
# Shear Modulus (GPa) = 23.32146 26.64950 24.98548
#
# Velocity S-wave (km/s) = 3.06970 3.28143 3.17733
# Velocity P-wave (km/s) = 5.63651 6.00615 5.82426
#
# Compressibility (1/GPa) = 0.02103762
#
# Stress axis : x y z
#
# Youngs Moduli (GPa) = 48.57426 94.82480 96.06726
#
# Poissons Ratio (x) = 0.16922 0.63490
# Poissons Ratio (y) = 0.08668 0.17857
# Poissons Ratio (z) = 0.32102 0.17626
#
# Static dielectric constant tensor:
#      x y z
#    x 1.992010 0.000000 0.000000 
#    y 0.000000 2.040200 0.000000 
#    z 0.000000 0.000000 2.183020 
# 
# From -- ./inp_files/25690.got.cif
#   From: 2010.05.17/outbox.cif.g08.bks.cpg/sg60_13_cif.got.tgz:25690.got - 2010.06.03 14:59:27.
