data_PCOD9455649
_publ_section_title
;
Structure prediction by ZEFSAII (Michael W. Deem and Ramdas Pophale) SiO2 
 PCOD9455649
Probable space group: P B C N
;
_chemical_formula_sum "Si O2"
_cell_formula_units_Z 56
_cell_length_a 5.569306
_cell_length_b 13.861624
_cell_length_c 31.744305
_cell_angle_alpha 90.000000
_cell_angle_beta 90.000000
_cell_angle_gamma 90.000000
_cell_volume 2450.648465
_symmetry_space_group_name_H-M "P B C N"
_symmetry_group_IT_number 60
_symmetry_cell_setting 'orthorhombic'
loop_
_space_group_symop_operation_xyz
x,y,z
1/2-x,1/2-y,1/2+z
1/2+x,1/2-y,-z
-x,y,1/2-z
-x,-y,-z
1/2+x,1/2+y,1/2-z
1/2-x,1/2+y,z
x,-y,1/2+z
loop_
_atom_site_type_symbol
_atom_site_label
_atom_site_fract_x
_atom_site_fract_y
_atom_site_fract_z
Si Si1 0.809885 0.521403 0.596518
Si Si2 0.234277 0.211092 0.602380
Si Si3 0.459721 0.644467 0.452077
Si Si4 0.500000 0.066124 0.250000
Si Si5 0.392073 0.116513 0.157256
Si Si6 0.912348 0.064506 0.840814
Si Si7 0.000000 0.053141 0.750000
Si Si8 0.682917 0.670363 0.536597
O O1 0.639269 0.452260 0.567920
O O2 0.652681 0.572214 0.632488
O O3 0.874474 0.605723 0.562922
O O4 0.968947 0.444661 0.621502
O O5 0.416868 0.288480 0.583102
O O6 0.110771 0.278087 0.637868
O O7 0.291496 0.118102 0.631340
O O8 0.056181 0.177028 0.565273
O O9 0.635066 0.625417 0.491099
O O10 0.260326 0.718689 0.469656
O O11 0.487054 0.119404 0.205053
O O12 0.748637 0.005498 0.245403
O O13 0.152929 0.049446 0.162050
O O14 0.952977 0.104972 0.794318
#
# Coordination Sequence:
#
# PCOD9455649 Si02
#       8
#     8   8   8   4   8   8   4   8
#     4  11  22  39  62  90 119 166 203 260 318 388
#     4  11  23  39  62  89 119 165 207 258 311 383
#     4  12  22  42  60  89 124 162 212 266 319 383
#     4  10  22  37  70  93 134 170 216 265 332 385
#     4  11  21  41  62  93 122 162 207 260 319 389
#     4  10  22  39  63  87 127 158 211 247 322 377
#     4  10  20  41  64  97 130 174 208 275 322 393
#     4  11  24  39  60  87 123 160 211 259 320 376
#
# _framework density 22.851094
#
# number of rings (size 3 to 8) (size 9 to 14) (size 15 to 20)
#    0.000    1.143    5.714    1.286    0.000    0.571 
#    0.000    1.429    0.000    4.286    0.000    0.000 
#    0.000    0.000    0.000    0.000    0.000    0.000 
#
# Total GULP energy -312116.826083 kJ/mol
# GULP energy per Si atom -5573.514751 kJ/mol
# Density = 2.279908 g / cm^3
# Si number density = 22.851094 Si / 1000 Ang^3
#
#
#
# Elastic Constant Matrix: (Units=GPa)
#
#
# Indices 1 2 3 4 5 6 
#
# 1 31.4513 -18.6332 -1.9333 0.0000 0.0000 0.0000
# 2 -18.6332 63.3979 18.6164 0.0000 0.0000 0.0000
# 3 -1.9333 18.6164 146.6129 0.0000 0.0000 0.0000
# 4 0.0000 0.0000 0.0000 37.8826 0.0000 0.0000
# 5 0.0000 0.0000 0.0000 0.0000 32.9785 0.0000
# 6 0.0000 0.0000 0.0000 0.0000 0.0000 22.2905
#
#
#
# Elastic Compliance Matrix: (Units=1/GPa)
#
#
# Indices 1 2 3 4 5 6 
#
# 1 0.038631 0.011638 -0.000968 0.000000 0.000000 0.000000
# 2 0.011638 0.019891 -0.002372 0.000000 0.000000 0.000000
# 3 -0.000968 -0.002372 0.007109 0.000000 0.000000 0.000000
# 4 0.000000 0.000000 0.000000 0.026397 0.000000 0.000000
# 5 0.000000 0.000000 0.000000 0.000000 0.030323 0.000000
# 6 0.000000 0.000000 0.000000 0.000000 0.000000 0.044862
#
#
# Mechanical properties :
#
#
# Convention : Reuss Voigt Hill
#
# Bulk Modulus (GPa) = 12.16163 26.39577 19.27870
# Shear Modulus (GPa) = 28.08580 34.85779 31.47179
#
# Velocity S-wave (km/s) = 3.50963 3.90992 3.71517
# Velocity P-wave (km/s) = 4.66444 5.65328 5.18249
#
# Compressibility (1/GPa) = 0.08222579
#
# Stress axis : x y z
#
# Youngs Moduli (GPa) = 25.88613 50.27518 140.66437
#
# Poissons Ratio (x) = -0.58511 0.13622
# Poissons Ratio (y) = -0.30127 0.33368
# Poissons Ratio (z) = 0.02507 0.11926
#
# Static dielectric constant tensor:
#      x y z
#    x 1.972450 0.000000 0.000000 
#    y 0.000000 1.878910 0.000000 
#    z 0.000000 0.000000 1.881320 
# 
# From -- ./inp_files/25722.got.cif
#   From: 2010.05.17/outbox.cif.g08.bks.cpg/sg60_13_cif.got.tgz:25722.got - 2010.06.03 14:59:27.
