data_PCOD9455963
_publ_section_title
;
Structure prediction by ZEFSAII (Michael W. Deem and Ramdas Pophale) SiO2 
 PCOD9455963
Probable space group: P B C N
;
_chemical_formula_sum "Si O2"
_cell_formula_units_Z 64
_cell_length_a 7.310211
_cell_length_b 15.138477
_cell_length_c 23.983963
_cell_angle_alpha 90.000000
_cell_angle_beta 90.000000
_cell_angle_gamma 90.000000
_cell_volume 2654.196324
_symmetry_space_group_name_H-M "P B C N"
_symmetry_group_IT_number 60
_symmetry_cell_setting 'orthorhombic'
loop_
_space_group_symop_operation_xyz
x,y,z
1/2-x,1/2-y,1/2+z
1/2+x,1/2-y,-z
-x,y,1/2-z
-x,-y,-z
1/2+x,1/2+y,1/2-z
1/2-x,1/2+y,z
x,-y,1/2+z
loop_
_atom_site_type_symbol
_atom_site_label
_atom_site_fract_x
_atom_site_fract_y
_atom_site_fract_z
Si Si1 0.210405 0.813988 0.389668
Si Si2 0.283330 0.152841 0.760870
Si Si3 0.582555 0.263424 0.931685
Si Si4 0.409422 0.873144 0.873767
Si Si5 0.280348 0.047850 0.263918
Si Si6 0.243443 0.312578 0.681748
Si Si7 0.351340 0.903928 0.001600
Si Si8 0.292114 0.422484 0.490912
O O1 0.265522 0.840420 0.327693
O O2 0.372239 0.765332 0.424530
O O3 0.076635 0.733343 0.377830
O O4 0.145118 0.892560 0.429341
O O5 0.500000 0.161847 0.750000
O O6 0.189446 0.228677 0.722282
O O7 0.224606 0.051801 0.749710
O O8 0.641724 0.272010 0.867891
O O9 0.625445 0.352024 0.965934
O O10 0.686869 0.186180 0.965411
O O11 0.278102 0.917194 0.827938
O O12 0.613907 0.883830 0.851744
O O13 0.355629 0.902041 0.934709
O O14 0.500000 0.053591 0.250000
O O15 0.178578 0.119801 0.226863
O O16 0.567593 0.918551 0.014625
O O17 0.200288 0.978230 0.014344
#
# Coordination Sequence:
#
# PCOD9455963 Si02
#       8
#     8   8   8   8   8   8   8   8
#     4  11  22  37  67  86 124 165 202 259 322 370
#     4  11  21  39  64  94 121 158 213 261 312 372
#     4  11  22  38  62  93 121 163 206 257 316 369
#     4  11  20  39  64  88 123 163 205 251 316 371
#     4   9  21  36  62  90 118 159 208 254 302 374
#     4  11  22  38  64  89 124 161 207 260 306 376
#     4  10  21  37  65  89 121 163 208 260 308 372
#     4  10  21  39  62  93 120 160 216 255 307 382
#
# _framework density 24.112759
#
# number of rings (size 3 to 8) (size 9 to 14) (size 15 to 20)
#    0.000    1.500    5.000    0.750    0.000    1.000 
#    0.000    0.625   13.750    0.000    0.000    0.000 
#    0.000    0.000    0.000    0.000    0.000    0.000 
#
# Total GULP energy -356642.613395 kJ/mol
# GULP energy per Si atom -5572.540834 kJ/mol
# Density = 2.405788 g / cm^3
# Si number density = 24.112759 Si / 1000 Ang^3
#
#
#
# Elastic Constant Matrix: (Units=GPa)
#
#
# Indices 1 2 3 4 5 6 
#
# 1 35.7689 -0.6478 7.4970 0.0000 0.0000 0.0000
# 2 -0.6478 128.5483 58.2394 0.0000 0.0000 0.0000
# 3 7.4970 58.2394 149.8321 0.0000 0.0000 0.0000
# 4 0.0000 0.0000 0.0000 86.3002 0.0000 0.0000
# 5 0.0000 0.0000 0.0000 0.0000 25.5264 0.0000
# 6 0.0000 0.0000 0.0000 0.0000 0.0000 20.0377
#
#
#
# Elastic Compliance Matrix: (Units=1/GPa)
#
#
# Indices 1 2 3 4 5 6 
#
# 1 0.028349 0.000953 -0.001789 0.000000 0.000000 0.000000
# 2 0.000953 0.009474 -0.003730 0.000000 0.000000 0.000000
# 3 -0.001789 -0.003730 0.008214 0.000000 0.000000 0.000000
# 4 0.000000 0.000000 0.000000 0.011587 0.000000 0.000000
# 5 0.000000 0.000000 0.000000 0.000000 0.039175 0.000000
# 6 0.000000 0.000000 0.000000 0.000000 0.000000 0.049906
#
#
# Mechanical properties :
#
#
# Convention : Reuss Voigt Hill
#
# Bulk Modulus (GPa) = 27.09640 49.36962 38.23301
# Shear Modulus (GPa) = 29.73726 42.97689 36.35707
#
# Velocity S-wave (km/s) = 3.51559 4.22634 3.88724
# Velocity P-wave (km/s) = 5.26696 6.65845 6.00316
#
# Compressibility (1/GPa) = 0.03690527
#
# Stress axis : x y z
#
# Youngs Moduli (GPa) = 35.27400 105.55231 121.74956
#
# Poissons Ratio (x) = -0.10063 0.21782
# Poissons Ratio (y) = -0.03363 0.45415
# Poissons Ratio (z) = 0.06311 0.39373
#
# Static dielectric constant tensor:
#      x y z
#    x 2.063300 0.000000 0.000000 
#    y 0.000000 2.062670 0.000000 
#    z 0.000000 0.000000 1.654700 
# 
# From -- ./inp_files/24069.got.cif
#   From: 2010.05.17/outbox.cif.g08.bks.cpg/sg60_13_cif.got.tgz:24069.got - 2010.06.03 14:59:27.
