data_PCOD9455972
_publ_section_title
;
Structure prediction by ZEFSAII (Michael W. Deem and Ramdas Pophale) SiO2 
 PCOD9455972
Probable space group: P B C N
;
_chemical_formula_sum "Si O2"
_cell_formula_units_Z 32
_cell_length_a 5.304450
_cell_length_b 29.919496
_cell_length_c 9.449338
_cell_angle_alpha 90.000000
_cell_angle_beta 90.000000
_cell_angle_gamma 90.000000
_cell_volume 1499.671083
_symmetry_space_group_name_H-M "P B C N"
_symmetry_group_IT_number 60
_symmetry_cell_setting 'orthorhombic'
loop_
_space_group_symop_operation_xyz
x,y,z
1/2-x,1/2-y,1/2+z
1/2+x,1/2-y,-z
-x,y,1/2-z
-x,-y,-z
1/2+x,1/2+y,1/2-z
1/2-x,1/2+y,z
x,-y,1/2+z
loop_
_atom_site_type_symbol
_atom_site_label
_atom_site_fract_x
_atom_site_fract_y
_atom_site_fract_z
Si Si1 0.651174 0.225412 0.454692
Si Si2 0.500000 0.684577 0.250000
Si Si3 0.606122 0.136614 0.089703
Si Si4 0.804796 0.459583 0.495395
Si Si5 0.000000 0.000049 0.750000
O O1 0.406036 0.257107 0.467586
O O2 0.773269 0.215842 0.301087
O O3 0.541202 0.176227 0.490248
O O4 0.389549 0.654153 0.376089
O O5 0.500000 0.130299 0.250000
O O6 0.590478 0.089943 0.010698
O O7 0.666560 0.467824 0.347714
O O8 0.635117 0.468569 0.634725
O O9 0.000000 0.500000 0.500000
#
# Coordination Sequence:
#
# PCOD9455972 Si02
#       5
#     8   4   8   8   4
#     4  11  22  40  67  97 131 171 223 287 339 408
#     4  10  21  40  68  96 126 172 240 280 339 414
#     4  10  21  37  67  96 128 178 235 280 345 415
#     4  11  22  42  68  99 140 181 228 285 344 413
#     4  10  23  38  68 100 138 180 232 278 347 408
#
# _framework density 21.338011000000002
#
# number of rings (size 3 to 8) (size 9 to 14) (size 15 to 20)
#    0.000    1.500    2.500    3.000    0.000    6.000 
#    0.000    0.000   19.250    0.000    0.000    0.000 
#    0.000    0.000    0.000    0.000    0.000    0.000 
#
# Total GULP energy -178350.134584 kJ/mol
# GULP energy per Si atom -5573.441706 kJ/mol
# Density = 2.128945 g / cm^3
# Si number density = 21.338011 Si / 1000 Ang^3
#
#
#
# Elastic Constant Matrix: (Units=GPa)
#
#
# Indices 1 2 3 4 5 6 
#
# 1 132.1454 75.6486 29.2470 0.0000 0.0000 0.0000
# 2 75.6486 186.6753 38.3416 0.0000 0.0000 0.0000
# 3 29.2470 38.3416 67.9738 0.0000 0.0000 0.0000
# 4 0.0000 0.0000 0.0000 22.3605 0.0000 0.0000
# 5 0.0000 0.0000 0.0000 0.0000 20.5327 0.0000
# 6 0.0000 0.0000 0.0000 0.0000 0.0000 26.5829
#
#
#
# Elastic Compliance Matrix: (Units=1/GPa)
#
#
# Indices 1 2 3 4 5 6 
#
# 1 0.010167 -0.003644 -0.002319 0.000000 0.000000 0.000000
# 2 -0.003644 0.007365 -0.002586 0.000000 0.000000 0.000000
# 3 -0.002319 -0.002586 0.017168 0.000000 0.000000 0.000000
# 4 0.000000 0.000000 0.000000 0.044722 0.000000 0.000000
# 5 0.000000 0.000000 0.000000 0.000000 0.048703 0.000000
# 6 0.000000 0.000000 0.000000 0.000000 0.000000 0.037618
#
#
# Mechanical properties :
#
#
# Convention : Reuss Voigt Hill
#
# Bulk Modulus (GPa) = 56.81416 74.80766 65.81091
# Shear Modulus (GPa) = 26.49606 30.13239 28.31422
#
# Velocity S-wave (km/s) = 3.52764 3.76193 3.64667
# Velocity P-wave (km/s) = 6.57845 7.34874 6.97424
#
# Compressibility (1/GPa) = 0.01760125
#
# Stress axis : x y z
#
# Youngs Moduli (GPa) = 98.36219 135.78378 58.24681
#
# Poissons Ratio (x) = 0.49474 0.13508
# Poissons Ratio (y) = 0.35839 0.15065
# Poissons Ratio (z) = 0.22811 0.35120
#
# Static dielectric constant tensor:
#      x y z
#    x 1.940770 0.000000 0.000000 
#    y 0.000000 1.812910 0.000000 
#    z 0.000000 0.000000 1.783120 
# 
# From -- ./inp_files/3066.got.cif
#   From: 2010.05.17/outbox.cif.g08.bks.cpg/sg60_2_cif.got.tgz:3066.got - 2010.06.03 14:59:27.
