data_PCOD9455587
_publ_section_title
;
Structure prediction by ZEFSAII (Michael W. Deem and Ramdas Pophale) SiO2 
 PCOD9455587
Probable space group: P B C N
;
_chemical_formula_sum "Si O2"
_cell_formula_units_Z 48
_cell_length_a 8.763968
_cell_length_b 13.275089
_cell_length_c 17.190524
_cell_angle_alpha 90.000000
_cell_angle_beta 90.000000
_cell_angle_gamma 90.000000
_cell_volume 1999.987768
_symmetry_space_group_name_H-M "P B C N"
_symmetry_group_IT_number 60
_symmetry_cell_setting 'orthorhombic'
loop_
_space_group_symop_operation_xyz
x,y,z
1/2-x,1/2-y,1/2+z
1/2+x,1/2-y,-z
-x,y,1/2-z
-x,-y,-z
1/2+x,1/2+y,1/2-z
1/2-x,1/2+y,z
x,-y,1/2+z
loop_
_atom_site_type_symbol
_atom_site_label
_atom_site_fract_x
_atom_site_fract_y
_atom_site_fract_z
Si Si1 0.064700 0.447112 0.169518
Si Si2 0.000000 0.780751 0.250000
Si Si3 0.500000 0.402216 0.750000
Si Si4 0.736295 0.679251 0.943140
Si Si5 0.270367 0.148886 0.157359
Si Si6 0.928837 0.927147 0.123280
Si Si7 0.650043 0.973333 0.553580
O O1 0.131489 0.360352 0.115377
O O2 0.198007 0.530613 0.165212
O O3 0.000000 0.409355 0.250000
O O4 0.923846 0.513311 0.137175
O O5 0.906555 0.710601 0.305849
O O6 0.894917 0.849369 0.193958
O O7 0.368725 0.334246 0.714874
O O8 0.543049 0.472009 0.675084
O O9 0.736460 0.798799 0.927510
O O10 0.578683 0.621539 0.918779
O O11 0.788446 0.634553 0.025666
O O12 0.797125 0.953574 0.061247
O O13 0.500000 0.000000 0.500000
#
# Coordination Sequence:
#
# PCOD9455587 Si02
#       7
#     8   4   4   8   8   8   8
#     4  11  22  41  65  89 126 163 210 271 313 376
#     4   9  22  36  63  96 126 158 211 272 323 370
#     4  11  22  36  65  98 122 168 215 266 321 374
#     4  10  23  42  62  92 129 166 211 260 324 388
#     4  11  22  38  58  95 129 158 212 262 316 381
#     4  10  20  40  65  89 125 170 212 262 322 380
#     4  10  23  40  65  92 123 173 213 258 330 381
#
# _framework density 24.000145
#
# number of rings (size 3 to 8) (size 9 to 14) (size 15 to 20)
#    0.000    1.667    2.500    1.500    5.833    1.333 
#    3.000    3.333    0.000    0.000    0.000    0.000 
#    0.000    0.000    0.000    0.000    0.000    0.000 
#
# Total GULP energy -267519.435470 kJ/mol
# GULP energy per Si atom -5573.321572 kJ/mol
# Density = 2.394552 g / cm^3
# Si number density = 24.000145 Si / 1000 Ang^3
#
#
#
# Elastic Constant Matrix: (Units=GPa)
#
#
# Indices 1 2 3 4 5 6 
#
# 1 88.0273 10.9495 15.6996 0.0000 0.0000 0.0000
# 2 10.9495 51.1975 6.8639 0.0000 0.0000 0.0000
# 3 15.6996 6.8639 44.9945 0.0000 0.0000 0.0000
# 4 0.0000 0.0000 0.0000 36.9649 0.0000 0.0000
# 5 0.0000 0.0000 0.0000 0.0000 37.3395 0.0000
# 6 0.0000 0.0000 0.0000 0.0000 0.0000 -10.5133
#
#
#
# Elastic Compliance Matrix: (Units=1/GPa)
#
#
# Indices 1 2 3 4 5 6 
#
# 1 0.012332 -0.002104 -0.003982 0.000000 0.000000 0.000000
# 2 -0.002104 0.020299 -0.002363 0.000000 0.000000 0.000000
# 3 -0.003982 -0.002363 0.023975 0.000000 0.000000 0.000000
# 4 0.000000 0.000000 0.000000 0.027053 0.000000 0.000000
# 5 0.000000 0.000000 0.000000 0.000000 0.026781 0.000000
# 6 0.000000 0.000000 0.000000 0.000000 0.000000 -0.095118
#
#
# Mechanical properties :
#
#
# Convention : Reuss Voigt Hill
#
# Bulk Modulus (GPa) = 25.18307 27.91615 26.54961
# Shear Modulus (GPa) = 109.99995 22.80531 66.40263
#
# Velocity S-wave (km/s) = 6.77735 3.08590 5.26571
# Velocity P-wave (km/s) = 8.47107 4.93497 6.93228
#
# Compressibility (1/GPa) = 0.03970921
#
# Stress axis : x y z
#
# Youngs Moduli (GPa) = 81.09021 49.26391 41.71055
#
# Poissons Ratio (x) = 0.10363 0.16609
# Poissons Ratio (y) = 0.17058 0.09855
# Poissons Ratio (z) = 0.32290 0.11639
#
# Static dielectric constant tensor:
#      x y z
#    x 1.953860 0.000000 0.000000 
#    y 0.000000 1.971580 0.000000 
#    z 0.000000 0.000000 1.987620 
# 
# From -- ./inp_files/19376.got.cif
#   From: 2010.05.17/outbox.cif.g08.bks.cpg/sg60_10_cif.got.tgz:19376.got - 2010.06.03 14:59:27.
