data_PCOD9455192
_publ_section_title
;
Structure prediction by ZEFSAII (Michael W. Deem and Ramdas Pophale) SiO2 
 PCOD9455192
Probable space group: P B C N
;
_chemical_formula_sum "Si O2"
_cell_formula_units_Z 48
_cell_length_a 28.276208
_cell_length_b 8.628237
_cell_length_c 8.856367
_cell_angle_alpha 90.000000
_cell_angle_beta 90.000000
_cell_angle_gamma 90.000000
_cell_volume 2160.721724
_symmetry_space_group_name_H-M "P B C N"
_symmetry_group_IT_number 60
_symmetry_cell_setting 'orthorhombic'
loop_
_space_group_symop_operation_xyz
x,y,z
1/2-x,1/2-y,1/2+z
1/2+x,1/2-y,-z
-x,y,1/2-z
-x,-y,-z
1/2+x,1/2+y,1/2-z
1/2-x,1/2+y,z
x,-y,1/2+z
loop_
_atom_site_type_symbol
_atom_site_label
_atom_site_fract_x
_atom_site_fract_y
_atom_site_fract_z
Si Si1 0.707424 0.340562 0.157532
Si Si2 0.453327 0.735613 0.686234
Si Si3 0.210590 0.659919 0.623885
Si Si4 0.454186 0.415031 0.848592
Si Si5 0.853609 0.366904 0.874149
Si Si6 0.348746 0.643535 0.342532
O O1 0.747716 0.401794 0.269996
O O2 0.675614 0.215837 0.243121
O O3 0.672367 0.477985 0.109048
O O4 0.731050 0.243865 0.022955
O O5 0.500000 0.819662 0.750000
O O6 0.448148 0.599184 0.812567
O O7 0.458527 0.644024 0.523286
O O8 0.408798 0.849527 0.669601
O O9 0.171032 0.530342 0.594646
O O10 0.183819 0.794791 0.711272
O O11 0.500000 0.366883 0.750000
O O12 0.403326 0.356661 0.792319
O O13 0.847031 0.261465 0.020205
#
# Coordination Sequence:
#
# PCOD9455192 Si02
#       6
#     8   8   8   8   8   8
#     4  12  25  45  70  94 130 176 226 273 330 403
#     4  10  20  37  65  98 137 173 222 271 329 389
#     4  12  27  44  70  96 135 171 220 281 340 400
#     4  10  20  36  65 100 133 168 228 277 318 383
#     4  11  24  43  65 102 136 175 221 276 337 394
#     4  11  24  43  67 100 131 175 225 272 328 397
#
# _framework density 22.214801999999999
#
# number of rings (size 3 to 8) (size 9 to 14) (size 15 to 20)
#    0.000    1.000    1.667    6.000    2.333    5.333 
#    0.000    2.500    0.000    5.000    0.000    0.000 
#    0.000    0.000    0.000    0.000    0.000    0.000 
#
# Total GULP energy -268173.483178 kJ/mol
# GULP energy per Si atom -5586.947566 kJ/mol
# Density = 2.216424 g / cm^3
# Si number density = 22.214802 Si / 1000 Ang^3
#
#
#
# Elastic Constant Matrix: (Units=GPa)
#
#
# Indices 1 2 3 4 5 6 
#
# 1 165.4449 35.0258 50.9673 0.0000 0.0000 0.0000
# 2 35.0258 75.3359 24.9670 0.0000 0.0000 0.0000
# 3 50.9673 24.9670 58.4419 0.0000 0.0000 0.0000
# 4 0.0000 0.0000 0.0000 24.7219 0.0000 0.0000
# 5 0.0000 0.0000 0.0000 0.0000 27.5214 0.0000
# 6 0.0000 0.0000 0.0000 0.0000 0.0000 36.8679
#
#
#
# Elastic Compliance Matrix: (Units=1/GPa)
#
#
# Indices 1 2 3 4 5 6 
#
# 1 0.008454 -0.001732 -0.006633 0.000000 0.000000 0.000000
# 2 -0.001732 0.015818 -0.005247 0.000000 0.000000 0.000000
# 3 -0.006633 -0.005247 0.025137 0.000000 0.000000 0.000000
# 4 0.000000 0.000000 0.000000 0.040450 0.000000 0.000000
# 5 0.000000 0.000000 0.000000 0.000000 0.036335 0.000000
# 6 0.000000 0.000000 0.000000 0.000000 0.000000 0.027124
#
#
# Mechanical properties :
#
#
# Convention : Reuss Voigt Hill
#
# Bulk Modulus (GPa) = 45.07503 57.90476 51.48990
# Shear Modulus (GPa) = 26.60443 30.37309 28.48876
#
# Velocity S-wave (km/s) = 3.46439 3.70164 3.58498
# Velocity P-wave (km/s) = 6.02804 6.66273 6.35331
#
# Compressibility (1/GPa) = 0.02218523
#
# Stress axis : x y z
#
# Youngs Moduli (GPa) = 118.28058 63.21837 39.78174
#
# Poissons Ratio (x) = 0.10952 0.26387
# Poissons Ratio (y) = 0.20492 0.20873
# Poissons Ratio (z) = 0.78456 0.33169
#
# Static dielectric constant tensor:
#      x y z
#    x 1.883610 0.000000 0.000000 
#    y 0.000000 1.792550 0.000000 
#    z 0.000000 0.000000 1.944090 
# 
# From -- ./inp_files/8419.got.cif
#   From: 2010.05.17/outbox.cif.g08.bks.cpg/sg60_5_cif.got.tgz:8419.got - 2010.06.03 14:59:27.
