data_PCOD9455410
_publ_section_title
;
Structure prediction by ZEFSAII (Michael W. Deem and Ramdas Pophale) SiO2 
 PCOD9455410
Probable space group: P B C N
;
_chemical_formula_sum "Si O2"
_cell_formula_units_Z 28
_cell_length_a 4.487195
_cell_length_b 8.017464
_cell_length_c 26.624614
_cell_angle_alpha 90.000000
_cell_angle_beta 90.000000
_cell_angle_gamma 90.000000
_cell_volume 957.845100
_symmetry_space_group_name_H-M "P B C N"
_symmetry_group_IT_number 60
_symmetry_cell_setting 'orthorhombic'
loop_
_space_group_symop_operation_xyz
x,y,z
1/2-x,1/2-y,1/2+z
1/2+x,1/2-y,-z
-x,y,1/2-z
-x,-y,-z
1/2+x,1/2+y,1/2-z
1/2-x,1/2+y,z
x,-y,1/2+z
loop_
_atom_site_type_symbol
_atom_site_label
_atom_site_fract_x
_atom_site_fract_y
_atom_site_fract_z
Si Si1 0.562368 0.793596 0.318922
Si Si2 0.933788 0.028430 0.392429
Si Si3 0.014729 0.751818 0.037290
Si Si4 0.000000 0.569451 0.250000
O O1 0.769017 0.906662 0.353822
O O2 0.407078 0.666734 0.357694
O O3 0.766318 0.682124 0.280823
O O4 0.370031 0.932048 0.289265
O O5 0.106137 0.903818 0.428991
O O6 0.693318 0.125996 0.426785
O O7 0.253833 0.819066 0.996927
#
# Coordination Sequence:
#
# PCOD9455410 Si02
#       4
#     8   8   8   4
#     4   9  20  40  61  92 132 170 223 286 342 413
#     4   9  20  39  58  87 134 174 225 284 342 406
#     4  11  22  40  65  94 134 180 229 282 344 415
#     4  10  20  38  64  86 124 176 218 272 348 412
#
# _framework density 29.232284
#
# number of rings (size 3 to 8) (size 9 to 14) (size 15 to 20)
#    0.000    2.286    0.000    1.714    0.000    4.571 
#    0.000   42.857    0.000    0.000    0.000    0.000 
#    0.000    0.000    0.000    0.000    0.000    0.000 
#
# Total GULP energy -156865.741288 kJ/mol
# GULP energy per Si atom -5602.347903 kJ/mol
# Density = 2.916575 g / cm^3
# Si number density = 29.232284 Si / 1000 Ang^3
#
#
#
# Elastic Constant Matrix: (Units=GPa)
#
#
# Indices 1 2 3 4 5 6 
#
# 1 68.0911 43.4891 64.8444 0.0000 0.0000 0.0000
# 2 43.4891 191.0780 130.3416 0.0000 0.0000 0.0000
# 3 64.8444 130.3416 184.1298 0.0000 0.0000 0.0000
# 4 0.0000 0.0000 0.0000 137.7240 0.0000 0.0000
# 5 0.0000 0.0000 0.0000 0.0000 39.0005 0.0000
# 6 0.0000 0.0000 0.0000 0.0000 0.0000 -205.8858
#
#
#
# Elastic Compliance Matrix: (Units=1/GPa)
#
#
# Indices 1 2 3 4 5 6 
#
# 1 0.022126 0.000540 -0.008174 0.000000 0.000000 0.000000
# 2 0.000540 0.010133 -0.007363 0.000000 0.000000 0.000000
# 3 -0.008174 -0.007363 0.013522 0.000000 0.000000 0.000000
# 4 0.000000 0.000000 0.000000 0.007261 0.000000 0.000000
# 5 0.000000 0.000000 0.000000 0.000000 0.025641 0.000000
# 6 0.000000 0.000000 0.000000 0.000000 0.000000 -0.004857
#
#
# Mechanical properties :
#
#
# Convention : Reuss Voigt Hill
#
# Bulk Modulus (GPa) = 63.34687 102.29434 82.82061
# Shear Modulus (GPa) = 45.83656 7.80933 26.82294
#
# Velocity S-wave (km/s) = 3.96411 1.63624 3.03244
# Velocity P-wave (km/s) = 6.53218 6.21605 6.37608
#
# Compressibility (1/GPa) = 0.01578610
#
# Stress axis : x y z
#
# Youngs Moduli (GPa) = 45.19613 98.68338 73.95259
#
# Poissons Ratio (x) = -0.05332 0.60452
# Poissons Ratio (y) = -0.02442 0.54455
# Poissons Ratio (z) = 0.36945 0.72666
#
# Static dielectric constant tensor:
#      x y z
#    x 2.151310 0.000000 0.000000 
#    y 0.000000 2.199730 0.000000 
#    z 0.000000 0.000000 2.298950 
# 
# From -- ./inp_files/24680.got.cif
#   From: 2010.05.17/outbox.cif.g08.bks.cpg/sg60_13_cif.got.tgz:24680.got - 2010.06.03 14:59:27.
