data_PCOD9455256
_publ_section_title
;
Structure prediction by ZEFSAII (Michael W. Deem and Ramdas Pophale) SiO2 
 PCOD9455256
Probable space group: P B C N
;
_chemical_formula_sum "Si O2"
_cell_formula_units_Z 60
_cell_length_a 7.524972
_cell_length_b 21.585173
_cell_length_c 19.411139
_cell_angle_alpha 90.000000
_cell_angle_beta 90.000000
_cell_angle_gamma 90.000000
_cell_volume 3152.909039
_symmetry_space_group_name_H-M "P B C N"
_symmetry_group_IT_number 60
_symmetry_cell_setting 'orthorhombic'
loop_
_space_group_symop_operation_xyz
x,y,z
1/2-x,1/2-y,1/2+z
1/2+x,1/2-y,-z
-x,y,1/2-z
-x,-y,-z
1/2+x,1/2+y,1/2-z
1/2-x,1/2+y,z
x,-y,1/2+z
loop_
_atom_site_type_symbol
_atom_site_label
_atom_site_fract_x
_atom_site_fract_y
_atom_site_fract_z
Si Si1 0.830312 0.239059 0.701051
Si Si2 0.305661 0.952917 0.543074
Si Si3 0.026000 0.105544 0.383748
Si Si4 0.881551 0.385886 0.181658
Si Si5 0.500000 0.678468 0.250000
Si Si6 0.830922 0.510276 0.102432
Si Si7 0.762978 0.214917 0.056598
Si Si8 0.525460 0.161737 0.538468
O O1 0.765869 0.167627 0.693745
O O2 0.665009 0.277380 0.732236
O O3 0.852670 0.270389 0.625461
O O4 0.000000 0.243763 0.750000
O O5 0.277716 0.998199 0.477815
O O6 0.391008 0.893070 0.506210
O O7 0.123149 0.935313 0.579531
O O8 0.457691 0.976743 0.595440
O O9 0.081600 0.166632 0.425892
O O10 0.955177 0.133658 0.313008
O O11 0.206820 0.066250 0.373041
O O12 0.805754 0.450377 0.151160
O O13 0.000000 0.394079 0.250000
O O14 0.996249 0.359619 0.117242
O O15 0.842892 0.280465 0.036728
O O16 0.652746 0.184131 0.996471
#
# Coordination Sequence:
#
# PCOD9455256 Si02
#       8
#     8   8   8   8   4   8   8   8
#     4  10  22  41  63  89 125 166 204 252 325 376
#     4  10  21  39  64  86 120 164 196 264 310 350
#     4  11  22  39  61  90 125 159 203 252 311 372
#     4  10  22  42  61  86 127 165 205 260 306 370
#     4  10  24  38  60  94 124 158 200 260 310 380
#     4  10  22  41  60  88 122 159 214 250 305 372
#     4  10  21  36  61  96 125 158 207 262 305 388
#     4  10  20  37  60  93 125 155 210 255 311 366
#
# _framework density 19.030045000000001
#
# number of rings (size 3 to 8) (size 9 to 14) (size 15 to 20)
#    0.000    1.867    2.000    1.200    1.867    2.133 
#    3.600    0.667    0.000    0.000    0.000    0.000 
#    0.000    0.000    0.000    0.000    0.000    0.000 
#
# Total GULP energy -334813.227640 kJ/mol
# GULP energy per Si atom -5580.220461 kJ/mol
# Density = 1.898673 g / cm^3
# Si number density = 19.030045 Si / 1000 Ang^3
#
#
#
# Elastic Constant Matrix: (Units=GPa)
#
#
# Indices 1 2 3 4 5 6 
#
# 1 44.0250 7.1063 28.7293 0.0000 0.0000 0.0000
# 2 7.1063 67.0001 3.4563 0.0000 0.0000 0.0000
# 3 28.7293 3.4563 58.2717 0.0000 0.0000 0.0000
# 4 0.0000 0.0000 0.0000 52.7754 0.0000 0.0000
# 5 0.0000 0.0000 0.0000 0.0000 30.4222 0.0000
# 6 0.0000 0.0000 0.0000 0.0000 0.0000 16.0190
#
#
#
# Elastic Compliance Matrix: (Units=1/GPa)
#
#
# Indices 1 2 3 4 5 6 
#
# 1 0.033986 -0.002749 -0.016593 0.000000 0.000000 0.000000
# 2 -0.002749 0.015193 0.000454 0.000000 0.000000 0.000000
# 3 -0.016593 0.000454 0.025315 0.000000 0.000000 0.000000
# 4 0.000000 0.000000 0.000000 0.018948 0.000000 0.000000
# 5 0.000000 0.000000 0.000000 0.000000 0.032871 0.000000
# 6 0.000000 0.000000 0.000000 0.000000 0.000000 0.062426
#
#
# Mechanical properties :
#
#
# Convention : Reuss Voigt Hill
#
# Bulk Modulus (GPa) = 27.23383 27.54231 27.38807
# Shear Modulus (GPa) = 20.94205 28.51031 24.72618
#
# Velocity S-wave (km/s) = 3.32094 3.87482 3.60852
# Velocity P-wave (km/s) = 5.38951 5.87567 5.63783
#
# Compressibility (1/GPa) = 0.03671904
#
# Stress axis : x y z
#
# Youngs Moduli (GPa) = 29.42384 65.81772 39.50268
#
# Poissons Ratio (x) = 0.18092 0.65546
# Poissons Ratio (y) = 0.08088 -0.01793
# Poissons Ratio (z) = 0.48823 -0.02988
#
# Static dielectric constant tensor:
#      x y z
#    x 1.649280 0.000000 0.000000 
#    y 0.000000 1.668360 0.000000 
#    z 0.000000 0.000000 1.646770 
# 
# From -- ./inp_files/21761.got.cif
#   From: 2010.05.17/outbox.cif.g08.bks.cpg/sg60_11_cif.got.tgz:21761.got - 2010.06.03 14:59:27.
