data_PCOD9455484
_publ_section_title
;
Structure prediction by ZEFSAII (Michael W. Deem and Ramdas Pophale) SiO2 
 PCOD9455484
Probable space group: P B C N
;
_chemical_formula_sum "Si O2"
_cell_formula_units_Z 60
_cell_length_a 4.986785
_cell_length_b 28.051664
_cell_length_c 19.298428
_cell_angle_alpha 90.000000
_cell_angle_beta 90.000000
_cell_angle_gamma 90.000000
_cell_volume 2699.611110
_symmetry_space_group_name_H-M "P B C N"
_symmetry_group_IT_number 60
_symmetry_cell_setting 'orthorhombic'
loop_
_space_group_symop_operation_xyz
x,y,z
1/2-x,1/2-y,1/2+z
1/2+x,1/2-y,-z
-x,y,1/2-z
-x,-y,-z
1/2+x,1/2+y,1/2-z
1/2-x,1/2+y,z
x,-y,1/2+z
loop_
_atom_site_type_symbol
_atom_site_label
_atom_site_fract_x
_atom_site_fract_y
_atom_site_fract_z
Si Si1 0.305215 0.781827 0.497083
Si Si2 0.118530 0.988499 0.884318
Si Si3 0.000000 0.947525 0.250000
Si Si4 0.084189 0.374022 0.183634
Si Si5 0.513381 0.612689 0.169215
Si Si6 0.274225 0.052638 0.001074
Si Si7 0.581826 0.634857 0.590067
Si Si8 0.986280 0.631052 0.086292
O O1 0.562592 0.750841 0.476294
O O2 0.181779 0.814634 0.437130
O O3 0.407863 0.821407 0.550520
O O4 0.160244 0.937847 0.846933
O O5 0.067919 0.021605 0.817993
O O6 0.319500 0.015852 0.937440
O O7 0.873855 0.975586 0.936941
O O8 0.751883 0.916069 0.278216
O O9 0.301251 0.357560 0.127777
O O10 0.000000 0.342059 0.250000
O O11 0.813909 0.383553 0.141628
O O12 0.500000 0.622606 0.250000
O O13 0.213254 0.614780 0.140679
O O14 0.706991 0.644341 0.121955
O O15 0.076518 0.093635 0.968585
O O16 0.508342 0.086770 0.031173
#
# Coordination Sequence:
#
# PCOD9455484 Si02
#       8
#     8   8   4   8   8   8   8   8
#     4  11  23  44  73 107 129 158 210 287 356 420
#     4  10  20  39  61  92 136 180 239 283 323 373
#     4  12  22  42  58  98 132 188 242 284 326 382
#     4  12  22  41  63  93 134 186 228 270 331 404
#     4  11  22  41  61  93 130 183 226 265 319 395
#     4   9  20  40  59  94 131 178 224 288 330 381
#     4  11  23  41  68  97 133 178 221 273 354 410
#     4  10  23  41  66  95 130 167 216 268 344 408
#
# _framework density 22.225424
#
# number of rings (size 3 to 8) (size 9 to 14) (size 15 to 20)
#    0.000    1.333    3.333    2.000    0.000    5.867 
#    9.600    0.000    0.000   12.000    0.000    0.000 
#    0.000    0.000    0.000    0.000    0.000    0.000 
#
# Total GULP energy -334798.122770 kJ/mol
# GULP energy per Si atom -5579.968713 kJ/mol
# Density = 2.217484 g / cm^3
# Si number density = 22.225424 Si / 1000 Ang^3
#
#
#
# Elastic Constant Matrix: (Units=GPa)
#
#
# Indices 1 2 3 4 5 6 
#
# 1 96.1532 1.6810 16.2121 0.0000 0.0000 0.0000
# 2 1.6810 80.6051 12.6275 0.0000 0.0000 0.0000
# 3 16.2121 12.6275 108.8732 0.0000 0.0000 0.0000
# 4 0.0000 0.0000 0.0000 10.8465 0.0000 0.0000
# 5 0.0000 0.0000 0.0000 0.0000 38.2147 0.0000
# 6 0.0000 0.0000 0.0000 0.0000 0.0000 16.8306
#
#
#
# Elastic Compliance Matrix: (Units=1/GPa)
#
#
# Indices 1 2 3 4 5 6 
#
# 1 0.010668 0.000027 -0.001592 0.000000 0.000000 0.000000
# 2 0.000027 0.012636 -0.001470 0.000000 0.000000 0.000000
# 3 -0.001592 -0.001470 0.009592 0.000000 0.000000 0.000000
# 4 0.000000 0.000000 0.000000 0.092196 0.000000 0.000000
# 5 0.000000 0.000000 0.000000 0.000000 0.026168 0.000000
# 6 0.000000 0.000000 0.000000 0.000000 0.000000 0.059415
#
#
# Mechanical properties :
#
#
# Convention : Reuss Voigt Hill
#
# Bulk Modulus (GPa) = 37.27510 38.51919 37.89714
# Shear Modulus (GPa) = 22.15463 30.18577 26.17020
#
# Velocity S-wave (km/s) = 3.16066 3.68933 3.43518
# Velocity P-wave (km/s) = 5.48885 5.95961 5.72907
#
# Compressibility (1/GPa) = 0.02682756
#
# Stress axis : x y z
#
# Youngs Moduli (GPa) = 93.73862 79.14012 104.24862
#
# Poissons Ratio (x) = -0.00213 0.16593
# Poissons Ratio (y) = -0.00252 0.15320
# Poissons Ratio (z) = 0.14920 0.11630
#
# Static dielectric constant tensor:
#      x y z
#    x 1.871060 0.000000 0.000000 
#    y 0.000000 1.877250 0.000000 
#    z 0.000000 0.000000 1.899850 
# 
# From -- ./inp_files/18793.got.cif
#   From: 2010.05.17/outbox.cif.g08.bks.cpg/sg60_10_cif.got.tgz:18793.got - 2010.06.03 14:59:27.
