data_PCOD9455118
_publ_section_title
;
Structure prediction by ZEFSAII (Michael W. Deem and Ramdas Pophale) SiO2 
 PCOD9455118
Probable space group: P B C N
;
_chemical_formula_sum "Si O2"
_cell_formula_units_Z 56
_cell_length_a 12.318634
_cell_length_b 20.566465
_cell_length_c 9.221734
_cell_angle_alpha 90.000000
_cell_angle_beta 90.000000
_cell_angle_gamma 90.000000
_cell_volume 2336.333271
_symmetry_space_group_name_H-M "P B C N"
_symmetry_group_IT_number 60
_symmetry_cell_setting 'orthorhombic'
loop_
_space_group_symop_operation_xyz
x,y,z
1/2-x,1/2-y,1/2+z
1/2+x,1/2-y,-z
-x,y,1/2-z
-x,-y,-z
1/2+x,1/2+y,1/2-z
1/2-x,1/2+y,z
x,-y,1/2+z
loop_
_atom_site_type_symbol
_atom_site_label
_atom_site_fract_x
_atom_site_fract_y
_atom_site_fract_z
Si Si1 0.610452 0.722845 0.418222
Si Si2 0.813978 0.008319 0.630555
Si Si3 0.757426 0.593178 0.884229
Si Si4 0.114446 0.635248 0.175527
Si Si5 0.141102 0.085268 0.141982
Si Si6 0.488082 0.850830 0.084495
Si Si7 0.695256 0.276689 0.242826
O O1 0.579538 0.652715 0.363485
O O2 0.515584 0.773730 0.442811
O O3 0.684535 0.755494 0.293403
O O4 0.676598 0.715532 0.570319
O O5 0.733378 0.047763 0.739985
O O6 0.864970 0.060216 0.522134
O O7 0.779191 0.953987 0.513103
O O8 0.887604 0.969953 0.744441
O O9 0.868465 0.622698 0.949969
O O10 0.683349 0.654866 0.830885
O O11 0.233021 0.602967 0.190452
O O12 0.128263 0.711898 0.213075
O O13 0.000000 0.613663 0.250000
O O14 0.085233 0.622570 0.008768
O O15 0.500000 0.866254 0.250000
#
# Coordination Sequence:
#
# PCOD9455118 Si02
#       7
#     8   8   8   8   8   8   8
#     4  10  21  36  57  82 108 144 186 237 285 327
#     4  10  20  36  56  81 105 154 192 230 260 328
#     4  10  21  38  56  81 115 144 195 231 274 320
#     4  11  21  36  55  83 115 150 179 227 288 336
#     4  10  21  36  57  78 115 140 195 227 270 320
#     4  11  23  36  55  83 118 147 181 229 285 336
#     4  10  21  35  58  81 110 142 187 238 286 325
#
# _framework density 23.969185
#
# number of rings (size 3 to 8) (size 9 to 14) (size 15 to 20)
#    0.000    1.714    2.857    1.714   12.000    0.000 
#    0.000   14.286    0.000    0.000    0.000   20.000 
#    0.000    0.000    0.000    0.000    0.000    0.000 
#
# Total GULP energy -312233.117214 kJ/mol
# GULP energy per Si atom -5575.591379 kJ/mol
# Density = 2.391463 g / cm^3
# Si number density = 23.969185 Si / 1000 Ang^3
#
#
#
# Elastic Constant Matrix: (Units=GPa)
#
#
# Indices 1 2 3 4 5 6 
#
# 1 67.2949 13.2013 30.6456 0.0000 0.0000 0.0000
# 2 13.2013 103.8135 33.2349 0.0000 0.0000 0.0000
# 3 30.6456 33.2349 145.3631 0.0000 0.0000 0.0000
# 4 0.0000 0.0000 0.0000 -29.8658 0.0000 0.0000
# 5 0.0000 0.0000 0.0000 0.0000 4.2340 0.0000
# 6 0.0000 0.0000 0.0000 0.0000 0.0000 -45.0516
#
#
#
# Elastic Compliance Matrix: (Units=1/GPa)
#
#
# Indices 1 2 3 4 5 6 
#
# 1 0.016547 -0.001065 -0.003245 0.000000 0.000000 0.000000
# 2 -0.001065 0.010462 -0.002167 0.000000 0.000000 0.000000
# 3 -0.003245 -0.002167 0.008059 0.000000 0.000000 0.000000
# 4 0.000000 0.000000 0.000000 -0.033483 0.000000 0.000000
# 5 0.000000 0.000000 0.000000 0.000000 0.236186 0.000000
# 6 0.000000 0.000000 0.000000 0.000000 0.000000 -0.022197
#
#
# Mechanical properties :
#
#
# Convention : Reuss Voigt Hill
#
# Bulk Modulus (GPa) = 45.22326 52.29281 48.75804
# Shear Modulus (GPa) = 21.19550 1.82262 11.50906
#
# Velocity S-wave (km/s) = 2.97691 0.87296 2.19363
# Velocity P-wave (km/s) = 5.54294 4.78332 5.17708
#
# Compressibility (1/GPa) = 0.02211251
#
# Stress axis : x y z
#
# Youngs Moduli (GPa) = 60.43535 95.58402 124.08590
#
# Poissons Ratio (x) = 0.10183 0.40263
# Poissons Ratio (y) = 0.06438 0.26894
# Poissons Ratio (z) = 0.19610 0.20717
#
# Static dielectric constant tensor:
#      x y z
#    x 1.964080 0.000000 0.000000 
#    y 0.000000 1.940310 0.000000 
#    z 0.000000 0.000000 1.938300 
# 
# From -- ./inp_files/6139.got.cif
#   From: 2010.05.17/outbox.cif.g08.bks.cpg/sg60_4_cif.got.tgz:6139.got - 2010.06.03 14:59:27.
