data_PCOD9455208
_publ_section_title
;
Structure prediction by ZEFSAII (Michael W. Deem and Ramdas Pophale) SiO2 
 PCOD9455208
Probable space group: P B C N
;
_chemical_formula_sum "Si O2"
_cell_formula_units_Z 64
_cell_length_a 20.139796
_cell_length_b 19.228411
_cell_length_c 9.026632
_cell_angle_alpha 90.000000
_cell_angle_beta 90.000000
_cell_angle_gamma 90.000000
_cell_volume 3495.619884
_symmetry_space_group_name_H-M "P B C N"
_symmetry_group_IT_number 60
_symmetry_cell_setting 'orthorhombic'
loop_
_space_group_symop_operation_xyz
x,y,z
1/2-x,1/2-y,1/2+z
1/2+x,1/2-y,-z
-x,y,1/2-z
-x,-y,-z
1/2+x,1/2+y,1/2-z
1/2-x,1/2+y,z
x,-y,1/2+z
loop_
_atom_site_type_symbol
_atom_site_label
_atom_site_fract_x
_atom_site_fract_y
_atom_site_fract_z
Si Si1 0.550547 0.126068 0.367656
Si Si2 0.544119 0.116258 0.873988
Si Si3 0.645669 0.999090 0.923220
Si Si4 0.723047 0.349396 0.820229
Si Si5 0.756210 0.507896 0.176773
Si Si6 0.780227 0.142285 0.676095
Si Si7 0.153977 0.286503 0.165034
Si Si8 0.853467 0.276231 0.691484
O O1 0.500000 0.090772 0.250000
O O2 0.503530 0.147734 0.502214
O O3 0.585780 0.188238 0.277277
O O4 0.605560 0.073062 0.433144
O O5 0.500000 0.079037 0.750000
O O6 0.595114 0.061978 0.947153
O O7 0.586988 0.174873 0.791048
O O8 0.672235 0.000588 0.756159
O O9 0.715081 0.008935 0.010479
O O10 0.720992 0.423255 0.737943
O O11 0.664743 0.293669 0.790375
O O12 0.789275 0.313828 0.758873
O O13 0.730203 0.353731 0.998110
O O14 0.713547 0.439219 0.206365
O O15 0.716050 0.171392 0.765157
O O16 0.840719 0.193978 0.713932
O O17 0.150366 0.289336 0.985272
#
# Coordination Sequence:
#
# PCOD9455208 Si02
#       8
#     8   8   8   8   8   8   8   8
#     4  12  22  37  54  78 112 154 191 218 263 319
#     4  12  24  36  52  78 114 155 189 221 259 319
#     4  12  23  35  52  78 118 150 188 214 255 329
#     4  10  21  36  57  77 108 139 182 228 279 325
#     4  12  20  35  56  81 110 148 177 225 276 323
#     4  10  21  35  56  78 108 137 183 230 282 321
#     4  10  21  38  54  78 104 145 184 230 272 319
#     4  10  20  37  55  79 103 143 186 232 268 322
#
# _framework density 18.308626
#
# number of rings (size 3 to 8) (size 9 to 14) (size 15 to 20)
#    0.000    1.000    5.000    3.000    1.750    0.000 
#    0.000    0.000    0.000    0.000    0.000    1.750 
#    0.000    0.000    0.000    0.000    0.000    0.000 
#
# Total GULP energy -356790.448702 kJ/mol
# GULP energy per Si atom -5574.850761 kJ/mol
# Density = 1.826695 g / cm^3
# Si number density = 18.308626 Si / 1000 Ang^3
#
#
#
# Elastic Constant Matrix: (Units=GPa)
#
#
# Indices 1 2 3 4 5 6 
#
# 1 45.2125 46.5254 16.8153 0.0000 0.0000 0.0000
# 2 46.5254 156.1064 26.5006 0.0000 0.0000 0.0000
# 3 16.8153 26.5006 40.6047 0.0000 0.0000 0.0000
# 4 0.0000 0.0000 0.0000 24.5748 0.0000 0.0000
# 5 0.0000 0.0000 0.0000 0.0000 25.7812 0.0000
# 6 0.0000 0.0000 0.0000 0.0000 0.0000 15.4489
#
#
#
# Elastic Compliance Matrix: (Units=1/GPa)
#
#
# Indices 1 2 3 4 5 6 
#
# 1 0.034312 -0.008788 -0.008474 0.000000 0.000000 0.000000
# 2 -0.008788 0.009455 -0.002531 0.000000 0.000000 0.000000
# 3 -0.008474 -0.002531 0.029789 0.000000 0.000000 0.000000
# 4 0.000000 0.000000 0.000000 0.040692 0.000000 0.000000
# 5 0.000000 0.000000 0.000000 0.000000 0.038788 0.000000
# 6 0.000000 0.000000 0.000000 0.000000 0.000000 0.064730
#
#
# Mechanical properties :
#
#
# Convention : Reuss Voigt Hill
#
# Bulk Modulus (GPa) = 29.43814 46.84514 38.14164
# Shear Modulus (GPa) = 18.60980 23.29981 20.95480
#
# Velocity S-wave (km/s) = 3.19164 3.57124 3.38676
# Velocity P-wave (km/s) = 5.44939 6.53046 6.01427
#
# Compressibility (1/GPa) = 0.03396954
#
# Stress axis : x y z
#
# Youngs Moduli (GPa) = 29.14398 105.76763 33.56932
#
# Poissons Ratio (x) = 0.92946 0.28447
# Poissons Ratio (y) = 0.25611 0.08498
# Poissons Ratio (z) = 0.24697 0.26774
#
# Static dielectric constant tensor:
#      x y z
#    x 1.615990 0.000000 0.000000 
#    y 0.000000 1.676720 0.000000 
#    z 0.000000 0.000000 1.675380 
# 
# From -- ./inp_files/8025.got.cif
#   From: 2010.05.17/outbox.cif.g08.bks.cpg/sg60_5_cif.got.tgz:8025.got - 2010.06.03 14:59:27.
