data_PCOD9455806
_publ_section_title
;
Structure prediction by ZEFSAII (Michael W. Deem and Ramdas Pophale) SiO2 
 PCOD9455806
Probable space group: P B C N
;
_chemical_formula_sum "Si O2"
_cell_formula_units_Z 64
_cell_length_a 27.012114
_cell_length_b 5.336504
_cell_length_c 22.356679
_cell_angle_alpha 90.000000
_cell_angle_beta 90.000000
_cell_angle_gamma 90.000000
_cell_volume 3222.720966
_symmetry_space_group_name_H-M "P B C N"
_symmetry_group_IT_number 60
_symmetry_cell_setting 'orthorhombic'
loop_
_space_group_symop_operation_xyz
x,y,z
1/2-x,1/2-y,1/2+z
1/2+x,1/2-y,-z
-x,y,1/2-z
-x,-y,-z
1/2+x,1/2+y,1/2-z
1/2-x,1/2+y,z
x,-y,1/2+z
loop_
_atom_site_type_symbol
_atom_site_label
_atom_site_fract_x
_atom_site_fract_y
_atom_site_fract_z
Si Si1 0.615732 0.264690 0.660030
Si Si2 0.428042 0.776849 0.791336
Si Si3 0.048493 0.856909 0.553681
Si Si4 0.554925 0.232650 0.538987
Si Si5 0.781093 0.311149 0.957852
Si Si6 0.386270 0.014431 0.074142
Si Si7 0.035993 0.244455 0.659009
Si Si8 0.280362 0.173046 0.899679
O O1 0.602376 0.544914 0.681105
O O2 0.583991 0.219941 0.600040
O O3 0.672190 0.231028 0.640274
O O4 0.600290 0.042077 0.705344
O O5 0.479642 0.822153 0.827066
O O6 0.442477 0.690486 0.724625
O O7 0.105276 0.781589 0.567736
O O8 0.002450 0.663174 0.550015
O O9 0.050719 0.989098 0.489283
O O10 0.033006 0.026831 0.609723
O O11 0.586467 0.099014 0.487298
O O12 0.756770 0.041033 0.945446
O O13 0.832089 0.374798 0.924045
O O14 0.792644 0.315984 0.029226
O O15 0.423020 0.077967 0.128424
O O16 0.241022 0.395725 0.888748
#
# Coordination Sequence:
#
# PCOD9455806 Si02
#       8
#     8   8   8   8   8   8   8   8
#     4  12  23  40  65  92 125 166 204 266 309 372
#     4  11  26  41  64  91 129 169 221 253 302 368
#     4  10  21  36  59  88 134 165 204 250 309 385
#     4  10  21  34  56  98 127 163 198 246 318 385
#     4  10  23  39  60  92 125 159 203 256 313 382
#     4  11  22  37  65  88 130 170 207 260 319 380
#     4  10  24  41  60  92 125 176 213 255 300 377
#     4  10  21  39  62  90 124 158 203 258 322 379
#
# _framework density 19.858995
#
# number of rings (size 3 to 8) (size 9 to 14) (size 15 to 20)
#    0.000    1.500    2.500    1.875    7.000    2.000 
#    0.000    0.000    0.000    4.500    0.000    0.000 
#    0.000    0.000    0.000    0.000    0.000    0.000 
#
# Total GULP energy -356631.584879 kJ/mol
# GULP energy per Si atom -5572.368514 kJ/mol
# Density = 1.981380 g / cm^3
# Si number density = 19.858995 Si / 1000 Ang^3
#
#
#
# Elastic Constant Matrix: (Units=GPa)
#
#
# Indices 1 2 3 4 5 6 
#
# 1 93.2793 23.4135 14.6120 0.0000 0.0000 0.0000
# 2 23.4135 41.8194 12.7709 0.0000 0.0000 0.0000
# 3 14.6120 12.7709 67.2638 0.0000 0.0000 0.0000
# 4 0.0000 0.0000 0.0000 7.9319 0.0000 0.0000
# 5 0.0000 0.0000 0.0000 0.0000 14.8881 0.0000
# 6 0.0000 0.0000 0.0000 0.0000 0.0000 25.4863
#
#
#
# Elastic Compliance Matrix: (Units=1/GPa)
#
#
# Indices 1 2 3 4 5 6 
#
# 1 0.012612 -0.006607 -0.001485 0.000000 0.000000 0.000000
# 2 -0.006607 0.028846 -0.004041 0.000000 0.000000 0.000000
# 3 -0.001485 -0.004041 0.015957 0.000000 0.000000 0.000000
# 4 0.000000 0.000000 0.000000 0.126073 0.000000 0.000000
# 5 0.000000 0.000000 0.000000 0.000000 0.067168 0.000000
# 6 0.000000 0.000000 0.000000 0.000000 0.000000 0.039237
#
#
# Mechanical properties :
#
#
# Convention : Reuss Voigt Hill
#
# Bulk Modulus (GPa) = 30.16928 33.77283 31.97105
# Shear Modulus (GPa) = 15.37478 19.76568 17.57023
#
# Velocity S-wave (km/s) = 2.78546 3.15826 2.97770
# Velocity P-wave (km/s) = 5.05666 5.50842 5.28737
#
# Compressibility (1/GPa) = 0.03314630
#
# Stress axis : x y z
#
# Youngs Moduli (GPa) = 79.29198 34.66710 62.66927
#
# Poissons Ratio (x) = 0.22906 0.09308
# Poissons Ratio (y) = 0.52391 0.25327
# Poissons Ratio (z) = 0.11776 0.14010
#
# Static dielectric constant tensor:
#      x y z
#    x 1.761200 0.000000 0.000000 
#    y 0.000000 1.852540 0.000000 
#    z 0.000000 0.000000 1.677010 
# 
# From -- ./inp_files/24640.got.cif
#   From: 2010.05.17/outbox.cif.g08.bks.cpg/sg60_13_cif.got.tgz:24640.got - 2010.06.03 14:59:27.
