data_PCOD9455284
_publ_section_title
;
Structure prediction by ZEFSAII (Michael W. Deem and Ramdas Pophale) SiO2 
 PCOD9455284
Probable space group: P B C N
;
_chemical_formula_sum "Si O2"
_cell_formula_units_Z 48
_cell_length_a 8.305137
_cell_length_b 17.123099
_cell_length_c 15.146443
_cell_angle_alpha 90.000000
_cell_angle_beta 90.000000
_cell_angle_gamma 90.000000
_cell_volume 2153.970859
_symmetry_space_group_name_H-M "P B C N"
_symmetry_group_IT_number 60
_symmetry_cell_setting 'orthorhombic'
loop_
_space_group_symop_operation_xyz
x,y,z
1/2-x,1/2-y,1/2+z
1/2+x,1/2-y,-z
-x,y,1/2-z
-x,-y,-z
1/2+x,1/2+y,1/2-z
1/2-x,1/2+y,z
x,-y,1/2+z
loop_
_atom_site_type_symbol
_atom_site_label
_atom_site_fract_x
_atom_site_fract_y
_atom_site_fract_z
Si Si1 0.500000 0.108545 0.250000
Si Si2 0.426701 0.666180 0.942859
Si Si3 0.120101 0.077931 0.416350
Si Si4 0.928796 0.661315 0.063862
Si Si5 0.306310 0.524031 0.182881
Si Si6 0.330059 0.054786 0.992266
Si Si7 0.000000 0.882378 0.250000
O O1 0.514023 0.155251 0.341067
O O2 0.669434 0.060626 0.253074
O O3 0.456124 0.753754 0.975773
O O4 0.450476 0.663414 0.837815
O O5 0.534349 0.599898 0.990901
O O6 0.251306 0.638569 0.972027
O O7 0.242931 0.149524 0.409370
O O8 0.977890 0.066121 0.344664
O O9 0.233896 0.001598 0.425075
O O10 0.986640 0.586098 0.005358
O O11 0.219212 0.523781 0.088436
O O12 0.356924 0.440219 0.219441
#
# Coordination Sequence:
#
# PCOD9455284 Si02
#       7
#     4   8   8   8   8   8   4
#     4  10  23  38  58  94 123 158 208 262 331 372
#     4  11  22  37  60  90 122 165 204 260 327 382
#     4  11  20  41  65  89 116 170 220 252 313 389
#     4  11  23  37  60  91 131 157 206 268 322 378
#     4  10  20  37  63  87 116 160 209 263 298 380
#     4  10  20  40  60  88 118 162 220 255 306 385
#     4  12  19  36  62  84 123 162 208 254 325 376
#
# _framework density 22.284424000000001
#
# number of rings (size 3 to 8) (size 9 to 14) (size 15 to 20)
#    0.000    1.333    3.333    4.000    0.000    0.000 
#    0.000    0.000    0.000    2.000    0.000    0.000 
#    0.000    0.000    0.000    0.000    0.000    0.000 
#
# Total GULP energy -267259.018889 kJ/mol
# GULP energy per Si atom -5567.896227 kJ/mol
# Density = 2.223370 g / cm^3
# Si number density = 22.284424 Si / 1000 Ang^3
#
#
#
# Elastic Constant Matrix: (Units=GPa)
#
#
# Indices 1 2 3 4 5 6 
#
# 1 120.1538 39.6406 10.2084 0.0000 0.0000 0.0000
# 2 39.6406 86.6511 18.0142 0.0000 0.0000 0.0000
# 3 10.2084 18.0142 105.5656 0.0000 0.0000 0.0000
# 4 0.0000 0.0000 0.0000 24.1771 0.0000 0.0000
# 5 0.0000 0.0000 0.0000 0.0000 20.8868 0.0000
# 6 0.0000 0.0000 0.0000 0.0000 0.0000 17.7564
#
#
#
# Elastic Compliance Matrix: (Units=1/GPa)
#
#
# Indices 1 2 3 4 5 6 
#
# 1 0.009806 -0.004446 -0.000189 0.000000 0.000000 0.000000
# 2 -0.004446 0.013981 -0.001956 0.000000 0.000000 0.000000
# 3 -0.000189 -0.001956 0.009825 0.000000 0.000000 0.000000
# 4 0.000000 0.000000 0.000000 0.041362 0.000000 0.000000
# 5 0.000000 0.000000 0.000000 0.000000 0.047877 0.000000
# 6 0.000000 0.000000 0.000000 0.000000 0.000000 0.056318
#
#
# Mechanical properties :
#
#
# Convention : Reuss Voigt Hill
#
# Bulk Modulus (GPa) = 48.95170 49.78853 49.37011
# Shear Modulus (GPa) = 25.10527 28.86453 26.98490
#
# Velocity S-wave (km/s) = 3.36010 3.60290 3.48362
# Velocity P-wave (km/s) = 6.08837 6.30069 6.19544
#
# Compressibility (1/GPa) = 0.02042830
#
# Stress axis : x y z
#
# Youngs Moduli (GPa) = 101.98119 71.52412 101.78266
#
# Poissons Ratio (x) = 0.31803 0.01928
# Poissons Ratio (y) = 0.45346 0.19907
# Poissons Ratio (z) = 0.01932 0.13989
#
# Static dielectric constant tensor:
#      x y z
#    x 1.951550 0.000000 0.000000 
#    y 0.000000 1.846080 0.000000 
#    z 0.000000 0.000000 1.873470 
# 
# From -- ./inp_files/19469.got.cif
#   From: 2010.05.17/outbox.cif.g08.bks.cpg/sg60_10_cif.got.tgz:19469.got - 2010.06.03 14:59:27.
