data_PCOD9455400
_publ_section_title
;
Structure prediction by ZEFSAII (Michael W. Deem and Ramdas Pophale) SiO2 
 PCOD9455400
Probable space group: P B C N
;
_chemical_formula_sum "Si O2"
_cell_formula_units_Z 40
_cell_length_a 21.634549
_cell_length_b 5.378547
_cell_length_c 13.276595
_cell_angle_alpha 90.000000
_cell_angle_beta 90.000000
_cell_angle_gamma 90.000000
_cell_volume 1544.896971
_symmetry_space_group_name_H-M "P B C N"
_symmetry_group_IT_number 60
_symmetry_cell_setting 'orthorhombic'
loop_
_space_group_symop_operation_xyz
x,y,z
1/2-x,1/2-y,1/2+z
1/2+x,1/2-y,-z
-x,y,1/2-z
-x,-y,-z
1/2+x,1/2+y,1/2-z
1/2-x,1/2+y,z
x,-y,1/2+z
loop_
_atom_site_type_symbol
_atom_site_label
_atom_site_fract_x
_atom_site_fract_y
_atom_site_fract_z
Si Si1 0.220442 0.906162 0.874613
Si Si2 0.268822 0.043287 0.148213
Si Si3 0.406461 0.445509 0.982450
Si Si4 0.456097 0.926894 0.891862
Si Si5 0.091720 0.352699 0.672156
O O1 0.229064 0.616606 0.900169
O O2 0.228234 0.922720 0.751585
O O3 0.157661 0.998472 0.924767
O O4 0.256785 0.303346 0.094477
O O5 0.342066 0.016959 0.162359
O O6 0.448662 0.683914 0.961343
O O7 0.427737 0.181830 0.933599
O O8 0.401572 0.391867 0.101965
O O9 0.528137 0.972608 0.867860
O O10 0.422335 0.836567 0.789875
#
# Coordination Sequence:
#
# PCOD9455400 Si02
#       5
#     8   8   8   8   8
#     4  10  20  38  63  91 130 173 214 274 333 386
#     4  10  21  38  61  92 129 169 218 272 327 394
#     4  12  25  45  71 100 137 180 227 280 340 404
#     4  11  26  46  68 102 141 175 226 287 333 400
#     4  11  26  44  73 101 135 184 227 275 345 406
#
# _framework density 25.891693
#
# number of rings (size 3 to 8) (size 9 to 14) (size 15 to 20)
#    0.000    1.200    0.000    7.200    0.000    9.600 
#    0.000    0.000    0.000    0.000    0.000    0.000 
#    0.000    0.000    0.000    0.000    0.000    0.000 
#
# Total GULP energy -223714.254401 kJ/mol
# GULP energy per Si atom -5592.856360 kJ/mol
# Density = 2.583276 g / cm^3
# Si number density = 25.891693 Si / 1000 Ang^3
#
#
#
# Elastic Constant Matrix: (Units=GPa)
#
#
# Indices 1 2 3 4 5 6 
#
# 1 128.4942 34.2934 31.0854 0.0000 0.0000 0.0000
# 2 34.2934 155.7908 53.3622 0.0000 0.0000 0.0000
# 3 31.0854 53.3622 119.1488 0.0000 0.0000 0.0000
# 4 0.0000 0.0000 0.0000 21.7386 0.0000 0.0000
# 5 0.0000 0.0000 0.0000 0.0000 40.0160 0.0000
# 6 0.0000 0.0000 0.0000 0.0000 0.0000 28.8616
#
#
#
# Elastic Compliance Matrix: (Units=1/GPa)
#
#
# Indices 1 2 3 4 5 6 
#
# 1 0.008530 -0.001317 -0.001635 0.000000 0.000000 0.000000
# 2 -0.001317 0.007785 -0.003143 0.000000 0.000000 0.000000
# 3 -0.001635 -0.003143 0.010227 0.000000 0.000000 0.000000
# 4 0.000000 0.000000 0.000000 0.046001 0.000000 0.000000
# 5 0.000000 0.000000 0.000000 0.000000 0.024990 0.000000
# 6 0.000000 0.000000 0.000000 0.000000 0.000000 0.034648
#
#
# Mechanical properties :
#
#
# Convention : Reuss Voigt Hill
#
# Bulk Modulus (GPa) = 69.68354 71.21288 70.44821
# Shear Modulus (GPa) = 33.52178 37.10276 35.31227
#
# Velocity S-wave (km/s) = 3.60209 3.78960 3.69703
# Velocity P-wave (km/s) = 6.65372 6.83462 6.74477
#
# Compressibility (1/GPa) = 0.01435059
#
# Stress axis : x y z
#
# Youngs Moduli (GPa) = 117.23767 128.44463 97.77858
#
# Poissons Ratio (x) = 0.16922 0.15990
# Poissons Ratio (y) = 0.15446 0.30733
# Poissons Ratio (z) = 0.19172 0.40371
#
# Static dielectric constant tensor:
#      x y z
#    x 1.999680 0.000000 0.000000 
#    y 0.000000 1.993110 0.000000 
#    z 0.000000 0.000000 2.128420 
# 
# From -- ./inp_files/17845.got.cif
#   From: 2010.05.17/outbox.cif.g08.bks.cpg/sg60_9_cif.got.tgz:17845.got - 2010.06.03 14:59:27.
