data_PCOD9455512
_publ_section_title
;
Structure prediction by ZEFSAII (Michael W. Deem and Ramdas Pophale) SiO2 
 PCOD9455512
Probable space group: P B C N
;
_chemical_formula_sum "Si O2"
_cell_formula_units_Z 64
_cell_length_a 10.845929
_cell_length_b 23.582327
_cell_length_c 13.499176
_cell_angle_alpha 90.000000
_cell_angle_beta 90.000000
_cell_angle_gamma 90.000000
_cell_volume 3452.714542
_symmetry_space_group_name_H-M "P B C N"
_symmetry_group_IT_number 60
_symmetry_cell_setting 'orthorhombic'
loop_
_space_group_symop_operation_xyz
x,y,z
1/2-x,1/2-y,1/2+z
1/2+x,1/2-y,-z
-x,y,1/2-z
-x,-y,-z
1/2+x,1/2+y,1/2-z
1/2-x,1/2+y,z
x,-y,1/2+z
loop_
_atom_site_type_symbol
_atom_site_label
_atom_site_fract_x
_atom_site_fract_y
_atom_site_fract_z
Si Si1 0.688853 0.846506 0.066659
Si Si2 0.240568 0.833038 0.656291
Si Si3 0.968218 0.129808 0.079634
Si Si4 0.161088 0.986510 0.865231
Si Si5 0.857435 0.558939 0.280274
Si Si6 0.373037 0.966545 0.493518
Si Si7 0.874187 0.237328 0.190457
Si Si8 0.048189 0.890841 0.359994
O O1 0.617459 0.906917 0.065624
O O2 0.640957 0.794346 0.129552
O O3 0.821142 0.862204 0.113415
O O4 0.698555 0.827034 0.951665
O O5 0.315795 0.875835 0.726928
O O6 0.223091 0.777338 0.722893
O O7 0.105049 0.858955 0.626584
O O8 0.915884 0.070608 0.120481
O O9 0.887364 0.182654 0.118398
O O10 0.971466 0.124580 0.959704
O O11 0.257456 0.979040 0.775555
O O12 0.258348 0.997712 0.953293
O O13 0.074490 0.041388 0.858438
O O14 0.842041 0.548786 0.395348
O O15 0.000000 0.549656 0.250000
O O16 0.500000 0.000000 0.500000
O O17 0.000000 0.241654 0.250000
O O18 0.000000 0.874949 0.250000
#
# Coordination Sequence:
#
# PCOD9455512 Si02
#       8
#     8   8   8   8   8   8   8   8
#     4   9  21  41  58  83 123 159 193 249 309 349
#     4   9  20  39  62  85 117 151 196 257 287 351
#     4  10  21  39  62  88 116 151 207 251 295 357
#     4  11  22  36  60  90 118 160 195 247 302 362
#     4  11  21  36  59  86 121 159 204 234 295 360
#     4  10  21  40  55  83 129 157 193 249 295 363
#     4  10  20  39  65  88 110 156 210 248 297 359
#     4  10  23  37  56  89 126 153 189 249 313 360
#
# _framework density 18.536138999999999
#
# number of rings (size 3 to 8) (size 9 to 14) (size 15 to 20)
#    0.000    2.000    2.500    1.125    3.500    1.000 
#    4.500   11.875    0.000    0.000    0.000    0.000 
#    0.000    0.000    0.000    0.000    0.000    0.000 
#
# Total GULP energy -356534.689588 kJ/mol
# GULP energy per Si atom -5570.854525 kJ/mol
# Density = 1.849395 g / cm^3
# Si number density = 18.536139 Si / 1000 Ang^3
#
#
#
# Elastic Constant Matrix: (Units=GPa)
#
#
# Indices 1 2 3 4 5 6 
#
# 1 26.1481 20.4420 20.5056 0.0000 0.0000 0.0000
# 2 20.4420 99.1803 49.3565 0.0000 0.0000 0.0000
# 3 20.5056 49.3565 92.8170 0.0000 0.0000 0.0000
# 4 0.0000 0.0000 0.0000 29.0998 0.0000 0.0000
# 5 0.0000 0.0000 0.0000 0.0000 19.7490 0.0000
# 6 0.0000 0.0000 0.0000 0.0000 0.0000 10.5675
#
#
#
# Elastic Compliance Matrix: (Units=1/GPa)
#
#
# Indices 1 2 3 4 5 6 
#
# 1 0.049090 -0.006420 -0.007432 0.000000 0.000000 0.000000
# 2 -0.006420 0.014550 -0.006319 0.000000 0.000000 0.000000
# 3 -0.007432 -0.006319 0.015776 0.000000 0.000000 0.000000
# 4 0.000000 0.000000 0.000000 0.034364 0.000000 0.000000
# 5 0.000000 0.000000 0.000000 0.000000 0.050636 0.000000
# 6 0.000000 0.000000 0.000000 0.000000 0.000000 0.094630
#
#
# Mechanical properties :
#
#
# Convention : Reuss Voigt Hill
#
# Bulk Modulus (GPa) = 25.59111 44.30594 34.94852
# Shear Modulus (GPa) = 16.00446 20.40601 18.20523
#
# Velocity S-wave (km/s) = 2.94159 3.32155 3.13732
# Velocity P-wave (km/s) = 5.03719 6.21808 5.65853
#
# Compressibility (1/GPa) = 0.03907607
#
# Stress axis : x y z
#
# Youngs Moduli (GPa) = 20.37060 68.72629 63.38761
#
# Poissons Ratio (x) = 0.44120 0.47107
# Poissons Ratio (y) = 0.13077 0.40055
# Poissons Ratio (z) = 0.15138 0.43429
#
# Static dielectric constant tensor:
#      x y z
#    x 1.655360 0.000000 0.000000 
#    y 0.000000 1.688290 0.000000 
#    z 0.000000 0.000000 1.665080 
# 
# From -- ./inp_files/11369.got.cif
#   From: 2010.05.17/outbox.cif.g08.bks.cpg/sg60_6_cif.got.tgz:11369.got - 2010.06.03 14:59:27.
