data_PCOD9455325
_publ_section_title
;
Structure prediction by ZEFSAII (Michael W. Deem and Ramdas Pophale) SiO2 
 PCOD9455325
Probable space group: P B C N
;
_chemical_formula_sum "Si O2"
_cell_formula_units_Z 60
_cell_length_a 30.032838
_cell_length_b 13.426259
_cell_length_c 9.136495
_cell_angle_alpha 90.000000
_cell_angle_beta 90.000000
_cell_angle_gamma 90.000000
_cell_volume 3684.096650
_symmetry_space_group_name_H-M "P B C N"
_symmetry_group_IT_number 60
_symmetry_cell_setting 'orthorhombic'
loop_
_space_group_symop_operation_xyz
x,y,z
1/2-x,1/2-y,1/2+z
1/2+x,1/2-y,-z
-x,y,1/2-z
-x,-y,-z
1/2+x,1/2+y,1/2-z
1/2-x,1/2+y,z
x,-y,1/2+z
loop_
_atom_site_type_symbol
_atom_site_label
_atom_site_fract_x
_atom_site_fract_y
_atom_site_fract_z
Si Si1 0.196157 0.593842 0.913429
Si Si2 0.788040 0.697879 0.876924
Si Si3 0.187815 0.112108 0.649009
Si Si4 0.361224 0.086767 0.422149
Si Si5 0.705319 0.415831 0.015688
Si Si6 0.134192 0.301886 0.627266
Si Si7 0.500000 0.986535 0.250000
Si Si8 0.062537 0.435520 0.500528
O O1 0.200971 0.680293 0.793714
O O2 0.164691 0.507420 0.852053
O O3 0.244287 0.551385 0.948145
O O4 0.175088 0.633966 0.062106
O O5 0.737020 0.657667 0.891279
O O6 0.825318 0.636349 0.968238
O O7 0.791363 0.811882 0.928402
O O8 0.185167 0.102774 0.824611
O O9 0.149511 0.189507 0.606442
O O10 0.183632 0.004817 0.574626
O O11 0.372775 0.164755 0.294868
O O12 0.404815 0.033111 0.490787
O O13 0.092818 0.340508 0.533467
O O14 0.528766 0.049353 0.365512
O O15 0.534899 0.927733 0.148901
#
# Coordination Sequence:
#
# PCOD9455325 Si02
#       8
#     8   8   8   8   8   8   4   8
#     4  10  21  31  52  72 104 148 194 237 269 319
#     4  11  22  35  51  74 109 152 204 239 271 318
#     4  11  24  36  52  73 108 152 203 245 274 315
#     4  11  20  36  53  81 110 154 190 223 275 334
#     4  11  23  35  50  72 103 151 201 247 271 303
#     4  11  21  35  52  79 109 151 188 224 278 335
#     4  10  20  38  58  88 116 146 172 220 300 360
#     4  10  21  36  59  85 120 146 175 228 284 367
#
# _framework density 16.286217000000001
#
# number of rings (size 3 to 8) (size 9 to 14) (size 15 to 20)
#    0.000    1.333    5.333    1.600    5.600    0.000 
#    0.000    0.000    0.000    0.000    0.000    0.000 
#    0.000   18.133    0.000    0.000    0.000    0.000 
#
# Total GULP energy -334523.774030 kJ/mol
# GULP energy per Si atom -5575.396234 kJ/mol
# Density = 1.624915 g / cm^3
# Si number density = 16.286217 Si / 1000 Ang^3
#
#
#
# Elastic Constant Matrix: (Units=GPa)
#
#
# Indices 1 2 3 4 5 6 
#
# 1 62.8183 26.1426 23.0171 0.0000 0.0000 0.0000
# 2 26.1426 106.2585 37.2746 0.0000 0.0000 0.0000
# 3 23.0171 37.2746 74.8120 0.0000 0.0000 0.0000
# 4 0.0000 0.0000 0.0000 22.9293 0.0000 0.0000
# 5 0.0000 0.0000 0.0000 0.0000 23.7374 0.0000
# 6 0.0000 0.0000 0.0000 0.0000 0.0000 17.6685
#
#
#
# Elastic Compliance Matrix: (Units=1/GPa)
#
#
# Indices 1 2 3 4 5 6 
#
# 1 0.018768 -0.003141 -0.004209 0.000000 0.000000 0.000000
# 2 -0.003141 0.011930 -0.004978 0.000000 0.000000 0.000000
# 3 -0.004209 -0.004978 0.017142 0.000000 0.000000 0.000000
# 4 0.000000 0.000000 0.000000 0.043612 0.000000 0.000000
# 5 0.000000 0.000000 0.000000 0.000000 0.042128 0.000000
# 6 0.000000 0.000000 0.000000 0.000000 0.000000 0.056598
#
#
# Mechanical properties :
#
#
# Convention : Reuss Voigt Hill
#
# Bulk Modulus (GPa) = 43.13264 46.30638 44.71951
# Shear Modulus (GPa) = 22.46562 23.36401 22.91481
#
# Velocity S-wave (km/s) = 3.71809 3.79170 3.75508
# Velocity P-wave (km/s) = 6.70626 6.90391 6.80580
#
# Compressibility (1/GPa) = 0.02318430
#
# Stress axis : x y z
#
# Youngs Moduli (GPa) = 53.28094 83.82316 58.33618
#
# Poissons Ratio (x) = 0.26328 0.24556
# Poissons Ratio (y) = 0.16735 0.29038
# Poissons Ratio (z) = 0.22428 0.41724
#
# Static dielectric constant tensor:
#      x y z
#    x 1.551630 0.000000 0.000000 
#    y 0.000000 1.545050 0.000000 
#    z 0.000000 0.000000 1.568760 
# 
# From -- ./inp_files/8462.got.cif
#   From: 2010.05.17/outbox.cif.g08.bks.cpg/sg60_5_cif.got.tgz:8462.got - 2010.06.03 14:59:27.
