data_PCOD9455110
_publ_section_title
;
Structure prediction by ZEFSAII (Michael W. Deem and Ramdas Pophale) SiO2 
 PCOD9455110
Probable space group: P B C N
;
_chemical_formula_sum "Si O2"
_cell_formula_units_Z 56
_cell_length_a 13.384081
_cell_length_b 13.041310
_cell_length_c 13.559020
_cell_angle_alpha 90.000000
_cell_angle_beta 90.000000
_cell_angle_gamma 90.000000
_cell_volume 2366.672019
_symmetry_space_group_name_H-M "P B C N"
_symmetry_group_IT_number 60
_symmetry_cell_setting 'orthorhombic'
loop_
_space_group_symop_operation_xyz
x,y,z
1/2-x,1/2-y,1/2+z
1/2+x,1/2-y,-z
-x,y,1/2-z
-x,-y,-z
1/2+x,1/2+y,1/2-z
1/2-x,1/2+y,z
x,-y,1/2+z
loop_
_atom_site_type_symbol
_atom_site_label
_atom_site_fract_x
_atom_site_fract_y
_atom_site_fract_z
Si Si1 0.952416 0.856832 0.358177
Si Si2 0.247788 0.641575 0.745503
Si Si3 0.861809 0.057268 0.561233
Si Si4 0.263472 0.679430 0.102193
Si Si5 0.116573 0.490678 0.127155
Si Si6 0.965537 0.644246 0.137697
Si Si7 0.270270 0.862898 0.963376
O O1 0.838655 0.884433 0.332170
O O2 0.000000 0.848584 0.250000
O O3 0.022630 0.938183 0.410437
O O4 0.980346 0.745987 0.406315
O O5 0.296311 0.616182 0.852077
O O6 0.217455 0.754187 0.701822
O O7 0.152338 0.569107 0.725095
O O8 0.847210 0.115114 0.456837
O O9 0.815894 0.943694 0.558838
O O10 0.233270 0.760855 0.016835
O O11 0.180875 0.594799 0.124206
O O12 0.006274 0.532397 0.108349
O O13 0.154287 0.416098 0.041544
O O14 0.847432 0.657342 0.125085
O O15 0.000000 0.644521 0.250000
#
# Coordination Sequence:
#
# PCOD9455110 Si02
#       7
#     8   8   8   8   8   8   8
#     4   9  18  33  57  84 110 149 195 233 279 342
#     4  10  20  36  58  85 117 151 192 237 284 338
#     4  10  20  36  58  85 117 151 192 237 284 338
#     4  10  20  36  54  84 116 148 186 234 286 336
#     4  10  21  35  54  82 115 149 187 238 287 339
#     4  11  19  33  58  83 108 148 193 231 281 342
#     4  10  21  35  54  82 115 149 187 238 287 339
#
# _framework density 23.661918
#
# number of rings (size 3 to 8) (size 9 to 14) (size 15 to 20)
#    0.000    2.000    2.857    1.286    0.000    1.143 
#    0.000    7.857    0.000    0.000    0.000    8.000 
#    0.000    0.000    0.000    0.000    0.000    0.000 
#
# Total GULP energy -312109.733162 kJ/mol
# GULP energy per Si atom -5573.388092 kJ/mol
# Density = 2.360806 g / cm^3
# Si number density = 23.661918 Si / 1000 Ang^3
#
#
#
# Elastic Constant Matrix: (Units=GPa)
#
#
# Indices 1 2 3 4 5 6 
#
# 1 61.3542 6.8664 4.1707 0.0000 0.0000 0.0000
# 2 6.8664 97.1753 20.1986 0.0000 0.0000 0.0000
# 3 4.1707 20.1986 59.9029 0.0000 0.0000 0.0000
# 4 0.0000 0.0000 0.0000 32.6582 0.0000 0.0000
# 5 0.0000 0.0000 0.0000 0.0000 33.8688 0.0000
# 6 0.0000 0.0000 0.0000 0.0000 0.0000 27.9913
#
#
#
# Elastic Compliance Matrix: (Units=1/GPa)
#
#
# Indices 1 2 3 4 5 6 
#
# 1 0.016465 -0.000995 -0.000811 0.000000 0.000000 0.000000
# 2 -0.000995 0.011126 -0.003682 0.000000 0.000000 0.000000
# 3 -0.000811 -0.003682 0.017992 0.000000 0.000000 0.000000
# 4 0.000000 0.000000 0.000000 0.030620 0.000000 0.000000
# 5 0.000000 0.000000 0.000000 0.000000 0.029526 0.000000
# 6 0.000000 0.000000 0.000000 0.000000 0.000000 0.035725
#
#
# Mechanical properties :
#
#
# Convention : Reuss Voigt Hill
#
# Bulk Modulus (GPa) = 28.89587 31.21153 30.05370
# Shear Modulus (GPa) = 30.49395 31.38343 30.93869
#
# Velocity S-wave (km/s) = 3.59379 3.64583 3.61990
# Velocity P-wave (km/s) = 5.42761 5.56255 5.49549
#
# Compressibility (1/GPa) = 0.03460702
#
# Stress axis : x y z
#
# Youngs Moduli (GPa) = 60.73394 89.87632 55.58080
#
# Poissons Ratio (x) = 0.08942 0.04507
# Poissons Ratio (y) = 0.06042 0.20467
# Poissons Ratio (z) = 0.04925 0.33096
#
# Static dielectric constant tensor:
#      x y z
#    x 1.935190 0.000000 0.000000 
#    y 0.000000 2.005940 0.000000 
#    z 0.000000 0.000000 2.038270 
# 
# From -- ./inp_files/16979.got.cif
#   From: 2010.05.17/outbox.cif.g08.bks.cpg/sg60_9_cif.got.tgz:16979.got - 2010.06.03 14:59:27.
