data_PCOD9455304
_publ_section_title
;
Structure prediction by ZEFSAII (Michael W. Deem and Ramdas Pophale) SiO2 
 PCOD9455304
Probable space group: P B C N
;
_chemical_formula_sum "Si O2"
_cell_formula_units_Z 56
_cell_length_a 16.000593
_cell_length_b 14.602494
_cell_length_c 11.036920
_cell_angle_alpha 90.000000
_cell_angle_beta 90.000000
_cell_angle_gamma 90.000000
_cell_volume 2578.760501
_symmetry_space_group_name_H-M "P B C N"
_symmetry_group_IT_number 60
_symmetry_cell_setting 'orthorhombic'
loop_
_space_group_symop_operation_xyz
x,y,z
1/2-x,1/2-y,1/2+z
1/2+x,1/2-y,-z
-x,y,1/2-z
-x,-y,-z
1/2+x,1/2+y,1/2-z
1/2-x,1/2+y,z
x,-y,1/2+z
loop_
_atom_site_type_symbol
_atom_site_label
_atom_site_fract_x
_atom_site_fract_y
_atom_site_fract_z
Si Si1 0.797608 0.366727 0.186608
Si Si2 0.920565 0.435697 0.992320
Si Si3 0.189620 0.405568 0.055855
Si Si4 0.571487 0.752561 0.849573
Si Si5 0.280174 0.185084 0.321166
Si Si6 0.346710 0.479583 0.788226
Si Si7 0.112388 0.939039 0.044708
O O1 0.823317 0.345987 0.324880
O O2 0.769400 0.272409 0.125204
O O3 0.718901 0.436261 0.191381
O O4 0.873583 0.413364 0.117102
O O5 0.853514 0.497168 0.919919
O O6 0.943532 0.341135 0.930700
O O7 0.000000 0.500000 0.000000
O O8 0.287521 0.422815 0.039770
O O9 0.164922 0.360816 0.928265
O O10 0.500000 0.743431 0.750000
O O11 0.659249 0.773840 0.781175
O O12 0.574124 0.659450 0.925775
O O13 0.212350 0.110435 0.277466
O O14 0.396040 0.497664 0.663587
O O15 0.404173 0.474455 0.908924
#
# Coordination Sequence:
#
# PCOD9455304 Si02
#       7
#     8   8   8   8   8   8   8
#     4  11  22  38  63  93 130 170 215 273 323 396
#     4  12  25  39  63  96 140 172 205 269 351 413
#     4  10  21  38  59  90 125 165 220 255 320 391
#     4  12  25  40  63  93 130 174 218 266 335 404
#     4  11  21  38  64  95 127 169 222 269 323 389
#     4  10  20  37  65  93 126 159 223 270 326 371
#     4  10  20  41  62  95 124 170 221 273 315 393
#
# _framework density 21.715858999999998
#
# number of rings (size 3 to 8) (size 9 to 14) (size 15 to 20)
#    0.000    1.143    5.714    4.286    2.000    0.000 
#    0.000    0.714    0.000    0.000    0.000    0.000 
#    0.000    0.000    0.000    0.000    0.000    0.000 
#
# Total GULP energy -312836.554302 kJ/mol
# GULP energy per Si atom -5586.367041 kJ/mol
# Density = 2.166643 g / cm^3
# Si number density = 21.715859 Si / 1000 Ang^3
#
#
#
# Elastic Constant Matrix: (Units=GPa)
#
#
# Indices 1 2 3 4 5 6 
#
# 1 48.5719 18.4681 4.0776 0.0000 0.0000 0.0000
# 2 18.4681 94.3100 -8.0208 0.0000 0.0000 0.0000
# 3 4.0776 -8.0208 69.3075 0.0000 0.0000 0.0000
# 4 0.0000 0.0000 0.0000 31.9330 0.0000 0.0000
# 5 0.0000 0.0000 0.0000 0.0000 13.1111 0.0000
# 6 0.0000 0.0000 0.0000 0.0000 0.0000 26.7405
#
#
#
# Elastic Compliance Matrix: (Units=1/GPa)
#
#
# Indices 1 2 3 4 5 6 
#
# 1 0.022477 -0.004559 -0.001850 0.000000 0.000000 0.000000
# 2 -0.004559 0.011633 0.001615 0.000000 0.000000 0.000000
# 3 -0.001850 0.001615 0.014724 0.000000 0.000000 0.000000
# 4 0.000000 0.000000 0.000000 0.031316 0.000000 0.000000
# 5 0.000000 0.000000 0.000000 0.000000 0.076271 0.000000
# 6 0.000000 0.000000 0.000000 0.000000 0.000000 0.037396
#
#
# Mechanical properties :
#
#
# Convention : Reuss Voigt Hill
#
# Bulk Modulus (GPa) = 25.48048 26.80433 26.14240
# Shear Modulus (GPa) = 23.09598 27.53456 25.31527
#
# Velocity S-wave (km/s) = 3.26476 3.56469 3.41801
# Velocity P-wave (km/s) = 5.09613 5.41412 5.25753
#
# Compressibility (1/GPa) = 0.03924573
#
# Stress axis : x y z
#
# Youngs Moduli (GPa) = 44.49059 85.95972 67.91569
#
# Poissons Ratio (x) = 0.39187 0.12564
# Poissons Ratio (y) = 0.20282 -0.10965
# Poissons Ratio (z) = 0.08231 -0.13878
#
# Static dielectric constant tensor:
#      x y z
#    x 1.795430 0.000000 0.000000 
#    y 0.000000 1.787000 0.000000 
#    z 0.000000 0.000000 1.877500 
# 
# From -- ./inp_files/11942.got.cif
#   From: 2010.05.17/outbox.cif.g08.bks.cpg/sg60_6_cif.got.tgz:11942.got - 2010.06.03 14:59:27.
