data_PCOD9455245
_publ_section_title
;
Structure prediction by ZEFSAII (Michael W. Deem and Ramdas Pophale) SiO2 
 PCOD9455245
Probable space group: P B C N
;
_chemical_formula_sum "Si O2"
_cell_formula_units_Z 48
_cell_length_a 19.326470
_cell_length_b 5.064722
_cell_length_c 23.260200
_cell_angle_alpha 90.000000
_cell_angle_beta 90.000000
_cell_angle_gamma 90.000000
_cell_volume 2276.782757
_symmetry_space_group_name_H-M "P B C N"
_symmetry_group_IT_number 60
_symmetry_cell_setting 'orthorhombic'
loop_
_space_group_symop_operation_xyz
x,y,z
1/2-x,1/2-y,1/2+z
1/2+x,1/2-y,-z
-x,y,1/2-z
-x,-y,-z
1/2+x,1/2+y,1/2-z
1/2-x,1/2+y,z
x,-y,1/2+z
loop_
_atom_site_type_symbol
_atom_site_label
_atom_site_fract_x
_atom_site_fract_y
_atom_site_fract_z
Si Si1 0.049629 0.247317 0.666744
Si Si2 0.601036 0.876849 0.710358
Si Si3 0.299070 0.255570 0.735165
Si Si4 0.386404 0.750617 0.120868
Si Si5 0.203433 0.133948 0.881256
Si Si6 0.798124 0.210304 0.489040
O O1 0.092669 0.245876 0.726613
O O2 0.085386 0.453275 0.623996
O O3 0.975213 0.363799 0.683454
O O4 0.054929 0.956378 0.640853
O O5 0.649072 0.723204 0.665953
O O6 0.635675 0.159792 0.725958
O O7 0.256800 0.522365 0.744734
O O8 0.326753 0.261761 0.669748
O O9 0.355022 0.677402 0.059772
O O10 0.267956 0.337813 0.876128
O O11 0.175206 0.176210 0.945845
O O12 0.762330 0.494273 0.482283
#
# Coordination Sequence:
#
# PCOD9455245 Si02
#       6
#     8   8   8   8   8   8
#     4  10  24  37  58  81 114 159 191 230 283 331
#     4  10  22  40  56  82 119 152 192 234 279 347
#     4  11  21  33  56  85 110 142 183 237 291 333
#     4  11  21  38  56  84 114 147 193 234 281 345
#     4  10  22  38  60  86 112 147 185 232 290 341
#     4  10  20  37  60  84 113 145 182 236 293 339
#
# _framework density 21.082380000000001
#
# number of rings (size 3 to 8) (size 9 to 14) (size 15 to 20)
#    0.000    1.667    0.000    5.000    0.000   10.667 
#    0.000    1.667    0.000    0.000    0.000    0.000 
#    0.000    0.000    0.000    0.000    0.000    0.000 
#
# Total GULP energy -268401.470477 kJ/mol
# GULP energy per Si atom -5591.697302 kJ/mol
# Density = 2.103440 g / cm^3
# Si number density = 21.082380 Si / 1000 Ang^3
#
#
#
# Elastic Constant Matrix: (Units=GPa)
#
#
# Indices 1 2 3 4 5 6 
#
# 1 76.9044 15.9643 44.6595 0.0000 0.0000 0.0000
# 2 15.9643 89.5547 22.3912 0.0000 0.0000 0.0000
# 3 44.6595 22.3912 100.2962 0.0000 0.0000 0.0000
# 4 0.0000 0.0000 0.0000 23.2398 0.0000 0.0000
# 5 0.0000 0.0000 0.0000 0.0000 26.9745 0.0000
# 6 0.0000 0.0000 0.0000 0.0000 0.0000 20.8388
#
#
#
# Elastic Compliance Matrix: (Units=1/GPa)
#
#
# Indices 1 2 3 4 5 6 
#
# 1 0.017670 -0.001253 -0.007588 0.000000 0.000000 0.000000
# 2 -0.001253 0.011915 -0.002102 0.000000 0.000000 0.000000
# 3 -0.007588 -0.002102 0.013819 0.000000 0.000000 0.000000
# 4 0.000000 0.000000 0.000000 0.043030 0.000000 0.000000
# 5 0.000000 0.000000 0.000000 0.000000 0.037072 0.000000
# 6 0.000000 0.000000 0.000000 0.000000 0.000000 0.047988
#
#
# Mechanical properties :
#
#
# Convention : Reuss Voigt Hill
#
# Bulk Modulus (GPa) = 46.47416 48.08726 47.28071
# Shear Modulus (GPa) = 24.93119 26.45996 25.69557
#
# Velocity S-wave (km/s) = 3.44257 3.54655 3.49494
# Velocity P-wave (km/s) = 6.15578 6.29519 6.22587
#
# Compressibility (1/GPa) = 0.02151733
#
# Stress axis : x y z
#
# Youngs Moduli (GPa) = 56.59363 83.92574 72.36565
#
# Poissons Ratio (x) = 0.10512 0.54913
# Poissons Ratio (y) = 0.07089 0.15214
# Poissons Ratio (z) = 0.42945 0.17644
#
# Static dielectric constant tensor:
#      x y z
#    x 1.756560 0.000000 0.000000 
#    y 0.000000 1.767140 0.000000 
#    z 0.000000 0.000000 1.769150 
# 
# From -- ./inp_files/23165.got.cif
#   From: 2010.05.17/outbox.cif.g08.bks.cpg/sg60_12_cif.got.tgz:23165.got - 2010.06.03 14:59:27.
