data_PCOD9455561
_publ_section_title
;
Structure prediction by ZEFSAII (Michael W. Deem and Ramdas Pophale) SiO2 
 PCOD9455561
Probable space group: P B C N
;
_chemical_formula_sum "Si O2"
_cell_formula_units_Z 52
_cell_length_a 7.896820
_cell_length_b 19.206832
_cell_length_c 13.678710
_cell_angle_alpha 90.000000
_cell_angle_beta 90.000000
_cell_angle_gamma 90.000000
_cell_volume 2074.689547
_symmetry_space_group_name_H-M "P B C N"
_symmetry_group_IT_number 60
_symmetry_cell_setting 'orthorhombic'
loop_
_space_group_symop_operation_xyz
x,y,z
1/2-x,1/2-y,1/2+z
1/2+x,1/2-y,-z
-x,y,1/2-z
-x,-y,-z
1/2+x,1/2+y,1/2-z
1/2-x,1/2+y,z
x,-y,1/2+z
loop_
_atom_site_type_symbol
_atom_site_label
_atom_site_fract_x
_atom_site_fract_y
_atom_site_fract_z
Si Si1 0.764957 0.107695 0.107165
Si Si2 0.500000 0.000000 0.000000
Si Si3 0.515718 0.797366 0.975647
Si Si4 0.863516 0.385140 0.128488
Si Si5 0.316703 0.457356 0.196077
Si Si6 0.501131 0.366331 0.457556
Si Si7 0.825851 0.394942 0.813673
O O1 0.665923 0.172169 0.057119
O O2 0.790444 0.121751 0.221686
O O3 0.648856 0.041747 0.074799
O O4 0.950290 0.103138 0.061880
O O5 0.487227 0.066341 0.932093
O O6 0.516114 0.716328 0.953459
O O7 0.641454 0.840714 0.901053
O O8 0.563179 0.811066 0.089725
O O9 0.814540 0.415640 0.233717
O O10 0.681801 0.388068 0.076657
O O11 0.500000 0.473525 0.250000
O O12 0.368108 0.403313 0.114031
O O13 0.227684 0.527335 0.153170
O O14 0.000000 0.399311 0.750000
#
# Coordination Sequence:
#
# PCOD9455561 Si02
#       7
#     8   4   8   8   8   8   8
#     4  10  22  38  64  90 125 165 214 269 319 383
#     4  10  20  40  62  94 124 160 220 256 328 380
#     4  10  23  41  62  92 128 179 218 261 327 403
#     4  10  22  41  64  91 132 169 216 272 323 396
#     4  10  23  39  62  95 128 166 215 280 333 388
#     4  11  24  39  64  96 130 171 216 272 335 390
#     4  10  22  39  64  89 121 172 216 263 320 392
#
# _framework density 25.063991000000001
#
# number of rings (size 3 to 8) (size 9 to 14) (size 15 to 20)
#    0.000    1.846    1.538    0.923    6.462    8.615 
#    0.000    0.000    0.000    6.462    0.000    0.000 
#    0.000    0.000    0.000    0.000    0.000    0.000 
#
# Total GULP energy -289541.760743 kJ/mol
# GULP energy per Si atom -5568.110784 kJ/mol
# Density = 2.500694 g / cm^3
# Si number density = 25.063991 Si / 1000 Ang^3
#
#
#
# Elastic Constant Matrix: (Units=GPa)
#
#
# Indices 1 2 3 4 5 6 
#
# 1 69.8461 26.7003 8.9886 0.0000 0.0000 0.0000
# 2 26.7003 55.5355 32.9124 0.0000 0.0000 0.0000
# 3 8.9886 32.9124 81.3292 0.0000 0.0000 0.0000
# 4 0.0000 0.0000 0.0000 22.8051 0.0000 0.0000
# 5 0.0000 0.0000 0.0000 0.0000 43.4982 0.0000
# 6 0.0000 0.0000 0.0000 0.0000 0.0000 25.5380
#
#
#
# Elastic Compliance Matrix: (Units=1/GPa)
#
#
# Indices 1 2 3 4 5 6 
#
# 1 0.017777 -0.009711 0.001965 0.000000 0.000000 0.000000
# 2 -0.009711 0.028993 -0.010660 0.000000 0.000000 0.000000
# 3 0.001965 -0.010660 0.016392 0.000000 0.000000 0.000000
# 4 0.000000 0.000000 0.000000 0.043850 0.000000 0.000000
# 5 0.000000 0.000000 0.000000 0.000000 0.022989 0.000000
# 6 0.000000 0.000000 0.000000 0.000000 0.000000 0.039157
#
#
# Mechanical properties :
#
#
# Convention : Reuss Voigt Hill
#
# Bulk Modulus (GPa) = 37.94999 38.21262 38.08131
# Shear Modulus (GPa) = 23.28258 27.57557 25.42907
#
# Velocity S-wave (km/s) = 3.05113 3.32054 3.18868
# Velocity P-wave (km/s) = 5.25230 5.47544 5.36503
#
# Compressibility (1/GPa) = 0.02635047
#
# Stress axis : x y z
#
# Youngs Moduli (GPa) = 56.25349 34.49133 61.00455
#
# Poissons Ratio (x) = 0.33496 -0.11989
# Poissons Ratio (y) = 0.54630 0.65028
# Poissons Ratio (z) = -0.11056 0.36766
#
# Static dielectric constant tensor:
#      x y z
#    x 2.089350 0.000000 0.000000 
#    y 0.000000 2.320630 0.000000 
#    z 0.000000 0.000000 2.037390 
# 
# From -- ./inp_files/15196.got.cif
#   From: 2010.05.17/outbox.cif.g08.bks.cpg/sg60_8_cif.got.tgz:15196.got - 2010.06.03 14:59:27.
