data_PCOD9455469
_publ_section_title
;
Structure prediction by ZEFSAII (Michael W. Deem and Ramdas Pophale) SiO2 
 PCOD9455469
Probable space group: P B C N
;
_chemical_formula_sum "Si O2"
_cell_formula_units_Z 28
_cell_length_a 8.245186
_cell_length_b 8.450565
_cell_length_c 15.777272
_cell_angle_alpha 90.000000
_cell_angle_beta 90.000000
_cell_angle_gamma 90.000000
_cell_volume 1099.304781
_symmetry_space_group_name_H-M "P B C N"
_symmetry_group_IT_number 60
_symmetry_cell_setting 'orthorhombic'
loop_
_space_group_symop_operation_xyz
x,y,z
1/2-x,1/2-y,1/2+z
1/2+x,1/2-y,-z
-x,y,1/2-z
-x,-y,-z
1/2+x,1/2+y,1/2-z
1/2-x,1/2+y,z
x,-y,1/2+z
loop_
_atom_site_type_symbol
_atom_site_label
_atom_site_fract_x
_atom_site_fract_y
_atom_site_fract_z
Si Si1 0.826520 0.525702 0.610961
Si Si2 0.500000 0.240751 0.750000
Si Si3 0.945548 0.956686 0.888147
Si Si4 0.956605 0.736303 0.462000
O O1 0.900450 0.631897 0.685484
O O2 0.637432 0.493995 0.625198
O O3 0.860278 0.615742 0.521837
O O4 0.926537 0.363157 0.598952
O O5 0.389894 0.358355 0.692768
O O6 0.865313 0.124986 0.909830
O O7 0.948676 0.840031 0.967973
#
# Coordination Sequence:
#
# PCOD9455469 Si02
#       4
#     8   4   8   8
#     4  10  20  39  60  84 119 151 184 240 287 332
#     4  10  22  38  58  88 120 152 190 226 290 358
#     4  10  20  39  60  84 119 151 184 240 287 332
#     4   9  19  36  61  85 110 150 199 229 275 344
#
# _framework density 25.470641000000001
#
# number of rings (size 3 to 8) (size 9 to 14) (size 15 to 20)
#    0.000    2.286    0.000    3.429    0.000    1.143 
#    0.000   42.857    0.000    0.000    0.000    0.000 
#    0.000    0.000    0.000    0.000    0.000    0.000 
#
# Total GULP energy -156670.560761 kJ/mol
# GULP energy per Si atom -5595.377170 kJ/mol
# Density = 2.541267 g / cm^3
# Si number density = 25.470641 Si / 1000 Ang^3
#
#
#
# Elastic Constant Matrix: (Units=GPa)
#
#
# Indices 1 2 3 4 5 6 
#
# 1 82.6521 29.0880 24.2317 0.0000 0.0000 0.0000
# 2 29.0880 181.4255 61.0554 0.0000 0.0000 0.0000
# 3 24.2317 61.0554 119.0055 0.0000 0.0000 0.0000
# 4 0.0000 0.0000 0.0000 66.0128 0.0000 0.0000
# 5 0.0000 0.0000 0.0000 0.0000 19.3552 0.0000
# 6 0.0000 0.0000 0.0000 0.0000 0.0000 25.5648
#
#
#
# Elastic Compliance Matrix: (Units=1/GPa)
#
#
# Indices 1 2 3 4 5 6 
#
# 1 0.013180 -0.001463 -0.001933 0.000000 0.000000 0.000000
# 2 -0.001463 0.006824 -0.003203 0.000000 0.000000 0.000000
# 3 -0.001933 -0.003203 0.010440 0.000000 0.000000 0.000000
# 4 0.000000 0.000000 0.000000 0.015149 0.000000 0.000000
# 5 0.000000 0.000000 0.000000 0.000000 0.051666 0.000000
# 6 0.000000 0.000000 0.000000 0.000000 0.000000 0.039116
#
#
# Mechanical properties :
#
#
# Convention : Reuss Voigt Hill
#
# Bulk Modulus (GPa) = 57.98378 67.98147 62.98262
# Shear Modulus (GPa) = 32.19091 40.10042 36.14566
#
# Velocity S-wave (km/s) = 3.55891 3.97215 3.77120
# Velocity P-wave (km/s) = 6.30097 6.91269 6.61391
#
# Compressibility (1/GPa) = 0.01724620
#
# Stress axis : x y z
#
# Youngs Moduli (GPa) = 75.86986 146.53164 95.78382
#
# Poissons Ratio (x) = 0.21431 0.18519
# Poissons Ratio (y) = 0.11096 0.30684
# Poissons Ratio (z) = 0.14669 0.46941
#
# Static dielectric constant tensor:
#      x y z
#    x 2.031140 0.000000 0.000000 
#    y 0.000000 2.032590 0.000000 
#    z 0.000000 0.000000 2.042210 
# 
# From -- ./inp_files/15525.got.cif
#   From: 2010.05.17/outbox.cif.g08.bks.cpg/sg60_8_cif.got.tgz:15525.got - 2010.06.03 14:59:27.
