data_PCOD9455059
_publ_section_title
;
Structure prediction by ZEFSAII (Michael W. Deem and Ramdas Pophale) SiO2 
 PCOD9455059
Probable space group: P B C N
;
_chemical_formula_sum "Si O2"
_cell_formula_units_Z 48
_cell_length_a 8.588358
_cell_length_b 31.141436
_cell_length_c 9.060116
_cell_angle_alpha 90.000000
_cell_angle_beta 90.000000
_cell_angle_gamma 90.000000
_cell_volume 2423.162462
_symmetry_space_group_name_H-M "P B C N"
_symmetry_group_IT_number 60
_symmetry_cell_setting 'orthorhombic'
loop_
_space_group_symop_operation_xyz
x,y,z
1/2-x,1/2-y,1/2+z
1/2+x,1/2-y,-z
-x,y,1/2-z
-x,-y,-z
1/2+x,1/2+y,1/2-z
1/2-x,1/2+y,z
x,-y,1/2+z
loop_
_atom_site_type_symbol
_atom_site_label
_atom_site_fract_x
_atom_site_fract_y
_atom_site_fract_z
Si Si1 0.176359 0.380275 0.913309
Si Si2 0.476969 0.375922 0.087241
Si Si3 0.864717 0.067083 0.338695
Si Si4 0.049200 0.457711 0.582380
Si Si5 0.422709 0.284636 0.513019
Si Si6 0.741620 0.214197 0.179235
O O1 0.268773 0.404828 0.781390
O O2 0.160160 0.331799 0.853603
O O3 0.031808 0.411448 0.954428
O O4 0.293955 0.374775 0.049866
O O5 0.500000 0.393451 0.250000
O O6 0.551284 0.403218 0.956449
O O7 0.560947 0.330022 0.070051
O O8 0.734554 0.042161 0.425603
O O9 0.000000 0.042708 0.250000
O O10 0.000000 0.464523 0.750000
O O11 0.000000 0.500000 0.500000
O O12 0.593568 0.280569 0.589748
O O13 0.297726 0.283874 0.649337
O O14 0.371281 0.249806 0.391712
#
# Coordination Sequence:
#
# PCOD9455059 Si02
#       6
#     8   8   8   8   8   8
#     4   9  19  39  60  81 118 165 197 244 310 376
#     4  10  20  35  58  86 117 158 209 254 301 356
#     4   9  18  39  63  86 113 158 200 240 308 377
#     4  10  22  40  64  92 121 152 200 251 314 378
#     4  10  22  36  57  84 123 158 206 257 293 358
#     4  10  21  38  56  86 120 161 206 249 302 356
#
# _framework density 19.808826
#
# number of rings (size 3 to 8) (size 9 to 14) (size 15 to 20)
#    0.000    2.333    1.667    0.000    4.667    2.667 
#    3.000    8.333    3.667    0.000    0.000    0.000 
#    0.000    0.000    0.000    0.000    0.000    0.000 
#
# Total GULP energy -267296.036225 kJ/mol
# GULP energy per Si atom -5568.667421 kJ/mol
# Density = 1.976374 g / cm^3
# Si number density = 19.808826 Si / 1000 Ang^3
#
#
#
# Elastic Constant Matrix: (Units=GPa)
#
#
# Indices 1 2 3 4 5 6 
#
# 1 102.3101 60.0228 17.8264 0.0000 0.0000 0.0000
# 2 60.0228 93.7099 14.3724 0.0000 0.0000 0.0000
# 3 17.8264 14.3724 37.2059 0.0000 0.0000 0.0000
# 4 0.0000 0.0000 0.0000 9.6250 0.0000 0.0000
# 5 0.0000 0.0000 0.0000 0.0000 25.2787 0.0000
# 6 0.0000 0.0000 0.0000 0.0000 0.0000 11.7375
#
#
#
# Elastic Compliance Matrix: (Units=1/GPa)
#
#
# Indices 1 2 3 4 5 6 
#
# 1 0.016197 -0.009762 -0.003989 0.000000 0.000000 0.000000
# 2 -0.009762 0.017227 -0.001977 0.000000 0.000000 0.000000
# 3 -0.003989 -0.001977 0.029553 0.000000 0.000000 0.000000
# 4 0.000000 0.000000 0.000000 0.103896 0.000000 0.000000
# 5 0.000000 0.000000 0.000000 0.000000 0.039559 0.000000
# 6 0.000000 0.000000 0.000000 0.000000 0.000000 0.085197
#
#
# Mechanical properties :
#
#
# Convention : Reuss Voigt Hill
#
# Bulk Modulus (GPa) = 31.72707 46.40769 39.06738
# Shear Modulus (GPa) = 14.98833 18.72853 16.85843
#
# Velocity S-wave (km/s) = 2.75371 3.07818 2.92045
# Velocity P-wave (km/s) = 5.11488 6.00934 5.58006
#
# Compressibility (1/GPa) = 0.03151883
#
# Stress axis : x y z
#
# Youngs Moduli (GPa) = 61.74129 58.04675 33.83799
#
# Poissons Ratio (x) = 0.56668 0.13498
# Poissons Ratio (y) = 0.60274 0.06691
# Poissons Ratio (z) = 0.24629 0.11478
#
# Static dielectric constant tensor:
#      x y z
#    x 1.836720 0.000000 0.000000 
#    y 0.000000 1.743050 0.000000 
#    z 0.000000 0.000000 1.682370 
# 
# From -- ./inp_files/4187.got.cif
#   From: 2010.05.17/outbox.cif.g08.bks.cpg/sg60_3_cif.got.tgz:4187.got - 2010.06.03 14:59:27.
