data_PCOD9455851
_publ_section_title
;
Structure prediction by ZEFSAII (Michael W. Deem and Ramdas Pophale) SiO2 
 PCOD9455851
Probable space group: P B C N
;
_chemical_formula_sum "Si O2"
_cell_formula_units_Z 36
_cell_length_a 6.908413
_cell_length_b 9.221119
_cell_length_c 23.927522
_cell_angle_alpha 90.000000
_cell_angle_beta 90.000000
_cell_angle_gamma 90.000000
_cell_volume 1524.262073
_symmetry_space_group_name_H-M "P B C N"
_symmetry_group_IT_number 60
_symmetry_cell_setting 'orthorhombic'
loop_
_space_group_symop_operation_xyz
x,y,z
1/2-x,1/2-y,1/2+z
1/2+x,1/2-y,-z
-x,y,1/2-z
-x,-y,-z
1/2+x,1/2+y,1/2-z
1/2-x,1/2+y,z
x,-y,1/2+z
loop_
_atom_site_type_symbol
_atom_site_label
_atom_site_fract_x
_atom_site_fract_y
_atom_site_fract_z
Si Si1 0.994769 0.685519 0.140511
Si Si2 0.500561 0.800703 0.441609
Si Si3 0.251024 0.434927 0.962445
Si Si4 0.772754 0.576774 0.845042
Si Si5 0.000000 0.525104 0.250000
O O1 0.068539 0.849164 0.143866
O O2 0.189896 0.586802 0.134351
O O3 0.918838 0.625587 0.199904
O O4 0.860565 0.641936 0.089680
O O5 0.664771 0.872381 0.480164
O O6 0.462624 0.633548 0.456137
O O7 0.561695 0.835449 0.378709
O O8 0.311560 0.898796 0.456647
O O9 0.835234 0.569389 0.780245
#
# Coordination Sequence:
#
# PCOD9455851 Si02
#       5
#     8   8   8   8   4
#     4   9  19  37  56  78 109 140 179 222 265 312
#     4  10  21  36  55  82 111 139 177 223 268 322
#     4  10  21  36  55  82 111 139 177 223 268 322
#     4   9  19  37  56  78 109 140 179 222 265 312
#     4   8  20  36  52  82 108 140 176 232 254 312
#
# _framework density 23.617985999999998
#
# number of rings (size 3 to 8) (size 9 to 14) (size 15 to 20)
#    1.333    1.333    0.000    1.333    0.000    4.444 
#    0.000    1.111    0.000    0.000    0.000    0.000 
#    0.000    0.000    0.000    0.000    0.000    0.000 
#
# Total GULP energy -200598.087678 kJ/mol
# GULP energy per Si atom -5572.169102 kJ/mol
# Density = 2.356423 g / cm^3
# Si number density = 23.617986 Si / 1000 Ang^3
#
#
#
# Elastic Constant Matrix: (Units=GPa)
#
#
# Indices 1 2 3 4 5 6 
#
# 1 22.3848 6.0007 15.8915 0.0000 0.0000 0.0000
# 2 6.0007 63.9452 1.5802 0.0000 0.0000 0.0000
# 3 15.8915 1.5802 76.7332 0.0000 0.0000 0.0000
# 4 0.0000 0.0000 0.0000 18.3319 0.0000 0.0000
# 5 0.0000 0.0000 0.0000 0.0000 16.7942 0.0000
# 6 0.0000 0.0000 0.0000 0.0000 0.0000 46.3730
#
#
#
# Elastic Compliance Matrix: (Units=1/GPa)
#
#
# Indices 1 2 3 4 5 6 
#
# 1 0.053792 -0.004775 -0.011042 0.000000 0.000000 0.000000
# 2 -0.004775 0.016070 0.000658 0.000000 0.000000 0.000000
# 3 -0.011042 0.000658 0.015305 0.000000 0.000000 0.000000
# 4 0.000000 0.000000 0.000000 0.054550 0.000000 0.000000
# 5 0.000000 0.000000 0.000000 0.000000 0.059544 0.000000
# 6 0.000000 0.000000 0.000000 0.000000 0.000000 0.021564
#
#
# Mechanical properties :
#
#
# Convention : Reuss Voigt Hill
#
# Bulk Modulus (GPa) = 18.23167 23.33423 20.78295
# Shear Modulus (GPa) = 18.55785 25.60587 22.08186
#
# Velocity S-wave (km/s) = 2.80617 3.29624 3.06103
# Velocity P-wave (km/s) = 4.27031 4.93845 4.61648
#
# Compressibility (1/GPa) = 0.05484960
#
# Stress axis : x y z
#
# Youngs Moduli (GPa) = 18.59002 62.22689 65.33628
#
# Poissons Ratio (x) = 0.29714 0.72145
# Poissons Ratio (y) = 0.08877 -0.04299
# Poissons Ratio (z) = 0.20527 -0.04094
#
# Static dielectric constant tensor:
#      x y z
#    x 1.954830 0.000000 0.000000 
#    y 0.000000 1.894630 0.000000 
#    z 0.000000 0.000000 1.881520 
# 
# From -- ./inp_files/25592.got.cif
#   From: 2010.05.17/outbox.cif.g08.bks.cpg/sg60_13_cif.got.tgz:25592.got - 2010.06.03 14:59:27.
