data_PCOD9455017
_publ_section_title
;
Structure prediction by ZEFSAII (Michael W. Deem and Ramdas Pophale) SiO2 
 PCOD9455017
Probable space group: P B C N
;
_chemical_formula_sum "Si O2"
_cell_formula_units_Z 40
_cell_length_a 23.890688
_cell_length_b 7.821003
_cell_length_c 8.580980
_cell_angle_alpha 90.000000
_cell_angle_beta 90.000000
_cell_angle_gamma 90.000000
_cell_volume 1603.348755
_symmetry_space_group_name_H-M "P B C N"
_symmetry_group_IT_number 60
_symmetry_cell_setting 'orthorhombic'
loop_
_space_group_symop_operation_xyz
x,y,z
1/2-x,1/2-y,1/2+z
1/2+x,1/2-y,-z
-x,y,1/2-z
-x,-y,-z
1/2+x,1/2+y,1/2-z
1/2-x,1/2+y,z
x,-y,1/2+z
loop_
_atom_site_type_symbol
_atom_site_label
_atom_site_fract_x
_atom_site_fract_y
_atom_site_fract_z
Si Si1 0.000000 0.031378 0.750000
Si Si2 0.304336 0.750823 0.001414
Si Si3 0.000000 0.478847 0.750000
Si Si4 0.921052 0.920588 0.496157
Si Si5 0.077806 0.330456 0.019002
Si Si6 0.807210 0.893341 0.644106
O O1 0.049496 0.134074 0.662790
O O2 0.968383 0.913759 0.626658
O O3 0.357255 0.879220 0.992185
O O4 0.303310 0.672603 0.178001
O O5 0.246323 0.838678 0.955873
O O6 0.310515 0.599014 0.873154
O O7 0.049204 0.588121 0.668640
O O8 0.965498 0.381962 0.614940
O O9 0.864773 0.837571 0.557957
O O10 0.914634 0.125004 0.469940
#
# Coordination Sequence:
#
# PCOD9455017 Si02
#       6
#     4   8   4   8   8   8
#     4  10  20  34  60  92 124 158 206 258 332 398
#     4  11  25  46  70 100 134 179 230 286 344 407
#     4  10  22  42  64  94 132 178 222 268 328 406
#     4  10  20  38  62  94 127 167 212 272 331 394
#     4  10  22  40  64  92 129 170 221 272 330 396
#     4  11  24  44  70  98 136 177 229 284 343 407
#
# _framework density 24.947786000000001
#
# number of rings (size 3 to 8) (size 9 to 14) (size 15 to 20)
#    0.000    1.600    0.000    4.800    0.000    6.400 
#    0.000   14.000    0.000    0.000    0.000    0.000 
#    0.000    0.000    0.000    0.000    0.000    0.000 
#
# Total GULP energy -223704.601706 kJ/mol
# GULP energy per Si atom -5592.615043 kJ/mol
# Density = 2.489100 g / cm^3
# Si number density = 24.947786 Si / 1000 Ang^3
#
#
#
# Elastic Constant Matrix: (Units=GPa)
#
#
# Indices 1 2 3 4 5 6 
#
# 1 206.2383 18.8022 29.0307 0.0000 0.0000 0.0000
# 2 18.8022 46.7458 16.6441 0.0000 0.0000 0.0000
# 3 29.0307 16.6441 98.0718 0.0000 0.0000 0.0000
# 4 0.0000 0.0000 0.0000 23.4626 0.0000 0.0000
# 5 0.0000 0.0000 0.0000 0.0000 42.4176 0.0000
# 6 0.0000 0.0000 0.0000 0.0000 0.0000 41.4408
#
#
#
# Elastic Compliance Matrix: (Units=1/GPa)
#
#
# Indices 1 2 3 4 5 6 
#
# 1 0.005174 -0.001635 -0.001254 0.000000 0.000000 0.000000
# 2 -0.001635 0.023285 -0.003468 0.000000 0.000000 0.000000
# 3 -0.001254 -0.003468 0.011156 0.000000 0.000000 0.000000
# 4 0.000000 0.000000 0.000000 0.042621 0.000000 0.000000
# 5 0.000000 0.000000 0.000000 0.000000 0.023575 0.000000
# 6 0.000000 0.000000 0.000000 0.000000 0.000000 0.024131
#
#
# Mechanical properties :
#
#
# Convention : Reuss Voigt Hill
#
# Bulk Modulus (GPa) = 37.17221 53.33447 45.25334
# Shear Modulus (GPa) = 32.97654 40.56947 36.77300
#
# Velocity S-wave (km/s) = 3.63963 4.03696 3.84343
# Velocity P-wave (km/s) = 5.70920 6.56919 6.15423
#
# Compressibility (1/GPa) = 0.02690182
#
# Stress axis : x y z
#
# Youngs Moduli (GPa) = 193.26136 42.94701 89.63446
#
# Poissons Ratio (x) = 0.07020 0.11242
# Poissons Ratio (y) = 0.31591 0.31084
# Poissons Ratio (z) = 0.24240 0.14893
#
# Static dielectric constant tensor:
#      x y z
#    x 2.049990 0.000000 0.000000 
#    y 0.000000 2.118150 0.000000 
#    z 0.000000 0.000000 1.970530 
# 
# From -- ./inp_files/7781.got.cif
#   From: 2010.05.17/outbox.cif.g08.bks.cpg/sg60_4_cif.got.tgz:7781.got - 2010.06.03 14:59:27.
