data_PCOD9455575
_publ_section_title
;
Structure prediction by ZEFSAII (Michael W. Deem and Ramdas Pophale) SiO2 
 PCOD9455575
Probable space group: P B C N
;
_chemical_formula_sum "Si O2"
_cell_formula_units_Z 36
_cell_length_a 13.368436
_cell_length_b 12.290866
_cell_length_c 9.238430
_cell_angle_alpha 90.000000
_cell_angle_beta 90.000000
_cell_angle_gamma 90.000000
_cell_volume 1517.963251
_symmetry_space_group_name_H-M "P B C N"
_symmetry_group_IT_number 60
_symmetry_cell_setting 'orthorhombic'
loop_
_space_group_symop_operation_xyz
x,y,z
1/2-x,1/2-y,1/2+z
1/2+x,1/2-y,-z
-x,y,1/2-z
-x,-y,-z
1/2+x,1/2+y,1/2-z
1/2-x,1/2+y,z
x,-y,1/2+z
loop_
_atom_site_type_symbol
_atom_site_label
_atom_site_fract_x
_atom_site_fract_y
_atom_site_fract_z
Si Si1 0.196317 0.817153 0.680524
Si Si2 0.000000 0.449804 0.250000
Si Si3 0.372870 0.073675 0.006632
Si Si4 0.072524 0.032674 0.629691
Si Si5 0.238416 0.644435 0.489177
O O1 0.163345 0.710986 0.592359
O O2 0.291064 0.851139 0.581464
O O3 0.122219 0.919768 0.685112
O O4 0.234167 0.796229 0.841143
O O5 0.940000 0.528432 0.361288
O O6 0.066359 0.384084 0.367491
O O7 0.313196 0.968873 0.946228
O O8 0.162392 0.109601 0.577926
O O9 0.000000 0.082891 0.750000
O O10 0.000000 0.000000 0.500000
#
# Coordination Sequence:
#
# PCOD9455575 Si02
#       5
#     8   4   8   8   8
#     4  11  25  43  67  99 134 176 220 272 349 401
#     4  10  20  40  64  90 120 168 214 260 316 380
#     4  10  22  43  64  90 133 171 212 267 329 392
#     4  11  24  48  70  97 135 182 232 284 331 410
#     4  11  25  43  67  97 135 175 221 272 350 397
#
# _framework density 23.715986999999998
#
# number of rings (size 3 to 8) (size 9 to 14) (size 15 to 20)
#    0.000    1.333    4.444    0.000    6.222    0.000 
#   12.000    0.000    0.000    0.000    0.000    0.000 
#    0.000    0.000    0.000    0.000    0.000    0.000 
#
# Total GULP energy -201299.341542 kJ/mol
# GULP energy per Si atom -5591.648376 kJ/mol
# Density = 2.366201 g / cm^3
# Si number density = 23.715987 Si / 1000 Ang^3
#
#
#
# Elastic Constant Matrix: (Units=GPa)
#
#
# Indices 1 2 3 4 5 6 
#
# 1 82.9183 -0.3551 36.1427 0.0000 0.0000 0.0000
# 2 -0.3551 52.0242 12.3841 0.0000 0.0000 0.0000
# 3 36.1427 12.3841 164.5346 0.0000 0.0000 0.0000
# 4 0.0000 0.0000 0.0000 31.8521 0.0000 0.0000
# 5 0.0000 0.0000 0.0000 0.0000 53.2277 0.0000
# 6 0.0000 0.0000 0.0000 0.0000 0.0000 1.6731
#
#
#
# Elastic Compliance Matrix: (Units=1/GPa)
#
#
# Indices 1 2 3 4 5 6 
#
# 1 0.013370 0.000805 -0.002998 0.000000 0.000000 0.000000
# 2 0.000805 0.019621 -0.001654 0.000000 0.000000 0.000000
# 3 -0.002998 -0.001654 0.006861 0.000000 0.000000 0.000000
# 4 0.000000 0.000000 0.000000 0.031395 0.000000 0.000000
# 5 0.000000 0.000000 0.000000 0.000000 0.018787 0.000000
# 6 0.000000 0.000000 0.000000 0.000000 0.000000 0.597704
#
#
# Mechanical properties :
#
#
# Convention : Reuss Voigt Hill
#
# Bulk Modulus (GPa) = 31.09547 43.98007 37.53777
# Shear Modulus (GPa) = 7.08065 34.10426 20.59246
#
# Velocity S-wave (km/s) = 1.72976 3.79625 2.94988
# Velocity P-wave (km/s) = 4.13878 6.14818 5.24069
#
# Compressibility (1/GPa) = 0.03215902
#
# Stress axis : x y z
#
# Youngs Moduli (GPa) = 74.79387 50.96593 145.75843
#
# Poissons Ratio (x) = -0.04102 0.43692
# Poissons Ratio (y) = -0.06019 0.24103
# Poissons Ratio (z) = 0.22420 0.08428
#
# Static dielectric constant tensor:
#      x y z
#    x 1.882930 0.000000 0.000000 
#    y 0.000000 1.920750 0.000000 
#    z 0.000000 0.000000 1.820240 
# 
# From -- ./inp_files/5592.got.cif
#   From: 2010.05.17/outbox.cif.g08.bks.cpg/sg60_3_cif.got.tgz:5592.got - 2010.06.03 14:59:27.
