data_PCOD9455346
_publ_section_title
;
Structure prediction by ZEFSAII (Michael W. Deem and Ramdas Pophale) SiO2 
 PCOD9455346
Probable space group: P B C N
;
_chemical_formula_sum "Si O2"
_cell_formula_units_Z 44
_cell_length_a 26.836904
_cell_length_b 8.841820
_cell_length_c 7.981613
_cell_angle_alpha 90.000000
_cell_angle_beta 90.000000
_cell_angle_gamma 90.000000
_cell_volume 1893.933599
_symmetry_space_group_name_H-M "P B C N"
_symmetry_group_IT_number 60
_symmetry_cell_setting 'orthorhombic'
loop_
_space_group_symop_operation_xyz
x,y,z
1/2-x,1/2-y,1/2+z
1/2+x,1/2-y,-z
-x,y,1/2-z
-x,-y,-z
1/2+x,1/2+y,1/2-z
1/2-x,1/2+y,z
x,-y,1/2+z
loop_
_atom_site_type_symbol
_atom_site_label
_atom_site_fract_x
_atom_site_fract_y
_atom_site_fract_z
Si Si1 0.190377 0.837757 0.038373
Si Si2 0.106970 0.047704 0.730091
Si Si3 0.131696 0.761758 0.563211
Si Si4 0.523749 0.155515 0.933082
Si Si5 0.773089 0.164364 0.585398
Si Si6 0.500000 0.372164 0.250000
O O1 0.132187 0.853012 0.082736
O O2 0.213047 0.817201 0.223215
O O3 0.215442 0.703100 0.937839
O O4 0.212236 0.995350 0.969011
O O5 0.048528 0.030916 0.709635
O O6 0.131722 0.883166 0.714317
O O7 0.116609 0.136900 0.900498
O O8 0.084619 0.651078 0.584323
O O9 0.188937 0.724941 0.519071
O O10 0.500000 0.188417 0.750000
O O11 0.510710 0.272556 0.083570
O O12 0.500000 0.000000 0.000000
#
# Coordination Sequence:
#
# PCOD9455346 Si02
#       6
#     8   8   8   8   8   4
#     4  10  20  38  60  87 122 157 200 249 305 360
#     4   9  20  36  60  87 120 147 196 249 302 353
#     4   9  21  37  59  88 117 152 196 248 303 358
#     4  11  23  41  59  83 122 160 200 243 303 360
#     4  10  20  39  59  88 121 158 200 251 302 366
#     4  10  22  40  60  90 120 152 202 256 296 362
#
# _framework density 23.232071000000001
#
# number of rings (size 3 to 8) (size 9 to 14) (size 15 to 20)
#    0.000    2.182    0.909    1.091    3.818    2.909 
#    3.273    0.000    0.000    0.000    0.000    0.000 
#    0.000    0.000    0.000    0.000    0.000    0.000 
#
# Total GULP energy -245478.753502 kJ/mol
# GULP energy per Si atom -5579.062580 kJ/mol
# Density = 2.317919 g / cm^3
# Si number density = 23.232071 Si / 1000 Ang^3
#
#
#
# Elastic Constant Matrix: (Units=GPa)
#
#
# Indices 1 2 3 4 5 6 
#
# 1 102.1453 7.6750 -15.2466 0.0000 0.0000 0.0000
# 2 7.6750 32.6258 -9.5110 0.0000 0.0000 0.0000
# 3 -15.2466 -9.5110 96.4494 0.0000 0.0000 0.0000
# 4 0.0000 0.0000 0.0000 20.3824 0.0000 0.0000
# 5 0.0000 0.0000 0.0000 0.0000 25.6511 0.0000
# 6 0.0000 0.0000 0.0000 0.0000 0.0000 39.3600
#
#
#
# Elastic Compliance Matrix: (Units=1/GPa)
#
#
# Indices 1 2 3 4 5 6 
#
# 1 0.010149 -0.001977 0.001409 0.000000 0.000000 0.000000
# 2 -0.001977 0.031943 0.002837 0.000000 0.000000 0.000000
# 3 0.001409 0.002837 0.010871 0.000000 0.000000 0.000000
# 4 0.000000 0.000000 0.000000 0.049062 0.000000 0.000000
# 5 0.000000 0.000000 0.000000 0.000000 0.038985 0.000000
# 6 0.000000 0.000000 0.000000 0.000000 0.000000 0.025407
#
#
# Mechanical properties :
#
#
# Convention : Reuss Voigt Hill
#
# Bulk Modulus (GPa) = 17.39045 21.89505 19.64275
# Shear Modulus (GPa) = 27.61781 33.63223 30.62502
#
# Velocity S-wave (km/s) = 3.45161 3.80895 3.63467
# Velocity P-wave (km/s) = 4.83597 5.36554 5.10762
#
# Compressibility (1/GPa) = 0.05750284
#
# Stress axis : x y z
#
# Youngs Moduli (GPa) = 98.53322 31.30604 91.99016
#
# Poissons Ratio (x) = 0.06188 -0.12965
# Poissons Ratio (y) = 0.19476 -0.26102
# Poissons Ratio (z) = -0.13887 -0.08883
#
# Static dielectric constant tensor:
#      x y z
#    x 1.962100 0.000000 0.000000 
#    y 0.000000 1.959800 0.000000 
#    z 0.000000 0.000000 1.944190 
# 
# From -- ./inp_files/8346.got.cif
#   From: 2010.05.17/outbox.cif.g08.bks.cpg/sg60_5_cif.got.tgz:8346.got - 2010.06.03 14:59:27.
