data_PCOD9455868
_publ_section_title
;
Structure prediction by ZEFSAII (Michael W. Deem and Ramdas Pophale) SiO2 
 PCOD9455868
Probable space group: P B C N
;
_chemical_formula_sum "Si O2"
_cell_formula_units_Z 64
_cell_length_a 30.125200
_cell_length_b 11.991432
_cell_length_c 9.281711
_cell_angle_alpha 90.000000
_cell_angle_beta 90.000000
_cell_angle_gamma 90.000000
_cell_volume 3352.965075
_symmetry_space_group_name_H-M "P B C N"
_symmetry_group_IT_number 60
_symmetry_cell_setting 'orthorhombic'
loop_
_space_group_symop_operation_xyz
x,y,z
1/2-x,1/2-y,1/2+z
1/2+x,1/2-y,-z
-x,y,1/2-z
-x,-y,-z
1/2+x,1/2+y,1/2-z
1/2-x,1/2+y,z
x,-y,1/2+z
loop_
_atom_site_type_symbol
_atom_site_label
_atom_site_fract_x
_atom_site_fract_y
_atom_site_fract_z
Si Si1 0.224898 0.261574 0.608171
Si Si2 0.328027 0.227563 0.591673
Si Si3 0.903029 0.100630 0.903289
Si Si4 0.776645 0.945806 0.222752
Si Si5 0.213964 0.507022 0.034395
Si Si6 0.500785 0.381381 0.420979
Si Si7 0.096265 0.137321 0.938732
Si Si8 0.828438 0.155518 0.122152
O O1 0.278082 0.279273 0.601092
O O2 0.212874 0.183344 0.744240
O O3 0.198735 0.377680 0.606562
O O4 0.214587 0.206107 0.454072
O O5 0.363743 0.283172 0.486550
O O6 0.344495 0.263483 0.751052
O O7 0.318243 0.098214 0.553826
O O8 0.899223 0.106920 0.730698
O O9 0.949326 0.160331 0.948810
O O10 0.862946 0.152371 0.991878
O O11 0.902578 0.972867 0.960391
O O12 0.758868 0.979075 0.378992
O O13 0.814961 0.031278 0.176055
O O14 0.733348 0.963596 0.122513
O O15 0.500000 0.402210 0.250000
O O16 0.500000 0.500000 0.500000
O O17 0.454800 0.318964 0.457270
#
# Coordination Sequence:
#
# PCOD9455868 Si02
#       8
#     8   8   8   8   8   8   8   8
#     4  11  24  40  61  79 121 160 212 253 303 354
#     4  11  24  40  58  84 120 159 215 252 307 370
#     4  10  22  34  60  89 124 159 206 252 318 388
#     4  11  23  39  58  81 111 159 207 255 304 361
#     4  11  24  42  59  80 112 162 211 253 305 352
#     4   8  16  35  54  84 120 159 195 244 318 387
#     4  10  21  36  59  86 123 164 205 253 315 386
#     4  12  24  40  55  87 118 162 206 254 306 368
#
# _framework density 19.087584
#
# number of rings (size 3 to 8) (size 9 to 14) (size 15 to 20)
#    0.000    1.500    3.750    2.250    5.250    3.000 
#    0.000    0.000    0.000    0.000    0.000    0.875 
#    0.000    0.000    0.000    0.000    0.000    0.000 
#
# Total GULP energy -356593.672478 kJ/mol
# GULP energy per Si atom -5571.776132 kJ/mol
# Density = 1.904414 g / cm^3
# Si number density = 19.087584 Si / 1000 Ang^3
#
#
#
# Elastic Constant Matrix: (Units=GPa)
#
#
# Indices 1 2 3 4 5 6 
#
# 1 105.3348 39.0667 34.9436 0.0000 0.0000 0.0000
# 2 39.0667 124.0579 43.1285 0.0000 0.0000 0.0000
# 3 34.9436 43.1285 90.4507 0.0000 0.0000 0.0000
# 4 0.0000 0.0000 0.0000 25.6506 0.0000 0.0000
# 5 0.0000 0.0000 0.0000 0.0000 28.7382 0.0000
# 6 0.0000 0.0000 0.0000 0.0000 0.0000 16.7985
#
#
#
# Elastic Compliance Matrix: (Units=1/GPa)
#
#
# Indices 1 2 3 4 5 6 
#
# 1 0.011496 -0.002489 -0.003255 0.000000 0.000000 0.000000
# 2 -0.002489 0.010201 -0.003903 0.000000 0.000000 0.000000
# 3 -0.003255 -0.003903 0.014174 0.000000 0.000000 0.000000
# 4 0.000000 0.000000 0.000000 0.038985 0.000000 0.000000
# 5 0.000000 0.000000 0.000000 0.000000 0.034797 0.000000
# 6 0.000000 0.000000 0.000000 0.000000 0.000000 0.059529
#
#
# Mechanical properties :
#
#
# Convention : Reuss Voigt Hill
#
# Bulk Modulus (GPa) = 60.31605 61.56901 60.94253
# Shear Modulus (GPa) = 25.77299 27.75109 26.76204
#
# Velocity S-wave (km/s) = 3.67856 3.81712 3.74848
# Velocity P-wave (km/s) = 7.05058 7.19397 7.12264
#
# Compressibility (1/GPa) = 0.01657933
#
# Stress axis : x y z
#
# Youngs Moduli (GPa) = 86.98471 98.02729 70.55194
#
# Poissons Ratio (x) = 0.24397 0.22962
# Poissons Ratio (y) = 0.21649 0.27534
# Poissons Ratio (z) = 0.28310 0.38257
#
# Static dielectric constant tensor:
#      x y z
#    x 1.741760 0.000000 0.000000 
#    y 0.000000 1.781300 0.000000 
#    z 0.000000 0.000000 1.726410 
# 
# From -- ./inp_files/8484.got.cif
#   From: 2010.05.17/outbox.cif.g08.bks.cpg/sg60_5_cif.got.tgz:8484.got - 2010.06.03 14:59:27.
