data_PCOD9455769
_publ_section_title
;
Structure prediction by ZEFSAII (Michael W. Deem and Ramdas Pophale) SiO2 
 PCOD9455769
Probable space group: P B C N
;
_chemical_formula_sum "Si O2"
_cell_formula_units_Z 60
_cell_length_a 11.484383
_cell_length_b 10.127110
_cell_length_c 22.732954
_cell_angle_alpha 90.000000
_cell_angle_beta 90.000000
_cell_angle_gamma 90.000000
_cell_volume 2643.924614
_symmetry_space_group_name_H-M "P B C N"
_symmetry_group_IT_number 60
_symmetry_cell_setting 'orthorhombic'
loop_
_space_group_symop_operation_xyz
x,y,z
1/2-x,1/2-y,1/2+z
1/2+x,1/2-y,-z
-x,y,1/2-z
-x,-y,-z
1/2+x,1/2+y,1/2-z
1/2-x,1/2+y,z
x,-y,1/2+z
loop_
_atom_site_type_symbol
_atom_site_label
_atom_site_fract_x
_atom_site_fract_y
_atom_site_fract_z
Si Si1 0.673701 0.820331 0.034787
Si Si2 0.229469 0.468598 0.582713
Si Si3 0.053238 0.114172 0.539283
Si Si4 0.360334 0.409899 0.258453
Si Si5 0.971124 0.519383 0.626424
Si Si6 0.731002 0.850246 0.791859
Si Si7 0.000000 0.493804 0.250000
Si Si8 0.365539 0.264941 0.377989
O O1 0.616053 0.921687 0.079365
O O2 0.764152 0.739728 0.074670
O O3 0.575026 0.732072 0.005745
O O4 0.731188 0.889579 0.978603
O O5 0.326164 0.578841 0.571410
O O6 0.257925 0.381397 0.640089
O O7 0.098855 0.517812 0.597032
O O8 0.962733 0.152784 0.588477
O O9 0.000000 0.000000 0.500000
O O10 0.500000 0.396388 0.250000
O O11 0.321818 0.560289 0.245494
O O12 0.288200 0.305865 0.217742
O O13 0.329007 0.353363 0.322768
O O14 0.925389 0.371711 0.639902
O O15 0.970863 0.586983 0.690743
O O16 0.608507 0.917114 0.771638
#
# Coordination Sequence:
#
# PCOD9455769 Si02
#       8
#     8   8   8   8   8   8   4   8
#     4  12  26  42  71 100 141 184 231 286 355 429
#     4  11  24  42  70  99 138 180 240 278 359 414
#     4  12  27  45  66 105 142 183 231 298 351 422
#     4  12  25  48  75 106 143 192 243 300 371 430
#     4  11  23  45  72 101 131 187 232 286 351 426
#     4  11  24  44  75 103 142 188 239 304 361 435
#     4  10  20  46  70 102 136 178 234 296 358 420
#     4  12  25  43  74  95 145 181 233 288 359 421
#
# _framework density 22.693536999999999
#
# number of rings (size 3 to 8) (size 9 to 14) (size 15 to 20)
#    0.000    0.533    4.667    3.600    3.733    0.000 
#    3.600    0.000    0.000    0.000    0.000    0.000 
#    0.000    0.000    0.000    0.000    0.000    0.000 
#
# Total GULP energy -335619.971348 kJ/mol
# GULP energy per Si atom -5593.666189 kJ/mol
# Density = 2.264189 g / cm^3
# Si number density = 22.693537 Si / 1000 Ang^3
#
#
#
# Elastic Constant Matrix: (Units=GPa)
#
#
# Indices 1 2 3 4 5 6 
#
# 1 46.5766 3.1306 14.7739 0.0000 0.0000 0.0000
# 2 3.1306 51.1613 11.2474 0.0000 0.0000 0.0000
# 3 14.7739 11.2474 151.7843 0.0000 0.0000 0.0000
# 4 0.0000 0.0000 0.0000 17.6778 0.0000 0.0000
# 5 0.0000 0.0000 0.0000 0.0000 26.4665 0.0000
# 6 0.0000 0.0000 0.0000 0.0000 0.0000 13.1586
#
#
#
# Elastic Compliance Matrix: (Units=1/GPa)
#
#
# Indices 1 2 3 4 5 6 
#
# 1 0.022194 -0.000898 -0.002094 0.000000 0.000000 0.000000
# 2 -0.000898 0.019906 -0.001388 0.000000 0.000000 0.000000
# 3 -0.002094 -0.001388 0.006895 0.000000 0.000000 0.000000
# 4 0.000000 0.000000 0.000000 0.056568 0.000000 0.000000
# 5 0.000000 0.000000 0.000000 0.000000 0.037784 0.000000
# 6 0.000000 0.000000 0.000000 0.000000 0.000000 0.075996
#
#
# Mechanical properties :
#
#
# Convention : Reuss Voigt Hill
#
# Bulk Modulus (GPa) = 24.85275 34.20287 29.52781
# Shear Modulus (GPa) = 20.70277 26.15194 23.42735
#
# Velocity S-wave (km/s) = 3.02367 3.39838 3.21648
# Velocity P-wave (km/s) = 4.81304 5.52295 5.18017
#
# Compressibility (1/GPa) = 0.04023700
#
# Stress axis : x y z
#
# Youngs Moduli (GPa) = 45.05625 50.23599 145.03426
#
# Poissons Ratio (x) = 0.04510 0.30367
# Poissons Ratio (y) = 0.04045 0.20126
# Poissons Ratio (z) = 0.09434 0.06971
#
# Static dielectric constant tensor:
#      x y z
#    x 1.817970 0.000000 0.000000 
#    y 0.000000 1.928830 0.000000 
#    z 0.000000 0.000000 1.857560 
# 
# From -- ./inp_files/22692.got.cif
#   From: 2010.05.17/outbox.cif.g08.bks.cpg/sg60_12_cif.got.tgz:22692.got - 2010.06.03 14:59:27.
