data_PCOD9455610
_publ_section_title
;
Structure prediction by ZEFSAII (Michael W. Deem and Ramdas Pophale) SiO2 
 PCOD9455610
Probable space group: P B C N
;
_chemical_formula_sum "Si O2"
_cell_formula_units_Z 60
_cell_length_a 11.383526
_cell_length_b 10.981008
_cell_length_c 20.138803
_cell_angle_alpha 90.000000
_cell_angle_beta 90.000000
_cell_angle_gamma 90.000000
_cell_volume 2517.402536
_symmetry_space_group_name_H-M "P B C N"
_symmetry_group_IT_number 60
_symmetry_cell_setting 'orthorhombic'
loop_
_space_group_symop_operation_xyz
x,y,z
1/2-x,1/2-y,1/2+z
1/2+x,1/2-y,-z
-x,y,1/2-z
-x,-y,-z
1/2+x,1/2+y,1/2-z
1/2-x,1/2+y,z
x,-y,1/2+z
loop_
_atom_site_type_symbol
_atom_site_label
_atom_site_fract_x
_atom_site_fract_y
_atom_site_fract_z
Si Si1 0.858785 0.776236 0.859708
Si Si2 0.551105 0.878711 0.148470
Si Si3 0.462588 0.358627 0.499247
Si Si4 0.000000 0.922216 0.750000
Si Si5 0.617379 0.834937 0.921516
Si Si6 0.174409 0.878565 0.848162
Si Si7 0.570963 0.877952 0.690802
Si Si8 0.267746 0.047227 0.959769
O O1 0.902117 0.853197 0.796201
O O2 0.721954 0.783037 0.875805
O O3 0.911946 0.641042 0.852818
O O4 0.924008 0.824568 0.926486
O O5 0.600689 0.744278 0.157866
O O6 0.619139 0.920253 0.083140
O O7 0.588232 0.977042 0.202130
O O8 0.500000 0.500000 0.500000
O O9 0.560404 0.269166 0.469129
O O10 0.339155 0.355548 0.458816
O O11 0.908964 0.973577 0.693283
O O12 0.510653 0.872527 0.874134
O O13 0.678872 0.941658 0.965942
O O14 0.298032 0.836777 0.818226
O O15 0.210001 0.932047 0.920762
O O16 0.500000 0.818625 0.750000
#
# Coordination Sequence:
#
# PCOD9455610 Si02
#       8
#     8   8   8   4   8   8   8   8
#     4  10  22  39  67  97 140 179 231 293 355 436
#     4  10  21  41  65  97 128 190 229 287 360 442
#     4  11  22  41  69  97 138 182 236 301 369 434
#     4  10  20  40  68  96 132 198 234 280 356 440
#     4  11  24  43  67 107 143 185 240 309 373 437
#     4  10  22  41  71  93 142 180 241 294 361 435
#     4  11  25  44  69 103 144 187 247 300 366 444
#     4  10  22  40  68 101 133 187 233 299 365 433
#
# _framework density 23.83409
#
# number of rings (size 3 to 8) (size 9 to 14) (size 15 to 20)
#    0.000    1.600    1.333    3.200    3.733    4.267 
#    4.800    1.333   17.600    0.000    0.000    0.000 
#    0.000    0.000    0.000    0.000    0.000    0.000 
#
# Total GULP energy -334174.755900 kJ/mol
# GULP energy per Si atom -5569.579265 kJ/mol
# Density = 2.377984 g / cm^3
# Si number density = 23.834090 Si / 1000 Ang^3
#
#
#
# Elastic Constant Matrix: (Units=GPa)
#
#
# Indices 1 2 3 4 5 6 
#
# 1 169.6240 7.8608 48.7453 0.0000 0.0000 0.0000
# 2 7.8608 34.6010 13.0113 0.0000 0.0000 0.0000
# 3 48.7453 13.0113 99.2796 0.0000 0.0000 0.0000
# 4 0.0000 0.0000 0.0000 11.4859 0.0000 0.0000
# 5 0.0000 0.0000 0.0000 0.0000 54.2377 0.0000
# 6 0.0000 0.0000 0.0000 0.0000 0.0000 19.0090
#
#
#
# Elastic Compliance Matrix: (Units=1/GPa)
#
#
# Indices 1 2 3 4 5 6 
#
# 1 0.006867 -0.000307 -0.003331 0.000000 0.000000 0.000000
# 2 -0.000307 0.030413 -0.003835 0.000000 0.000000 0.000000
# 3 -0.003331 -0.003835 0.012211 0.000000 0.000000 0.000000
# 4 0.000000 0.000000 0.000000 0.087064 0.000000 0.000000
# 5 0.000000 0.000000 0.000000 0.000000 0.018437 0.000000
# 6 0.000000 0.000000 0.000000 0.000000 0.000000 0.052607
#
#
# Mechanical properties :
#
#
# Convention : Reuss Voigt Hill
#
# Bulk Modulus (GPa) = 28.94908 49.19327 39.07117
# Shear Modulus (GPa) = 21.36205 32.53899 26.95052
#
# Velocity S-wave (km/s) = 2.99704 3.69891 3.36632
# Velocity P-wave (km/s) = 4.91414 6.23917 5.61587
#
# Compressibility (1/GPa) = 0.03454341
#
# Stress axis : x y z
#
# Youngs Moduli (GPa) = 145.62462 32.88087 81.89474
#
# Poissons Ratio (x) = 0.01011 0.27282
# Poissons Ratio (y) = 0.04476 0.31406
# Poissons Ratio (z) = 0.48512 0.12609
#
# Static dielectric constant tensor:
#      x y z
#    x 2.068120 0.000000 0.000000 
#    y 0.000000 2.022160 0.000000 
#    z 0.000000 0.000000 2.053120 
# 
# From -- ./inp_files/22679.got.cif
#   From: 2010.05.17/outbox.cif.g08.bks.cpg/sg60_12_cif.got.tgz:22679.got - 2010.06.03 14:59:27.
