data_PCOD9455977
_publ_section_title
;
Structure prediction by ZEFSAII (Michael W. Deem and Ramdas Pophale) SiO2 
 PCOD9455977
Probable space group: P B C N
;
_chemical_formula_sum "Si O2"
_cell_formula_units_Z 56
_cell_length_a 15.952961
_cell_length_b 8.783909
_cell_length_c 19.831247
_cell_angle_alpha 90.000000
_cell_angle_beta 90.000000
_cell_angle_gamma 90.000000
_cell_volume 2778.939905
_symmetry_space_group_name_H-M "P B C N"
_symmetry_group_IT_number 60
_symmetry_cell_setting 'orthorhombic'
loop_
_space_group_symop_operation_xyz
x,y,z
1/2-x,1/2-y,1/2+z
1/2+x,1/2-y,-z
-x,y,1/2-z
-x,-y,-z
1/2+x,1/2+y,1/2-z
1/2-x,1/2+y,z
x,-y,1/2+z
loop_
_atom_site_type_symbol
_atom_site_label
_atom_site_fract_x
_atom_site_fract_y
_atom_site_fract_z
Si Si1 0.719788 0.508659 0.620730
Si Si2 0.318449 0.782082 0.973282
Si Si3 0.450237 0.360712 0.816269
Si Si4 0.668192 0.870824 0.236057
Si Si5 0.790665 0.350697 0.816497
Si Si6 0.298359 0.594301 0.591355
Si Si7 0.947878 0.883238 0.953983
O O1 0.692681 0.618373 0.560672
O O2 0.788217 0.396355 0.586061
O O3 0.636688 0.440511 0.657303
O O4 0.766410 0.609514 0.675835
O O5 0.254149 0.819325 0.033936
O O6 0.411124 0.765259 0.006670
O O7 0.500000 0.427428 0.750000
O O8 0.417318 0.198365 0.790291
O O9 0.506060 0.347095 0.883471
O O10 0.711552 0.742089 0.284424
O O11 0.661091 0.042536 0.264231
O O12 0.760807 0.479557 0.868169
O O13 0.836543 0.218851 0.857512
O O14 0.369114 0.485639 0.565019
O O15 0.000000 0.000000 0.000000
#
# Coordination Sequence:
#
# PCOD9455977 Si02
#       7
#     8   8   8   8   8   8   8
#     4  12  23  43  73  97 133 186 245 275 337 434
#     4  12  22  42  70 103 128 182 239 286 333 427
#     4  12  26  43  68 103 147 184 225 299 372 415
#     4  11  22  43  69  99 133 185 232 277 343 431
#     4  10  21  37  71  99 122 169 242 280 328 404
#     4  11  21  40  69  98 128 172 237 287 334 418
#     4  12  25  43  67 102 143 184 227 295 367 417
#
# _framework density 20.15157
#
# number of rings (size 3 to 8) (size 9 to 14) (size 15 to 20)
#    0.000    0.571    7.143    0.857    4.000    0.000 
#    0.000    2.143    0.000    0.000    0.000    0.000 
#    0.000    0.000    0.000    0.000    0.000    0.000 
#
# Total GULP energy -311855.199470 kJ/mol
# GULP energy per Si atom -5568.842848 kJ/mol
# Density = 2.010570 g / cm^3
# Si number density = 20.151570 Si / 1000 Ang^3
#
#
#
# Elastic Constant Matrix: (Units=GPa)
#
#
# Indices 1 2 3 4 5 6 
#
# 1 66.4811 2.5092 27.9812 0.0000 0.0000 0.0000
# 2 2.5092 67.0170 21.1626 0.0000 0.0000 0.0000
# 3 27.9812 21.1626 92.6849 0.0000 0.0000 0.0000
# 4 0.0000 0.0000 0.0000 21.2110 0.0000 0.0000
# 5 0.0000 0.0000 0.0000 0.0000 27.6403 0.0000
# 6 0.0000 0.0000 0.0000 0.0000 0.0000 18.2763
#
#
#
# Elastic Compliance Matrix: (Units=1/GPa)
#
#
# Indices 1 2 3 4 5 6 
#
# 1 0.017304 0.001080 -0.005470 0.000000 0.000000 0.000000
# 2 0.001080 0.016148 -0.004013 0.000000 0.000000 0.000000
# 3 -0.005470 -0.004013 0.013357 0.000000 0.000000 0.000000
# 4 0.000000 0.000000 0.000000 0.047145 0.000000 0.000000
# 5 0.000000 0.000000 0.000000 0.000000 0.036179 0.000000
# 6 0.000000 0.000000 0.000000 0.000000 0.000000 0.054716
#
#
# Mechanical properties :
#
#
# Convention : Reuss Voigt Hill
#
# Bulk Modulus (GPa) = 33.33196 36.60990 34.97093
# Shear Modulus (GPa) = 23.62311 25.06085 24.34198
#
# Velocity S-wave (km/s) = 3.42756 3.53032 3.47932
# Velocity P-wave (km/s) = 5.67809 5.90121 5.79073
#
# Compressibility (1/GPa) = 0.03000124
#
# Stress axis : x y z
#
# Youngs Moduli (GPa) = 57.79165 61.92561 74.86697
#
# Poissons Ratio (x) = -0.06685 0.40955
# Poissons Ratio (y) = -0.06239 0.30045
# Poissons Ratio (z) = 0.31614 0.24851
#
# Static dielectric constant tensor:
#      x y z
#    x 1.708530 0.000000 0.000000 
#    y 0.000000 1.734800 0.000000 
#    z 0.000000 0.000000 0.699670 
# 
# From -- ./inp_files/22916.got.cif
#   From: 2010.05.17/outbox.cif.g08.bks.cpg/sg60_12_cif.got.tgz:22916.got - 2010.06.03 14:59:27.
