data_PCOD9455195
_publ_section_title
;
Structure prediction by ZEFSAII (Michael W. Deem and Ramdas Pophale) SiO2 
 PCOD9455195
Probable space group: P B C N
;
_chemical_formula_sum "Si O2"
_cell_formula_units_Z 60
_cell_length_a 30.665888
_cell_length_b 10.804026
_cell_length_c 9.206638
_cell_angle_alpha 90.000000
_cell_angle_beta 90.000000
_cell_angle_gamma 90.000000
_cell_volume 3050.297741
_symmetry_space_group_name_H-M "P B C N"
_symmetry_group_IT_number 60
_symmetry_cell_setting 'orthorhombic'
loop_
_space_group_symop_operation_xyz
x,y,z
1/2-x,1/2-y,1/2+z
1/2+x,1/2-y,-z
-x,y,1/2-z
-x,-y,-z
1/2+x,1/2+y,1/2-z
1/2-x,1/2+y,z
x,-y,1/2+z
loop_
_atom_site_type_symbol
_atom_site_label
_atom_site_fract_x
_atom_site_fract_y
_atom_site_fract_z
Si Si1 0.000000 0.496018 0.250000
Si Si2 0.675559 0.150956 0.290683
Si Si3 0.763260 0.140140 0.746385
Si Si4 0.554981 0.871932 0.997840
Si Si5 0.642177 0.964451 0.495539
Si Si6 0.377915 0.324055 0.012946
Si Si7 0.188729 0.029762 0.033177
Si Si8 0.831257 0.730124 0.776457
O O1 0.028901 0.583773 0.145071
O O2 0.027595 0.409397 0.359718
O O3 0.720005 0.218309 0.252421
O O4 0.643191 0.259296 0.345196
O O5 0.677481 0.056216 0.423495
O O6 0.655890 0.084868 0.151122
O O7 0.788204 0.074252 0.614104
O O8 0.711654 0.150821 0.738041
O O9 0.779882 0.070653 0.890410
O O10 0.572930 0.730426 0.991893
O O11 0.597993 0.958270 0.002130
O O12 0.639061 0.851122 0.383569
O O13 0.358747 0.463530 0.013851
O O14 0.355578 0.267990 0.868978
O O15 0.182908 0.148163 0.135704
#
# Coordination Sequence:
#
# PCOD9455195 Si02
#       8
#     4   8   8   8   8   8   8   8
#     4  10  20  36  66 102 132 156 188 250 340 388
#     4  10  22  37  56  84 122 163 214 259 314 367
#     4  11  26  41  57  82 124 163 229 273 309 353
#     4  10  20  38  62  98 130 155 194 254 315 402
#     4  11  21  37  60  89 126 164 206 253 325 379
#     4  10  22  41  60  86 125 163 212 254 312 392
#     4  11  24  43  59  84 118 171 223 266 320 360
#     4  12  25  38  61  84 122 174 219 269 321 352
#
# _framework density 19.670211999999999
#
# number of rings (size 3 to 8) (size 9 to 14) (size 15 to 20)
#    0.000    1.333    2.667    4.000    5.600    2.133 
#    0.000    0.000    0.000    0.000    0.000   15.867 
#    0.000    0.000    0.000    0.000    0.000    0.000 
#
# Total GULP energy -335177.606574 kJ/mol
# GULP energy per Si atom -5586.293443 kJ/mol
# Density = 1.962544 g / cm^3
# Si number density = 19.670212 Si / 1000 Ang^3
#
#
#
# Elastic Constant Matrix: (Units=GPa)
#
#
# Indices 1 2 3 4 5 6 
#
# 1 72.6053 31.1587 36.8903 0.0000 0.0000 0.0000
# 2 31.1587 80.6876 35.6790 0.0000 0.0000 0.0000
# 3 36.8903 35.6790 124.4181 0.0000 0.0000 0.0000
# 4 0.0000 0.0000 0.0000 31.2297 0.0000 0.0000
# 5 0.0000 0.0000 0.0000 0.0000 19.7108 0.0000
# 6 0.0000 0.0000 0.0000 0.0000 0.0000 34.4178
#
#
#
# Elastic Compliance Matrix: (Units=1/GPa)
#
#
# Indices 1 2 3 4 5 6 
#
# 1 0.017968 -0.005248 -0.003822 0.000000 0.000000 0.000000
# 2 -0.005248 0.015726 -0.002954 0.000000 0.000000 0.000000
# 3 -0.003822 -0.002954 0.010018 0.000000 0.000000 0.000000
# 4 0.000000 0.000000 0.000000 0.032021 0.000000 0.000000
# 5 0.000000 0.000000 0.000000 0.000000 0.050734 0.000000
# 6 0.000000 0.000000 0.000000 0.000000 0.000000 0.029055
#
#
# Mechanical properties :
#
#
# Convention : Reuss Voigt Hill
#
# Bulk Modulus (GPa) = 50.85696 53.90743 52.38219
# Shear Modulus (GPa) = 26.86389 28.67053 27.76721
#
# Velocity S-wave (km/s) = 3.69957 3.82194 3.76125
# Velocity P-wave (km/s) = 6.64530 6.85138 6.74913
#
# Compressibility (1/GPa) = 0.01966299
#
# Stress axis : x y z
#
# Youngs Moduli (GPa) = 55.65598 63.58806 99.82249
#
# Poissons Ratio (x) = 0.33372 0.38156
# Poissons Ratio (y) = 0.29209 0.29484
# Poissons Ratio (z) = 0.21274 0.18782
#
# Static dielectric constant tensor:
#      x y z
#    x 1.713810 0.000000 0.000000 
#    y 0.000000 1.750280 0.000000 
#    z 0.000000 0.000000 1.695160 
# 
# From -- ./inp_files/8468.got.cif
#   From: 2010.05.17/outbox.cif.g08.bks.cpg/sg60_5_cif.got.tgz:8468.got - 2010.06.03 14:59:27.
