data_PCOD9455060
_publ_section_title
;
Structure prediction by ZEFSAII (Michael W. Deem and Ramdas Pophale) SiO2 
 PCOD9455060
Probable space group: P B C N
;
_chemical_formula_sum "Si O2"
_cell_formula_units_Z 56
_cell_length_a 21.659389
_cell_length_b 13.987147
_cell_length_c 7.969033
_cell_angle_alpha 90.000000
_cell_angle_beta 90.000000
_cell_angle_gamma 90.000000
_cell_volume 2414.242916
_symmetry_space_group_name_H-M "P B C N"
_symmetry_group_IT_number 60
_symmetry_cell_setting 'orthorhombic'
loop_
_space_group_symop_operation_xyz
x,y,z
1/2-x,1/2-y,1/2+z
1/2+x,1/2-y,-z
-x,y,1/2-z
-x,-y,-z
1/2+x,1/2+y,1/2-z
1/2-x,1/2+y,z
x,-y,1/2+z
loop_
_atom_site_type_symbol
_atom_site_label
_atom_site_fract_x
_atom_site_fract_y
_atom_site_fract_z
Si Si1 0.548323 0.912378 0.484675
Si Si2 0.841897 0.306881 0.877109
Si Si3 0.664219 0.633901 0.478216
Si Si4 0.727249 0.538373 0.797839
Si Si5 0.367546 0.003088 0.240989
Si Si6 0.245662 0.300362 0.941931
Si Si7 0.945499 0.213508 0.644476
O O1 0.582763 0.922352 0.306937
O O2 0.528046 0.808025 0.547402
O O3 0.500000 0.000000 0.500000
O O4 0.604356 0.934992 0.610666
O O5 0.864887 0.414409 0.905312
O O6 0.787423 0.312977 0.736034
O O7 0.895717 0.247414 0.786286
O O8 0.808481 0.261302 0.037740
O O9 0.692360 0.596287 0.654390
O O10 0.688436 0.556279 0.345538
O O11 0.693587 0.739282 0.457569
O O12 0.591978 0.649688 0.511700
O O13 0.797392 0.525366 0.737727
O O14 0.736339 0.602424 0.964579
O O15 0.000000 0.166343 0.750000
#
# Coordination Sequence:
#
# PCOD9455060 Si02
#       7
#     8   8   8   8   8   8   8
#     4  11  22  38  61  90 130 173 214 258 320 406
#     4  10  20  35  58  87 124 166 203 261 321 384
#     4  11  24  39  63  95 125 174 211 267 333 389
#     4  12  22  38  62  94 130 165 211 273 332 395
#     4  11  21  35  57  93 126 165 208 261 325 389
#     4  11  20  38  56  91 130 160 210 262 328 390
#     4  10  21  43  62  88 125 172 217 267 322 384
#
# _framework density 23.195675999999999
#
# number of rings (size 3 to 8) (size 9 to 14) (size 15 to 20)
#    0.000    1.143    4.286    6.429    0.000    0.000 
#    0.000    0.714    0.000    1.714    0.000    0.000 
#    0.000    0.000    0.000    0.000    0.000    0.000 
#
# Total GULP energy -312719.099479 kJ/mol
# GULP energy per Si atom -5584.269634 kJ/mol
# Density = 2.314288 g / cm^3
# Si number density = 23.195676 Si / 1000 Ang^3
#
#
#
# Elastic Constant Matrix: (Units=GPa)
#
#
# Indices 1 2 3 4 5 6 
#
# 1 90.3811 20.1143 9.9076 0.0000 0.0000 0.0000
# 2 20.1143 68.0175 -0.7442 0.0000 0.0000 0.0000
# 3 9.9076 -0.7442 52.1837 0.0000 0.0000 0.0000
# 4 0.0000 0.0000 0.0000 29.5562 0.0000 0.0000
# 5 0.0000 0.0000 0.0000 0.0000 38.8609 0.0000
# 6 0.0000 0.0000 0.0000 0.0000 0.0000 39.2362
#
#
#
# Elastic Compliance Matrix: (Units=1/GPa)
#
#
# Indices 1 2 3 4 5 6 
#
# 1 0.012126 -0.003612 -0.002354 0.000000 0.000000 0.000000
# 2 -0.003612 0.015780 0.000911 0.000000 0.000000 0.000000
# 3 -0.002354 0.000911 0.019623 0.000000 0.000000 0.000000
# 4 0.000000 0.000000 0.000000 0.033834 0.000000 0.000000
# 5 0.000000 0.000000 0.000000 0.000000 0.025733 0.000000
# 6 0.000000 0.000000 0.000000 0.000000 0.000000 0.025487
#
#
# Mechanical properties :
#
#
# Convention : Reuss Voigt Hill
#
# Bulk Modulus (GPa) = 26.72388 29.90419 28.31404
# Shear Modulus (GPa) = 32.22375 33.61764 32.92069
#
# Velocity S-wave (km/s) = 3.73126 3.81111 3.77139
# Velocity P-wave (km/s) = 5.48718 5.68209 5.58549
#
# Compressibility (1/GPa) = 0.03741972
#
# Stress axis : x y z
#
# Youngs Moduli (GPa) = 82.46703 63.37084 50.96077
#
# Poissons Ratio (x) = 0.22888 0.11995
# Poissons Ratio (y) = 0.29785 -0.04641
# Poissons Ratio (z) = 0.19411 -0.05772
#
# Static dielectric constant tensor:
#      x y z
#    x 1.860110 0.000000 0.000000 
#    y 0.000000 1.962230 0.000000 
#    z 0.000000 0.000000 1.993240 
# 
# From -- ./inp_files/7420.got.cif
#   From: 2010.05.17/outbox.cif.g08.bks.cpg/sg60_4_cif.got.tgz:7420.got - 2010.06.03 14:59:27.
