data_PCOD9455392
_publ_section_title
;
Structure prediction by ZEFSAII (Michael W. Deem and Ramdas Pophale) SiO2 
 PCOD9455392
Probable space group: P B C N
;
_chemical_formula_sum "Si O2"
_cell_formula_units_Z 32
_cell_length_a 4.978908
_cell_length_b 18.710618
_cell_length_c 14.041331
_cell_angle_alpha 90.000000
_cell_angle_beta 90.000000
_cell_angle_gamma 90.000000
_cell_volume 1308.068571
_symmetry_space_group_name_H-M "P B C N"
_symmetry_group_IT_number 60
_symmetry_cell_setting 'orthorhombic'
loop_
_space_group_symop_operation_xyz
x,y,z
1/2-x,1/2-y,1/2+z
1/2+x,1/2-y,-z
-x,y,1/2-z
-x,-y,-z
1/2+x,1/2+y,1/2-z
1/2-x,1/2+y,z
x,-y,1/2+z
loop_
_atom_site_type_symbol
_atom_site_label
_atom_site_fract_x
_atom_site_fract_y
_atom_site_fract_z
Si Si1 0.503556 0.918690 0.865739
Si Si2 0.504196 0.507277 0.865648
Si Si3 0.404708 0.766906 0.551403
Si Si4 0.748656 0.647545 0.817960
O O1 0.500000 0.912869 0.750000
O O2 0.794004 0.945889 0.896667
O O3 0.474044 0.840536 0.909462
O O4 0.288647 0.979765 0.893633
O O5 0.500000 0.508093 0.750000
O O6 0.648339 0.582718 0.885535
O O7 0.670190 0.720751 0.526366
O O8 0.224143 0.720331 0.624369
O O9 0.500000 0.662006 0.750000
O O10 0.000000 0.628146 0.750000
#
# Coordination Sequence:
#
# PCOD9455392 Si02
#       4
#     8   8   8   8
#     4  10  20  38  63  88 118 160 209 259 310 371
#     4   9  18  35  62  93 116 147 208 269 309 359
#     4  12  26  42  58  90 134 172 208 257 316 381
#     4  11  22  41  68  95 123 165 214 265 318 379
#
# _framework density 24.463550000000001
#
# number of rings (size 3 to 8) (size 9 to 14) (size 15 to 20)
#    0.000    1.500    0.000    7.500    0.000    3.000 
#    0.000    7.500    0.000    0.000    0.000    0.000 
#    0.000    0.000    0.000    0.000    0.000    0.000 
#
# Total GULP energy -178674.844330 kJ/mol
# GULP energy per Si atom -5583.588885 kJ/mol
# Density = 2.440787 g / cm^3
# Si number density = 24.463550 Si / 1000 Ang^3
#
#
#
# Elastic Constant Matrix: (Units=GPa)
#
#
# Indices 1 2 3 4 5 6 
#
# 1 142.9547 7.0858 14.4480 0.0000 0.0000 0.0000
# 2 7.0858 108.4544 14.5087 0.0000 0.0000 0.0000
# 3 14.4480 14.5087 48.4762 0.0000 0.0000 0.0000
# 4 0.0000 0.0000 0.0000 24.4303 0.0000 0.0000
# 5 0.0000 0.0000 0.0000 0.0000 23.2472 0.0000
# 6 0.0000 0.0000 0.0000 0.0000 0.0000 35.0824
#
#
#
# Elastic Compliance Matrix: (Units=1/GPa)
#
#
# Indices 1 2 3 4 5 6 
#
# 1 0.007216 -0.000191 -0.002093 0.000000 0.000000 0.000000
# 2 -0.000191 0.009610 -0.002819 0.000000 0.000000 0.000000
# 3 -0.002093 -0.002819 0.022096 0.000000 0.000000 0.000000
# 4 0.000000 0.000000 0.000000 0.040933 0.000000 0.000000
# 5 0.000000 0.000000 0.000000 0.000000 0.043016 0.000000
# 6 0.000000 0.000000 0.000000 0.000000 0.000000 0.028504
#
#
# Mechanical properties :
#
#
# Convention : Reuss Voigt Hill
#
# Bulk Modulus (GPa) = 34.82547 41.33003 38.07775
# Shear Modulus (GPa) = 29.21316 34.14149 31.67733
#
# Velocity S-wave (km/s) = 3.45940 3.73983 3.60235
# Velocity P-wave (km/s) = 5.49756 5.96487 5.73598
#
# Compressibility (1/GPa) = 0.02871461
#
# Stress axis : x y z
#
# Youngs Moduli (GPa) = 138.57536 104.05701 45.25618
#
# Poissons Ratio (x) = 0.01992 0.09474
# Poissons Ratio (y) = 0.02652 0.12759
# Poissons Ratio (z) = 0.29010 0.29336
#
# Static dielectric constant tensor:
#      x y z
#    x 1.916810 0.000000 0.000000 
#    y 0.000000 1.954750 0.000000 
#    z 0.000000 0.000000 2.253140 
# 
# From -- ./inp_files/13622.got.cif
#   From: 2010.05.17/outbox.cif.g08.bks.cpg/sg60_7_cif.got.tgz:13622.got - 2010.06.03 14:59:27.
