data_PCOD9455265
_publ_section_title
;
Structure prediction by ZEFSAII (Michael W. Deem and Ramdas Pophale) SiO2 
 PCOD9455265
Probable space group: P B C N
;
_chemical_formula_sum "Si O2"
_cell_formula_units_Z 60
_cell_length_a 26.266367
_cell_length_b 9.072839
_cell_length_c 12.889637
_cell_angle_alpha 90.000000
_cell_angle_beta 90.000000
_cell_angle_gamma 90.000000
_cell_volume 3071.736082
_symmetry_space_group_name_H-M "P B C N"
_symmetry_group_IT_number 60
_symmetry_cell_setting 'orthorhombic'
loop_
_space_group_symop_operation_xyz
x,y,z
1/2-x,1/2-y,1/2+z
1/2+x,1/2-y,-z
-x,y,1/2-z
-x,-y,-z
1/2+x,1/2+y,1/2-z
1/2-x,1/2+y,z
x,-y,1/2+z
loop_
_atom_site_type_symbol
_atom_site_label
_atom_site_fract_x
_atom_site_fract_y
_atom_site_fract_z
Si Si1 0.090511 0.999413 0.386838
Si Si2 0.080173 0.199780 0.087676
Si Si3 0.733943 0.044196 0.754708
Si Si4 0.843840 0.971924 0.304653
Si Si5 0.840094 0.578091 0.946161
Si Si6 0.158018 0.233397 0.502989
Si Si7 0.766976 0.298780 0.600415
Si Si8 0.500000 0.619634 0.250000
O O1 0.114591 0.150755 0.434950
O O2 0.041828 0.027588 0.314271
O O3 0.075137 0.890855 0.480330
O O4 0.134653 0.939094 0.310071
O O5 0.103768 0.359264 0.068620
O O6 0.030945 0.205319 0.160866
O O7 0.121768 0.103449 0.151166
O O8 0.785181 0.979147 0.805415
O O9 0.691838 0.073796 0.839732
O O10 0.755350 0.177022 0.685912
O O11 0.714385 0.933674 0.669252
O O12 0.847687 0.833373 0.381656
O O13 0.841275 0.411071 0.990972
O O14 0.810227 0.702703 0.013586
O O15 0.212778 0.180784 0.457688
#
# Coordination Sequence:
#
# PCOD9455265 Si02
#       8
#     8   8   8   8   8   8   8   4
#     4  10  21  42  71  94 124 161 219 272 337 379
#     4  10  23  40  67  93 126 164 217 274 325 383
#     4  12  23  36  58  87 128 176 220 254 314 377
#     4  10  20  37  61  89 125 169 211 264 312 377
#     4  12  26  39  60  92 137 176 220 258 320 393
#     4  11  23  40  58  91 133 168 214 266 320 385
#     4  12  24  36  56  88 128 177 216 260 305 379
#     4  10  22  42  72 100 118 160 222 286 332 382
#
# _framework density 19.532927000000001
#
# number of rings (size 3 to 8) (size 9 to 14) (size 15 to 20)
#    0.000    1.067    4.000    2.800    5.600    0.000 
#    0.000    0.667    0.000    8.000    0.000    0.000 
#    0.000    0.000    0.000    0.000    0.000    0.000 
#
# Total GULP energy -334694.256511 kJ/mol
# GULP energy per Si atom -5578.237609 kJ/mol
# Density = 1.948847 g / cm^3
# Si number density = 19.532927 Si / 1000 Ang^3
#
#
#
# Elastic Constant Matrix: (Units=GPa)
#
#
# Indices 1 2 3 4 5 6 
#
# 1 96.4907 26.9436 41.9609 0.0000 0.0000 0.0000
# 2 26.9436 60.5965 39.0097 0.0000 0.0000 0.0000
# 3 41.9609 39.0097 122.8007 0.0000 0.0000 0.0000
# 4 0.0000 0.0000 0.0000 23.1371 0.0000 0.0000
# 5 0.0000 0.0000 0.0000 0.0000 35.2036 0.0000
# 6 0.0000 0.0000 0.0000 0.0000 0.0000 14.9300
#
#
#
# Elastic Compliance Matrix: (Units=1/GPa)
#
#
# Indices 1 2 3 4 5 6 
#
# 1 0.012770 -0.003607 -0.003218 0.000000 0.000000 0.000000
# 2 -0.003607 0.021764 -0.005681 0.000000 0.000000 0.000000
# 3 -0.003218 -0.005681 0.011048 0.000000 0.000000 0.000000
# 4 0.000000 0.000000 0.000000 0.043221 0.000000 0.000000
# 5 0.000000 0.000000 0.000000 0.000000 0.028406 0.000000
# 6 0.000000 0.000000 0.000000 0.000000 0.000000 0.066979
#
#
# Mechanical properties :
#
#
# Convention : Reuss Voigt Hill
#
# Bulk Modulus (GPa) = 48.61450 55.07958 51.84704
# Shear Modulus (GPa) = 23.14223 26.11905 24.63064
#
# Velocity S-wave (km/s) = 3.44580 3.66071 3.55488
# Velocity P-wave (km/s) = 6.38544 6.79171 6.59171
#
# Compressibility (1/GPa) = 0.02056999
#
# Stress axis : x y z
#
# Youngs Moduli (GPa) = 78.30781 45.94829 90.51783
#
# Poissons Ratio (x) = 0.16572 0.29127
# Poissons Ratio (y) = 0.28242 0.51425
# Poissons Ratio (z) = 0.25198 0.26104
#
# Static dielectric constant tensor:
#      x y z
#    x 1.687770 0.000000 0.000000 
#    y 0.000000 1.697270 0.000000 
#    z 0.000000 0.000000 1.722600 
# 
# From -- ./inp_files/13272.got.cif
#   From: 2010.05.17/outbox.cif.g08.bks.cpg/sg60_7_cif.got.tgz:13272.got - 2010.06.03 14:59:27.
