data_PCOD9455639
_publ_section_title
;
Structure prediction by ZEFSAII (Michael W. Deem and Ramdas Pophale) SiO2 
 PCOD9455639
Probable space group: P B C N
;
_chemical_formula_sum "Si O2"
_cell_formula_units_Z 48
_cell_length_a 5.681645
_cell_length_b 27.318589
_cell_length_c 14.105794
_cell_angle_alpha 90.000000
_cell_angle_beta 90.000000
_cell_angle_gamma 90.000000
_cell_volume 2189.424110
_symmetry_space_group_name_H-M "P B C N"
_symmetry_group_IT_number 60
_symmetry_cell_setting 'orthorhombic'
loop_
_space_group_symop_operation_xyz
x,y,z
1/2-x,1/2-y,1/2+z
1/2+x,1/2-y,-z
-x,y,1/2-z
-x,-y,-z
1/2+x,1/2+y,1/2-z
1/2-x,1/2+y,z
x,-y,1/2+z
loop_
_atom_site_type_symbol
_atom_site_label
_atom_site_fract_x
_atom_site_fract_y
_atom_site_fract_z
Si Si1 0.348547 0.920854 0.842152
Si Si2 0.439163 0.515364 0.846452
Si Si3 0.495675 0.248973 0.638212
Si Si4 0.999929 0.807794 0.361752
Si Si5 0.726670 0.950211 0.968864
Si Si6 0.014013 0.145140 0.449756
O O1 0.500000 0.908428 0.750000
O O2 0.463580 0.945930 0.934923
O O3 0.229494 0.873239 0.885790
O O4 0.188981 0.966131 0.810080
O O5 0.500000 0.543331 0.750000
O O6 0.651797 0.494277 0.910560
O O7 0.278934 0.544170 0.920983
O O8 0.500000 0.260021 0.750000
O O9 0.246830 0.221326 0.621140
O O10 0.472927 0.299531 0.581832
O O11 0.746455 0.220348 0.619049
O O12 0.972480 0.851756 0.436503
O O13 0.000000 0.820266 0.250000
O O14 0.829453 0.898305 0.931702
#
# Coordination Sequence:
#
# PCOD9455639 Si02
#       6
#     8   8   8   8   8   8
#     4  11  23  38  64  95 132 172 213 278 338 399
#     4  10  20  41  63  86 125 171 214 266 327 401
#     4  10  23  40  66  94 129 177 223 270 336 404
#     4  10  23  44  66  92 131 179 223 272 334 404
#     4  10  23  38  61  92 125 165 218 266 331 397
#     4  11  25  37  64  94 130 164 219 278 335 392
#
# _framework density 21.923575
#
# number of rings (size 3 to 8) (size 9 to 14) (size 15 to 20)
#    0.000    1.667    1.667    1.500    7.000    1.333 
#    0.000    0.000    0.000    0.000    0.000    0.000 
#    0.000    0.000    0.000    0.000    0.000    0.000 
#
# Total GULP energy -267413.779502 kJ/mol
# GULP energy per Si atom -5571.120406 kJ/mol
# Density = 2.187368 g / cm^3
# Si number density = 21.923575 Si / 1000 Ang^3
#
#
#
# Elastic Constant Matrix: (Units=GPa)
#
#
# Indices 1 2 3 4 5 6 
#
# 1 86.4438 24.0930 43.8317 0.0000 0.0000 0.0000
# 2 24.0930 41.2966 31.2335 0.0000 0.0000 0.0000
# 3 43.8317 31.2335 144.2420 0.0000 0.0000 0.0000
# 4 0.0000 0.0000 0.0000 26.7830 0.0000 0.0000
# 5 0.0000 0.0000 0.0000 0.0000 41.9083 0.0000
# 6 0.0000 0.0000 0.0000 0.0000 0.0000 9.0600
#
#
#
# Elastic Compliance Matrix: (Units=1/GPa)
#
#
# Indices 1 2 3 4 5 6 
#
# 1 0.014936 -0.006316 -0.003171 0.000000 0.000000 0.000000
# 2 -0.006316 0.031628 -0.004929 0.000000 0.000000 0.000000
# 3 -0.003171 -0.004929 0.008964 0.000000 0.000000 0.000000
# 4 0.000000 0.000000 0.000000 0.037337 0.000000 0.000000
# 5 0.000000 0.000000 0.000000 0.000000 0.023862 0.000000
# 6 0.000000 0.000000 0.000000 0.000000 0.000000 0.110376
#
#
# Mechanical properties :
#
#
# Convention : Reuss Voigt Hill
#
# Bulk Modulus (GPa) = 37.45931 52.25541 44.85736
# Shear Modulus (GPa) = 18.87976 27.07186 22.97581
#
# Velocity S-wave (km/s) = 2.93774 3.51783 3.24079
# Velocity P-wave (km/s) = 5.35075 6.35509 5.87442
#
# Compressibility (1/GPa) = 0.02669564
#
# Stress axis : x y z
#
# Youngs Moduli (GPa) = 66.95024 31.61764 111.55919
#
# Poissons Ratio (x) = 0.19969 0.35378
# Poissons Ratio (y) = 0.42283 0.54992
# Poissons Ratio (z) = 0.21232 0.15586
#
# Static dielectric constant tensor:
#      x y z
#    x 1.828740 0.000000 0.000000 
#    y 0.000000 1.829800 0.000000 
#    z 0.000000 0.000000 2.075000 
# 
# From -- ./inp_files/14045.got.cif
#   From: 2010.05.17/outbox.cif.g08.bks.cpg/sg60_8_cif.got.tgz:14045.got - 2010.06.03 14:59:27.
