data_PCOD9455071
_publ_section_title
;
Structure prediction by ZEFSAII (Michael W. Deem and Ramdas Pophale) SiO2 
 PCOD9455071
Probable space group: P B C N
;
_chemical_formula_sum "Si O2"
_cell_formula_units_Z 52
_cell_length_a 8.520320
_cell_length_b 16.832741
_cell_length_c 17.771815
_cell_angle_alpha 90.000000
_cell_angle_beta 90.000000
_cell_angle_gamma 90.000000
_cell_volume 2548.839746
_symmetry_space_group_name_H-M "P B C N"
_symmetry_group_IT_number 60
_symmetry_cell_setting 'orthorhombic'
loop_
_space_group_symop_operation_xyz
x,y,z
1/2-x,1/2-y,1/2+z
1/2+x,1/2-y,-z
-x,y,1/2-z
-x,-y,-z
1/2+x,1/2+y,1/2-z
1/2-x,1/2+y,z
x,-y,1/2+z
loop_
_atom_site_type_symbol
_atom_site_label
_atom_site_fract_x
_atom_site_fract_y
_atom_site_fract_z
Si Si1 0.673167 0.763559 0.996349
Si Si2 0.500000 0.777559 0.750000
Si Si3 0.286487 0.203976 0.831546
Si Si4 0.500000 0.665916 0.250000
Si Si5 0.000000 0.576030 0.750000
Si Si6 0.247107 0.359211 0.637586
Si Si7 0.551542 0.993628 0.898309
Si Si8 0.877693 0.373102 0.517844
O O1 0.776164 0.790119 0.923644
O O2 0.502316 0.800085 0.975575
O O3 0.711383 0.800304 0.078291
O O4 0.711404 0.670064 0.007144
O O5 0.615321 0.723254 0.700434
O O6 0.607838 0.829312 0.806593
O O7 0.392213 0.277701 0.802287
O O8 0.369176 0.129767 0.790943
O O9 0.610306 0.620867 0.307992
O O10 0.068539 0.520796 0.686113
O O11 0.193123 0.433037 0.587389
O O12 0.400904 0.937127 0.914949
O O13 0.567158 0.071348 0.949036
#
# Coordination Sequence:
#
# PCOD9455071 Si02
#       8
#     8   4   8   4   4   8   8   8
#     4  11  20  37  62  93 114 166 199 264 290 373
#     4  10  21  36  56  94 119 160 208 274 293 366
#     4  10  20  35  59  90 119 154 216 252 311 353
#     4   9  20  36  58  86 117 164 206 256 293 372
#     4  11  21  38  64  84 122 168 198 254 306 382
#     4  10  21  37  64  86 127 158 211 251 315 362
#     4  10  21  38  59  93 119 164 195 253 313 377
#     4  10  22  38  64  88 126 153 215 247 312 363
#
# _framework density 20.401439
#
# number of rings (size 3 to 8) (size 9 to 14) (size 15 to 20)
#    0.000    1.846    1.538    3.231    4.308    1.231 
#    0.000    0.769    0.000   11.077    0.000    0.000 
#    0.000    0.000    0.000    0.000    0.000    0.000 
#
# Total GULP energy -289715.427362 kJ/mol
# GULP energy per Si atom -5571.450526 kJ/mol
# Density = 2.035500 g / cm^3
# Si number density = 20.401439 Si / 1000 Ang^3
#
#
#
# Elastic Constant Matrix: (Units=GPa)
#
#
# Indices 1 2 3 4 5 6 
#
# 1 58.6052 13.4189 13.7718 0.0000 0.0000 0.0000
# 2 13.4189 82.3582 14.9664 0.0000 0.0000 0.0000
# 3 13.7718 14.9664 111.0076 0.0000 0.0000 0.0000
# 4 0.0000 0.0000 0.0000 20.3931 0.0000 0.0000
# 5 0.0000 0.0000 0.0000 0.0000 30.5749 0.0000
# 6 0.0000 0.0000 0.0000 0.0000 0.0000 13.8097
#
#
#
# Elastic Compliance Matrix: (Units=1/GPa)
#
#
# Indices 1 2 3 4 5 6 
#
# 1 0.018105 -0.002606 -0.001895 0.000000 0.000000 0.000000
# 2 -0.002606 0.012822 -0.001405 0.000000 0.000000 0.000000
# 3 -0.001895 -0.001405 0.009433 0.000000 0.000000 0.000000
# 4 0.000000 0.000000 0.000000 0.049036 0.000000 0.000000
# 5 0.000000 0.000000 0.000000 0.000000 0.032707 0.000000
# 6 0.000000 0.000000 0.000000 0.000000 0.000000 0.072413
#
#
# Mechanical properties :
#
#
# Convention : Reuss Voigt Hill
#
# Bulk Modulus (GPa) = 35.02827 37.36501 36.19664
# Shear Modulus (GPa) = 23.16491 26.94313 25.05402
#
# Velocity S-wave (km/s) = 3.37331 3.63802 3.50816
# Velocity P-wave (km/s) = 5.69026 6.00013 5.84725
#
# Compressibility (1/GPa) = 0.02854837
#
# Stress axis : x y z
#
# Youngs Moduli (GPa) = 55.23265 77.99084 106.01127
#
# Poissons Ratio (x) = 0.20321 0.20088
# Poissons Ratio (y) = 0.14391 0.14899
# Poissons Ratio (z) = 0.10466 0.10961
#
# Static dielectric constant tensor:
#      x y z
#    x 1.777700 0.000000 0.000000 
#    y 0.000000 1.761500 0.000000 
#    z 0.000000 0.000000 1.746610 
# 
# From -- ./inp_files/19551.got.cif
#   From: 2010.05.17/outbox.cif.g08.bks.cpg/sg60_10_cif.got.tgz:19551.got - 2010.06.03 14:59:27.
