data_PCOD9455797
_publ_section_title
;
Structure prediction by ZEFSAII (Michael W. Deem and Ramdas Pophale) SiO2 
 PCOD9455797
Probable space group: P B C N
;
_chemical_formula_sum "Si O2"
_cell_formula_units_Z 48
_cell_length_a 21.052015
_cell_length_b 12.221314
_cell_length_c 8.687656
_cell_angle_alpha 90.000000
_cell_angle_beta 90.000000
_cell_angle_gamma 90.000000
_cell_volume 2235.188680
_symmetry_space_group_name_H-M "P B C N"
_symmetry_group_IT_number 60
_symmetry_cell_setting 'orthorhombic'
loop_
_space_group_symop_operation_xyz
x,y,z
1/2-x,1/2-y,1/2+z
1/2+x,1/2-y,-z
-x,y,1/2-z
-x,-y,-z
1/2+x,1/2+y,1/2-z
1/2-x,1/2+y,z
x,-y,1/2+z
loop_
_atom_site_type_symbol
_atom_site_label
_atom_site_fract_x
_atom_site_fract_y
_atom_site_fract_z
Si Si1 0.560144 0.663138 0.357800
Si Si2 0.802480 0.773881 0.830889
Si Si3 0.203606 0.969445 0.424078
Si Si4 0.064007 0.277707 0.805497
Si Si5 0.885579 0.077361 0.861146
Si Si6 0.198628 0.634277 0.382890
O O1 0.500000 0.682915 0.250000
O O2 0.624575 0.710751 0.281357
O O3 0.556705 0.717591 0.527737
O O4 0.571405 0.531881 0.373234
O O5 0.747392 0.785228 0.706847
O O6 0.792079 0.877616 0.946004
O O7 0.799456 0.668525 0.938691
O O8 0.160364 0.929725 0.285957
O O9 0.162528 0.069250 0.496768
O O10 0.270703 0.015017 0.369729
O O11 0.075020 0.185096 0.674275
O O12 0.128000 0.348580 0.819945
O O13 0.000000 0.336911 0.750000
#
# Coordination Sequence:
#
# PCOD9455797 Si02
#       6
#     8   8   8   8   8   8
#     4  10  21  34  51  81 120 155 185 228 291 361
#     4  10  22  37  55  90 111 155 200 233 301 341
#     4  11  20  36  59  86 121 150 196 238 293 353
#     4  11  24  37  54  84 118 156 201 235 298 353
#     4  11  19  36  55  87 118 153 189 233 291 360
#     4  11  21  38  59  82 122 153 195 250 286 354
#
# _framework density 21.474698
#
# number of rings (size 3 to 8) (size 9 to 14) (size 15 to 20)
#    0.000    1.333    8.333    1.500    2.333    2.667 
#    0.000    0.000    0.000    1.000    0.000    2.333 
#    0.000    0.000    0.000    0.000    0.000    0.000 
#
# Total GULP energy -268150.983227 kJ/mol
# GULP energy per Si atom -5586.478817 kJ/mol
# Density = 2.142582 g / cm^3
# Si number density = 21.474698 Si / 1000 Ang^3
#
#
#
# Elastic Constant Matrix: (Units=GPa)
#
#
# Indices 1 2 3 4 5 6 
#
# 1 188.6518 23.4951 41.0710 0.0000 0.0000 0.0000
# 2 23.4951 8.4238 3.5492 0.0000 0.0000 0.0000
# 3 41.0710 3.5492 48.0497 0.0000 0.0000 0.0000
# 4 0.0000 0.0000 0.0000 21.9215 0.0000 0.0000
# 5 0.0000 0.0000 0.0000 0.0000 40.2042 0.0000
# 6 0.0000 0.0000 0.0000 0.0000 0.0000 33.0940
#
#
#
# Elastic Compliance Matrix: (Units=1/GPa)
#
#
# Indices 1 2 3 4 5 6 
#
# 1 0.009780 -0.024519 -0.006549 0.000000 0.000000 0.000000
# 2 -0.024519 0.183995 0.007367 0.000000 0.000000 0.000000
# 3 -0.006549 0.007367 0.025865 0.000000 0.000000 0.000000
# 4 0.000000 0.000000 0.000000 0.045617 0.000000 0.000000
# 5 0.000000 0.000000 0.000000 0.000000 0.024873 0.000000
# 6 0.000000 0.000000 0.000000 0.000000 0.000000 0.030217
#
#
# Mechanical properties :
#
#
# Convention : Reuss Voigt Hill
#
# Bulk Modulus (GPa) = 5.80587 42.37287 24.08937
# Shear Modulus (GPa) = 11.76024 30.84461 21.30242
#
# Velocity S-wave (km/s) = 2.34269 3.79400 3.15298
# Velocity P-wave (km/s) = 3.16656 6.24235 4.94944
#
# Compressibility (1/GPa) = 0.17223938
#
# Stress axis : x y z
#
# Youngs Moduli (GPa) = 102.24855 5.43493 38.66217
#
# Poissons Ratio (x) = 0.13326 0.25318
# Poissons Ratio (y) = 2.50703 -0.28483
# Poissons Ratio (z) = 0.66958 -0.04004
#
# Static dielectric constant tensor:
#      x y z
#    x 1.821320 0.000000 0.000000 
#    y 0.000000 1.808690 0.000000 
#    z 0.000000 0.000000 1.802740 
# 
# From -- ./inp_files/7305.got.cif
#   From: 2010.05.17/outbox.cif.g08.bks.cpg/sg60_4_cif.got.tgz:7305.got - 2010.06.03 14:59:27.
