data_PCOD9455630
_publ_section_title
;
Structure prediction by ZEFSAII (Michael W. Deem and Ramdas Pophale) SiO2 
 PCOD9455630
Probable space group: P B C N
;
_chemical_formula_sum "Si O2"
_cell_formula_units_Z 52
_cell_length_a 23.044851
_cell_length_b 13.651272
_cell_length_c 9.742997
_cell_angle_alpha 90.000000
_cell_angle_beta 90.000000
_cell_angle_gamma 90.000000
_cell_volume 3065.064325
_symmetry_space_group_name_H-M "P B C N"
_symmetry_group_IT_number 60
_symmetry_cell_setting 'orthorhombic'
loop_
_space_group_symop_operation_xyz
x,y,z
1/2-x,1/2-y,1/2+z
1/2+x,1/2-y,-z
-x,y,1/2-z
-x,-y,-z
1/2+x,1/2+y,1/2-z
1/2-x,1/2+y,z
x,-y,1/2+z
loop_
_atom_site_type_symbol
_atom_site_label
_atom_site_fract_x
_atom_site_fract_y
_atom_site_fract_z
Si Si1 0.310042 0.096403 0.599129
Si Si2 0.102957 0.233935 0.081681
Si Si3 0.881608 0.092405 0.180911
Si Si4 0.000000 0.827250 0.750000
Si Si5 0.155302 0.874175 0.336787
Si Si6 0.213490 0.405958 0.420196
Si Si7 0.811465 0.800079 0.450612
O O1 0.366768 0.161447 0.571772
O O2 0.305203 0.078492 0.762275
O O3 0.254539 0.161444 0.554497
O O4 0.304846 0.996947 0.513752
O O5 0.136065 0.166962 0.196597
O O6 0.037773 0.234534 0.141350
O O7 0.110701 0.175707 0.940830
O O8 0.950997 0.108069 0.174971
O O9 0.865764 0.980994 0.211045
O O10 0.849387 0.127774 0.044842
O O11 0.216840 0.891562 0.412972
O O12 0.166426 0.806526 0.205033
O O13 0.187160 0.306731 0.482567
#
# Coordination Sequence:
#
# PCOD9455630 Si02
#       7
#     8   8   8   4   8   8   8
#     4  11  23  35  61  83 121 158 193 246 292 361
#     4  10  21  40  56  84 112 161 199 234 298 349
#     4  10  20  41  58  86 117 162 201 237 303 347
#     4   8  22  38  66  74 122 164 196 248 290 360
#     4  11  22  33  60  88 122 153 198 247 286 365
#     4  11  23  35  56  90 120 160 191 235 310 349
#     4  11  22  37  56  89 128 152 190 252 296 354
#
# _framework density 16.965387
#
# number of rings (size 3 to 8) (size 9 to 14) (size 15 to 20)
#    0.923    0.615    4.615    0.923    4.308    0.615 
#    0.000    0.000    0.000    3.692    0.000    0.000 
#    0.000    0.000    0.000    0.000    0.000    0.000 
#
# Total GULP energy -289844.897679 kJ/mol
# GULP energy per Si atom -5573.940340 kJ/mol
# Density = 1.692677 g / cm^3
# Si number density = 16.965387 Si / 1000 Ang^3
#
#
#
# Elastic Constant Matrix: (Units=GPa)
#
#
# Indices 1 2 3 4 5 6 
#
# 1 62.8918 14.7954 16.7134 0.0000 0.0000 0.0000
# 2 14.7954 93.8407 52.8218 0.0000 0.0000 0.0000
# 3 16.7134 52.8218 70.2207 0.0000 0.0000 0.0000
# 4 0.0000 0.0000 0.0000 21.4495 0.0000 0.0000
# 5 0.0000 0.0000 0.0000 0.0000 15.7071 0.0000
# 6 0.0000 0.0000 0.0000 0.0000 0.0000 8.0858
#
#
#
# Elastic Compliance Matrix: (Units=1/GPa)
#
#
# Indices 1 2 3 4 5 6 
#
# 1 0.017000 -0.000699 -0.003521 0.000000 0.000000 0.000000
# 2 -0.000699 0.018511 -0.013758 0.000000 0.000000 0.000000
# 3 -0.003521 -0.013758 0.025428 0.000000 0.000000 0.000000
# 4 0.000000 0.000000 0.000000 0.046621 0.000000 0.000000
# 5 0.000000 0.000000 0.000000 0.000000 0.063665 0.000000
# 6 0.000000 0.000000 0.000000 0.000000 0.000000 0.123673
#
#
# Mechanical properties :
#
#
# Convention : Reuss Voigt Hill
#
# Bulk Modulus (GPa) = 40.02518 43.95715 41.99116
# Shear Modulus (GPa) = 14.74139 18.55668 16.64903
#
# Velocity S-wave (km/s) = 2.95093 3.31085 3.13605
# Velocity P-wave (km/s) = 5.93752 6.37038 6.15775
#
# Compressibility (1/GPa) = 0.02498427
#
# Stress axis : x y z
#
# Youngs Moduli (GPa) = 58.82250 54.02283 39.32683
#
# Poissons Ratio (x) = 0.03774 0.13846
# Poissons Ratio (y) = 0.04109 0.54106
# Poissons Ratio (z) = 0.20711 0.74324
#
# Static dielectric constant tensor:
#      x y z
#    x 1.565820 0.000000 0.000000 
#    y 0.000000 1.553160 0.000000 
#    z 0.000000 0.000000 1.581970 
# 
# From -- ./inp_files/8151.got.cif
#   From: 2010.05.17/outbox.cif.g08.bks.cpg/sg60_5_cif.got.tgz:8151.got - 2010.06.03 14:59:27.
