data_PCOD9455850
_publ_section_title
;
Structure prediction by ZEFSAII (Michael W. Deem and Ramdas Pophale) SiO2 
 PCOD9455850
Probable space group: P B C N
;
_chemical_formula_sum "Si O2"
_cell_formula_units_Z 64
_cell_length_a 8.853894
_cell_length_b 18.565962
_cell_length_c 20.498725
_cell_angle_alpha 90.000000
_cell_angle_beta 90.000000
_cell_angle_gamma 90.000000
_cell_volume 3369.602135
_symmetry_space_group_name_H-M "P B C N"
_symmetry_group_IT_number 60
_symmetry_cell_setting 'orthorhombic'
loop_
_space_group_symop_operation_xyz
x,y,z
1/2-x,1/2-y,1/2+z
1/2+x,1/2-y,-z
-x,y,1/2-z
-x,-y,-z
1/2+x,1/2+y,1/2-z
1/2-x,1/2+y,z
x,-y,1/2+z
loop_
_atom_site_type_symbol
_atom_site_label
_atom_site_fract_x
_atom_site_fract_y
_atom_site_fract_z
Si Si1 0.109179 0.081770 0.935703
Si Si2 0.721921 0.535953 0.695904
Si Si3 0.713509 0.965017 0.336653
Si Si4 0.591561 0.165044 0.045870
Si Si5 0.457062 0.913458 0.819875
Si Si6 0.483192 0.158049 0.820968
Si Si7 0.840837 0.713146 0.552399
Si Si8 0.797203 0.946533 0.479078
O O1 0.105163 0.061487 0.858979
O O2 0.228851 0.144547 0.946746
O O3 0.948723 0.100332 0.968073
O O4 0.168119 0.009621 0.970497
O O5 0.682768 0.533924 0.772367
O O6 0.799747 0.458625 0.680742
O O7 0.855654 0.596023 0.689510
O O8 0.633095 0.886750 0.339142
O O9 0.776881 0.980111 0.407626
O O10 0.584385 0.024694 0.325613
O O11 0.543879 0.137761 0.117501
O O12 0.734296 0.217894 0.050585
O O13 0.455915 0.203114 0.007274
O O14 0.652610 0.097414 0.003425
O O15 0.500000 0.878034 0.750000
O O16 0.500000 0.193845 0.750000
O O17 0.433862 0.208371 0.879971
#
# Coordination Sequence:
#
# PCOD9455850 Si02
#       8
#     8   8   8   8   8   8   8   8
#     4  10  21  36  54  85 117 150 185 238 285 340
#     4   8  15  30  55  84 114 140 178 233 283 330
#     4   9  16  30  56  90 108 140 185 233 283 345
#     4  12  23  38  59  83 115 157 195 244 290 346
#     4   9  18  34  59  85 113 145 190 235 289 350
#     4   8  15  31  55  80 106 139 183 227 279 336
#     4  11  23  38  57  80 116 152 196 239 288 338
#     4  11  21  33  57  87 117 146 190 232 289 345
#
# _framework density 18.993341000000001
#
# number of rings (size 3 to 8) (size 9 to 14) (size 15 to 20)
#    0.000    2.250    2.500    3.000    0.000    1.500 
#    0.000    1.250    5.500    3.000    0.000    0.000 
#    0.000    0.000    0.000    0.000    0.000    0.000 
#
# Total GULP energy -356715.606400 kJ/mol
# GULP energy per Si atom -5573.681350 kJ/mol
# Density = 1.895011 g / cm^3
# Si number density = 18.993341 Si / 1000 Ang^3
#
#
#
# Elastic Constant Matrix: (Units=GPa)
#
#
# Indices 1 2 3 4 5 6 
#
# 1 15.2318 2.8559 11.5741 0.0000 0.0000 0.0000
# 2 2.8559 31.3057 28.0486 0.0000 0.0000 0.0000
# 3 11.5741 28.0486 144.0791 0.0000 0.0000 0.0000
# 4 0.0000 0.0000 0.0000 8.6539 0.0000 0.0000
# 5 0.0000 0.0000 0.0000 0.0000 25.6132 0.0000
# 6 0.0000 0.0000 0.0000 0.0000 0.0000 17.5211
#
#
#
# Elastic Compliance Matrix: (Units=1/GPa)
#
#
# Indices 1 2 3 4 5 6 
#
# 1 0.069989 -0.001632 -0.005305 0.000000 0.000000 0.000000
# 2 -0.001632 0.038730 -0.007409 0.000000 0.000000 0.000000
# 3 -0.005305 -0.007409 0.008809 0.000000 0.000000 0.000000
# 4 0.000000 0.000000 0.000000 0.115555 0.000000 0.000000
# 5 0.000000 0.000000 0.000000 0.000000 0.039042 0.000000
# 6 0.000000 0.000000 0.000000 0.000000 0.000000 0.057074
#
#
# Mechanical properties :
#
#
# Convention : Reuss Voigt Hill
#
# Bulk Modulus (GPa) = 11.25657 30.61932 20.93795
# Shear Modulus (GPa) = 12.90313 20.23349 16.56831
#
# Velocity S-wave (km/s) = 2.60926 3.26743 2.95671
# Velocity P-wave (km/s) = 3.87519 5.51279 4.76487
#
# Compressibility (1/GPa) = 0.08883700
#
# Stress axis : x y z
#
# Youngs Moduli (GPa) = 14.28797 25.81987 113.51987
#
# Poissons Ratio (x) = 0.04214 0.60217
# Poissons Ratio (y) = 0.02332 0.84103
# Poissons Ratio (z) = 0.07579 0.19129
#
# Static dielectric constant tensor:
#      x y z
#    x 1.693570 0.000000 0.000000 
#    y 0.000000 1.620530 0.000000 
#    z 0.000000 0.000000 1.690420 
# 
# From -- ./inp_files/22366.got.cif
#   From: 2010.05.17/outbox.cif.g08.bks.cpg/sg60_12_cif.got.tgz:22366.got - 2010.06.03 14:59:27.
