data_PCOD9455087
_publ_section_title
;
Structure prediction by ZEFSAII (Michael W. Deem and Ramdas Pophale) SiO2 
 PCOD9455087
Probable space group: P B C N
;
_chemical_formula_sum "Si O2"
_cell_formula_units_Z 48
_cell_length_a 9.216483
_cell_length_b 16.222768
_cell_length_c 18.567007
_cell_angle_alpha 90.000000
_cell_angle_beta 90.000000
_cell_angle_gamma 90.000000
_cell_volume 2776.080688
_symmetry_space_group_name_H-M "P B C N"
_symmetry_group_IT_number 60
_symmetry_cell_setting 'orthorhombic'
loop_
_space_group_symop_operation_xyz
x,y,z
1/2-x,1/2-y,1/2+z
1/2+x,1/2-y,-z
-x,y,1/2-z
-x,-y,-z
1/2+x,1/2+y,1/2-z
1/2-x,1/2+y,z
x,-y,1/2+z
loop_
_atom_site_type_symbol
_atom_site_label
_atom_site_fract_x
_atom_site_fract_y
_atom_site_fract_z
Si Si1 0.924934 0.647097 0.326051
Si Si2 0.917235 0.172242 0.325165
Si Si3 0.077955 0.919010 0.529422
Si Si4 0.889934 0.509585 0.434702
Si Si5 0.550977 0.263368 0.454965
Si Si6 0.875075 0.679550 0.926326
O O1 0.751928 0.651560 0.315105
O O2 0.955618 0.564026 0.370696
O O3 0.972387 0.722969 0.377097
O O4 0.000000 0.649216 0.250000
O O5 0.971594 0.113968 0.391343
O O6 0.918756 0.264622 0.358106
O O7 0.000000 0.163987 0.250000
O O8 0.246257 0.942354 0.538731
O O9 0.040446 0.844624 0.475087
O O10 0.000000 0.000000 0.500000
O O11 0.854071 0.416468 0.410582
O O12 0.000000 0.500000 0.500000
O O13 0.498081 0.196871 0.513804
O O14 0.721785 0.285624 0.457110
#
# Coordination Sequence:
#
# PCOD9455087 Si02
#       6
#     8   8   8   8   8   8
#     4  10  22  38  57  81 119 155 191 240 291 341
#     4   9  21  38  56  82 116 153 193 234 289 346
#     4  10  20  37  62  85 114 151 194 240 287 338
#     4  11  21  37  58  90 120 148 190 245 290 341
#     4  10  20  37  58  86 113 151 194 237 286 346
#     4  10  20  35  62  83 117 147 192 242 285 351
#
# _framework density 17.290562999999999
#
# number of rings (size 3 to 8) (size 9 to 14) (size 15 to 20)
#    0.000    2.000    3.333    1.000    0.000    4.667 
#    0.000    0.833    0.000    0.000    0.000    0.000 
#    0.000    0.000    0.000    0.000    0.000    0.000 
#
# Total GULP energy -267602.795181 kJ/mol
# GULP energy per Si atom -5575.058233 kJ/mol
# Density = 1.725121 g / cm^3
# Si number density = 17.290563 Si / 1000 Ang^3
#
#
#
# Elastic Constant Matrix: (Units=GPa)
#
#
# Indices 1 2 3 4 5 6 
#
# 1 45.9011 40.6534 66.0648 0.0000 0.0000 0.0000
# 2 40.6534 135.7835 72.7929 0.0000 0.0000 0.0000
# 3 66.0648 72.7929 157.8257 0.0000 0.0000 0.0000
# 4 0.0000 0.0000 0.0000 18.6827 0.0000 0.0000
# 5 0.0000 0.0000 0.0000 0.0000 36.7873 0.0000
# 6 0.0000 0.0000 0.0000 0.0000 0.0000 29.8760
#
#
#
# Elastic Compliance Matrix: (Units=1/GPa)
#
#
# Indices 1 2 3 4 5 6 
#
# 1 0.058031 -0.005781 -0.021625 0.000000 0.000000 0.000000
# 2 -0.005781 0.010360 -0.002358 0.000000 0.000000 0.000000
# 3 -0.021625 -0.002358 0.016476 0.000000 0.000000 0.000000
# 4 0.000000 0.000000 0.000000 0.053526 0.000000 0.000000
# 5 0.000000 0.000000 0.000000 0.000000 0.027183 0.000000
# 6 0.000000 0.000000 0.000000 0.000000 0.000000 0.033472
#
#
# Mechanical properties :
#
#
# Convention : Reuss Voigt Hill
#
# Bulk Modulus (GPa) = 39.46705 77.61473 58.54089
# Shear Modulus (GPa) = 18.72514 27.73580 23.23047
#
# Velocity S-wave (km/s) = 3.29442 4.00947 3.66940
# Velocity P-wave (km/s) = 6.11116 8.14987 7.20301
#
# Compressibility (1/GPa) = 0.02533759
#
# Stress axis : x y z
#
# Youngs Moduli (GPa) = 17.23231 96.52706 60.69551
#
# Poissons Ratio (x) = 0.55806 1.31252
# Poissons Ratio (y) = 0.09963 0.14313
# Poissons Ratio (z) = 0.37264 0.22762
#
# Static dielectric constant tensor:
#      x y z
#    x 1.588710 0.000000 0.000000 
#    y 0.000000 1.626620 0.000000 
#    z 0.000000 0.000000 1.560550 
# 
# From -- ./inp_files/19415.got.cif
#   From: 2010.05.17/outbox.cif.g08.bks.cpg/sg60_10_cif.got.tgz:19415.got - 2010.06.03 14:59:27.
