data_PCOD9455085
_publ_section_title
;
Structure prediction by ZEFSAII (Michael W. Deem and Ramdas Pophale) SiO2 
 PCOD9455085
Probable space group: P B C N
;
_chemical_formula_sum "Si O2"
_cell_formula_units_Z 64
_cell_length_a 6.178032
_cell_length_b 19.212676
_cell_length_c 27.270913
_cell_angle_alpha 90.000000
_cell_angle_beta 90.000000
_cell_angle_gamma 90.000000
_cell_volume 3236.962665
_symmetry_space_group_name_H-M "P B C N"
_symmetry_group_IT_number 60
_symmetry_cell_setting 'orthorhombic'
loop_
_space_group_symop_operation_xyz
x,y,z
1/2-x,1/2-y,1/2+z
1/2+x,1/2-y,-z
-x,y,1/2-z
-x,-y,-z
1/2+x,1/2+y,1/2-z
1/2-x,1/2+y,z
x,-y,1/2+z
loop_
_atom_site_type_symbol
_atom_site_label
_atom_site_fract_x
_atom_site_fract_y
_atom_site_fract_z
Si Si1 0.936137 0.195934 0.881825
Si Si2 0.199510 0.229976 0.441514
Si Si3 0.311770 0.329454 0.610201
Si Si4 0.158779 0.015443 0.135882
Si Si5 0.795634 0.919802 0.161628
Si Si6 0.952840 0.653842 0.488133
Si Si7 0.924764 0.589547 0.916375
Si Si8 0.754367 0.489674 0.755842
O O1 0.837733 0.270053 0.865966
O O2 0.753549 0.150538 0.909459
O O3 0.121112 0.218194 0.919970
O O4 0.042951 0.146049 0.841374
O O5 0.079240 0.272875 0.483456
O O6 0.314651 0.161742 0.462658
O O7 0.040305 0.206576 0.398992
O O8 0.330348 0.401940 0.637622
O O9 0.217944 0.348087 0.555886
O O10 0.301245 0.982748 0.092695
O O11 0.249889 0.987806 0.187687
O O12 0.919371 0.983546 0.134100
O O13 0.592320 0.901782 0.128042
O O14 0.746495 0.948751 0.215570
O O15 0.960402 0.597630 0.531222
O O16 0.500000 0.458719 0.750000
O O17 0.000000 0.455475 0.750000
#
# Coordination Sequence:
#
# PCOD9455085 Si02
#       8
#     8   8   8   8   8   8   8   8
#     4  10  20  35  61  93 121 160 216 267 321 374
#     4  11  19  35  57  85 119 172 212 261 315 381
#     4  11  23  37  57  89 130 174 218 264 321 397
#     4  10  24  39  59  95 126 165 212 264 342 400
#     4  10  20  37  67  95 117 161 214 269 327 395
#     4  11  20  32  57  83 123 169 220 259 315 377
#     4  11  20  37  61  89 123 162 213 274 314 386
#     4  10  20  41  69  99 119 165 215 272 332 414
#
# _framework density 19.771619000000001
#
# number of rings (size 3 to 8) (size 9 to 14) (size 15 to 20)
#    0.000    1.500    5.000    0.750    0.000    2.500 
#    0.000    1.250    0.000    3.750   13.000    0.000 
#    0.000    0.000    0.000    0.000    0.000    0.000 
#
# Total GULP energy -356367.202486 kJ/mol
# GULP energy per Si atom -5568.237539 kJ/mol
# Density = 1.972662 g / cm^3
# Si number density = 19.771619 Si / 1000 Ang^3
#
#
#
# Elastic Constant Matrix: (Units=GPa)
#
#
# Indices 1 2 3 4 5 6 
#
# 1 96.6886 27.1525 13.8930 0.0000 0.0000 0.0000
# 2 27.1525 96.7931 15.4485 0.0000 0.0000 0.0000
# 3 13.8930 15.4485 46.6931 0.0000 0.0000 0.0000
# 4 0.0000 0.0000 0.0000 10.2003 0.0000 0.0000
# 5 0.0000 0.0000 0.0000 0.0000 24.6518 0.0000
# 6 0.0000 0.0000 0.0000 0.0000 0.0000 12.8742
#
#
#
# Elastic Compliance Matrix: (Units=1/GPa)
#
#
# Indices 1 2 3 4 5 6 
#
# 1 0.011494 -0.002828 -0.002484 0.000000 0.000000 0.000000
# 2 -0.002828 0.011603 -0.002998 0.000000 0.000000 0.000000
# 3 -0.002484 -0.002998 0.023147 0.000000 0.000000 0.000000
# 4 0.000000 0.000000 0.000000 0.098037 0.000000 0.000000
# 5 0.000000 0.000000 0.000000 0.000000 0.040565 0.000000
# 6 0.000000 0.000000 0.000000 0.000000 0.000000 0.077675
#
#
# Mechanical properties :
#
#
# Convention : Reuss Voigt Hill
#
# Bulk Modulus (GPa) = 33.75535 39.24032 36.49783
# Shear Modulus (GPa) = 17.30018 21.79063 19.54541
#
# Velocity S-wave (km/s) = 2.96125 3.32342 3.14755
# Velocity P-wave (km/s) = 5.36672 5.88359 5.63109
#
# Compressibility (1/GPa) = 0.02962494
#
# Stress axis : x y z
#
# Youngs Moduli (GPa) = 87.00562 86.18500 43.20155
#
# Poissons Ratio (x) = 0.24370 0.10732
# Poissons Ratio (y) = 0.24602 0.12950
# Poissons Ratio (z) = 0.21614 0.25834
#
# Static dielectric constant tensor:
#      x y z
#    x 1.795940 0.000000 0.000000 
#    y 0.000000 1.701840 0.000000 
#    z 0.000000 0.000000 1.674790 
# 
# From -- ./inp_files/25822.got.cif
#   From: 2010.05.17/outbox.cif.g08.bks.cpg/sg60_13_cif.got.tgz:25822.got - 2010.06.03 14:59:27.
