data_PCOD9455923
_publ_section_title
;
Structure prediction by ZEFSAII (Michael W. Deem and Ramdas Pophale) SiO2 
 PCOD9455923
Probable space group: P B C N
;
_chemical_formula_sum "Si O2"
_cell_formula_units_Z 48
_cell_length_a 16.315731
_cell_length_b 10.044942
_cell_length_c 17.033546
_cell_angle_alpha 90.000000
_cell_angle_beta 90.000000
_cell_angle_gamma 90.000000
_cell_volume 2791.637590
_symmetry_space_group_name_H-M "P B C N"
_symmetry_group_IT_number 60
_symmetry_cell_setting 'orthorhombic'
loop_
_space_group_symop_operation_xyz
x,y,z
1/2-x,1/2-y,1/2+z
1/2+x,1/2-y,-z
-x,y,1/2-z
-x,-y,-z
1/2+x,1/2+y,1/2-z
1/2-x,1/2+y,z
x,-y,1/2+z
loop_
_atom_site_type_symbol
_atom_site_label
_atom_site_fract_x
_atom_site_fract_y
_atom_site_fract_z
Si Si1 0.497890 0.632209 0.550826
Si Si2 0.831815 0.791574 0.354918
Si Si3 0.513947 0.118758 0.939816
Si Si4 0.917675 0.219720 0.697225
Si Si5 0.323117 0.029614 0.650320
Si Si6 0.417333 0.976954 0.302955
O O1 0.500000 0.500000 0.500000
O O2 0.410979 0.666826 0.593199
O O3 0.517059 0.748828 0.489858
O O4 0.564052 0.631040 0.621703
O O5 0.850838 0.816055 0.262269
O O6 0.817696 0.631161 0.362307
O O7 0.755618 0.885918 0.374836
O O8 0.598300 0.085472 0.895799
O O9 0.440344 0.115801 0.875822
O O10 0.500000 0.000000 0.000000
O O11 0.905190 0.371351 0.668625
O O12 0.000000 0.221120 0.750000
O O13 0.344787 0.054129 0.742486
O O14 0.500000 0.979027 0.250000
#
# Coordination Sequence:
#
# PCOD9455923 Si02
#       6
#     8   8   8   8   8   8
#     4  11  22  36  58  88 115 150 192 239 286 335
#     4  10  21  39  58  81 113 151 191 234 290 339
#     4  11  18  36  62  82 107 150 195 228 279 345
#     4   8  15  34  57  74 102 145 183 219 269 334
#     4  10  21  37  58  83 113 149 191 238 286 340
#     4   8  15  32  57  78  98 141 192 219 261 335
#
# _framework density 17.194208
#
# number of rings (size 3 to 8) (size 9 to 14) (size 15 to 20)
#    0.000    2.333    3.333    2.000    2.333    0.000 
#    3.000    5.833    0.000    0.000    0.000    0.000 
#    0.000    0.000    0.000    0.000    0.000    0.000 
#
# Total GULP energy -267205.141261 kJ/mol
# GULP energy per Si atom -5566.773776 kJ/mol
# Density = 1.715507 g / cm^3
# Si number density = 17.194208 Si / 1000 Ang^3
#
#
#
# Elastic Constant Matrix: (Units=GPa)
#
#
# Indices 1 2 3 4 5 6 
#
# 1 73.8540 39.1443 27.7534 0.0000 0.0000 0.0000
# 2 39.1443 116.7055 63.5720 0.0000 0.0000 0.0000
# 3 27.7534 63.5720 105.4281 0.0000 0.0000 0.0000
# 4 0.0000 0.0000 0.0000 33.6502 0.0000 0.0000
# 5 0.0000 0.0000 0.0000 0.0000 21.4303 0.0000
# 6 0.0000 0.0000 0.0000 0.0000 0.0000 25.0100
#
#
#
# Elastic Compliance Matrix: (Units=1/GPa)
#
#
# Indices 1 2 3 4 5 6 
#
# 1 0.016628 -0.004754 -0.001510 0.000000 0.000000 0.000000
# 2 -0.004754 0.014119 -0.007262 0.000000 0.000000 0.000000
# 3 -0.001510 -0.007262 0.014262 0.000000 0.000000 0.000000
# 4 0.000000 0.000000 0.000000 0.029717 0.000000 0.000000
# 5 0.000000 0.000000 0.000000 0.000000 0.046663 0.000000
# 6 0.000000 0.000000 0.000000 0.000000 0.000000 0.039984
#
#
# Mechanical properties :
#
#
# Convention : Reuss Voigt Hill
#
# Bulk Modulus (GPa) = 55.69518 61.88078 58.78798
# Shear Modulus (GPa) = 25.71867 27.05264 26.38566
#
# Velocity S-wave (km/s) = 3.87172 3.97086 3.92160
# Velocity P-wave (km/s) = 7.24218 7.55586 7.40068
#
# Compressibility (1/GPa) = 0.01795488
#
# Stress axis : x y z
#
# Youngs Moduli (GPa) = 60.14049 70.82625 70.11814
#
# Poissons Ratio (x) = 0.33674 0.10590
# Poissons Ratio (y) = 0.28593 0.50920
# Poissons Ratio (z) = 0.09083 0.51434
#
# Static dielectric constant tensor:
#      x y z
#    x 1.613400 0.000000 0.000000 
#    y 0.000000 1.533240 0.000000 
#    z 0.000000 0.000000 1.604840 
# 
# From -- ./inp_files/20814.got.cif
#   From: 2010.05.17/outbox.cif.g08.bks.cpg/sg60_11_cif.got.tgz:20814.got - 2010.06.03 14:59:27.
