data_PCOD9455074
_publ_section_title
;
Structure prediction by ZEFSAII (Michael W. Deem and Ramdas Pophale) SiO2 
 PCOD9455074
Probable space group: P B C N
;
_chemical_formula_sum "Si O2"
_cell_formula_units_Z 40
_cell_length_a 15.123573
_cell_length_b 9.888688
_cell_length_c 11.448297
_cell_angle_alpha 90.000000
_cell_angle_beta 90.000000
_cell_angle_gamma 90.000000
_cell_volume 1712.119088
_symmetry_space_group_name_H-M "P B C N"
_symmetry_group_IT_number 60
_symmetry_cell_setting 'orthorhombic'
loop_
_space_group_symop_operation_xyz
x,y,z
1/2-x,1/2-y,1/2+z
1/2+x,1/2-y,-z
-x,y,1/2-z
-x,-y,-z
1/2+x,1/2+y,1/2-z
1/2-x,1/2+y,z
x,-y,1/2+z
loop_
_atom_site_type_symbol
_atom_site_label
_atom_site_fract_x
_atom_site_fract_y
_atom_site_fract_z
Si Si1 0.317259 0.316517 0.495200
Si Si2 0.649503 0.014717 0.267155
Si Si3 0.451643 0.482015 0.625096
Si Si4 0.148156 0.507267 0.487828
Si Si5 0.177256 0.171697 0.739122
O O1 0.381051 0.362917 0.598516
O O2 0.225074 0.395422 0.496841
O O3 0.358642 0.357250 0.369674
O O4 0.307629 0.155993 0.489898
O O5 0.597422 0.001370 0.389108
O O6 0.686616 0.167932 0.266843
O O7 0.731821 0.910714 0.271682
O O8 0.605942 0.993197 0.140297
O O9 0.500000 0.455260 0.750000
O O10 0.500000 0.500000 0.500000
O O11 0.393321 0.616255 0.647876
#
# Coordination Sequence:
#
# PCOD9455074 Si02
#       5
#     8   8   8   8   8
#     4  10  21  38  61  92 119 147 194 244 298 344
#     4  10  20  35  59  94 121 148 182 247 308 345
#     4  12  24  40  60  84 114 165 203 232 273 351
#     4  10  20  35  59  94 121 146 184 245 309 344
#     4  10  21  38  61  92 119 149 192 245 301 340
#
# _framework density 23.362860999999999
#
# number of rings (size 3 to 8) (size 9 to 14) (size 15 to 20)
#    0.000    1.600    4.000    1.200    0.000    0.000 
#    3.600    0.000    0.000    2.400    0.000    0.000 
#    0.000    0.000    0.000    0.000    0.000    0.000 
#
# Total GULP energy -223022.059475 kJ/mol
# GULP energy per Si atom -5575.551487 kJ/mol
# Density = 2.330969 g / cm^3
# Si number density = 23.362861 Si / 1000 Ang^3
#
#
#
# Elastic Constant Matrix: (Units=GPa)
#
#
# Indices 1 2 3 4 5 6 
#
# 1 63.3297 5.4961 53.9534 0.0000 0.0000 0.0000
# 2 5.4961 44.0870 23.2869 0.0000 0.0000 0.0000
# 3 53.9534 23.2869 270.7951 0.0000 0.0000 0.0000
# 4 0.0000 0.0000 0.0000 38.5649 0.0000 0.0000
# 5 0.0000 0.0000 0.0000 0.0000 22.3475 0.0000
# 6 0.0000 0.0000 0.0000 0.0000 0.0000 -5.1948
#
#
#
# Elastic Compliance Matrix: (Units=1/GPa)
#
#
# Indices 1 2 3 4 5 6 
#
# 1 0.019025 -0.000387 -0.003757 0.000000 0.000000 0.000000
# 2 -0.000387 0.023770 -0.001967 0.000000 0.000000 0.000000
# 3 -0.003757 -0.001967 0.004611 0.000000 0.000000 0.000000
# 4 0.000000 0.000000 0.000000 0.025930 0.000000 0.000000
# 5 0.000000 0.000000 0.000000 0.000000 0.044748 0.000000
# 6 0.000000 0.000000 0.000000 0.000000 0.000000 -0.192500
#
#
# Mechanical properties :
#
#
# Convention : Reuss Voigt Hill
#
# Bulk Modulus (GPa) = 28.42325 60.40940 44.41632
# Shear Modulus (GPa) = -99.07517 30.84188 -34.11665
#
# Velocity S-wave (km/s) = -6.51914 3.63729 -3.82553
# Velocity P-wave (km/s) = 6.66882 6.59947 0.67829
#
# Compressibility (1/GPa) = 0.03518247
#
# Stress axis : x y z
#
# Youngs Moduli (GPa) = 52.56257 42.07053 216.89298
#
# Poissons Ratio (x) = 0.01629 0.81492
# Poissons Ratio (y) = 0.02035 0.42661
# Poissons Ratio (z) = 0.19749 0.08275
#
# Static dielectric constant tensor:
#      x y z
#    x 1.842220 0.000000 0.000000 
#    y 0.000000 1.838810 0.000000 
#    z 0.000000 0.000000 2.029780 
# 
# From -- ./inp_files/12751.got.cif
#   From: 2010.05.17/outbox.cif.g08.bks.cpg/sg60_7_cif.got.tgz:12751.got - 2010.06.03 14:59:27.
