data_PCOD9455904
_publ_section_title
;
Structure prediction by ZEFSAII (Michael W. Deem and Ramdas Pophale) SiO2 
 PCOD9455904
Probable space group: P B C N
;
_chemical_formula_sum "Si O2"
_cell_formula_units_Z 32
_cell_length_a 5.221128
_cell_length_b 16.582056
_cell_length_c 13.534860
_cell_angle_alpha 90.000000
_cell_angle_beta 90.000000
_cell_angle_gamma 90.000000
_cell_volume 1171.808073
_symmetry_space_group_name_H-M "P B C N"
_symmetry_group_IT_number 60
_symmetry_cell_setting 'orthorhombic'
loop_
_space_group_symop_operation_xyz
x,y,z
1/2-x,1/2-y,1/2+z
1/2+x,1/2-y,-z
-x,y,1/2-z
-x,-y,-z
1/2+x,1/2+y,1/2-z
1/2-x,1/2+y,z
x,-y,1/2+z
loop_
_atom_site_type_symbol
_atom_site_label
_atom_site_fract_x
_atom_site_fract_y
_atom_site_fract_z
Si Si1 0.408631 0.562094 0.147767
Si Si2 0.666245 0.771101 0.871766
Si Si3 0.407300 0.001040 0.365096
Si Si4 0.162659 0.682181 0.895826
O O1 0.500000 0.520585 0.250000
O O2 0.277901 0.647000 0.174067
O O3 0.692711 0.566235 0.101566
O O4 0.188794 0.515861 0.088058
O O5 0.387107 0.736397 0.848649
O O6 0.881776 0.703726 0.857015
O O7 0.665742 0.795153 0.988308
O O8 0.500000 0.009459 0.250000
O O9 0.297594 0.912393 0.381772
#
# Coordination Sequence:
#
# PCOD9455904 Si02
#       4
#     8   8   8   8
#     4  10  21  37  56  81 113 147 187 233 280 335
#     4  10  21  37  57  83 114 148 190 236 281 336
#     4  10  21  37  56  81 113 147 187 233 280 335
#     4  10  21  37  57  83 114 148 190 236 281 336
#
# _framework density 27.308228
#
# number of rings (size 3 to 8) (size 9 to 14) (size 15 to 20)
#    0.000    2.000    0.000    3.000    0.000    3.000 
#    0.000    2.500    0.000    0.000    0.000    0.000 
#    0.000    0.000    0.000    0.000    0.000    0.000 
#
# Total GULP energy -178997.265395 kJ/mol
# GULP energy per Si atom -5593.664544 kJ/mol
# Density = 2.724607 g / cm^3
# Si number density = 27.308228 Si / 1000 Ang^3
#
#
#
# Elastic Constant Matrix: (Units=GPa)
#
#
# Indices 1 2 3 4 5 6 
#
# 1 257.6762 69.2846 15.0787 0.0000 0.0000 0.0000
# 2 69.2846 138.5463 3.7635 0.0000 0.0000 0.0000
# 3 15.0787 3.7635 66.4077 0.0000 0.0000 0.0000
# 4 0.0000 0.0000 0.0000 36.3111 0.0000 0.0000
# 5 0.0000 0.0000 0.0000 0.0000 29.0158 0.0000
# 6 0.0000 0.0000 0.0000 0.0000 0.0000 53.1674
#
#
#
# Elastic Compliance Matrix: (Units=1/GPa)
#
#
# Indices 1 2 3 4 5 6 
#
# 1 0.004537 -0.002244 -0.000903 0.000000 0.000000 0.000000
# 2 -0.002244 0.008339 0.000037 0.000000 0.000000 0.000000
# 3 -0.000903 0.000037 0.015261 0.000000 0.000000 0.000000
# 4 0.000000 0.000000 0.000000 0.027540 0.000000 0.000000
# 5 0.000000 0.000000 0.000000 0.000000 0.034464 0.000000
# 6 0.000000 0.000000 0.000000 0.000000 0.000000 0.018809
#
#
# Mechanical properties :
#
#
# Convention : Reuss Voigt Hill
#
# Bulk Modulus (GPa) = 45.62682 70.98709 58.30695
# Shear Modulus (GPa) = 40.82412 48.66576 44.74494
#
# Velocity S-wave (km/s) = 3.87064 4.22606 4.05225
# Velocity P-wave (km/s) = 6.05971 7.06144 6.57967
#
# Compressibility (1/GPa) = 0.02191694
#
# Stress axis : x y z
#
# Youngs Moduli (GPa) = 220.40165 119.91562 65.52465
#
# Poissons Ratio (x) = 0.26914 0.05917
# Poissons Ratio (y) = 0.49468 -0.00243
# Poissons Ratio (z) = 0.19903 -0.00444
#
# Static dielectric constant tensor:
#      x y z
#    x 2.363770 0.000000 0.000000 
#    y 0.000000 2.016440 0.000000 
#    z 0.000000 0.000000 2.382170 
# 
# From -- ./inp_files/18381.got.cif
#   From: 2010.05.17/outbox.cif.g08.bks.cpg/sg60_10_cif.got.tgz:18381.got - 2010.06.03 14:59:27.
