data_PCOD9455701
_publ_section_title
;
Structure prediction by ZEFSAII (Michael W. Deem and Ramdas Pophale) SiO2 
 PCOD9455701
Probable space group: P B C N
;
_chemical_formula_sum "Si O2"
_cell_formula_units_Z 36
_cell_length_a 7.386374
_cell_length_b 9.872450
_cell_length_c 18.652718
_cell_angle_alpha 90.000000
_cell_angle_beta 90.000000
_cell_angle_gamma 90.000000
_cell_volume 1360.186190
_symmetry_space_group_name_H-M "P B C N"
_symmetry_group_IT_number 60
_symmetry_cell_setting 'orthorhombic'
loop_
_space_group_symop_operation_xyz
x,y,z
1/2-x,1/2-y,1/2+z
1/2+x,1/2-y,-z
-x,y,1/2-z
-x,-y,-z
1/2+x,1/2+y,1/2-z
1/2-x,1/2+y,z
x,-y,1/2+z
loop_
_atom_site_type_symbol
_atom_site_label
_atom_site_fract_x
_atom_site_fract_y
_atom_site_fract_z
Si Si1 0.754739 0.909170 0.557767
Si Si2 0.500000 0.006319 0.250000
Si Si3 0.296188 0.408058 0.315744
Si Si4 0.165508 0.343895 0.529243
Si Si5 0.859971 0.242749 0.826642
O O1 0.842166 0.770961 0.531176
O O2 0.535012 0.894081 0.551745
O O3 0.827985 0.960000 0.635011
O O4 0.782799 0.032942 0.501483
O O5 0.639691 0.117234 0.282551
O O6 0.579085 0.914315 0.186724
O O7 0.431560 0.297235 0.346055
O O8 0.316455 0.376558 0.229721
O O9 0.241186 0.269116 0.600051
#
# Coordination Sequence:
#
# PCOD9455701 Si02
#       5
#     8   4   8   8   8
#     4  11  25  45  72 105 146 190 232 297 353 430
#     4  10  20  42  66  90 136 174 234 280 352 406
#     4  10  22  42  70  94 139 182 229 295 345 413
#     4  11  25  45  70 105 146 185 239 288 364 422
#     4  10  24  43  66 101 135 185 229 297 339 433
#
# _framework density 26.466961999999999
#
# number of rings (size 3 to 8) (size 9 to 14) (size 15 to 20)
#    0.000    1.778    2.222    1.333    6.222    3.556 
#    4.000    8.889    0.000    0.000    0.000    0.000 
#    0.000    0.000    0.000    0.000    0.000    0.000 
#
# Total GULP energy -200405.640523 kJ/mol
# GULP energy per Si atom -5566.823348 kJ/mol
# Density = 2.640672 g / cm^3
# Si number density = 26.466962 Si / 1000 Ang^3
#
#
#
# Elastic Constant Matrix: (Units=GPa)
#
#
# Indices 1 2 3 4 5 6 
#
# 1 49.9348 39.4978 19.8687 0.0000 0.0000 0.0000
# 2 39.4978 140.0040 49.9153 0.0000 0.0000 0.0000
# 3 19.8687 49.9153 149.3167 0.0000 0.0000 0.0000
# 4 0.0000 0.0000 0.0000 52.7989 0.0000 0.0000
# 5 0.0000 0.0000 0.0000 0.0000 27.9049 0.0000
# 6 0.0000 0.0000 0.0000 0.0000 0.0000 36.3493
#
#
#
# Elastic Compliance Matrix: (Units=1/GPa)
#
#
# Indices 1 2 3 4 5 6 
#
# 1 0.025949 -0.006914 -0.001142 0.000000 0.000000 0.000000
# 2 -0.006914 0.009951 -0.002407 0.000000 0.000000 0.000000
# 3 -0.001142 -0.002407 0.007654 0.000000 0.000000 0.000000
# 4 0.000000 0.000000 0.000000 0.018940 0.000000 0.000000
# 5 0.000000 0.000000 0.000000 0.000000 0.035836 0.000000
# 6 0.000000 0.000000 0.000000 0.000000 0.000000 0.027511
#
#
# Mechanical properties :
#
#
# Convention : Reuss Voigt Hill
#
# Bulk Modulus (GPa) = 44.18955 61.97991 53.08473
# Shear Modulus (GPa) = 32.40280 38.74220 35.57250
#
# Velocity S-wave (km/s) = 3.50276 3.83011 3.67008
# Velocity P-wave (km/s) = 5.75252 6.55960 6.16927
#
# Compressibility (1/GPa) = 0.02262979
#
# Stress axis : x y z
#
# Youngs Moduli (GPa) = 38.53711 100.49077 130.65729
#
# Poissons Ratio (x) = 0.69476 0.14917
# Poissons Ratio (y) = 0.26643 0.31444
# Poissons Ratio (z) = 0.04400 0.24184
#
# Static dielectric constant tensor:
#      x y z
#    x 2.417660 0.000000 0.000000 
#    y 0.000000 2.029360 0.000000 
#    z 0.000000 0.000000 2.251010 
# 
# From -- ./inp_files/21903.got.cif
#   From: 2010.05.17/outbox.cif.g08.bks.cpg/sg60_11_cif.got.tgz:21903.got - 2010.06.03 14:59:27.
