data_PCOD9455395
_publ_section_title
;
Structure prediction by ZEFSAII (Michael W. Deem and Ramdas Pophale) SiO2 
 PCOD9455395
Probable space group: P B C N
;
_chemical_formula_sum "Si O2"
_cell_formula_units_Z 48
_cell_length_a 13.297098
_cell_length_b 13.468645
_cell_length_c 14.739080
_cell_angle_alpha 90.000000
_cell_angle_beta 90.000000
_cell_angle_gamma 90.000000
_cell_volume 2639.679209
_symmetry_space_group_name_H-M "P B C N"
_symmetry_group_IT_number 60
_symmetry_cell_setting 'orthorhombic'
loop_
_space_group_symop_operation_xyz
x,y,z
1/2-x,1/2-y,1/2+z
1/2+x,1/2-y,-z
-x,y,1/2-z
-x,-y,-z
1/2+x,1/2+y,1/2-z
1/2-x,1/2+y,z
x,-y,1/2+z
loop_
_atom_site_type_symbol
_atom_site_label
_atom_site_fract_x
_atom_site_fract_y
_atom_site_fract_z
Si Si1 0.500000 0.488343 0.750000
Si Si2 0.745304 0.873357 0.602085
Si Si3 0.500000 0.151810 0.750000
Si Si4 0.753971 0.821034 0.987139
Si Si5 0.418334 0.961120 0.428072
Si Si6 0.164434 0.819602 0.711947
Si Si7 0.584558 0.535429 0.568540
O O1 0.589334 0.414985 0.783865
O O2 0.536829 0.553752 0.666513
O O3 0.745625 0.789361 0.526104
O O4 0.765214 0.824764 0.699812
O O5 0.649067 0.944309 0.600027
O O6 0.839522 0.944443 0.582853
O O7 0.533857 0.088293 0.662171
O O8 0.592062 0.223779 0.779769
O O9 0.770937 0.821629 0.879465
O O10 0.656657 0.881670 0.023054
O O11 0.851370 0.875016 0.029401
O O12 0.500000 0.000000 0.500000
O O13 0.500000 0.500000 0.500000
#
# Coordination Sequence:
#
# PCOD9455395 Si02
#       7
#     4   8   4   8   8   8   8
#     4   9  18  36  61  90 118 154 199 248 307 366
#     4  10  23  41  58  95 124 154 211 256 308 375
#     4  11  22  42  67  92 124 174 211 250 331 382
#     4  11  22  41  62  90 124 162 210 256 312 368
#     4  11  25  41  64  91 126 170 211 259 314 383
#     4  10  20  38  67  85 122 164 200 258 310 371
#     4  10  20  38  63  90 120 156 199 254 309 367
#
# _framework density 18.184028000000001
#
# number of rings (size 3 to 8) (size 9 to 14) (size 15 to 20)
#    0.000    1.667    3.333    1.000    2.333    1.333 
#    3.000    0.833    0.000    0.000    0.000    0.000 
#    0.000    0.000    0.000    0.000    0.000    0.000 
#
# Total GULP energy -268001.846528 kJ/mol
# GULP energy per Si atom -5583.371803 kJ/mol
# Density = 1.814264 g / cm^3
# Si number density = 18.184028 Si / 1000 Ang^3
#
#
#
# Elastic Constant Matrix: (Units=GPa)
#
#
# Indices 1 2 3 4 5 6 
#
# 1 97.1841 20.6568 51.9455 0.0000 0.0000 0.0000
# 2 20.6568 34.0775 5.7394 0.0000 0.0000 0.0000
# 3 51.9455 5.7394 120.7104 0.0000 0.0000 0.0000
# 4 0.0000 0.0000 0.0000 26.9058 0.0000 0.0000
# 5 0.0000 0.0000 0.0000 0.0000 39.7632 0.0000
# 6 0.0000 0.0000 0.0000 0.0000 0.0000 7.3519
#
#
#
# Elastic Compliance Matrix: (Units=1/GPa)
#
#
# Indices 1 2 3 4 5 6 
#
# 1 0.015374 -0.008271 -0.006223 0.000000 0.000000 0.000000
# 2 -0.008271 0.034032 0.001941 0.000000 0.000000 0.000000
# 3 -0.006223 0.001941 0.010870 0.000000 0.000000 0.000000
# 4 0.000000 0.000000 0.000000 0.037167 0.000000 0.000000
# 5 0.000000 0.000000 0.000000 0.000000 0.025149 0.000000
# 6 0.000000 0.000000 0.000000 0.000000 0.000000 0.136019
#
#
# Mechanical properties :
#
#
# Convention : Reuss Voigt Hill
#
# Bulk Modulus (GPa) = 28.43311 45.40618 36.91965
# Shear Modulus (GPa) = 16.92400 26.37954 21.65177
#
# Velocity S-wave (km/s) = 3.05406 3.81294 3.45440
# Velocity P-wave (km/s) = 5.30157 6.66402 6.02145
#
# Compressibility (1/GPa) = 0.03517026
#
# Stress axis : x y z
#
# Youngs Moduli (GPa) = 65.04566 29.38439 91.99835
#
# Poissons Ratio (x) = 0.24304 0.57247
# Poissons Ratio (y) = 0.53800 -0.17859
# Poissons Ratio (z) = 0.40475 -0.05704
#
# Static dielectric constant tensor:
#      x y z
#    x 2.818230 0.000000 0.000000 
#    y 0.000000 1.548570 0.000000 
#    z 0.000000 0.000000 1.613630 
# 
# From -- ./inp_files/11932.got.cif
#   From: 2010.05.17/outbox.cif.g08.bks.cpg/sg60_6_cif.got.tgz:11932.got - 2010.06.03 14:59:27.
