data_PCOD9455928
_publ_section_title
;
Structure prediction by ZEFSAII (Michael W. Deem and Ramdas Pophale) SiO2 
 PCOD9455928
Probable space group: P B C N
;
_chemical_formula_sum "Si O2"
_cell_formula_units_Z 64
_cell_length_a 8.183584
_cell_length_b 14.737835
_cell_length_c 24.317311
_cell_angle_alpha 90.000000
_cell_angle_beta 90.000000
_cell_angle_gamma 90.000000
_cell_volume 2932.869800
_symmetry_space_group_name_H-M "P B C N"
_symmetry_group_IT_number 60
_symmetry_cell_setting 'orthorhombic'
loop_
_space_group_symop_operation_xyz
x,y,z
1/2-x,1/2-y,1/2+z
1/2+x,1/2-y,-z
-x,y,1/2-z
-x,-y,-z
1/2+x,1/2+y,1/2-z
1/2-x,1/2+y,z
x,-y,1/2+z
loop_
_atom_site_type_symbol
_atom_site_label
_atom_site_fract_x
_atom_site_fract_y
_atom_site_fract_z
Si Si1 0.333771 0.417113 0.634564
Si Si2 0.377951 0.235791 0.329258
Si Si3 0.189986 0.654755 0.903574
Si Si4 0.153278 0.857483 0.904397
Si Si5 0.669241 0.890306 0.977183
Si Si6 0.641940 0.897490 0.366452
Si Si7 0.813263 0.392334 0.485761
Si Si8 0.250607 0.739257 0.209889
O O1 0.522558 0.427936 0.617782
O O2 0.250011 0.368617 0.581015
O O3 0.235354 0.508935 0.645402
O O4 0.333260 0.350440 0.686107
O O5 0.339933 0.327083 0.363511
O O6 0.317963 0.152113 0.367797
O O7 0.563998 0.232957 0.311815
O O8 0.263689 0.239251 0.275438
O O9 0.096851 0.752537 0.900097
O O10 0.250767 0.639759 0.965449
O O11 0.049675 0.586850 0.882833
O O12 0.181315 0.874068 0.968288
O O13 0.483582 0.858266 0.987691
O O14 0.670510 0.999556 0.978685
O O15 0.714700 0.858246 0.424147
O O16 0.666511 0.827532 0.316927
#
# Coordination Sequence:
#
# PCOD9455928 Si02
#       8
#     8   8   8   8   8   8   8   8
#     4  11  23  37  62  91 119 161 196 245 305 356
#     4   9  23  39  61  87 115 158 202 256 295 351
#     4   9  20  38  58  88 119 157 197 237 305 346
#     4  10  21  37  58  89 120 157 199 238 303 353
#     4   9  19  34  57  86 122 156 192 243 286 358
#     4  10  22  39  61  89 120 157 199 243 302 361
#     4   9  19  36  55  87 123 151 196 241 291 355
#     4  11  21  43  62  82 121 154 204 251 299 357
#
# _framework density 21.821631
#
# number of rings (size 3 to 8) (size 9 to 14) (size 15 to 20)
#    0.750    1.500    1.250    1.500    1.750    6.000 
#    0.000    6.250    0.000    0.000    0.000    0.000 
#    0.000    0.000    0.000    0.000    0.000    0.000 
#
# Total GULP energy -356779.961117 kJ/mol
# GULP energy per Si atom -5574.686892 kJ/mol
# Density = 2.177196 g / cm^3
# Si number density = 21.821631 Si / 1000 Ang^3
#
#
#
# Elastic Constant Matrix: (Units=GPa)
#
#
# Indices 1 2 3 4 5 6 
#
# 1 16.3292 -7.4746 -12.8097 0.0000 0.0000 0.0000
# 2 -7.4746 37.7846 -6.9548 0.0000 0.0000 0.0000
# 3 -12.8097 -6.9548 75.7130 0.0000 0.0000 0.0000
# 4 0.0000 0.0000 0.0000 -9.6352 0.0000 0.0000
# 5 0.0000 0.0000 0.0000 0.0000 28.4279 0.0000
# 6 0.0000 0.0000 0.0000 0.0000 0.0000 16.7192
#
#
#
# Elastic Compliance Matrix: (Units=1/GPa)
#
#
# Indices 1 2 3 4 5 6 
#
# 1 0.082325 0.019173 0.015690 0.000000 0.000000 0.000000
# 2 0.019173 0.031386 0.006127 0.000000 0.000000 0.000000
# 3 0.015690 0.006127 0.016425 0.000000 0.000000 0.000000
# 4 0.000000 0.000000 0.000000 -0.103786 0.000000 0.000000
# 5 0.000000 0.000000 0.000000 0.000000 0.035177 0.000000
# 6 0.000000 0.000000 0.000000 0.000000 0.000000 0.059811
#
#
# Mechanical properties :
#
#
# Convention : Reuss Voigt Hill
#
# Bulk Modulus (GPa) = 4.71440 8.37207 6.54324
# Shear Modulus (GPa) = 45.42815 17.57343 31.50079
#
# Velocity S-wave (km/s) = 4.56762 2.84090 3.80354
# Velocity P-wave (km/s) = 5.47564 3.82176 4.72168
#
# Compressibility (1/GPa) = 0.21211586
#
# Stress axis : x y z
#
# Youngs Moduli (GPa) = 12.14705 31.86084 60.88260
#
# Poissons Ratio (x) = -0.61088 -0.95522
# Poissons Ratio (y) = -0.23290 -0.37303
# Poissons Ratio (z) = -0.19058 -0.19521
#
# Static dielectric constant tensor:
#      x y z
#    x 1.855630 0.000000 0.000000 
#    y 0.000000 1.816100 0.000000 
#    z 0.000000 0.000000 1.807080 
# 
# From -- ./inp_files/24136.got.cif
#   From: 2010.05.17/outbox.cif.g08.bks.cpg/sg60_13_cif.got.tgz:24136.got - 2010.06.03 14:59:27.
