data_PCOD9455341
_publ_section_title
;
Structure prediction by ZEFSAII (Michael W. Deem and Ramdas Pophale) SiO2 
 PCOD9455341
Probable space group: P B C N
;
_chemical_formula_sum "Si O2"
_cell_formula_units_Z 48
_cell_length_a 9.099876
_cell_length_b 9.400746
_cell_length_c 23.567562
_cell_angle_alpha 90.000000
_cell_angle_beta 90.000000
_cell_angle_gamma 90.000000
_cell_volume 2016.101772
_symmetry_space_group_name_H-M "P B C N"
_symmetry_group_IT_number 60
_symmetry_cell_setting 'orthorhombic'
loop_
_space_group_symop_operation_xyz
x,y,z
1/2-x,1/2-y,1/2+z
1/2+x,1/2-y,-z
-x,y,1/2-z
-x,-y,-z
1/2+x,1/2+y,1/2-z
1/2-x,1/2+y,z
x,-y,1/2+z
loop_
_atom_site_type_symbol
_atom_site_label
_atom_site_fract_x
_atom_site_fract_y
_atom_site_fract_z
Si Si1 0.099354 0.067774 0.308192
Si Si2 0.840759 0.738890 0.827887
Si Si3 0.649252 0.587633 0.505214
Si Si4 0.655628 0.729663 0.720758
Si Si5 0.668684 0.044612 0.390027
Si Si6 0.100017 0.590028 0.455375
O O1 0.259497 0.136040 0.304002
O O2 0.000000 0.058859 0.250000
O O3 0.999337 0.188063 0.337843
O O4 0.119929 0.901553 0.321752
O O5 0.780991 0.678742 0.767607
O O6 0.820452 0.619704 0.875031
O O7 0.731572 0.868655 0.838036
O O8 0.500000 0.500000 0.500000
O O9 0.732559 0.580925 0.444709
O O10 0.627247 0.750655 0.522955
O O11 0.751537 0.499229 0.548486
O O12 0.500000 0.763426 0.750000
O O13 0.502714 0.090710 0.400970
O O14 0.000000 0.500000 0.500000
#
# Coordination Sequence:
#
# PCOD9455341 Si02
#       6
#     8   8   8   8   8   8
#     4   9  20  37  58  84 116 157 199 236 294 374
#     4  11  22  39  62  90 122 156 202 264 310 351
#     4  11  21  39  63  86 120 166 208 250 307 386
#     4  10  20  38  60  84 115 158 199 236 296 373
#     4  11  22  39  61  90 122 156 204 263 312 355
#     4  10  21  38  60  88 119 163 207 243 308 387
#
# _framework density 23.808323000000001
#
# number of rings (size 3 to 8) (size 9 to 14) (size 15 to 20)
#    0.000    1.667    0.000    8.000    0.000    3.333 
#    0.000    8.333    0.000    0.000    0.000    0.000 
#    0.000    0.000    0.000    0.000    0.000    0.000 
#
# Total GULP energy -268047.413806 kJ/mol
# GULP energy per Si atom -5584.321121 kJ/mol
# Density = 2.375413 g / cm^3
# Si number density = 23.808323 Si / 1000 Ang^3
#
#
#
# Elastic Constant Matrix: (Units=GPa)
#
#
# Indices 1 2 3 4 5 6 
#
# 1 160.6490 62.4516 11.8552 0.0000 0.0000 0.0000
# 2 62.4516 155.7439 5.7656 0.0000 0.0000 0.0000
# 3 11.8552 5.7656 20.7416 0.0000 0.0000 0.0000
# 4 0.0000 0.0000 0.0000 13.8402 0.0000 0.0000
# 5 0.0000 0.0000 0.0000 0.0000 34.4574 0.0000
# 6 0.0000 0.0000 0.0000 0.0000 0.0000 44.8939
#
#
#
# Elastic Compliance Matrix: (Units=1/GPa)
#
#
# Indices 1 2 3 4 5 6 
#
# 1 0.007624 -0.002926 -0.003544 0.000000 0.000000 0.000000
# 2 -0.002926 0.007610 -0.000443 0.000000 0.000000 0.000000
# 3 -0.003544 -0.000443 0.050361 0.000000 0.000000 0.000000
# 4 0.000000 0.000000 0.000000 0.072253 0.000000 0.000000
# 5 0.000000 0.000000 0.000000 0.000000 0.029021 0.000000
# 6 0.000000 0.000000 0.000000 0.000000 0.000000 0.022275
#
#
# Mechanical properties :
#
#
# Convention : Reuss Voigt Hill
#
# Bulk Modulus (GPa) = 19.31656 55.25325 37.28491
# Shear Modulus (GPa) = 22.70382 35.77576 29.23979
#
# Velocity S-wave (km/s) = 3.09141 3.88062 3.50828
# Velocity P-wave (km/s) = 4.56874 6.58307 5.66614
#
# Compressibility (1/GPa) = 0.05176904
#
# Stress axis : x y z
#
# Youngs Moduli (GPa) = 131.17001 131.39875 19.85653
#
# Poissons Ratio (x) = 0.38445 0.07037
# Poissons Ratio (y) = 0.38378 0.00880
# Poissons Ratio (z) = 0.46489 0.05824
#
# Static dielectric constant tensor:
#      x y z
#    x 1.915030 0.000000 0.000000 
#    y 0.000000 1.816090 0.000000 
#    z 0.000000 0.000000 2.103600 
# 
# From -- ./inp_files/25912.got.cif
#   From: 2010.05.17/outbox.cif.g08.bks.cpg/sg60_13_cif.got.tgz:25912.got - 2010.06.03 14:59:27.
