data_PCOD9455648
_publ_section_title
;
Structure prediction by ZEFSAII (Michael W. Deem and Ramdas Pophale) SiO2 
 PCOD9455648
Probable space group: P B C N
;
_chemical_formula_sum "Si O2"
_cell_formula_units_Z 56
_cell_length_a 15.344892
_cell_length_b 9.852329
_cell_length_c 19.282893
_cell_angle_alpha 90.000000
_cell_angle_beta 90.000000
_cell_angle_gamma 90.000000
_cell_volume 2915.244156
_symmetry_space_group_name_H-M "P B C N"
_symmetry_group_IT_number 60
_symmetry_cell_setting 'orthorhombic'
loop_
_space_group_symop_operation_xyz
x,y,z
1/2-x,1/2-y,1/2+z
1/2+x,1/2-y,-z
-x,y,1/2-z
-x,-y,-z
1/2+x,1/2+y,1/2-z
1/2-x,1/2+y,z
x,-y,1/2+z
loop_
_atom_site_type_symbol
_atom_site_label
_atom_site_fract_x
_atom_site_fract_y
_atom_site_fract_z
Si Si1 0.714481 0.191062 0.611439
Si Si2 0.338316 0.458290 0.938906
Si Si3 0.402595 0.092655 0.768268
Si Si4 0.521317 0.526298 0.676361
Si Si5 0.138977 0.720420 0.280966
Si Si6 0.767280 0.290859 0.343183
Si Si7 0.654107 0.516042 0.407547
O O1 0.688972 0.301698 0.554652
O O2 0.786397 0.262636 0.660723
O O3 0.758055 0.054891 0.582716
O O4 0.633891 0.155818 0.660859
O O5 0.407780 0.464050 0.876119
O O6 0.371062 0.516420 0.011709
O O7 0.500000 0.131740 0.750000
O O8 0.396568 0.930740 0.777587
O O9 0.338693 0.140413 0.706914
O O10 0.500000 0.455330 0.750000
O O11 0.566191 0.668936 0.698722
O O12 0.430446 0.528165 0.636089
O O13 0.188106 0.750199 0.208572
O O14 0.728782 0.403604 0.394634
O O15 0.808847 0.159623 0.380031
#
# Coordination Sequence:
#
# PCOD9455648 Si02
#       7
#     8   8   8   8   8   8   8
#     4  10  22  40  64  91 124 174 211 265 324 389
#     4  11  24  43  65  93 135 169 220 265 332 389
#     4  11  23  37  64  97 127 162 218 277 318 370
#     4  11  24  39  69  97 126 167 218 265 325 386
#     4  10  20  41  64  94 124 165 211 265 323 382
#     4  11  24  40  64  94 130 169 220 260 331 382
#     4  12  25  43  66  96 130 177 212 273 323 399
#
# _framework density 19.209368999999999
#
# number of rings (size 3 to 8) (size 9 to 14) (size 15 to 20)
#    0.000    1.143    4.286    1.714    6.000    0.000 
#    0.000    0.000    0.000    1.714    0.000    0.000 
#    0.000    0.000    0.000    0.000    0.000    0.000 
#
# Total GULP energy -312727.934146 kJ/mol
# GULP energy per Si atom -5584.427395 kJ/mol
# Density = 1.916565 g / cm^3
# Si number density = 19.209369 Si / 1000 Ang^3
#
#
#
# Elastic Constant Matrix: (Units=GPa)
#
#
# Indices 1 2 3 4 5 6 
#
# 1 103.3324 44.1137 24.8258 0.0000 0.0000 0.0000
# 2 44.1137 104.5847 12.3874 0.0000 0.0000 0.0000
# 3 24.8258 12.3874 86.6154 0.0000 0.0000 0.0000
# 4 0.0000 0.0000 0.0000 18.0506 0.0000 0.0000
# 5 0.0000 0.0000 0.0000 0.0000 18.8496 0.0000
# 6 0.0000 0.0000 0.0000 0.0000 0.0000 -1.0261
#
#
#
# Elastic Compliance Matrix: (Units=1/GPa)
#
#
# Indices 1 2 3 4 5 6 
#
# 1 0.012467 -0.004919 -0.002870 0.000000 0.000000 0.000000
# 2 -0.004919 0.011667 -0.000259 0.000000 0.000000 0.000000
# 3 -0.002870 -0.000259 0.012405 0.000000 0.000000 0.000000
# 4 0.000000 0.000000 0.000000 0.055400 0.000000 0.000000
# 5 0.000000 0.000000 0.000000 0.000000 0.053052 0.000000
# 6 0.000000 0.000000 0.000000 0.000000 0.000000 -0.974565
#
#
# Mechanical properties :
#
#
# Convention : Reuss Voigt Hill
#
# Bulk Modulus (GPa) = 48.91356 50.79847 49.85602
# Shear Modulus (GPa) = -6.19835 21.38851 7.59508
#
# Velocity S-wave (km/s) = -1.79826 3.34045 1.99058
# Velocity P-wave (km/s) = 4.60511 6.43274 5.59407
#
# Compressibility (1/GPa) = 0.02044423
#
# Stress axis : x y z
#
# Youngs Moduli (GPa) = 80.21322 85.71241 80.61361
#
# Poissons Ratio (x) = 0.42158 0.23135
# Poissons Ratio (y) = 0.39453 0.02086
# Poissons Ratio (z) = 0.23020 0.02218
#
# Static dielectric constant tensor:
#      x y z
#    x 1.660610 0.000000 0.000000 
#    y 0.000000 1.662300 0.000000 
#    z 0.000000 0.000000 1.673160 
# 
# From -- ./inp_files/22894.got.cif
#   From: 2010.05.17/outbox.cif.g08.bks.cpg/sg60_12_cif.got.tgz:22894.got - 2010.06.03 14:59:27.
