data_PCOD9455572
_publ_section_title
;
Structure prediction by ZEFSAII (Michael W. Deem and Ramdas Pophale) SiO2 
 PCOD9455572
Probable space group: P B C N
;
_chemical_formula_sum "Si O2"
_cell_formula_units_Z 36
_cell_length_a 8.469629
_cell_length_b 13.918083
_cell_length_c 15.010426
_cell_angle_alpha 90.000000
_cell_angle_beta 90.000000
_cell_angle_gamma 90.000000
_cell_volume 1769.444018
_symmetry_space_group_name_H-M "P B C N"
_symmetry_group_IT_number 60
_symmetry_cell_setting 'orthorhombic'
loop_
_space_group_symop_operation_xyz
x,y,z
1/2-x,1/2-y,1/2+z
1/2+x,1/2-y,-z
-x,y,1/2-z
-x,-y,-z
1/2+x,1/2+y,1/2-z
1/2-x,1/2+y,z
x,-y,1/2+z
loop_
_atom_site_type_symbol
_atom_site_label
_atom_site_fract_x
_atom_site_fract_y
_atom_site_fract_z
Si Si1 0.662315 0.515320 0.710574
Si Si2 0.167180 0.596123 0.436806
Si Si3 0.656999 0.257158 0.195097
Si Si4 0.000000 0.290188 0.250000
Si Si5 0.605215 0.955385 0.372606
O O1 0.500000 0.479579 0.750000
O O2 0.705145 0.457302 0.623370
O O3 0.646066 0.628059 0.688096
O O4 0.792060 0.509061 0.789207
O O5 0.156034 0.703383 0.399196
O O6 0.197630 0.582639 0.540948
O O7 0.007729 0.539287 0.408205
O O8 0.500000 0.225563 0.250000
O O9 0.829380 0.238500 0.241249
O O10 0.011471 0.362964 0.165583
#
# Coordination Sequence:
#
# PCOD9455572 Si02
#       5
#     8   8   8   4   8
#     4  10  21  40  59  85 130 153 193 264 306 355
#     4  11  21  38  65  90 113 165 210 242 310 374
#     4  10  21  38  61  88 121 162 204 245 309 364
#     4  10  20  44  60  86 128 164 190 270 312 348
#     4  10  20  40  64  84 123 158 202 254 305 364
#
# _framework density 20.345375000000001
#
# number of rings (size 3 to 8) (size 9 to 14) (size 15 to 20)
#    0.000    1.778    4.444    1.333    1.556    0.889 
#   12.000    4.444    0.000    0.000    0.000    0.000 
#    0.000    0.000    0.000    0.000    0.000    0.000 
#
# Total GULP energy -200793.540507 kJ/mol
# GULP energy per Si atom -5577.598347 kJ/mol
# Density = 2.029907 g / cm^3
# Si number density = 20.345375 Si / 1000 Ang^3
#
#
#
# Elastic Constant Matrix: (Units=GPa)
#
#
# Indices 1 2 3 4 5 6 
#
# 1 104.4805 4.5899 15.0954 0.0000 0.0000 0.0000
# 2 4.5899 46.9601 24.3489 0.0000 0.0000 0.0000
# 3 15.0954 24.3489 110.4502 0.0000 0.0000 0.0000
# 4 0.0000 0.0000 0.0000 3.4581 0.0000 0.0000
# 5 0.0000 0.0000 0.0000 0.0000 23.1631 0.0000
# 6 0.0000 0.0000 0.0000 0.0000 0.0000 19.4803
#
#
#
# Elastic Compliance Matrix: (Units=1/GPa)
#
#
# Indices 1 2 3 4 5 6 
#
# 1 0.009768 -0.000296 -0.001270 0.000000 0.000000 0.000000
# 2 -0.000296 0.024052 -0.005262 0.000000 0.000000 0.000000
# 3 -0.001270 -0.005262 0.010387 0.000000 0.000000 0.000000
# 4 0.000000 0.000000 0.000000 0.289175 0.000000 0.000000
# 5 0.000000 0.000000 0.000000 0.000000 0.043172 0.000000
# 6 0.000000 0.000000 0.000000 0.000000 0.000000 0.051334
#
#
# Mechanical properties :
#
#
# Convention : Reuss Voigt Hill
#
# Bulk Modulus (GPa) = 32.73183 38.88436 35.80809
# Shear Modulus (GPa) = 11.06863 23.74408 17.40636
#
# Velocity S-wave (km/s) = 2.33499 3.41992 2.92814
# Velocity P-wave (km/s) = 4.83659 5.89475 5.39169
#
# Compressibility (1/GPa) = 0.03055130
#
# Stress axis : x y z
#
# Youngs Moduli (GPa) = 102.37913 41.57678 96.27107
#
# Poissons Ratio (x) = 0.01232 0.12223
# Poissons Ratio (y) = 0.03034 0.50655
# Poissons Ratio (z) = 0.12998 0.21877
#
# Static dielectric constant tensor:
#      x y z
#    x 1.795860 0.000000 0.000000 
#    y 0.000000 1.734700 0.000000 
#    z 0.000000 0.000000 1.679640 
# 
# From -- ./inp_files/14581.got.cif
#   From: 2010.05.17/outbox.cif.g08.bks.cpg/sg60_8_cif.got.tgz:14581.got - 2010.06.03 14:59:27.
