data_PCOD9455746
_publ_section_title
;
Structure prediction by ZEFSAII (Michael W. Deem and Ramdas Pophale) SiO2 
 PCOD9455746
Probable space group: P B C N
;
_chemical_formula_sum "Si O2"
_cell_formula_units_Z 48
_cell_length_a 4.912568
_cell_length_b 13.647476
_cell_length_c 28.383323
_cell_angle_alpha 90.000000
_cell_angle_beta 90.000000
_cell_angle_gamma 90.000000
_cell_volume 1902.935875
_symmetry_space_group_name_H-M "P B C N"
_symmetry_group_IT_number 60
_symmetry_cell_setting 'orthorhombic'
loop_
_space_group_symop_operation_xyz
x,y,z
1/2-x,1/2-y,1/2+z
1/2+x,1/2-y,-z
-x,y,1/2-z
-x,-y,-z
1/2+x,1/2+y,1/2-z
1/2-x,1/2+y,z
x,-y,1/2+z
loop_
_atom_site_type_symbol
_atom_site_label
_atom_site_fract_x
_atom_site_fract_y
_atom_site_fract_z
Si Si1 0.000000 0.733518 0.250000
Si Si2 0.411465 0.058416 0.852273
Si Si3 0.667214 0.110976 0.470880
Si Si4 0.000000 0.636678 0.750000
Si Si5 0.157406 0.343446 0.845760
Si Si6 0.824705 0.250331 0.392382
Si Si7 0.340724 0.483564 0.441372
O O1 0.244878 0.800749 0.231147
O O2 0.148892 0.671566 0.290001
O O3 0.388171 0.083517 0.797059
O O4 0.574822 0.141910 0.879535
O O5 0.154058 0.045819 0.886871
O O6 0.498821 0.945332 0.854298
O O7 0.767499 0.209241 0.445006
O O8 0.726734 0.105805 0.526617
O O9 0.368770 0.073642 0.454726
O O10 0.864750 0.022304 0.454640
O O11 0.451707 0.322467 0.868027
O O12 0.965106 0.262408 0.867938
#
# Coordination Sequence:
#
# PCOD9455746 Si02
#       7
#     4   8   8   4   8   8   8
#     4  12  23  50  63 100 142 194 233 312 359 424
#     4  12  25  46  72 110 135 199 237 305 359 446
#     4  10  20  44  65 105 133 186 225 299 344 437
#     4  12  27  42  73 102 146 180 255 292 363 444
#     4  12  25  44  70  97 144 188 235 296 369 419
#     4  12  24  43  72 103 143 181 240 299 357 433
#     4  10  22  39  74  94 143 180 237 276 369 422
#
# _framework density 25.224178999999999
#
# number of rings (size 3 to 8) (size 9 to 14) (size 15 to 20)
#    0.000    0.667    6.667    0.500    0.000    5.333 
#    0.000    8.333    0.000    0.000    0.000    0.000 
#    0.000    0.000    0.000    0.000    0.000    0.000 
#
# Total GULP energy -268052.934697 kJ/mol
# GULP energy per Si atom -5584.436140 kJ/mol
# Density = 2.516677 g / cm^3
# Si number density = 25.224179 Si / 1000 Ang^3
#
#
#
# Elastic Constant Matrix: (Units=GPa)
#
#
# Indices 1 2 3 4 5 6 
#
# 1 102.9036 17.8088 16.0102 0.0000 0.0000 0.0000
# 2 17.8088 104.8538 2.0136 0.0000 0.0000 0.0000
# 3 16.0102 2.0136 129.6658 0.0000 0.0000 0.0000
# 4 0.0000 0.0000 0.0000 9.2190 0.0000 0.0000
# 5 0.0000 0.0000 0.0000 0.0000 28.2554 0.0000
# 6 0.0000 0.0000 0.0000 0.0000 0.0000 31.0203
#
#
#
# Elastic Compliance Matrix: (Units=1/GPa)
#
#
# Indices 1 2 3 4 5 6 
#
# 1 0.010206 -0.001710 -0.001234 0.000000 0.000000 0.000000
# 2 -0.001710 0.009826 0.000059 0.000000 0.000000 0.000000
# 3 -0.001234 0.000059 0.007864 0.000000 0.000000 0.000000
# 4 0.000000 0.000000 0.000000 0.108472 0.000000 0.000000
# 5 0.000000 0.000000 0.000000 0.000000 0.035391 0.000000
# 6 0.000000 0.000000 0.000000 0.000000 0.000000 0.032237
#
#
# Mechanical properties :
#
#
# Convention : Reuss Voigt Hill
#
# Bulk Modulus (GPa) = 45.19564 45.45428 45.32496
# Shear Modulus (GPa) = 23.02656 33.80499 28.41578
#
# Velocity S-wave (km/s) = 3.02466 3.66482 3.36002
# Velocity P-wave (km/s) = 5.49132 5.99726 5.74986
#
# Compressibility (1/GPa) = 0.02212603
#
# Stress axis : x y z
#
# Youngs Moduli (GPa) = 97.98503 101.76725 127.16922
#
# Poissons Ratio (x) = 0.17399 0.15687
# Poissons Ratio (y) = 0.16752 -0.00744
# Poissons Ratio (z) = 0.12087 -0.00595
#
# Static dielectric constant tensor:
#      x y z
#    x 1.897850 0.000000 0.000000 
#    y 0.000000 2.050440 0.000000 
#    z 0.000000 0.000000 2.142710 
# 
# From -- ./inp_files/25672.got.cif
#   From: 2010.05.17/outbox.cif.g08.bks.cpg/sg60_13_cif.got.tgz:25672.got - 2010.06.03 14:59:27.
