data_PCOD9455840
_publ_section_title
;
Structure prediction by ZEFSAII (Michael W. Deem and Ramdas Pophale) SiO2 
 PCOD9455840
Probable space group: P B C N
;
_chemical_formula_sum "Si O2"
_cell_formula_units_Z 64
_cell_length_a 13.715382
_cell_length_b 27.607842
_cell_length_c 9.099589
_cell_angle_alpha 90.000000
_cell_angle_beta 90.000000
_cell_angle_gamma 90.000000
_cell_volume 3445.578477
_symmetry_space_group_name_H-M "P B C N"
_symmetry_group_IT_number 60
_symmetry_cell_setting 'orthorhombic'
loop_
_space_group_symop_operation_xyz
x,y,z
1/2-x,1/2-y,1/2+z
1/2+x,1/2-y,-z
-x,y,1/2-z
-x,-y,-z
1/2+x,1/2+y,1/2-z
1/2-x,1/2+y,z
x,-y,1/2+z
loop_
_atom_site_type_symbol
_atom_site_label
_atom_site_fract_x
_atom_site_fract_y
_atom_site_fract_z
Si Si1 0.752449 0.707307 0.206192
Si Si2 0.878725 0.553222 0.063761
Si Si3 0.029102 0.305281 0.086131
Si Si4 0.687099 0.685581 0.649371
Si Si5 0.645922 0.151706 0.445325
Si Si6 0.388656 0.951965 0.584163
Si Si7 0.263982 0.852531 0.057173
Si Si8 0.439804 0.301508 0.613863
O O1 0.812047 0.756973 0.185850
O O2 0.822121 0.668495 0.285346
O O3 0.661322 0.716326 0.312057
O O4 0.709198 0.678019 0.068312
O O5 0.871665 0.548588 0.240343
O O6 0.996835 0.557316 0.043962
O O7 0.855371 0.502140 0.986098
O O8 0.810536 0.595867 0.995123
O O9 0.140605 0.318946 0.072772
O O10 0.007170 0.248421 0.070713
O O11 0.000000 0.320483 0.250000
O O12 0.965064 0.334560 0.971477
O O13 0.788086 0.680366 0.560044
O O14 0.701447 0.652372 0.793574
O O15 0.598737 0.673389 0.536089
O O16 0.665104 0.095549 0.473505
O O17 0.500000 0.325103 0.750000
#
# Coordination Sequence:
#
# PCOD9455840 Si02
#       8
#     8   8   8   8   8   8   8   8
#     4  11  21  37  52  79 114 144 195 246 281 326
#     4  10  22  35  52  77 114 150 189 236 268 325
#     4  11  19  31  52  78 108 153 202 221 261 337
#     4  11  21  34  53  79 106 148 191 238 282 329
#     4  11  21  34  56  77 112 158 194 224 278 336
#     4  10  21  36  51  77 110 152 194 227 271 323
#     4  12  20  34  54  79 114 146 193 237 272 327
#     4  10  21  38  53  73 108 150 193 237 287 339
#
# _framework density 18.574528999999998
#
# number of rings (size 3 to 8) (size 9 to 14) (size 15 to 20)
#    0.000    1.250    6.250    1.500    1.750    0.500 
#    0.000    1.875    0.000    0.000    0.000    0.000 
#    0.000   16.000    0.000    0.000    0.000    0.000 
#
# Total GULP energy -356471.516646 kJ/mol
# GULP energy per Si atom -5569.867448 kJ/mol
# Density = 1.853225 g / cm^3
# Si number density = 18.574529 Si / 1000 Ang^3
#
#
#
# Elastic Constant Matrix: (Units=GPa)
#
#
# Indices 1 2 3 4 5 6 
#
# 1 26.8402 20.5534 24.2452 0.0000 0.0000 0.0000
# 2 20.5534 106.4962 34.2805 0.0000 0.0000 0.0000
# 3 24.2452 34.2805 83.2229 0.0000 0.0000 0.0000
# 4 0.0000 0.0000 0.0000 24.4683 0.0000 0.0000
# 5 0.0000 0.0000 0.0000 0.0000 34.9510 0.0000
# 6 0.0000 0.0000 0.0000 0.0000 0.0000 15.5445
#
#
#
# Elastic Compliance Matrix: (Units=1/GPa)
#
#
# Indices 1 2 3 4 5 6 
#
# 1 0.053855 -0.006160 -0.013152 0.000000 0.000000 0.000000
# 2 -0.006160 0.011530 -0.002955 0.000000 0.000000 0.000000
# 3 -0.013152 -0.002955 0.017065 0.000000 0.000000 0.000000
# 4 0.000000 0.000000 0.000000 0.040869 0.000000 0.000000
# 5 0.000000 0.000000 0.000000 0.000000 0.028611 0.000000
# 6 0.000000 0.000000 0.000000 0.000000 0.000000 0.064331
#
#
# Mechanical properties :
#
#
# Convention : Reuss Voigt Hill
#
# Bulk Modulus (GPa) = 26.37426 41.63528 34.00477
# Shear Modulus (GPa) = 18.28589 24.15810 21.22200
#
# Velocity S-wave (km/s) = 3.14101 3.61030 3.38380
# Velocity P-wave (km/s) = 5.23303 6.31213 5.79774
#
# Compressibility (1/GPa) = 0.03791576
#
# Stress axis : x y z
#
# Youngs Moduli (GPa) = 18.56824 86.73007 58.60087
#
# Poissons Ratio (x) = 0.53429 0.77073
# Poissons Ratio (y) = 0.11439 0.17315
# Poissons Ratio (z) = 0.24421 0.25626
#
# Static dielectric constant tensor:
#      x y z
#    x 1.676940 0.000000 0.000000 
#    y 0.000000 1.623840 0.000000 
#    z 0.000000 0.000000 1.866560 
# 
# From -- ./inp_files/6319.got.cif
#   From: 2010.05.17/outbox.cif.g08.bks.cpg/sg60_4_cif.got.tgz:6319.got - 2010.06.03 14:59:27.
