data_PCOD9455812
_publ_section_title
;
Structure prediction by ZEFSAII (Michael W. Deem and Ramdas Pophale) SiO2 
 PCOD9455812
Probable space group: P B C N
;
_chemical_formula_sum "Si O2"
_cell_formula_units_Z 40
_cell_length_a 6.042081
_cell_length_b 18.051773
_cell_length_c 16.297247
_cell_angle_alpha 90.000000
_cell_angle_beta 90.000000
_cell_angle_gamma 90.000000
_cell_volume 1777.545206
_symmetry_space_group_name_H-M "P B C N"
_symmetry_group_IT_number 60
_symmetry_cell_setting 'orthorhombic'
loop_
_space_group_symop_operation_xyz
x,y,z
1/2-x,1/2-y,1/2+z
1/2+x,1/2-y,-z
-x,y,1/2-z
-x,-y,-z
1/2+x,1/2+y,1/2-z
1/2-x,1/2+y,z
x,-y,1/2+z
loop_
_atom_site_type_symbol
_atom_site_label
_atom_site_fract_x
_atom_site_fract_y
_atom_site_fract_z
Si Si1 0.341617 0.708352 0.561199
Si Si2 0.683206 0.457240 0.945296
Si Si3 0.701341 0.311746 0.185178
Si Si4 0.001466 0.188545 0.380206
Si Si5 0.507703 0.081566 0.599312
O O1 0.570980 0.687259 0.600184
O O2 0.379787 0.711031 0.465316
O O3 0.245131 0.778783 0.608661
O O4 0.163728 0.646391 0.580323
O O5 0.546602 0.399153 0.888169
O O6 0.851096 0.509295 0.893279
O O7 0.500000 0.500000 0.000000
O O8 0.843041 0.425888 0.017312
O O9 0.500000 0.313903 0.250000
O O10 0.850618 0.236182 0.184295
O O11 0.850923 0.385718 0.175708
#
# Coordination Sequence:
#
# PCOD9455812 Si02
#       5
#     8   8   8   8   8
#     4  11  19  37  60  96 126 164 221 288 330 407
#     4  11  20  35  60 102 129 170 221 294 346 414
#     4  11  24  39  60  97 137 181 224 288 349 420
#     4  11  20  33  62  96 131 169 224 283 340 409
#     4  10  21  34  60  95 132 167 227 277 353 408
#
# _framework density 22.502945
#
# number of rings (size 3 to 8) (size 9 to 14) (size 15 to 20)
#    0.000    1.200    6.000    1.200    0.000    3.200 
#    0.000    0.000    0.000    0.000   52.000    0.000 
#    0.000    0.000    0.000    0.000    0.000    0.000 
#
# Total GULP energy -222797.851298 kJ/mol
# GULP energy per Si atom -5569.946282 kJ/mol
# Density = 2.245173 g / cm^3
# Si number density = 22.502945 Si / 1000 Ang^3
#
#
#
# Elastic Constant Matrix: (Units=GPa)
#
#
# Indices 1 2 3 4 5 6 
#
# 1 124.4628 63.7443 44.0320 0.0000 0.0000 0.0000
# 2 63.7443 128.7211 31.8705 0.0000 0.0000 0.0000
# 3 44.0320 31.8705 76.6236 0.0000 0.0000 0.0000
# 4 0.0000 0.0000 0.0000 -1.6607 0.0000 0.0000
# 5 0.0000 0.0000 0.0000 0.0000 64.6868 0.0000
# 6 0.0000 0.0000 0.0000 0.0000 0.0000 12.9451
#
#
#
# Elastic Compliance Matrix: (Units=1/GPa)
#
#
# Indices 1 2 3 4 5 6 
#
# 1 0.012302 -0.004840 -0.005056 0.000000 0.000000 0.000000
# 2 -0.004840 0.010565 -0.001613 0.000000 0.000000 0.000000
# 3 -0.005056 -0.001613 0.016627 0.000000 0.000000 0.000000
# 4 0.000000 0.000000 0.000000 -0.602146 0.000000 0.000000
# 5 0.000000 0.000000 0.000000 0.000000 0.015459 0.000000
# 6 0.000000 0.000000 0.000000 0.000000 0.000000 0.077250
#
#
# Mechanical properties :
#
#
# Convention : Reuss Voigt Hill
#
# Bulk Modulus (GPa) = 60.69568 67.67790 64.18679
# Shear Modulus (GPa) = -11.32679 27.87161 8.27241
#
# Velocity S-wave (km/s) = -2.24597 3.52316 1.91941
# Velocity P-wave (km/s) = 4.50611 6.83305 5.78773
#
# Compressibility (1/GPa) = 0.01647564
#
# Stress axis : x y z
#
# Youngs Moduli (GPa) = 81.28524 94.65141 60.14211
#
# Poissons Ratio (x) = 0.45815 0.30410
# Poissons Ratio (y) = 0.39345 0.09700
# Poissons Ratio (z) = 0.41100 0.15266
#
# Static dielectric constant tensor:
#      x y z
#    x 1.703930 0.000000 0.000000 
#    y 0.000000 2.035460 0.000000 
#    z 0.000000 0.000000 1.892360 
# 
# From -- ./inp_files/18501.got.cif
#   From: 2010.05.17/outbox.cif.g08.bks.cpg/sg60_10_cif.got.tgz:18501.got - 2010.06.03 14:59:27.
