data_PCOD9455082
_publ_section_title
;
Structure prediction by ZEFSAII (Michael W. Deem and Ramdas Pophale) SiO2 
 PCOD9455082
Probable space group: P B C N
;
_chemical_formula_sum "Si O2"
_cell_formula_units_Z 56
_cell_length_a 18.576329
_cell_length_b 12.775901
_cell_length_c 9.328342
_cell_angle_alpha 90.000000
_cell_angle_beta 90.000000
_cell_angle_gamma 90.000000
_cell_volume 2213.889252
_symmetry_space_group_name_H-M "P B C N"
_symmetry_group_IT_number 60
_symmetry_cell_setting 'orthorhombic'
loop_
_space_group_symop_operation_xyz
x,y,z
1/2-x,1/2-y,1/2+z
1/2+x,1/2-y,-z
-x,y,1/2-z
-x,-y,-z
1/2+x,1/2+y,1/2-z
1/2-x,1/2+y,z
x,-y,1/2+z
loop_
_atom_site_type_symbol
_atom_site_label
_atom_site_fract_x
_atom_site_fract_y
_atom_site_fract_z
Si Si1 0.735580 0.742074 0.076890
Si Si2 0.090312 0.037403 0.894321
Si Si3 0.825080 0.554140 0.438042
Si Si4 0.118957 0.625250 0.353451
Si Si5 0.186628 0.064263 0.635716
Si Si6 0.401822 0.306456 0.789065
Si Si7 0.986311 0.767626 0.999461
O O1 0.717077 0.858742 0.030202
O O2 0.705573 0.667867 0.950781
O O3 0.815800 0.705476 0.109051
O O4 0.683248 0.709902 0.208895
O O5 0.026219 0.118016 0.927688
O O6 0.134357 0.006731 0.036675
O O7 0.145217 0.086942 0.780841
O O8 0.074318 0.925446 0.821933
O O9 0.875713 0.598319 0.313509
O O10 0.864742 0.475044 0.546006
O O11 0.762084 0.494426 0.349329
O O12 0.045303 0.680703 0.397703
O O13 0.435244 0.269035 0.641706
O O14 0.436287 0.249107 0.928073
#
# Coordination Sequence:
#
# PCOD9455082 Si02
#       7
#     8   8   8   8   8   8   8
#     4  10  23  39  66  92 130 170 220 272 327 385
#     4  11  19  37  62  96 130 170 206 258 329 406
#     4  11  23  42  61  98 131 173 220 275 328 387
#     4  11  26  40  70  98 132 178 223 275 332 385
#     4  10  20  35  60  96 129 162 211 260 328 386
#     4  10  23  41  65  97 131 176 213 272 331 392
#     4  11  23  42  65  95 137 171 221 265 335 393
#
# _framework density 25.29485
#
# number of rings (size 3 to 8) (size 9 to 14) (size 15 to 20)
#    0.000    1.429    1.429    4.714    4.000    1.143 
#    0.000    4.286    0.000    0.000    0.000    0.000 
#    0.000    0.000    0.000    0.000    0.000    0.000 
#
# Total GULP energy -313959.030227 kJ/mol
# GULP energy per Si atom -5606.411254 kJ/mol
# Density = 2.523728 g / cm^3
# Si number density = 25.294850 Si / 1000 Ang^3
#
#
#
# Elastic Constant Matrix: (Units=GPa)
#
#
# Indices 1 2 3 4 5 6 
#
# 1 68.0912 4.9986 21.9788 0.0000 0.0000 0.0000
# 2 4.9986 93.3509 33.8027 0.0000 0.0000 0.0000
# 3 21.9788 33.8027 124.6170 0.0000 0.0000 0.0000
# 4 0.0000 0.0000 0.0000 34.3461 0.0000 0.0000
# 5 0.0000 0.0000 0.0000 0.0000 47.4565 0.0000
# 6 0.0000 0.0000 0.0000 0.0000 0.0000 24.7199
#
#
#
# Elastic Compliance Matrix: (Units=1/GPa)
#
#
# Indices 1 2 3 4 5 6 
#
# 1 0.015575 0.000178 -0.002795 0.000000 0.000000 0.000000
# 2 0.000178 0.011881 -0.003254 0.000000 0.000000 0.000000
# 3 -0.002795 -0.003254 0.009400 0.000000 0.000000 0.000000
# 4 0.000000 0.000000 0.000000 0.029115 0.000000 0.000000
# 5 0.000000 0.000000 0.000000 0.000000 0.021072 0.000000
# 6 0.000000 0.000000 0.000000 0.000000 0.000000 0.040453
#
#
# Mechanical properties :
#
#
# Convention : Reuss Voigt Hill
#
# Bulk Modulus (GPa) = 39.81835 45.29104 42.55469
# Shear Modulus (GPa) = 33.87269 36.32309 35.09789
#
# Velocity S-wave (km/s) = 3.66336 3.79355 3.72903
# Velocity P-wave (km/s) = 5.80254 6.09362 5.94986
#
# Compressibility (1/GPa) = 0.02511405
#
# Stress axis : x y z
#
# Youngs Moduli (GPa) = 64.20374 84.16734 106.37926
#
# Poissons Ratio (x) = -0.01500 0.29737
# Poissons Ratio (y) = -0.01144 0.34618
# Poissons Ratio (z) = 0.17947 0.27390
#
# Static dielectric constant tensor:
#      x y z
#    x 1.983630 0.000000 0.000000 
#    y 0.000000 2.021350 0.000000 
#    z 0.000000 0.000000 1.966230 
# 
# From -- ./inp_files/7406.got.cif
#   From: 2010.05.17/outbox.cif.g08.bks.cpg/sg60_4_cif.got.tgz:7406.got - 2010.06.03 14:59:27.
