data_PCOD9455097
_publ_section_title
;
Structure prediction by ZEFSAII (Michael W. Deem and Ramdas Pophale) SiO2 
 PCOD9455097
Probable space group: P B C N
;
_chemical_formula_sum "Si O2"
_cell_formula_units_Z 48
_cell_length_a 16.785117
_cell_length_b 8.338044
_cell_length_c 14.695993
_cell_angle_alpha 90.000000
_cell_angle_beta 90.000000
_cell_angle_gamma 90.000000
_cell_volume 2056.778348
_symmetry_space_group_name_H-M "P B C N"
_symmetry_group_IT_number 60
_symmetry_cell_setting 'orthorhombic'
loop_
_space_group_symop_operation_xyz
x,y,z
1/2-x,1/2-y,1/2+z
1/2+x,1/2-y,-z
-x,y,1/2-z
-x,-y,-z
1/2+x,1/2+y,1/2-z
1/2-x,1/2+y,z
x,-y,1/2+z
loop_
_atom_site_type_symbol
_atom_site_label
_atom_site_fract_x
_atom_site_fract_y
_atom_site_fract_z
Si Si1 0.500000 0.333669 0.250000
Si Si2 0.374526 0.487885 0.877353
Si Si3 0.518871 0.260246 0.549461
Si Si4 0.878081 0.580088 0.305446
Si Si5 0.000000 0.673444 0.750000
Si Si6 0.879159 0.553119 0.002510
Si Si7 0.270110 0.796499 0.851597
O O1 0.562237 0.435358 0.192084
O O2 0.445823 0.218723 0.185266
O O3 0.425597 0.416996 0.962724
O O4 0.305914 0.623461 0.877055
O O5 0.323523 0.331096 0.847496
O O6 0.495111 0.266851 0.655980
O O7 0.571155 0.099625 0.536664
O O8 0.437859 0.209020 0.498591
O O9 0.924034 0.443968 0.249064
O O10 0.854885 0.500471 0.400815
O O11 0.807789 0.650720 0.244777
O O12 0.807772 0.597092 0.067689
#
# Coordination Sequence:
#
# PCOD9455097 Si02
#       7
#     4   8   8   8   4   8   8
#     4   9  21  42  68 106 130 182 236 288 334 424
#     4  11  24  42  69  96 141 180 233 282 356 406
#     4  10  20  35  65  97 125 171 221 272 331 414
#     4   9  19  38  67  97 134 174 226 280 340 414
#     4   9  15  32  64  92 122 162 222 264 326 404
#     4  10  21  39  68 100 133 174 230 278 348 410
#     4  11  23  43  66  96 139 184 218 292 352 406
#
# _framework density 23.33747
#
# number of rings (size 3 to 8) (size 9 to 14) (size 15 to 20)
#    0.000    2.000    1.667    1.500    7.000    0.667 
#    0.000    6.667    0.000    0.000    0.000    0.000 
#    0.000    0.000    0.000    0.000    0.000    0.000 
#
# Total GULP energy -267814.866830 kJ/mol
# GULP energy per Si atom -5579.476392 kJ/mol
# Density = 2.328435 g / cm^3
# Si number density = 23.337470 Si / 1000 Ang^3
#
#
#
# Elastic Constant Matrix: (Units=GPa)
#
#
# Indices 1 2 3 4 5 6 
#
# 1 118.7906 55.5240 30.6557 0.0000 0.0000 0.0000
# 2 55.5240 117.3632 21.3947 0.0000 0.0000 0.0000
# 3 30.6557 21.3947 85.3389 0.0000 0.0000 0.0000
# 4 0.0000 0.0000 0.0000 31.1435 0.0000 0.0000
# 5 0.0000 0.0000 0.0000 0.0000 28.1379 0.0000
# 6 0.0000 0.0000 0.0000 0.0000 0.0000 48.0625
#
#
#
# Elastic Compliance Matrix: (Units=1/GPa)
#
#
# Indices 1 2 3 4 5 6 
#
# 1 0.011449 -0.004890 -0.002887 0.000000 0.000000 0.000000
# 2 -0.004890 0.011017 -0.001005 0.000000 0.000000 0.000000
# 3 -0.002887 -0.001005 0.013007 0.000000 0.000000 0.000000
# 4 0.000000 0.000000 0.000000 0.032109 0.000000 0.000000
# 5 0.000000 0.000000 0.000000 0.000000 0.035539 0.000000
# 6 0.000000 0.000000 0.000000 0.000000 0.000000 0.020806
#
#
# Mechanical properties :
#
#
# Convention : Reuss Voigt Hill
#
# Bulk Modulus (GPa) = 55.83899 59.62682 57.73291
# Shear Modulus (GPa) = 33.90697 35.73000 34.81848
#
# Velocity S-wave (km/s) = 3.81583 3.91706 3.86678
# Velocity P-wave (km/s) = 6.58732 6.78698 6.68789
#
# Compressibility (1/GPa) = 0.01790863
#
# Stress axis : x y z
#
# Youngs Moduli (GPa) = 87.34502 90.76587 76.88150
#
# Poissons Ratio (x) = 0.44386 0.22194
# Poissons Ratio (y) = 0.42713 0.07730
# Poissons Ratio (z) = 0.25214 0.09126
#
# Static dielectric constant tensor:
#      x y z
#    x 1.913910 0.000000 0.000000 
#    y 0.000000 1.982450 0.000000 
#    z 0.000000 0.000000 1.867060 
# 
# From -- ./inp_files/17382.got.cif
#   From: 2010.05.17/outbox.cif.g08.bks.cpg/sg60_9_cif.got.tgz:17382.got - 2010.06.03 14:59:27.
