data_PCOD9455836
_publ_section_title
;
Structure prediction by ZEFSAII (Michael W. Deem and Ramdas Pophale) SiO2 
 PCOD9455836
Probable space group: P B C N
;
_chemical_formula_sum "Si O2"
_cell_formula_units_Z 32
_cell_length_a 14.113016
_cell_length_b 17.102829
_cell_length_c 5.192170
_cell_angle_alpha 90.000000
_cell_angle_beta 90.000000
_cell_angle_gamma 90.000000
_cell_volume 1253.247050
_symmetry_space_group_name_H-M "P B C N"
_symmetry_group_IT_number 60
_symmetry_cell_setting 'orthorhombic'
loop_
_space_group_symop_operation_xyz
x,y,z
1/2-x,1/2-y,1/2+z
1/2+x,1/2-y,-z
-x,y,1/2-z
-x,-y,-z
1/2+x,1/2+y,1/2-z
1/2-x,1/2+y,z
x,-y,1/2+z
loop_
_atom_site_type_symbol
_atom_site_label
_atom_site_fract_x
_atom_site_fract_y
_atom_site_fract_z
Si Si1 0.500000 0.164786 0.750000
Si Si2 0.208065 0.206125 0.914751
Si Si3 0.820591 0.974287 0.058618
Si Si4 0.500000 0.254240 0.250000
Si Si5 0.884047 0.540248 0.057304
O O1 0.541263 0.210839 0.505644
O O2 0.421376 0.114114 0.597466
O O3 0.258833 0.247829 0.671225
O O4 0.221667 0.112795 0.940179
O O5 0.094229 0.208210 0.868840
O O6 0.876009 0.999356 0.309581
O O7 0.728979 0.032903 0.062231
O O8 0.913663 0.528824 0.354965
#
# Coordination Sequence:
#
# PCOD9455836 Si02
#       5
#     4   8   8   4   8
#     4  12  24  41  66 107 156 188 226 328 368 477
#     4  12  28  50  77 107 157 206 247 314 383 453
#     4  10  23  42  72 103 139 193 256 301 364 443
#     4  12  30  45  74 111 154 196 260 292 394 455
#     4  10  21  35  61  98 144 182 237 284 375 440
#
# _framework density 25.533673
#
# number of rings (size 3 to 8) (size 9 to 14) (size 15 to 20)
#    0.000    1.000    0.000    5.250   21.000    0.000 
#    0.000    1.250    0.000    0.000    0.000    0.000 
#    0.000    0.000    0.000    0.000    0.000    0.000 
#
# Total GULP energy -178685.444180 kJ/mol
# GULP energy per Si atom -5583.920131 kJ/mol
# Density = 2.547556 g / cm^3
# Si number density = 25.533673 Si / 1000 Ang^3
#
#
#
# Elastic Constant Matrix: (Units=GPa)
#
#
# Indices 1 2 3 4 5 6 
#
# 1 97.7015 15.9046 9.8856 0.0000 0.0000 0.0000
# 2 15.9046 102.5961 63.0104 0.0000 0.0000 0.0000
# 3 9.8856 63.0104 259.3481 0.0000 0.0000 0.0000
# 4 0.0000 0.0000 0.0000 37.8786 0.0000 0.0000
# 5 0.0000 0.0000 0.0000 0.0000 23.7986 0.0000
# 6 0.0000 0.0000 0.0000 0.0000 0.0000 7.6544
#
#
#
# Elastic Compliance Matrix: (Units=1/GPa)
#
#
# Indices 1 2 3 4 5 6 
#
# 1 0.010500 -0.001624 -0.000006 0.000000 0.000000 0.000000
# 2 -0.001624 0.011708 -0.002783 0.000000 0.000000 0.000000
# 3 -0.000006 -0.002783 0.004532 0.000000 0.000000 0.000000
# 4 0.000000 0.000000 0.000000 0.026400 0.000000 0.000000
# 5 0.000000 0.000000 0.000000 0.000000 0.042019 0.000000
# 6 0.000000 0.000000 0.000000 0.000000 0.000000 0.130644
#
#
# Mechanical properties :
#
#
# Convention : Reuss Voigt Hill
#
# Bulk Modulus (GPa) = 55.81894 70.80522 63.31208
# Shear Modulus (GPa) = 20.78134 38.58932 29.68533
#
# Velocity S-wave (km/s) = 2.85595 3.89178 3.41338
# Velocity P-wave (km/s) = 5.72570 6.92711 6.35486
#
# Compressibility (1/GPa) = 0.01791507
#
# Stress axis : x y z
#
# Youngs Moduli (GPa) = 95.23593 85.41393 220.64951
#
# Poissons Ratio (x) = 0.13874 0.00124
# Poissons Ratio (y) = 0.15469 0.61397
# Poissons Ratio (z) = 0.00053 0.23767
#
# Static dielectric constant tensor:
#      x y z
#    x 2.081420 0.000000 0.000000 
#    y 0.000000 2.085740 0.000000 
#    z 0.000000 0.000000 2.217660 
# 
# From -- ./inp_files/1613.got.cif
#   From: 2010.05.17/outbox.cif.g08.bks.cpg/sg60_1_cif.got.tgz:1613.got - 2010.06.03 14:59:27.
