data_PCOD9455052
_publ_section_title
;
Structure prediction by ZEFSAII (Michael W. Deem and Ramdas Pophale) SiO2 
 PCOD9455052
Probable space group: P B C N
;
_chemical_formula_sum "Si O2"
_cell_formula_units_Z 60
_cell_length_a 30.623396
_cell_length_b 5.187420
_cell_length_c 17.924131
_cell_angle_alpha 90.000000
_cell_angle_beta 90.000000
_cell_angle_gamma 90.000000
_cell_volume 2847.363226
_symmetry_space_group_name_H-M "P B C N"
_symmetry_group_IT_number 60
_symmetry_cell_setting 'orthorhombic'
loop_
_space_group_symop_operation_xyz
x,y,z
1/2-x,1/2-y,1/2+z
1/2+x,1/2-y,-z
-x,y,1/2-z
-x,-y,-z
1/2+x,1/2+y,1/2-z
1/2-x,1/2+y,z
x,-y,1/2+z
loop_
_atom_site_type_symbol
_atom_site_label
_atom_site_fract_x
_atom_site_fract_y
_atom_site_fract_z
Si Si1 0.376327 0.758705 0.941865
Si Si2 0.275764 0.674504 0.129463
Si Si3 0.500000 0.849284 0.250000
Si Si4 0.415741 0.804993 0.784604
Si Si5 0.940024 0.060843 0.346605
Si Si6 0.137207 0.558865 0.665965
Si Si7 0.223470 0.786434 0.448932
Si Si8 0.107220 0.756260 0.040159
O O1 0.404882 0.729481 0.867904
O O2 0.325051 0.783276 0.922395
O O3 0.379178 0.504442 0.992890
O O4 0.393292 0.011949 0.985512
O O5 0.240578 0.893023 0.150988
O O6 0.321593 0.758932 0.163441
O O7 0.279710 0.700834 0.039547
O O8 0.485819 0.678771 0.178516
O O9 0.540932 0.023129 0.226014
O O10 0.422996 0.566155 0.729779
O O11 0.375463 0.957504 0.746994
O O12 0.905727 0.287862 0.362811
O O13 0.935235 0.851000 0.412198
O O14 0.141193 0.327416 0.605627
O O15 0.257474 0.563483 0.426640
#
# Coordination Sequence:
#
# PCOD9455052 Si02
#       8
#     8   8   4   8   8   8   8   8
#     4  12  24  41  65 101 133 175 221 274 329 397
#     4  10  21  32  58  93 125 166 221 271 310 368
#     4  10  22  46  70 100 128 172 228 260 336 418
#     4  10  25  41  71  94 132 172 218 268 342 404
#     4  10  21  43  72  95 130 176 217 269 326 408
#     4  10  21  41  64  94 127 179 218 271 319 391
#     4  10  20  35  57  89 130 174 216 266 317 379
#     4  11  22  39  68  96 134 168 220 271 322 380
#
# _framework density 21.072126999999998
#
# number of rings (size 3 to 8) (size 9 to 14) (size 15 to 20)
#    0.000    1.600    2.667    1.200   11.200    0.000 
#    0.000    2.667    0.000    0.000    0.000    0.000 
#    0.000    0.000    0.000    0.000    0.000    0.000 
#
# Total GULP energy -335067.620652 kJ/mol
# GULP energy per Si atom -5584.460344 kJ/mol
# Density = 2.102417 g / cm^3
# Si number density = 21.072127 Si / 1000 Ang^3
#
#
#
# Elastic Constant Matrix: (Units=GPa)
#
#
# Indices 1 2 3 4 5 6 
#
# 1 50.2219 7.7609 31.4297 0.0000 0.0000 0.0000
# 2 7.7609 101.1497 30.9027 0.0000 0.0000 0.0000
# 3 31.4297 30.9027 67.5421 0.0000 0.0000 0.0000
# 4 0.0000 0.0000 0.0000 14.4528 0.0000 0.0000
# 5 0.0000 0.0000 0.0000 0.0000 16.5389 0.0000
# 6 0.0000 0.0000 0.0000 0.0000 0.0000 14.6007
#
#
#
# Elastic Compliance Matrix: (Units=1/GPa)
#
#
# Indices 1 2 3 4 5 6 
#
# 1 0.028496 0.002168 -0.014252 0.000000 0.000000 0.000000
# 2 0.002168 0.011658 -0.006343 0.000000 0.000000 0.000000
# 3 -0.014252 -0.006343 0.024339 0.000000 0.000000 0.000000
# 4 0.000000 0.000000 0.000000 0.069191 0.000000 0.000000
# 5 0.000000 0.000000 0.000000 0.000000 0.060463 0.000000
# 6 0.000000 0.000000 0.000000 0.000000 0.000000 0.068490
#
#
# Mechanical properties :
#
#
# Convention : Reuss Voigt Hill
#
# Bulk Modulus (GPa) = 36.18005 39.90006 38.04006
# Shear Modulus (GPa) = 16.19677 19.03983 17.61830
#
# Velocity S-wave (km/s) = 2.77543 3.00918 2.89467
# Velocity P-wave (km/s) = 5.24191 5.57222 5.40959
#
# Compressibility (1/GPa) = 0.02763954
#
# Stress axis : x y z
#
# Youngs Moduli (GPa) = 35.09304 85.77979 41.08566
#
# Poissons Ratio (x) = -0.18595 0.58555
# Poissons Ratio (y) = -0.07607 0.26059
# Poissons Ratio (z) = 0.50014 0.54406
#
# Static dielectric constant tensor:
#      x y z
#    x 1.763290 0.000000 0.000000 
#    y 0.000000 1.817680 0.000000 
#    z 0.000000 0.000000 1.737590 
# 
# From -- ./inp_files/21280.got.cif
#   From: 2010.05.17/outbox.cif.g08.bks.cpg/sg60_11_cif.got.tgz:21280.got - 2010.06.03 14:59:27.
