data_PCOD9455166
_publ_section_title
;
Structure prediction by ZEFSAII (Michael W. Deem and Ramdas Pophale) SiO2 
 PCOD9455166
Probable space group: P B C N
;
_chemical_formula_sum "Si O2"
_cell_formula_units_Z 48
_cell_length_a 8.649650
_cell_length_b 26.154809
_cell_length_c 11.648243
_cell_angle_alpha 90.000000
_cell_angle_beta 90.000000
_cell_angle_gamma 90.000000
_cell_volume 2635.181358
_symmetry_space_group_name_H-M "P B C N"
_symmetry_group_IT_number 60
_symmetry_cell_setting 'orthorhombic'
loop_
_space_group_symop_operation_xyz
x,y,z
1/2-x,1/2-y,1/2+z
1/2+x,1/2-y,-z
-x,y,1/2-z
-x,-y,-z
1/2+x,1/2+y,1/2-z
1/2-x,1/2+y,z
x,-y,1/2+z
loop_
_atom_site_type_symbol
_atom_site_label
_atom_site_fract_x
_atom_site_fract_y
_atom_site_fract_z
Si Si1 0.709975 0.042840 0.855394
Si Si2 0.681907 0.307395 0.514999
Si Si3 0.601534 0.725572 0.638143
Si Si4 0.500000 0.513213 0.250000
Si Si5 0.500000 0.041259 0.250000
Si Si6 0.723523 0.582690 0.107506
Si Si7 0.326044 0.155955 0.723775
O O1 0.676502 0.094483 0.784114
O O2 0.872270 0.021037 0.811475
O O3 0.585672 0.998034 0.836289
O O4 0.724236 0.059545 0.986252
O O5 0.518362 0.288506 0.463394
O O6 0.776730 0.266471 0.589423
O O7 0.670255 0.359468 0.587399
O O8 0.777428 0.322130 0.400145
O O9 0.500000 0.742830 0.750000
O O10 0.702090 0.677683 0.685248
O O11 0.586715 0.548893 0.159069
O O12 0.369872 0.075717 0.308971
O O13 0.500000 0.172867 0.750000
#
# Coordination Sequence:
#
# PCOD9455166 Si02
#       7
#     8   8   8   4   4   8   8
#     4  10  20  36  61  84 117 153 198 237 290 349
#     4  10  22  40  60  87 120 153 197 247 300 353
#     4  10  22  40  62  88 118 155 198 248 300 356
#     4  10  22  38  56  84 120 156 188 242 294 346
#     4  10  20  38  58  88 116 156 192 242 294 344
#     4  10  22  38  57  85 120 152 199 237 296 348
#     4  10  20  37  62  90 114 152 198 244 296 352
#
# _framework density 18.215064999999999
#
# number of rings (size 3 to 8) (size 9 to 14) (size 15 to 20)
#    0.000    2.000    0.833    2.000    7.000    0.000 
#    7.500    3.333    0.000    0.000    0.000    0.000 
#    0.000    0.000    0.000    0.000    0.000    0.000 
#
# Total GULP energy -267821.544742 kJ/mol
# GULP energy per Si atom -5579.615515 kJ/mol
# Density = 1.817361 g / cm^3
# Si number density = 18.215065 Si / 1000 Ang^3
#
#
#
# Elastic Constant Matrix: (Units=GPa)
#
#
# Indices 1 2 3 4 5 6 
#
# 1 88.5613 27.4302 28.2576 0.0000 0.0000 0.0000
# 2 27.4302 74.3666 47.6924 0.0000 0.0000 0.0000
# 3 28.2576 47.6924 59.1215 0.0000 0.0000 0.0000
# 4 0.0000 0.0000 0.0000 30.0312 0.0000 0.0000
# 5 0.0000 0.0000 0.0000 0.0000 18.4586 0.0000
# 6 0.0000 0.0000 0.0000 0.0000 0.0000 20.2842
#
#
#
# Elastic Compliance Matrix: (Units=1/GPa)
#
#
# Indices 1 2 3 4 5 6 
#
# 1 0.013431 -0.001734 -0.005020 0.000000 0.000000 0.000000
# 2 -0.001734 0.028084 -0.021826 0.000000 0.000000 0.000000
# 3 -0.005020 -0.021826 0.036920 0.000000 0.000000 0.000000
# 4 0.000000 0.000000 0.000000 0.033299 0.000000 0.000000
# 5 0.000000 0.000000 0.000000 0.000000 0.054175 0.000000
# 6 0.000000 0.000000 0.000000 0.000000 0.000000 0.049300
#
#
# Mechanical properties :
#
#
# Convention : Reuss Voigt Hill
#
# Bulk Modulus (GPa) = 47.00575 47.64552 47.32563
# Shear Modulus (GPa) = 17.89164 21.66609 19.77886
#
# Velocity S-wave (km/s) = 3.13748 3.45260 3.29880
# Velocity P-wave (km/s) = 6.24396 6.48906 6.36769
#
# Compressibility (1/GPa) = 0.02127399
#
# Stress axis : x y z
#
# Youngs Moduli (GPa) = 74.45675 35.60771 27.08542
#
# Poissons Ratio (x) = 0.06176 0.13597
# Poissons Ratio (y) = 0.12914 0.59116
# Poissons Ratio (z) = 0.37378 0.77717
#
# Static dielectric constant tensor:
#      x y z
#    x 1.626720 0.000000 0.000000 
#    y 0.000000 1.606980 0.000000 
#    z 0.000000 0.000000 1.594930 
# 
# From -- ./inp_files/10142.got.cif
#   From: 2010.05.17/outbox.cif.g08.bks.cpg/sg60_6_cif.got.tgz:10142.got - 2010.06.03 14:59:27.
