data_PCOD9455197
_publ_section_title
;
Structure prediction by ZEFSAII (Michael W. Deem and Ramdas Pophale) SiO2 
 PCOD9455197
Probable space group: P B C N
;
_chemical_formula_sum "Si O2"
_cell_formula_units_Z 40
_cell_length_a 6.828504
_cell_length_b 14.531367
_cell_length_c 17.568708
_cell_angle_alpha 90.000000
_cell_angle_beta 90.000000
_cell_angle_gamma 90.000000
_cell_volume 1743.298932
_symmetry_space_group_name_H-M "P B C N"
_symmetry_group_IT_number 60
_symmetry_cell_setting 'orthorhombic'
loop_
_space_group_symop_operation_xyz
x,y,z
1/2-x,1/2-y,1/2+z
1/2+x,1/2-y,-z
-x,y,1/2-z
-x,-y,-z
1/2+x,1/2+y,1/2-z
1/2-x,1/2+y,z
x,-y,1/2+z
loop_
_atom_site_type_symbol
_atom_site_label
_atom_site_fract_x
_atom_site_fract_y
_atom_site_fract_z
Si Si1 0.055439 0.679548 0.337774
Si Si2 0.532138 0.607585 0.837658
Si Si3 0.136536 0.065016 0.424448
Si Si4 0.759523 0.662204 0.472437
Si Si5 0.630020 0.869922 0.444578
O O1 0.055198 0.789999 0.349040
O O2 0.255337 0.630437 0.363068
O O3 0.000000 0.661629 0.250000
O O4 0.890049 0.644661 0.396667
O O5 0.500000 0.585114 0.750000
O O6 0.554889 0.387386 0.959724
O O7 0.760014 0.612512 0.865194
O O8 0.071484 0.971376 0.385603
O O9 0.286022 0.057183 0.494957
O O10 0.710523 0.770878 0.473538
O O11 0.899054 0.637998 0.543588
#
# Coordination Sequence:
#
# PCOD9455197 Si02
#       5
#     8   8   8   8   8
#     4   9  22  42  63  93 138 177 227 286 344 421
#     4  10  23  42  66 100 142 180 234 289 351 432
#     4  11  22  39  72  94 134 183 229 292 345 419
#     4  10  20  36  67  99 128 183 229 275 355 406
#     4  10  20  40  63  99 138 175 233 289 340 422
#
# _framework density 22.945004999999998
#
# number of rings (size 3 to 8) (size 9 to 14) (size 15 to 20)
#    0.000    2.000    2.000    0.600    2.800    0.800 
#    0.000    8.000    0.000    0.000    0.000    0.000 
#    0.000    0.000    0.000    0.000    0.000    0.000 
#
# Total GULP energy -223823.750687 kJ/mol
# GULP energy per Si atom -5595.593767 kJ/mol
# Density = 2.289278 g / cm^3
# Si number density = 22.945005 Si / 1000 Ang^3
#
#
#
# Elastic Constant Matrix: (Units=GPa)
#
#
# Indices 1 2 3 4 5 6 
#
# 1 166.3984 54.7555 68.1493 0.0000 0.0000 0.0000
# 2 54.7555 79.9551 40.3160 0.0000 0.0000 0.0000
# 3 68.1493 40.3160 139.6558 0.0000 0.0000 0.0000
# 4 0.0000 0.0000 0.0000 39.1719 0.0000 0.0000
# 5 0.0000 0.0000 0.0000 0.0000 32.3983 0.0000
# 6 0.0000 0.0000 0.0000 0.0000 0.0000 34.1287
#
#
#
# Elastic Compliance Matrix: (Units=1/GPa)
#
#
# Indices 1 2 3 4 5 6 
#
# 1 0.008686 -0.004460 -0.002951 0.000000 0.000000 0.000000
# 2 -0.004460 0.016928 -0.002710 0.000000 0.000000 0.000000
# 3 -0.002951 -0.002710 0.009383 0.000000 0.000000 0.000000
# 4 0.000000 0.000000 0.000000 0.025529 0.000000 0.000000
# 5 0.000000 0.000000 0.000000 0.000000 0.030866 0.000000
# 6 0.000000 0.000000 0.000000 0.000000 0.000000 0.029301
#
#
# Mechanical properties :
#
#
# Convention : Reuss Voigt Hill
#
# Bulk Modulus (GPa) = 67.77908 79.16119 73.47013
# Shear Modulus (GPa) = 34.28095 35.99235 35.13665
#
# Velocity S-wave (km/s) = 3.86949 3.96490 3.91748
# Velocity P-wave (km/s) = 7.04044 7.45224 7.24926
#
# Compressibility (1/GPa) = 0.01475382
#
# Stress axis : x y z
#
# Youngs Moduli (GPa) = 115.12750 59.07284 106.57720
#
# Poissons Ratio (x) = 0.26349 0.31450
# Poissons Ratio (y) = 0.51352 0.28885
# Poissons Ratio (z) = 0.33974 0.16010
#
# Static dielectric constant tensor:
#      x y z
#    x 1.853120 0.000000 0.000000 
#    y 0.000000 1.903980 0.000000 
#    z 0.000000 0.000000 1.858450 
# 
# From -- ./inp_files/19139.got.cif
#   From: 2010.05.17/outbox.cif.g08.bks.cpg/sg60_10_cif.got.tgz:19139.got - 2010.06.03 14:59:27.
