data_PCOD9455064
_publ_section_title
;
Structure prediction by ZEFSAII (Michael W. Deem and Ramdas Pophale) SiO2 
 PCOD9455064
Probable space group: P B C N
;
_chemical_formula_sum "Si O2"
_cell_formula_units_Z 52
_cell_length_a 23.404077
_cell_length_b 5.194676
_cell_length_c 16.032453
_cell_angle_alpha 90.000000
_cell_angle_beta 90.000000
_cell_angle_gamma 90.000000
_cell_volume 1949.171079
_symmetry_space_group_name_H-M "P B C N"
_symmetry_group_IT_number 60
_symmetry_cell_setting 'orthorhombic'
loop_
_space_group_symop_operation_xyz
x,y,z
1/2-x,1/2-y,1/2+z
1/2+x,1/2-y,-z
-x,y,1/2-z
-x,-y,-z
1/2+x,1/2+y,1/2-z
1/2-x,1/2+y,z
x,-y,1/2+z
loop_
_atom_site_type_symbol
_atom_site_label
_atom_site_fract_x
_atom_site_fract_y
_atom_site_fract_z
Si Si1 0.832466 0.327241 0.416727
Si Si2 0.000000 0.819588 0.750000
Si Si3 0.589256 0.648205 0.541022
Si Si4 0.965051 0.192540 0.896029
Si Si5 0.896225 0.430293 0.275232
Si Si6 0.213723 0.649559 0.220611
Si Si7 0.787578 0.936974 0.067557
O O1 0.879891 0.372658 0.487220
O O2 0.861523 0.221585 0.331566
O O3 0.805488 0.580903 0.375209
O O4 0.795422 0.121146 0.467418
O O5 0.975301 0.978958 0.825338
O O6 0.945395 0.667029 0.716344
O O7 0.568007 0.433233 0.474063
O O8 0.530580 0.753445 0.578714
O O9 0.644923 0.543174 0.591897
O O10 0.931163 0.409302 0.845080
O O11 0.846032 0.592913 0.233730
O O12 0.259037 0.422679 0.236570
O O13 0.750083 0.684394 0.090522
#
# Coordination Sequence:
#
# PCOD9455064 Si02
#       7
#     8   4   8   8   8   8   8
#     4   8  19  33  53  95 124 157 207 252 332 371
#     4  12  22  46  58  90 122 176 224 270 316 404
#     4   9  22  38  61 100 122 173 199 282 327 378
#     4  11  22  43  62  89 137 159 226 264 333 393
#     4  10  24  35  64  92 117 176 211 266 327 388
#     4  10  21  35  61  94 132 162 210 275 331 386
#     4  10  20  35  58  94 133 170 209 262 327 398
#
# _framework density 26.67801
#
# number of rings (size 3 to 8) (size 9 to 14) (size 15 to 20)
#    1.846    0.308    1.538    1.385    6.462    0.615 
#    2.769    0.000    0.000    1.846    0.000    0.000 
#    0.000    0.000    0.000    0.000    0.000    0.000 
#
# Total GULP energy -289732.694376 kJ/mol
# GULP energy per Si atom -5571.782584 kJ/mol
# Density = 2.661729 g / cm^3
# Si number density = 26.678010 Si / 1000 Ang^3
#
#
#
# Elastic Constant Matrix: (Units=GPa)
#
#
# Indices 1 2 3 4 5 6 
#
# 1 195.8974 44.1072 29.7429 0.0000 0.0000 0.0000
# 2 44.1072 97.4697 22.6623 0.0000 0.0000 0.0000
# 3 29.7429 22.6623 39.4078 0.0000 0.0000 0.0000
# 4 0.0000 0.0000 0.0000 16.9917 0.0000 0.0000
# 5 0.0000 0.0000 0.0000 0.0000 33.3954 0.0000
# 6 0.0000 0.0000 0.0000 0.0000 0.0000 25.2827
#
#
#
# Elastic Compliance Matrix: (Units=1/GPa)
#
#
# Indices 1 2 3 4 5 6 
#
# 1 0.006067 -0.001940 -0.003464 0.000000 0.000000 0.000000
# 2 -0.001940 0.012464 -0.005703 0.000000 0.000000 0.000000
# 3 -0.003464 -0.005703 0.031269 0.000000 0.000000 0.000000
# 4 0.000000 0.000000 0.000000 0.058852 0.000000 0.000000
# 5 0.000000 0.000000 0.000000 0.000000 0.029944 0.000000
# 6 0.000000 0.000000 0.000000 0.000000 0.000000 0.039553
#
#
# Mechanical properties :
#
#
# Convention : Reuss Voigt Hill
#
# Bulk Modulus (GPa) = 36.24934 58.42219 47.33576
# Shear Modulus (GPa) = 23.85959 30.88479 27.37219
#
# Velocity S-wave (km/s) = 2.99382 3.40617 3.20663
# Velocity P-wave (km/s) = 5.05646 6.11685 5.61176
#
# Compressibility (1/GPa) = 0.02758671
#
# Stress axis : x y z
#
# Youngs Moduli (GPa) = 164.81363 80.23343 31.98010
#
# Poissons Ratio (x) = 0.15568 0.11076
# Poissons Ratio (y) = 0.31980 0.18238
# Poissons Ratio (z) = 0.57084 0.45757
#
# Static dielectric constant tensor:
#      x y z
#    x 1.750950 0.000000 0.000000 
#    y 0.000000 2.151670 0.000000 
#    z 0.000000 0.000000 2.212390 
# 
# From -- ./inp_files/23191.got.cif
#   From: 2010.05.17/outbox.cif.g08.bks.cpg/sg60_12_cif.got.tgz:23191.got - 2010.06.03 14:59:27.
