data_PCOD9455095
_publ_section_title
;
Structure prediction by ZEFSAII (Michael W. Deem and Ramdas Pophale) SiO2 
 PCOD9455095
Probable space group: P B C N
;
_chemical_formula_sum "Si O2"
_cell_formula_units_Z 44
_cell_length_a 8.404556
_cell_length_b 16.650469
_cell_length_c 13.283860
_cell_angle_alpha 90.000000
_cell_angle_beta 90.000000
_cell_angle_gamma 90.000000
_cell_volume 1858.940700
_symmetry_space_group_name_H-M "P B C N"
_symmetry_group_IT_number 60
_symmetry_cell_setting 'orthorhombic'
loop_
_space_group_symop_operation_xyz
x,y,z
1/2-x,1/2-y,1/2+z
1/2+x,1/2-y,-z
-x,y,1/2-z
-x,-y,-z
1/2+x,1/2+y,1/2-z
1/2-x,1/2+y,z
x,-y,1/2+z
loop_
_atom_site_type_symbol
_atom_site_label
_atom_site_fract_x
_atom_site_fract_y
_atom_site_fract_z
Si Si1 0.286260 0.913570 0.469222
Si Si2 0.000000 0.266872 0.250000
Si Si3 0.372921 0.900144 0.956134
Si Si4 0.000000 0.002383 0.750000
Si Si5 0.222284 0.408257 0.229105
Si Si6 0.540586 0.632595 0.085617
Si Si7 0.500000 0.948019 0.750000
O O1 0.458189 0.874103 0.496436
O O2 0.260621 0.904676 0.350283
O O3 0.128544 0.884199 0.529355
O O4 0.327519 0.007845 0.483512
O O5 0.864515 0.326467 0.292465
O O6 0.962389 0.209264 0.157644
O O7 0.204822 0.857499 0.976587
O O8 0.414080 0.898562 0.836435
O O9 0.110021 0.064444 0.689724
O O10 0.064588 0.942636 0.836261
O O11 0.119855 0.487319 0.202102
#
# Coordination Sequence:
#
# PCOD9455095 Si02
#       7
#     8   4   8   4   8   8   4
#     4  10  21  38  64  95 131 156 212 264 324 364
#     4  10  26  46  58  89 137 162 214 252 318 388
#     4  10  20  35  64 101 125 159 205 272 313 361
#     4  11  20  37  69  91 118 164 228 253 310 377
#     4  10  21  42  60  90 126 175 202 257 317 383
#     4  11  22  42  66 100 120 163 217 275 301 373
#     4   9  16  35  61  88 127 154 210 247 310 365
#
# _framework density 23.669394
#
# number of rings (size 3 to 8) (size 9 to 14) (size 15 to 20)
#    0.000    1.818    3.636    1.636    2.545    1.455 
#    6.545    0.000    0.000    0.000    0.000    0.000 
#    0.000    0.000    0.000    0.000    0.000    0.000 
#
# Total GULP energy -245316.950473 kJ/mol
# GULP energy per Si atom -5575.385238 kJ/mol
# Density = 2.361552 g / cm^3
# Si number density = 23.669394 Si / 1000 Ang^3
#
#
#
# Elastic Constant Matrix: (Units=GPa)
#
#
# Indices 1 2 3 4 5 6 
#
# 1 170.6073 31.4499 25.4037 0.0000 0.0000 0.0000
# 2 31.4499 70.5434 6.3645 0.0000 0.0000 0.0000
# 3 25.4037 6.3645 100.6512 0.0000 0.0000 0.0000
# 4 0.0000 0.0000 0.0000 18.3849 0.0000 0.0000
# 5 0.0000 0.0000 0.0000 0.0000 35.8396 0.0000
# 6 0.0000 0.0000 0.0000 0.0000 0.0000 49.1046
#
#
#
# Elastic Compliance Matrix: (Units=1/GPa)
#
#
# Indices 1 2 3 4 5 6 
#
# 1 0.006601 -0.002808 -0.001488 0.000000 0.000000 0.000000
# 2 -0.002808 0.015452 -0.000268 0.000000 0.000000 0.000000
# 3 -0.001488 -0.000268 0.010328 0.000000 0.000000 0.000000
# 4 0.000000 0.000000 0.000000 0.054392 0.000000 0.000000
# 5 0.000000 0.000000 0.000000 0.000000 0.027902 0.000000
# 6 0.000000 0.000000 0.000000 0.000000 0.000000 0.020365
#
#
# Mechanical properties :
#
#
# Convention : Reuss Voigt Hill
#
# Bulk Modulus (GPa) = 43.01002 52.02647 47.51824
# Shear Modulus (GPa) = 32.91199 39.23805 36.07502
#
# Velocity S-wave (km/s) = 3.73297 4.07597 3.90823
# Velocity P-wave (km/s) = 6.06553 6.64677 6.36279
#
# Compressibility (1/GPa) = 0.02325040
#
# Stress axis : x y z
#
# Youngs Moduli (GPa) = 151.49770 64.71671 96.82485
#
# Poissons Ratio (x) = 0.18176 0.14411
# Poissons Ratio (y) = 0.42548 0.02597
# Poissons Ratio (z) = 0.22549 0.01736
#
# Static dielectric constant tensor:
#      x y z
#    x 128.557790 0.000000 0.000000 
#    y 0.000000 1.853650 0.000000 
#    z 0.000000 0.000000 1.999330 
# 
# From -- ./inp_files/14939.got.cif
#   From: 2010.05.17/outbox.cif.g08.bks.cpg/sg60_8_cif.got.tgz:14939.got - 2010.06.03 14:59:27.
