data_PCOD9455708
_publ_section_title
;
Structure prediction by ZEFSAII (Michael W. Deem and Ramdas Pophale) SiO2 
 PCOD9455708
Probable space group: P B C N
;
_chemical_formula_sum "Si O2"
_cell_formula_units_Z 48
_cell_length_a 18.544859
_cell_length_b 14.428257
_cell_length_c 8.868563
_cell_angle_alpha 90.000000
_cell_angle_beta 90.000000
_cell_angle_gamma 90.000000
_cell_volume 2372.961328
_symmetry_space_group_name_H-M "P B C N"
_symmetry_group_IT_number 60
_symmetry_cell_setting 'orthorhombic'
loop_
_space_group_symop_operation_xyz
x,y,z
1/2-x,1/2-y,1/2+z
1/2+x,1/2-y,-z
-x,y,1/2-z
-x,-y,-z
1/2+x,1/2+y,1/2-z
1/2-x,1/2+y,z
x,-y,1/2+z
loop_
_atom_site_type_symbol
_atom_site_label
_atom_site_fract_x
_atom_site_fract_y
_atom_site_fract_z
Si Si1 0.047783 0.130837 0.398995
Si Si2 0.820427 0.212978 0.593040
Si Si3 0.424930 0.936678 0.161411
Si Si4 0.666232 0.240128 0.743040
Si Si5 0.941039 0.921129 0.121827
Si Si6 0.076304 0.379232 0.817710
O O1 0.113971 0.197614 0.363084
O O2 0.000000 0.129427 0.250000
O O3 0.985182 0.152396 0.518964
O O4 0.071587 0.025463 0.440124
O O5 0.740652 0.221736 0.657763
O O6 0.822055 0.213951 0.409407
O O7 0.864252 0.123724 0.652990
O O8 0.865959 0.299501 0.657212
O O9 0.500000 0.925268 0.250000
O O10 0.372598 0.856722 0.220608
O O11 0.398039 0.038920 0.206299
O O12 0.435745 0.923384 0.983376
O O13 0.000000 0.934483 0.250000
O O14 0.000000 0.345525 0.750000
#
# Coordination Sequence:
#
# PCOD9455708 Si02
#       6
#     8   8   8   8   8   8
#     4  10  20  42  67  90 120 160 206 259 306 361
#     4  11  25  41  58  91 125 164 202 247 312 366
#     4  10  21  38  62  89 115 158 201 245 299 352
#     4  11  25  40  61  87 126 164 200 249 310 368
#     4  10  22  39  67  96 118 155 210 257 306 366
#     4  10  21  39  62  89 118 154 203 249 295 355
#
# _framework density 20.227889999999999
#
# number of rings (size 3 to 8) (size 9 to 14) (size 15 to 20)
#    0.000    1.667    1.667    3.000    4.667    4.000 
#    0.000    3.333    0.000    0.000    0.000    0.000 
#    0.000    0.000    0.000    0.000    0.000    0.000 
#
# Total GULP energy -267778.708969 kJ/mol
# GULP energy per Si atom -5578.723104 kJ/mol
# Density = 2.018185 g / cm^3
# Si number density = 20.227890 Si / 1000 Ang^3
#
#
#
# Elastic Constant Matrix: (Units=GPa)
#
#
# Indices 1 2 3 4 5 6 
#
# 1 129.4917 50.1390 24.5505 0.0000 0.0000 0.0000
# 2 50.1390 60.2825 2.8303 0.0000 0.0000 0.0000
# 3 24.5505 2.8303 48.2162 0.0000 0.0000 0.0000
# 4 0.0000 0.0000 0.0000 28.5324 0.0000 0.0000
# 5 0.0000 0.0000 0.0000 0.0000 28.6271 0.0000
# 6 0.0000 0.0000 0.0000 0.0000 0.0000 11.9736
#
#
#
# Elastic Compliance Matrix: (Units=1/GPa)
#
#
# Indices 1 2 3 4 5 6 
#
# 1 0.012896 -0.010447 -0.005953 0.000000 0.000000 0.000000
# 2 -0.010447 0.025097 0.003846 0.000000 0.000000 0.000000
# 3 -0.005953 0.003846 0.023545 0.000000 0.000000 0.000000
# 4 0.000000 0.000000 0.000000 0.035048 0.000000 0.000000
# 5 0.000000 0.000000 0.000000 0.000000 0.034932 0.000000
# 6 0.000000 0.000000 0.000000 0.000000 0.000000 0.083517
#
#
# Mechanical properties :
#
#
# Convention : Reuss Voigt Hill
#
# Bulk Modulus (GPa) = 27.44941 43.67001 35.55971
# Shear Modulus (GPa) = 19.81877 24.52466 22.17172
#
# Velocity S-wave (km/s) = 3.13353 3.48576 3.31433
# Velocity P-wave (km/s) = 5.16639 6.15114 5.68015
#
# Compressibility (1/GPa) = 0.03643065
#
# Stress axis : x y z
#
# Youngs Moduli (GPa) = 77.54299 39.84575 42.47120
#
# Poissons Ratio (x) = 0.41625 0.25284
# Poissons Ratio (y) = 0.81006 -0.16334
# Poissons Ratio (z) = 0.46162 -0.15324
#
# Static dielectric constant tensor:
#      x y z
#    x 1.653920 0.000000 0.000000 
#    y 0.000000 1.760960 0.000000 
#    z 0.000000 0.000000 1.701650 
# 
# From -- ./inp_files/6702.got.cif
#   From: 2010.05.17/outbox.cif.g08.bks.cpg/sg60_4_cif.got.tgz:6702.got - 2010.06.03 14:59:27.
