data_PCOD9455519
_publ_section_title
;
Structure prediction by ZEFSAII (Michael W. Deem and Ramdas Pophale) SiO2 
 PCOD9455519
Probable space group: P B C N
;
_chemical_formula_sum "Si O2"
_cell_formula_units_Z 48
_cell_length_a 11.283837
_cell_length_b 9.350878
_cell_length_c 17.310921
_cell_angle_alpha 90.000000
_cell_angle_beta 90.000000
_cell_angle_gamma 90.000000
_cell_volume 1826.540765
_symmetry_space_group_name_H-M "P B C N"
_symmetry_group_IT_number 60
_symmetry_cell_setting 'orthorhombic'
loop_
_space_group_symop_operation_xyz
x,y,z
1/2-x,1/2-y,1/2+z
1/2+x,1/2-y,-z
-x,y,1/2-z
-x,-y,-z
1/2+x,1/2+y,1/2-z
1/2-x,1/2+y,z
x,-y,1/2+z
loop_
_atom_site_type_symbol
_atom_site_label
_atom_site_fract_x
_atom_site_fract_y
_atom_site_fract_z
Si Si1 0.740400 0.102911 0.170987
Si Si2 0.245414 0.768988 0.566950
Si Si3 0.667497 0.027065 0.833759
Si Si4 0.956309 0.497942 0.566943
Si Si5 0.988099 0.174592 0.987526
Si Si6 0.085930 0.128207 0.823112
O O1 0.670140 0.040291 0.096804
O O2 0.703396 0.269095 0.177155
O O3 0.688810 0.033970 0.249925
O O4 0.871690 0.036471 0.168513
O O5 0.230351 0.673278 0.644450
O O6 0.340320 0.696123 0.509176
O O7 0.116431 0.788622 0.530936
O O8 0.285965 0.919653 0.600778
O O9 0.530440 0.038031 0.858806
O O10 0.021294 0.389778 0.504133
O O11 0.985619 0.189970 0.605117
O O12 0.000000 0.000000 0.000000
O O13 0.000000 0.143837 0.750000
#
# Coordination Sequence:
#
# PCOD9455519 Si02
#       6
#     8   8   8   8   8   8
#     4  11  23  42  72  99 135 192 235 294 366 437
#     4  11  24  40  67  94 136 181 228 296 349 431
#     4  11  22  40  64  94 136 172 227 278 356 413
#     4  10  20  39  65  95 132 175 229 281 347 432
#     4  10  23  40  66  96 137 176 231 292 362 412
#     4  11  24  45  69 100 144 187 240 303 366 436
#
# _framework density 26.279184000000001
#
# number of rings (size 3 to 8) (size 9 to 14) (size 15 to 20)
#    0.000    1.333    1.667    5.500    4.667    0.667 
#    0.000    9.167    0.000    0.000    0.000    0.000 
#    0.000    0.000    0.000    0.000    0.000    0.000 
#
# Total GULP energy -267486.639176 kJ/mol
# GULP energy per Si atom -5572.638316 kJ/mol
# Density = 2.621937 g / cm^3
# Si number density = 26.279184 Si / 1000 Ang^3
#
#
#
# Elastic Constant Matrix: (Units=GPa)
#
#
# Indices 1 2 3 4 5 6 
#
# 1 100.0169 55.1093 36.4752 0.0000 0.0000 0.0000
# 2 55.1093 77.4969 -4.1824 0.0000 0.0000 0.0000
# 3 36.4752 -4.1824 118.4833 0.0000 0.0000 0.0000
# 4 0.0000 0.0000 0.0000 22.2290 0.0000 0.0000
# 5 0.0000 0.0000 0.0000 0.0000 43.7159 0.0000
# 6 0.0000 0.0000 0.0000 0.0000 0.0000 42.7786
#
#
#
# Elastic Compliance Matrix: (Units=1/GPa)
#
#
# Indices 1 2 3 4 5 6 
#
# 1 0.020978 -0.015296 -0.006998 0.000000 0.000000 0.000000
# 2 -0.015296 0.024081 0.005559 0.000000 0.000000 0.000000
# 3 -0.006998 0.005559 0.010791 0.000000 0.000000 0.000000
# 4 0.000000 0.000000 0.000000 0.044986 0.000000 0.000000
# 5 0.000000 0.000000 0.000000 0.000000 0.022875 0.000000
# 6 0.000000 0.000000 0.000000 0.000000 0.000000 0.023376
#
#
# Mechanical properties :
#
#
# Convention : Reuss Voigt Hill
#
# Bulk Modulus (GPa) = 44.68333 52.31124 48.49729
# Shear Modulus (GPa) = 26.59329 35.65105 31.12217
#
# Velocity S-wave (km/s) = 3.18457 3.68724 3.44508
# Velocity P-wave (km/s) = 5.52831 6.17064 5.85829
#
# Compressibility (1/GPa) = 0.02237971
#
# Stress axis : x y z
#
# Youngs Moduli (GPa) = 47.66797 41.52683 92.67305
#
# Poissons Ratio (x) = 0.63519 0.64854
# Poissons Ratio (y) = 0.72912 -0.51516
# Poissons Ratio (z) = 0.33359 -0.23084
#
# Static dielectric constant tensor:
#      x y z
#    x 2.086790 0.000000 0.000000 
#    y 0.000000 0.836830 0.000000 
#    z 0.000000 0.000000 1.574100 
# 
# From -- ./inp_files/24253.got.cif
#   From: 2010.05.17/outbox.cif.g08.bks.cpg/sg60_13_cif.got.tgz:24253.got - 2010.06.03 14:59:27.
