data_PCOD9455789
_publ_section_title
;
Structure prediction by ZEFSAII (Michael W. Deem and Ramdas Pophale) SiO2 
 PCOD9455789
Probable space group: P B C N
;
_chemical_formula_sum "Si O2"
_cell_formula_units_Z 56
_cell_length_a 8.153037
_cell_length_b 20.264490
_cell_length_c 16.776572
_cell_angle_alpha 90.000000
_cell_angle_beta 90.000000
_cell_angle_gamma 90.000000
_cell_volume 2771.777190
_symmetry_space_group_name_H-M "P B C N"
_symmetry_group_IT_number 60
_symmetry_cell_setting 'orthorhombic'
loop_
_space_group_symop_operation_xyz
x,y,z
1/2-x,1/2-y,1/2+z
1/2+x,1/2-y,-z
-x,y,1/2-z
-x,-y,-z
1/2+x,1/2+y,1/2-z
1/2-x,1/2+y,z
x,-y,1/2+z
loop_
_atom_site_type_symbol
_atom_site_label
_atom_site_fract_x
_atom_site_fract_y
_atom_site_fract_z
Si Si1 0.603079 0.158277 0.017900
Si Si2 0.455345 0.481851 0.383045
Si Si3 0.531322 0.037042 0.415571
Si Si4 0.116573 0.909043 0.547801
Si Si5 0.324688 0.629851 0.789382
Si Si6 0.244944 0.797339 0.455849
Si Si7 0.185469 0.417386 0.142378
O O1 0.422191 0.184241 0.991788
O O2 0.668885 0.125312 0.937208
O O3 0.590575 0.098976 0.082565
O O4 0.707627 0.220402 0.044984
O O5 0.479198 0.559795 0.394927
O O6 0.392734 0.452438 0.466727
O O7 0.345170 0.446825 0.317215
O O8 0.636271 0.452003 0.366914
O O9 0.707834 0.072756 0.415586
O O10 0.500000 0.000000 0.500000
O O11 0.549390 0.975292 0.356355
O O12 0.117924 0.834896 0.515928
O O13 0.500000 0.650609 0.750000
O O14 0.280400 0.671086 0.868014
O O15 0.193475 0.628615 0.719170
#
# Coordination Sequence:
#
# PCOD9455789 Si02
#       7
#     8   8   8   8   8   8   8
#     4  10  21  33  54  82 110 146 190 232 277 336
#     4   8  14  26  48  77 103 135 168 226 279 323
#     4   8  15  30  48  76 101 135 174 229 279 313
#     4   8  14  26  45  72 105 129 174 218 265 320
#     4   9  18  31  53  82 109 142 185 229 286 340
#     4  10  21  33  51  82 108 149 191 227 276 340
#     4   9  17  31  54  78 105 143 183 236 286 324
#
# _framework density 20.203644000000001
#
# number of rings (size 3 to 8) (size 9 to 14) (size 15 to 20)
#    0.000    3.143    0.000    0.000    6.000    0.571 
#    0.000    0.000    0.000    1.714   11.143    0.000 
#    0.000    0.000    0.000    0.000    0.000    0.000 
#
# Total GULP energy -311740.530779 kJ/mol
# GULP energy per Si atom -5566.795192 kJ/mol
# Density = 2.015766 g / cm^3
# Si number density = 20.203644 Si / 1000 Ang^3
#
#
#
# Elastic Constant Matrix: (Units=GPa)
#
#
# Indices 1 2 3 4 5 6 
#
# 1 57.6963 12.3460 17.6697 0.0000 0.0000 0.0000
# 2 12.3460 99.2564 29.5328 0.0000 0.0000 0.0000
# 3 17.6697 29.5328 61.5060 0.0000 0.0000 0.0000
# 4 0.0000 0.0000 0.0000 11.0860 0.0000 0.0000
# 5 0.0000 0.0000 0.0000 0.0000 18.2112 0.0000
# 6 0.0000 0.0000 0.0000 0.0000 0.0000 16.8637
#
#
#
# Elastic Compliance Matrix: (Units=1/GPa)
#
#
# Indices 1 2 3 4 5 6 
#
# 1 0.019068 -0.000866 -0.005062 0.000000 0.000000 0.000000
# 2 -0.000866 0.011793 -0.005414 0.000000 0.000000 0.000000
# 3 -0.005062 -0.005414 0.020313 0.000000 0.000000 0.000000
# 4 0.000000 0.000000 0.000000 0.090204 0.000000 0.000000
# 5 0.000000 0.000000 0.000000 0.000000 0.054911 0.000000
# 6 0.000000 0.000000 0.000000 0.000000 0.000000 0.059299
#
#
# Mechanical properties :
#
#
# Convention : Reuss Voigt Hill
#
# Bulk Modulus (GPa) = 35.10015 37.50619 36.30317
# Shear Modulus (GPa) = 17.37510 19.82619 18.60065
#
# Velocity S-wave (km/s) = 2.93575 3.13600 3.03753
# Velocity P-wave (km/s) = 5.37610 5.63179 5.50543
#
# Compressibility (1/GPa) = 0.02848990
#
# Stress axis : x y z
#
# Youngs Moduli (GPa) = 52.44480 84.79247 49.23070
#
# Poissons Ratio (x) = 0.07339 0.24922
# Poissons Ratio (y) = 0.04539 0.26654
# Poissons Ratio (z) = 0.26549 0.45908
#
# Static dielectric constant tensor:
#      x y z
#    x 1.813090 0.000000 0.000000 
#    y 0.000000 1.728450 0.000000 
#    z 0.000000 0.000000 1.734880 
# 
# From -- ./inp_files/19620.got.cif
#   From: 2010.05.17/outbox.cif.g08.bks.cpg/sg60_10_cif.got.tgz:19620.got - 2010.06.03 14:59:27.
