data_PCOD9455430
_publ_section_title
;
Structure prediction by ZEFSAII (Michael W. Deem and Ramdas Pophale) SiO2 
 PCOD9455430
Probable space group: P B C N
;
_chemical_formula_sum "Si O2"
_cell_formula_units_Z 40
_cell_length_a 5.007138
_cell_length_b 23.684634
_cell_length_c 13.011990
_cell_angle_alpha 90.000000
_cell_angle_beta 90.000000
_cell_angle_gamma 90.000000
_cell_volume 1543.120923
_symmetry_space_group_name_H-M "P B C N"
_symmetry_group_IT_number 60
_symmetry_cell_setting 'orthorhombic'
loop_
_space_group_symop_operation_xyz
x,y,z
1/2-x,1/2-y,1/2+z
1/2+x,1/2-y,-z
-x,y,1/2-z
-x,-y,-z
1/2+x,1/2+y,1/2-z
1/2-x,1/2+y,z
x,-y,1/2+z
loop_
_atom_site_type_symbol
_atom_site_label
_atom_site_fract_x
_atom_site_fract_y
_atom_site_fract_z
Si Si1 0.254335 0.989364 0.425420
Si Si2 0.322952 0.106877 0.349154
Si Si3 0.453358 0.131912 0.921834
Si Si4 0.591545 0.298115 0.857958
Si Si5 0.452496 0.708641 0.586191
O O1 0.261183 0.040319 0.344873
O O2 0.500000 0.000000 0.500000
O O3 0.323277 0.927120 0.383427
O O4 0.000000 0.000000 0.500000
O O5 0.500000 0.123168 0.250000
O O6 0.484282 0.120661 0.455513
O O7 0.038775 0.139040 0.355663
O O8 0.226982 0.177005 0.896692
O O9 0.726498 0.161775 0.885856
O O10 0.500000 0.273904 0.750000
O O11 0.882937 0.269256 0.866555
O O12 0.455838 0.279235 0.964048
#
# Coordination Sequence:
#
# PCOD9455430 Si02
#       5
#     8   8   8   8   8
#     4  10  20  38  65  94 130 174 217 273 348 422
#     4  10  22  40  69 106 139 177 233 300 360 417
#     4  10  21  40  64  93 130 175 223 273 338 419
#     4  11  24  42  67 100 139 182 236 298 351 415
#     4  11  23  42  68  95 131 182 231 278 347 415
#
# _framework density 25.921493000000002
#
# number of rings (size 3 to 8) (size 9 to 14) (size 15 to 20)
#    0.000    1.600    0.000    6.000    0.000    6.400 
#    0.000    1.000    0.000   12.000    0.000    0.000 
#    0.000    0.000    0.000    0.000    0.000    0.000 
#
# Total GULP energy -223231.803121 kJ/mol
# GULP energy per Si atom -5580.795078 kJ/mol
# Density = 2.586249 g / cm^3
# Si number density = 25.921493 Si / 1000 Ang^3
#
#
#
# Elastic Constant Matrix: (Units=GPa)
#
#
# Indices 1 2 3 4 5 6 
#
# 1 170.8256 40.9801 -5.0350 0.0000 0.0000 0.0000
# 2 40.9801 199.9815 7.6902 0.0000 0.0000 0.0000
# 3 -5.0350 7.6902 64.7677 0.0000 0.0000 0.0000
# 4 0.0000 0.0000 0.0000 31.4880 0.0000 0.0000
# 5 0.0000 0.0000 0.0000 0.0000 34.1770 0.0000
# 6 0.0000 0.0000 0.0000 0.0000 0.0000 43.3494
#
#
#
# Elastic Compliance Matrix: (Units=1/GPa)
#
#
# Indices 1 2 3 4 5 6 
#
# 1 0.006182 -0.001291 0.000634 0.000000 0.000000 0.000000
# 2 -0.001291 0.005293 -0.000729 0.000000 0.000000 0.000000
# 3 0.000634 -0.000729 0.015576 0.000000 0.000000 0.000000
# 4 0.000000 0.000000 0.000000 0.031758 0.000000 0.000000
# 5 0.000000 0.000000 0.000000 0.000000 0.029259 0.000000
# 6 0.000000 0.000000 0.000000 0.000000 0.000000 0.023068
#
#
# Mechanical properties :
#
#
# Convention : Reuss Voigt Hill
#
# Bulk Modulus (GPa) = 41.18838 58.09394 49.64116
# Shear Modulus (GPa) = 40.98282 47.93218 44.45750
#
# Velocity S-wave (km/s) = 3.98054 4.30481 4.14585
# Velocity P-wave (km/s) = 6.08690 6.86795 6.48919
#
# Compressibility (1/GPa) = 0.02427869
#
# Stress axis : x y z
#
# Youngs Moduli (GPa) = 161.75016 188.92534 64.20294
#
# Poissons Ratio (x) = 0.24395 -0.04070
# Poissons Ratio (y) = 0.20886 0.04679
# Poissons Ratio (z) = -0.10254 0.13770
#
# Static dielectric constant tensor:
#      x y z
#    x 2.114090 0.000000 0.000000 
#    y 0.000000 2.126540 0.000000 
#    z 0.000000 0.000000 2.077230 
# 
# From -- ./inp_files/9178.got.cif
#   From: 2010.05.17/outbox.cif.g08.bks.cpg/sg60_5_cif.got.tgz:9178.got - 2010.06.03 14:59:27.
