data_PCOD9455749
_publ_section_title
;
Structure prediction by ZEFSAII (Michael W. Deem and Ramdas Pophale) SiO2 
 PCOD9455749
Probable space group: P B C N
;
_chemical_formula_sum "Si O2"
_cell_formula_units_Z 32
_cell_length_a 5.427422
_cell_length_b 8.844334
_cell_length_c 26.917853
_cell_angle_alpha 90.000000
_cell_angle_beta 90.000000
_cell_angle_gamma 90.000000
_cell_volume 1292.108974
_symmetry_space_group_name_H-M "P B C N"
_symmetry_group_IT_number 60
_symmetry_cell_setting 'orthorhombic'
loop_
_space_group_symop_operation_xyz
x,y,z
1/2-x,1/2-y,1/2+z
1/2+x,1/2-y,-z
-x,y,1/2-z
-x,-y,-z
1/2+x,1/2+y,1/2-z
1/2-x,1/2+y,z
x,-y,1/2+z
loop_
_atom_site_type_symbol
_atom_site_label
_atom_site_fract_x
_atom_site_fract_y
_atom_site_fract_z
Si Si1 0.750077 0.397556 0.257231
Si Si2 0.728998 0.013135 0.097081
Si Si3 0.465141 0.261896 0.335594
Si Si4 0.978744 0.263877 0.030574
O O1 0.500000 0.491778 0.250000
O O2 0.718889 0.307921 0.308677
O O3 0.721737 0.283725 0.210725
O O4 0.000000 0.483697 0.250000
O O5 0.893741 0.890049 0.125035
O O6 0.558555 0.922737 0.058557
O O7 0.566217 0.105062 0.136752
O O8 0.905358 0.130664 0.068700
O O9 0.754004 0.254696 0.990485
#
# Coordination Sequence:
#
# PCOD9455749 Si02
#       4
#     8   8   8   8
#     4   8  18  42  58  86 130 164 210 258 316 374
#     4  10  20  44  66  98 128 172 224 268 320 404
#     4   8  20  39  64  96 126 174 209 268 313 380
#     4  11  24  45  64  96 130 172 213 278 339 386
#
# _framework density 24.765713999999999
#
# number of rings (size 3 to 8) (size 9 to 14) (size 15 to 20)
#    1.500    1.000    0.000    1.500    0.000    0.000 
#   36.000    0.000    0.000    0.000    0.000    5.250 
#    0.000    0.000    0.000    0.000    0.000    0.000 
#
# Total GULP energy -178806.415484 kJ/mol
# GULP energy per Si atom -5587.700484 kJ/mol
# Density = 2.470935 g / cm^3
# Si number density = 24.765714 Si / 1000 Ang^3
#
#
#
# Elastic Constant Matrix: (Units=GPa)
#
#
# Indices 1 2 3 4 5 6 
#
# 1 132.2424 14.0613 9.8474 0.0000 0.0000 0.0000
# 2 14.0613 94.7673 28.9347 0.0000 0.0000 0.0000
# 3 9.8474 28.9347 95.5798 0.0000 0.0000 0.0000
# 4 0.0000 0.0000 0.0000 40.0898 0.0000 0.0000
# 5 0.0000 0.0000 0.0000 0.0000 28.9162 0.0000
# 6 0.0000 0.0000 0.0000 0.0000 0.0000 13.7728
#
#
#
# Elastic Compliance Matrix: (Units=1/GPa)
#
#
# Indices 1 2 3 4 5 6 
#
# 1 0.007704 -0.000993 -0.000493 0.000000 0.000000 0.000000
# 2 -0.000993 0.011755 -0.003456 0.000000 0.000000 0.000000
# 3 -0.000493 -0.003456 0.011560 0.000000 0.000000 0.000000
# 4 0.000000 0.000000 0.000000 0.024944 0.000000 0.000000
# 5 0.000000 0.000000 0.000000 0.000000 0.034583 0.000000
# 6 0.000000 0.000000 0.000000 0.000000 0.000000 0.072607
#
#
# Mechanical properties :
#
#
# Convention : Reuss Voigt Hill
#
# Bulk Modulus (GPa) = 47.31625 47.58625 47.45125
# Shear Modulus (GPa) = 27.76534 34.53885 31.15209
#
# Velocity S-wave (km/s) = 3.35195 3.73852 3.55050
# Velocity P-wave (km/s) = 5.84190 6.15562 6.00081
#
# Compressibility (1/GPa) = 0.02113439
#
# Stress axis : x y z
#
# Youngs Moduli (GPa) = 129.80043 85.07233 86.50834
#
# Poissons Ratio (x) = 0.08443 0.04267
# Poissons Ratio (y) = 0.12883 0.29899
# Poissons Ratio (z) = 0.06403 0.29403
#
# Static dielectric constant tensor:
#      x y z
#    x 2.001120 0.000000 0.000000 
#    y 0.000000 1.901580 0.000000 
#    z 0.000000 0.000000 1.984800 
# 
# From -- ./inp_files/25541.got.cif
#   From: 2010.05.17/outbox.cif.g08.bks.cpg/sg60_13_cif.got.tgz:25541.got - 2010.06.03 14:59:27.
