data_PCOD9455365
_publ_section_title
;
Structure prediction by ZEFSAII (Michael W. Deem and Ramdas Pophale) SiO2 
 PCOD9455365
Probable space group: P B C N
;
_chemical_formula_sum "Si O2"
_cell_formula_units_Z 64
_cell_length_a 31.265271
_cell_length_b 10.065824
_cell_length_c 9.354876
_cell_angle_alpha 90.000000
_cell_angle_beta 90.000000
_cell_angle_gamma 90.000000
_cell_volume 2944.079717
_symmetry_space_group_name_H-M "P B C N"
_symmetry_group_IT_number 60
_symmetry_cell_setting 'orthorhombic'
loop_
_space_group_symop_operation_xyz
x,y,z
1/2-x,1/2-y,1/2+z
1/2+x,1/2-y,-z
-x,y,1/2-z
-x,-y,-z
1/2+x,1/2+y,1/2-z
1/2-x,1/2+y,z
x,-y,1/2+z
loop_
_atom_site_type_symbol
_atom_site_label
_atom_site_fract_x
_atom_site_fract_y
_atom_site_fract_z
Si Si1 0.813524 0.601017 0.840838
Si Si2 0.242150 0.496888 0.904952
Si Si3 0.400174 0.107459 0.804288
Si Si4 0.115585 0.078588 0.301962
Si Si5 0.798341 0.897224 0.836743
Si Si6 0.564732 0.442862 0.977342
Si Si7 0.546088 0.969395 0.930185
Si Si8 0.010399 0.183257 0.595859
O O1 0.778063 0.591898 0.715149
O O2 0.857572 0.550395 0.772065
O O3 0.816670 0.754724 0.877115
O O4 0.796469 0.536877 0.986552
O O5 0.264266 0.392438 0.795397
O O6 0.277317 0.543285 0.020780
O O7 0.387744 0.262573 0.837047
O O8 0.438218 0.070905 0.691841
O O9 0.417157 0.041543 0.949532
O O10 0.160333 0.034534 0.231838
O O11 0.105371 0.974572 0.426038
O O12 0.079158 0.064956 0.183705
O O13 0.536019 0.317030 0.020884
O O14 0.537765 0.578939 0.994074
O O15 0.536364 0.818179 0.878038
O O16 0.500000 0.000000 0.000000
O O17 0.000000 0.123599 0.750000
#
# Coordination Sequence:
#
# PCOD9455365 Si02
#       8
#     8   8   8   8   8   8   8   8
#     4  10  21  38  62  86 120 155 199 242 293 355
#     4  10  20  38  61  89 120 156 192 242 295 356
#     4  11  24  41  61  89 119 160 202 248 302 359
#     4  11  22  40  60  90 122 159 195 253 298 356
#     4  10  21  36  61  89 122 154 196 238 298 356
#     4  11  22  38  61  84 120 154 204 247 305 352
#     4  12  24  41  61  85 122 158 203 253 302 352
#     4  11  22  38  60  85 112 157 205 253 294 360
#
# _framework density 21.738543
#
# number of rings (size 3 to 8) (size 9 to 14) (size 15 to 20)
#    0.000    1.250    2.500    4.125    0.000    0.000 
#    0.000    0.000    2.750    0.000    0.000    0.000 
#    0.000    0.000    0.000    0.000    0.000    0.000 
#
# Total GULP energy -356425.348694 kJ/mol
# GULP energy per Si atom -5569.146073 kJ/mol
# Density = 2.168907 g / cm^3
# Si number density = 21.738543 Si / 1000 Ang^3
#
#
#
# Elastic Constant Matrix: (Units=GPa)
#
#
# Indices 1 2 3 4 5 6 
#
# 1 60.0101 -0.4764 -1.9282 0.0000 0.0000 0.0000
# 2 -0.4764 17.1580 -0.3530 0.0000 0.0000 0.0000
# 3 -1.9282 -0.3530 97.9420 0.0000 0.0000 0.0000
# 4 0.0000 0.0000 0.0000 13.8178 0.0000 0.0000
# 5 0.0000 0.0000 0.0000 0.0000 47.2996 0.0000
# 6 0.0000 0.0000 0.0000 0.0000 0.0000 25.0060
#
#
#
# Elastic Compliance Matrix: (Units=1/GPa)
#
#
# Indices 1 2 3 4 5 6 
#
# 1 0.016678 0.000470 0.000330 0.000000 0.000000 0.000000
# 2 0.000470 0.058299 0.000219 0.000000 0.000000 0.000000
# 3 0.000330 0.000219 0.010217 0.000000 0.000000 0.000000
# 4 0.000000 0.000000 0.000000 0.072370 0.000000 0.000000
# 5 0.000000 0.000000 0.000000 0.000000 0.021142 0.000000
# 6 0.000000 0.000000 0.000000 0.000000 0.000000 0.039990
#
#
# Mechanical properties :
#
#
# Convention : Reuss Voigt Hill
#
# Bulk Modulus (GPa) = 11.46350 18.84389 15.15370
# Shear Modulus (GPa) = 20.34695 29.08251 24.71473
#
# Velocity S-wave (km/s) = 3.06271 3.66161 3.37547
# Velocity P-wave (km/s) = 4.21802 5.15400 4.70932
#
# Compressibility (1/GPa) = 0.08723337
#
# Stress axis : x y z
#
# Youngs Moduli (GPa) = 59.95851 17.15286 97.87210
#
# Poissons Ratio (x) = -0.00806 -0.03230
# Poissons Ratio (y) = -0.02817 -0.02147
# Poissons Ratio (z) = -0.01979 -0.00376
#
# Static dielectric constant tensor:
#      x y z
#    x 1.892260 0.000000 0.000000 
#    y 0.000000 1.847280 0.000000 
#    z 0.000000 0.000000 1.785080 
# 
# From -- ./inp_files/8485.got.cif
#   From: 2010.05.17/outbox.cif.g08.bks.cpg/sg60_5_cif.got.tgz:8485.got - 2010.06.03 14:59:27.
