data_PCOD9455155
_publ_section_title
;
Structure prediction by ZEFSAII (Michael W. Deem and Ramdas Pophale) SiO2 
 PCOD9455155
Probable space group: P B C N
;
_chemical_formula_sum "Si O2"
_cell_formula_units_Z 56
_cell_length_a 14.240837
_cell_length_b 5.241536
_cell_length_c 31.419849
_cell_angle_alpha 90.000000
_cell_angle_beta 90.000000
_cell_angle_gamma 90.000000
_cell_volume 2345.298804
_symmetry_space_group_name_H-M "P B C N"
_symmetry_group_IT_number 60
_symmetry_cell_setting 'orthorhombic'
loop_
_space_group_symop_operation_xyz
x,y,z
1/2-x,1/2-y,1/2+z
1/2+x,1/2-y,-z
-x,y,1/2-z
-x,-y,-z
1/2+x,1/2+y,1/2-z
1/2-x,1/2+y,z
x,-y,1/2+z
loop_
_atom_site_type_symbol
_atom_site_label
_atom_site_fract_x
_atom_site_fract_y
_atom_site_fract_z
Si Si1 0.189871 0.632985 0.826497
Si Si2 0.109238 0.530516 0.735485
Si Si3 0.114114 0.792710 0.510807
Si Si4 0.564262 0.468683 0.292638
Si Si5 0.038590 0.703193 0.370923
Si Si6 0.804315 0.985693 0.075174
Si Si7 0.072573 0.709592 0.046924
O O1 0.231788 0.913123 0.834421
O O2 0.164635 0.616671 0.776831
O O3 0.097570 0.529938 0.850722
O O4 0.137628 0.253497 0.718835
O O5 0.000000 0.490998 0.750000
O O6 0.108180 0.754302 0.701024
O O7 0.172768 0.927635 0.473790
O O8 0.138267 0.512234 0.527977
O O9 0.014163 0.744448 0.486572
O O10 0.110043 0.002188 0.547944
O O11 0.500000 0.505428 0.250000
O O12 0.505033 0.362041 0.332001
O O13 0.109158 0.883386 0.397528
O O14 0.965177 0.622513 0.407187
O O15 0.720758 0.780132 0.082869
#
# Coordination Sequence:
#
# PCOD9455155 Si02
#       7
#     8   8   8   8   8   8   8
#     4  12  25  38  58  90 130 165 199 258 334 397
#     4  10  20  39  58  79 112 166 224 251 293 383
#     4   9  18  36  54  80 118 157 204 233 293 371
#     4  10  20  36  60  80 115 164 215 260 299 367
#     4  11  23  38  60  95 131 157 207 268 321 384
#     4  11  23  38  58  91 133 170 189 240 326 407
#     4   9  19  33  57  83 114 155 197 260 290 345
#
# _framework density 23.877555000000001
#
# number of rings (size 3 to 8) (size 9 to 14) (size 15 to 20)
#    0.000    1.714    2.857    2.571    2.000    6.857 
#    0.000    0.000    0.000    0.000    0.000   20.000 
#    0.000    0.000    0.000    0.000    0.000    0.000 
#
# Total GULP energy -312959.732137 kJ/mol
# GULP energy per Si atom -5588.566645 kJ/mol
# Density = 2.382321 g / cm^3
# Si number density = 23.877555 Si / 1000 Ang^3
#
#
#
# Elastic Constant Matrix: (Units=GPa)
#
#
# Indices 1 2 3 4 5 6 
#
# 1 24.9420 6.4529 26.7083 0.0000 0.0000 0.0000
# 2 6.4529 130.8156 14.1564 0.0000 0.0000 0.0000
# 3 26.7083 14.1564 90.8512 0.0000 0.0000 0.0000
# 4 0.0000 0.0000 0.0000 31.5719 0.0000 0.0000
# 5 0.0000 0.0000 0.0000 0.0000 42.9452 0.0000
# 6 0.0000 0.0000 0.0000 0.0000 0.0000 8.5047
#
#
#
# Elastic Compliance Matrix: (Units=1/GPa)
#
#
# Indices 1 2 3 4 5 6 
#
# 1 0.058653 -0.001045 -0.017080 0.000000 0.000000 0.000000
# 2 -0.001045 0.007794 -0.000907 0.000000 0.000000 0.000000
# 3 -0.017080 -0.000907 0.016169 0.000000 0.000000 0.000000
# 4 0.000000 0.000000 0.000000 0.031674 0.000000 0.000000
# 5 0.000000 0.000000 0.000000 0.000000 0.023285 0.000000
# 6 0.000000 0.000000 0.000000 0.000000 0.000000 0.117582
#
#
# Mechanical properties :
#
#
# Convention : Reuss Voigt Hill
#
# Bulk Modulus (GPa) = 22.44557 37.91600 30.18079
# Shear Modulus (GPa) = 16.22994 29.89043 23.06019
#
# Velocity S-wave (km/s) = 2.60996 3.54195 3.11105
# Velocity P-wave (km/s) = 4.30154 5.71323 5.05689
#
# Compressibility (1/GPa) = 0.04455221
#
# Stress axis : x y z
#
# Youngs Moduli (GPa) = 17.04951 128.30261 61.84485
#
# Poissons Ratio (x) = 0.13406 1.05630
# Poissons Ratio (y) = 0.01782 0.05611
# Poissons Ratio (z) = 0.29120 0.11641
#
# Static dielectric constant tensor:
#      x y z
#    x 1.997020 0.000000 0.000000 
#    y 0.000000 1.958990 0.000000 
#    z 0.000000 0.000000 1.955190 
# 
# From -- ./inp_files/26141.got.cif
#   From: 2010.05.17/outbox.cif.g08.bks.cpg/sg60_14_cif.got.tgz:26141.got - 2010.06.03 14:59:27.
