data_PCOD9455440
_publ_section_title
;
Structure prediction by ZEFSAII (Michael W. Deem and Ramdas Pophale) SiO2 
 PCOD9455440
Probable space group: P B C N
;
_chemical_formula_sum "Si O2"
_cell_formula_units_Z 64
_cell_length_a 17.236882
_cell_length_b 11.840921
_cell_length_c 15.831574
_cell_angle_alpha 90.000000
_cell_angle_beta 90.000000
_cell_angle_gamma 90.000000
_cell_volume 3231.233088
_symmetry_space_group_name_H-M "P B C N"
_symmetry_group_IT_number 60
_symmetry_cell_setting 'orthorhombic'
loop_
_space_group_symop_operation_xyz
x,y,z
1/2-x,1/2-y,1/2+z
1/2+x,1/2-y,-z
-x,y,1/2-z
-x,-y,-z
1/2+x,1/2+y,1/2-z
1/2-x,1/2+y,z
x,-y,1/2+z
loop_
_atom_site_type_symbol
_atom_site_label
_atom_site_fract_x
_atom_site_fract_y
_atom_site_fract_z
Si Si1 0.037913 0.774822 0.124661
Si Si2 0.449802 0.335894 0.939431
Si Si3 0.370699 0.352750 0.578264
Si Si4 0.467044 0.988762 0.594757
Si Si5 0.847522 0.056284 0.793557
Si Si6 0.678183 0.875681 0.348604
Si Si7 0.931331 0.331652 0.195201
Si Si8 0.110970 0.076497 0.894668
O O1 0.036297 0.639809 0.127177
O O2 0.091251 0.842788 0.189641
O O3 0.950793 0.824454 0.124409
O O4 0.073599 0.810392 0.034287
O O5 0.541019 0.308368 0.932235
O O6 0.405292 0.255170 0.875686
O O7 0.438709 0.465306 0.916570
O O8 0.373652 0.446352 0.652556
O O9 0.320792 0.246678 0.607807
O O10 0.347452 0.396204 0.484352
O O11 0.500000 0.000000 0.500000
O O12 0.381123 0.043093 0.600911
O O13 0.525281 0.062426 0.652654
O O14 0.764000 0.081974 0.832977
O O15 0.843498 0.047388 0.691474
O O16 0.636489 0.863458 0.257884
O O17 0.000000 0.273587 0.250000
#
# Coordination Sequence:
#
# PCOD9455440 Si02
#       8
#     8   8   8   8   8   8   8   8
#     4  11  22  39  67  98 130 161 212 273 322 371
#     4  11  18  40  71  97 114 163 225 268 312 377
#     4  11  21  45  67  91 128 166 217 268 317 383
#     4  11  21  42  69  94 122 169 222 270 318 383
#     4  12  26  42  60  99 136 168 208 266 332 384
#     4  11  26  43  61  93 133 173 212 261 326 395
#     4  10  20  38  66  89 120 166 218 257 311 387
#     4  11  23  40  69  98 124 167 221 266 322 382
#
# _framework density 19.80668
#
# number of rings (size 3 to 8) (size 9 to 14) (size 15 to 20)
#    0.000    1.000    6.250    2.625    1.750    3.000 
#    4.500    0.000    0.000    0.000    0.000    0.000 
#    0.000    0.000    0.000    0.000    0.000    0.000 
#
# Total GULP energy -357248.506089 kJ/mol
# GULP energy per Si atom -5582.007908 kJ/mol
# Density = 1.976160 g / cm^3
# Si number density = 19.806680 Si / 1000 Ang^3
#
#
#
# Elastic Constant Matrix: (Units=GPa)
#
#
# Indices 1 2 3 4 5 6 
#
# 1 39.8506 7.1137 12.7854 0.0000 0.0000 0.0000
# 2 7.1137 103.5714 29.3713 0.0000 0.0000 0.0000
# 3 12.7854 29.3713 138.2633 0.0000 0.0000 0.0000
# 4 0.0000 0.0000 0.0000 29.7658 0.0000 0.0000
# 5 0.0000 0.0000 0.0000 0.0000 17.6998 0.0000
# 6 0.0000 0.0000 0.0000 0.0000 0.0000 6.4553
#
#
#
# Elastic Compliance Matrix: (Units=1/GPa)
#
#
# Indices 1 2 3 4 5 6 
#
# 1 0.025995 -0.001175 -0.002154 0.000000 0.000000 0.000000
# 2 -0.001175 0.010327 -0.002085 0.000000 0.000000 0.000000
# 3 -0.002154 -0.002085 0.007875 0.000000 0.000000 0.000000
# 4 0.000000 0.000000 0.000000 0.033596 0.000000 0.000000
# 5 0.000000 0.000000 0.000000 0.000000 0.056498 0.000000
# 6 0.000000 0.000000 0.000000 0.000000 0.000000 0.154911
#
#
# Mechanical properties :
#
#
# Convention : Reuss Voigt Hill
#
# Bulk Modulus (GPa) = 29.96833 42.24735 36.10784
# Shear Modulus (GPa) = 16.06934 26.27850 21.17392
#
# Velocity S-wave (km/s) = 2.85144 3.64641 3.27315
# Velocity P-wave (km/s) = 5.09943 6.25336 5.70564
#
# Compressibility (1/GPa) = 0.03336856
#
# Stress axis : x y z
#
# Youngs Moduli (GPa) = 38.46963 96.83190 126.98829
#
# Poissons Ratio (x) = 0.11373 0.27356
# Poissons Ratio (y) = 0.04518 0.26480
# Poissons Ratio (z) = 0.08287 0.20191
#
# Static dielectric constant tensor:
#      x y z
#    x 1.654040 0.000000 0.000000 
#    y 0.000000 1.713670 0.000000 
#    z 0.000000 0.000000 1.774300 
# 
# From -- ./inp_files/17489.got.cif
#   From: 2010.05.17/outbox.cif.g08.bks.cpg/sg60_9_cif.got.tgz:17489.got - 2010.06.03 14:59:27.
