data_PCOD9455238
_publ_section_title
;
Structure prediction by ZEFSAII (Michael W. Deem and Ramdas Pophale) SiO2 
 PCOD9455238
Probable space group: P B C N
;
_chemical_formula_sum "Si O2"
_cell_formula_units_Z 48
_cell_length_a 13.395715
_cell_length_b 11.204987
_cell_length_c 13.672048
_cell_angle_alpha 90.000000
_cell_angle_beta 90.000000
_cell_angle_gamma 90.000000
_cell_volume 2052.158168
_symmetry_space_group_name_H-M "P B C N"
_symmetry_group_IT_number 60
_symmetry_cell_setting 'orthorhombic'
loop_
_space_group_symop_operation_xyz
x,y,z
1/2-x,1/2-y,1/2+z
1/2+x,1/2-y,-z
-x,y,1/2-z
-x,-y,-z
1/2+x,1/2+y,1/2-z
1/2-x,1/2+y,z
x,-y,1/2+z
loop_
_atom_site_type_symbol
_atom_site_label
_atom_site_fract_x
_atom_site_fract_y
_atom_site_fract_z
Si Si1 0.802367 0.195245 0.396492
Si Si2 0.292862 0.433322 0.792597
Si Si3 0.109432 0.838135 0.259537
Si Si4 0.909935 0.675956 0.430875
Si Si5 0.523229 0.389612 0.568416
Si Si6 0.630049 0.152133 0.069324
O O1 0.782510 0.178424 0.280611
O O2 0.704009 0.130254 0.443488
O O3 0.820590 0.312046 0.465116
O O4 0.913185 0.142584 0.396938
O O5 0.307397 0.561186 0.740268
O O6 0.393803 0.419187 0.852998
O O7 0.200787 0.431867 0.867095
O O8 0.097640 0.739561 0.174793
O O9 0.123910 0.775266 0.365267
O O10 0.000000 0.897520 0.250000
O O11 0.930590 0.779499 0.508681
O O12 0.015373 0.606409 0.433569
O O13 0.500000 0.500000 0.500000
#
# Coordination Sequence:
#
# PCOD9455238 Si02
#       6
#     8   8   8   8   8   8
#     4  11  21  36  59  89 124 162 201 260 316 370
#     4  12  21  36  63  92 121 161 213 256 320 366
#     4  10  20  37  61  91 118 158 209 262 302 369
#     4  10  20  37  59  88 123 158 206 249 321 374
#     4  11  22  38  62  93 121 152 210 268 307 367
#     4  10  22  38  58  90 127 163 206 264 314 380
#
# _framework density 23.390008999999999
#
# number of rings (size 3 to 8) (size 9 to 14) (size 15 to 20)
#    0.000    1.333    3.333    5.500    0.000    0.000 
#    0.000    0.000    0.000   10.000    0.000    0.000 
#    0.000    0.000    0.000    0.000    0.000    0.000 
#
# Total GULP energy -267461.170413 kJ/mol
# GULP energy per Si atom -5572.107717 kJ/mol
# Density = 2.333677 g / cm^3
# Si number density = 23.390009 Si / 1000 Ang^3
#
#
#
# Elastic Constant Matrix: (Units=GPa)
#
#
# Indices 1 2 3 4 5 6 
#
# 1 194.3558 22.9610 24.3753 0.0000 0.0000 0.0000
# 2 22.9610 37.8307 24.0960 0.0000 0.0000 0.0000
# 3 24.3753 24.0960 94.3551 0.0000 0.0000 0.0000
# 4 0.0000 0.0000 0.0000 33.9929 0.0000 0.0000
# 5 0.0000 0.0000 0.0000 0.0000 45.0020 0.0000
# 6 0.0000 0.0000 0.0000 0.0000 0.0000 44.1471
#
#
#
# Elastic Compliance Matrix: (Units=1/GPa)
#
#
# Indices 1 2 3 4 5 6 
#
# 1 0.005580 -0.002948 -0.000689 0.000000 0.000000 0.000000
# 2 -0.002948 0.033126 -0.007698 0.000000 0.000000 0.000000
# 3 -0.000689 -0.007698 0.012742 0.000000 0.000000 0.000000
# 4 0.000000 0.000000 0.000000 0.029418 0.000000 0.000000
# 5 0.000000 0.000000 0.000000 0.000000 0.022221 0.000000
# 6 0.000000 0.000000 0.000000 0.000000 0.000000 0.022652
#
#
# Mechanical properties :
#
#
# Convention : Reuss Voigt Hill
#
# Bulk Modulus (GPa) = 34.74804 52.15624 43.45214
# Shear Modulus (GPa) = 31.64542 41.63568 36.64055
#
# Velocity S-wave (km/s) = 3.68223 4.22366 3.96220
# Velocity P-wave (km/s) = 5.74166 6.79210 6.28885
#
# Compressibility (1/GPa) = 0.02877860
#
# Stress axis : x y z
#
# Youngs Moduli (GPa) = 179.21650 30.18775 78.48037
#
# Poissons Ratio (x) = 0.08899 0.05404
# Poissons Ratio (y) = 0.52833 0.60414
# Poissons Ratio (z) = 0.12341 0.23239
#
# Static dielectric constant tensor:
#      x y z
#    x 1.545220 0.000000 0.000000 
#    y 0.000000 1.900910 0.000000 
#    z 0.000000 0.000000 2.340110 
# 
# From -- ./inp_files/16046.got.cif
#   From: 2010.05.17/outbox.cif.g08.bks.cpg/sg60_9_cif.got.tgz:16046.got - 2010.06.03 14:59:27.
