data_PCOD9455413
_publ_section_title
;
Structure prediction by ZEFSAII (Michael W. Deem and Ramdas Pophale) SiO2 
 PCOD9455413
Probable space group: P B C N
;
_chemical_formula_sum "Si O2"
_cell_formula_units_Z 56
_cell_length_a 20.791280
_cell_length_b 24.715348
_cell_length_c 5.197587
_cell_angle_alpha 90.000000
_cell_angle_beta 90.000000
_cell_angle_gamma 90.000000
_cell_volume 2670.851394
_symmetry_space_group_name_H-M "P B C N"
_symmetry_group_IT_number 60
_symmetry_cell_setting 'orthorhombic'
loop_
_space_group_symop_operation_xyz
x,y,z
1/2-x,1/2-y,1/2+z
1/2+x,1/2-y,-z
-x,y,1/2-z
-x,-y,-z
1/2+x,1/2+y,1/2-z
1/2-x,1/2+y,z
x,-y,1/2+z
loop_
_atom_site_type_symbol
_atom_site_label
_atom_site_fract_x
_atom_site_fract_y
_atom_site_fract_z
Si Si1 0.458133 0.253297 0.997683
Si Si2 0.577431 0.434506 0.245896
Si Si3 0.664536 0.194756 0.352184
Si Si4 0.772753 0.193646 0.014257
Si Si5 0.077067 0.864777 0.763409
Si Si6 0.806423 0.015401 0.272920
Si Si7 0.228898 0.870726 0.493115
O O1 0.500000 0.270604 0.250000
O O2 0.408921 0.208406 0.103546
O O3 0.500000 0.235323 0.750000
O O4 0.418306 0.304182 0.882250
O O5 0.500000 0.447171 0.250000
O O6 0.596133 0.406418 0.513730
O O7 0.623090 0.487325 0.217417
O O8 0.708926 0.430349 0.931973
O O9 0.702907 0.245931 0.474716
O O10 0.694544 0.140780 0.474457
O O11 0.695242 0.194895 0.065546
O O12 0.788966 0.155970 0.775084
O O13 0.799218 0.165897 0.274123
O O14 0.091393 0.890350 0.480993
O O15 0.000000 0.131898 0.250000
O O16 0.777743 0.975035 0.489599
#
# Coordination Sequence:
#
# PCOD9455413 Si02
#       7
#     8   8   8   8   8   8   8
#     4  11  24  36  59  97 137 167 203 262 319 389
#     4  10  21  39  59  78 113 168 224 268 310 354
#     4  10  22  39  66  89 124 160 207 248 329 389
#     4  10  20  38  64  90 111 164 204 255 305 393
#     4   9  18  37  56  81 120 163 210 255 309 354
#     4  12  26  41  58  85 117 157 214 273 318 365
#     4  10  22  40  59  86 119 155 207 268 318 367
#
# _framework density 20.967099000000001
#
# number of rings (size 3 to 8) (size 9 to 14) (size 15 to 20)
#    0.857    0.857    1.429    3.857    2.000    4.000 
#    0.000    2.857    0.000    2.571    0.000    0.000 
#    0.000    3.429    0.000    0.000    0.000    0.000 
#
# Total GULP energy -311822.536297 kJ/mol
# GULP energy per Si atom -5568.259577 kJ/mol
# Density = 2.091938 g / cm^3
# Si number density = 20.967099 Si / 1000 Ang^3
#
#
#
# Elastic Constant Matrix: (Units=GPa)
#
#
# Indices 1 2 3 4 5 6 
#
# 1 75.8485 37.1658 30.4176 0.0000 0.0000 0.0000
# 2 37.1658 72.4363 27.3130 0.0000 0.0000 0.0000
# 3 30.4176 27.3130 168.2437 0.0000 0.0000 0.0000
# 4 0.0000 0.0000 0.0000 34.0181 0.0000 0.0000
# 5 0.0000 0.0000 0.0000 0.0000 31.6408 0.0000
# 6 0.0000 0.0000 0.0000 0.0000 0.0000 34.9504
#
#
#
# Elastic Compliance Matrix: (Units=1/GPa)
#
#
# Indices 1 2 3 4 5 6 
#
# 1 0.018157 -0.008605 -0.001886 0.000000 0.000000 0.000000
# 2 -0.008605 0.018783 -0.001494 0.000000 0.000000 0.000000
# 3 -0.001886 -0.001494 0.006527 0.000000 0.000000 0.000000
# 4 0.000000 0.000000 0.000000 0.029396 0.000000 0.000000
# 5 0.000000 0.000000 0.000000 0.000000 0.031605 0.000000
# 6 0.000000 0.000000 0.000000 0.000000 0.000000 0.028612
#
#
# Mechanical properties :
#
#
# Convention : Reuss Voigt Hill
#
# Bulk Modulus (GPa) = 51.28486 56.25793 53.77140
# Shear Modulus (GPa) = 30.57198 34.89733 32.73465
#
# Velocity S-wave (km/s) = 3.82264 4.08411 3.95554
# Velocity P-wave (km/s) = 6.63297 7.00926 6.82371
#
# Compressibility (1/GPa) = 0.01949893
#
# Stress axis : x y z
#
# Youngs Moduli (GPa) = 55.07573 53.23839 153.20589
#
# Poissons Ratio (x) = 0.45811 0.28890
# Poissons Ratio (y) = 0.47392 0.22883
# Poissons Ratio (z) = 0.10386 0.07952
#
# Static dielectric constant tensor:
#      x y z
#    x 2.005410 0.000000 0.000000 
#    y 0.000000 1.853110 0.000000 
#    z 0.000000 0.000000 1.952930 
# 
# From -- ./inp_files/2208.got.cif
#   From: 2010.05.17/outbox.cif.g08.bks.cpg/sg60_2_cif.got.tgz:2208.got - 2010.06.03 14:59:27.
