data_PCOD9455592
_publ_section_title
;
Structure prediction by ZEFSAII (Michael W. Deem and Ramdas Pophale) SiO2 
 PCOD9455592
Probable space group: P B C N
;
_chemical_formula_sum "Si O2"
_cell_formula_units_Z 60
_cell_length_a 10.031674
_cell_length_b 27.909593
_cell_length_c 8.610361
_cell_angle_alpha 90.000000
_cell_angle_beta 90.000000
_cell_angle_gamma 90.000000
_cell_volume 2410.728343
_symmetry_space_group_name_H-M "P B C N"
_symmetry_group_IT_number 60
_symmetry_cell_setting 'orthorhombic'
loop_
_space_group_symop_operation_xyz
x,y,z
1/2-x,1/2-y,1/2+z
1/2+x,1/2-y,-z
-x,y,1/2-z
-x,-y,-z
1/2+x,1/2+y,1/2-z
1/2-x,1/2+y,z
x,-y,1/2+z
loop_
_atom_site_type_symbol
_atom_site_label
_atom_site_fract_x
_atom_site_fract_y
_atom_site_fract_z
Si Si1 0.210504 0.652880 0.418411
Si Si2 0.690896 0.290096 0.334525
Si Si3 0.336554 0.046186 0.924128
Si Si4 0.798917 0.353717 0.925586
Si Si5 0.156652 0.551742 0.574457
Si Si6 0.500000 0.375752 0.250000
Si Si7 0.492605 0.377727 0.584290
Si Si8 0.398781 0.230625 0.889434
O O1 0.188072 0.690680 0.555181
O O2 0.153005 0.657589 0.247591
O O3 0.178586 0.599992 0.479973
O O4 0.372302 0.652878 0.406084
O O5 0.621490 0.337795 0.268319
O O6 0.755661 0.260306 0.195865
O O7 0.597326 0.259166 0.447974
O O8 0.497329 0.044658 0.915500
O O9 0.288495 0.055923 0.749199
O O10 0.304831 0.089947 0.037642
O O11 0.288546 0.995353 0.989133
O O12 0.639398 0.344921 0.924361
O O13 0.880874 0.324474 0.053183
O O14 0.494568 0.402740 0.414955
O O15 0.500000 0.405094 0.750000
O O16 0.500000 0.240496 0.750000
#
# Coordination Sequence:
#
# PCOD9455592 Si02
#       8
#     8   8   8   8   8   4   8   8
#     4  10  22  40  68  94 128 171 228 273 331 411
#     4  11  25  43  65  92 127 175 218 281 337 405
#     4  10  22  37  65  88 138 174 214 280 337 400
#     4  11  22  42  64  96 131 172 216 282 338 399
#     4  10  21  40  60  98 127 175 225 266 337 411
#     4  10  20  40  66  84 122 172 218 258 338 394
#     4   9  20  38  65  94 123 169 220 270 327 397
#     4  12  28  44  66  97 135 172 231 285 343 409
#
# _framework density 24.888743999999999
#
# number of rings (size 3 to 8) (size 9 to 14) (size 15 to 20)
#    0.000    1.600    1.333    2.400    7.467    5.867 
#    0.000    0.667    0.000    0.000    0.000    0.000 
#    0.000    0.000    0.000    0.000    0.000    0.000 
#
# Total GULP energy -335087.546398 kJ/mol
# GULP energy per Si atom -5584.792440 kJ/mol
# Density = 2.483210 g / cm^3
# Si number density = 24.888744 Si / 1000 Ang^3
#
#
#
# Elastic Constant Matrix: (Units=GPa)
#
#
# Indices 1 2 3 4 5 6 
#
# 1 66.4449 -13.3454 6.6887 0.0000 0.0000 0.0000
# 2 -13.3454 87.8042 29.3371 0.0000 0.0000 0.0000
# 3 6.6887 29.3371 194.0259 0.0000 0.0000 0.0000
# 4 0.0000 0.0000 0.0000 32.0067 0.0000 0.0000
# 5 0.0000 0.0000 0.0000 0.0000 27.4821 0.0000
# 6 0.0000 0.0000 0.0000 0.0000 0.0000 12.1092
#
#
#
# Elastic Compliance Matrix: (Units=1/GPa)
#
#
# Indices 1 2 3 4 5 6 
#
# 1 0.015688 0.002702 -0.000949 0.000000 0.000000 0.000000
# 2 0.002702 0.012460 -0.001977 0.000000 0.000000 0.000000
# 3 -0.000949 -0.001977 0.005486 0.000000 0.000000 0.000000
# 4 0.000000 0.000000 0.000000 0.031243 0.000000 0.000000
# 5 0.000000 0.000000 0.000000 0.000000 0.036387 0.000000
# 6 0.000000 0.000000 0.000000 0.000000 0.000000 0.082582
#
#
# Mechanical properties :
#
#
# Convention : Reuss Voigt Hill
#
# Bulk Modulus (GPa) = 30.13458 43.73730 36.93594
# Shear Modulus (GPa) = 25.59409 36.02590 30.81000
#
# Velocity S-wave (km/s) = 3.21025 3.80870 3.52221
# Velocity P-wave (km/s) = 5.08674 6.07889 5.60481
#
# Compressibility (1/GPa) = 0.03318446
#
# Stress axis : x y z
#
# Youngs Moduli (GPa) = 63.74197 80.25548 182.29461
#
# Poissons Ratio (x) = -0.21682 0.17306
# Poissons Ratio (y) = -0.17221 0.36042
# Poissons Ratio (z) = 0.06051 0.15868
#
# Static dielectric constant tensor:
#      x y z
#    x 2.073800 0.000000 0.000000 
#    y 0.000000 1.928770 0.000000 
#    z 0.000000 0.000000 2.032260 
# 
# From -- ./inp_files/5300.got.cif
#   From: 2010.05.17/outbox.cif.g08.bks.cpg/sg60_3_cif.got.tgz:5300.got - 2010.06.03 14:59:27.
