data_PCOD9455210
_publ_section_title
;
Structure prediction by ZEFSAII (Michael W. Deem and Ramdas Pophale) SiO2 
 PCOD9455210
Probable space group: P B C N
;
_chemical_formula_sum "Si O2"
_cell_formula_units_Z 52
_cell_length_a 21.391004
_cell_length_b 14.538731
_cell_length_c 8.576460
_cell_angle_alpha 90.000000
_cell_angle_beta 90.000000
_cell_angle_gamma 90.000000
_cell_volume 2667.262361
_symmetry_space_group_name_H-M "P B C N"
_symmetry_group_IT_number 60
_symmetry_cell_setting 'orthorhombic'
loop_
_space_group_symop_operation_xyz
x,y,z
1/2-x,1/2-y,1/2+z
1/2+x,1/2-y,-z
-x,y,1/2-z
-x,-y,-z
1/2+x,1/2+y,1/2-z
1/2-x,1/2+y,z
x,-y,1/2+z
loop_
_atom_site_type_symbol
_atom_site_label
_atom_site_fract_x
_atom_site_fract_y
_atom_site_fract_z
Si Si1 0.609858 0.266655 0.958427
Si Si2 0.801836 0.299926 0.193356
Si Si3 0.000000 0.722232 0.750000
Si Si4 0.257532 0.401081 0.803095
Si Si5 0.917069 0.599031 0.531023
Si Si6 0.699361 0.416901 0.053998
Si Si7 0.607598 0.902982 0.671510
O O1 0.665924 0.217467 0.860136
O O2 0.554447 0.279416 0.834131
O O3 0.635362 0.360503 0.032386
O O4 0.591418 0.191474 0.085518
O O5 0.780579 0.198749 0.140967
O O6 0.853160 0.351163 0.088230
O O7 0.740942 0.362823 0.181749
O O8 0.969803 0.656473 0.619632
O O9 0.269409 0.409478 0.617375
O O10 0.297589 0.478621 0.890785
O O11 0.183411 0.412468 0.827709
O O12 0.918051 0.600293 0.345961
O O13 0.917412 0.493613 0.586222
#
# Coordination Sequence:
#
# PCOD9455210 Si02
#       7
#     8   8   4   8   8   8   8
#     4  10  24  39  61  84 121 162 205 248 297 359
#     4  10  20  37  56  87 121 160 194 242 304 356
#     4  10  24  46  60  80 120 168 210 256 284 352
#     4  11  22  33  57  88 129 151 187 247 307 371
#     4  11  23  37  60  87 123 163 208 243 300 353
#     4  11  22  36  58  89 122 162 191 244 306 363
#     4  12  21  35  58  92 121 160 193 248 303 366
#
# _framework density 19.495646000000001
#
# number of rings (size 3 to 8) (size 9 to 14) (size 15 to 20)
#    0.000    1.231    4.615    1.846    2.154    4.308 
#    0.000    0.000    0.000    8.308    0.000    0.000 
#    0.000    0.000    0.000    0.000    0.000    0.000 
#
# Total GULP energy -290554.918189 kJ/mol
# GULP energy per Si atom -5587.594581 kJ/mol
# Density = 1.945127 g / cm^3
# Si number density = 19.495646 Si / 1000 Ang^3
#
#
#
# Elastic Constant Matrix: (Units=GPa)
#
#
# Indices 1 2 3 4 5 6 
#
# 1 64.9823 6.4725 19.6041 0.0000 0.0000 0.0000
# 2 6.4725 67.2073 4.6247 0.0000 0.0000 0.0000
# 3 19.6041 4.6247 78.1552 0.0000 0.0000 0.0000
# 4 0.0000 0.0000 0.0000 22.8884 0.0000 0.0000
# 5 0.0000 0.0000 0.0000 0.0000 18.3933 0.0000
# 6 0.0000 0.0000 0.0000 0.0000 0.0000 18.0963
#
#
#
# Elastic Compliance Matrix: (Units=1/GPa)
#
#
# Indices 1 2 3 4 5 6 
#
# 1 0.016766 -0.001331 -0.004127 0.000000 0.000000 0.000000
# 2 -0.001331 0.015046 -0.000557 0.000000 0.000000 0.000000
# 3 -0.004127 -0.000557 0.013863 0.000000 0.000000 0.000000
# 4 0.000000 0.000000 0.000000 0.043690 0.000000 0.000000
# 5 0.000000 0.000000 0.000000 0.000000 0.054368 0.000000
# 6 0.000000 0.000000 0.000000 0.000000 0.000000 0.055260
#
#
# Mechanical properties :
#
#
# Convention : Reuss Voigt Hill
#
# Bulk Modulus (GPa) = 29.72026 30.19417 29.95722
# Shear Modulus (GPa) = 22.49850 23.85182 23.17516
#
# Velocity S-wave (km/s) = 3.40078 3.50157 3.45154
# Velocity P-wave (km/s) = 5.54059 5.64529 5.59318
#
# Compressibility (1/GPa) = 0.03364708
#
# Stress axis : x y z
#
# Youngs Moduli (GPa) = 59.64326 66.46376 72.13370
#
# Poissons Ratio (x) = 0.08845 0.29768
# Poissons Ratio (y) = 0.07937 0.04014
# Poissons Ratio (z) = 0.24614 0.03699
#
# Static dielectric constant tensor:
#      x y z
#    x 1.718840 0.000000 0.000000 
#    y 0.000000 1.649620 0.000000 
#    z 0.000000 0.000000 1.683300 
# 
# From -- ./inp_files/7354.got.cif
#   From: 2010.05.17/outbox.cif.g08.bks.cpg/sg60_4_cif.got.tgz:7354.got - 2010.06.03 14:59:27.
