data_PCOD9455563
_publ_section_title
;
Structure prediction by ZEFSAII (Michael W. Deem and Ramdas Pophale) SiO2 
 PCOD9455563
Probable space group: P B C N
;
_chemical_formula_sum "Si O2"
_cell_formula_units_Z 52
_cell_length_a 5.225165
_cell_length_b 19.277465
_cell_length_c 26.168377
_cell_angle_alpha 90.000000
_cell_angle_beta 90.000000
_cell_angle_gamma 90.000000
_cell_volume 2635.886588
_symmetry_space_group_name_H-M "P B C N"
_symmetry_group_IT_number 60
_symmetry_cell_setting 'orthorhombic'
loop_
_space_group_symop_operation_xyz
x,y,z
1/2-x,1/2-y,1/2+z
1/2+x,1/2-y,-z
-x,y,1/2-z
-x,-y,-z
1/2+x,1/2+y,1/2-z
1/2-x,1/2+y,z
x,-y,1/2+z
loop_
_atom_site_type_symbol
_atom_site_label
_atom_site_fract_x
_atom_site_fract_y
_atom_site_fract_z
Si Si1 0.504406 0.607510 0.639529
Si Si2 0.878549 0.031074 0.306874
Si Si3 0.000000 0.593804 0.250000
Si Si4 0.511770 0.831352 0.308523
Si Si5 0.703074 0.721257 0.064180
Si Si6 0.695134 0.314737 0.452455
Si Si7 0.623619 0.672862 0.175781
O O1 0.471669 0.528256 0.656347
O O2 0.783949 0.635612 0.656630
O O3 0.401577 0.621520 0.582190
O O4 0.292062 0.649766 0.671602
O O5 0.581370 0.038867 0.294046
O O6 0.000000 0.021691 0.250000
O O7 0.930862 0.108766 0.325617
O O8 0.185533 0.645993 0.280272
O O9 0.500000 0.856032 0.250000
O O10 0.479294 0.748430 0.309911
O O11 0.466006 0.777325 0.062164
O O12 0.715235 0.682409 0.117825
O O13 0.972105 0.759742 0.058899
O O14 0.683965 0.674280 0.013368
#
# Coordination Sequence:
#
# PCOD9455563 Si02
#       7
#     8   8   4   8   8   8   8
#     4  12  24  41  63  91 128 164 208 255 315 371
#     4  10  24  41  58  85 128 176 203 246 318 386
#     4  10  24  40  60  82 130 170 212 246 320 388
#     4  12  25  37  61  94 123 156 212 265 303 364
#     4  10  21  38  66  90 127 156 209 263 318 371
#     4  10  20  40  62  96 121 162 203 263 324 366
#     4  11  23  40  61  92 120 170 210 259 309 374
#
# _framework density 19.727706999999999
#
# number of rings (size 3 to 8) (size 9 to 14) (size 15 to 20)
#    0.000    1.231    3.077    2.769   11.846    0.000 
#    0.000    0.769    0.000    0.923    0.000    0.000 
#    0.000    0.000    0.000    0.000    0.000    0.000 
#
# Total GULP energy -289686.697077 kJ/mol
# GULP energy per Si atom -5570.898021 kJ/mol
# Density = 1.968281 g / cm^3
# Si number density = 19.727707 Si / 1000 Ang^3
#
#
#
# Elastic Constant Matrix: (Units=GPa)
#
#
# Indices 1 2 3 4 5 6 
#
# 1 70.2470 13.0963 0.6333 0.0000 0.0000 0.0000
# 2 13.0963 66.2683 7.6659 0.0000 0.0000 0.0000
# 3 0.6333 7.6659 99.9512 0.0000 0.0000 0.0000
# 4 0.0000 0.0000 0.0000 34.6914 0.0000 0.0000
# 5 0.0000 0.0000 0.0000 0.0000 24.8382 0.0000
# 6 0.0000 0.0000 0.0000 0.0000 0.0000 7.9649
#
#
#
# Elastic Compliance Matrix: (Units=1/GPa)
#
#
# Indices 1 2 3 4 5 6 
#
# 1 0.014782 -0.002936 0.000132 0.000000 0.000000 0.000000
# 2 -0.002936 0.015809 -0.001194 0.000000 0.000000 0.000000
# 3 0.000132 -0.001194 0.010096 0.000000 0.000000 0.000000
# 4 0.000000 0.000000 0.000000 0.028826 0.000000 0.000000
# 5 0.000000 0.000000 0.000000 0.000000 0.040261 0.000000
# 6 0.000000 0.000000 0.000000 0.000000 0.000000 0.125551
#
#
# Mechanical properties :
#
#
# Convention : Reuss Voigt Hill
#
# Bulk Modulus (GPa) = 30.59189 31.02863 30.81026
# Shear Modulus (GPa) = 19.66822 27.83695 23.75259
#
# Velocity S-wave (km/s) = 3.16093 3.76048 3.47367
# Velocity P-wave (km/s) = 5.37240 5.88367 5.63384
#
# Compressibility (1/GPa) = 0.03268841
#
# Stress axis : x y z
#
# Youngs Moduli (GPa) = 67.65099 63.25670 99.05287
#
# Poissons Ratio (x) = 0.18575 -0.01303
# Poissons Ratio (y) = 0.19866 0.11826
# Poissons Ratio (z) = -0.00890 0.07552
#
# Static dielectric constant tensor:
#      x y z
#    x 1.846470 0.000000 0.000000 
#    y 0.000000 1.677560 0.000000 
#    z 0.000000 0.000000 1.748310 
# 
# From -- ./inp_files/24964.got.cif
#   From: 2010.05.17/outbox.cif.g08.bks.cpg/sg60_13_cif.got.tgz:24964.got - 2010.06.03 14:59:27.
