data_PCOD9455633
_publ_section_title
;
Structure prediction by ZEFSAII (Michael W. Deem and Ramdas Pophale) SiO2 
 PCOD9455633
Probable space group: P B C N
;
_chemical_formula_sum "Si O2"
_cell_formula_units_Z 60
_cell_length_a 13.162037
_cell_length_b 25.237299
_cell_length_c 9.010531
_cell_angle_alpha 90.000000
_cell_angle_beta 90.000000
_cell_angle_gamma 90.000000
_cell_volume 2993.066496
_symmetry_space_group_name_H-M "P B C N"
_symmetry_group_IT_number 60
_symmetry_cell_setting 'orthorhombic'
loop_
_space_group_symop_operation_xyz
x,y,z
1/2-x,1/2-y,1/2+z
1/2+x,1/2-y,-z
-x,y,1/2-z
-x,-y,-z
1/2+x,1/2+y,1/2-z
1/2-x,1/2+y,z
x,-y,1/2+z
loop_
_atom_site_type_symbol
_atom_site_label
_atom_site_fract_x
_atom_site_fract_y
_atom_site_fract_z
Si Si1 0.773490 0.873173 0.888776
Si Si2 0.876447 0.852012 0.414096
Si Si3 0.778469 0.686057 0.680277
Si Si4 0.000000 0.934439 0.250000
Si Si5 0.106592 0.790807 0.802694
Si Si6 0.707158 0.917392 0.592546
Si Si7 0.108440 0.590678 0.690481
Si Si8 0.789801 0.965367 0.127020
O O1 0.861708 0.841139 0.800336
O O2 0.700351 0.894318 0.757680
O O3 0.728820 0.832507 0.009942
O O4 0.799864 0.925221 0.987250
O O5 0.826337 0.829782 0.263465
O O6 0.910745 0.807712 0.527500
O O7 0.786268 0.880912 0.502658
O O8 0.962227 0.894703 0.378421
O O9 0.805461 0.747088 0.700838
O O10 0.865359 0.650391 0.758324
O O11 0.099689 0.966372 0.296601
O O12 0.000000 0.768145 0.750000
O O13 0.610071 0.915753 0.486624
O O14 0.753130 0.976074 0.591350
O O15 0.202744 0.558593 0.764521
O O16 0.000000 0.573349 0.750000
#
# Coordination Sequence:
#
# PCOD9455633 Si02
#       8
#     8   8   8   4   8   8   8   8
#     4  10  21  38  61  88 128 158 213 265 310 384
#     4  10  22  39  60  86 127 159 200 255 314 376
#     4  10  20  41  61  84 118 169 204 258 316 369
#     4  12  20  40  62  88 124 168 204 242 324 376
#     4  11  22  36  60  92 119 161 210 258 313 377
#     4  10  21  40  59  94 123 160 211 256 314 384
#     4  10  21  41  63  84 120 165 207 258 313 372
#     4  11  22  39  62  90 127 165 205 258 320 377
#
# _framework density 20.046330999999999
#
# number of rings (size 3 to 8) (size 9 to 14) (size 15 to 20)
#    0.000    1.600    4.000    2.800    0.000    1.067 
#    4.800    2.667    2.933    0.000    0.000    0.000 
#    0.000    0.000    0.000    0.000    0.000    0.000 
#
# Total GULP energy -334673.652690 kJ/mol
# GULP energy per Si atom -5577.894211 kJ/mol
# Density = 2.000070 g / cm^3
# Si number density = 20.046331 Si / 1000 Ang^3
#
#
#
# Elastic Constant Matrix: (Units=GPa)
#
#
# Indices 1 2 3 4 5 6 
#
# 1 66.0841 -3.0027 35.2330 0.0000 0.0000 0.0000
# 2 -3.0027 29.0771 28.5807 0.0000 0.0000 0.0000
# 3 35.2330 28.5807 133.1829 0.0000 0.0000 0.0000
# 4 0.0000 0.0000 0.0000 14.7140 0.0000 0.0000
# 5 0.0000 0.0000 0.0000 0.0000 16.3515 0.0000
# 6 0.0000 0.0000 0.0000 0.0000 0.0000 3.3385
#
#
#
# Elastic Compliance Matrix: (Units=1/GPa)
#
#
# Indices 1 2 3 4 5 6 
#
# 1 0.019268 0.008871 -0.007001 0.000000 0.000000 0.000000
# 2 0.008871 0.047669 -0.012577 0.000000 0.000000 0.000000
# 3 -0.007001 -0.012577 0.012059 0.000000 0.000000 0.000000
# 4 0.000000 0.000000 0.000000 0.067962 0.000000 0.000000
# 5 0.000000 0.000000 0.000000 0.000000 0.061157 0.000000
# 6 0.000000 0.000000 0.000000 0.000000 0.000000 0.299533
#
#
# Mechanical properties :
#
#
# Convention : Reuss Voigt Hill
#
# Bulk Modulus (GPa) = 17.36595 38.88513 28.12554
# Shear Modulus (GPa) = 9.11982 18.04968 13.58475
#
# Velocity S-wave (km/s) = 2.13524 3.00392 2.60603
# Velocity P-wave (km/s) = 3.84197 5.60991 4.80790
#
# Compressibility (1/GPa) = 0.05758393
#
# Stress axis : x y z
#
# Youngs Moduli (GPa) = 51.89975 20.97790 82.92252
#
# Poissons Ratio (x) = -0.18610 0.58054
# Poissons Ratio (y) = -0.46041 1.04288
# Poissons Ratio (z) = 0.36335 0.26383
#
# Static dielectric constant tensor:
#      x y z
#    x 1.704070 0.000000 0.000000 
#    y 0.000000 1.718360 0.000000 
#    z 0.000000 0.000000 1.753530 
# 
# From -- ./inp_files/5233.got.cif
#   From: 2010.05.17/outbox.cif.g08.bks.cpg/sg60_3_cif.got.tgz:5233.got - 2010.06.03 14:59:27.
