data_PCOD9455906
_publ_section_title
;
Structure prediction by ZEFSAII (Michael W. Deem and Ramdas Pophale) SiO2 
 PCOD9455906
Probable space group: P B C N
;
_chemical_formula_sum "Si O2"
_cell_formula_units_Z 32
_cell_length_a 17.180935
_cell_length_b 12.907683
_cell_length_c 5.466955
_cell_angle_alpha 90.000000
_cell_angle_beta 90.000000
_cell_angle_gamma 90.000000
_cell_volume 1212.385085
_symmetry_space_group_name_H-M "P B C N"
_symmetry_group_IT_number 60
_symmetry_cell_setting 'orthorhombic'
loop_
_space_group_symop_operation_xyz
x,y,z
1/2-x,1/2-y,1/2+z
1/2+x,1/2-y,-z
-x,y,1/2-z
-x,-y,-z
1/2+x,1/2+y,1/2-z
1/2-x,1/2+y,z
x,-y,1/2+z
loop_
_atom_site_type_symbol
_atom_site_label
_atom_site_fract_x
_atom_site_fract_y
_atom_site_fract_z
Si Si1 0.403571 0.965252 0.679200
Si Si2 0.000000 0.723427 0.250000
Si Si3 0.500000 0.349516 0.750000
Si Si4 0.265825 0.119114 0.686474
Si Si5 0.828077 0.152966 0.311303
O O1 0.423562 0.850017 0.765087
O O2 0.435321 0.968239 0.404946
O O3 0.319511 0.017819 0.661537
O O4 0.991344 0.786401 0.497528
O O5 0.585849 0.396726 0.792154
O O6 0.322017 0.220671 0.695832
O O7 0.215812 0.125221 0.439793
O O8 0.212712 0.124418 0.930244
#
# Coordination Sequence:
#
# PCOD9455906 Si02
#       5
#     8   4   4   8   8
#     4  12  23  37  57  88 126 161 195 240 299 367
#     4  12  24  37  58  94 134 161 188 236 308 381
#     4  12  24  41  64  92 126 163 198 244 308 361
#     4  10  21  37  56  81 117 158 201 240 289 350
#     4  10  21  38  57  80 113 158 205 246 284 345
#
# _framework density 26.394252000000002
#
# number of rings (size 3 to 8) (size 9 to 14) (size 15 to 20)
#    0.000    1.000    0.000    8.250    0.000    5.000 
#    0.000    0.000    0.000    0.000    0.000   17.500 
#    0.000    0.000    0.000    0.000    0.000    0.000 
#
# Total GULP energy -178781.845578 kJ/mol
# GULP energy per Si atom -5586.932674 kJ/mol
# Density = 2.633418 g / cm^3
# Si number density = 26.394252 Si / 1000 Ang^3
#
#
#
# Elastic Constant Matrix: (Units=GPa)
#
#
# Indices 1 2 3 4 5 6 
#
# 1 162.2195 24.2380 77.3626 0.0000 0.0000 0.0000
# 2 24.2380 38.5587 28.0421 0.0000 0.0000 0.0000
# 3 77.3626 28.0421 267.0176 0.0000 0.0000 0.0000
# 4 0.0000 0.0000 0.0000 41.3286 0.0000 0.0000
# 5 0.0000 0.0000 0.0000 0.0000 60.3082 0.0000
# 6 0.0000 0.0000 0.0000 0.0000 0.0000 38.9547
#
#
#
# Elastic Compliance Matrix: (Units=1/GPa)
#
#
# Indices 1 2 3 4 5 6 
#
# 1 0.007546 -0.003414 -0.001828 0.000000 0.000000 0.000000
# 2 -0.003414 0.029624 -0.002122 0.000000 0.000000 0.000000
# 3 -0.001828 -0.002122 0.004497 0.000000 0.000000 0.000000
# 4 0.000000 0.000000 0.000000 0.024196 0.000000 0.000000
# 5 0.000000 0.000000 0.000000 0.000000 0.016581 0.000000
# 6 0.000000 0.000000 0.000000 0.000000 0.000000 0.025671
#
#
# Mechanical properties :
#
#
# Convention : Reuss Voigt Hill
#
# Bulk Modulus (GPa) = 37.11998 80.78680 58.95339
# Shear Modulus (GPa) = 37.92929 50.66184 44.29556
#
# Velocity S-wave (km/s) = 3.79493 4.38588 4.10106
# Velocity P-wave (km/s) = 5.77028 7.50480 6.69396
#
# Compressibility (1/GPa) = 0.02693967
#
# Stress axis : x y z
#
# Youngs Moduli (GPa) = 132.51485 33.75655 222.34682
#
# Poissons Ratio (x) = 0.11526 0.40641
# Poissons Ratio (y) = 0.45245 0.47179
# Poissons Ratio (z) = 0.24221 0.07163
#
# Static dielectric constant tensor:
#      x y z
#    x 2.675040 0.000000 0.000000 
#    y 0.000000 2.108630 0.000000 
#    z 0.000000 0.000000 2.040640 
# 
# From -- ./inp_files/1061.got.cif
#   From: 2010.05.17/outbox.cif.g08.bks.cpg/sg60_1_cif.got.tgz:1061.got - 2010.06.03 14:59:27.
