data_PCOD9455885
_publ_section_title
;
Structure prediction by ZEFSAII (Michael W. Deem and Ramdas Pophale) SiO2 
 PCOD9455885
Probable space group: P B C N
;
_chemical_formula_sum "Si O2"
_cell_formula_units_Z 40
_cell_length_a 5.469737
_cell_length_b 10.209972
_cell_length_c 30.928901
_cell_angle_alpha 90.000000
_cell_angle_beta 90.000000
_cell_angle_gamma 90.000000
_cell_volume 1727.251125
_symmetry_space_group_name_H-M "P B C N"
_symmetry_group_IT_number 60
_symmetry_cell_setting 'orthorhombic'
loop_
_space_group_symop_operation_xyz
x,y,z
1/2-x,1/2-y,1/2+z
1/2+x,1/2-y,-z
-x,y,1/2-z
-x,-y,-z
1/2+x,1/2+y,1/2-z
1/2-x,1/2+y,z
x,-y,1/2+z
loop_
_atom_site_type_symbol
_atom_site_label
_atom_site_fract_x
_atom_site_fract_y
_atom_site_fract_z
Si Si1 0.078565 0.238663 0.701320
Si Si2 0.361096 0.587126 0.873787
Si Si3 0.918753 0.705760 0.051807
Si Si4 0.854349 0.513806 0.838838
Si Si5 0.925294 0.119980 0.469611
O O1 0.118806 0.390954 0.692570
O O2 0.308190 0.148036 0.687696
O O3 0.000000 0.212912 0.750000
O O4 0.879344 0.189677 0.666421
O O5 0.423776 0.670311 0.916483
O O6 0.597056 0.497240 0.864088
O O7 0.092169 0.527128 0.869110
O O8 0.161998 0.618085 0.053023
O O9 0.659663 0.638012 0.060677
O O10 0.905311 0.755568 0.002083
O O11 0.000000 0.000000 0.500000
#
# Coordination Sequence:
#
# PCOD9455885 Si02
#       5
#     8   8   8   8   8
#     4  10  26  44  70  95 136 170 225 276 336 403
#     4  10  24  41  65  96 131 174 225 272 336 395
#     4  10  21  39  59  91 127 164 215 263 321 390
#     4  10  25  43  66  97 129 176 216 275 329 396
#     4  10  21  36  62  90 126 168 212 263 324 388
#
# _framework density 23.158185
#
# number of rings (size 3 to 8) (size 9 to 14) (size 15 to 20)
#    1.200    0.800    0.000    1.800    5.600    3.200 
#    0.000    0.000    0.000    0.000    0.000    0.000 
#    0.000    0.000    0.000    0.000    0.000    0.000 
#
# Total GULP energy -223229.833944 kJ/mol
# GULP energy per Si atom -5580.745849 kJ/mol
# Density = 2.310548 g / cm^3
# Si number density = 23.158185 Si / 1000 Ang^3
#
#
#
# Elastic Constant Matrix: (Units=GPa)
#
#
# Indices 1 2 3 4 5 6 
#
# 1 177.8190 12.2654 52.7761 0.0000 0.0000 0.0000
# 2 12.2654 39.7527 7.4814 0.0000 0.0000 0.0000
# 3 52.7761 7.4814 94.2609 0.0000 0.0000 0.0000
# 4 0.0000 0.0000 0.0000 41.1895 0.0000 0.0000
# 5 0.0000 0.0000 0.0000 0.0000 19.7649 0.0000
# 6 0.0000 0.0000 0.0000 0.0000 0.0000 30.9981
#
#
#
# Elastic Compliance Matrix: (Units=1/GPa)
#
#
# Indices 1 2 3 4 5 6 
#
# 1 0.006821 -0.001407 -0.003707 0.000000 0.000000 0.000000
# 2 -0.001407 0.025827 -0.001262 0.000000 0.000000 0.000000
# 3 -0.003707 -0.001262 0.012785 0.000000 0.000000 0.000000
# 4 0.000000 0.000000 0.000000 0.024278 0.000000 0.000000
# 5 0.000000 0.000000 0.000000 0.000000 0.050595 0.000000
# 6 0.000000 0.000000 0.000000 0.000000 0.000000 0.032260
#
#
# Mechanical properties :
#
#
# Convention : Reuss Voigt Hill
#
# Bulk Modulus (GPa) = 30.59970 50.76427 40.68198
# Shear Modulus (GPa) = 28.37487 34.34447 31.35967
#
# Velocity S-wave (km/s) = 3.50417 3.85520 3.68387
# Velocity P-wave (km/s) = 5.44191 6.46413 5.97492
#
# Compressibility (1/GPa) = 0.03268006
#
# Stress axis : x y z
#
# Youngs Moduli (GPa) = 146.60422 38.71899 78.21798
#
# Poissons Ratio (x) = 0.05447 0.28999
# Poissons Ratio (y) = 0.20625 0.09873
# Poissons Ratio (z) = 0.54352 0.04887
#
# Static dielectric constant tensor:
#      x y z
#    x 1.887010 0.000000 0.000000 
#    y 0.000000 1.912220 0.000000 
#    z 0.000000 0.000000 1.848840 
# 
# From -- ./inp_files/25606.got.cif
#   From: 2010.05.17/outbox.cif.g08.bks.cpg/sg60_13_cif.got.tgz:25606.got - 2010.06.03 14:59:27.
