data_PCOD9455141
_publ_section_title
;
Structure prediction by ZEFSAII (Michael W. Deem and Ramdas Pophale) SiO2 
 PCOD9455141
Probable space group: P B C N
;
_chemical_formula_sum "Si O2"
_cell_formula_units_Z 60
_cell_length_a 14.457872
_cell_length_b 18.298317
_cell_length_c 11.522998
_cell_angle_alpha 90.000000
_cell_angle_beta 90.000000
_cell_angle_gamma 90.000000
_cell_volume 3048.463567
_symmetry_space_group_name_H-M "P B C N"
_symmetry_group_IT_number 60
_symmetry_cell_setting 'orthorhombic'
loop_
_space_group_symop_operation_xyz
x,y,z
1/2-x,1/2-y,1/2+z
1/2+x,1/2-y,-z
-x,y,1/2-z
-x,-y,-z
1/2+x,1/2+y,1/2-z
1/2-x,1/2+y,z
x,-y,1/2+z
loop_
_atom_site_type_symbol
_atom_site_label
_atom_site_fract_x
_atom_site_fract_y
_atom_site_fract_z
Si Si1 0.901649 0.676018 0.607473
Si Si2 0.873315 0.194849 0.449155
Si Si3 0.405154 0.131275 0.545639
Si Si4 0.279513 0.928061 0.247326
Si Si5 0.100474 0.566866 0.290510
Si Si6 0.500000 0.295826 0.750000
Si Si7 0.833359 0.294726 0.856311
Si Si8 0.393092 0.348976 0.285325
O O1 0.818618 0.627187 0.654155
O O2 0.884454 0.708496 0.480440
O O3 0.993164 0.625949 0.601917
O O4 0.922889 0.741847 0.694982
O O5 0.890465 0.281782 0.467183
O O6 0.949593 0.165921 0.357279
O O7 0.772781 0.189566 0.390201
O O8 0.883500 0.160493 0.576010
O O9 0.327372 0.099209 0.629159
O O10 0.404542 0.091538 0.423297
O O11 0.170134 0.917004 0.246173
O O12 0.320148 0.007238 0.272963
O O13 0.124013 0.637911 0.214195
O O14 0.000000 0.538738 0.250000
O O15 0.849858 0.221910 0.781021
O O16 0.500000 0.354111 0.250000
#
# Coordination Sequence:
#
# PCOD9455141 Si02
#       8
#     8   8   8   8   8   4   8   8
#     4  11  19  35  60  89 136 165 201 262 327 395
#     4  11  22  39  67  95 134 166 219 274 331 381
#     4  11  21  39  61  96 131 172 207 265 331 397
#     4  12  25  40  62  95 130 176 218 262 329 401
#     4  12  26  40  65  99 137 170 210 274 339 398
#     4  10  20  36  58  96 126 168 210 262 318 384
#     4  12  23  39  65 100 131 162 215 274 332 395
#     4  12  24  44  67  95 128 177 226 273 323 387
#
# _framework density 19.682044999999999
#
# number of rings (size 3 to 8) (size 9 to 14) (size 15 to 20)
#    0.000    0.533    8.000    2.800    1.867    1.067 
#    2.400    0.000    1.467    1.600    0.000    0.000 
#    0.000    0.000    0.000    0.000    0.000    0.000 
#
# Total GULP energy -335412.507299 kJ/mol
# GULP energy per Si atom -5590.208455 kJ/mol
# Density = 1.963725 g / cm^3
# Si number density = 19.682045 Si / 1000 Ang^3
#
#
#
# Elastic Constant Matrix: (Units=GPa)
#
#
# Indices 1 2 3 4 5 6 
#
# 1 122.0163 16.0737 36.4349 0.0000 0.0000 0.0000
# 2 16.0737 33.8749 13.1381 0.0000 0.0000 0.0000
# 3 36.4349 13.1381 141.8048 0.0000 0.0000 0.0000
# 4 0.0000 0.0000 0.0000 7.2078 0.0000 0.0000
# 5 0.0000 0.0000 0.0000 0.0000 25.7800 0.0000
# 6 0.0000 0.0000 0.0000 0.0000 0.0000 14.4937
#
#
#
# Elastic Compliance Matrix: (Units=1/GPa)
#
#
# Indices 1 2 3 4 5 6 
#
# 1 0.009284 -0.003610 -0.002051 0.000000 0.000000 0.000000
# 2 -0.003610 0.032024 -0.002040 0.000000 0.000000 0.000000
# 3 -0.002051 -0.002040 0.007768 0.000000 0.000000 0.000000
# 4 0.000000 0.000000 0.000000 0.138738 0.000000 0.000000
# 5 0.000000 0.000000 0.000000 0.000000 0.038790 0.000000
# 6 0.000000 0.000000 0.000000 0.000000 0.000000 0.068995
#
#
# Mechanical properties :
#
#
# Convention : Reuss Voigt Hill
#
# Bulk Modulus (GPa) = 29.69523 47.66548 38.68036
# Shear Modulus (GPa) = 15.51716 24.96625 20.24171
#
# Velocity S-wave (km/s) = 2.81088 3.56543 3.21040
# Velocity P-wave (km/s) = 5.06507 6.42029 5.78252
#
# Compressibility (1/GPa) = 0.03367544
#
# Stress axis : x y z
#
# Youngs Moduli (GPa) = 107.71752 31.22640 128.73568
#
# Poissons Ratio (x) = 0.11272 0.26402
# Poissons Ratio (y) = 0.38882 0.26257
# Poissons Ratio (z) = 0.22091 0.06369
#
# Static dielectric constant tensor:
#      x y z
#    x 1.739020 0.000000 0.000000 
#    y 0.000000 1.659100 0.000000 
#    z 0.000000 0.000000 1.695150 
# 
# From -- ./inp_files/12112.got.cif
#   From: 2010.05.17/outbox.cif.g08.bks.cpg/sg60_7_cif.got.tgz:12112.got - 2010.06.03 14:59:27.
