data_PCOD9455909
_publ_section_title
;
Structure prediction by ZEFSAII (Michael W. Deem and Ramdas Pophale) SiO2 
 PCOD9455909
Probable space group: P B C N
;
_chemical_formula_sum "Si O2"
_cell_formula_units_Z 56
_cell_length_a 15.700185
_cell_length_b 33.325425
_cell_length_c 5.287293
_cell_angle_alpha 90.000000
_cell_angle_beta 90.000000
_cell_angle_gamma 90.000000
_cell_volume 2766.392793
_symmetry_space_group_name_H-M "P B C N"
_symmetry_group_IT_number 60
_symmetry_cell_setting 'orthorhombic'
loop_
_space_group_symop_operation_xyz
x,y,z
1/2-x,1/2-y,1/2+z
1/2+x,1/2-y,-z
-x,y,1/2-z
-x,-y,-z
1/2+x,1/2+y,1/2-z
1/2-x,1/2+y,z
x,-y,1/2+z
loop_
_atom_site_type_symbol
_atom_site_label
_atom_site_fract_x
_atom_site_fract_y
_atom_site_fract_z
Si Si1 0.464928 0.769398 0.002262
Si Si2 0.254693 0.588061 0.158807
Si Si3 0.271217 0.228880 0.651790
Si Si4 0.265647 0.862461 0.138890
Si Si5 0.464214 0.137835 0.507288
Si Si6 0.898092 0.526238 0.249076
Si Si7 0.099275 0.024728 0.255978
O O1 0.500000 0.748637 0.250000
O O2 0.364398 0.771426 0.023919
O O3 0.498163 0.815860 0.005164
O O4 0.500000 0.750314 0.750000
O O5 0.274549 0.617895 0.391245
O O6 0.167071 0.563374 0.216149
O O7 0.332865 0.557351 0.166963
O O8 0.244996 0.611599 0.893580
O O9 0.220206 0.252582 0.433036
O O10 0.238948 0.183492 0.681770
O O11 0.364714 0.860785 0.054439
O O12 0.500000 0.115309 0.750000
O O13 0.500000 0.120800 0.250000
O O14 0.880365 0.495962 0.482784
O O15 0.000000 0.534666 0.250000
O O16 0.000000 0.037579 0.250000
O O17 0.112055 0.010194 0.544952
#
# Coordination Sequence:
#
# PCOD9455909 Si02
#       7
#     8   8   8   8   8   8   8
#     4   9  17  31  53  79 103 133 179 235 291 341
#     4  12  22  37  59  86 124 156 193 250 301 347
#     4  11  22  39  61  82 113 156 200 250 306 366
#     4  11  24  36  55  88 117 152 198 243 300 361
#     4   9  17  31  49  72 108 145 180 228 276 324
#     4  10  21  37  56  82 121 167 203 225 265 341
#     4  10  21  39  65  93 116 147 195 245 299 359
#
# _framework density 20.242965999999999
#
# number of rings (size 3 to 8) (size 9 to 14) (size 15 to 20)
#    0.000    1.714    0.000    5.143    0.000    6.286 
#    0.000    0.000    0.000    8.571    0.000    0.000 
#    0.000    0.000    0.000    0.000    0.000    0.000 
#
# Total GULP energy -312365.072055 kJ/mol
# GULP energy per Si atom -5577.947715 kJ/mol
# Density = 2.019689 g / cm^3
# Si number density = 20.242966 Si / 1000 Ang^3
#
#
#
# Elastic Constant Matrix: (Units=GPa)
#
#
# Indices 1 2 3 4 5 6 
#
# 1 48.4723 26.9529 22.0455 0.0000 0.0000 0.0000
# 2 26.9529 72.3341 29.8344 0.0000 0.0000 0.0000
# 3 22.0455 29.8344 161.7181 0.0000 0.0000 0.0000
# 4 0.0000 0.0000 0.0000 15.9528 0.0000 0.0000
# 5 0.0000 0.0000 0.0000 0.0000 20.2925 0.0000
# 6 0.0000 0.0000 0.0000 0.0000 0.0000 12.0987
#
#
#
# Elastic Compliance Matrix: (Units=1/GPa)
#
#
# Indices 1 2 3 4 5 6 
#
# 1 0.026575 -0.009100 -0.001944 0.000000 0.000000 0.000000
# 2 -0.009100 0.018080 -0.002095 0.000000 0.000000 0.000000
# 3 -0.001944 -0.002095 0.006835 0.000000 0.000000 0.000000
# 4 0.000000 0.000000 0.000000 0.062685 0.000000 0.000000
# 5 0.000000 0.000000 0.000000 0.000000 0.049279 0.000000
# 6 0.000000 0.000000 0.000000 0.000000 0.000000 0.082654
#
#
# Mechanical properties :
#
#
# Convention : Reuss Voigt Hill
#
# Bulk Modulus (GPa) = 39.66475 48.91001 44.28738
# Shear Modulus (GPa) = 17.80696 23.24825 20.52760
#
# Velocity S-wave (km/s) = 2.96913 3.39257 3.18789
# Velocity P-wave (km/s) = 5.60278 6.28967 5.95614
#
# Compressibility (1/GPa) = 0.02521130
#
# Stress axis : x y z
#
# Youngs Moduli (GPa) = 37.62982 55.31055 146.30491
#
# Poissons Ratio (x) = 0.50335 0.28438
# Poissons Ratio (y) = 0.34245 0.30649
# Poissons Ratio (z) = 0.07314 0.11587
#
# Static dielectric constant tensor:
#      x y z
#    x 1.792660 0.000000 0.000000 
#    y 0.000000 1.753490 0.000000 
#    z 0.000000 0.000000 1.776450 
# 
# From -- ./inp_files/1474.got.cif
#   From: 2010.05.17/outbox.cif.g08.bks.cpg/sg60_1_cif.got.tgz:1474.got - 2010.06.03 14:59:27.
