data_PCOD9455089
_publ_section_title
;
Structure prediction by ZEFSAII (Michael W. Deem and Ramdas Pophale) SiO2 
 PCOD9455089
Probable space group: P B C N
;
_chemical_formula_sum "Si O2"
_cell_formula_units_Z 40
_cell_length_a 12.849802
_cell_length_b 7.867749
_cell_length_c 14.298235
_cell_angle_alpha 90.000000
_cell_angle_beta 90.000000
_cell_angle_gamma 90.000000
_cell_volume 1445.537501
_symmetry_space_group_name_H-M "P B C N"
_symmetry_group_IT_number 60
_symmetry_cell_setting 'orthorhombic'
loop_
_space_group_symop_operation_xyz
x,y,z
1/2-x,1/2-y,1/2+z
1/2+x,1/2-y,-z
-x,y,1/2-z
-x,-y,-z
1/2+x,1/2+y,1/2-z
1/2-x,1/2+y,z
x,-y,1/2+z
loop_
_atom_site_type_symbol
_atom_site_label
_atom_site_fract_x
_atom_site_fract_y
_atom_site_fract_z
Si Si1 0.196735 0.692210 0.550737
Si Si2 0.426144 0.655125 0.513874
Si Si3 0.901076 0.791808 0.682647
Si Si4 0.638724 0.882227 0.836143
Si Si5 0.333109 0.688658 0.841883
O O1 0.304442 0.605091 0.515522
O O2 0.245394 0.823441 0.626547
O O3 0.131782 0.561702 0.612766
O O4 0.154900 0.759130 0.451229
O O5 0.500000 0.500000 0.500000
O O6 0.438016 0.762398 0.420948
O O7 0.437802 0.754821 0.609215
O O8 0.790518 0.693872 0.686555
O O9 0.000000 0.767014 0.750000
O O10 0.874787 0.997455 0.680478
O O11 0.625963 0.835207 0.728721
#
# Coordination Sequence:
#
# PCOD9455089 Si02
#       5
#     8   8   8   8   8
#     4   9  20  35  60  94 123 168 214 262 327 392
#     4   9  20  36  62  91 128 161 221 271 324 396
#     4  11  24  41  68 100 130 180 223 276 337 406
#     4  10  20  35  62  90 127 172 216 257 342 385
#     4  11  22  41  67  94 141 173 220 280 337 392
#
# _framework density 27.67137
#
# number of rings (size 3 to 8) (size 9 to 14) (size 15 to 20)
#    1.200    0.800    0.000    4.800    2.800    0.000 
#    0.000    1.000    0.000    6.000    0.000    0.000 
#    0.000    0.000    0.000    0.000    0.000    0.000 
#
# Total GULP energy -223371.442380 kJ/mol
# GULP energy per Si atom -5584.286059 kJ/mol
# Density = 2.760839 g / cm^3
# Si number density = 27.671370 Si / 1000 Ang^3
#
#
#
# Elastic Constant Matrix: (Units=GPa)
#
#
# Indices 1 2 3 4 5 6 
#
# 1 94.7226 52.0663 33.5908 0.0000 0.0000 0.0000
# 2 52.0663 102.0790 45.0654 0.0000 0.0000 0.0000
# 3 33.5908 45.0654 218.4402 0.0000 0.0000 0.0000
# 4 0.0000 0.0000 0.0000 30.0742 0.0000 0.0000
# 5 0.0000 0.0000 0.0000 0.0000 47.1712 0.0000
# 6 0.0000 0.0000 0.0000 0.0000 0.0000 68.6319
#
#
#
# Elastic Compliance Matrix: (Units=1/GPa)
#
#
# Indices 1 2 3 4 5 6 
#
# 1 0.014793 -0.007197 -0.000790 0.000000 0.000000 0.000000
# 2 -0.007197 0.014279 -0.001839 0.000000 0.000000 0.000000
# 3 -0.000790 -0.001839 0.005079 0.000000 0.000000 0.000000
# 4 0.000000 0.000000 0.000000 0.033251 0.000000 0.000000
# 5 0.000000 0.000000 0.000000 0.000000 0.021199 0.000000
# 6 0.000000 0.000000 0.000000 0.000000 0.000000 0.014570
#
#
# Mechanical properties :
#
#
# Convention : Reuss Voigt Hill
#
# Bulk Modulus (GPa) = 68.96931 75.18742 72.07837
# Shear Modulus (GPa) = 39.16763 48.14342 43.65553
#
# Velocity S-wave (km/s) = 3.76634 4.17565 3.97626
# Velocity P-wave (km/s) = 6.62512 7.10483 6.86917
#
# Compressibility (1/GPa) = 0.01449920
#
# Stress axis : x y z
#
# Youngs Moduli (GPa) = 67.59932 70.03331 196.89508
#
# Poissons Ratio (x) = 0.50399 0.15557
# Poissons Ratio (y) = 0.48648 0.36212
# Poissons Ratio (z) = 0.05341 0.12880
#
# Static dielectric constant tensor:
#      x y z
#    x 2.109000 0.000000 0.000000 
#    y 0.000000 2.235590 0.000000 
#    z 0.000000 0.000000 2.207790 
# 
# From -- ./inp_files/16614.got.cif
#   From: 2010.05.17/outbox.cif.g08.bks.cpg/sg60_9_cif.got.tgz:16614.got - 2010.06.03 14:59:27.
