data_PCOD9455651
_publ_section_title
;
Structure prediction by ZEFSAII (Michael W. Deem and Ramdas Pophale) SiO2 
 PCOD9455651
Probable space group: P B C N
;
_chemical_formula_sum "Si O2"
_cell_formula_units_Z 64
_cell_length_a 8.095256
_cell_length_b 22.834003
_cell_length_c 14.713586
_cell_angle_alpha 90.000000
_cell_angle_beta 90.000000
_cell_angle_gamma 90.000000
_cell_volume 2719.763700
_symmetry_space_group_name_H-M "P B C N"
_symmetry_group_IT_number 60
_symmetry_cell_setting 'orthorhombic'
loop_
_space_group_symop_operation_xyz
x,y,z
1/2-x,1/2-y,1/2+z
1/2+x,1/2-y,-z
-x,y,1/2-z
-x,-y,-z
1/2+x,1/2+y,1/2-z
1/2-x,1/2+y,z
x,-y,1/2+z
loop_
_atom_site_type_symbol
_atom_site_label
_atom_site_fract_x
_atom_site_fract_y
_atom_site_fract_z
Si Si1 0.859203 0.197268 0.862502
Si Si2 0.951433 0.139363 0.489010
Si Si3 0.528453 0.168442 0.956828
Si Si4 0.185296 0.926822 0.222529
Si Si5 0.420835 0.726665 0.347765
Si Si6 0.044127 0.686557 0.336657
Si Si7 0.663149 0.937164 0.081924
Si Si8 0.826982 0.034208 0.980976
O O1 0.702711 0.196874 0.928848
O O2 0.818301 0.143815 0.794669
O O3 0.913653 0.259294 0.825101
O O4 0.014330 0.179431 0.923819
O O5 0.794298 0.101128 0.520113
O O6 0.961884 0.179752 0.400421
O O7 0.115253 0.098008 0.485266
O O8 0.408171 0.214559 0.907984
O O9 0.498934 0.103078 0.921015
O O10 0.505982 0.164461 0.063439
O O11 0.290648 0.940476 0.311702
O O12 0.209793 0.959787 0.126425
O O13 0.000000 0.943053 0.250000
O O14 0.500000 0.740828 0.250000
O O15 0.237540 0.701622 0.338025
O O16 0.000000 0.646794 0.250000
O O17 0.314240 0.999158 0.962985
O O18 0.000000 0.000000 0.000000
#
# Coordination Sequence:
#
# PCOD9455651 Si02
#       8
#     8   8   8   8   8   8   8   8
#     4  11  22  40  65  94 130 183 227 285 346 406
#     4  10  20  41  65  92 138 178 230 284 351 411
#     4  12  26  42  66  96 144 178 235 292 349 426
#     4  11  20  37  70  97 130 174 237 287 351 416
#     4  12  27  41  64 108 139 184 232 283 354 434
#     4  12  25  42  66  89 140 184 228 278 356 426
#     4  11  24  41  68 104 132 182 238 297 355 412
#     4   9  19  40  65 100 130 175 233 290 356 416
#
# _framework density 23.531455000000001
#
# number of rings (size 3 to 8) (size 9 to 14) (size 15 to 20)
#    0.000    1.000    6.250    1.875    7.000    0.000 
#    4.500    2.500    0.000    0.000    0.000    0.000 
#    0.000    0.000    0.000    0.000    0.000    0.000 
#
# Total GULP energy -357474.793224 kJ/mol
# GULP energy per Si atom -5585.543644 kJ/mol
# Density = 2.347790 g / cm^3
# Si number density = 23.531455 Si / 1000 Ang^3
#
#
#
# Elastic Constant Matrix: (Units=GPa)
#
#
# Indices 1 2 3 4 5 6 
#
# 1 77.2617 10.8584 33.0860 0.0000 0.0000 0.0000
# 2 10.8584 48.2855 44.7497 0.0000 0.0000 0.0000
# 3 33.0860 44.7497 185.6509 0.0000 0.0000 0.0000
# 4 0.0000 0.0000 0.0000 -201.5215 0.0000 0.0000
# 5 0.0000 0.0000 0.0000 0.0000 22.2514 0.0000
# 6 0.0000 0.0000 0.0000 0.0000 0.0000 28.6893
#
#
#
# Elastic Compliance Matrix: (Units=1/GPa)
#
#
# Indices 1 2 3 4 5 6 
#
# 1 0.014056 -0.001081 -0.002245 0.000000 0.000000 0.000000
# 2 -0.001081 0.026751 -0.006255 0.000000 0.000000 0.000000
# 3 -0.002245 -0.006255 0.007294 0.000000 0.000000 0.000000
# 4 0.000000 0.000000 0.000000 -0.004962 0.000000 0.000000
# 5 0.000000 0.000000 0.000000 0.000000 0.044941 0.000000
# 6 0.000000 0.000000 0.000000 0.000000 0.000000 0.034856
#
#
# Mechanical properties :
#
#
# Convention : Reuss Voigt Hill
#
# Bulk Modulus (GPa) = 34.55479 54.28736 44.42108
# Shear Modulus (GPa) = 32.95029 -15.28256 8.83386
#
# Velocity S-wave (km/s) = 3.74607 -2.55120 1.93964
# Velocity P-wave (km/s) = 5.78162 3.80027 4.89230
#
# Compressibility (1/GPa) = 0.02893955
#
# Stress axis : x y z
#
# Youngs Moduli (GPa) = 71.14358 37.38241 137.09368
#
# Poissons Ratio (x) = 0.04040 0.30771
# Poissons Ratio (y) = 0.07689 0.85758
# Poissons Ratio (z) = 0.15968 0.23384
#
# Static dielectric constant tensor:
#      x y z
#    x 1.927090 0.000000 0.000000 
#    y 0.000000 2.011220 0.000000 
#    z 0.000000 0.000000 2.002650 
# 
# From -- ./inp_files/15461.got.cif
#   From: 2010.05.17/outbox.cif.g08.bks.cpg/sg60_8_cif.got.tgz:15461.got - 2010.06.03 14:59:27.
