data_PCOD9455216
_publ_section_title
;
Structure prediction by ZEFSAII (Michael W. Deem and Ramdas Pophale) SiO2 
 PCOD9455216
Probable space group: P B C N
;
_chemical_formula_sum "Si O2"
_cell_formula_units_Z 64
_cell_length_a 7.160695
_cell_length_b 24.271630
_cell_length_c 15.590964
_cell_angle_alpha 90.000000
_cell_angle_beta 90.000000
_cell_angle_gamma 90.000000
_cell_volume 2709.736665
_symmetry_space_group_name_H-M "P B C N"
_symmetry_group_IT_number 60
_symmetry_cell_setting 'orthorhombic'
loop_
_space_group_symop_operation_xyz
x,y,z
1/2-x,1/2-y,1/2+z
1/2+x,1/2-y,-z
-x,y,1/2-z
-x,-y,-z
1/2+x,1/2+y,1/2-z
1/2-x,1/2+y,z
x,-y,1/2+z
loop_
_atom_site_type_symbol
_atom_site_label
_atom_site_fract_x
_atom_site_fract_y
_atom_site_fract_z
Si Si1 0.223171 0.705791 0.227727
Si Si2 0.304804 0.777407 0.385885
Si Si3 0.720388 0.009939 0.423817
Si Si4 0.174260 0.888052 0.127993
Si Si5 0.737711 0.109709 0.678946
Si Si6 0.870643 0.773614 0.433451
Si Si7 0.227558 0.578325 0.241293
Si Si8 0.302438 0.995409 0.892017
O O1 0.326575 0.739751 0.302204
O O2 0.237385 0.735629 0.135526
O O3 0.279238 0.641909 0.229613
O O4 0.000000 0.706309 0.250000
O O5 0.360618 0.840591 0.370524
O O6 0.380607 0.752399 0.473171
O O7 0.080787 0.778792 0.399022
O O8 0.747866 0.945493 0.405110
O O9 0.501788 0.027217 0.423747
O O10 0.791488 0.043896 0.341910
O O11 0.794594 0.016802 0.520780
O O12 0.257822 0.875145 0.221440
O O13 0.205741 0.835830 0.067020
O O14 0.952541 0.894681 0.146794
O O15 0.657385 0.049264 0.664973
O O16 0.291117 0.549006 0.329632
O O17 0.000000 0.575346 0.250000
#
# Coordination Sequence:
#
# PCOD9455216 Si02
#       8
#     8   8   8   8   8   8   8   8
#     4   9  18  35  57  77 107 149 182 217 270 330
#     4  10  21  37  58  83 109 143 186 225 271 328
#     4  10  21  35  55  84 110 139 183 228 270 319
#     4  10  20  37  58  80 109 146 185 224 272 330
#     4  10  20  37  58  80 109 146 185 224 272 330
#     4  10  21  37  58  83 109 143 186 225 271 328
#     4   9  18  33  51  77 111 139 174 223 266 310
#     4  10  21  35  55  84 110 139 183 228 270 319
#
# _framework density 23.61853
#
# number of rings (size 3 to 8) (size 9 to 14) (size 15 to 20)
#    0.000    2.250    2.500    0.000    3.500    1.500 
#    0.000    0.625    0.000    1.500    0.000    0.000 
#    0.000    0.000    0.000    0.000    0.000    0.000 
#
# Total GULP energy -357784.396875 kJ/mol
# GULP energy per Si atom -5590.381201 kJ/mol
# Density = 2.356477 g / cm^3
# Si number density = 23.618530 Si / 1000 Ang^3
#
#
#
# Elastic Constant Matrix: (Units=GPa)
#
#
# Indices 1 2 3 4 5 6 
#
# 1 74.3654 0.9906 12.9261 0.0000 0.0000 0.0000
# 2 0.9906 135.0213 30.8381 0.0000 0.0000 0.0000
# 3 12.9261 30.8381 111.4400 0.0000 0.0000 0.0000
# 4 0.0000 0.0000 0.0000 36.9828 0.0000 0.0000
# 5 0.0000 0.0000 0.0000 0.0000 9.9204 0.0000
# 6 0.0000 0.0000 0.0000 0.0000 0.0000 8.5622
#
#
#
# Elastic Compliance Matrix: (Units=1/GPa)
#
#
# Indices 1 2 3 4 5 6 
#
# 1 0.013734 0.000281 -0.001671 0.000000 0.000000 0.000000
# 2 0.000281 0.007912 -0.002222 0.000000 0.000000 0.000000
# 3 -0.001671 -0.002222 0.009782 0.000000 0.000000 0.000000
# 4 0.000000 0.000000 0.000000 0.027040 0.000000 0.000000
# 5 0.000000 0.000000 0.000000 0.000000 0.100802 0.000000
# 6 0.000000 0.000000 0.000000 0.000000 0.000000 0.116793
#
#
# Mechanical properties :
#
#
# Convention : Reuss Voigt Hill
#
# Bulk Modulus (GPa) = 41.31567 45.59293 43.45430
# Shear Modulus (GPa) = 17.16125 29.49788 23.32956
#
# Velocity S-wave (km/s) = 2.69848 3.53785 3.14628
# Velocity P-wave (km/s) = 5.21919 6.00286 5.62469
#
# Compressibility (1/GPa) = 0.02420389
#
# Stress axis : x y z
#
# Youngs Moduli (GPa) = 72.81321 126.39591 102.22776
#
# Poissons Ratio (x) = -0.03549 0.17079
# Poissons Ratio (y) = -0.02045 0.22714
# Poissons Ratio (z) = 0.12165 0.28084
#
# Static dielectric constant tensor:
#      x y z
#    x 1.973640 0.000000 0.000000 
#    y 0.000000 1.857800 0.000000 
#    z 0.000000 0.000000 1.955880 
# 
# From -- ./inp_files/15402.got.cif
#   From: 2010.05.17/outbox.cif.g08.bks.cpg/sg60_8_cif.got.tgz:15402.got - 2010.06.03 14:59:27.
