data_PCOD9455932
_publ_section_title
;
Structure prediction by ZEFSAII (Michael W. Deem and Ramdas Pophale) SiO2 
 PCOD9455932
Probable space group: P B C N
;
_chemical_formula_sum "Si O2"
_cell_formula_units_Z 52
_cell_length_a 26.263718
_cell_length_b 10.517803
_cell_length_c 8.029056
_cell_angle_alpha 90.000000
_cell_angle_beta 90.000000
_cell_angle_gamma 90.000000
_cell_volume 2217.919227
_symmetry_space_group_name_H-M "P B C N"
_symmetry_group_IT_number 60
_symmetry_cell_setting 'orthorhombic'
loop_
_space_group_symop_operation_xyz
x,y,z
1/2-x,1/2-y,1/2+z
1/2+x,1/2-y,-z
-x,y,1/2-z
-x,-y,-z
1/2+x,1/2+y,1/2-z
1/2-x,1/2+y,z
x,-y,1/2+z
loop_
_atom_site_type_symbol
_atom_site_label
_atom_site_fract_x
_atom_site_fract_y
_atom_site_fract_z
Si Si1 0.500000 0.081953 0.750000
Si Si2 0.896366 0.900545 0.210888
Si Si3 0.251285 0.158880 0.280850
Si Si4 0.285225 0.585419 0.946018
Si Si5 0.536224 0.401044 0.901069
Si Si6 0.923441 0.432831 0.509729
Si Si7 0.865197 0.348317 0.813623
O O1 0.534787 0.992192 0.633818
O O2 0.543147 0.141023 0.871527
O O3 0.841327 0.924235 0.131106
O O4 0.886364 0.791835 0.350189
O O5 0.920787 0.021566 0.298921
O O6 0.934447 0.849220 0.066546
O O7 0.254731 0.301121 0.351712
O O8 0.304970 0.139185 0.185211
O O9 0.241995 0.050793 0.419997
O O10 0.210914 0.130837 0.136271
O O11 0.500000 0.348005 0.750000
O O12 0.500000 0.500000 0.000000
O O13 0.880676 0.368022 0.620793
O O14 0.894262 0.548017 0.419975
#
# Coordination Sequence:
#
# PCOD9455932 Si02
#       7
#     4   8   8   8   8   8   8
#     4   8  16  32  50  78 108 148 194 238 294 362
#     4  10  21  40  62  88 119 158 206 254 324 364
#     4  11  23  40  62  96 126 174 215 266 328 386
#     4  11  23  40  65  95 131 170 217 270 324 397
#     4   9  19  40  61  87 116 151 199 259 304 375
#     4   9  17  35  54  80 119 152 194 248 297 364
#     4  10  21  37  59  85 122 161 199 253 309 376
#
# _framework density 23.445397
#
# number of rings (size 3 to 8) (size 9 to 14) (size 15 to 20)
#    0.000    2.154    0.000    2.769    0.000    2.462 
#   26.308    4.615    0.000    0.000    0.000    0.000 
#    0.000    0.000    0.000    0.000    0.000    0.000 
#
# Total GULP energy -290024.093719 kJ/mol
# GULP energy per Si atom -5577.386418 kJ/mol
# Density = 2.339203 g / cm^3
# Si number density = 23.445397 Si / 1000 Ang^3
#
#
#
# Elastic Constant Matrix: (Units=GPa)
#
#
# Indices 1 2 3 4 5 6 
#
# 1 78.3480 17.9674 0.9788 0.0000 0.0000 0.0000
# 2 17.9674 27.0280 -5.7292 0.0000 0.0000 0.0000
# 3 0.9788 -5.7292 68.9367 0.0000 0.0000 0.0000
# 4 0.0000 0.0000 0.0000 7.5706 0.0000 0.0000
# 5 0.0000 0.0000 0.0000 0.0000 44.1075 0.0000
# 6 0.0000 0.0000 0.0000 0.0000 0.0000 71.7154
#
#
#
# Elastic Compliance Matrix: (Units=1/GPa)
#
#
# Indices 1 2 3 4 5 6 
#
# 1 0.015137 -0.010289 -0.001070 0.000000 0.000000 0.000000
# 2 -0.010289 0.044656 0.003857 0.000000 0.000000 0.000000
# 3 -0.001070 0.003857 0.014842 0.000000 0.000000 0.000000
# 4 0.000000 0.000000 0.000000 0.132090 0.000000 0.000000
# 5 0.000000 0.000000 0.000000 0.000000 0.022672 0.000000
# 6 0.000000 0.000000 0.000000 0.000000 0.000000 0.013944
#
#
# Mechanical properties :
#
#
# Convention : Reuss Voigt Hill
#
# Bulk Modulus (GPa) = 16.76976 22.30518 19.53747
# Shear Modulus (GPa) = 17.97132 35.41842 26.69487
#
# Velocity S-wave (km/s) = 2.77161 3.89096 3.37797
# Velocity P-wave (km/s) = 4.17261 5.45164 4.85443
#
# Compressibility (1/GPa) = 0.05963116
#
# Stress axis : x y z
#
# Youngs Moduli (GPa) = 66.06532 22.39324 67.37706
#
# Poissons Ratio (x) = 0.23041 0.07210
# Poissons Ratio (y) = 0.67976 -0.25990
# Poissons Ratio (z) = 0.07069 -0.08638
#
# Static dielectric constant tensor:
#      x y z
#    x 1.797670 0.000000 0.000000 
#    y 0.000000 1.967630 0.000000 
#    z 0.000000 0.000000 1.868200 
# 
# From -- ./inp_files/8148.got.cif
#   From: 2010.05.17/outbox.cif.g08.bks.cpg/sg60_5_cif.got.tgz:8148.got - 2010.06.03 14:59:27.
