data_PCOD9455427
_publ_section_title
;
Structure prediction by ZEFSAII (Michael W. Deem and Ramdas Pophale) SiO2 
 PCOD9455427
Probable space group: P B C N
;
_chemical_formula_sum "Si O2"
_cell_formula_units_Z 48
_cell_length_a 10.488305
_cell_length_b 13.701744
_cell_length_c 14.754350
_cell_angle_alpha 90.000000
_cell_angle_beta 90.000000
_cell_angle_gamma 90.000000
_cell_volume 2120.319164
_symmetry_space_group_name_H-M "P B C N"
_symmetry_group_IT_number 60
_symmetry_cell_setting 'orthorhombic'
loop_
_space_group_symop_operation_xyz
x,y,z
1/2-x,1/2-y,1/2+z
1/2+x,1/2-y,-z
-x,y,1/2-z
-x,-y,-z
1/2+x,1/2+y,1/2-z
1/2-x,1/2+y,z
x,-y,1/2+z
loop_
_atom_site_type_symbol
_atom_site_label
_atom_site_fract_x
_atom_site_fract_y
_atom_site_fract_z
Si Si1 0.142272 0.993929 0.255713
Si Si2 0.397036 0.890253 0.191579
Si Si3 0.276239 0.396683 0.580816
Si Si4 0.998467 0.431141 0.911883
Si Si5 0.807745 0.299300 0.497351
Si Si6 0.626662 0.445858 0.537385
O O1 0.154183 0.075132 0.174703
O O2 0.146129 0.036349 0.356811
O O3 0.000000 0.948256 0.250000
O O4 0.264752 0.924665 0.238436
O O5 0.500000 0.830277 0.250000
O O6 0.356124 0.834237 0.101205
O O7 0.481569 0.984925 0.162587
O O8 0.130892 0.369565 0.600194
O O9 0.327914 0.315706 0.512239
O O10 0.270807 0.495729 0.522992
O O11 0.000000 0.500000 0.000000
O O12 0.112025 0.354581 0.924915
O O13 0.661683 0.334496 0.513801
O O14 0.500000 0.500000 0.500000
#
# Coordination Sequence:
#
# PCOD9455427 Si02
#       6
#     8   8   8   8   8   8
#     4  11  22  42  67  90 133 175 220 265 335 394
#     4  10  20  38  65  92 128 177 215 268 330 385
#     4  11  24  41  64  98 128 172 218 275 327 391
#     4   9  18  39  61  85 126 165 213 261 318 387
#     4  11  23  41  64  98 131 165 223 274 324 392
#     4  12  23  44  68  92 132 180 214 272 332 391
#
# _framework density 22.638100000000001
#
# number of rings (size 3 to 8) (size 9 to 14) (size 15 to 20)
#    0.000    1.333    6.667    1.000    4.667    0.667 
#    3.000    0.000    0.000    0.000    0.000    0.000 
#    0.000    0.000    0.000    0.000    0.000    0.000 
#
# Total GULP energy -267270.271000 kJ/mol
# GULP energy per Si atom -5568.130646 kJ/mol
# Density = 2.258658 g / cm^3
# Si number density = 22.638100 Si / 1000 Ang^3
#
#
#
# Elastic Constant Matrix: (Units=GPa)
#
#
# Indices 1 2 3 4 5 6 
#
# 1 118.1042 -14.0472 4.2419 0.0000 0.0000 0.0000
# 2 -14.0472 33.3083 -7.5475 0.0000 0.0000 0.0000
# 3 4.2419 -7.5475 119.6864 0.0000 0.0000 0.0000
# 4 0.0000 0.0000 0.0000 13.9819 0.0000 0.0000
# 5 0.0000 0.0000 0.0000 0.0000 20.7992 0.0000
# 6 0.0000 0.0000 0.0000 0.0000 0.0000 7.6447
#
#
#
# Elastic Compliance Matrix: (Units=1/GPa)
#
#
# Indices 1 2 3 4 5 6 
#
# 1 0.008915 0.003742 -0.000080 0.000000 0.000000 0.000000
# 2 0.003742 0.032028 0.001887 0.000000 0.000000 0.000000
# 3 -0.000080 0.001887 0.008477 0.000000 0.000000 0.000000
# 4 0.000000 0.000000 0.000000 0.071521 0.000000 0.000000
# 5 0.000000 0.000000 0.000000 0.000000 0.048079 0.000000
# 6 0.000000 0.000000 0.000000 0.000000 0.000000 0.130810
#
#
# Mechanical properties :
#
#
# Convention : Reuss Voigt Hill
#
# Bulk Modulus (GPa) = 16.52415 26.26593 21.39504
# Shear Modulus (GPa) = 16.18618 27.71526 21.95072
#
# Velocity S-wave (km/s) = 2.67684 3.50276 3.11728
# Velocity P-wave (km/s) = 4.10720 5.29026 4.73582
#
# Compressibility (1/GPa) = 0.06051749
#
# Stress axis : x y z
#
# Youngs Moduli (GPa) = 112.17061 31.22259 117.96621
#
# Poissons Ratio (x) = -0.11682 0.00944
# Poissons Ratio (y) = -0.41970 -0.22262
# Poissons Ratio (z) = 0.00898 -0.05892
#
# Static dielectric constant tensor:
#      x y z
#    x 1.990830 0.000000 0.000000 
#    y 0.000000 1.849560 0.000000 
#    z 0.000000 0.000000 1.537630 
# 
# From -- ./inp_files/16080.got.cif
#   From: 2010.05.17/outbox.cif.g08.bks.cpg/sg60_9_cif.got.tgz:16080.got - 2010.06.03 14:59:27.
