data_PCOD9455252
_publ_section_title
;
Structure prediction by ZEFSAII (Michael W. Deem and Ramdas Pophale) SiO2 
 PCOD9455252
Probable space group: P B C N
;
_chemical_formula_sum "Si O2"
_cell_formula_units_Z 64
_cell_length_a 8.813602
_cell_length_b 15.567072
_cell_length_c 22.411363
_cell_angle_alpha 90.000000
_cell_angle_beta 90.000000
_cell_angle_gamma 90.000000
_cell_volume 3074.883309
_symmetry_space_group_name_H-M "P B C N"
_symmetry_group_IT_number 60
_symmetry_cell_setting 'orthorhombic'
loop_
_space_group_symop_operation_xyz
x,y,z
1/2-x,1/2-y,1/2+z
1/2+x,1/2-y,-z
-x,y,1/2-z
-x,-y,-z
1/2+x,1/2+y,1/2-z
1/2-x,1/2+y,z
x,-y,1/2+z
loop_
_atom_site_type_symbol
_atom_site_label
_atom_site_fract_x
_atom_site_fract_y
_atom_site_fract_z
Si Si1 0.073231 0.611493 0.374527
Si Si2 0.623351 0.806810 0.297917
Si Si3 0.820668 0.335277 0.742826
Si Si4 0.667503 0.838007 0.966102
Si Si5 0.354480 0.493697 0.066454
Si Si6 0.037062 0.734679 0.566459
Si Si7 0.322660 0.998657 0.186891
Si Si8 0.150286 0.094167 0.452305
O O1 0.184658 0.661624 0.328772
O O2 0.186484 0.578032 0.424656
O O3 0.942041 0.665807 0.407788
O O4 0.981061 0.536120 0.340294
O O5 0.500000 0.776653 0.250000
O O6 0.758057 0.742479 0.281498
O O7 0.571155 0.798055 0.366667
O O8 0.656796 0.906186 0.284283
O O9 0.764047 0.425524 0.770265
O O10 0.000000 0.333761 0.750000
O O11 0.754396 0.929278 0.962598
O O12 0.804056 0.768862 0.961840
O O13 0.557168 0.827986 0.022864
O O14 0.290405 0.484300 0.132072
O O15 0.529153 0.521751 0.066495
O O16 0.339097 0.412157 0.023868
O O17 0.927722 0.818012 0.568265
#
# Coordination Sequence:
#
# PCOD9455252 Si02
#       8
#     8   8   8   8   8   8   8   8
#     4  10  20  37  67  87 120 166 211 255 321 386
#     4  12  25  41  66  95 126 167 220 265 318 389
#     4  10  21  44  64  87 124 167 206 259 320 377
#     4  10  22  38  61  95 124 167 209 262 334 381
#     4   9  21  39  58  88 124 163 206 255 320 382
#     4  11  23  38  60  93 131 164 211 273 320 385
#     4  10  23  41  64  91 127 166 210 265 319 378
#     4  10  20  37  60  90 123 162 207 260 318 381
#
# _framework density 20.813800000000001
#
# number of rings (size 3 to 8) (size 9 to 14) (size 15 to 20)
#    0.000    1.750    0.000    5.625    5.250    1.000 
#    0.000    3.125    0.000    0.000    0.000    0.000 
#    0.000    0.000    0.000    0.000    0.000    0.000 
#
# Total GULP energy -357070.611927 kJ/mol
# GULP energy per Si atom -5579.228311 kJ/mol
# Density = 2.076643 g / cm^3
# Si number density = 20.813800 Si / 1000 Ang^3
#
#
#
# Elastic Constant Matrix: (Units=GPa)
#
#
# Indices 1 2 3 4 5 6 
#
# 1 83.4572 11.2300 32.4881 0.0000 0.0000 0.0000
# 2 11.2300 52.1647 -7.4153 0.0000 0.0000 0.0000
# 3 32.4881 -7.4153 67.3114 0.0000 0.0000 0.0000
# 4 0.0000 0.0000 0.0000 14.3667 0.0000 0.0000
# 5 0.0000 0.0000 0.0000 0.0000 34.1751 0.0000
# 6 0.0000 0.0000 0.0000 0.0000 0.0000 12.5840
#
#
#
# Elastic Compliance Matrix: (Units=1/GPa)
#
#
# Indices 1 2 3 4 5 6 
#
# 1 0.015747 -0.004541 -0.008100 0.000000 0.000000 0.000000
# 2 -0.004541 0.020785 0.004482 0.000000 0.000000 0.000000
# 3 -0.008100 0.004482 0.019260 0.000000 0.000000 0.000000
# 4 0.000000 0.000000 0.000000 0.069605 0.000000 0.000000
# 5 0.000000 0.000000 0.000000 0.000000 0.029261 0.000000
# 6 0.000000 0.000000 0.000000 0.000000 0.000000 0.079466
#
#
# Mechanical properties :
#
#
# Convention : Reuss Voigt Hill
#
# Bulk Modulus (GPa) = 25.33520 30.61542 27.97531
# Shear Modulus (GPa) = 18.96808 23.33388 21.15098
#
# Velocity S-wave (km/s) = 3.02209 3.35188 3.19125
# Velocity P-wave (km/s) = 4.93721 5.45172 5.20083
#
# Compressibility (1/GPa) = 0.03947078
#
# Stress axis : x y z
#
# Youngs Moduli (GPa) = 63.50574 48.11204 51.92173
#
# Poissons Ratio (x) = 0.21850 0.42059
# Poissons Ratio (y) = 0.28841 -0.23270
# Poissons Ratio (z) = 0.51443 -0.21562
#
# Static dielectric constant tensor:
#      x y z
#    x 1.755280 0.000000 0.000000 
#    y 0.000000 1.756840 0.000000 
#    z 0.000000 0.000000 1.927940 
# 
# From -- ./inp_files/24101.got.cif
#   From: 2010.05.17/outbox.cif.g08.bks.cpg/sg60_13_cif.got.tgz:24101.got - 2010.06.03 14:59:27.
