data_PCOD9455006
_publ_section_title
;
Structure prediction by ZEFSAII (Michael W. Deem and Ramdas Pophale) SiO2 
 PCOD9455006
Probable space group: P B C N
;
_chemical_formula_sum "Si O2"
_cell_formula_units_Z 48
_cell_length_a 18.368899
_cell_length_b 10.097553
_cell_length_c 13.436152
_cell_angle_alpha 90.000000
_cell_angle_beta 90.000000
_cell_angle_gamma 90.000000
_cell_volume 2492.149985
_symmetry_space_group_name_H-M "P B C N"
_symmetry_group_IT_number 60
_symmetry_cell_setting 'orthorhombic'
loop_
_space_group_symop_operation_xyz
x,y,z
1/2-x,1/2-y,1/2+z
1/2+x,1/2-y,-z
-x,y,1/2-z
-x,-y,-z
1/2+x,1/2+y,1/2-z
1/2-x,1/2+y,z
x,-y,1/2+z
loop_
_atom_site_type_symbol
_atom_site_label
_atom_site_fract_x
_atom_site_fract_y
_atom_site_fract_z
Si Si1 0.123368 0.477218 0.515111
Si Si2 0.364081 0.300251 0.090523
Si Si3 0.489129 0.037311 0.862307
Si Si4 0.321232 0.635582 0.816451
Si Si5 0.522078 0.283304 0.138225
Si Si6 0.258394 0.619652 0.414300
O O1 0.146750 0.359137 0.587594
O O2 0.079875 0.410183 0.422653
O O3 0.188136 0.561639 0.471616
O O4 0.062238 0.559861 0.574537
O O5 0.338093 0.348519 0.199056
O O6 0.450850 0.324855 0.076625
O O7 0.317626 0.354384 0.999605
O O8 0.500000 0.082284 0.750000
O O9 0.475691 0.877518 0.861869
O O10 0.397539 0.659666 0.876020
O O11 0.266354 0.749046 0.855795
O O12 0.288163 0.493423 0.841369
O O13 0.500000 0.321783 0.250000
#
# Coordination Sequence:
#
# PCOD9455006 Si02
#       6
#     8   8   8   8   8   8
#     4  10  20  34  58  91 123 155 202 255 302 360
#     4  10  23  41  63  88 124 161 207 256 304 370
#     4   9  17  32  60  88 121 158 207 252 297 357
#     4  11  24  40  65  87 124 163 205 249 315 366
#     4   8  16  36  60  85 112 165 201 239 300 366
#     4  12  24  39  59  96 121 161 202 256 311 372
#
# _framework density 19.260479
#
# number of rings (size 3 to 8) (size 9 to 14) (size 15 to 20)
#    0.000    2.000    3.333    1.000    2.333    0.667 
#    0.000    0.000    0.000    1.000    0.000    0.000 
#    0.000    0.000    0.000    0.000    0.000    0.000 
#
# Total GULP energy -267639.944435 kJ/mol
# GULP energy per Si atom -5575.832176 kJ/mol
# Density = 1.921664 g / cm^3
# Si number density = 19.260479 Si / 1000 Ang^3
#
#
#
# Elastic Constant Matrix: (Units=GPa)
#
#
# Indices 1 2 3 4 5 6 
#
# 1 93.4652 36.6702 40.4544 0.0000 0.0000 0.0000
# 2 36.6702 52.0483 25.0901 0.0000 0.0000 0.0000
# 3 40.4544 25.0901 95.8751 0.0000 0.0000 0.0000
# 4 0.0000 0.0000 0.0000 14.5795 0.0000 0.0000
# 5 0.0000 0.0000 0.0000 0.0000 29.1907 0.0000
# 6 0.0000 0.0000 0.0000 0.0000 0.0000 2.8066
#
#
#
# Elastic Compliance Matrix: (Units=1/GPa)
#
#
# Indices 1 2 3 4 5 6 
#
# 1 0.016277 -0.009335 -0.004425 0.000000 0.000000 0.000000
# 2 -0.009335 0.027340 -0.003216 0.000000 0.000000 0.000000
# 3 -0.004425 -0.003216 0.013139 0.000000 0.000000 0.000000
# 4 0.000000 0.000000 0.000000 0.068589 0.000000 0.000000
# 5 0.000000 0.000000 0.000000 0.000000 0.034258 0.000000
# 6 0.000000 0.000000 0.000000 0.000000 0.000000 0.356302
#
#
# Mechanical properties :
#
#
# Convention : Reuss Voigt Hill
#
# Bulk Modulus (GPa) = 43.85152 49.53532 46.69342
# Shear Modulus (GPa) = 8.96929 18.59362 13.78146
#
# Velocity S-wave (km/s) = 2.16031 3.11042 2.67784
# Velocity P-wave (km/s) = 5.38884 6.21885 5.81867
#
# Compressibility (1/GPa) = 0.02280423
#
# Stress axis : x y z
#
# Youngs Moduli (GPa) = 61.43700 36.57677 76.10898
#
# Poissons Ratio (x) = 0.34143 0.33680
# Poissons Ratio (y) = 0.57349 0.24477
# Poissons Ratio (z) = 0.27187 0.11763
#
# Static dielectric constant tensor:
#      x y z
#    x 1.711220 0.000000 0.000000 
#    y 0.000000 1.667030 0.000000 
#    z 0.000000 0.000000 1.686420 
# 
# From -- ./inp_files/16756.got.cif
#   From: 2010.05.17/outbox.cif.g08.bks.cpg/sg60_9_cif.got.tgz:16756.got - 2010.06.03 14:59:27.
