data_PCOD9455315
_publ_section_title
;
Structure prediction by ZEFSAII (Michael W. Deem and Ramdas Pophale) SiO2 
 PCOD9455315
Probable space group: P B C N
;
_chemical_formula_sum "Si O2"
_cell_formula_units_Z 48
_cell_length_a 10.794772
_cell_length_b 16.997071
_cell_length_c 10.417856
_cell_angle_alpha 90.000000
_cell_angle_beta 90.000000
_cell_angle_gamma 90.000000
_cell_volume 1911.463074
_symmetry_space_group_name_H-M "P B C N"
_symmetry_group_IT_number 60
_symmetry_cell_setting 'orthorhombic'
loop_
_space_group_symop_operation_xyz
x,y,z
1/2-x,1/2-y,1/2+z
1/2+x,1/2-y,-z
-x,y,1/2-z
-x,-y,-z
1/2+x,1/2+y,1/2-z
1/2-x,1/2+y,z
x,-y,1/2+z
loop_
_atom_site_type_symbol
_atom_site_label
_atom_site_fract_x
_atom_site_fract_y
_atom_site_fract_z
Si Si1 0.136736 0.256327 0.153213
Si Si2 0.538320 0.388054 0.610638
Si Si3 0.847039 0.564412 0.777379
Si Si4 0.672314 0.054944 0.069683
Si Si5 0.407668 0.608718 0.855219
Si Si6 0.821739 0.721450 0.121518
O O1 0.015607 0.203815 0.118754
O O2 0.109592 0.346525 0.190776
O O3 0.218882 0.218965 0.266925
O O4 0.222461 0.259803 0.024872
O O5 0.500000 0.417115 0.750000
O O6 0.680683 0.416683 0.587090
O O7 0.451778 0.417157 0.494606
O O8 0.895153 0.505296 0.667215
O O9 0.721708 0.581083 0.698221
O O10 0.833968 0.529288 0.920667
O O11 0.609806 0.139147 0.102256
O O12 0.500000 0.580117 0.750000
O O13 0.403939 0.703192 0.849797
#
# Coordination Sequence:
#
# PCOD9455315 Si02
#       6
#     8   8   8   8   8   8
#     4   9  19  37  54  79 111 155 192 234 279 351
#     4  11  21  33  57  85 114 146 200 238 286 342
#     4  10  23  37  57  81 126 152 190 231 300 349
#     4  11  22  37  54  89 116 156 187 242 292 355
#     4  10  20  38  54  82 115 151 188 244 283 344
#     4   9  19  34  57  76 110 148 201 228 284 342
#
# _framework density 25.111654000000001
#
# number of rings (size 3 to 8) (size 9 to 14) (size 15 to 20)
#    0.000    2.000    3.333    0.000    2.333    2.667 
#    0.000    0.000    0.000    1.000    0.000    7.000 
#    0.000    0.000    0.000    0.000    0.000    0.000 
#
# Total GULP energy -267221.025490 kJ/mol
# GULP energy per Si atom -5567.104698 kJ/mol
# Density = 2.505450 g / cm^3
# Si number density = 25.111654 Si / 1000 Ang^3
#
#
#
# Elastic Constant Matrix: (Units=GPa)
#
#
# Indices 1 2 3 4 5 6 
#
# 1 77.9979 7.0687 56.3594 0.0000 0.0000 0.0000
# 2 7.0687 126.2095 25.3406 0.0000 0.0000 0.0000
# 3 56.3594 25.3406 232.6314 0.0000 0.0000 0.0000
# 4 0.0000 0.0000 0.0000 21.6282 0.0000 0.0000
# 5 0.0000 0.0000 0.0000 0.0000 27.8954 0.0000
# 6 0.0000 0.0000 0.0000 0.0000 0.0000 -99.1859
#
#
#
# Elastic Compliance Matrix: (Units=1/GPa)
#
#
# Indices 1 2 3 4 5 6 
#
# 1 0.015543 -0.000117 -0.003753 0.000000 0.000000 0.000000
# 2 -0.000117 0.008101 -0.000854 0.000000 0.000000 0.000000
# 3 -0.003753 -0.000854 0.005301 0.000000 0.000000 0.000000
# 4 0.000000 0.000000 0.000000 0.046236 0.000000 0.000000
# 5 0.000000 0.000000 0.000000 0.000000 0.035848 0.000000
# 6 0.000000 0.000000 0.000000 0.000000 0.000000 -0.010082
#
#
# Mechanical properties :
#
#
# Convention : Reuss Voigt Hill
#
# Bulk Modulus (GPa) = 51.28892 68.26403 59.77648
# Shear Modulus (GPa) = 42.77348 13.27221 28.02285
#
# Velocity S-wave (km/s) = 4.13162 2.30147 3.34418
# Velocity P-wave (km/s) = 6.57488 5.85709 6.22634
#
# Compressibility (1/GPa) = 0.01949739
#
# Stress axis : x y z
#
# Youngs Moduli (GPa) = 64.33674 123.43573 188.64728
#
# Poissons Ratio (x) = 0.01444 0.70797
# Poissons Ratio (y) = 0.00753 0.16113
# Poissons Ratio (z) = 0.24145 0.10543
#
# Static dielectric constant tensor:
#      x y z
#    x 2.587220 0.000000 0.000000 
#    y 0.000000 2.105440 0.000000 
#    z 0.000000 0.000000 2.099640 
# 
# From -- ./inp_files/5907.got.cif
#   From: 2010.05.17/outbox.cif.g08.bks.cpg/sg60_3_cif.got.tgz:5907.got - 2010.06.03 14:59:27.
