data_PCOD9455830
_publ_section_title
;
Structure prediction by ZEFSAII (Michael W. Deem and Ramdas Pophale) SiO2 
 PCOD9455830
Probable space group: P B C N
;
_chemical_formula_sum "Si O2"
_cell_formula_units_Z 64
_cell_length_a 10.780466
_cell_length_b 15.766988
_cell_length_c 16.838479
_cell_angle_alpha 90.000000
_cell_angle_beta 90.000000
_cell_angle_gamma 90.000000
_cell_volume 2862.128518
_symmetry_space_group_name_H-M "P B C N"
_symmetry_group_IT_number 60
_symmetry_cell_setting 'orthorhombic'
loop_
_space_group_symop_operation_xyz
x,y,z
1/2-x,1/2-y,1/2+z
1/2+x,1/2-y,-z
-x,y,1/2-z
-x,-y,-z
1/2+x,1/2+y,1/2-z
1/2-x,1/2+y,z
x,-y,1/2+z
loop_
_atom_site_type_symbol
_atom_site_label
_atom_site_fract_x
_atom_site_fract_y
_atom_site_fract_z
Si Si1 0.752954 0.796793 0.857326
Si Si2 0.341428 0.137307 0.539686
Si Si3 0.487464 0.502181 0.407533
Si Si4 0.148026 0.064865 0.777013
Si Si5 0.405344 0.325728 0.940283
Si Si6 0.743573 0.241165 0.687140
Si Si7 0.984250 0.272977 0.580275
Si Si8 0.747898 0.009524 0.361801
O O1 0.824460 0.722852 0.905988
O O2 0.787185 0.796888 0.764505
O O3 0.607680 0.775490 0.868169
O O4 0.755987 0.893635 0.888968
O O5 0.219489 0.138745 0.482622
O O6 0.454700 0.148443 0.478420
O O7 0.345428 0.053524 0.594103
O O8 0.500000 0.500000 0.500000
O O9 0.372390 0.454824 0.369647
O O10 0.467080 0.601140 0.387349
O O11 0.619012 0.467300 0.380228
O O12 0.221927 0.151936 0.772683
O O13 0.000000 0.066114 0.750000
O O14 0.238554 0.998048 0.733299
O O15 0.361874 0.251300 0.880402
O O16 0.492011 0.299681 0.014036
O O17 0.869080 0.263081 0.638938
#
# Coordination Sequence:
#
# PCOD9455830 Si02
#       8
#     8   8   8   8   8   8   8   8
#     4  11  22  38  65  88 121 169 205 254 312 363
#     4  10  21  40  59  89 126 157 205 261 300 376
#     4  11  20  34  61  91 121 149 198 262 312 367
#     4  10  21  35  59  91 121 159 202 251 308 365
#     4  10  21  38  58  96 121 157 202 257 319 364
#     4  11  21  38  65  88 122 161 206 253 304 376
#     4  10  22  38  63  87 123 164 207 246 312 374
#     4  11  22  38  61  90 121 162 206 254 311 364
#
# _framework density 22.360982
#
# number of rings (size 3 to 8) (size 9 to 14) (size 15 to 20)
#    0.000    1.500    2.500    3.375    3.500    2.500 
#    0.000    1.875    5.500    0.000    0.000    0.000 
#    0.000    0.000    0.000    0.000    0.000    0.000 
#
# Total GULP energy -356321.742255 kJ/mol
# GULP energy per Si atom -5567.527223 kJ/mol
# Density = 2.231009 g / cm^3
# Si number density = 22.360982 Si / 1000 Ang^3
#
#
#
# Elastic Constant Matrix: (Units=GPa)
#
#
# Indices 1 2 3 4 5 6 
#
# 1 16.0735 -17.1857 5.0776 0.0000 0.0000 0.0000
# 2 -17.1857 74.2901 -13.8562 0.0000 0.0000 0.0000
# 3 5.0776 -13.8562 60.3751 0.0000 0.0000 0.0000
# 4 0.0000 0.0000 0.0000 29.9926 0.0000 0.0000
# 5 0.0000 0.0000 0.0000 0.0000 19.9130 0.0000
# 6 0.0000 0.0000 0.0000 0.0000 0.0000 17.0044
#
#
#
# Elastic Compliance Matrix: (Units=1/GPa)
#
#
# Indices 1 2 3 4 5 6 
#
# 1 0.083076 0.018716 -0.002691 0.000000 0.000000 0.000000
# 2 0.018716 0.018279 0.002621 0.000000 0.000000 0.000000
# 3 -0.002691 0.002621 0.017391 0.000000 0.000000 0.000000
# 4 0.000000 0.000000 0.000000 0.033342 0.000000 0.000000
# 5 0.000000 0.000000 0.000000 0.000000 0.050218 0.000000
# 6 0.000000 0.000000 0.000000 0.000000 0.000000 0.058808
#
#
# Mechanical properties :
#
#
# Convention : Reuss Voigt Hill
#
# Bulk Modulus (GPa) = 6.40870 10.97889 8.69380
# Shear Modulus (GPa) = 18.12677 25.16221 21.64449
#
# Velocity S-wave (km/s) = 2.85027 3.35815 3.11458
# Velocity P-wave (km/s) = 3.70193 4.46729 4.10250
#
# Compressibility (1/GPa) = 0.15603780
#
# Stress axis : x y z
#
# Youngs Moduli (GPa) = 12.03721 54.70679 57.50095
#
# Poissons Ratio (x) = -1.02390 0.15476
# Poissons Ratio (y) = -0.22529 -0.15071
# Poissons Ratio (z) = 0.03240 -0.14339
#
# Static dielectric constant tensor:
#      x y z
#    x 1.850210 0.000000 0.000000 
#    y 0.000000 1.938880 0.000000 
#    z 0.000000 0.000000 2.241310 
# 
# From -- ./inp_files/16372.got.cif
#   From: 2010.05.17/outbox.cif.g08.bks.cpg/sg60_9_cif.got.tgz:16372.got - 2010.06.03 14:59:27.
