data_PCOD9455076
_publ_section_title
;
Structure prediction by ZEFSAII (Michael W. Deem and Ramdas Pophale) SiO2 
 PCOD9455076
Probable space group: P B C N
;
_chemical_formula_sum "Si O2"
_cell_formula_units_Z 56
_cell_length_a 14.113631
_cell_length_b 19.192459
_cell_length_c 8.763439
_cell_angle_alpha 90.000000
_cell_angle_beta 90.000000
_cell_angle_gamma 90.000000
_cell_volume 2373.799031
_symmetry_space_group_name_H-M "P B C N"
_symmetry_group_IT_number 60
_symmetry_cell_setting 'orthorhombic'
loop_
_space_group_symop_operation_xyz
x,y,z
1/2-x,1/2-y,1/2+z
1/2+x,1/2-y,-z
-x,y,1/2-z
-x,-y,-z
1/2+x,1/2+y,1/2-z
1/2-x,1/2+y,z
x,-y,1/2+z
loop_
_atom_site_type_symbol
_atom_site_label
_atom_site_fract_x
_atom_site_fract_y
_atom_site_fract_z
Si Si1 0.855741 0.379808 0.881343
Si Si2 0.282887 0.300904 0.814963
Si Si3 0.732186 0.582679 0.943508
Si Si4 0.550369 0.643201 0.396811
Si Si5 0.430536 0.024516 0.630603
Si Si6 0.185072 0.060014 0.906034
Si Si7 0.558367 0.783468 0.097510
O O1 0.814957 0.321851 0.765280
O O2 0.886102 0.452233 0.802453
O O3 0.775227 0.407170 0.001341
O O4 0.940785 0.342946 0.971891
O O5 0.357452 0.324575 0.685494
O O6 0.329489 0.227815 0.861956
O O7 0.286091 0.346100 0.968941
O O8 0.844139 0.570866 0.922654
O O9 0.691638 0.574531 0.773363
O O10 0.692094 0.521468 0.052152
O O11 0.500000 0.608040 0.250000
O O12 0.589428 0.592593 0.524537
O O13 0.486048 0.708264 0.452257
O O14 0.500000 0.058660 0.750000
O O15 0.500000 0.000000 0.500000
O O16 0.500000 0.797416 0.250000
#
# Coordination Sequence:
#
# PCOD9455076 Si02
#       7
#     8   8   8   8   8   8   8
#     4  10  20  37  59  83 114 158 198 235 295 361
#     4   9  19  38  60  84 116 155 197 243 293 355
#     4  11  21  38  61  87 119 154 198 247 299 367
#     4   8  17  38  60  83 121 154 191 252 301 345
#     4  11  22  37  55  83 118 150 187 240 296 348
#     4  10  20  35  60  87 116 155 198 242 299 366
#     4   9  20  39  61  87 120 154 195 251 297 344
#
# _framework density 23.590876999999999
#
# number of rings (size 3 to 8) (size 9 to 14) (size 15 to 20)
#    0.000    2.571    0.000    5.143    0.000    2.857 
#    0.000   17.857    0.000    3.429    0.000    0.000 
#    0.000    0.000    0.000    0.000    0.000    0.000 
#
# Total GULP energy -312693.999373 kJ/mol
# GULP energy per Si atom -5583.821417 kJ/mol
# Density = 2.353718 g / cm^3
# Si number density = 23.590877 Si / 1000 Ang^3
#
#
#
# Elastic Constant Matrix: (Units=GPa)
#
#
# Indices 1 2 3 4 5 6 
#
# 1 69.8244 37.4720 7.2825 0.0000 0.0000 0.0000
# 2 37.4720 67.8015 22.1516 0.0000 0.0000 0.0000
# 3 7.2825 22.1516 86.0937 0.0000 0.0000 0.0000
# 4 0.0000 0.0000 0.0000 18.7939 0.0000 0.0000
# 5 0.0000 0.0000 0.0000 0.0000 35.6084 0.0000
# 6 0.0000 0.0000 0.0000 0.0000 0.0000 11.0893
#
#
#
# Elastic Compliance Matrix: (Units=1/GPa)
#
#
# Indices 1 2 3 4 5 6 
#
# 1 0.020491 -0.011746 0.001289 0.000000 0.000000 0.000000
# 2 -0.011746 0.022835 -0.004882 0.000000 0.000000 0.000000
# 3 0.001289 -0.004882 0.012762 0.000000 0.000000 0.000000
# 4 0.000000 0.000000 0.000000 0.053209 0.000000 0.000000
# 5 0.000000 0.000000 0.000000 0.000000 0.028083 0.000000
# 6 0.000000 0.000000 0.000000 0.000000 0.000000 0.090177
#
#
# Mechanical properties :
#
#
# Convention : Reuss Voigt Hill
#
# Bulk Modulus (GPa) = 39.35318 39.72574 39.53946
# Shear Modulus (GPa) = 18.74730 23.55257 21.14994
#
# Velocity S-wave (km/s) = 2.82207 3.16314 2.99746
# Velocity P-wave (km/s) = 5.22844 5.49696 5.36438
#
# Compressibility (1/GPa) = 0.02541091
#
# Stress axis : x y z
#
# Youngs Moduli (GPa) = 48.80269 43.79160 78.35565
#
# Poissons Ratio (x) = 0.51436 -0.10099
# Poissons Ratio (y) = 0.57322 0.38253
# Poissons Ratio (z) = -0.06290 0.21379
#
# Static dielectric constant tensor:
#      x y z
#    x 1.954690 0.000000 0.000000 
#    y 0.000000 1.940580 0.000000 
#    z 0.000000 0.000000 1.832410 
# 
# From -- ./inp_files/6179.got.cif
#   From: 2010.05.17/outbox.cif.g08.bks.cpg/sg60_4_cif.got.tgz:6179.got - 2010.06.03 14:59:27.
