data_PCOD9455725
_publ_section_title
;
Structure prediction by ZEFSAII (Michael W. Deem and Ramdas Pophale) SiO2 
 PCOD9455725
Probable space group: P B C N
;
_chemical_formula_sum "Si O2"
_cell_formula_units_Z 56
_cell_length_a 29.323675
_cell_length_b 5.446025
_cell_length_c 13.746818
_cell_angle_alpha 90.000000
_cell_angle_beta 90.000000
_cell_angle_gamma 90.000000
_cell_volume 2195.332016
_symmetry_space_group_name_H-M "P B C N"
_symmetry_group_IT_number 60
_symmetry_cell_setting 'orthorhombic'
loop_
_space_group_symop_operation_xyz
x,y,z
1/2-x,1/2-y,1/2+z
1/2+x,1/2-y,-z
-x,y,1/2-z
-x,-y,-z
1/2+x,1/2+y,1/2-z
1/2-x,1/2+y,z
x,-y,1/2+z
loop_
_atom_site_type_symbol
_atom_site_label
_atom_site_fract_x
_atom_site_fract_y
_atom_site_fract_z
Si Si1 0.307132 0.055985 0.140495
Si Si2 0.206143 0.052366 0.066793
Si Si3 0.559764 0.973769 0.078620
Si Si4 0.636247 0.234913 0.717923
Si Si5 0.500000 0.500000 0.000000
Si Si6 0.500000 0.919550 0.750000
Si Si7 0.724875 0.516243 0.155570
Si Si8 0.065005 0.760378 0.622070
O O1 0.251768 0.066665 0.133309
O O2 0.316719 0.817679 0.072785
O O3 0.333366 0.987240 0.238372
O O4 0.322360 0.317343 0.100020
O O5 0.223386 0.992002 0.960582
O O6 0.603457 0.856921 0.132091
O O7 0.533097 0.157550 0.156147
O O8 0.526079 0.751670 0.046921
O O9 0.572764 0.130646 0.983045
O O10 0.673347 0.435816 0.688210
O O11 0.606181 0.327433 0.807767
O O12 0.536208 0.494999 0.909476
O O13 0.536589 0.079395 0.808915
O O14 0.746440 0.257559 0.183561
#
# Coordination Sequence:
#
# PCOD9455725 Si02
#       8
#     8   8   8   8   4   4   8   8
#     4  10  21  41  67  98 140 187 248 311 366 437
#     4  10  20  42  72  95 131 203 253 304 376 439
#     4  10  22  45  70 105 147 188 240 311 385 470
#     4  11  28  43  67 112 153 189 266 325 378 464
#     4  10  20  44  78  94 134 196 234 298 398 480
#     4   8  16  38  70 100 132 178 234 294 366 472
#     4  12  25  48  73 106 150 209 265 319 384 455
#     4  10  22  45  70 104 148 188 239 312 386 469
#
# _framework density 25.508672000000001
#
# number of rings (size 3 to 8) (size 9 to 14) (size 15 to 20)
#    0.000    1.714    2.857    1.714    6.000    1.143 
#    7.714   24.286    0.000    0.000    0.000    0.000 
#    0.000    0.000    0.000    0.000    0.000    0.000 
#
# Total GULP energy -311877.234314 kJ/mol
# GULP energy per Si atom -5569.236327 kJ/mol
# Density = 2.545061 g / cm^3
# Si number density = 25.508672 Si / 1000 Ang^3
#
#
#
# Elastic Constant Matrix: (Units=GPa)
#
#
# Indices 1 2 3 4 5 6 
#
# 1 124.0722 42.3409 66.4281 0.0000 0.0000 0.0000
# 2 42.3409 149.1860 61.6701 0.0000 0.0000 0.0000
# 3 66.4281 61.6701 184.0834 0.0000 0.0000 0.0000
# 4 0.0000 0.0000 0.0000 10.2877 0.0000 0.0000
# 5 0.0000 0.0000 0.0000 0.0000 57.9010 0.0000
# 6 0.0000 0.0000 0.0000 0.0000 0.0000 20.0743
#
#
#
# Elastic Compliance Matrix: (Units=1/GPa)
#
#
# Indices 1 2 3 4 5 6 
#
# 1 0.010313 -0.001612 -0.003182 0.000000 0.000000 0.000000
# 2 -0.001612 0.008032 -0.002109 0.000000 0.000000 0.000000
# 3 -0.003182 -0.002109 0.007287 0.000000 0.000000 0.000000
# 4 0.000000 0.000000 0.000000 0.097203 0.000000 0.000000
# 5 0.000000 0.000000 0.000000 0.000000 0.017271 0.000000
# 6 0.000000 0.000000 0.000000 0.000000 0.000000 0.049815
#
#
# Mechanical properties :
#
#
# Convention : Reuss Voigt Hill
#
# Bulk Modulus (GPa) = 84.55059 88.69109 86.62084
# Shear Modulus (GPa) = 24.07667 36.77945 30.42806
#
# Velocity S-wave (km/s) = 3.07557 3.80128 3.45752
# Velocity P-wave (km/s) = 6.76978 7.35600 7.06897
#
# Compressibility (1/GPa) = 0.01182724
#
# Stress axis : x y z
#
# Youngs Moduli (GPa) = 96.96174 124.49512 137.22864
#
# Poissons Ratio (x) = 0.20066 0.43662
# Poissons Ratio (y) = 0.15629 0.28946
# Poissons Ratio (z) = 0.30850 0.26260
#
# Static dielectric constant tensor:
#      x y z
#    x 2.120190 0.000000 0.000000 
#    y 0.000000 2.186140 0.000000 
#    z 0.000000 0.000000 2.192960 
# 
# From -- ./inp_files/18201.got.cif
#   From: 2010.05.17/outbox.cif.g08.bks.cpg/sg60_10_cif.got.tgz:18201.got - 2010.06.03 14:59:27.
