data_PCOD9455503
_publ_section_title
;
Structure prediction by ZEFSAII (Michael W. Deem and Ramdas Pophale) SiO2 
 PCOD9455503
Probable space group: P B C N
;
_chemical_formula_sum "Si O2"
_cell_formula_units_Z 56
_cell_length_a 7.062226
_cell_length_b 15.496802
_cell_length_c 22.296380
_cell_angle_alpha 90.000000
_cell_angle_beta 90.000000
_cell_angle_gamma 90.000000
_cell_volume 2440.158592
_symmetry_space_group_name_H-M "P B C N"
_symmetry_group_IT_number 60
_symmetry_cell_setting 'orthorhombic'
loop_
_space_group_symop_operation_xyz
x,y,z
1/2-x,1/2-y,1/2+z
1/2+x,1/2-y,-z
-x,y,1/2-z
-x,-y,-z
1/2+x,1/2+y,1/2-z
1/2-x,1/2+y,z
x,-y,1/2+z
loop_
_atom_site_type_symbol
_atom_site_label
_atom_site_fract_x
_atom_site_fract_y
_atom_site_fract_z
Si Si1 0.420341 0.947082 0.807994
Si Si2 0.226350 0.347412 0.429671
Si Si3 0.315233 0.899871 0.041989
Si Si4 0.107211 0.921854 0.306645
Si Si5 0.316633 0.536924 0.129760
Si Si6 0.748126 0.699148 0.437964
Si Si7 0.305710 0.840239 0.915194
O O1 0.500000 0.898605 0.750000
O O2 0.300038 0.888186 0.852458
O O3 0.302191 0.031050 0.788870
O O4 0.607212 0.971849 0.843768
O O5 0.342410 0.375074 0.370178
O O6 0.313849 0.337424 0.496526
O O7 0.182303 0.246167 0.417640
O O8 0.039778 0.405657 0.441573
O O9 0.193353 0.972803 0.073370
O O10 0.275414 0.801754 0.063459
O O11 0.268649 0.901420 0.971614
O O12 0.035885 0.998298 0.175764
O O13 0.000000 0.876436 0.250000
O O14 0.344983 0.635273 0.110160
O O15 0.974323 0.685880 0.428214
#
# Coordination Sequence:
#
# PCOD9455503 Si02
#       7
#     8   8   8   8   8   8   8
#     4  11  23  43  63  87 124 168 216 266 307 366
#     4  10  21  38  62  94 128 166 205 259 321 380
#     4  10  20  39  63  97 137 160 204 265 319 382
#     4  12  25  40  63  90 123 167 223 258 311 376
#     4  11  23  40  67  93 125 170 211 260 321 376
#     4   9  21  38  62  95 131 164 205 262 321 377
#     4   9  21  38  63  92 129 165 207 258 321 378
#
# _framework density 22.949328999999999
#
# number of rings (size 3 to 8) (size 9 to 14) (size 15 to 20)
#    0.000    1.714    2.857    0.857    4.000    4.000 
#    0.000    0.000    0.000    1.714    0.000    0.000 
#    0.000    0.000    0.000    0.000    0.000    0.000 
#
# Total GULP energy -312566.383866 kJ/mol
# GULP energy per Si atom -5581.542569 kJ/mol
# Density = 2.289710 g / cm^3
# Si number density = 22.949329 Si / 1000 Ang^3
#
#
#
# Elastic Constant Matrix: (Units=GPa)
#
#
# Indices 1 2 3 4 5 6 
#
# 1 54.5949 7.3634 -4.5307 0.0000 0.0000 0.0000
# 2 7.3634 56.4250 19.2002 0.0000 0.0000 0.0000
# 3 -4.5307 19.2002 61.2129 0.0000 0.0000 0.0000
# 4 0.0000 0.0000 0.0000 -639.3582 0.0000 0.0000
# 5 0.0000 0.0000 0.0000 0.0000 26.3554 0.0000
# 6 0.0000 0.0000 0.0000 0.0000 0.0000 33.4023
#
#
#
# Elastic Compliance Matrix: (Units=1/GPa)
#
#
# Indices 1 2 3 4 5 6 
#
# 1 0.018965 -0.003305 0.002440 0.000000 0.000000 0.000000
# 2 -0.003305 0.020416 -0.006648 0.000000 0.000000 0.000000
# 3 0.002440 -0.006648 0.018602 0.000000 0.000000 0.000000
# 4 0.000000 0.000000 0.000000 -0.001564 0.000000 0.000000
# 5 0.000000 0.000000 0.000000 0.000000 0.037943 0.000000
# 6 0.000000 0.000000 0.000000 0.000000 0.000000 0.029938
#
#
# Mechanical properties :
#
#
# Convention : Reuss Voigt Hill
#
# Bulk Modulus (GPa) = 23.27903 24.03317 23.65610
# Shear Modulus (GPa) = 32.54222 -105.90679 -36.68228
#
# Velocity S-wave (km/s) = 3.76972 -6.80061 -4.00234
# Velocity P-wave (km/s) = 5.39569 7.15328 3.32084
#
# Compressibility (1/GPa) = 0.04295711
#
# Stress axis : x y z
#
# Youngs Moduli (GPa) = 52.72850 48.98041 53.75640
#
# Poissons Ratio (x) = 0.16190 -0.13119
# Poissons Ratio (y) = 0.17429 0.35740
# Poissons Ratio (z) = -0.12868 0.32565
#
# Static dielectric constant tensor:
#      x y z
#    x 1.921330 0.000000 0.000000 
#    y 0.000000 1.847680 0.000000 
#    z 0.000000 0.000000 1.913650 
# 
# From -- ./inp_files/22205.got.cif
#   From: 2010.05.17/outbox.cif.g08.bks.cpg/sg60_12_cif.got.tgz:22205.got - 2010.06.03 14:59:27.
