data_PCOD9455112
_publ_section_title
;
Structure prediction by ZEFSAII (Michael W. Deem and Ramdas Pophale) SiO2 
 PCOD9455112
Probable space group: P B C N
;
_chemical_formula_sum "Si O2"
_cell_formula_units_Z 56
_cell_length_a 13.475126
_cell_length_b 7.185298
_cell_length_c 20.037460
_cell_angle_alpha 90.000000
_cell_angle_beta 90.000000
_cell_angle_gamma 90.000000
_cell_volume 1940.082900
_symmetry_space_group_name_H-M "P B C N"
_symmetry_group_IT_number 60
_symmetry_cell_setting 'orthorhombic'
loop_
_space_group_symop_operation_xyz
x,y,z
1/2-x,1/2-y,1/2+z
1/2+x,1/2-y,-z
-x,y,1/2-z
-x,-y,-z
1/2+x,1/2+y,1/2-z
1/2-x,1/2+y,z
x,-y,1/2+z
loop_
_atom_site_type_symbol
_atom_site_label
_atom_site_fract_x
_atom_site_fract_y
_atom_site_fract_z
Si Si1 0.865938 0.621467 0.235947
Si Si2 0.666978 0.959919 0.595869
Si Si3 0.835063 0.272894 0.397234
Si Si4 0.111563 0.130498 0.386446
Si Si5 0.131372 0.815391 0.744278
Si Si6 0.606930 0.207589 0.377734
Si Si7 0.962286 0.236073 0.505880
O O1 0.870811 0.668029 0.157571
O O2 0.748180 0.643784 0.247858
O O3 0.890863 0.404970 0.249216
O O4 0.915182 0.724856 0.298694
O O5 0.785432 0.957664 0.587092
O O6 0.592994 0.925578 0.534467
O O7 0.647905 0.160587 0.623978
O O8 0.880719 0.158030 0.335177
O O9 0.717438 0.285246 0.389608
O O10 0.882183 0.482483 0.393054
O O11 0.861709 0.175533 0.466919
O O12 0.085831 0.080014 0.309009
O O13 0.036217 0.164808 0.447304
O O14 0.528230 0.296147 0.428156
#
# Coordination Sequence:
#
# PCOD9455112 Si02
#       7
#     8   8   8   8   8   8   8
#     4   8  16  31  53  75  98 130 170 211 253 297
#     4  10  20  36  55  77 104 136 172 213 256 303
#     4  10  20  36  55  77 104 136 172 213 256 303
#     4  10  20  36  55  77 104 136 172 213 256 303
#     4   8  16  31  53  75  98 130 170 211 253 297
#     4  10  20  36  55  77 104 136 172 213 256 303
#     4  12  23  34  53  80 109 138 171 210 257 308
#
# _framework density 28.864746
#
# number of rings (size 3 to 8) (size 9 to 14) (size 15 to 20)
#    0.000    2.286    0.000    3.429    0.000    1.143 
#    0.000    7.143    0.000    0.000    0.000   20.000 
#    0.000    0.000    0.000    0.000    0.000    0.000 
#
# Total GULP energy -312032.392951 kJ/mol
# GULP energy per Si atom -5572.007017 kJ/mol
# Density = 2.879905 g / cm^3
# Si number density = 28.864746 Si / 1000 Ang^3
#
#
#
# Elastic Constant Matrix: (Units=GPa)
#
#
# Indices 1 2 3 4 5 6 
#
# 1 85.0525 12.9055 56.1727 0.0000 0.0000 0.0000
# 2 12.9055 90.7185 25.6071 0.0000 0.0000 0.0000
# 3 56.1727 25.6071 241.8523 0.0000 0.0000 0.0000
# 4 0.0000 0.0000 0.0000 33.6605 0.0000 0.0000
# 5 0.0000 0.0000 0.0000 0.0000 62.2343 0.0000
# 6 0.0000 0.0000 0.0000 0.0000 0.0000 -2.9380
#
#
#
# Elastic Compliance Matrix: (Units=1/GPa)
#
#
# Indices 1 2 3 4 5 6 
#
# 1 0.013995 -0.001106 -0.003133 0.000000 0.000000 0.000000
# 2 -0.001106 0.011450 -0.000955 0.000000 0.000000 0.000000
# 3 -0.003133 -0.000955 0.004964 0.000000 0.000000 0.000000
# 4 0.000000 0.000000 0.000000 0.029708 0.000000 0.000000
# 5 0.000000 0.000000 0.000000 0.000000 0.016068 0.000000
# 6 0.000000 0.000000 0.000000 0.000000 0.000000 -0.340372
#
#
# Mechanical properties :
#
#
# Convention : Reuss Voigt Hill
#
# Bulk Modulus (GPa) = 49.95406 67.44377 58.69891
# Shear Modulus (GPa) = -20.23273 40.12057 9.94392
#
# Velocity S-wave (km/s) = -2.65042 3.73225 1.85809
# Velocity P-wave (km/s) = 2.82445 6.47990 4.99833
#
# Compressibility (1/GPa) = 0.02001839
#
# Stress axis : x y z
#
# Youngs Moduli (GPa) = 71.45571 87.33491 201.46505
#
# Poissons Ratio (x) = 0.09663 0.63124
# Poissons Ratio (y) = 0.07906 0.19247
# Poissons Ratio (z) = 0.22389 0.08344
#
# Static dielectric constant tensor:
#      x y z
#    x 2.176020 0.000000 0.000000 
#    y 0.000000 2.660600 0.000000 
#    z 0.000000 0.000000 2.308750 
# 
# From -- ./inp_files/22911.got.cif
#   From: 2010.05.17/outbox.cif.g08.bks.cpg/sg60_12_cif.got.tgz:22911.got - 2010.06.03 14:59:27.
