data_PCOD9455113
_publ_section_title
;
Structure prediction by ZEFSAII (Michael W. Deem and Ramdas Pophale) SiO2 
 PCOD9455113
Probable space group: P B C N
;
_chemical_formula_sum "Si O2"
_cell_formula_units_Z 64
_cell_length_a 12.146790
_cell_length_b 9.740393
_cell_length_c 27.960748
_cell_angle_alpha 90.000000
_cell_angle_beta 90.000000
_cell_angle_gamma 90.000000
_cell_volume 3308.162151
_symmetry_space_group_name_H-M "P B C N"
_symmetry_group_IT_number 60
_symmetry_cell_setting 'orthorhombic'
loop_
_space_group_symop_operation_xyz
x,y,z
1/2-x,1/2-y,1/2+z
1/2+x,1/2-y,-z
-x,y,1/2-z
-x,-y,-z
1/2+x,1/2+y,1/2-z
1/2-x,1/2+y,z
x,-y,1/2+z
loop_
_atom_site_type_symbol
_atom_site_label
_atom_site_fract_x
_atom_site_fract_y
_atom_site_fract_z
Si Si1 0.611866 0.216052 0.343669
Si Si2 0.944996 0.474578 0.696612
Si Si3 0.231102 0.227252 0.235759
Si Si4 0.088051 0.693915 0.654648
Si Si5 0.188868 0.020013 0.792848
Si Si6 0.981544 0.994985 0.356025
Si Si7 0.240516 0.261528 0.068152
Si Si8 0.100734 0.002159 0.537765
O O1 0.689492 0.155530 0.302670
O O2 0.595776 0.377379 0.334027
O O3 0.670317 0.196167 0.394592
O O4 0.494988 0.148627 0.334593
O O5 0.814487 0.476379 0.697780
O O6 0.000000 0.472702 0.750000
O O7 0.981781 0.606358 0.665895
O O8 0.161419 0.326746 0.201663
O O9 0.300287 0.328650 0.269805
O O10 0.155841 0.111027 0.259919
O O11 0.155692 0.665222 0.605929
O O12 0.060019 0.853525 0.654181
O O13 0.103936 0.023229 0.836227
O O14 0.963330 0.977040 0.412253
O O15 0.309092 0.372538 0.036804
O O16 0.171367 0.140880 0.041766
O O17 0.000000 0.000000 0.500000
#
# Coordination Sequence:
#
# PCOD9455113 Si02
#       8
#     8   8   8   8   8   8   8   8
#     4  10  20  36  55  77 112 153 210 238 290 345
#     4  12  21  34  48  75 113 162 204 250 286 343
#     4  11  20  32  49  74 102 156 191 246 268 347
#     4  10  20  36  55  77 112 153 210 238 290 345
#     4  12  23  31  47  73 113 146 201 232 307 327
#     4  10  23  37  56  82 113 156 192 262 300 355
#     4   9  20  40  67  92 116 160 197 250 310 379
#     4  10  21  44  70  96 123 150 203 260 324 391
#
# _framework density 19.346091000000001
#
# number of rings (size 3 to 8) (size 9 to 14) (size 15 to 20)
#    0.000    1.500    2.500    3.000    0.000    5.000 
#    0.000    6.875    0.000    0.000    0.000    0.000 
#    0.000    0.000    0.000    0.000    0.000    0.000 
#
# Total GULP energy -356611.491229 kJ/mol
# GULP energy per Si atom -5572.054550 kJ/mol
# Density = 1.930206 g / cm^3
# Si number density = 19.346091 Si / 1000 Ang^3
#
#
#
# Elastic Constant Matrix: (Units=GPa)
#
#
# Indices 1 2 3 4 5 6 
#
# 1 95.0596 16.2050 35.4518 0.0000 0.0000 0.0000
# 2 16.2050 103.2304 29.7916 0.0000 0.0000 0.0000
# 3 35.4518 29.7916 52.7669 0.0000 0.0000 0.0000
# 4 0.0000 0.0000 0.0000 11.6308 0.0000 0.0000
# 5 0.0000 0.0000 0.0000 0.0000 39.8680 0.0000
# 6 0.0000 0.0000 0.0000 0.0000 0.0000 33.9969
#
#
#
# Elastic Compliance Matrix: (Units=1/GPa)
#
#
# Indices 1 2 3 4 5 6 
#
# 1 0.014070 0.000620 -0.009803 0.000000 0.000000 0.000000
# 2 0.000620 0.011600 -0.006966 0.000000 0.000000 0.000000
# 3 -0.009803 -0.006966 0.029471 0.000000 0.000000 0.000000
# 4 0.000000 0.000000 0.000000 0.085979 0.000000 0.000000
# 5 0.000000 0.000000 0.000000 0.000000 0.025083 0.000000
# 6 0.000000 0.000000 0.000000 0.000000 0.000000 0.029414
#
#
# Mechanical properties :
#
#
# Convention : Reuss Voigt Hill
#
# Bulk Modulus (GPa) = 43.77746 45.99483 44.88615
# Shear Modulus (GPa) = 21.22881 28.40637 24.81759
#
# Velocity S-wave (km/s) = 3.31617 3.83603 3.58554
# Velocity P-wave (km/s) = 6.11068 6.59140 6.35558
#
# Compressibility (1/GPa) = 0.02284280
#
# Stress axis : x y z
#
# Youngs Moduli (GPa) = 71.07302 86.20656 33.93197
#
# Poissons Ratio (x) = -0.05349 0.33265
# Poissons Ratio (y) = -0.04410 0.23637
# Poissons Ratio (z) = 0.69675 0.60053
#
# Static dielectric constant tensor:
#      x y z
#    x 1.724370 0.000000 0.000000 
#    y 0.000000 1.760730 0.000000 
#    z 0.000000 0.000000 1.700160 
# 
# From -- ./inp_files/26113.got.cif
#   From: 2010.05.17/outbox.cif.g08.bks.cpg/sg60_14_cif.got.tgz:26113.got - 2010.06.03 14:59:27.
