data_PCOD9455815
_publ_section_title
;
Structure prediction by ZEFSAII (Michael W. Deem and Ramdas Pophale) SiO2 
 PCOD9455815
Probable space group: P B C N
;
_chemical_formula_sum "Si O2"
_cell_formula_units_Z 40
_cell_length_a 12.649868
_cell_length_b 14.508495
_cell_length_c 9.069617
_cell_angle_alpha 90.000000
_cell_angle_beta 90.000000
_cell_angle_gamma 90.000000
_cell_volume 1664.551766
_symmetry_space_group_name_H-M "P B C N"
_symmetry_group_IT_number 60
_symmetry_cell_setting 'orthorhombic'
loop_
_space_group_symop_operation_xyz
x,y,z
1/2-x,1/2-y,1/2+z
1/2+x,1/2-y,-z
-x,y,1/2-z
-x,-y,-z
1/2+x,1/2+y,1/2-z
1/2-x,1/2+y,z
x,-y,1/2+z
loop_
_atom_site_type_symbol
_atom_site_label
_atom_site_fract_x
_atom_site_fract_y
_atom_site_fract_z
Si Si1 0.000000 0.774895 0.250000
Si Si2 0.178468 0.107903 0.864450
Si Si3 0.914932 0.615442 0.954360
Si Si4 0.000000 0.528919 0.250000
Si Si5 0.116138 0.273456 0.467903
Si Si6 0.187202 0.910637 0.020750
O O1 0.071577 0.829873 0.370707
O O2 0.910248 0.725536 0.353416
O O3 0.282665 0.167553 0.911381
O O4 0.164437 0.079454 0.693133
O O5 0.186196 0.011544 0.951604
O O6 0.915173 0.532102 0.838189
O O7 0.796947 0.647321 0.968534
O O8 0.010619 0.679223 0.908368
O O9 0.942489 0.579498 0.117450
O O10 0.120694 0.165124 0.432027
#
# Coordination Sequence:
#
# PCOD9455815 Si02
#       6
#     4   8   8   4   8   8
#     4  10  25  48  69 104 152 190 243 306 359 434
#     4  11  25  46  73 103 141 191 238 296 367 434
#     4  11  20  38  61  92 132 168 227 294 345 417
#     4  10  21  34  61  90 120 170 215 280 355 404
#     4  11  24  40  67  99 139 188 235 296 365 424
#     4  11  25  44  69 102 138 186 244 293 361 442
#
# _framework density 24.030494999999998
#
# number of rings (size 3 to 8) (size 9 to 14) (size 15 to 20)
#    0.000    1.200    0.000    6.600    0.000    9.600 
#    0.000    7.000    0.000    0.000    0.000    0.000 
#    0.000    0.000    0.000    0.000    0.000    0.000 
#
# Total GULP energy -222880.455985 kJ/mol
# GULP energy per Si atom -5572.011400 kJ/mol
# Density = 2.397580 g / cm^3
# Si number density = 24.030495 Si / 1000 Ang^3
#
#
#
# Elastic Constant Matrix: (Units=GPa)
#
#
# Indices 1 2 3 4 5 6 
#
# 1 98.6772 7.2367 9.3991 0.0000 0.0000 0.0000
# 2 7.2367 84.5889 56.9473 0.0000 0.0000 0.0000
# 3 9.3991 56.9473 114.0544 0.0000 0.0000 0.0000
# 4 0.0000 0.0000 0.0000 808.3287 0.0000 0.0000
# 5 0.0000 0.0000 0.0000 0.0000 33.5222 0.0000
# 6 0.0000 0.0000 0.0000 0.0000 0.0000 12.2513
#
#
#
# Elastic Compliance Matrix: (Units=1/GPa)
#
#
# Indices 1 2 3 4 5 6 
#
# 1 0.010226 -0.000463 -0.000611 0.000000 0.000000 0.000000
# 2 -0.000463 0.017829 -0.008864 0.000000 0.000000 0.000000
# 3 -0.000611 -0.008864 0.013244 0.000000 0.000000 0.000000
# 4 0.000000 0.000000 0.000000 0.001237 0.000000 0.000000
# 5 0.000000 0.000000 0.000000 0.000000 0.029831 0.000000
# 6 0.000000 0.000000 0.000000 0.000000 0.000000 0.081624
#
#
# Mechanical properties :
#
#
# Convention : Reuss Voigt Hill
#
# Bulk Modulus (GPa) = 46.68089 49.38739 48.03414
# Shear Modulus (GPa) = 27.62305 185.73627 106.67966
#
# Velocity S-wave (km/s) = 3.39411 8.80112 6.67007
# Velocity P-wave (km/s) = 5.90151 11.12997 8.90797
#
# Compressibility (1/GPa) = 0.02142204
#
# Stress axis : x y z
#
# Youngs Moduli (GPa) = 97.78741 56.08906 75.50708
#
# Poissons Ratio (x) = 0.02598 0.04617
# Poissons Ratio (y) = 0.04530 0.66927
# Poissons Ratio (z) = 0.05979 0.49716
#
# Static dielectric constant tensor:
#      x y z
#    x 2.118440 0.000000 0.000000 
#    y 0.000000 2.096060 0.000000 
#    z 0.000000 0.000000 1.931120 
# 
# From -- ./inp_files/5708.got.cif
#   From: 2010.05.17/outbox.cif.g08.bks.cpg/sg60_3_cif.got.tgz:5708.got - 2010.06.03 14:59:27.
