data_PCOD9455752
_publ_section_title
;
Structure prediction by ZEFSAII (Michael W. Deem and Ramdas Pophale) SiO2 
 PCOD9455752
Probable space group: P B C N
;
_chemical_formula_sum "Si O2"
_cell_formula_units_Z 48
_cell_length_a 16.714594
_cell_length_b 11.046654
_cell_length_c 9.400898
_cell_angle_alpha 90.000000
_cell_angle_beta 90.000000
_cell_angle_gamma 90.000000
_cell_volume 1735.784972
_symmetry_space_group_name_H-M "P B C N"
_symmetry_group_IT_number 60
_symmetry_cell_setting 'orthorhombic'
loop_
_space_group_symop_operation_xyz
x,y,z
1/2-x,1/2-y,1/2+z
1/2+x,1/2-y,-z
-x,y,1/2-z
-x,-y,-z
1/2+x,1/2+y,1/2-z
1/2-x,1/2+y,z
x,-y,1/2+z
loop_
_atom_site_type_symbol
_atom_site_label
_atom_site_fract_x
_atom_site_fract_y
_atom_site_fract_z
Si Si1 0.568282 0.358542 0.989974
Si Si2 0.812182 0.834568 0.210074
Si Si3 0.901514 0.244874 0.971095
Si Si4 0.000000 0.486130 0.250000
Si Si5 0.000000 0.014867 0.250000
Si Si6 0.113183 0.530906 0.503535
Si Si7 0.272470 0.603569 0.350609
O O1 0.493300 0.268924 0.987137
O O2 0.570289 0.071655 0.849199
O O3 0.568449 0.410342 0.832083
O O4 0.539441 0.448983 0.115892
O O5 0.752705 0.722942 0.238177
O O6 0.845912 0.823250 0.049158
O O7 0.886202 0.801555 0.312186
O O8 0.781621 0.972185 0.224150
O O9 0.878817 0.384695 0.986320
O O10 0.800699 0.579253 0.039229
O O11 0.847524 0.152843 0.060896
O O12 0.947104 0.553564 0.130023
#
# Coordination Sequence:
#
# PCOD9455752 Si02
#       7
#     8   8   8   4   4   8   8
#     4  11  24  46  78 113 151 209 268 327 390 472
#     4  12  28  50  79 113 164 208 263 331 400 480
#     4  12  27  47  80 115 155 212 268 328 398 477
#     4  10  26  48  84 110 164 202 280 330 402 478
#     4  10  20  44  70 112 150 192 262 328 386 452
#     4  11  26  51  78 119 155 217 266 336 401 488
#     4  12  28  51  74 117 160 209 261 327 409 481
#
# _framework density 27.653193999999999
#
# number of rings (size 3 to 8) (size 9 to 14) (size 15 to 20)
#    0.000    0.667    3.333    3.000   11.667    0.667 
#    3.000    0.000    0.000    0.000    0.000    0.000 
#    0.000    0.000    0.000    0.000    0.000    0.000 
#
# Total GULP energy -268666.260916 kJ/mol
# GULP energy per Si atom -5597.213769 kJ/mol
# Density = 2.759025 g / cm^3
# Si number density = 27.653194 Si / 1000 Ang^3
#
#
#
# Elastic Constant Matrix: (Units=GPa)
#
#
# Indices 1 2 3 4 5 6 
#
# 1 72.9845 57.7444 29.0338 0.0000 0.0000 0.0000
# 2 57.7444 226.4897 47.7162 0.0000 0.0000 0.0000
# 3 29.0338 47.7162 154.8896 0.0000 0.0000 0.0000
# 4 0.0000 0.0000 0.0000 12.8742 0.0000 0.0000
# 5 0.0000 0.0000 0.0000 0.0000 45.1337 0.0000
# 6 0.0000 0.0000 0.0000 0.0000 0.0000 31.7742
#
#
#
# Elastic Compliance Matrix: (Units=1/GPa)
#
#
# Indices 1 2 3 4 5 6 
#
# 1 0.017763 -0.004093 -0.002069 0.000000 0.000000 0.000000
# 2 -0.004093 0.005665 -0.000978 0.000000 0.000000 0.000000
# 3 -0.002069 -0.000978 0.007145 0.000000 0.000000 0.000000
# 4 0.000000 0.000000 0.000000 0.077675 0.000000 0.000000
# 5 0.000000 0.000000 0.000000 0.000000 0.022156 0.000000
# 6 0.000000 0.000000 0.000000 0.000000 0.000000 0.031472
#
#
# Mechanical properties :
#
#
# Convention : Reuss Voigt Hill
#
# Bulk Modulus (GPa) = 61.37333 80.37252 70.87293
# Shear Modulus (GPa) = 27.53514 39.28104 33.40809
#
# Velocity S-wave (km/s) = 3.15894 3.77303 3.47956
# Velocity P-wave (km/s) = 5.96216 6.93603 6.46745
#
# Compressibility (1/GPa) = 0.01629372
#
# Stress axis : x y z
#
# Youngs Moduli (GPa) = 56.29773 176.53121 139.95312
#
# Poissons Ratio (x) = 0.72251 0.28953
# Poissons Ratio (y) = 0.23042 0.13686
# Poissons Ratio (z) = 0.11646 0.17263
#
# Static dielectric constant tensor:
#      x y z
#    x 2.274370 0.000000 0.000000 
#    y 0.000000 2.292350 0.000000 
#    z 0.000000 0.000000 2.080850 
# 
# From -- ./inp_files/17650.got.cif
#   From: 2010.05.17/outbox.cif.g08.bks.cpg/sg60_9_cif.got.tgz:17650.got - 2010.06.03 14:59:27.
