data_PCOD9455510
_publ_section_title
;
Structure prediction by ZEFSAII (Michael W. Deem and Ramdas Pophale) SiO2 
 PCOD9455510
Probable space group: P B C N
;
_chemical_formula_sum "Si O2"
_cell_formula_units_Z 48
_cell_length_a 17.293290
_cell_length_b 8.386407
_cell_length_c 13.721127
_cell_angle_alpha 90.000000
_cell_angle_beta 90.000000
_cell_angle_gamma 90.000000
_cell_volume 1989.955404
_symmetry_space_group_name_H-M "P B C N"
_symmetry_group_IT_number 60
_symmetry_cell_setting 'orthorhombic'
loop_
_space_group_symop_operation_xyz
x,y,z
1/2-x,1/2-y,1/2+z
1/2+x,1/2-y,-z
-x,y,1/2-z
-x,-y,-z
1/2+x,1/2+y,1/2-z
1/2-x,1/2+y,z
x,-y,1/2+z
loop_
_atom_site_type_symbol
_atom_site_label
_atom_site_fract_x
_atom_site_fract_y
_atom_site_fract_z
Si Si1 0.763383 0.274604 0.989240
Si Si2 0.576305 0.638803 0.193577
Si Si3 0.979622 0.636874 0.924360
Si Si4 0.819126 0.339594 0.312298
Si Si5 0.601969 0.659023 0.559970
Si Si6 0.315183 0.038705 0.381583
O O1 0.754366 0.193213 0.883284
O O2 0.678656 0.356122 0.994663
O O3 0.755233 0.145487 0.075654
O O4 0.821953 0.405371 0.031611
O O5 0.500000 0.584362 0.250000
O O6 0.647565 0.679181 0.263298
O O7 0.593053 0.496518 0.121554
O O8 0.547030 0.809451 0.148982
O O9 0.966764 0.796602 0.988298
O O10 0.896874 0.603376 0.871391
O O11 0.000000 0.500000 0.000000
O O12 0.801486 0.457363 0.222131
O O13 0.619015 0.823920 0.620203
#
# Coordination Sequence:
#
# PCOD9455510 Si02
#       6
#     8   8   8   8   8   8
#     4   9  23  42  62  91 130 166 224 274 330 388
#     4  10  21  36  65  94 131 173 214 270 322 405
#     4  10  20  39  64  97 135 170 215 274 336 397
#     4  10  22  41  65  97 129 174 222 264 343 398
#     4   9  21  39  59  92 129 167 220 267 327 387
#     4  10  22  41  65  90 130 169 224 272 328 399
#
# _framework density 24.121141999999999
#
# number of rings (size 3 to 8) (size 9 to 14) (size 15 to 20)
#    1.000    1.333    0.000    1.500    2.333    2.667 
#    0.000    0.000    0.000    0.000    0.000    0.000 
#    0.000    0.000    0.000    0.000    0.000    0.000 
#
# Total GULP energy -267424.439551 kJ/mol
# GULP energy per Si atom -5571.342491 kJ/mol
# Density = 2.406624 g / cm^3
# Si number density = 24.121142 Si / 1000 Ang^3
#
#
#
# Elastic Constant Matrix: (Units=GPa)
#
#
# Indices 1 2 3 4 5 6 
#
# 1 56.3009 34.6441 37.7607 0.0000 0.0000 0.0000
# 2 34.6441 92.6621 67.4744 0.0000 0.0000 0.0000
# 3 37.7607 67.4744 150.3235 0.0000 0.0000 0.0000
# 4 0.0000 0.0000 0.0000 52.2895 0.0000 0.0000
# 5 0.0000 0.0000 0.0000 0.0000 48.2686 0.0000
# 6 0.0000 0.0000 0.0000 0.0000 0.0000 30.9087
#
#
#
# Elastic Compliance Matrix: (Units=1/GPa)
#
#
# Indices 1 2 3 4 5 6 
#
# 1 0.023926 -0.006787 -0.002964 0.000000 0.000000 0.000000
# 2 -0.006787 0.017957 -0.006355 0.000000 0.000000 0.000000
# 3 -0.002964 -0.006355 0.010249 0.000000 0.000000 0.000000
# 4 0.000000 0.000000 0.000000 0.019124 0.000000 0.000000
# 5 0.000000 0.000000 0.000000 0.000000 0.020717 0.000000
# 6 0.000000 0.000000 0.000000 0.000000 0.000000 0.032353
#
#
# Mechanical properties :
#
#
# Convention : Reuss Voigt Hill
#
# Bulk Modulus (GPa) = 50.20047 64.33832 57.26940
# Shear Modulus (GPa) = 30.64097 36.92052 33.78075
#
# Velocity S-wave (km/s) = 3.56799 3.91657 3.74633
# Velocity P-wave (km/s) = 6.15069 6.86903 6.51976
#
# Compressibility (1/GPa) = 0.01992013
#
# Stress axis : x y z
#
# Youngs Moduli (GPa) = 41.79588 55.68742 97.56624
#
# Poissons Ratio (x) = 0.37797 0.28914
# Poissons Ratio (y) = 0.28368 0.62007
# Poissons Ratio (z) = 0.12386 0.35392
#
# Static dielectric constant tensor:
#      x y z
#    x 2.018680 0.000000 0.000000 
#    y 0.000000 1.959000 0.000000 
#    z 0.000000 0.000000 1.982560 
# 
# From -- ./inp_files/13031.got.cif
#   From: 2010.05.17/outbox.cif.g08.bks.cpg/sg60_7_cif.got.tgz:13031.got - 2010.06.03 14:59:27.
