data_PCOD9455949
_publ_section_title
;
Structure prediction by ZEFSAII (Michael W. Deem and Ramdas Pophale) SiO2 
 PCOD9455949
Probable space group: P B C N
;
_chemical_formula_sum "Si O2"
_cell_formula_units_Z 32
_cell_length_a 4.896936
_cell_length_b 21.354939
_cell_length_c 14.150992
_cell_angle_alpha 90.000000
_cell_angle_beta 90.000000
_cell_angle_gamma 90.000000
_cell_volume 1479.822577
_symmetry_space_group_name_H-M "P B C N"
_symmetry_group_IT_number 60
_symmetry_cell_setting 'orthorhombic'
loop_
_space_group_symop_operation_xyz
x,y,z
1/2-x,1/2-y,1/2+z
1/2+x,1/2-y,-z
-x,y,1/2-z
-x,-y,-z
1/2+x,1/2+y,1/2-z
1/2-x,1/2+y,z
x,-y,1/2+z
loop_
_atom_site_type_symbol
_atom_site_label
_atom_site_fract_x
_atom_site_fract_y
_atom_site_fract_z
Si Si1 0.346686 0.829746 0.534463
Si Si2 0.649858 0.697747 0.909906
Si Si3 0.754618 0.473715 0.938712
Si Si4 0.000000 0.109197 0.750000
Si Si5 0.500000 0.031885 0.750000
O O1 0.651603 0.827003 0.492650
O O2 0.304269 0.771673 0.606201
O O3 0.260217 0.898384 0.565494
O O4 0.156627 0.809932 0.447103
O O5 0.666553 0.652888 0.821410
O O6 0.829045 0.496993 0.832546
O O7 0.500000 0.500000 0.000000
O O8 0.000000 0.500000 0.000000
O O9 0.246477 0.069840 0.797401
#
# Coordination Sequence:
#
# PCOD9455949 Si02
#       5
#     8   8   8   4   4
#     4  10  21  39  59  87 118 157 204 243 311 370
#     4  10  21  37  62  86 116 156 200 256 301 369
#     4  12  24  41  64  90 129 169 203 259 317 375
#     4  12  22  39  60  89 122 156 208 260 312 362
#     4  12  26  39  62  95 124 164 216 254 308 396
#
# _framework density 21.624215
#
# number of rings (size 3 to 8) (size 9 to 14) (size 15 to 20)
#    0.000    1.000    0.000    9.000    0.000    1.000 
#    0.000    0.000    0.000   12.000    0.000    0.000 
#    0.000    0.000    0.000    0.000    0.000    0.000 
#
# Total GULP energy -178445.846985 kJ/mol
# GULP energy per Si atom -5576.432718 kJ/mol
# Density = 2.157500 g / cm^3
# Si number density = 21.624215 Si / 1000 Ang^3
#
#
#
# Elastic Constant Matrix: (Units=GPa)
#
#
# Indices 1 2 3 4 5 6 
#
# 1 113.9327 45.9091 20.2305 0.0000 0.0000 0.0000
# 2 45.9091 180.6682 50.9273 0.0000 0.0000 0.0000
# 3 20.2305 50.9273 81.6055 0.0000 0.0000 0.0000
# 4 0.0000 0.0000 0.0000 31.1172 0.0000 0.0000
# 5 0.0000 0.0000 0.0000 0.0000 28.6641 0.0000
# 6 0.0000 0.0000 0.0000 0.0000 0.0000 22.8919
#
#
#
# Elastic Compliance Matrix: (Units=1/GPa)
#
#
# Indices 1 2 3 4 5 6 
#
# 1 0.009854 -0.002203 -0.001068 0.000000 0.000000 0.000000
# 2 -0.002203 0.007209 -0.003953 0.000000 0.000000 0.000000
# 3 -0.001068 -0.003953 0.014986 0.000000 0.000000 0.000000
# 4 0.000000 0.000000 0.000000 0.032137 0.000000 0.000000
# 5 0.000000 0.000000 0.000000 0.000000 0.034887 0.000000
# 6 0.000000 0.000000 0.000000 0.000000 0.000000 0.043684
#
#
# Mechanical properties :
#
#
# Convention : Reuss Voigt Hill
#
# Bulk Modulus (GPa) = 56.81399 67.81557 62.31478
# Shear Modulus (GPa) = 30.66145 33.81060 32.23603
#
# Velocity S-wave (km/s) = 3.76962 3.95847 3.86520
# Velocity P-wave (km/s) = 6.72882 7.23337 6.98565
#
# Compressibility (1/GPa) = 0.01760130
#
# Stress axis : x y z
#
# Youngs Moduli (GPa) = 101.47670 138.71493 66.73035
#
# Poissons Ratio (x) = 0.30559 0.07128
# Poissons Ratio (y) = 0.22355 0.26377
# Poissons Ratio (z) = 0.10839 0.54831
#
# Static dielectric constant tensor:
#      x y z
#    x 1.888390 0.000000 0.000000 
#    y 0.000000 1.853400 0.000000 
#    z 0.000000 0.000000 1.836710 
# 
# From -- ./inp_files/13617.got.cif
#   From: 2010.05.17/outbox.cif.g08.bks.cpg/sg60_7_cif.got.tgz:13617.got - 2010.06.03 14:59:27.
