data_PCOD9455313
_publ_section_title
;
Structure prediction by ZEFSAII (Michael W. Deem and Ramdas Pophale) SiO2 
 PCOD9455313
Probable space group: P B C N
;
_chemical_formula_sum "Si O2"
_cell_formula_units_Z 32
_cell_length_a 5.038245
_cell_length_b 17.947568
_cell_length_c 13.295301
_cell_angle_alpha 90.000000
_cell_angle_beta 90.000000
_cell_angle_gamma 90.000000
_cell_volume 1202.217551
_symmetry_space_group_name_H-M "P B C N"
_symmetry_group_IT_number 60
_symmetry_cell_setting 'orthorhombic'
loop_
_space_group_symop_operation_xyz
x,y,z
1/2-x,1/2-y,1/2+z
1/2+x,1/2-y,-z
-x,y,1/2-z
-x,-y,-z
1/2+x,1/2+y,1/2-z
1/2-x,1/2+y,z
x,-y,1/2+z
loop_
_atom_site_type_symbol
_atom_site_label
_atom_site_fract_x
_atom_site_fract_y
_atom_site_fract_z
Si Si1 0.127421 0.399848 0.579767
Si Si2 0.399578 0.674595 0.904738
Si Si3 0.614382 0.688445 0.114662
Si Si4 0.738974 0.545410 0.815755
O O1 0.194566 0.378698 0.464806
O O2 0.334507 0.347893 0.644095
O O3 0.192683 0.485196 0.599703
O O4 0.834583 0.375892 0.610149
O O5 0.245537 0.737036 0.841827
O O6 0.611368 0.622123 0.852321
O O7 0.558367 0.711993 0.997620
O O8 0.500000 0.510895 0.750000
O O9 0.000000 0.557053 0.750000
#
# Coordination Sequence:
#
# PCOD9455313 Si02
#       4
#     8   8   8   8
#     4  10  21  41  66  95 124 172 221 278 318 402
#     4  10  22  41  71  99 123 168 231 286 328 388
#     4  10  20  37  74  95 120 155 236 285 326 374
#     4  12  28  42  61  96 145 180 215 268 348 411
#
# _framework density 26.617476
#
# number of rings (size 3 to 8) (size 9 to 14) (size 15 to 20)
#    1.500    0.000    2.500    2.250    3.500    1.000 
#    0.000    5.000    0.000    0.000    0.000    0.000 
#    0.000    0.000    0.000    0.000    0.000    0.000 
#
# Total GULP energy -179143.707187 kJ/mol
# GULP energy per Si atom -5598.240850 kJ/mol
# Density = 2.655689 g / cm^3
# Si number density = 26.617476 Si / 1000 Ang^3
#
#
#
# Elastic Constant Matrix: (Units=GPa)
#
#
# Indices 1 2 3 4 5 6 
#
# 1 151.7705 23.0970 26.9428 0.0000 0.0000 0.0000
# 2 23.0970 109.7276 20.2882 0.0000 0.0000 0.0000
# 3 26.9428 20.2882 40.1459 0.0000 0.0000 0.0000
# 4 0.0000 0.0000 0.0000 26.7445 0.0000 0.0000
# 5 0.0000 0.0000 0.0000 0.0000 37.3884 0.0000
# 6 0.0000 0.0000 0.0000 0.0000 0.0000 45.9839
#
#
#
# Elastic Compliance Matrix: (Units=1/GPa)
#
#
# Indices 1 2 3 4 5 6 
#
# 1 0.007531 -0.000718 -0.004691 0.000000 0.000000 0.000000
# 2 -0.000718 0.010121 -0.004633 0.000000 0.000000 0.000000
# 3 -0.004691 -0.004633 0.030399 0.000000 0.000000 0.000000
# 4 0.000000 0.000000 0.000000 0.037391 0.000000 0.000000
# 5 0.000000 0.000000 0.000000 0.000000 0.026746 0.000000
# 6 0.000000 0.000000 0.000000 0.000000 0.000000 0.021747
#
#
# Mechanical properties :
#
#
# Convention : Reuss Voigt Hill
#
# Bulk Modulus (GPa) = 35.75706 49.14445 42.45075
# Shear Modulus (GPa) = 30.61058 37.44442 34.02750
#
# Velocity S-wave (km/s) = 3.39487 3.75475 3.57934
# Velocity P-wave (km/s) = 5.36933 6.10744 5.75024
#
# Compressibility (1/GPa) = 0.02796650
#
# Stress axis : x y z
#
# Youngs Moduli (GPa) = 132.78493 98.80228 32.89567
#
# Poissons Ratio (x) = 0.07092 0.15433
# Poissons Ratio (y) = 0.09531 0.15241
# Poissons Ratio (z) = 0.62295 0.45777
#
# Static dielectric constant tensor:
#      x y z
#    x 2.083300 0.000000 0.000000 
#    y 0.000000 2.043870 0.000000 
#    z 0.000000 0.000000 2.249400 
# 
# From -- ./inp_files/13634.got.cif
#   From: 2010.05.17/outbox.cif.g08.bks.cpg/sg60_7_cif.got.tgz:13634.got - 2010.06.03 14:59:27.
