data_PCOD9455218
_publ_section_title
;
Structure prediction by ZEFSAII (Michael W. Deem and Ramdas Pophale) SiO2 
 PCOD9455218
Probable space group: P B C N
;
_chemical_formula_sum "Si O2"
_cell_formula_units_Z 40
_cell_length_a 12.994215
_cell_length_b 11.792687
_cell_length_c 11.419933
_cell_angle_alpha 90.000000
_cell_angle_beta 90.000000
_cell_angle_gamma 90.000000
_cell_volume 1749.952965
_symmetry_space_group_name_H-M "P B C N"
_symmetry_group_IT_number 60
_symmetry_cell_setting 'orthorhombic'
loop_
_space_group_symop_operation_xyz
x,y,z
1/2-x,1/2-y,1/2+z
1/2+x,1/2-y,-z
-x,y,1/2-z
-x,-y,-z
1/2+x,1/2+y,1/2-z
1/2-x,1/2+y,z
x,-y,1/2+z
loop_
_atom_site_type_symbol
_atom_site_label
_atom_site_fract_x
_atom_site_fract_y
_atom_site_fract_z
Si Si1 0.590450 0.247094 0.319327
Si Si2 0.827296 0.564855 0.136631
Si Si3 0.612488 0.828157 0.067228
Si Si4 0.289763 0.230783 0.564475
Si Si5 0.390257 0.620343 0.262681
O O1 0.500000 0.307441 0.250000
O O2 0.624908 0.146722 0.233730
O O3 0.556554 0.192243 0.443304
O O4 0.694523 0.313023 0.354168
O O5 0.889991 0.448907 0.127069
O O6 0.707316 0.555833 0.179308
O O7 0.831402 0.625860 0.009354
O O8 0.586574 0.725405 0.150756
O O9 0.732123 0.809249 0.030914
O O10 0.355453 0.315320 0.643719
O O11 0.500000 0.559619 0.250000
#
# Coordination Sequence:
#
# PCOD9455218 Si02
#       5
#     8   8   8   8   8
#     4   9  20  35  54  86 116 143 195 239 295 352
#     4  10  20  37  58  82 123 151 192 241 298 360
#     4   9  21  36  56  85 113 154 193 243 301 343
#     4   8  20  36  55  82 113 155 189 246 293 355
#     4  10  21  38  60  86 116 153 199 243 299 353
#
# _framework density 22.857758
#
# number of rings (size 3 to 8) (size 9 to 14) (size 15 to 20)
#    1.200    1.600    0.000    0.000    5.600    1.600 
#    0.000    1.000    0.000   12.000    0.000    0.000 
#    0.000    0.000    0.000    0.000    0.000    0.000 
#
# Total GULP energy -222881.668386 kJ/mol
# GULP energy per Si atom -5572.041710 kJ/mol
# Density = 2.280573 g / cm^3
# Si number density = 22.857758 Si / 1000 Ang^3
#
#
#
# Elastic Constant Matrix: (Units=GPa)
#
#
# Indices 1 2 3 4 5 6 
#
# 1 92.0303 5.7189 10.9862 0.0000 0.0000 0.0000
# 2 5.7189 67.0783 37.1701 0.0000 0.0000 0.0000
# 3 10.9862 37.1701 89.9057 0.0000 0.0000 0.0000
# 4 0.0000 0.0000 0.0000 -21.6858 0.0000 0.0000
# 5 0.0000 0.0000 0.0000 0.0000 25.6196 0.0000
# 6 0.0000 0.0000 0.0000 0.0000 0.0000 -7.5409
#
#
#
# Elastic Compliance Matrix: (Units=1/GPa)
#
#
# Indices 1 2 3 4 5 6 
#
# 1 0.011030 -0.000251 -0.001244 0.000000 0.000000 0.000000
# 2 -0.000251 0.019344 -0.007967 0.000000 0.000000 0.000000
# 3 -0.001244 -0.007967 0.014569 0.000000 0.000000 0.000000
# 4 0.000000 0.000000 0.000000 -0.046113 0.000000 0.000000
# 5 0.000000 0.000000 0.000000 0.000000 0.039033 0.000000
# 6 0.000000 0.000000 0.000000 0.000000 0.000000 -0.132610
#
#
# Mechanical properties :
#
#
# Convention : Reuss Voigt Hill
#
# Bulk Modulus (GPa) = 38.43364 39.64051 39.03707
# Shear Modulus (GPa) = -74.45901 12.28786 -31.08558
#
# Velocity S-wave (km/s) = -5.71364 2.32109 -3.69176
# Velocity P-wave (km/s) = 5.16496 4.95613 1.02801
#
# Compressibility (1/GPa) = 0.02601887
#
# Stress axis : x y z
#
# Youngs Moduli (GPa) = 90.66105 51.69562 68.64111
#
# Poissons Ratio (x) = 0.01298 0.08539
# Poissons Ratio (y) = 0.02276 0.54685
# Poissons Ratio (z) = 0.11279 0.41185
#
# Static dielectric constant tensor:
#      x y z
#    x 1.761860 0.000000 0.000000 
#    y 0.000000 1.836990 0.000000 
#    z 0.000000 0.000000 1.864380 
# 
# From -- ./inp_files/10861.got.cif
#   From: 2010.05.17/outbox.cif.g08.bks.cpg/sg60_6_cif.got.tgz:10861.got - 2010.06.03 14:59:27.
