data_PCOD9455381
_publ_section_title
;
Structure prediction by ZEFSAII (Michael W. Deem and Ramdas Pophale) SiO2 
 PCOD9455381
Probable space group: P B C N
;
_chemical_formula_sum "Si O2"
_cell_formula_units_Z 36
_cell_length_a 5.483906
_cell_length_b 14.145723
_cell_length_c 18.139036
_cell_angle_alpha 90.000000
_cell_angle_beta 90.000000
_cell_angle_gamma 90.000000
_cell_volume 1407.114227
_symmetry_space_group_name_H-M "P B C N"
_symmetry_group_IT_number 60
_symmetry_cell_setting 'orthorhombic'
loop_
_space_group_symop_operation_xyz
x,y,z
1/2-x,1/2-y,1/2+z
1/2+x,1/2-y,-z
-x,y,1/2-z
-x,-y,-z
1/2+x,1/2+y,1/2-z
1/2-x,1/2+y,z
x,-y,1/2+z
loop_
_atom_site_type_symbol
_atom_site_label
_atom_site_fract_x
_atom_site_fract_y
_atom_site_fract_z
Si Si1 0.965481 0.604613 0.530484
Si Si2 0.667318 0.997683 0.355721
Si Si3 0.106541 0.686499 0.332057
Si Si4 0.500000 0.412618 0.750000
Si Si5 0.036896 0.854344 0.059994
O O1 0.699426 0.636230 0.510350
O O2 0.000000 0.500000 0.500000
O O3 0.981016 0.585424 0.620246
O O4 0.209447 0.664002 0.517030
O O5 0.530567 0.096847 0.368687
O O6 0.783313 0.019130 0.276720
O O7 0.898159 0.956236 0.402358
O O8 0.385351 0.653178 0.314673
O O9 0.000000 0.701424 0.250000
O O10 0.033719 0.776818 0.379662
#
# Coordination Sequence:
#
# PCOD9455381 Si02
#       5
#     8   8   8   4   8
#     4  10  22  43  65  89 128 170 219 270 315 379
#     4   9  22  38  63  91 132 167 211 260 328 378
#     4  10  22  40  61  96 131 167 208 266 321 402
#     4  10  20  38  62  90 142 170 204 266 330 398
#     4  10  23  39  66  93 122 168 216 261 323 380
#
# _framework density 25.584277
#
# number of rings (size 3 to 8) (size 9 to 14) (size 15 to 20)
#    1.333    0.889    0.000    2.000    7.778    0.000 
#    0.000    2.222    0.000    0.000    0.000    0.000 
#    0.000    0.000    0.000    0.000    0.000    0.000 
#
# Total GULP energy -200439.341566 kJ/mol
# GULP energy per Si atom -5567.759488 kJ/mol
# Density = 2.552605 g / cm^3
# Si number density = 25.584277 Si / 1000 Ang^3
#
#
#
# Elastic Constant Matrix: (Units=GPa)
#
#
# Indices 1 2 3 4 5 6 
#
# 1 182.9113 66.1036 28.8794 0.0000 0.0000 0.0000
# 2 66.1036 125.7917 38.3943 0.0000 0.0000 0.0000
# 3 28.8794 38.3943 62.0040 0.0000 0.0000 0.0000
# 4 0.0000 0.0000 0.0000 55.7406 0.0000 0.0000
# 5 0.0000 0.0000 0.0000 0.0000 31.5231 0.0000
# 6 0.0000 0.0000 0.0000 0.0000 0.0000 -48.6100
#
#
#
# Elastic Compliance Matrix: (Units=1/GPa)
#
#
# Indices 1 2 3 4 5 6 
#
# 1 0.006818 -0.003223 -0.001180 0.000000 0.000000 0.000000
# 2 -0.003223 0.011326 -0.005512 0.000000 0.000000 0.000000
# 3 -0.001180 -0.005512 0.020091 0.000000 0.000000 0.000000
# 4 0.000000 0.000000 0.000000 0.017940 0.000000 0.000000
# 5 0.000000 0.000000 0.000000 0.000000 0.031723 0.000000
# 6 0.000000 0.000000 0.000000 0.000000 0.000000 -0.020572
#
#
# Mechanical properties :
#
#
# Convention : Reuss Voigt Hill
#
# Bulk Modulus (GPa) = 54.33345 70.82906 62.58126
# Shear Modulus (GPa) = 53.59614 23.55271 38.57442
#
# Velocity S-wave (km/s) = 4.58196 3.03742 3.88717
# Velocity P-wave (km/s) = 7.01966 6.32819 6.68287
#
# Compressibility (1/GPa) = 0.01840487
#
# Stress axis : x y z
#
# Youngs Moduli (GPa) = 146.66748 88.29550 49.77402
#
# Poissons Ratio (x) = 0.28456 0.05874
# Poissons Ratio (y) = 0.47267 0.27436
# Poissons Ratio (z) = 0.17308 0.48669
#
# Static dielectric constant tensor:
#      x y z
#    x 2.111360 0.000000 0.000000 
#    y 0.000000 1.980570 0.000000 
#    z 0.000000 0.000000 2.287580 
# 
# From -- ./inp_files/24792.got.cif
#   From: 2010.05.17/outbox.cif.g08.bks.cpg/sg60_13_cif.got.tgz:24792.got - 2010.06.03 14:59:27.
