data_PCOD9455435
_publ_section_title
;
Structure prediction by ZEFSAII (Michael W. Deem and Ramdas Pophale) SiO2 
 PCOD9455435
Probable space group: P B C N
;
_chemical_formula_sum "Si O2"
_cell_formula_units_Z 44
_cell_length_a 15.449441
_cell_length_b 15.300611
_cell_length_c 7.299025
_cell_angle_alpha 90.000000
_cell_angle_beta 90.000000
_cell_angle_gamma 90.000000
_cell_volume 1725.386498
_symmetry_space_group_name_H-M "P B C N"
_symmetry_group_IT_number 60
_symmetry_cell_setting 'orthorhombic'
loop_
_space_group_symop_operation_xyz
x,y,z
1/2-x,1/2-y,1/2+z
1/2+x,1/2-y,-z
-x,y,1/2-z
-x,-y,-z
1/2+x,1/2+y,1/2-z
1/2-x,1/2+y,z
x,-y,1/2+z
loop_
_atom_site_type_symbol
_atom_site_label
_atom_site_fract_x
_atom_site_fract_y
_atom_site_fract_z
Si Si1 0.643218 0.121971 0.775257
Si Si2 0.141501 0.422409 0.798209
Si Si3 0.500000 0.683645 0.250000
Si Si4 0.160817 0.057764 0.325636
Si Si5 0.938266 0.280647 0.954764
Si Si6 0.163558 0.126896 0.727692
O O1 0.589989 0.192582 0.661988
O O2 0.739737 0.146573 0.708569
O O3 0.619116 0.024998 0.705110
O O4 0.632896 0.116298 0.995470
O O5 0.243668 0.423955 0.737124
O O6 0.080639 0.368461 0.659621
O O7 0.584708 0.621334 0.231957
O O8 0.515277 0.723175 0.460218
O O9 0.180992 0.081240 0.533251
O O10 0.129001 0.957095 0.333855
O O11 0.888117 0.212371 0.825927
#
# Coordination Sequence:
#
# PCOD9455435 Si02
#       6
#     8   8   4   8   8   8
#     4  10  20  38  65  97 129 166 222 283 324 383
#     4  10  20  40  68  98 126 177 225 274 332 394
#     4  10  24  44  64  96 144 180 210 288 340 402
#     4   9  20  40  61  92 135 173 215 268 345 391
#     4  11  23  40  64  96 132 174 226 272 332 390
#     4   9  21  36  62  96 123 173 219 271 319 393
#
# _framework density 25.501529999999999
#
# number of rings (size 3 to 8) (size 9 to 14) (size 15 to 20)
#    0.000    2.182    1.818    0.000   10.182    2.909 
#    6.545    1.818    4.000    0.000    0.000    0.000 
#    0.000    0.000    0.000    0.000    0.000    0.000 
#
# Total GULP energy -245077.701760 kJ/mol
# GULP energy per Si atom -5569.947767 kJ/mol
# Density = 2.544349 g / cm^3
# Si number density = 25.501530 Si / 1000 Ang^3
#
#
#
# Elastic Constant Matrix: (Units=GPa)
#
#
# Indices 1 2 3 4 5 6 
#
# 1 26.1114 5.7589 19.9109 0.0000 0.0000 0.0000
# 2 5.7589 43.5924 18.5423 0.0000 0.0000 0.0000
# 3 19.9109 18.5423 98.4434 0.0000 0.0000 0.0000
# 4 0.0000 0.0000 0.0000 -195.5265 0.0000 0.0000
# 5 0.0000 0.0000 0.0000 0.0000 2.9402 0.0000
# 6 0.0000 0.0000 0.0000 0.0000 0.0000 8.6014
#
#
#
# Elastic Compliance Matrix: (Units=1/GPa)
#
#
# Indices 1 2 3 4 5 6 
#
# 1 0.045488 -0.002279 -0.008771 0.000000 0.000000 0.000000
# 2 -0.002279 0.025052 -0.004258 0.000000 0.000000 0.000000
# 3 -0.008771 -0.004258 0.012734 0.000000 0.000000 0.000000
# 4 0.000000 0.000000 0.000000 -0.005114 0.000000 0.000000
# 5 0.000000 0.000000 0.000000 0.000000 0.340117 0.000000
# 6 0.000000 0.000000 0.000000 0.000000 0.000000 0.116260
#
#
# Mechanical properties :
#
#
# Convention : Reuss Voigt Hill
#
# Bulk Modulus (GPa) = 18.99000 28.50795 23.74897
# Shear Modulus (GPa) = 8.58067 -28.53466 -9.97700
#
# Velocity S-wave (km/s) = 1.83632 -3.34868 -1.98010
# Velocity P-wave (km/s) = 3.45816 1.93608 2.02614
#
# Compressibility (1/GPa) = 0.05265930
#
# Stress axis : x y z
#
# Youngs Moduli (GPa) = 21.98369 39.91713 78.52907
#
# Poissons Ratio (x) = 0.09095 0.68879
# Poissons Ratio (y) = 0.05009 0.33436
# Poissons Ratio (z) = 0.19282 0.16996
#
# Static dielectric constant tensor:
#      x y z
#    x 2.098520 0.000000 0.000000 
#    y 0.000000 2.267900 0.000000 
#    z 0.000000 0.000000 2.121050 
# 
# From -- ./inp_files/6645.got.cif
#   From: 2010.05.17/outbox.cif.g08.bks.cpg/sg60_4_cif.got.tgz:6645.got - 2010.06.03 14:59:27.
