data_PCOD9455204
_publ_section_title
;
Structure prediction by ZEFSAII (Michael W. Deem and Ramdas Pophale) SiO2 
 PCOD9455204
Probable space group: P B C N
;
_chemical_formula_sum "Si O2"
_cell_formula_units_Z 56
_cell_length_a 22.490622
_cell_length_b 11.162936
_cell_length_c 9.066001
_cell_angle_alpha 90.000000
_cell_angle_beta 90.000000
_cell_angle_gamma 90.000000
_cell_volume 2276.122668
_symmetry_space_group_name_H-M "P B C N"
_symmetry_group_IT_number 60
_symmetry_cell_setting 'orthorhombic'
loop_
_space_group_symop_operation_xyz
x,y,z
1/2-x,1/2-y,1/2+z
1/2+x,1/2-y,-z
-x,y,1/2-z
-x,-y,-z
1/2+x,1/2+y,1/2-z
1/2-x,1/2+y,z
x,-y,1/2+z
loop_
_atom_site_type_symbol
_atom_site_label
_atom_site_fract_x
_atom_site_fract_y
_atom_site_fract_z
Si Si1 0.193583 0.479460 0.755852
Si Si2 0.500000 0.678608 0.250000
Si Si3 0.888976 0.415932 0.483782
Si Si4 0.000000 0.179827 0.750000
Si Si5 0.792431 0.139843 0.629748
Si Si6 0.429331 0.819379 0.501786
Si Si7 0.703526 0.757711 0.936320
Si Si8 0.581555 0.357790 0.994594
O O1 0.157834 0.571600 0.650661
O O2 0.243510 0.537283 0.856044
O O3 0.219728 0.379626 0.649940
O O4 0.144435 0.421663 0.860540
O O5 0.463116 0.762527 0.363169
O O6 0.451814 0.604270 0.153897
O O7 0.928739 0.536390 0.482774
O O8 0.918895 0.287481 0.479512
O O9 0.043095 0.261494 0.648864
O O10 0.959394 0.110756 0.633233
O O11 0.805348 0.165995 0.802396
O O12 0.756584 0.250804 0.553659
O O13 0.850947 0.110050 0.536075
O O14 0.360061 0.781273 0.489659
#
# Coordination Sequence:
#
# PCOD9455204 Si02
#       8
#     8   4   8   4   8   8   8   8
#     4  11  21  38  55  91 128 162 195 258 308 367
#     4  10  24  35  58  86 127 162 220 242 297 382
#     4  11  20  36  57  82 134 157 204 254 297 374
#     4  10  20  37  52  78 127 154 220 240 299 364
#     4  12  23  39  66  89 124 169 205 253 326 368
#     4  10  20  37  53  84 122 172 197 253 301 359
#     4  11  24  39  61  93 126 160 207 258 312 374
#     4  11  22  37  57  87 118 166 203 254 305 368
#
# _framework density 24.603242000000002
#
# number of rings (size 3 to 8) (size 9 to 14) (size 15 to 20)
#    0.000    1.143    5.714    2.571    2.000    3.429 
#    0.000    0.000    0.000    0.000    0.000    3.000 
#    0.000    0.000    0.000    0.000    0.000    0.000 
#
# Total GULP energy -313383.757677 kJ/mol
# GULP energy per Si atom -5596.138530 kJ/mol
# Density = 2.454724 g / cm^3
# Si number density = 24.603242 Si / 1000 Ang^3
#
#
#
# Elastic Constant Matrix: (Units=GPa)
#
#
# Indices 1 2 3 4 5 6 
#
# 1 137.9274 8.3813 54.6751 0.0000 0.0000 0.0000
# 2 8.3813 33.8736 17.9895 0.0000 0.0000 0.0000
# 3 54.6751 17.9895 137.6568 0.0000 0.0000 0.0000
# 4 0.0000 0.0000 0.0000 25.3905 0.0000 0.0000
# 5 0.0000 0.0000 0.0000 0.0000 49.2686 0.0000
# 6 0.0000 0.0000 0.0000 0.0000 0.0000 35.3135
#
#
#
# Elastic Compliance Matrix: (Units=1/GPa)
#
#
# Indices 1 2 3 4 5 6 
#
# 1 0.008609 -0.000338 -0.003375 0.000000 0.000000 0.000000
# 2 -0.000338 0.031736 -0.004013 0.000000 0.000000 0.000000
# 3 -0.003375 -0.004013 0.009129 0.000000 0.000000 0.000000
# 4 0.000000 0.000000 0.000000 0.039385 0.000000 0.000000
# 5 0.000000 0.000000 0.000000 0.000000 0.020297 0.000000
# 6 0.000000 0.000000 0.000000 0.000000 0.000000 0.028318
#
#
# Mechanical properties :
#
#
# Convention : Reuss Voigt Hill
#
# Bulk Modulus (GPa) = 29.39237 52.39441 40.89339
# Shear Modulus (GPa) = 30.43828 37.22198 33.83013
#
# Velocity S-wave (km/s) = 3.52115 3.89381 3.71216
# Velocity P-wave (km/s) = 5.33890 6.44652 5.91868
#
# Compressibility (1/GPa) = 0.03402243
#
# Stress axis : x y z
#
# Youngs Moduli (GPa) = 116.16283 31.50956 109.53563
#
# Poissons Ratio (x) = 0.01064 0.36969
# Poissons Ratio (y) = 0.03922 0.43960
# Poissons Ratio (z) = 0.39206 0.12646
#
# Static dielectric constant tensor:
#      x y z
#    x 1.950480 0.000000 0.000000 
#    y 0.000000 2.014140 0.000000 
#    z 0.000000 0.000000 1.958590 
# 
# From -- ./inp_files/7451.got.cif
#   From: 2010.05.17/outbox.cif.g08.bks.cpg/sg60_4_cif.got.tgz:7451.got - 2010.06.03 14:59:27.
