data_PCOD9455200
_publ_section_title
;
Structure prediction by ZEFSAII (Michael W. Deem and Ramdas Pophale) SiO2 
 PCOD9455200
Probable space group: P B C N
;
_chemical_formula_sum "Si O2"
_cell_formula_units_Z 48
_cell_length_a 10.618116
_cell_length_b 18.418471
_cell_length_c 10.390248
_cell_angle_alpha 90.000000
_cell_angle_beta 90.000000
_cell_angle_gamma 90.000000
_cell_volume 2032.015207
_symmetry_space_group_name_H-M "P B C N"
_symmetry_group_IT_number 60
_symmetry_cell_setting 'orthorhombic'
loop_
_space_group_symop_operation_xyz
x,y,z
1/2-x,1/2-y,1/2+z
1/2+x,1/2-y,-z
-x,y,1/2-z
-x,-y,-z
1/2+x,1/2+y,1/2-z
1/2-x,1/2+y,z
x,-y,1/2+z
loop_
_atom_site_type_symbol
_atom_site_label
_atom_site_fract_x
_atom_site_fract_y
_atom_site_fract_z
Si Si1 0.282016 0.911573 0.281322
Si Si2 0.178833 0.929855 0.538270
Si Si3 0.397699 0.593228 0.561497
Si Si4 0.231153 0.704934 0.440422
Si Si5 0.354647 0.922546 0.777989
Si Si6 0.867331 0.264719 0.301627
O O1 0.265007 0.893902 0.430086
O O2 0.143575 0.910341 0.212463
O O3 0.363078 0.852455 0.206812
O O4 0.034701 0.913278 0.502055
O O5 0.241431 0.907435 0.673678
O O6 0.176083 0.018359 0.520895
O O7 0.341624 0.990834 0.283364
O O8 0.351435 0.671878 0.514214
O O9 0.167248 0.629292 0.399095
O O10 0.159500 0.750906 0.549070
O O11 0.264683 0.742178 0.305468
O O12 0.500000 0.906938 0.750000
O O13 0.000000 0.236420 0.250000
#
# Coordination Sequence:
#
# PCOD9455200 Si02
#       6
#     8   8   8   8   8   8
#     4  10  21  42  66 102 139 178 231 296 360 422
#     4  10  20  36  69  99 134 177 223 294 361 412
#     4   9  20  39  62 103 135 167 232 291 349 424
#     4  11  26  47  67 103 137 187 239 290 347 434
#     4  11  25  40  68 101 138 187 238 291 358 424
#     4  11  28  47  71 101 146 188 235 289 360 425
#
# _framework density 23.621869
#
# number of rings (size 3 to 8) (size 9 to 14) (size 15 to 20)
#    0.000    1.667    1.667    1.000    7.000    0.667 
#    0.000    3.333    0.000    0.000    0.000    0.000 
#    0.000    0.000    0.000    0.000    0.000    0.000 
#
# Total GULP energy -267352.398779 kJ/mol
# GULP energy per Si atom -5569.841641 kJ/mol
# Density = 2.356810 g / cm^3
# Si number density = 23.621869 Si / 1000 Ang^3
#
#
#
# Elastic Constant Matrix: (Units=GPa)
#
#
# Indices 1 2 3 4 5 6 
#
# 1 80.6374 -4.4939 29.3795 0.0000 0.0000 0.0000
# 2 -4.4939 58.8157 31.0164 0.0000 0.0000 0.0000
# 3 29.3795 31.0164 122.3497 0.0000 0.0000 0.0000
# 4 0.0000 0.0000 0.0000 44.0611 0.0000 0.0000
# 5 0.0000 0.0000 0.0000 0.0000 17.7369 0.0000
# 6 0.0000 0.0000 0.0000 0.0000 0.0000 15.2316
#
#
#
# Elastic Compliance Matrix: (Units=1/GPa)
#
#
# Indices 1 2 3 4 5 6 
#
# 1 0.014128 0.003311 -0.004232 0.000000 0.000000 0.000000
# 2 0.003311 0.020402 -0.005967 0.000000 0.000000 0.000000
# 3 -0.004232 -0.005967 0.010702 0.000000 0.000000 0.000000
# 4 0.000000 0.000000 0.000000 0.022696 0.000000 0.000000
# 5 0.000000 0.000000 0.000000 0.000000 0.056380 0.000000
# 6 0.000000 0.000000 0.000000 0.000000 0.000000 0.065653
#
#
# Mechanical properties :
#
#
# Convention : Reuss Voigt Hill
#
# Bulk Modulus (GPa) = 31.79041 41.51186 36.65114
# Shear Modulus (GPa) = 23.34039 29.13264 26.23652
#
# Velocity S-wave (km/s) = 3.14679 3.51563 3.33631
# Velocity P-wave (km/s) = 5.16627 5.83877 5.51278
#
# Compressibility (1/GPa) = 0.03145603
#
# Stress axis : x y z
#
# Youngs Moduli (GPa) = 70.78383 49.01479 93.43913
#
# Poissons Ratio (x) = -0.16229 0.39541
# Poissons Ratio (y) = -0.23437 0.55756
# Poissons Ratio (z) = 0.29954 0.29248
#
# Static dielectric constant tensor:
#      x y z
#    x 1.967260 0.000000 0.000000 
#    y 0.000000 1.957640 0.000000 
#    z 0.000000 0.000000 1.991610 
# 
# From -- ./inp_files/5084.got.cif
#   From: 2010.05.17/outbox.cif.g08.bks.cpg/sg60_3_cif.got.tgz:5084.got - 2010.06.03 14:59:27.
