data_PCOD9455796
_publ_section_title
;
Structure prediction by ZEFSAII (Michael W. Deem and Ramdas Pophale) SiO2 
 PCOD9455796
Probable space group: P B C N
;
_chemical_formula_sum "Si O2"
_cell_formula_units_Z 56
_cell_length_a 14.247440
_cell_length_b 24.598761
_cell_length_c 9.182627
_cell_angle_alpha 90.000000
_cell_angle_beta 90.000000
_cell_angle_gamma 90.000000
_cell_volume 3218.229513
_symmetry_space_group_name_H-M "P B C N"
_symmetry_group_IT_number 60
_symmetry_cell_setting 'orthorhombic'
loop_
_space_group_symop_operation_xyz
x,y,z
1/2-x,1/2-y,1/2+z
1/2+x,1/2-y,-z
-x,y,1/2-z
-x,-y,-z
1/2+x,1/2+y,1/2-z
1/2-x,1/2+y,z
x,-y,1/2+z
loop_
_atom_site_type_symbol
_atom_site_label
_atom_site_fract_x
_atom_site_fract_y
_atom_site_fract_z
Si Si1 0.905137 0.680603 0.173160
Si Si2 0.286252 0.639880 0.421068
Si Si3 0.398484 0.564046 0.938099
Si Si4 0.493101 0.766807 0.409594
Si Si5 0.131319 0.171821 0.115007
Si Si6 0.379234 0.453544 0.101381
Si Si7 0.310805 0.248564 0.082160
O O1 0.818263 0.640764 0.147338
O O2 0.863824 0.731633 0.267783
O O3 0.000000 0.659373 0.250000
O O4 0.941952 0.701528 0.020425
O O5 0.352691 0.652215 0.281471
O O6 0.316058 0.585843 0.503652
O O7 0.291600 0.689190 0.539153
O O8 0.511984 0.562774 0.927462
O O9 0.362549 0.553598 0.773858
O O10 0.367584 0.620940 0.007031
O O11 0.369379 0.515134 0.045358
O O12 0.500000 0.790108 0.250000
O O13 0.536157 0.706052 0.405612
O O14 0.386372 0.768968 0.461253
O O15 0.216569 0.213351 0.081706
#
# Coordination Sequence:
#
# PCOD9455796 Si02
#       7
#     8   8   8   8   8   8   8
#     4   9  21  36  51  75 116 148 186 229 282 330
#     4  11  20  35  55  80 109 147 191 226 278 331
#     4  10  22  38  54  80 111 144 183 226 283 330
#     4  11  20  33  51  77 108 149 181 225 270 322
#     4  11  22  34  52  78 114 146 181 229 268 330
#     4  10  22  37  57  78 107 146 185 229 273 339
#     4  10  21  34  51  78 111 148 182 221 276 332
#
# _framework density 17.400874000000002
#
# number of rings (size 3 to 8) (size 9 to 14) (size 15 to 20)
#    0.000    1.714    2.857    1.714    2.000    2.286 
#    0.000    0.000    0.000    0.000    0.000   17.000 
#    0.000    0.000    0.000    0.000    0.000    0.000 
#
# Total GULP energy -312380.704810 kJ/mol
# GULP energy per Si atom -5578.226872 kJ/mol
# Density = 1.736127 g / cm^3
# Si number density = 17.400874 Si / 1000 Ang^3
#
#
#
# Elastic Constant Matrix: (Units=GPa)
#
#
# Indices 1 2 3 4 5 6 
#
# 1 54.3489 3.6367 24.1290 0.0000 0.0000 0.0000
# 2 3.6367 49.2134 29.9963 0.0000 0.0000 0.0000
# 3 24.1290 29.9963 115.2479 0.0000 0.0000 0.0000
# 4 0.0000 0.0000 0.0000 25.5427 0.0000 0.0000
# 5 0.0000 0.0000 0.0000 0.0000 19.4088 0.0000
# 6 0.0000 0.0000 0.0000 0.0000 0.0000 17.8251
#
#
#
# Elastic Compliance Matrix: (Units=1/GPa)
#
#
# Indices 1 2 3 4 5 6 
#
# 1 0.020355 0.001300 -0.004600 0.000000 0.000000 0.000000
# 2 0.001300 0.024234 -0.006580 0.000000 0.000000 0.000000
# 3 -0.004600 -0.006580 0.011353 0.000000 0.000000 0.000000
# 4 0.000000 0.000000 0.000000 0.039150 0.000000 0.000000
# 5 0.000000 0.000000 0.000000 0.000000 0.051523 0.000000
# 6 0.000000 0.000000 0.000000 0.000000 0.000000 0.056101
#
#
# Mechanical properties :
#
#
# Convention : Reuss Voigt Hill
#
# Bulk Modulus (GPa) = 27.63845 37.14826 32.39336
# Shear Modulus (GPa) = 21.31872 23.29187 22.30530
#
# Velocity S-wave (km/s) = 3.50402 3.66258 3.58418
# Velocity P-wave (km/s) = 5.68231 6.26745 5.98204
#
# Compressibility (1/GPa) = 0.03618147
#
# Stress axis : x y z
#
# Youngs Moduli (GPa) = 49.12837 41.26429 88.08623
#
# Poissons Ratio (x) = -0.05362 0.40518
# Poissons Ratio (y) = -0.06384 0.57957
# Poissons Ratio (z) = 0.22598 0.27150
#
# Static dielectric constant tensor:
#      x y z
#    x 1.606590 0.000000 0.000000 
#    y 0.000000 1.559730 0.000000 
#    z 0.000000 0.000000 1.618570 
# 
# From -- ./inp_files/6146.got.cif
#   From: 2010.05.17/outbox.cif.g08.bks.cpg/sg60_4_cif.got.tgz:6146.got - 2010.06.03 14:59:27.
