data_PCOD9455948
_publ_section_title
;
Structure prediction by ZEFSAII (Michael W. Deem and Ramdas Pophale) SiO2 
 PCOD9455948
Probable space group: P B C N
;
_chemical_formula_sum "Si O2"
_cell_formula_units_Z 44
_cell_length_a 22.475361
_cell_length_b 10.455016
_cell_length_c 9.022915
_cell_angle_alpha 90.000000
_cell_angle_beta 90.000000
_cell_angle_gamma 90.000000
_cell_volume 2120.206902
_symmetry_space_group_name_H-M "P B C N"
_symmetry_group_IT_number 60
_symmetry_cell_setting 'orthorhombic'
loop_
_space_group_symop_operation_xyz
x,y,z
1/2-x,1/2-y,1/2+z
1/2+x,1/2-y,-z
-x,y,1/2-z
-x,-y,-z
1/2+x,1/2+y,1/2-z
1/2-x,1/2+y,z
x,-y,1/2+z
loop_
_atom_site_type_symbol
_atom_site_label
_atom_site_fract_x
_atom_site_fract_y
_atom_site_fract_z
Si Si1 0.000000 0.513900 0.750000
Si Si2 0.224777 0.832294 0.487585
Si Si3 0.726131 0.410941 0.347188
Si Si4 0.416732 0.414629 0.150186
Si Si5 0.471920 0.825115 0.500816
Si Si6 0.418356 0.665514 0.983070
O O1 0.957614 0.602451 0.650071
O O2 0.965200 0.421819 0.862612
O O3 0.251303 0.698795 0.542277
O O4 0.242890 0.873727 0.321077
O O5 0.152704 0.818516 0.490327
O O6 0.243961 0.947624 0.597550
O O7 0.654605 0.412248 0.353151
O O8 0.439304 0.305680 0.038579
O O9 0.434619 0.381486 0.317422
O O10 0.435971 0.554215 0.097219
O O11 0.542002 0.789582 0.489561
#
# Coordination Sequence:
#
# PCOD9455948 Si02
#       6
#     4   8   8   8   8   8
#     4  10  24  38  58  76 128 154 182 232 276 354
#     4  10  21  40  60  88 117 154 196 243 290 345
#     4  10  21  40  60  88 117 154 196 243 290 345
#     4  10  21  37  62  86 114 146 193 240 283 338
#     4  11  21  42  55  86 116 152 190 229 289 337
#     4  10  21  37  62  86 114 146 193 240 283 338
#
# _framework density 20.752690999999999
#
# number of rings (size 3 to 8) (size 9 to 14) (size 15 to 20)
#    0.000    1.818    1.818    1.636    2.545    1.455 
#    6.545    0.000    0.000    0.000    0.000    0.000 
#    0.000    0.000    0.000    0.000    0.000    0.000 
#
# Total GULP energy -245802.824214 kJ/mol
# GULP energy per Si atom -5586.427823 kJ/mol
# Density = 2.070546 g / cm^3
# Si number density = 20.752691 Si / 1000 Ang^3
#
#
#
# Elastic Constant Matrix: (Units=GPa)
#
#
# Indices 1 2 3 4 5 6 
#
# 1 13.9744 11.6690 13.0089 0.0000 0.0000 0.0000
# 2 11.6690 90.3323 23.8693 0.0000 0.0000 0.0000
# 3 13.0089 23.8693 80.6417 0.0000 0.0000 0.0000
# 4 0.0000 0.0000 0.0000 32.9828 0.0000 0.0000
# 5 0.0000 0.0000 0.0000 0.0000 20.3876 0.0000
# 6 0.0000 0.0000 0.0000 0.0000 0.0000 23.3935
#
#
#
# Elastic Compliance Matrix: (Units=1/GPa)
#
#
# Indices 1 2 3 4 5 6 
#
# 1 0.089753 -0.008427 -0.011984 0.000000 0.000000 0.000000
# 2 -0.008427 0.012801 -0.002429 0.000000 0.000000 0.000000
# 3 -0.011984 -0.002429 0.015053 0.000000 0.000000 0.000000
# 4 0.000000 0.000000 0.000000 0.030319 0.000000 0.000000
# 5 0.000000 0.000000 0.000000 0.000000 0.049049 0.000000
# 6 0.000000 0.000000 0.000000 0.000000 0.000000 0.042747
#
#
# Mechanical properties :
#
#
# Convention : Reuss Voigt Hill
#
# Bulk Modulus (GPa) = 13.90351 31.33809 22.62080
# Shear Modulus (GPa) = 16.16143 24.44621 20.30382
#
# Velocity S-wave (km/s) = 2.79366 3.43589 3.13128
# Velocity P-wave (km/s) = 4.13766 5.55644 4.89868
#
# Compressibility (1/GPa) = 0.07192427
#
# Stress axis : x y z
#
# Youngs Moduli (GPa) = 11.14172 78.11981 66.43240
#
# Poissons Ratio (x) = 0.65835 0.79614
# Poissons Ratio (y) = 0.09390 0.16140
# Poissons Ratio (z) = 0.13352 0.18979
#
# Static dielectric constant tensor:
#      x y z
#    x 1.733150 0.000000 0.000000 
#    y 0.000000 1.709100 0.000000 
#    z 0.000000 0.000000 1.767440 
# 
# From -- ./inp_files/8336.got.cif
#   From: 2010.05.17/outbox.cif.g08.bks.cpg/sg60_5_cif.got.tgz:8336.got - 2010.06.03 14:59:27.
