data_PCOD9455047
_publ_section_title
;
Structure prediction by ZEFSAII (Michael W. Deem and Ramdas Pophale) SiO2 
 PCOD9455047
Probable space group: P B C N
;
_chemical_formula_sum "Si O2"
_cell_formula_units_Z 48
_cell_length_a 8.959015
_cell_length_b 25.655681
_cell_length_c 12.176408
_cell_angle_alpha 90.000000
_cell_angle_beta 90.000000
_cell_angle_gamma 90.000000
_cell_volume 2798.742885
_symmetry_space_group_name_H-M "P B C N"
_symmetry_group_IT_number 60
_symmetry_cell_setting 'orthorhombic'
loop_
_space_group_symop_operation_xyz
x,y,z
1/2-x,1/2-y,1/2+z
1/2+x,1/2-y,-z
-x,y,1/2-z
-x,-y,-z
1/2+x,1/2+y,1/2-z
1/2-x,1/2+y,z
x,-y,1/2+z
loop_
_atom_site_type_symbol
_atom_site_label
_atom_site_fract_x
_atom_site_fract_y
_atom_site_fract_z
Si Si1 0.755563 0.211494 0.135481
Si Si2 0.595153 0.036613 0.358004
Si Si3 0.000000 0.779660 0.250000
Si Si4 0.751287 0.829883 0.394799
Si Si5 0.684712 0.061160 0.003283
Si Si6 0.328301 0.404434 0.784775
Si Si7 0.500000 0.779130 0.250000
O O1 0.615632 0.242681 0.184970
O O2 0.772011 0.153573 0.185519
O O3 0.903118 0.243014 0.169424
O O4 0.743739 0.204170 0.005576
O O5 0.500000 0.018556 0.250000
O O6 0.476640 0.066358 0.436134
O O7 0.724449 0.073020 0.311038
O O8 0.665829 0.989543 0.427652
O O9 0.903151 0.815374 0.331881
O O10 0.731279 0.889484 0.430920
O O11 0.615604 0.813685 0.317215
O O12 0.799296 0.060605 0.105970
O O13 0.500000 0.403488 0.750000
#
# Coordination Sequence:
#
# PCOD9455047 Si02
#       7
#     8   8   4   8   8   8   4
#     4  10  20  36  57  79 111 145 185 230 268 340
#     4   9  19  37  60  83 110 147 186 227 277 338
#     4  10  22  36  56  82 112 148 188 226 294 322
#     4  10  21  36  55  81 112 145 185 229 277 340
#     4   9  20  37  58  81 112 144 187 229 277 338
#     4  10  20  35  57  85 112 143 185 231 280 329
#     4  10  20  36  54  80 110 144 180 226 278 320
#
# _framework density 17.150556999999999
#
# number of rings (size 3 to 8) (size 9 to 14) (size 15 to 20)
#    0.000    2.333    0.833    1.000    7.000    0.667 
#    1.500    3.333    0.000    0.000    0.000    0.000 
#    0.000    0.000    0.000    0.000    0.000    0.000 
#
# Total GULP energy -267637.563721 kJ/mol
# GULP energy per Si atom -5575.782578 kJ/mol
# Density = 1.711152 g / cm^3
# Si number density = 17.150557 Si / 1000 Ang^3
#
#
#
# Elastic Constant Matrix: (Units=GPa)
#
#
# Indices 1 2 3 4 5 6 
#
# 1 119.0027 54.0925 62.1838 0.0000 0.0000 0.0000
# 2 54.0925 62.4418 50.6660 0.0000 0.0000 0.0000
# 3 62.1838 50.6660 101.8730 0.0000 0.0000 0.0000
# 4 0.0000 0.0000 0.0000 32.9563 0.0000 0.0000
# 5 0.0000 0.0000 0.0000 0.0000 19.8209 0.0000
# 6 0.0000 0.0000 0.0000 0.0000 0.0000 30.8722
#
#
#
# Elastic Compliance Matrix: (Units=1/GPa)
#
#
# Indices 1 2 3 4 5 6 
#
# 1 0.015007 -0.009334 -0.004518 0.000000 0.000000 0.000000
# 2 -0.009334 0.032657 -0.010544 0.000000 0.000000 0.000000
# 3 -0.004518 -0.010544 0.017818 0.000000 0.000000 0.000000
# 4 0.000000 0.000000 0.000000 0.030343 0.000000 0.000000
# 5 0.000000 0.000000 0.000000 0.000000 0.050452 0.000000
# 6 0.000000 0.000000 0.000000 0.000000 0.000000 0.032392
#
#
# Mechanical properties :
#
#
# Convention : Reuss Voigt Hill
#
# Bulk Modulus (GPa) = 59.91946 68.57801 64.24874
# Shear Modulus (GPa) = 21.45711 24.48823 22.97267
#
# Velocity S-wave (km/s) = 3.54093 3.78277 3.66385
# Velocity P-wave (km/s) = 7.19241 7.69102 7.44589
#
# Compressibility (1/GPa) = 0.01668907
#
# Stress axis : x y z
#
# Youngs Moduli (GPa) = 66.63607 30.62170 56.12375
#
# Poissons Ratio (x) = 0.28584 0.25356
# Poissons Ratio (y) = 0.62201 0.59176
# Poissons Ratio (z) = 0.30105 0.32287
#
# Static dielectric constant tensor:
#      x y z
#    x 1.564480 0.000000 0.000000 
#    y 0.000000 1.561920 0.000000 
#    z 0.000000 0.000000 1.580580 
# 
# From -- ./inp_files/10160.got.cif
#   From: 2010.05.17/outbox.cif.g08.bks.cpg/sg60_6_cif.got.tgz:10160.got - 2010.06.03 14:59:27.
