data_PCOD9455555
_publ_section_title
;
Structure prediction by ZEFSAII (Michael W. Deem and Ramdas Pophale) SiO2 
 PCOD9455555
Probable space group: P B C N
;
_chemical_formula_sum "Si O2"
_cell_formula_units_Z 56
_cell_length_a 11.724002
_cell_length_b 22.758966
_cell_length_c 11.427751
_cell_angle_alpha 90.000000
_cell_angle_beta 90.000000
_cell_angle_gamma 90.000000
_cell_volume 3049.222950
_symmetry_space_group_name_H-M "P B C N"
_symmetry_group_IT_number 60
_symmetry_cell_setting 'orthorhombic'
loop_
_space_group_symop_operation_xyz
x,y,z
1/2-x,1/2-y,1/2+z
1/2+x,1/2-y,-z
-x,y,1/2-z
-x,-y,-z
1/2+x,1/2+y,1/2-z
1/2-x,1/2+y,z
x,-y,1/2+z
loop_
_atom_site_type_symbol
_atom_site_label
_atom_site_fract_x
_atom_site_fract_y
_atom_site_fract_z
Si Si1 0.697740 0.857277 0.390615
Si Si2 0.428294 0.120914 0.932657
Si Si3 0.281065 0.959846 0.274247
Si Si4 0.937703 0.982315 0.624078
Si Si5 0.689589 0.361590 0.641241
Si Si6 0.129721 0.269882 0.290542
Si Si7 0.624055 0.079779 0.308132
O O1 0.563801 0.872627 0.411940
O O2 0.755325 0.908519 0.313997
O O3 0.755025 0.854467 0.514765
O O4 0.702565 0.797583 0.315364
O O5 0.381367 0.069382 0.849741
O O6 0.366794 0.181572 0.893695
O O7 0.393788 0.104393 0.062948
O O8 0.181830 0.982702 0.360276
O O9 0.327139 0.013863 0.198129
O O10 0.905784 0.912774 0.628791
O O11 0.000000 0.994626 0.750000
O O12 0.000000 0.000000 0.500000
O O13 0.652853 0.296825 0.678785
O O14 0.784838 0.383808 0.732498
O O15 0.000000 0.272587 0.250000
O O16 0.500000 0.080573 0.250000
#
# Coordination Sequence:
#
# PCOD9455555 Si02
#       7
#     8   8   8   8   8   8   8
#     4  10  20  40  61  90 121 151 196 250 305 365
#     4  10  21  39  61  87 124 154 191 249 307 362
#     4  10  23  37  63  87 117 159 193 240 314 359
#     4  11  25  43  62  88 126 163 211 262 297 366
#     4  11  23  37  63  87 118 164 202 248 303 360
#     4   9  21  41  59  81 116 164 202 240 292 355
#     4  11  22  34  58  94 121 147 191 248 298 361
#
# _framework density 18.365335000000002
#
# number of rings (size 3 to 8) (size 9 to 14) (size 15 to 20)
#    0.000    1.714    1.429    3.429   10.000    1.143 
#    0.000    1.429    0.000    0.000    0.000    0.000 
#    0.000    0.000    0.000    0.000    0.000    0.000 
#
# Total GULP energy -312354.775854 kJ/mol
# GULP energy per Si atom -5577.763855 kJ/mol
# Density = 1.832353 g / cm^3
# Si number density = 18.365335 Si / 1000 Ang^3
#
#
#
# Elastic Constant Matrix: (Units=GPa)
#
#
# Indices 1 2 3 4 5 6 
#
# 1 42.4326 31.9046 30.5349 0.0000 0.0000 0.0000
# 2 31.9046 138.3748 56.8573 0.0000 0.0000 0.0000
# 3 30.5349 56.8573 126.8376 0.0000 0.0000 0.0000
# 4 0.0000 0.0000 0.0000 14.6031 0.0000 0.0000
# 5 0.0000 0.0000 0.0000 0.0000 31.4111 0.0000
# 6 0.0000 0.0000 0.0000 0.0000 0.0000 14.9456
#
#
#
# Elastic Compliance Matrix: (Units=1/GPa)
#
#
# Indices 1 2 3 4 5 6 
#
# 1 0.031112 -0.005021 -0.005239 0.000000 0.000000 0.000000
# 2 -0.005021 0.009669 -0.003125 0.000000 0.000000 0.000000
# 3 -0.005239 -0.003125 0.010546 0.000000 0.000000 0.000000
# 4 0.000000 0.000000 0.000000 0.068479 0.000000 0.000000
# 5 0.000000 0.000000 0.000000 0.000000 0.031836 0.000000
# 6 0.000000 0.000000 0.000000 0.000000 0.000000 0.066909
#
#
# Mechanical properties :
#
#
# Convention : Reuss Voigt Hill
#
# Bulk Modulus (GPa) = 40.72278 60.69317 50.70798
# Shear Modulus (GPa) = 19.72330 24.74848 22.23589
#
# Velocity S-wave (km/s) = 3.28066 3.67490 3.48336
# Velocity P-wave (km/s) = 6.04749 7.15024 6.62186
#
# Compressibility (1/GPa) = 0.02455628
#
# Stress axis : x y z
#
# Youngs Moduli (GPa) = 32.14191 103.42797 94.81852
#
# Poissons Ratio (x) = 0.51927 0.49679
# Poissons Ratio (y) = 0.16137 0.29635
# Poissons Ratio (z) = 0.16840 0.32326
#
# Static dielectric constant tensor:
#      x y z
#    x 1.636200 0.000000 0.000000 
#    y 0.000000 1.616860 0.000000 
#    z 0.000000 0.000000 1.653340 
# 
# From -- ./inp_files/11206.got.cif
#   From: 2010.05.17/outbox.cif.g08.bks.cpg/sg60_6_cif.got.tgz:11206.got - 2010.06.03 14:59:27.
