data_PCOD9455756
_publ_section_title
;
Structure prediction by ZEFSAII (Michael W. Deem and Ramdas Pophale) SiO2 
 PCOD9455756
Probable space group: P B C N
;
_chemical_formula_sum "Si O2"
_cell_formula_units_Z 60
_cell_length_a 12.143247
_cell_length_b 8.964725
_cell_length_c 20.692163
_cell_angle_alpha 90.000000
_cell_angle_beta 90.000000
_cell_angle_gamma 90.000000
_cell_volume 2252.566866
_symmetry_space_group_name_H-M "P B C N"
_symmetry_group_IT_number 60
_symmetry_cell_setting 'orthorhombic'
loop_
_space_group_symop_operation_xyz
x,y,z
1/2-x,1/2-y,1/2+z
1/2+x,1/2-y,-z
-x,y,1/2-z
-x,-y,-z
1/2+x,1/2+y,1/2-z
1/2-x,1/2+y,z
x,-y,1/2+z
loop_
_atom_site_type_symbol
_atom_site_label
_atom_site_fract_x
_atom_site_fract_y
_atom_site_fract_z
Si Si1 0.000000 0.341131 0.750000
Si Si2 0.357881 0.009898 0.555762
Si Si3 0.918728 0.237297 0.366539
Si Si4 0.661106 0.555624 0.855776
Si Si5 0.277681 0.778757 0.736076
Si Si6 0.693327 0.475739 0.063946
Si Si7 0.496289 0.241701 0.401843
Si Si8 0.345901 0.772345 0.362737
O O1 0.122692 0.397334 0.734225
O O2 0.027710 0.276393 0.824176
O O3 0.390733 0.183013 0.566491
O O4 0.275867 0.994243 0.617712
O O5 0.273331 0.978958 0.498298
O O6 0.529708 0.086432 0.436776
O O7 0.818075 0.232765 0.316865
O O8 0.030121 0.311211 0.342961
O O9 0.935832 0.061358 0.368694
O O10 0.662815 0.620646 0.783063
O O11 0.619091 0.687062 0.901936
O O12 0.216553 0.793296 0.802209
O O13 0.595856 0.350040 0.066998
O O14 0.655509 0.644190 0.081611
O O15 0.779214 0.416859 0.117087
#
# Coordination Sequence:
#
# PCOD9455756 Si02
#       8
#     4   8   8   8   8   8   8   8
#     4  10  20  44  80 116 154 200 264 326 400 474
#     4  11  27  49  77 115 160 208 275 336 409 491
#     4  11  25  48  77 118 157 205 271 341 410 489
#     4  10  22  46  79 113 148 210 262 328 404 485
#     4  10  23  43  79 116 158 202 262 328 407 487
#     4  12  30  51  78 115 161 216 278 341 417 498
#     4  11  24  50  80 115 157 217 267 340 413 496
#     4  12  28  50  76 117 160 212 272 341 415 490
#
# _framework density 26.636278999999998
#
# number of rings (size 3 to 8) (size 9 to 14) (size 15 to 20)
#    0.000    1.067    2.667    2.800    7.467    2.133 
#    4.800    0.000    0.000    0.000    0.000    0.000 
#    0.000    0.000    0.000    0.000    0.000    0.000 
#
# Total GULP energy -334420.378031 kJ/mol
# GULP energy per Si atom -5573.672967 kJ/mol
# Density = 2.657565 g / cm^3
# Si number density = 26.636279 Si / 1000 Ang^3
#
#
#
# Elastic Constant Matrix: (Units=GPa)
#
#
# Indices 1 2 3 4 5 6 
#
# 1 151.6588 6.1741 43.6188 0.0000 0.0000 0.0000
# 2 6.1741 62.6363 37.6927 0.0000 0.0000 0.0000
# 3 43.6188 37.6927 122.7715 0.0000 0.0000 0.0000
# 4 0.0000 0.0000 0.0000 24.9663 0.0000 0.0000
# 5 0.0000 0.0000 0.0000 0.0000 44.0535 0.0000
# 6 0.0000 0.0000 0.0000 0.0000 0.0000 27.1515
#
#
#
# Elastic Compliance Matrix: (Units=1/GPa)
#
#
# Indices 1 2 3 4 5 6 
#
# 1 0.007400 0.001046 -0.002950 0.000000 0.000000 0.000000
# 2 0.001046 0.019731 -0.006429 0.000000 0.000000 0.000000
# 3 -0.002950 -0.006429 0.011167 0.000000 0.000000 0.000000
# 4 0.000000 0.000000 0.000000 0.040054 0.000000 0.000000
# 5 0.000000 0.000000 0.000000 0.000000 0.022700 0.000000
# 6 0.000000 0.000000 0.000000 0.000000 0.000000 0.036830
#
#
# Mechanical properties :
#
#
# Convention : Reuss Voigt Hill
#
# Bulk Modulus (GPa) = 46.23016 56.89311 51.56163
# Shear Modulus (GPa) = 30.91013 35.87301 33.39157
#
# Velocity S-wave (km/s) = 3.41024 3.67382 3.54448
# Velocity P-wave (km/s) = 5.73586 6.27707 6.01255
#
# Compressibility (1/GPa) = 0.02163090
#
# Stress axis : x y z
#
# Youngs Moduli (GPa) = 135.14163 50.68145 89.54770
#
# Poissons Ratio (x) = -0.05301 0.26417
# Poissons Ratio (y) = -0.14134 0.57573
# Poissons Ratio (z) = 0.39868 0.32585
#
# Static dielectric constant tensor:
#      x y z
#    x 2.075880 0.000000 0.000000 
#    y 0.000000 2.386160 0.000000 
#    z 0.000000 0.000000 2.086410 
# 
# From -- ./inp_files/22671.got.cif
#   From: 2010.05.17/outbox.cif.g08.bks.cpg/sg60_12_cif.got.tgz:22671.got - 2010.06.03 14:59:27.
