data_PCOD9455640
_publ_section_title
;
Structure prediction by ZEFSAII (Michael W. Deem and Ramdas Pophale) SiO2 
 PCOD9455640
Probable space group: P B C N
;
_chemical_formula_sum "Si O2"
_cell_formula_units_Z 40
_cell_length_a 9.775027
_cell_length_b 11.464890
_cell_length_c 14.488421
_cell_angle_alpha 90.000000
_cell_angle_beta 90.000000
_cell_angle_gamma 90.000000
_cell_volume 1623.711681
_symmetry_space_group_name_H-M "P B C N"
_symmetry_group_IT_number 60
_symmetry_cell_setting 'orthorhombic'
loop_
_space_group_symop_operation_xyz
x,y,z
1/2-x,1/2-y,1/2+z
1/2+x,1/2-y,-z
-x,y,1/2-z
-x,-y,-z
1/2+x,1/2+y,1/2-z
1/2-x,1/2+y,z
x,-y,1/2+z
loop_
_atom_site_type_symbol
_atom_site_label
_atom_site_fract_x
_atom_site_fract_y
_atom_site_fract_z
Si Si1 0.762436 0.266916 0.077593
Si Si2 0.346531 0.267483 0.723477
Si Si3 0.291835 0.086132 0.558111
Si Si4 0.591879 0.896517 0.830335
Si Si5 0.480969 0.679953 0.557672
O O1 0.788247 0.290825 0.183435
O O2 0.639231 0.349810 0.043700
O O3 0.697792 0.141512 0.044065
O O4 0.905824 0.253465 0.024167
O O5 0.500000 0.300786 0.750000
O O6 0.333422 0.184218 0.634588
O O7 0.244984 0.374507 0.706168
O O8 0.127044 0.076297 0.572702
O O9 0.384621 0.977908 0.581940
O O10 0.500000 0.950488 0.750000
O O11 0.531956 0.769954 0.856890
#
# Coordination Sequence:
#
# PCOD9455640 Si02
#       5
#     8   8   8   8   8
#     4  10  20  41  63  88 126 166 203 259 318 358
#     4  11  22  42  62  90 128 164 207 261 312 373
#     4   9  23  38  64  88 125 158 214 255 309 382
#     4  11  21  41  61  92 124 166 209 260 307 378
#     4   9  21  38  61  87 124 162 206 255 312 371
#
# _framework density 24.634914999999999
#
# number of rings (size 3 to 8) (size 9 to 14) (size 15 to 20)
#    1.200    0.800    2.000    1.800    0.000    0.800 
#    7.200    2.000    0.000    0.000    0.000    0.000 
#    0.000    0.000    0.000    0.000    0.000    0.000 
#
# Total GULP energy -222920.807042 kJ/mol
# GULP energy per Si atom -5573.020176 kJ/mol
# Density = 2.457885 g / cm^3
# Si number density = 24.634915 Si / 1000 Ang^3
#
#
#
# Elastic Constant Matrix: (Units=GPa)
#
#
# Indices 1 2 3 4 5 6 
#
# 1 153.1344 11.2938 21.9524 0.0000 0.0000 0.0000
# 2 11.2938 41.3022 13.4205 0.0000 0.0000 0.0000
# 3 21.9524 13.4205 82.6276 0.0000 0.0000 0.0000
# 4 0.0000 0.0000 0.0000 29.8437 0.0000 0.0000
# 5 0.0000 0.0000 0.0000 0.0000 41.6133 0.0000
# 6 0.0000 0.0000 0.0000 0.0000 0.0000 7.2583
#
#
#
# Elastic Compliance Matrix: (Units=1/GPa)
#
#
# Indices 1 2 3 4 5 6 
#
# 1 0.006860 -0.001355 -0.001602 0.000000 0.000000 0.000000
# 2 -0.001355 0.025828 -0.003835 0.000000 0.000000 0.000000
# 3 -0.001602 -0.003835 0.013151 0.000000 0.000000 0.000000
# 4 0.000000 0.000000 0.000000 0.033508 0.000000 0.000000
# 5 0.000000 0.000000 0.000000 0.000000 0.024031 0.000000
# 6 0.000000 0.000000 0.000000 0.000000 0.000000 0.137773
#
#
# Mechanical properties :
#
#
# Convention : Reuss Voigt Hill
#
# Bulk Modulus (GPa) = 31.00368 41.15531 36.07949
# Shear Modulus (GPa) = 18.83327 31.10291 24.96809
#
# Velocity S-wave (km/s) = 2.76795 3.55710 3.18704
# Velocity P-wave (km/s) = 4.77786 5.79767 5.31229
#
# Compressibility (1/GPa) = 0.03225424
#
# Stress axis : x y z
#
# Youngs Moduli (GPa) = 145.77551 38.71697 76.03916
#
# Poissons Ratio (x) = 0.05247 0.12185
# Poissons Ratio (y) = 0.19754 0.29162
# Poissons Ratio (z) = 0.23359 0.14848
#
# Static dielectric constant tensor:
#      x y z
#    x 2.038690 0.000000 0.000000 
#    y 0.000000 1.977080 0.000000 
#    z 0.000000 0.000000 1.955880 
# 
# From -- ./inp_files/14690.got.cif
#   From: 2010.05.17/outbox.cif.g08.bks.cpg/sg60_8_cif.got.tgz:14690.got - 2010.06.03 14:59:27.
