data_PCOD9455287
_publ_section_title
;
Structure prediction by ZEFSAII (Michael W. Deem and Ramdas Pophale) SiO2 
 PCOD9455287
Probable space group: P B C N
;
_chemical_formula_sum "Si O2"
_cell_formula_units_Z 56
_cell_length_a 14.919301
_cell_length_b 9.070914
_cell_length_c 19.218864
_cell_angle_alpha 90.000000
_cell_angle_beta 90.000000
_cell_angle_gamma 90.000000
_cell_volume 2600.921466
_symmetry_space_group_name_H-M "P B C N"
_symmetry_group_IT_number 60
_symmetry_cell_setting 'orthorhombic'
loop_
_space_group_symop_operation_xyz
x,y,z
1/2-x,1/2-y,1/2+z
1/2+x,1/2-y,-z
-x,y,1/2-z
-x,-y,-z
1/2+x,1/2+y,1/2-z
1/2-x,1/2+y,z
x,-y,1/2+z
loop_
_atom_site_type_symbol
_atom_site_label
_atom_site_fract_x
_atom_site_fract_y
_atom_site_fract_z
Si Si1 0.010073 0.039310 0.648141
Si Si2 0.000000 0.701939 0.250000
Si Si3 0.767625 0.336268 0.371183
Si Si4 0.677199 0.769995 0.170336
Si Si5 0.647946 0.425522 0.949634
Si Si6 0.500000 0.294859 0.750000
Si Si7 0.687317 0.487896 0.105583
Si Si8 0.311760 0.897187 0.725293
O O1 0.025418 0.193378 0.685388
O O2 0.902960 0.035967 0.649443
O O3 0.053835 0.998617 0.574705
O O4 0.048208 0.909431 0.697442
O O5 0.091254 0.613805 0.260715
O O6 0.837585 0.234817 0.413750
O O7 0.718049 0.454349 0.419473
O O8 0.800364 0.439414 0.306875
O O9 0.700771 0.214609 0.339681
O O10 0.576976 0.781871 0.202928
O O11 0.685082 0.665060 0.101965
O O12 0.728562 0.916299 0.145586
O O13 0.736557 0.671655 0.223850
O O14 0.667638 0.417048 0.031053
#
# Coordination Sequence:
#
# PCOD9455287 Si02
#       8
#     8   4   8   8   8   4   8   8
#     4  10  20  37  63  92 121 172 220 265 327 390
#     4  11  20  38  61  90 127 162 209 280 331 374
#     4  10  22  36  63  93 121 166 219 267 322 392
#     4  11  22  39  62  95 125 167 211 272 339 392
#     4  11  21  40  61  92 130 176 222 262 324 403
#     4   9  20  36  63  90 127 156 215 278 327 392
#     4  11  23  39  63  90 132 172 216 266 325 409
#     4  11  21  39  64  92 129 160 211 279 334 388
#
# _framework density 21.530832
#
# number of rings (size 3 to 8) (size 9 to 14) (size 15 to 20)
#    0.000    1.429    2.857    3.857    2.000    0.000 
#    0.000   10.000    0.000    0.857    0.000    0.000 
#    0.000    0.000    0.000    0.000    0.000    0.000 
#
# Total GULP energy -311914.648703 kJ/mol
# GULP energy per Si atom -5569.904441 kJ/mol
# Density = 2.148183 g / cm^3
# Si number density = 21.530832 Si / 1000 Ang^3
#
#
#
# Elastic Constant Matrix: (Units=GPa)
#
#
# Indices 1 2 3 4 5 6 
#
# 1 113.0820 29.8730 16.4817 0.0000 0.0000 0.0000
# 2 29.8730 123.8664 16.1454 0.0000 0.0000 0.0000
# 3 16.4817 16.1454 72.1609 0.0000 0.0000 0.0000
# 4 0.0000 0.0000 0.0000 18.8829 0.0000 0.0000
# 5 0.0000 0.0000 0.0000 0.0000 31.2702 0.0000
# 6 0.0000 0.0000 0.0000 0.0000 0.0000 -143.8677
#
#
#
# Elastic Compliance Matrix: (Units=1/GPa)
#
#
# Indices 1 2 3 4 5 6 
#
# 1 0.009651 -0.002102 -0.001734 0.000000 0.000000 0.000000
# 2 -0.002102 0.008773 -0.001483 0.000000 0.000000 0.000000
# 3 -0.001734 -0.001483 0.014586 0.000000 0.000000 0.000000
# 4 0.000000 0.000000 0.000000 0.052958 0.000000 0.000000
# 5 0.000000 0.000000 0.000000 0.000000 0.031979 0.000000
# 6 0.000000 0.000000 0.000000 0.000000 0.000000 -0.006951
#
#
# Mechanical properties :
#
#
# Convention : Reuss Voigt Hill
#
# Bulk Modulus (GPa) = 44.69679 48.23438 46.46559
# Shear Modulus (GPa) = 38.73223 -2.30229 18.21497
#
# Velocity S-wave (km/s) = 4.24597 -1.03519 2.91175
# Velocity P-wave (km/s) = 6.69643 4.58501 5.73866
#
# Compressibility (1/GPa) = 0.02237297
#
# Stress axis : x y z
#
# Youngs Moduli (GPa) = 103.61571 113.98173 68.55980
#
# Poissons Ratio (x) = 0.23953 0.11889
# Poissons Ratio (y) = 0.21775 0.10167
# Poissons Ratio (z) = 0.17968 0.16903
#
# Static dielectric constant tensor:
#      x y z
#    x 1.867930 0.000000 0.000000 
#    y 0.000000 1.895090 0.000000 
#    z 0.000000 0.000000 1.852420 
# 
# From -- ./inp_files/22946.got.cif
#   From: 2010.05.17/outbox.cif.g08.bks.cpg/sg60_12_cif.got.tgz:22946.got - 2010.06.03 14:59:27.
