data_PCOD9455992
_publ_section_title
;
Structure prediction by ZEFSAII (Michael W. Deem and Ramdas Pophale) SiO2 
 PCOD9455992
Probable space group: P B C N
;
_chemical_formula_sum "Si O2"
_cell_formula_units_Z 60
_cell_length_a 8.635054
_cell_length_b 19.988568
_cell_length_c 14.388933
_cell_angle_alpha 90.000000
_cell_angle_beta 90.000000
_cell_angle_gamma 90.000000
_cell_volume 2483.563852
_symmetry_space_group_name_H-M "P B C N"
_symmetry_group_IT_number 60
_symmetry_cell_setting 'orthorhombic'
loop_
_space_group_symop_operation_xyz
x,y,z
1/2-x,1/2-y,1/2+z
1/2+x,1/2-y,-z
-x,y,1/2-z
-x,-y,-z
1/2+x,1/2+y,1/2-z
1/2-x,1/2+y,z
x,-y,1/2+z
loop_
_atom_site_type_symbol
_atom_site_label
_atom_site_fract_x
_atom_site_fract_y
_atom_site_fract_z
Si Si1 0.755814 0.273115 0.308641
Si Si2 0.556216 0.142382 0.957634
Si Si3 0.816061 0.625963 0.269487
Si Si4 0.595561 0.527197 0.353433
Si Si5 0.331599 0.611344 0.433611
Si Si6 0.753741 0.645593 0.631302
Si Si7 0.506565 0.278993 0.450308
Si Si8 0.000000 0.930261 0.250000
O O1 0.866914 0.312496 0.377369
O O2 0.756886 0.193371 0.311462
O O3 0.793363 0.296613 0.205509
O O4 0.584527 0.289048 0.349119
O O5 0.402424 0.111495 0.913849
O O6 0.681095 0.094394 0.004872
O O7 0.508633 0.200416 0.031222
O O8 0.751993 0.566424 0.334805
O O9 0.732788 0.617714 0.170351
O O10 0.000000 0.628619 0.250000
O O11 0.500000 0.522136 0.250000
O O12 0.477984 0.561514 0.423860
O O13 0.603034 0.448399 0.350155
O O14 0.391135 0.682118 0.474036
O O15 0.656134 0.683391 0.552543
O O16 0.646474 0.597762 0.691861
#
# Coordination Sequence:
#
# PCOD9455992 Si02
#       8
#     8   8   8   8   8   8   8   4
#     4  11  21  36  57  96 133 168 207 264 338 415
#     4  11  23  34  58  98 137 165 206 277 344 406
#     4  11  20  35  66  97 125 166 222 269 328 399
#     4   8  20  41  65  83 120 176 218 277 309 385
#     4  10  21  38  57  88 132 162 214 267 334 383
#     4  12  22  40  65  91 124 179 225 266 327 414
#     4  11  21  36  58  93 136 170 198 263 345 408
#     4  10  22  46  70  84 126 176 246 262 322 392
#
# _framework density 24.158830999999999
#
# number of rings (size 3 to 8) (size 9 to 14) (size 15 to 20)
#    0.400    1.067    1.333    6.000    0.000    3.200 
#    0.000    2.667    0.000    0.000    0.000    0.000 
#    0.000    0.000    0.000    0.000    0.000    0.000 
#
# Total GULP energy -334742.184219 kJ/mol
# GULP energy per Si atom -5579.036404 kJ/mol
# Density = 2.410384 g / cm^3
# Si number density = 24.158831 Si / 1000 Ang^3
#
#
#
# Elastic Constant Matrix: (Units=GPa)
#
#
# Indices 1 2 3 4 5 6 
#
# 1 98.6244 18.0795 53.9870 0.0000 0.0000 0.0000
# 2 18.0795 45.9589 11.4596 0.0000 0.0000 0.0000
# 3 53.9870 11.4596 79.7534 0.0000 0.0000 0.0000
# 4 0.0000 0.0000 0.0000 28.3218 0.0000 0.0000
# 5 0.0000 0.0000 0.0000 0.0000 44.1298 0.0000
# 6 0.0000 0.0000 0.0000 0.0000 0.0000 22.0342
#
#
#
# Elastic Compliance Matrix: (Units=1/GPa)
#
#
# Indices 1 2 3 4 5 6 
#
# 1 0.016757 -0.003904 -0.010783 0.000000 0.000000 0.000000
# 2 -0.003904 0.023476 -0.000731 0.000000 0.000000 0.000000
# 3 -0.010783 -0.000731 0.019943 0.000000 0.000000 0.000000
# 4 0.000000 0.000000 0.000000 0.035308 0.000000 0.000000
# 5 0.000000 0.000000 0.000000 0.000000 0.022660 0.000000
# 6 0.000000 0.000000 0.000000 0.000000 0.000000 0.045384
#
#
# Mechanical properties :
#
#
# Convention : Reuss Voigt Hill
#
# Bulk Modulus (GPa) = 34.08029 43.48764 38.78396
# Shear Modulus (GPa) = 24.49246 28.28454 26.38850
#
# Velocity S-wave (km/s) = 3.18749 3.42537 3.30857
# Velocity P-wave (km/s) = 5.26158 5.80379 5.53932
#
# Compressibility (1/GPa) = 0.02934247
#
# Stress axis : x y z
#
# Youngs Moduli (GPa) = 59.67489 42.59596 50.14372
#
# Poissons Ratio (x) = 0.16627 0.54068
# Poissons Ratio (y) = 0.23294 0.03665
# Poissons Ratio (z) = 0.64345 0.03113
#
# Static dielectric constant tensor:
#      x y z
#    x 1.977200 0.000000 0.000000 
#    y 0.000000 1.955330 0.000000 
#    z 0.000000 0.000000 2.013340 
# 
# From -- ./inp_files/15380.got.cif
#   From: 2010.05.17/outbox.cif.g08.bks.cpg/sg60_8_cif.got.tgz:15380.got - 2010.06.03 14:59:27.
