data_PCOD9455926
_publ_section_title
;
Structure prediction by ZEFSAII (Michael W. Deem and Ramdas Pophale) SiO2 
 PCOD9455926
Probable space group: P B C N
;
_chemical_formula_sum "Si O2"
_cell_formula_units_Z 40
_cell_length_a 9.285668
_cell_length_b 16.449561
_cell_length_c 9.614332
_cell_angle_alpha 90.000000
_cell_angle_beta 90.000000
_cell_angle_gamma 90.000000
_cell_volume 1468.542701
_symmetry_space_group_name_H-M "P B C N"
_symmetry_group_IT_number 60
_symmetry_cell_setting 'orthorhombic'
loop_
_space_group_symop_operation_xyz
x,y,z
1/2-x,1/2-y,1/2+z
1/2+x,1/2-y,-z
-x,y,1/2-z
-x,-y,-z
1/2+x,1/2+y,1/2-z
1/2-x,1/2+y,z
x,-y,1/2+z
loop_
_atom_site_type_symbol
_atom_site_label
_atom_site_fract_x
_atom_site_fract_y
_atom_site_fract_z
Si Si1 0.149942 0.101489 0.924058
Si Si2 0.419176 0.896287 0.581704
Si Si3 0.269167 0.855333 0.013250
Si Si4 0.210168 0.252338 0.762140
Si Si5 0.826453 0.995670 0.829120
O O1 0.117007 0.186773 0.852242
O O2 0.125193 0.026192 0.820502
O O3 0.324067 0.105699 0.942021
O O4 0.108529 0.078983 0.082101
O O5 0.584663 0.895704 0.543125
O O6 0.377767 0.816009 0.668244
O O7 0.342893 0.968954 0.668108
O O8 0.297739 0.797435 0.145873
O O9 0.165545 0.923850 0.075411
O O10 0.210950 0.804339 0.882133
#
# Coordination Sequence:
#
# PCOD9455926 Si02
#       5
#     8   8   8   8   8
#     4   9  20  35  55  85 120 153 185 234 288 360
#     4  10  21  37  58  87 117 156 189 234 300 345
#     4  11  21  37  59  82 125 151 193 240 286 359
#     4  11  21  37  53  85 121 156 197 226 289 359
#     4   9  19  34  56  87 118 147 187 235 309 350
#
# _framework density 27.237886
#
# number of rings (size 3 to 8) (size 9 to 14) (size 15 to 20)
#    1.200    0.800    2.000    2.400    0.000    3.200 
#    0.000    0.000    0.000    0.000    0.000   74.200 
#    0.000    0.000    0.000    0.000    0.000    0.000 
#
# Total GULP energy -223424.886555 kJ/mol
# GULP energy per Si atom -5585.622164 kJ/mol
# Density = 2.717589 g / cm^3
# Si number density = 27.237886 Si / 1000 Ang^3
#
#
#
# Elastic Constant Matrix: (Units=GPa)
#
#
# Indices 1 2 3 4 5 6 
#
# 1 41.3666 7.1692 24.8715 0.0000 0.0000 0.0000
# 2 7.1692 109.9959 57.6250 0.0000 0.0000 0.0000
# 3 24.8715 57.6250 173.5712 0.0000 0.0000 0.0000
# 4 0.0000 0.0000 0.0000 74.3047 0.0000 0.0000
# 5 0.0000 0.0000 0.0000 0.0000 41.1700 0.0000
# 6 0.0000 0.0000 0.0000 0.0000 0.0000 29.5744
#
#
#
# Elastic Compliance Matrix: (Units=1/GPa)
#
#
# Indices 1 2 3 4 5 6 
#
# 1 0.026462 0.000317 -0.003897 0.000000 0.000000 0.000000
# 2 0.000317 0.011009 -0.003700 0.000000 0.000000 0.000000
# 3 -0.003897 -0.003700 0.007548 0.000000 0.000000 0.000000
# 4 0.000000 0.000000 0.000000 0.013458 0.000000 0.000000
# 5 0.000000 0.000000 0.000000 0.000000 0.024290 0.000000
# 6 0.000000 0.000000 0.000000 0.000000 0.000000 0.033813
#
#
# Mechanical properties :
#
#
# Convention : Reuss Voigt Hill
#
# Bulk Modulus (GPa) = 32.83152 56.02946 44.43049
# Shear Modulus (GPa) = 35.38710 44.69436 40.04073
#
# Velocity S-wave (km/s) = 3.60833 4.05518 3.83827
# Velocity P-wave (km/s) = 5.42585 6.52235 5.99921
#
# Compressibility (1/GPa) = 0.03045853
#
# Stress axis : x y z
#
# Youngs Moduli (GPa) = 37.78962 90.83337 132.48080
#
# Poissons Ratio (x) = -0.02878 0.51629
# Poissons Ratio (y) = -0.01197 0.49023
# Poissons Ratio (z) = 0.14727 0.33612
#
# Static dielectric constant tensor:
#      x y z
#    x 2.261630 0.000000 0.000000 
#    y 0.000000 2.132130 0.000000 
#    z 0.000000 0.000000 2.083390 
# 
# From -- ./inp_files/11778.got.cif
#   From: 2010.05.17/outbox.cif.g08.bks.cpg/sg60_6_cif.got.tgz:11778.got - 2010.06.03 14:59:27.
