data_PCOD9455658
_publ_section_title
;
Structure prediction by ZEFSAII (Michael W. Deem and Ramdas Pophale) SiO2 
 PCOD9455658
Probable space group: P B C N
;
_chemical_formula_sum "Si O2"
_cell_formula_units_Z 60
_cell_length_a 14.211385
_cell_length_b 17.171532
_cell_length_c 12.318807
_cell_angle_alpha 90.000000
_cell_angle_beta 90.000000
_cell_angle_gamma 90.000000
_cell_volume 3006.173899
_symmetry_space_group_name_H-M "P B C N"
_symmetry_group_IT_number 60
_symmetry_cell_setting 'orthorhombic'
loop_
_space_group_symop_operation_xyz
x,y,z
1/2-x,1/2-y,1/2+z
1/2+x,1/2-y,-z
-x,y,1/2-z
-x,-y,-z
1/2+x,1/2+y,1/2-z
1/2-x,1/2+y,z
x,-y,1/2+z
loop_
_atom_site_type_symbol
_atom_site_label
_atom_site_fract_x
_atom_site_fract_y
_atom_site_fract_z
Si Si1 0.307368 0.309674 0.789133
Si Si2 0.797039 0.846139 0.286691
Si Si3 0.670582 0.028353 0.871817
Si Si4 0.140344 0.369920 0.914575
Si Si5 0.877882 0.772238 0.485903
Si Si6 0.000000 0.448656 0.750000
Si Si7 0.587842 0.694200 0.594661
Si Si8 0.267417 0.368842 0.562292
O O1 0.263696 0.224952 0.761530
O O2 0.233435 0.371761 0.840116
O O3 0.378377 0.292663 0.886921
O O4 0.324506 0.342254 0.669818
O O5 0.737479 0.924780 0.287964
O O6 0.816763 0.831093 0.413279
O O7 0.892283 0.833798 0.217609
O O8 0.577521 0.000496 0.809959
O O9 0.723431 0.952742 0.917388
O O10 0.643222 0.081797 0.975102
O O11 0.134213 0.277717 0.933707
O O12 0.053812 0.396304 0.838876
O O13 0.821222 0.690564 0.463245
O O14 0.981763 0.787397 0.439682
O O15 0.653564 0.634082 0.529677
#
# Coordination Sequence:
#
# PCOD9455658 Si02
#       8
#     8   8   8   8   8   4   8   8
#     4  10  20  41  67  86 128 170 217 263 322 379
#     4  10  22  41  64  93 128 174 210 269 325 393
#     4  12  25  41  64  93 147 165 210 269 345 401
#     4  11  22  43  61 101 129 169 216 268 324 400
#     4  11  21  43  69  97 125 166 229 278 314 392
#     4  12  26  38  68 106 132 176 202 268 356 410
#     4  11  24  40  73  96 122 174 236 267 322 388
#     4  11  23  41  65  99 131 175 209 277 339 383
#
# _framework density 19.958926000000002
#
# number of rings (size 3 to 8) (size 9 to 14) (size 15 to 20)
#    0.000    1.067    5.333    2.400    5.600    1.600 
#    0.000    0.667    2.933    0.000    0.000    0.000 
#    0.000    0.000    0.000    0.000    0.000    0.000 
#
# Total GULP energy -334257.250541 kJ/mol
# GULP energy per Si atom -5570.954176 kJ/mol
# Density = 1.991350 g / cm^3
# Si number density = 19.958926 Si / 1000 Ang^3
#
#
#
# Elastic Constant Matrix: (Units=GPa)
#
#
# Indices 1 2 3 4 5 6 
#
# 1 49.5009 22.5302 28.0543 0.0000 0.0000 0.0000
# 2 22.5302 76.2100 24.9445 0.0000 0.0000 0.0000
# 3 28.0543 24.9445 92.2307 0.0000 0.0000 0.0000
# 4 0.0000 0.0000 0.0000 24.2397 0.0000 0.0000
# 5 0.0000 0.0000 0.0000 0.0000 36.3075 0.0000
# 6 0.0000 0.0000 0.0000 0.0000 0.0000 13.0081
#
#
#
# Elastic Compliance Matrix: (Units=1/GPa)
#
#
# Indices 1 2 3 4 5 6 
#
# 1 0.026488 -0.005698 -0.006516 0.000000 0.000000 0.000000
# 2 -0.005698 0.015622 -0.002492 0.000000 0.000000 0.000000
# 3 -0.006516 -0.002492 0.013498 0.000000 0.000000 0.000000
# 4 0.000000 0.000000 0.000000 0.041255 0.000000 0.000000
# 5 0.000000 0.000000 0.000000 0.000000 0.027543 0.000000
# 6 0.000000 0.000000 0.000000 0.000000 0.000000 0.076875
#
#
# Mechanical properties :
#
#
# Convention : Reuss Voigt Hill
#
# Bulk Modulus (GPa) = 38.17298 40.99994 39.58646
# Shear Modulus (GPa) = 20.88344 24.20521 22.54433
#
# Velocity S-wave (km/s) = 3.23820 3.48624 3.36450
# Velocity P-wave (km/s) = 5.75748 6.06563 5.91356
#
# Compressibility (1/GPa) = 0.02619654
#
# Stress axis : x y z
#
# Youngs Moduli (GPa) = 37.75305 64.01328 74.08341
#
# Poissons Ratio (x) = 0.36475 0.48272
# Poissons Ratio (y) = 0.21512 0.18460
# Poissons Ratio (z) = 0.24600 0.15951
#
# Static dielectric constant tensor:
#      x y z
#    x 1.790990 0.000000 0.000000 
#    y 0.000000 1.682050 0.000000 
#    z 0.000000 0.000000 1.756200 
# 
# From -- ./inp_files/12115.got.cif
#   From: 2010.05.17/outbox.cif.g08.bks.cpg/sg60_7_cif.got.tgz:12115.got - 2010.06.03 14:59:27.
