data_PCOD9455596
_publ_section_title
;
Structure prediction by ZEFSAII (Michael W. Deem and Ramdas Pophale) SiO2 
 PCOD9455596
Probable space group: P B C N
;
_chemical_formula_sum "Si O2"
_cell_formula_units_Z 60
_cell_length_a 12.223199
_cell_length_b 12.367836
_cell_length_c 19.119067
_cell_angle_alpha 90.000000
_cell_angle_beta 90.000000
_cell_angle_gamma 90.000000
_cell_volume 2890.315789
_symmetry_space_group_name_H-M "P B C N"
_symmetry_group_IT_number 60
_symmetry_cell_setting 'orthorhombic'
loop_
_space_group_symop_operation_xyz
x,y,z
1/2-x,1/2-y,1/2+z
1/2+x,1/2-y,-z
-x,y,1/2-z
-x,-y,-z
1/2+x,1/2+y,1/2-z
1/2-x,1/2+y,z
x,-y,1/2+z
loop_
_atom_site_type_symbol
_atom_site_label
_atom_site_fract_x
_atom_site_fract_y
_atom_site_fract_z
Si Si1 0.478722 0.685499 0.616467
Si Si2 0.561560 0.909791 0.676630
Si Si3 0.229649 0.868793 0.042143
Si Si4 0.179366 0.896781 0.818751
Si Si5 0.675078 0.783286 0.084148
Si Si6 0.000000 0.971958 0.250000
Si Si7 0.353184 0.543803 0.947787
Si Si8 0.977435 0.421711 0.434175
O O1 0.532735 0.800426 0.633694
O O2 0.352342 0.690308 0.594923
O O3 0.490029 0.608075 0.683924
O O4 0.545603 0.625245 0.554692
O O5 0.500000 0.901315 0.750000
O O6 0.691768 0.919066 0.687946
O O7 0.516108 0.010863 0.633138
O O8 0.351205 0.889365 0.068248
O O9 0.230908 0.797184 0.971696
O O10 0.177125 0.983986 0.019139
O O11 0.171289 0.770629 0.839362
O O12 0.105455 0.949797 0.758790
O O13 0.130380 0.952970 0.888728
O O14 0.749245 0.889308 0.079879
O O15 0.554880 0.817496 0.059976
O O16 0.000000 0.500000 0.500000
#
# Coordination Sequence:
#
# PCOD9455596 Si02
#       8
#     8   8   8   8   8   4   8   8
#     4  11  23  43  65  97 129 178 225 273 343 401
#     4  12  25  43  69  98 134 182 226 278 344 411
#     4  11  25  38  66 101 131 169 218 293 331 401
#     4  10  22  44  65  91 128 179 224 267 332 408
#     4  11  21  41  66  94 130 173 218 270 343 405
#     4  10  24  46  66  92 132 176 228 274 324 410
#     4  10  20  40  66  90 128 173 214 269 337 404
#     4  12  24  45  68 100 137 173 227 284 343 410
#
# _framework density 20.758977999999999
#
# number of rings (size 3 to 8) (size 9 to 14) (size 15 to 20)
#    0.000    1.067    4.667    2.000    3.733    0.000 
#    3.600    0.000    0.000    0.000    0.000    0.000 
#    0.000    0.000    0.000    0.000    0.000    0.000 
#
# Total GULP energy -335148.088659 kJ/mol
# GULP energy per Si atom -5585.801478 kJ/mol
# Density = 2.071173 g / cm^3
# Si number density = 20.758978 Si / 1000 Ang^3
#
#
#
# Elastic Constant Matrix: (Units=GPa)
#
#
# Indices 1 2 3 4 5 6 
#
# 1 164.7127 32.2669 11.9249 0.0000 0.0000 0.0000
# 2 32.2669 67.0614 12.4064 0.0000 0.0000 0.0000
# 3 11.9249 12.4064 13.1830 0.0000 0.0000 0.0000
# 4 0.0000 0.0000 0.0000 24.4361 0.0000 0.0000
# 5 0.0000 0.0000 0.0000 0.0000 29.1726 0.0000
# 6 0.0000 0.0000 0.0000 0.0000 0.0000 30.1651
#
#
#
# Elastic Compliance Matrix: (Units=1/GPa)
#
#
# Indices 1 2 3 4 5 6 
#
# 1 0.006853 -0.002604 -0.003748 0.000000 0.000000 0.000000
# 2 -0.002604 0.019045 -0.015567 0.000000 0.000000 0.000000
# 3 -0.003748 -0.015567 0.093896 0.000000 0.000000 0.000000
# 4 0.000000 0.000000 0.000000 0.040923 0.000000 0.000000
# 5 0.000000 0.000000 0.000000 0.000000 0.034279 0.000000
# 6 0.000000 0.000000 0.000000 0.000000 0.000000 0.033151
#
#
# Mechanical properties :
#
#
# Convention : Reuss Voigt Hill
#
# Bulk Modulus (GPa) = 13.16579 39.79485 26.48032
# Shear Modulus (GPa) = 16.81787 29.31203 23.06495
#
# Velocity S-wave (km/s) = 2.84940 3.76176 3.33691
# Velocity P-wave (km/s) = 4.14505 6.17084 5.25646
#
# Compressibility (1/GPa) = 0.07595443
#
# Stress axis : x y z
#
# Youngs Moduli (GPa) = 145.92977 52.50860 10.65007
#
# Poissons Ratio (x) = 0.13672 0.03992
# Poissons Ratio (y) = 0.37996 0.16579
# Poissons Ratio (z) = 0.54699 0.81742
#
# Static dielectric constant tensor:
#      x y z
#    x 1.745200 0.000000 0.000000 
#    y 0.000000 1.793320 0.000000 
#    z 0.000000 0.000000 1.756870 
# 
# From -- ./inp_files/22686.got.cif
#   From: 2010.05.17/outbox.cif.g08.bks.cpg/sg60_12_cif.got.tgz:22686.got - 2010.06.03 14:59:27.
