data_PCOD9455293
_publ_section_title
;
Structure prediction by ZEFSAII (Michael W. Deem and Ramdas Pophale) SiO2 
 PCOD9455293
Probable space group: P B C N
;
_chemical_formula_sum "Si O2"
_cell_formula_units_Z 40
_cell_length_a 11.496362
_cell_length_b 18.121340
_cell_length_c 7.384807
_cell_angle_alpha 90.000000
_cell_angle_beta 90.000000
_cell_angle_gamma 90.000000
_cell_volume 1538.473036
_symmetry_space_group_name_H-M "P B C N"
_symmetry_group_IT_number 60
_symmetry_cell_setting 'orthorhombic'
loop_
_space_group_symop_operation_xyz
x,y,z
1/2-x,1/2-y,1/2+z
1/2+x,1/2-y,-z
-x,y,1/2-z
-x,-y,-z
1/2+x,1/2+y,1/2-z
1/2-x,1/2+y,z
x,-y,1/2+z
loop_
_atom_site_type_symbol
_atom_site_label
_atom_site_fract_x
_atom_site_fract_y
_atom_site_fract_z
Si Si1 0.320922 0.993270 0.068811
Si Si2 0.332542 0.692163 0.822259
Si Si3 0.255132 0.160415 0.422354
Si Si4 0.396456 0.404869 0.622984
Si Si5 0.602236 0.885816 0.122550
O O1 0.312418 0.919524 0.947061
O O2 0.343275 0.952458 0.258486
O O3 0.193909 0.030779 0.075957
O O4 0.412952 0.061339 0.049495
O O5 0.312759 0.677732 0.610086
O O6 0.202821 0.673125 0.901788
O O7 0.349302 0.776959 0.875448
O O8 0.417501 0.638579 0.934719
O O9 0.166886 0.153786 0.255720
O O10 0.500000 0.433143 0.750000
O O11 0.500000 0.857043 0.250000
#
# Coordination Sequence:
#
# PCOD9455293 Si02
#       5
#     8   8   8   8   8
#     4  10  21  40  62  94 128 173 215 279 335 393
#     4  10  23  41  66  96 132 183 215 280 339 396
#     4  11  21  43  66  90 140 171 222 275 340 399
#     4  11  24  43  69  96 134 178 226 275 336 402
#     4  10  20  37  64  92 126 166 221 269 338 394
#
# _framework density 25.999804999999999
#
# number of rings (size 3 to 8) (size 9 to 14) (size 15 to 20)
#    0.000    1.600    4.000    0.600    0.000    2.400 
#    0.000    0.000    0.000    0.000    0.000    0.000 
#    0.000    0.000    0.000    0.000    0.000    0.000 
#
# Total GULP energy -223294.479399 kJ/mol
# GULP energy per Si atom -5582.361985 kJ/mol
# Density = 2.594063 g / cm^3
# Si number density = 25.999805 Si / 1000 Ang^3
#
#
#
# Elastic Constant Matrix: (Units=GPa)
#
#
# Indices 1 2 3 4 5 6 
#
# 1 76.6540 -3.8097 3.8414 0.0000 0.0000 0.0000
# 2 -3.8097 78.6498 17.5257 0.0000 0.0000 0.0000
# 3 3.8414 17.5257 134.8213 0.0000 0.0000 0.0000
# 4 0.0000 0.0000 0.0000 -66.2693 0.0000 0.0000
# 5 0.0000 0.0000 0.0000 0.0000 23.7092 0.0000
# 6 0.0000 0.0000 0.0000 0.0000 0.0000 9.3676
#
#
#
# Elastic Compliance Matrix: (Units=1/GPa)
#
#
# Indices 1 2 3 4 5 6 
#
# 1 0.013106 0.000739 -0.000470 0.000000 0.000000 0.000000
# 2 0.000739 0.013136 -0.001729 0.000000 0.000000 0.000000
# 3 -0.000470 -0.001729 0.007655 0.000000 0.000000 0.000000
# 4 0.000000 0.000000 0.000000 -0.015090 0.000000 0.000000
# 5 0.000000 0.000000 0.000000 0.000000 0.042178 0.000000
# 6 0.000000 0.000000 0.000000 0.000000 0.000000 0.106751
#
#
# Mechanical properties :
#
#
# Convention : Reuss Voigt Hill
#
# Bulk Modulus (GPa) = 32.27947 36.13780 34.20863
# Shear Modulus (GPa) = 27.62742 11.53267 19.58004
#
# Velocity S-wave (km/s) = 3.26329 2.10839 2.74722
# Velocity P-wave (km/s) = 5.16149 4.45606 4.82170
#
# Compressibility (1/GPa) = 0.03097944
#
# Stress axis : x y z
#
# Youngs Moduli (GPa) = 76.30147 76.12901 130.62836
#
# Poissons Ratio (x) = -0.05629 0.06134
# Poissons Ratio (y) = -0.05642 0.22580
# Poissons Ratio (z) = 0.03583 0.13160
#
# Static dielectric constant tensor:
#      x y z
#    x 2.090910 0.000000 0.000000 
#    y 0.000000 2.111570 0.000000 
#    z 0.000000 0.000000 2.656670 
# 
# From -- ./inp_files/4745.got.cif
#   From: 2010.05.17/outbox.cif.g08.bks.cpg/sg60_3_cif.got.tgz:4745.got - 2010.06.03 14:59:27.
