data_PCOD9455914
_publ_section_title
;
Structure prediction by ZEFSAII (Michael W. Deem and Ramdas Pophale) SiO2 
 PCOD9455914
Probable space group: P B C N
;
_chemical_formula_sum "Si O2"
_cell_formula_units_Z 64
_cell_length_a 13.189325
_cell_length_b 18.025774
_cell_length_c 11.413262
_cell_angle_alpha 90.000000
_cell_angle_beta 90.000000
_cell_angle_gamma 90.000000
_cell_volume 2713.477836
_symmetry_space_group_name_H-M "P B C N"
_symmetry_group_IT_number 60
_symmetry_cell_setting 'orthorhombic'
loop_
_space_group_symop_operation_xyz
x,y,z
1/2-x,1/2-y,1/2+z
1/2+x,1/2-y,-z
-x,y,1/2-z
-x,-y,-z
1/2+x,1/2+y,1/2-z
1/2-x,1/2+y,z
x,-y,1/2+z
loop_
_atom_site_type_symbol
_atom_site_label
_atom_site_fract_x
_atom_site_fract_y
_atom_site_fract_z
Si Si1 0.391626 0.432866 0.095215
Si Si2 0.618150 0.983760 0.887559
Si Si3 0.618732 0.546223 0.626315
Si Si4 0.717560 0.810207 0.389869
Si Si5 0.908534 0.292851 0.614254
Si Si6 0.265633 0.824251 0.355059
Si Si7 0.884411 0.536502 0.136565
Si Si8 0.866937 0.691521 0.422801
O O1 0.378408 0.467939 0.229869
O O2 0.511013 0.413256 0.101592
O O3 0.313772 0.364072 0.083372
O O4 0.379777 0.482625 0.975721
O O5 0.662124 0.995583 0.756757
O O6 0.497527 0.996801 0.874779
O O7 0.628472 0.896574 0.913753
O O8 0.656357 0.025851 0.003871
O O9 0.711384 0.601457 0.601368
O O10 0.628000 0.804696 0.481131
O O11 0.680027 0.837664 0.266263
O O12 0.765390 0.728341 0.373810
O O13 0.830360 0.231291 0.657976
O O14 0.891634 0.375595 0.664064
O O15 0.027382 0.276482 0.622928
O O16 0.348237 0.791270 0.441258
#
# Coordination Sequence:
#
# PCOD9455914 Si02
#       8
#     8   8   8   8   8   8   8   8
#     4   9  18  35  60  87 115 150 192 239 291 345
#     4   9  18  33  54  79 107 143 186 229 275 331
#     4   9  18  35  60  87 115 150 192 239 291 345
#     4  10  21  37  58  84 112 147 193 241 289 346
#     4  10  21  37  57  82 113 149 190 238 291 347
#     4  10  21  37  58  84 112 147 193 241 289 346
#     4   9  18  33  54  79 107 143 186 229 275 331
#     4  10  21  37  57  82 113 149 190 238 291 347
#
# _framework density 23.585968000000001
#
# number of rings (size 3 to 8) (size 9 to 14) (size 15 to 20)
#    0.000    2.500    0.000    1.500    0.000    5.000 
#    0.000   11.250    0.000    6.000    0.000    0.000 
#    0.000    0.000    0.000    0.000    0.000    0.250 
#
# Total GULP energy -356535.283015 kJ/mol
# GULP energy per Si atom -5570.863797 kJ/mol
# Density = 2.353228 g / cm^3
# Si number density = 23.585968 Si / 1000 Ang^3
#
#
#
# Elastic Constant Matrix: (Units=GPa)
#
#
# Indices 1 2 3 4 5 6 
#
# 1 69.0163 -12.1387 4.3625 0.0000 0.0000 0.0000
# 2 -12.1387 48.6434 -0.2868 0.0000 0.0000 0.0000
# 3 4.3625 -0.2868 121.4416 0.0000 0.0000 0.0000
# 4 0.0000 0.0000 0.0000 12.0133 0.0000 0.0000
# 5 0.0000 0.0000 0.0000 0.0000 -19.1397 0.0000
# 6 0.0000 0.0000 0.0000 0.0000 0.0000 32.2501
#
#
#
# Elastic Compliance Matrix: (Units=1/GPa)
#
#
# Indices 1 2 3 4 5 6 
#
# 1 0.015189 0.003787 -0.000537 0.000000 0.000000 0.000000
# 2 0.003787 0.021502 -0.000085 0.000000 0.000000 0.000000
# 3 -0.000537 -0.000085 0.008253 0.000000 0.000000 0.000000
# 4 0.000000 0.000000 0.000000 0.083241 0.000000 0.000000
# 5 0.000000 0.000000 0.000000 0.000000 -0.052248 0.000000
# 6 0.000000 0.000000 0.000000 0.000000 0.000000 0.031008
#
#
# Mechanical properties :
#
#
# Convention : Reuss Voigt Hill
#
# Bulk Modulus (GPa) = 19.50237 24.77504 22.13870
# Shear Modulus (GPa) = 42.47795 21.50235 31.99015
#
# Velocity S-wave (km/s) = 4.24840 3.02264 3.68682
# Velocity P-wave (km/s) = 5.68787 4.76537 5.24693
#
# Compressibility (1/GPa) = 0.05127581
#
# Stress axis : x y z
#
# Youngs Moduli (GPa) = 65.83552 46.50648 121.16092
#
# Poissons Ratio (x) = -0.17613 0.06503
# Poissons Ratio (y) = -0.24934 0.01033
# Poissons Ratio (z) = 0.03533 0.00397
#
# Static dielectric constant tensor:
#      x y z
#    x 1.831610 0.000000 0.000000 
#    y 0.000000 1.919580 0.000000 
#    z 0.000000 0.000000 1.990380 
# 
# From -- ./inp_files/12129.got.cif
#   From: 2010.05.17/outbox.cif.g08.bks.cpg/sg60_7_cif.got.tgz:12129.got - 2010.06.03 14:59:27.
