data_PCOD9455103
_publ_section_title
;
Structure prediction by ZEFSAII (Michael W. Deem and Ramdas Pophale) SiO2 
 PCOD9455103
Probable space group: P B C N
;
_chemical_formula_sum "Si O2"
_cell_formula_units_Z 64
_cell_length_a 21.988947
_cell_length_b 18.517334
_cell_length_c 7.831532
_cell_angle_alpha 90.000000
_cell_angle_beta 90.000000
_cell_angle_gamma 90.000000
_cell_volume 3188.817167
_symmetry_space_group_name_H-M "P B C N"
_symmetry_group_IT_number 60
_symmetry_cell_setting 'orthorhombic'
loop_
_space_group_symop_operation_xyz
x,y,z
1/2-x,1/2-y,1/2+z
1/2+x,1/2-y,-z
-x,y,1/2-z
-x,-y,-z
1/2+x,1/2+y,1/2-z
1/2-x,1/2+y,z
x,-y,1/2+z
loop_
_atom_site_type_symbol
_atom_site_label
_atom_site_fract_x
_atom_site_fract_y
_atom_site_fract_z
Si Si1 0.398956 0.445258 0.295505
Si Si2 0.232378 0.888862 0.862866
Si Si3 0.440562 0.409603 0.636842
Si Si4 0.271506 0.543031 0.985191
Si Si5 0.619152 0.284740 0.693527
Si Si6 0.685730 0.227665 0.250206
Si Si7 0.935318 0.201065 0.842302
Si Si8 0.207533 0.670891 0.863359
O O1 0.449446 0.432092 0.442089
O O2 0.403037 0.524256 0.217901
O O3 0.334984 0.438253 0.392113
O O4 0.412172 0.381894 0.163921
O O5 0.229319 0.924917 0.674940
O O6 0.174540 0.835836 0.875543
O O7 0.291315 0.837549 0.869349
O O8 0.233123 0.956664 0.987844
O O9 0.500000 0.405383 0.750000
O O10 0.407917 0.332326 0.653768
O O11 0.218695 0.585704 0.882280
O O12 0.570082 0.277232 0.541518
O O13 0.651083 0.208524 0.733282
O O14 0.616554 0.253013 0.244724
O O15 0.698694 0.200033 0.442594
O O16 0.731073 0.293678 0.210500
O O17 0.000000 0.208641 0.750000
#
# Coordination Sequence:
#
# PCOD9455103 Si02
#       8
#     8   8   8   8   8   8   8   8
#     4  12  21  33  47  71 100 139 177 206 242 297
#     4  10  21  33  53  75 102 130 169 206 259 302
#     4  12  23  35  48  67 102 142 179 209 239 287
#     4  11  19  33  50  76 100 134 160 208 259 304
#     4  10  20  36  50  73 100 133 172 211 255 295
#     4   9  19  35  51  75 101 131 169 211 256 302
#     4  11  22  35  53  75 103 139 177 210 252 304
#     4   9  19  32  53  72  99 127 164 211 258 300
#
# _framework density 20.070139000000001
#
# number of rings (size 3 to 8) (size 9 to 14) (size 15 to 20)
#    0.000    1.500    3.750    2.250    1.750    1.000 
#    0.000    0.000    0.000    0.000    0.000    8.750 
#    0.000    0.000    0.000    0.000    0.000    0.000 
#
# Total GULP energy -357639.384083 kJ/mol
# GULP energy per Si atom -5588.115376 kJ/mol
# Density = 2.002446 g / cm^3
# Si number density = 20.070139 Si / 1000 Ang^3
#
#
#
# Elastic Constant Matrix: (Units=GPa)
#
#
# Indices 1 2 3 4 5 6 
#
# 1 65.0092 12.8716 9.6222 0.0000 0.0000 0.0000
# 2 12.8716 47.1181 -1.9817 0.0000 0.0000 0.0000
# 3 9.6222 -1.9817 34.1264 0.0000 0.0000 0.0000
# 4 0.0000 0.0000 0.0000 25.1202 0.0000 0.0000
# 5 0.0000 0.0000 0.0000 0.0000 23.1867 0.0000
# 6 0.0000 0.0000 0.0000 0.0000 0.0000 24.2077
#
#
#
# Elastic Compliance Matrix: (Units=1/GPa)
#
#
# Indices 1 2 3 4 5 6 
#
# 1 0.017106 -0.004888 -0.005107 0.000000 0.000000 0.000000
# 2 -0.004888 0.022672 0.002695 0.000000 0.000000 0.000000
# 3 -0.005107 0.002695 0.030899 0.000000 0.000000 0.000000
# 4 0.000000 0.000000 0.000000 0.039809 0.000000 0.000000
# 5 0.000000 0.000000 0.000000 0.000000 0.043128 0.000000
# 6 0.000000 0.000000 0.000000 0.000000 0.000000 0.041309
#
#
# Mechanical properties :
#
#
# Convention : Reuss Voigt Hill
#
# Bulk Modulus (GPa) = 17.83265 20.80867 19.32066
# Shear Modulus (GPa) = 21.90908 22.88567 22.39737
#
# Velocity S-wave (km/s) = 3.30756 3.38047 3.34422
# Velocity P-wave (km/s) = 4.84676 5.06234 4.95572
#
# Compressibility (1/GPa) = 0.05607690
#
# Stress axis : x y z
#
# Youngs Moduli (GPa) = 58.45864 44.10757 32.36323
#
# Poissons Ratio (x) = 0.21559 0.16528
# Poissons Ratio (y) = 0.28573 -0.08721
# Poissons Ratio (z) = 0.29855 -0.11886
#
# Static dielectric constant tensor:
#      x y z
#    x 1.749170 0.000000 0.000000 
#    y 0.000000 1.730620 0.000000 
#    z 0.000000 0.000000 1.796880 
# 
# From -- ./inp_files/7630.got.cif
#   From: 2010.05.17/outbox.cif.g08.bks.cpg/sg60_4_cif.got.tgz:7630.got - 2010.06.03 14:59:27.
