data_PCOD9455053
_publ_section_title
;
Structure prediction by ZEFSAII (Michael W. Deem and Ramdas Pophale) SiO2 
 PCOD9455053
Probable space group: P B C N
;
_chemical_formula_sum "Si O2"
_cell_formula_units_Z 64
_cell_length_a 13.619932
_cell_length_b 20.851892
_cell_length_c 9.474792
_cell_angle_alpha 90.000000
_cell_angle_beta 90.000000
_cell_angle_gamma 90.000000
_cell_volume 2690.853729
_symmetry_space_group_name_H-M "P B C N"
_symmetry_group_IT_number 60
_symmetry_cell_setting 'orthorhombic'
loop_
_space_group_symop_operation_xyz
x,y,z
1/2-x,1/2-y,1/2+z
1/2+x,1/2-y,-z
-x,y,1/2-z
-x,-y,-z
1/2+x,1/2+y,1/2-z
1/2-x,1/2+y,z
x,-y,1/2+z
loop_
_atom_site_type_symbol
_atom_site_label
_atom_site_fract_x
_atom_site_fract_y
_atom_site_fract_z
Si Si1 0.245694 0.717202 0.831129
Si Si2 0.879724 0.409638 0.819248
Si Si3 0.837088 0.852132 0.756850
Si Si4 0.544466 0.539398 0.876094
Si Si5 0.881011 0.730556 0.392907
Si Si6 0.261367 0.926618 0.215347
Si Si7 0.141677 0.484903 0.948950
Si Si8 0.510856 0.344956 0.524325
O O1 0.184934 0.776970 0.768577
O O2 0.348935 0.735814 0.754729
O O3 0.227644 0.645348 0.774751
O O4 0.212232 0.721613 0.996096
O O5 0.761588 0.392268 0.790797
O O6 0.918841 0.339947 0.859187
O O7 0.911098 0.442420 0.671693
O O8 0.896259 0.457304 0.950959
O O9 0.894591 0.871410 0.613340
O O10 0.915674 0.852299 0.880902
O O11 0.500000 0.499961 0.750000
O O12 0.656235 0.552354 0.843617
O O13 0.500000 0.500000 0.000000
O O14 0.495511 0.608614 0.894342
O O15 0.958637 0.774835 0.473678
O O16 0.286061 0.975001 0.343962
O O17 0.325711 0.936673 0.073698
#
# Coordination Sequence:
#
# PCOD9455053 Si02
#       8
#     8   8   8   8   8   8   8   8
#     4  10  20  35  58  80 104 147 196 245 283 335
#     4  10  20  36  57  84 113 147 188 238 286 342
#     4   9  21  36  59  79 111 149 196 234 289 341
#     4  12  27  36  52  77 117 165 193 226 279 339
#     4  10  20  37  58  80 108 149 195 244 293 335
#     4  11  21  39  53  80 113 151 198 230 276 339
#     4  10  22  33  56  81 114 144 184 235 281 340
#     4  10  21  39  54  81 112 152 197 239 283 348
#
# _framework density 23.784272999999999
#
# number of rings (size 3 to 8) (size 9 to 14) (size 15 to 20)
#    0.000    1.750    2.500    1.500   10.500    0.000 
#    0.000    0.000    0.000    0.000    0.000    5.250 
#    0.000    0.000    0.000    0.000    0.000    0.000 
#
# Total GULP energy -356709.070717 kJ/mol
# GULP energy per Si atom -5573.579230 kJ/mol
# Density = 2.373014 g / cm^3
# Si number density = 23.784273 Si / 1000 Ang^3
#
#
#
# Elastic Constant Matrix: (Units=GPa)
#
#
# Indices 1 2 3 4 5 6 
#
# 1 62.8421 18.2548 50.2064 0.0000 0.0000 0.0000
# 2 18.2548 159.1237 61.9057 0.0000 0.0000 0.0000
# 3 50.2064 61.9057 174.5777 0.0000 0.0000 0.0000
# 4 0.0000 0.0000 0.0000 43.1720 0.0000 0.0000
# 5 0.0000 0.0000 0.0000 0.0000 30.5852 0.0000
# 6 0.0000 0.0000 0.0000 0.0000 0.0000 16.5074
#
#
#
# Elastic Compliance Matrix: (Units=1/GPa)
#
#
# Indices 1 2 3 4 5 6 
#
# 1 0.020660 -0.000068 -0.005918 0.000000 0.000000 0.000000
# 2 -0.000068 0.007290 -0.002566 0.000000 0.000000 0.000000
# 3 -0.005918 -0.002566 0.008340 0.000000 0.000000 0.000000
# 4 0.000000 0.000000 0.000000 0.023163 0.000000 0.000000
# 5 0.000000 0.000000 0.000000 0.000000 0.032696 0.000000
# 6 0.000000 0.000000 0.000000 0.000000 0.000000 0.060579
#
#
# Mechanical properties :
#
#
# Convention : Reuss Voigt Hill
#
# Bulk Modulus (GPa) = 52.11571 73.03078 62.57324
# Shear Modulus (GPa) = 28.37258 35.79803 32.08530
#
# Velocity S-wave (km/s) = 3.45760 3.88379 3.67688
# Velocity P-wave (km/s) = 6.15625 7.13330 6.66271
#
# Compressibility (1/GPa) = 0.01918807
#
# Stress axis : x y z
#
# Youngs Moduli (GPa) = 48.40186 137.16763 119.90839
#
# Poissons Ratio (x) = 0.00933 0.70956
# Poissons Ratio (y) = 0.00329 0.30764
# Poissons Ratio (z) = 0.28642 0.35192
#
# Static dielectric constant tensor:
#      x y z
#    x 1.989690 0.000000 0.000000 
#    y 0.000000 1.729970 0.000000 
#    z 0.000000 0.000000 1.988190 
# 
# From -- ./inp_files/7003.got.cif
#   From: 2010.05.17/outbox.cif.g08.bks.cpg/sg60_4_cif.got.tgz:7003.got - 2010.06.03 14:59:27.
