data_PCOD9455665
_publ_section_title
;
Structure prediction by ZEFSAII (Michael W. Deem and Ramdas Pophale) SiO2 
 PCOD9455665
Probable space group: P B C N
;
_chemical_formula_sum "Si O2"
_cell_formula_units_Z 40
_cell_length_a 8.985456
_cell_length_b 23.670771
_cell_length_c 9.232545
_cell_angle_alpha 90.000000
_cell_angle_beta 90.000000
_cell_angle_gamma 90.000000
_cell_volume 1963.694659
_symmetry_space_group_name_H-M "P B C N"
_symmetry_group_IT_number 60
_symmetry_cell_setting 'orthorhombic'
loop_
_space_group_symop_operation_xyz
x,y,z
1/2-x,1/2-y,1/2+z
1/2+x,1/2-y,-z
-x,y,1/2-z
-x,-y,-z
1/2+x,1/2+y,1/2-z
1/2-x,1/2+y,z
x,-y,1/2+z
loop_
_atom_site_type_symbol
_atom_site_label
_atom_site_fract_x
_atom_site_fract_y
_atom_site_fract_z
Si Si1 0.443630 0.090472 0.093267
Si Si2 0.475755 0.307426 0.916570
Si Si3 0.656320 0.372303 0.330908
Si Si4 0.707727 0.191790 0.579687
Si Si5 0.137109 0.472010 0.136481
O O1 0.500000 0.109653 0.250000
O O2 0.329669 0.037884 0.112431
O O3 0.378619 0.141319 0.001130
O O4 0.576209 0.059169 0.006976
O O5 0.500000 0.323819 0.750000
O O6 0.387856 0.248354 0.921956
O O7 0.377144 0.352129 0.006842
O O8 0.634563 0.300922 0.997396
O O9 0.500000 0.371268 0.250000
O O10 0.760276 0.328244 0.244046
O O11 0.728198 0.433551 0.313978
O O12 0.000000 0.469531 0.250000
#
# Coordination Sequence:
#
# PCOD9455665 Si02
#       5
#     8   8   8   8   8
#     4  10  23  37  66 100 124 164 218 262 304 379
#     4  11  26  41  64  95 122 166 213 260 318 378
#     4  10  23  43  64  89 128 167 207 260 324 382
#     4  11  24  42  63  92 129 168 207 257 325 378
#     4  10  20  41  69  91 125 170 214 256 318 372
#
# _framework density 20.369768000000001
#
# number of rings (size 3 to 8) (size 9 to 14) (size 15 to 20)
#    0.000    1.600    2.000    1.200    8.400    2.400 
#    0.000    5.000    0.000    0.000    0.000    0.000 
#    0.000    0.000    0.000    0.000    0.000    0.000 
#
# Total GULP energy -223535.002915 kJ/mol
# GULP energy per Si atom -5588.375073 kJ/mol
# Density = 2.032341 g / cm^3
# Si number density = 20.369768 Si / 1000 Ang^3
#
#
#
# Elastic Constant Matrix: (Units=GPa)
#
#
# Indices 1 2 3 4 5 6 
#
# 1 34.4331 25.9614 16.9536 0.0000 0.0000 0.0000
# 2 25.9614 79.0566 13.0867 0.0000 0.0000 0.0000
# 3 16.9536 13.0867 129.8387 0.0000 0.0000 0.0000
# 4 0.0000 0.0000 0.0000 -53.2522 0.0000 0.0000
# 5 0.0000 0.0000 0.0000 0.0000 20.1643 0.0000
# 6 0.0000 0.0000 0.0000 0.0000 0.0000 15.3776
#
#
#
# Elastic Compliance Matrix: (Units=1/GPa)
#
#
# Indices 1 2 3 4 5 6 
#
# 1 0.040563 -0.012655 -0.004021 0.000000 0.000000 0.000000
# 2 -0.012655 0.016812 -0.000042 0.000000 0.000000 0.000000
# 3 -0.004021 -0.000042 0.008231 0.000000 0.000000 0.000000
# 4 0.000000 0.000000 0.000000 -0.018779 0.000000 0.000000
# 5 0.000000 0.000000 0.000000 0.000000 0.049593 0.000000
# 6 0.000000 0.000000 0.000000 0.000000 0.000000 0.065029
#
#
# Mechanical properties :
#
#
# Convention : Reuss Voigt Hill
#
# Bulk Modulus (GPa) = 31.08478 39.48131 35.28305
# Shear Modulus (GPa) = 24.31802 8.94639 16.63221
#
# Velocity S-wave (km/s) = 3.45893 2.09798 2.86057
# Velocity P-wave (km/s) = 5.58978 5.02922 5.31690
#
# Compressibility (1/GPa) = 0.03217009
#
# Stress axis : x y z
#
# Youngs Moduli (GPa) = 24.65303 59.48180 121.48976
#
# Poissons Ratio (x) = 0.75273 0.48851
# Poissons Ratio (y) = 0.31198 0.00511
# Poissons Ratio (z) = 0.09913 0.00250
#
# Static dielectric constant tensor:
#      x y z
#    x 1.725160 0.000000 0.000000 
#    y 0.000000 1.709780 0.000000 
#    z 0.000000 0.000000 1.763450 
# 
# From -- ./inp_files/3823.got.cif
#   From: 2010.05.17/outbox.cif.g08.bks.cpg/sg60_2_cif.got.tgz:3823.got - 2010.06.03 14:59:27.
