data_PCOD9455845
_publ_section_title
;
Structure prediction by ZEFSAII (Michael W. Deem and Ramdas Pophale) SiO2 
 PCOD9455845
Probable space group: P B C N
;
_chemical_formula_sum "Si O2"
_cell_formula_units_Z 32
_cell_length_a 5.218869
_cell_length_b 13.109700
_cell_length_c 26.151382
_cell_angle_alpha 90.000000
_cell_angle_beta 90.000000
_cell_angle_gamma 90.000000
_cell_volume 1789.220205
_symmetry_space_group_name_H-M "P B C N"
_symmetry_group_IT_number 60
_symmetry_cell_setting 'orthorhombic'
loop_
_space_group_symop_operation_xyz
x,y,z
1/2-x,1/2-y,1/2+z
1/2+x,1/2-y,-z
-x,y,1/2-z
-x,-y,-z
1/2+x,1/2+y,1/2-z
1/2-x,1/2+y,z
x,-y,1/2+z
loop_
_atom_site_type_symbol
_atom_site_label
_atom_site_fract_x
_atom_site_fract_y
_atom_site_fract_z
Si Si1 0.960579 0.063953 0.309703
Si Si2 0.462387 0.024635 0.940836
Si Si3 0.960430 0.653846 0.141538
Si Si4 0.462566 0.614555 0.608111
O O1 0.690142 0.117024 0.321800
O O2 0.000000 0.045232 0.250000
O O3 0.189674 0.134475 0.331066
O O4 0.971059 0.959766 0.342515
O O5 0.193508 0.078746 0.928546
O O6 0.693614 0.094316 0.919862
O O7 0.469806 0.920682 0.907657
O O8 0.500000 0.000000 0.000000
O O9 0.000279 0.769595 0.124854
#
# Coordination Sequence:
#
# PCOD9455845 Si02
#       4
#     8   8   8   8
#     4  10  21  36  54  78 106 138 179 222 266 320
#     4  10  21  36  56  82 110 142 181 222 266 320
#     4  10  21  37  55  79 110 141 178 224 269 318
#     4  10  21  37  55  79 110 141 178 222 267 318
#
# _framework density 17.884886000000002
#
# number of rings (size 3 to 8) (size 9 to 14) (size 15 to 20)
#    0.000    2.000    0.000    3.000    0.000    4.000 
#    0.000    0.000    0.000    0.000    0.000    0.000 
#    0.000    0.000    0.000    0.000    0.000    0.000 
#
# Total GULP energy -178762.533557 kJ/mol
# GULP energy per Si atom -5586.329174 kJ/mol
# Density = 1.784418 g / cm^3
# Si number density = 17.884886 Si / 1000 Ang^3
#
#
#
# Elastic Constant Matrix: (Units=GPa)
#
#
# Indices 1 2 3 4 5 6 
#
# 1 29.1193 -5.8365 -22.1494 0.0000 0.0000 0.0000
# 2 -5.8365 59.4504 -26.1594 0.0000 0.0000 0.0000
# 3 -22.1494 -26.1594 81.7006 0.0000 0.0000 0.0000
# 4 0.0000 0.0000 0.0000 5.2397 0.0000 0.0000
# 5 0.0000 0.0000 0.0000 0.0000 16.2533 0.0000
# 6 0.0000 0.0000 0.0000 0.0000 0.0000 15.8607
#
#
#
# Elastic Compliance Matrix: (Units=1/GPa)
#
#
# Indices 1 2 3 4 5 6 
#
# 1 0.050398 0.012757 0.017748 0.000000 0.000000 0.000000
# 2 0.012757 0.022808 0.010761 0.000000 0.000000 0.000000
# 3 0.017748 0.010761 0.020497 0.000000 0.000000 0.000000
# 4 0.000000 0.000000 0.000000 0.190851 0.000000 0.000000
# 5 0.000000 0.000000 0.000000 0.000000 0.061526 0.000000
# 6 0.000000 0.000000 0.000000 0.000000 0.000000 0.063049
#
#
# Mechanical properties :
#
#
# Convention : Reuss Voigt Hill
#
# Bulk Modulus (GPa) = 5.67419 6.88664 6.28041
# Shear Modulus (GPa) = 12.97547 22.43177 17.70362
#
# Velocity S-wave (km/s) = 2.69643 3.54535 3.14962
# Velocity P-wave (km/s) = 3.58801 4.54074 4.09219
#
# Compressibility (1/GPa) = 0.17623674
#
# Stress axis : x y z
#
# Youngs Moduli (GPa) = 19.84198 43.84340 48.78763
#
# Poissons Ratio (x) = -0.55932 -0.86588
# Poissons Ratio (y) = -0.25313 -0.52503
# Poissons Ratio (z) = -0.35215 -0.47182
#
# Static dielectric constant tensor:
#      x y z
#    x 1.607520 0.000000 0.000000 
#    y 0.000000 1.570730 0.000000 
#    z 0.000000 0.000000 1.574960 
# 
# From -- ./inp_files/21373.got.cif
#   From: 2010.05.17/outbox.cif.g08.bks.cpg/sg60_11_cif.got.tgz:21373.got - 2010.06.03 14:59:27.
