data_PCOD9455502
_publ_section_title
;
Structure prediction by ZEFSAII (Michael W. Deem and Ramdas Pophale) SiO2 
 PCOD9455502
Probable space group: P B C N
;
_chemical_formula_sum "Si O2"
_cell_formula_units_Z 64
_cell_length_a 18.963734
_cell_length_b 8.548242
_cell_length_c 16.977279
_cell_angle_alpha 90.000000
_cell_angle_beta 90.000000
_cell_angle_gamma 90.000000
_cell_volume 2752.128763
_symmetry_space_group_name_H-M "P B C N"
_symmetry_group_IT_number 60
_symmetry_cell_setting 'orthorhombic'
loop_
_space_group_symop_operation_xyz
x,y,z
1/2-x,1/2-y,1/2+z
1/2+x,1/2-y,-z
-x,y,1/2-z
-x,-y,-z
1/2+x,1/2+y,1/2-z
1/2-x,1/2+y,z
x,-y,1/2+z
loop_
_atom_site_type_symbol
_atom_site_label
_atom_site_fract_x
_atom_site_fract_y
_atom_site_fract_z
Si Si1 0.668582 0.472136 0.333204
Si Si2 0.090607 0.971675 0.430640
Si Si3 0.215849 0.869530 0.339678
Si Si4 0.978212 0.307580 0.666623
Si Si5 0.544420 0.367005 0.898984
Si Si6 0.808267 0.616631 0.380224
Si Si7 0.065179 0.511623 0.561424
Si Si8 0.158211 0.469150 0.797415
O O1 0.690025 0.447302 0.242424
O O2 0.590785 0.545801 0.333986
O O3 0.724388 0.584368 0.377916
O O4 0.676534 0.300986 0.372350
O O5 0.057361 0.818894 0.388598
O O6 0.074479 0.952135 0.522321
O O7 0.172185 0.958431 0.407412
O O8 0.039777 0.108438 0.398578
O O9 0.299574 0.891223 0.337701
O O10 0.194356 0.689073 0.331639
O O11 0.923235 0.447649 0.682596
O O12 0.000000 0.238559 0.750000
O O13 0.044245 0.380184 0.624155
O O14 0.562575 0.185914 0.905692
O O15 0.852933 0.536530 0.451072
O O16 0.831201 0.534917 0.296792
O O17 0.000000 0.500000 0.500000
#
# Coordination Sequence:
#
# PCOD9455502 Si02
#       8
#     8   8   8   8   8   8   8   8
#     4  10  21  39  66  93 119 164 208 259 309 376
#     4  10  23  41  62  87 124 163 209 256 313 373
#     4   9  20  38  61  91 120 157 204 254 312 362
#     4  11  21  41  68  89 119 167 210 252 318 375
#     4  11  24  40  60  89 129 164 205 256 311 376
#     4  10  20  39  63  89 124 160 208 256 312 372
#     4  12  24  41  61  91 127 165 208 261 314 373
#     4   9  19  36  63  89 118 155 200 260 308 367
#
# _framework density 23.254726000000002
#
# number of rings (size 3 to 8) (size 9 to 14) (size 15 to 20)
#    0.000    1.750    2.500    1.500    5.250    2.000 
#    4.500    1.250    0.000    0.000    0.000    0.000 
#    0.000    0.000    0.000    0.000    0.000    0.000 
#
# Total GULP energy -357343.067854 kJ/mol
# GULP energy per Si atom -5583.485435 kJ/mol
# Density = 2.320180 g / cm^3
# Si number density = 23.254726 Si / 1000 Ang^3
#
#
#
# Elastic Constant Matrix: (Units=GPa)
#
#
# Indices 1 2 3 4 5 6 
#
# 1 59.3068 -4.2952 -0.7203 0.0000 0.0000 0.0000
# 2 -4.2952 58.6809 -10.7475 0.0000 0.0000 0.0000
# 3 -0.7203 -10.7475 25.6658 0.0000 0.0000 0.0000
# 4 0.0000 0.0000 0.0000 12.1028 0.0000 0.0000
# 5 0.0000 0.0000 0.0000 0.0000 33.1725 0.0000
# 6 0.0000 0.0000 0.0000 0.0000 0.0000 38.7470
#
#
#
# Elastic Compliance Matrix: (Units=1/GPa)
#
#
# Indices 1 2 3 4 5 6 
#
# 1 0.016979 0.001441 0.001080 0.000000 0.000000 0.000000
# 2 0.001441 0.018579 0.007820 0.000000 0.000000 0.000000
# 3 0.001080 0.007820 0.042267 0.000000 0.000000 0.000000
# 4 0.000000 0.000000 0.000000 0.082625 0.000000 0.000000
# 5 0.000000 0.000000 0.000000 0.000000 0.030145 0.000000
# 6 0.000000 0.000000 0.000000 0.000000 0.000000 0.025808
#
#
# Mechanical properties :
#
#
# Convention : Reuss Voigt Hill
#
# Bulk Modulus (GPa) = 10.15160 12.45862 11.30511
# Shear Modulus (GPa) = 21.87620 27.43224 24.65422
#
# Velocity S-wave (km/s) = 3.07044 3.43832 3.25957
# Velocity P-wave (km/s) = 4.11644 4.59693 4.36330
#
# Compressibility (1/GPa) = 0.09850663
#
# Stress axis : x y z
#
# Youngs Moduli (GPa) = 58.89655 53.82401 23.65891
#
# Poissons Ratio (x) = -0.07753 -0.02554
# Poissons Ratio (y) = -0.08484 -0.18502
# Poissons Ratio (z) = -0.06359 -0.42092
#
# Static dielectric constant tensor:
#      x y z
#    x 1.979270 0.000000 0.000000 
#    y 0.000000 1.845450 0.000000 
#    z 0.000000 0.000000 1.927060 
# 
# From -- ./inp_files/23098.got.cif
#   From: 2010.05.17/outbox.cif.g08.bks.cpg/sg60_12_cif.got.tgz:23098.got - 2010.06.03 14:59:27.
