data_PCOD9455509
_publ_section_title
;
Structure prediction by ZEFSAII (Michael W. Deem and Ramdas Pophale) SiO2 
 PCOD9455509
Probable space group: P B C N
;
_chemical_formula_sum "Si O2"
_cell_formula_units_Z 40
_cell_length_a 10.566437
_cell_length_b 8.924991
_cell_length_c 21.775085
_cell_angle_alpha 90.000000
_cell_angle_beta 90.000000
_cell_angle_gamma 90.000000
_cell_volume 2053.507124
_symmetry_space_group_name_H-M "P B C N"
_symmetry_group_IT_number 60
_symmetry_cell_setting 'orthorhombic'
loop_
_space_group_symop_operation_xyz
x,y,z
1/2-x,1/2-y,1/2+z
1/2+x,1/2-y,-z
-x,y,1/2-z
-x,-y,-z
1/2+x,1/2+y,1/2-z
1/2-x,1/2+y,z
x,-y,1/2+z
loop_
_atom_site_type_symbol
_atom_site_label
_atom_site_fract_x
_atom_site_fract_y
_atom_site_fract_z
Si Si1 0.750032 0.719784 0.352136
Si Si2 0.080593 0.474706 0.437097
Si Si3 0.902861 0.976150 0.416992
Si Si4 0.423535 0.973666 0.187918
Si Si5 0.849524 0.126385 0.055187
O O1 0.686879 0.621414 0.406568
O O2 0.816169 0.599890 0.309166
O O3 0.850832 0.842582 0.374859
O O4 0.639949 0.812243 0.320056
O O5 0.125775 0.301910 0.435418
O O6 0.204866 0.578634 0.435309
O O7 0.000000 0.500000 0.500000
O O8 0.997833 0.502804 0.376039
O O9 0.046641 0.029934 0.406829
O O10 0.883597 0.914942 0.485199
O O11 0.500000 0.979587 0.250000
#
# Coordination Sequence:
#
# PCOD9455509 Si02
#       5
#     8   8   8   8   8
#     4  10  21  44  66  88 130 174 213 260 333 390
#     4  12  26  42  65  97 135 171 218 275 327 388
#     4  10  20  39  64  95 131 173 210 262 334 387
#     4  11  25  45  68  94 129 172 219 265 327 390
#     4  11  24  36  63 100 131 167 219 271 319 387
#
# _framework density 19.478869
#
# number of rings (size 3 to 8) (size 9 to 14) (size 15 to 20)
#    0.000    1.200    2.000    4.800    8.400    1.600 
#    0.000    2.000    0.000    0.000    0.000    0.000 
#    0.000    0.000    0.000    0.000    0.000    0.000 
#
# Total GULP energy -223419.248824 kJ/mol
# GULP energy per Si atom -5585.481221 kJ/mol
# Density = 1.943453 g / cm^3
# Si number density = 19.478869 Si / 1000 Ang^3
#
#
#
# Elastic Constant Matrix: (Units=GPa)
#
#
# Indices 1 2 3 4 5 6 
#
# 1 83.6250 12.6846 13.8943 0.0000 0.0000 0.0000
# 2 12.6846 67.5025 -7.4871 0.0000 0.0000 0.0000
# 3 13.8943 -7.4871 66.8567 0.0000 0.0000 0.0000
# 4 0.0000 0.0000 0.0000 7.7318 0.0000 0.0000
# 5 0.0000 0.0000 0.0000 0.0000 31.1160 0.0000
# 6 0.0000 0.0000 0.0000 0.0000 0.0000 43.7237
#
#
#
# Elastic Compliance Matrix: (Units=1/GPa)
#
#
# Indices 1 2 3 4 5 6 
#
# 1 0.012871 -0.002749 -0.002983 0.000000 0.000000 0.000000
# 2 -0.002749 0.015588 0.002317 0.000000 0.000000 0.000000
# 3 -0.002983 0.002317 0.015837 0.000000 0.000000 0.000000
# 4 0.000000 0.000000 0.000000 0.129337 0.000000 0.000000
# 5 0.000000 0.000000 0.000000 0.000000 0.032138 0.000000
# 6 0.000000 0.000000 0.000000 0.000000 0.000000 0.022871
#
#
# Mechanical properties :
#
#
# Convention : Reuss Voigt Hill
#
# Bulk Modulus (GPa) = 26.69144 28.46307 27.57726
# Shear Modulus (GPa) = 20.16458 29.77378 24.96918
#
# Velocity S-wave (km/s) = 3.22095 3.91387 3.58419
# Velocity P-wave (km/s) = 5.25026 5.92186 5.59614
#
# Compressibility (1/GPa) = 0.03746519
#
# Stress axis : x y z
#
# Youngs Moduli (GPa) = 77.69543 64.15226 63.14440
#
# Poissons Ratio (x) = 0.17638 0.18834
# Poissons Ratio (y) = 0.21362 -0.14631
# Poissons Ratio (z) = 0.23174 -0.14864
#
# Static dielectric constant tensor:
#      x y z
#    x 1.711140 0.000000 0.000000 
#    y 0.000000 1.677500 0.000000 
#    z 0.000000 0.000000 1.682090 
# 
# From -- ./inp_files/19872.got.cif
#   From: 2010.05.17/outbox.cif.g08.bks.cpg/sg60_10_cif.got.tgz:19872.got - 2010.06.03 14:59:27.
