data_PCOD9455044
_publ_section_title
;
Structure prediction by ZEFSAII (Michael W. Deem and Ramdas Pophale) SiO2 
 PCOD9455044
Probable space group: P B C N
;
_chemical_formula_sum "Si O2"
_cell_formula_units_Z 40
_cell_length_a 8.795022
_cell_length_b 14.015310
_cell_length_c 17.537357
_cell_angle_alpha 90.000000
_cell_angle_beta 90.000000
_cell_angle_gamma 90.000000
_cell_volume 2161.741605
_symmetry_space_group_name_H-M "P B C N"
_symmetry_group_IT_number 60
_symmetry_cell_setting 'orthorhombic'
loop_
_space_group_symop_operation_xyz
x,y,z
1/2-x,1/2-y,1/2+z
1/2+x,1/2-y,-z
-x,y,1/2-z
-x,-y,-z
1/2+x,1/2+y,1/2-z
1/2-x,1/2+y,z
x,-y,1/2+z
loop_
_atom_site_type_symbol
_atom_site_label
_atom_site_fract_x
_atom_site_fract_y
_atom_site_fract_z
Si Si1 0.270209 0.834104 0.535531
Si Si2 0.579216 0.634450 0.992722
Si Si3 0.997767 0.356178 0.660765
Si Si4 0.789284 0.488830 0.082076
Si Si5 0.059362 0.863032 0.335271
O O1 0.322866 0.730895 0.506280
O O2 0.338160 0.846075 0.620108
O O3 0.089604 0.846009 0.525694
O O4 0.346014 0.913964 0.481130
O O5 0.556579 0.608674 0.903304
O O6 0.662976 0.552969 0.039407
O O7 0.000000 0.377550 0.750000
O O8 0.908216 0.438669 0.617442
O O9 0.920514 0.251170 0.653215
O O10 0.708459 0.424120 0.146428
O O11 0.000000 0.878327 0.250000
#
# Coordination Sequence:
#
# PCOD9455044 Si02
#       5
#     8   8   8   8   8
#     4  10  20  36  55  80 109 142 181 225 270 322
#     4  10  20  35  57  81 109 145 183 222 268 323
#     4  10  22  38  55  78 112 144 177 226 277 319
#     4  11  20  34  58  82 105 140 186 225 265 322
#     4   9  19  35  53  77 109 141 171 216 272 320
#
# _framework density 18.503598
#
# number of rings (size 3 to 8) (size 9 to 14) (size 15 to 20)
#    0.000    2.000    0.000    6.600    0.000    3.200 
#    0.000    4.000    0.000    2.400    0.000    0.000 
#    0.000    0.000    0.000    0.000    0.000    0.000 
#
# Total GULP energy -223140.642211 kJ/mol
# GULP energy per Si atom -5578.516055 kJ/mol
# Density = 1.846148 g / cm^3
# Si number density = 18.503598 Si / 1000 Ang^3
#
#
#
# Elastic Constant Matrix: (Units=GPa)
#
#
# Indices 1 2 3 4 5 6 
#
# 1 33.2041 11.5656 28.5026 0.0000 0.0000 0.0000
# 2 11.5656 81.2475 27.3502 0.0000 0.0000 0.0000
# 3 28.5026 27.3502 111.2227 0.0000 0.0000 0.0000
# 4 0.0000 0.0000 0.0000 23.7321 0.0000 0.0000
# 5 0.0000 0.0000 0.0000 0.0000 20.6269 0.0000
# 6 0.0000 0.0000 0.0000 0.0000 0.0000 25.3666
#
#
#
# Elastic Compliance Matrix: (Units=1/GPa)
#
#
# Indices 1 2 3 4 5 6 
#
# 1 0.039030 -0.002387 -0.009415 0.000000 0.000000 0.000000
# 2 -0.002387 0.013565 -0.002724 0.000000 0.000000 0.000000
# 3 -0.009415 -0.002724 0.012074 0.000000 0.000000 0.000000
# 4 0.000000 0.000000 0.000000 0.042137 0.000000 0.000000
# 5 0.000000 0.000000 0.000000 0.000000 0.048480 0.000000
# 6 0.000000 0.000000 0.000000 0.000000 0.000000 0.039422
#
#
# Mechanical properties :
#
#
# Convention : Reuss Voigt Hill
#
# Bulk Modulus (GPa) = 28.07655 40.05678 34.06666
# Shear Modulus (GPa) = 21.21954 24.49551 22.85752
#
# Velocity S-wave (km/s) = 3.39009 3.64239 3.51850
# Velocity P-wave (km/s) = 5.52540 6.27570 5.91247
#
# Compressibility (1/GPa) = 0.03561692
#
# Stress axis : x y z
#
# Youngs Moduli (GPa) = 25.62121 73.72022 82.82506
#
# Poissons Ratio (x) = 0.17594 0.77982
# Poissons Ratio (y) = 0.06115 0.22562
# Poissons Ratio (z) = 0.24123 0.20082
#
# Static dielectric constant tensor:
#      x y z
#    x 1.632700 0.000000 0.000000 
#    y 0.000000 1.658000 0.000000 
#    z 0.000000 0.000000 1.635330 
# 
# From -- ./inp_files/18999.got.cif
#   From: 2010.05.17/outbox.cif.g08.bks.cpg/sg60_10_cif.got.tgz:18999.got - 2010.06.03 14:59:27.
