data_PCOD9455582
_publ_section_title
;
Structure prediction by ZEFSAII (Michael W. Deem and Ramdas Pophale) SiO2 
 PCOD9455582
Probable space group: P B C N
;
_chemical_formula_sum "Si O2"
_cell_formula_units_Z 60
_cell_length_a 12.150367
_cell_length_b 8.548645
_cell_length_c 24.825203
_cell_angle_alpha 90.000000
_cell_angle_beta 90.000000
_cell_angle_gamma 90.000000
_cell_volume 2578.573333
_symmetry_space_group_name_H-M "P B C N"
_symmetry_group_IT_number 60
_symmetry_cell_setting 'orthorhombic'
loop_
_space_group_symop_operation_xyz
x,y,z
1/2-x,1/2-y,1/2+z
1/2+x,1/2-y,-z
-x,y,1/2-z
-x,-y,-z
1/2+x,1/2+y,1/2-z
1/2-x,1/2+y,z
x,-y,1/2+z
loop_
_atom_site_type_symbol
_atom_site_label
_atom_site_fract_x
_atom_site_fract_y
_atom_site_fract_z
Si Si1 0.370683 0.509203 0.507109
Si Si2 0.000000 0.500000 0.500000
Si Si3 0.698086 0.178758 0.445844
Si Si4 0.258947 0.780840 0.235424
Si Si5 0.897608 0.016986 0.213129
Si Si6 0.130665 0.459253 0.668136
Si Si7 0.099503 0.501223 0.382258
Si Si8 0.672007 0.360091 0.610559
O O1 0.500000 0.500000 0.500000
O O2 0.319519 0.348434 0.529203
O O3 0.335190 0.641194 0.549815
O O4 0.329147 0.568124 0.449150
O O5 0.117521 0.415574 0.514530
O O6 0.046687 0.547382 0.439572
O O7 0.683062 0.105779 0.387187
O O8 0.353880 0.681090 0.263240
O O9 0.165893 0.666157 0.212567
O O10 0.200356 0.896335 0.276600
O O11 0.312139 0.880667 0.187038
O O12 0.911362 0.045276 0.149719
O O13 0.000000 0.970035 0.250000
O O14 0.000856 0.482080 0.659637
O O15 0.138258 0.320832 0.387722
O O16 0.204090 0.608608 0.369014
#
# Coordination Sequence:
#
# PCOD9455582 Si02
#       8
#     8   4   8   8   8   8   8   8
#     4  12  27  42  67  99 138 179 229 277 344 424
#     4  10  20  40  64  92 140 180 216 276 334 406
#     4  11  24  41  65  98 135 181 222 278 338 424
#     4  10  23  45  66 103 130 179 237 292 351 416
#     4  11  25  43  71  96 139 177 237 296 352 414
#     4  10  23  43  71  97 138 180 230 289 353 415
#     4  11  24  42  71  99 145 183 232 283 352 423
#     4  12  24  45  67 103 136 188 232 287 354 425
#
# _framework density 23.268678999999999
#
# number of rings (size 3 to 8) (size 9 to 14) (size 15 to 20)
#    0.000    1.067    2.667    2.400    1.867    8.533 
#    0.000    2.667    0.000    0.000    0.000    0.000 
#    0.000    0.000    0.000    0.000    0.000    0.000 
#
# Total GULP energy -334916.185629 kJ/mol
# GULP energy per Si atom -5581.936427 kJ/mol
# Density = 2.321572 g / cm^3
# Si number density = 23.268679 Si / 1000 Ang^3
#
#
#
# Elastic Constant Matrix: (Units=GPa)
#
#
# Indices 1 2 3 4 5 6 
#
# 1 111.0202 22.7937 -4.8754 0.0000 0.0000 0.0000
# 2 22.7937 64.3496 11.4619 0.0000 0.0000 0.0000
# 3 -4.8754 11.4619 58.9021 0.0000 0.0000 0.0000
# 4 0.0000 0.0000 0.0000 22.8778 0.0000 0.0000
# 5 0.0000 0.0000 0.0000 0.0000 31.7191 0.0000
# 6 0.0000 0.0000 0.0000 0.0000 0.0000 25.8391
#
#
#
# Elastic Compliance Matrix: (Units=1/GPa)
#
#
# Indices 1 2 3 4 5 6 
#
# 1 0.009848 -0.003764 0.001548 0.000000 0.000000 0.000000
# 2 -0.003764 0.017537 -0.003724 0.000000 0.000000 0.000000
# 3 0.001548 -0.003724 0.017830 0.000000 0.000000 0.000000
# 4 0.000000 0.000000 0.000000 0.043711 0.000000 0.000000
# 5 0.000000 0.000000 0.000000 0.000000 0.031527 0.000000
# 6 0.000000 0.000000 0.000000 0.000000 0.000000 0.038701
#
#
# Mechanical properties :
#
#
# Convention : Reuss Voigt Hill
#
# Bulk Modulus (GPa) = 29.99944 32.55914 31.27929
# Shear Modulus (GPa) = 27.45057 29.74665 28.59861
#
# Velocity S-wave (km/s) = 3.43843 3.57935 3.50960
# Velocity P-wave (km/s) = 5.35578 5.57722 5.46762
#
# Compressibility (1/GPa) = 0.03333396
#
# Stress axis : x y z
#
# Youngs Moduli (GPa) = 101.54211 57.02325 56.08495
#
# Poissons Ratio (x) = 0.21464 -0.08680
# Poissons Ratio (y) = 0.38221 0.20886
# Poissons Ratio (z) = -0.15715 0.21236
#
# Static dielectric constant tensor:
#      x y z
#    x 1.875710 0.000000 0.000000 
#    y 0.000000 1.932170 0.000000 
#    z 0.000000 0.000000 1.948260 
# 
# From -- ./inp_files/25354.got.cif
#   From: 2010.05.17/outbox.cif.g08.bks.cpg/sg60_13_cif.got.tgz:25354.got - 2010.06.03 14:59:27.
