data_PCOD9455078
_publ_section_title
;
Structure prediction by ZEFSAII (Michael W. Deem and Ramdas Pophale) SiO2 
 PCOD9455078
Probable space group: P B C N
;
_chemical_formula_sum "Si O2"
_cell_formula_units_Z 60
_cell_length_a 16.884702
_cell_length_b 8.231582
_cell_length_c 16.744575
_cell_angle_alpha 90.000000
_cell_angle_beta 90.000000
_cell_angle_gamma 90.000000
_cell_volume 2327.291793
_symmetry_space_group_name_H-M "P B C N"
_symmetry_group_IT_number 60
_symmetry_cell_setting 'orthorhombic'
loop_
_space_group_symop_operation_xyz
x,y,z
1/2-x,1/2-y,1/2+z
1/2+x,1/2-y,-z
-x,y,1/2-z
-x,-y,-z
1/2+x,1/2+y,1/2-z
1/2-x,1/2+y,z
x,-y,1/2+z
loop_
_atom_site_type_symbol
_atom_site_label
_atom_site_fract_x
_atom_site_fract_y
_atom_site_fract_z
Si Si1 0.335736 0.457651 0.745839
Si Si2 0.899294 0.224825 0.848166
Si Si3 0.043459 0.997983 0.887151
Si Si4 0.656982 0.995323 0.967909
Si Si5 0.228065 0.699554 0.826201
Si Si6 0.000000 0.567099 0.250000
Si Si7 0.944229 0.641342 0.601716
Si Si8 0.817705 0.170532 0.524149
O O1 0.344866 0.570027 0.670069
O O2 0.416127 0.473359 0.798737
O O3 0.269000 0.533882 0.802521
O O4 0.299392 0.280325 0.742199
O O5 0.925744 0.315280 0.766595
O O6 0.977689 0.138163 0.883205
O O7 0.861270 0.367624 0.898404
O O8 0.110295 0.056556 0.949066
O O9 0.015261 0.816802 0.911009
O O10 0.581496 0.964828 0.026317
O O11 0.742389 0.936083 0.999749
O O12 0.662531 0.189316 0.960797
O O13 0.143824 0.688465 0.868109
O O14 0.289543 0.762521 0.893635
O O15 0.013497 0.459089 0.328440
#
# Coordination Sequence:
#
# PCOD9455078 Si02
#       8
#     8   8   8   8   8   4   8   8
#     4  10  20  35  60  90 124 165 214 263 318 381
#     4  12  26  41  63  95 139 178 216 271 342 396
#     4  10  21  42  71  92 125 178 219 270 332 399
#     4  11  24  43  67  99 131 173 220 273 334 396
#     4   9  19  35  64  91 116 167 215 270 322 381
#     4  12  26  42  64  96 136 172 220 278 326 408
#     4  10  23  41  67  97 125 170 232 270 329 398
#     4  10  20  42  70  95 127 167 226 271 325 404
#
# _framework density 25.781040000000001
#
# number of rings (size 3 to 8) (size 9 to 14) (size 15 to 20)
#    0.000    1.600    1.333    4.800    7.467    3.733 
#    0.000    1.333    0.000    0.000    0.000    0.000 
#    0.000    0.000    0.000    0.000    0.000    0.000 
#
# Total GULP energy -335181.421963 kJ/mol
# GULP energy per Si atom -5586.357033 kJ/mol
# Density = 2.572236 g / cm^3
# Si number density = 25.781040 Si / 1000 Ang^3
#
#
#
# Elastic Constant Matrix: (Units=GPa)
#
#
# Indices 1 2 3 4 5 6 
#
# 1 69.4982 18.9916 9.6928 0.0000 0.0000 0.0000
# 2 18.9916 61.9906 -21.4981 0.0000 0.0000 0.0000
# 3 9.6928 -21.4981 25.3278 0.0000 0.0000 0.0000
# 4 0.0000 0.0000 0.0000 15.9140 0.0000 0.0000
# 5 0.0000 0.0000 0.0000 0.0000 35.1554 0.0000
# 6 0.0000 0.0000 0.0000 0.0000 0.0000 -23.7178
#
#
#
# Elastic Compliance Matrix: (Units=1/GPa)
#
#
# Indices 1 2 3 4 5 6 
#
# 1 0.020470 -0.012737 -0.018645 0.000000 0.000000 0.000000
# 2 -0.012737 0.030786 0.031006 0.000000 0.000000 0.000000
# 3 -0.018645 0.031006 0.072936 0.000000 0.000000 0.000000
# 4 0.000000 0.000000 0.000000 0.062838 0.000000 0.000000
# 5 0.000000 0.000000 0.000000 0.000000 0.028445 0.000000
# 6 0.000000 0.000000 0.000000 0.000000 0.000000 -0.042162
#
#
# Mechanical properties :
#
#
# Convention : Reuss Voigt Hill
#
# Bulk Modulus (GPa) = 8.10117 19.02102 13.56110
# Shear Modulus (GPa) = 23.23290 15.44564 19.33927
#
# Velocity S-wave (km/s) = 3.00519 2.45032 2.74183
# Velocity P-wave (km/s) = 3.89753 3.92420 3.91089
#
# Compressibility (1/GPa) = 0.12343888
#
# Stress axis : x y z
#
# Youngs Moduli (GPa) = 48.85202 32.48182 13.71074
#
# Poissons Ratio (x) = 0.41373 0.25564
# Poissons Ratio (y) = 0.62224 -0.42511
# Poissons Ratio (z) = 0.91085 -1.00713
#
# Static dielectric constant tensor:
#      x y z
#    x 2.024750 0.000000 0.000000 
#    y 0.000000 2.029500 0.000000 
#    z 0.000000 0.000000 2.137270 
# 
# From -- ./inp_files/20909.got.cif
#   From: 2010.05.17/outbox.cif.g08.bks.cpg/sg60_11_cif.got.tgz:20909.got - 2010.06.03 14:59:27.
