data_PCOD9455018
_publ_section_title
;
Structure prediction by ZEFSAII (Michael W. Deem and Ramdas Pophale) SiO2 
 PCOD9455018
Probable space group: P B C N
;
_chemical_formula_sum "Si O2"
_cell_formula_units_Z 48
_cell_length_a 7.306668
_cell_length_b 26.618718
_cell_length_c 12.012744
_cell_angle_alpha 90.000000
_cell_angle_beta 90.000000
_cell_angle_gamma 90.000000
_cell_volume 2336.408253
_symmetry_space_group_name_H-M "P B C N"
_symmetry_group_IT_number 60
_symmetry_cell_setting 'orthorhombic'
loop_
_space_group_symop_operation_xyz
x,y,z
1/2-x,1/2-y,1/2+z
1/2+x,1/2-y,-z
-x,y,1/2-z
-x,-y,-z
1/2+x,1/2+y,1/2-z
1/2-x,1/2+y,z
x,-y,1/2+z
loop_
_atom_site_type_symbol
_atom_site_label
_atom_site_fract_x
_atom_site_fract_y
_atom_site_fract_z
Si Si1 0.181310 0.383915 0.465158
Si Si2 0.000000 0.732891 0.750000
Si Si3 0.219325 0.569089 0.736544
Si Si4 0.829904 0.456998 0.833678
Si Si5 0.796278 0.662871 0.885177
Si Si6 0.500000 0.391320 0.750000
Si Si7 0.990350 0.816515 0.562939
O O1 0.274071 0.413634 0.360802
O O2 0.126073 0.429981 0.548749
O O3 0.324446 0.342906 0.515789
O O4 0.995101 0.353021 0.435393
O O5 0.831639 0.695530 0.774119
O O6 0.994706 0.766996 0.860543
O O7 0.237754 0.514460 0.681845
O O8 0.291371 0.610484 0.651928
O O9 0.000000 0.575257 0.750000
O O10 0.661294 0.424553 0.793864
O O11 0.000000 0.452085 0.750000
O O12 0.660931 0.690260 0.968703
O O13 0.419977 0.357090 0.847675
#
# Coordination Sequence:
#
# PCOD9455018 Si02
#       7
#     8   4   8   8   8   4   8
#     4  10  21  41  61  89 126 162 207 251 313 377
#     4  11  24  44  62  96 122 150 226 263 302 396
#     4   9  20  37  57  90 123 160 205 254 297 376
#     4  10  20  34  61  88 121 166 203 243 307 367
#     4  11  22  42  62  84 124 158 198 264 310 363
#     4   9  20  40  54  92 126 146 204 255 284 370
#     4  10  24  40  64  87 121 161 199 261 312 360
#
# _framework density 20.544354999999999
#
# number of rings (size 3 to 8) (size 9 to 14) (size 15 to 20)
#    0.000    2.000    2.500    1.000    2.333    9.333 
#    0.000    5.000    0.000    0.000    0.000    0.000 
#    0.000    0.000    0.000    0.000    0.000    0.000 
#
# Total GULP energy -267204.217059 kJ/mol
# GULP energy per Si atom -5566.754522 kJ/mol
# Density = 2.049759 g / cm^3
# Si number density = 20.544355 Si / 1000 Ang^3
#
#
#
# Elastic Constant Matrix: (Units=GPa)
#
#
# Indices 1 2 3 4 5 6 
#
# 1 45.2628 24.4564 25.8167 0.0000 0.0000 0.0000
# 2 24.4564 105.7778 29.3194 0.0000 0.0000 0.0000
# 3 25.8167 29.3194 84.8539 0.0000 0.0000 0.0000
# 4 0.0000 0.0000 0.0000 34.9925 0.0000 0.0000
# 5 0.0000 0.0000 0.0000 0.0000 23.9801 0.0000
# 6 0.0000 0.0000 0.0000 0.0000 0.0000 8.2261
#
#
#
# Elastic Compliance Matrix: (Units=1/GPa)
#
#
# Indices 1 2 3 4 5 6 
#
# 1 0.028666 -0.004656 -0.007113 0.000000 0.000000 0.000000
# 2 -0.004656 0.011211 -0.002457 0.000000 0.000000 0.000000
# 3 -0.007113 -0.002457 0.014798 0.000000 0.000000 0.000000
# 4 0.000000 0.000000 0.000000 0.028578 0.000000 0.000000
# 5 0.000000 0.000000 0.000000 0.000000 0.041701 0.000000
# 6 0.000000 0.000000 0.000000 0.000000 0.000000 0.121565
#
#
# Mechanical properties :
#
#
# Convention : Reuss Voigt Hill
#
# Bulk Modulus (GPa) = 38.13432 43.89770 41.01601
# Shear Modulus (GPa) = 17.62348 23.85988 20.74168
#
# Velocity S-wave (km/s) = 2.93204 3.41161 3.18087
# Velocity P-wave (km/s) = 5.48313 6.07720 5.78780
#
# Compressibility (1/GPa) = 0.02622310
#
# Stress axis : x y z
#
# Youngs Moduli (GPa) = 34.88458 89.19484 67.57657
#
# Poissons Ratio (x) = 0.41531 0.48065
# Poissons Ratio (y) = 0.16243 0.16605
# Poissons Ratio (z) = 0.24812 0.21917
#
# Static dielectric constant tensor:
#      x y z
#    x 1.709860 0.000000 0.000000 
#    y 0.000000 1.758170 0.000000 
#    z 0.000000 0.000000 1.826860 
# 
# From -- ./inp_files/10159.got.cif
#   From: 2010.05.17/outbox.cif.g08.bks.cpg/sg60_6_cif.got.tgz:10159.got - 2010.06.03 14:59:27.
