data_PCOD9455595
_publ_section_title
;
Structure prediction by ZEFSAII (Michael W. Deem and Ramdas Pophale) SiO2 
 PCOD9455595
Probable space group: P B C N
;
_chemical_formula_sum "Si O2"
_cell_formula_units_Z 64
_cell_length_a 10.824907
_cell_length_b 16.889220
_cell_length_c 18.248819
_cell_angle_alpha 90.000000
_cell_angle_beta 90.000000
_cell_angle_gamma 90.000000
_cell_volume 3336.326388
_symmetry_space_group_name_H-M "P B C N"
_symmetry_group_IT_number 60
_symmetry_cell_setting 'orthorhombic'
loop_
_space_group_symop_operation_xyz
x,y,z
1/2-x,1/2-y,1/2+z
1/2+x,1/2-y,-z
-x,y,1/2-z
-x,-y,-z
1/2+x,1/2+y,1/2-z
1/2-x,1/2+y,z
x,-y,1/2+z
loop_
_atom_site_type_symbol
_atom_site_label
_atom_site_fract_x
_atom_site_fract_y
_atom_site_fract_z
Si Si1 0.458548 0.691360 0.080977
Si Si2 0.559320 0.998859 0.330729
Si Si3 0.666081 0.851932 0.422078
Si Si4 0.547502 0.299113 0.416059
Si Si5 0.184046 0.923003 0.659297
Si Si6 0.408690 0.866810 0.907058
Si Si7 0.477252 0.451722 0.335512
Si Si8 0.162721 0.106558 0.323603
O O1 0.422778 0.779823 0.098281
O O2 0.336520 0.638429 0.094170
O O3 0.559852 0.655350 0.133977
O O4 0.511340 0.687755 0.000139
O O5 0.500000 0.983410 0.250000
O O6 0.678267 0.054080 0.321907
O O7 0.471384 0.050317 0.383777
O O8 0.617237 0.923940 0.372876
O O9 0.807139 0.822008 0.407986
O O10 0.643320 0.867846 0.509271
O O11 0.500300 0.209585 0.398264
O O12 0.471941 0.366834 0.372702
O O13 0.141089 0.887796 0.737060
O O14 0.098153 0.998304 0.639264
O O15 0.293187 0.861880 0.851650
O O16 0.500000 0.438723 0.250000
O O17 0.363605 0.513470 0.343543
#
# Coordination Sequence:
#
# PCOD9455595 Si02
#       8
#     8   8   8   8   8   8   8   8
#     4  10  22  39  65  91 122 172 209 259 316 374
#     4  12  24  41  66  92 128 167 208 265 326 384
#     4  11  24  44  63  91 130 163 217 266 312 387
#     4  11  22  41  66  92 127 166 216 266 312 370
#     4  10  20  40  66  89 126 162 210 257 316 379
#     4  11  24  42  62  94 128 168 208 261 324 381
#     4   9  20  38  64  92 121 160 205 260 308 369
#     4  10  20  41  63  91 130 162 207 257 316 384
#
# _framework density 19.182776
#
# number of rings (size 3 to 8) (size 9 to 14) (size 15 to 20)
#    0.000    1.500    3.750    2.250    0.000    4.500 
#    4.500    0.000    0.000    0.000    0.000    0.000 
#    0.000    0.000    0.000    0.000    0.000    0.000 
#
# Total GULP energy -356666.347589 kJ/mol
# GULP energy per Si atom -5572.911681 kJ/mol
# Density = 1.913912 g / cm^3
# Si number density = 19.182776 Si / 1000 Ang^3
#
#
#
# Elastic Constant Matrix: (Units=GPa)
#
#
# Indices 1 2 3 4 5 6 
#
# 1 92.1672 47.2460 35.0894 0.0000 0.0000 0.0000
# 2 47.2460 101.8376 54.8894 0.0000 0.0000 0.0000
# 3 35.0894 54.8894 32.7808 0.0000 0.0000 0.0000
# 4 0.0000 0.0000 0.0000 78.8399 0.0000 0.0000
# 5 0.0000 0.0000 0.0000 0.0000 30.6705 0.0000
# 6 0.0000 0.0000 0.0000 0.0000 0.0000 18.1370
#
#
#
# Elastic Compliance Matrix: (Units=1/GPa)
#
#
# Indices 1 2 3 4 5 6 
#
# 1 0.024233 0.028089 -0.072973 0.000000 0.000000 0.000000
# 2 0.028089 0.133275 -0.253228 0.000000 0.000000 0.000000
# 3 -0.072973 -0.253228 0.532631 0.000000 0.000000 0.000000
# 4 0.000000 0.000000 0.000000 0.012684 0.000000 0.000000
# 5 0.000000 0.000000 0.000000 0.000000 0.032605 0.000000
# 6 0.000000 0.000000 0.000000 0.000000 0.000000 0.055136
#
#
# Mechanical properties :
#
#
# Convention : Reuss Voigt Hill
#
# Bulk Modulus (GPa) = 10.64782 55.69280 33.17031
# Shear Modulus (GPa) = 3.52586 31.50022 17.51304
#
# Velocity S-wave (km/s) = 1.35721 4.05669 3.02479
# Velocity P-wave (km/s) = 2.83175 7.14409 5.43401
#
# Compressibility (1/GPa) = 0.09391591
#
# Stress axis : x y z
#
# Youngs Moduli (GPa) = 41.26606 7.50329 1.87747
#
# Poissons Ratio (x) = -0.21076 0.13701
# Poissons Ratio (y) = -1.15914 0.47543
# Poissons Ratio (z) = 3.01132 1.90004
#
# Static dielectric constant tensor:
#      x y z
#    x 1.733200 0.000000 0.000000 
#    y 0.000000 1.690850 0.000000 
#    z 0.000000 0.000000 1.659970 
# 
# From -- ./inp_files/20214.got.cif
#   From: 2010.05.17/outbox.cif.g08.bks.cpg/sg60_11_cif.got.tgz:20214.got - 2010.06.03 14:59:27.
