data_PCOD9455832
_publ_section_title
;
Structure prediction by ZEFSAII (Michael W. Deem and Ramdas Pophale) SiO2 
 PCOD9455832
Probable space group: P B C N
;
_chemical_formula_sum "Si O2"
_cell_formula_units_Z 64
_cell_length_a 18.615394
_cell_length_b 9.179080
_cell_length_c 19.490818
_cell_angle_alpha 90.000000
_cell_angle_beta 90.000000
_cell_angle_gamma 90.000000
_cell_volume 3330.438771
_symmetry_space_group_name_H-M "P B C N"
_symmetry_group_IT_number 60
_symmetry_cell_setting 'orthorhombic'
loop_
_space_group_symop_operation_xyz
x,y,z
1/2-x,1/2-y,1/2+z
1/2+x,1/2-y,-z
-x,y,1/2-z
-x,-y,-z
1/2+x,1/2+y,1/2-z
1/2-x,1/2+y,z
x,-y,1/2+z
loop_
_atom_site_type_symbol
_atom_site_label
_atom_site_fract_x
_atom_site_fract_y
_atom_site_fract_z
Si Si1 0.968430 0.710738 0.554084
Si Si2 0.260152 0.191413 0.155435
Si Si3 0.835519 0.038064 0.771978
Si Si4 0.359788 0.562534 0.501984
Si Si5 0.039988 0.033557 0.129119
Si Si6 0.388825 0.626501 0.872661
Si Si7 0.918862 0.604551 0.053331
Si Si8 0.701231 0.925157 0.437199
O O1 0.897115 0.797265 0.531957
O O2 0.949464 0.549241 0.577403
O O3 0.009828 0.807234 0.609994
O O4 0.018419 0.691567 0.486922
O O5 0.310342 0.314960 0.188524
O O6 0.200513 0.283921 0.112643
O O7 0.221442 0.088382 0.210752
O O8 0.300068 0.076489 0.105358
O O9 0.844825 0.073746 0.692640
O O10 0.910298 0.984099 0.804827
O O11 0.411220 0.513756 0.564190
O O12 0.359058 0.440909 0.443168
O O13 0.280376 0.585411 0.529731
O O14 0.970087 0.932085 0.134720
O O15 0.390224 0.798545 0.884747
O O16 0.858629 0.578945 0.995305
#
# Coordination Sequence:
#
# PCOD9455832 Si02
#       8
#     8   8   8   8   8   8   8   8
#     4  10  21  35  60  93 127 157 198 262 321 363
#     4  10  21  39  59  87 122 167 213 260 310 378
#     4  11  24  40  64  87 126 172 213 253 319 388
#     4  11  19  39  65  91 120 162 219 265 309 378
#     4  11  19  42  65  87 117 170 220 252 295 394
#     4  11  23  38  61  92 125 166 205 259 328 382
#     4  11  21  34  58  98 128 153 195 270 330 364
#     4  11  21  36  64  94 120 163 221 266 315 377
#
# _framework density 19.216688000000001
#
# number of rings (size 3 to 8) (size 9 to 14) (size 15 to 20)
#    0.000    1.250    5.000    3.375    0.000    1.000 
#    0.000    6.250    0.000    3.000    0.000    0.000 
#    0.000    0.000    0.000    0.000    0.000    0.000 
#
# Total GULP energy -357608.423499 kJ/mol
# GULP energy per Si atom -5587.631617 kJ/mol
# Density = 1.917295 g / cm^3
# Si number density = 19.216688 Si / 1000 Ang^3
#
#
#
# Elastic Constant Matrix: (Units=GPa)
#
#
# Indices 1 2 3 4 5 6 
#
# 1 66.4526 22.6040 14.0791 0.0000 0.0000 0.0000
# 2 22.6040 110.2094 18.0405 0.0000 0.0000 0.0000
# 3 14.0791 18.0405 57.0364 0.0000 0.0000 0.0000
# 4 0.0000 0.0000 0.0000 22.3980 0.0000 0.0000
# 5 0.0000 0.0000 0.0000 0.0000 21.7341 0.0000
# 6 0.0000 0.0000 0.0000 0.0000 0.0000 13.2453
#
#
#
# Elastic Compliance Matrix: (Units=1/GPa)
#
#
# Indices 1 2 3 4 5 6 
#
# 1 0.016715 -0.002903 -0.003208 0.000000 0.000000 0.000000
# 2 -0.002903 0.010073 -0.002470 0.000000 0.000000 0.000000
# 3 -0.003208 -0.002470 0.019106 0.000000 0.000000 0.000000
# 4 0.000000 0.000000 0.000000 0.044647 0.000000 0.000000
# 5 0.000000 0.000000 0.000000 0.000000 0.046011 0.000000
# 6 0.000000 0.000000 0.000000 0.000000 0.000000 0.075499
#
#
# Mechanical properties :
#
#
# Convention : Reuss Voigt Hill
#
# Bulk Modulus (GPa) = 34.80294 38.12731 36.46512
# Shear Modulus (GPa) = 20.93896 23.40715 22.17305
#
# Velocity S-wave (km/s) = 3.30453 3.49386 3.40051
# Velocity P-wave (km/s) = 5.71926 6.01331 5.86813
#
# Compressibility (1/GPa) = 0.02873321
#
# Stress axis : x y z
#
# Youngs Moduli (GPa) = 59.82472 99.27197 52.34069
#
# Poissons Ratio (x) = 0.28821 0.16790
# Poissons Ratio (y) = 0.17369 0.12926
# Poissons Ratio (z) = 0.19191 0.24515
#
# Static dielectric constant tensor:
#      x y z
#    x 1.670300 0.000000 0.000000 
#    y 0.000000 1.688460 0.000000 
#    z 0.000000 0.000000 1.656360 
# 
# From -- ./inp_files/23092.got.cif
#   From: 2010.05.17/outbox.cif.g08.bks.cpg/sg60_12_cif.got.tgz:23092.got - 2010.06.03 14:59:27.
