data_PCOD9455899
_publ_section_title
;
Structure prediction by ZEFSAII (Michael W. Deem and Ramdas Pophale) SiO2 
 PCOD9455899
Probable space group: P B C N
;
_chemical_formula_sum "Si O2"
_cell_formula_units_Z 48
_cell_length_a 7.991259
_cell_length_b 21.876682
_cell_length_c 12.161878
_cell_angle_alpha 90.000000
_cell_angle_beta 90.000000
_cell_angle_gamma 90.000000
_cell_volume 2126.166656
_symmetry_space_group_name_H-M "P B C N"
_symmetry_group_IT_number 60
_symmetry_cell_setting 'orthorhombic'
loop_
_space_group_symop_operation_xyz
x,y,z
1/2-x,1/2-y,1/2+z
1/2+x,1/2-y,-z
-x,y,1/2-z
-x,-y,-z
1/2+x,1/2+y,1/2-z
1/2-x,1/2+y,z
x,-y,1/2+z
loop_
_atom_site_type_symbol
_atom_site_label
_atom_site_fract_x
_atom_site_fract_y
_atom_site_fract_z
Si Si1 0.808512 0.083956 0.635556
Si Si2 0.168289 0.838934 0.797800
Si Si3 0.705219 0.381800 0.370672
Si Si4 0.858153 0.722279 0.011734
Si Si5 0.648870 0.460099 0.558296
Si Si6 0.209305 0.659938 0.061166
O O1 0.734553 0.111803 0.746466
O O2 0.726841 0.103916 0.521444
O O3 0.003421 0.106543 0.631357
O O4 0.788291 0.011088 0.642319
O O5 0.262838 0.791370 0.874571
O O6 0.116351 0.898790 0.870072
O O7 0.275587 0.855642 0.689410
O O8 0.000000 0.810876 0.750000
O O9 0.762302 0.317849 0.420311
O O10 0.760875 0.433973 0.458354
O O11 0.040650 0.695508 0.031791
O O12 0.852786 0.792088 0.975649
O O13 0.500000 0.500000 0.500000
#
# Coordination Sequence:
#
# PCOD9455899 Si02
#       6
#     8   8   8   8   8   8
#     4  10  21  36  66  97 129 171 216 269 322 388
#     4  11  23  41  70  99 130 167 220 273 331 392
#     4   9  20  39  61  93 133 166 218 267 323 382
#     4  11  25  45  64  95 132 174 219 276 329 399
#     4   9  19  36  65  99 129 166 218 269 320 393
#     4  12  25  42  68  93 132 173 223 271 337 392
#
# _framework density 22.575841
#
# number of rings (size 3 to 8) (size 9 to 14) (size 15 to 20)
#    0.000    1.667    0.000    5.500    9.333    0.667 
#    0.000    3.333    7.333    0.000    0.000    0.000 
#    0.000    0.000    0.000    0.000    0.000    0.000 
#
# Total GULP energy -267924.078410 kJ/mol
# GULP energy per Si atom -5581.751634 kJ/mol
# Density = 2.252446 g / cm^3
# Si number density = 22.575841 Si / 1000 Ang^3
#
#
#
# Elastic Constant Matrix: (Units=GPa)
#
#
# Indices 1 2 3 4 5 6 
#
# 1 45.5361 -7.2804 0.4968 0.0000 0.0000 0.0000
# 2 -7.2804 67.8063 14.7226 0.0000 0.0000 0.0000
# 3 0.4968 14.7226 149.2082 0.0000 0.0000 0.0000
# 4 0.0000 0.0000 0.0000 17.9496 0.0000 0.0000
# 5 0.0000 0.0000 0.0000 0.0000 23.1595 0.0000
# 6 0.0000 0.0000 0.0000 0.0000 0.0000 15.8330
#
#
#
# Elastic Compliance Matrix: (Units=1/GPa)
#
#
# Indices 1 2 3 4 5 6 
#
# 1 0.022359 0.002470 -0.000318 0.000000 0.000000 0.000000
# 2 0.002470 0.015344 -0.001522 0.000000 0.000000 0.000000
# 3 -0.000318 -0.001522 0.006853 0.000000 0.000000 0.000000
# 4 0.000000 0.000000 0.000000 0.055712 0.000000 0.000000
# 5 0.000000 0.000000 0.000000 0.000000 0.043179 0.000000
# 6 0.000000 0.000000 0.000000 0.000000 0.000000 0.063159
#
#
# Mechanical properties :
#
#
# Convention : Reuss Voigt Hill
#
# Bulk Modulus (GPa) = 21.82704 30.93649 26.38176
# Shear Modulus (GPa) = 22.66358 28.36252 25.51305
#
# Velocity S-wave (km/s) = 3.17185 3.54831 3.36535
# Velocity P-wave (km/s) = 4.80661 5.52453 5.17803
#
# Compressibility (1/GPa) = 0.04581474
#
# Stress axis : x y z
#
# Youngs Moduli (GPa) = 44.72481 65.17381 145.91510
#
# Poissons Ratio (x) = -0.16097 0.04642
# Poissons Ratio (y) = -0.11046 0.22211
# Poissons Ratio (z) = 0.01423 0.09921
#
# Static dielectric constant tensor:
#      x y z
#    x 1.916110 0.000000 0.000000 
#    y 0.000000 1.828970 0.000000 
#    z 0.000000 0.000000 1.870070 
# 
# From -- ./inp_files/10069.got.cif
#   From: 2010.05.17/outbox.cif.g08.bks.cpg/sg60_6_cif.got.tgz:10069.got - 2010.06.03 14:59:27.
