data_PCOD9455536
_publ_section_title
;
Structure prediction by ZEFSAII (Michael W. Deem and Ramdas Pophale) SiO2 
 PCOD9455536
Probable space group: P B C N
;
_chemical_formula_sum "Si O2"
_cell_formula_units_Z 40
_cell_length_a 8.662674
_cell_length_b 24.571976
_cell_length_c 7.681651
_cell_angle_alpha 90.000000
_cell_angle_beta 90.000000
_cell_angle_gamma 90.000000
_cell_volume 1635.108686
_symmetry_space_group_name_H-M "P B C N"
_symmetry_group_IT_number 60
_symmetry_cell_setting 'orthorhombic'
loop_
_space_group_symop_operation_xyz
x,y,z
1/2-x,1/2-y,1/2+z
1/2+x,1/2-y,-z
-x,y,1/2-z
-x,-y,-z
1/2+x,1/2+y,1/2-z
1/2-x,1/2+y,z
x,-y,1/2+z
loop_
_atom_site_type_symbol
_atom_site_label
_atom_site_fract_x
_atom_site_fract_y
_atom_site_fract_z
Si Si1 0.679487 0.515332 0.292113
Si Si2 0.288693 0.080858 0.880427
Si Si3 0.348809 0.309185 0.505720
Si Si4 0.798210 0.193305 0.079901
Si Si5 0.097051 0.406662 0.922615
O O1 0.500000 0.516340 0.250000
O O2 0.741756 0.453480 0.288661
O O3 0.697207 0.547428 0.470965
O O4 0.788961 0.548257 0.158048
O O5 0.230500 0.142240 0.898940
O O6 0.465935 0.076274 0.940468
O O7 0.533926 0.309016 0.491579
O O8 0.316930 0.316818 0.712501
O O9 0.278017 0.251774 0.449436
O O10 0.688878 0.145660 0.011744
O O11 0.000000 0.388726 0.750000
#
# Coordination Sequence:
#
# PCOD9455536 Si02
#       5
#     8   8   8   8   8
#     4  11  22  40  64  92 130 173 218 269 329 390
#     4  11  23  42  64  94 131 174 218 271 330 390
#     4  11  24  43  69  98 132 169 219 268 333 393
#     4  11  23  43  71  95 130 173 213 274 331 394
#     4  10  20  39  69  89 130 175 215 270 334 389
#
# _framework density 24.463207000000001
#
# number of rings (size 3 to 8) (size 9 to 14) (size 15 to 20)
#    0.000    1.200    4.000    3.600    0.000    0.000 
#    7.200    0.000    8.800    0.000    0.000    0.000 
#    0.000    0.000    0.000    0.000    0.000    0.000 
#
# Total GULP energy -224307.321817 kJ/mol
# GULP energy per Si atom -5607.683045 kJ/mol
# Density = 2.440753 g / cm^3
# Si number density = 24.463207 Si / 1000 Ang^3
#
#
#
# Elastic Constant Matrix: (Units=GPa)
#
#
# Indices 1 2 3 4 5 6 
#
# 1 197.3066 58.0625 2.0789 0.0000 0.0000 0.0000
# 2 58.0625 173.1489 -1.9959 0.0000 0.0000 0.0000
# 3 2.0789 -1.9959 72.1551 0.0000 0.0000 0.0000
# 4 0.0000 0.0000 0.0000 45.6453 0.0000 0.0000
# 5 0.0000 0.0000 0.0000 0.0000 17.5510 0.0000
# 6 0.0000 0.0000 0.0000 0.0000 0.0000 51.4530
#
#
#
# Elastic Compliance Matrix: (Units=1/GPa)
#
#
# Indices 1 2 3 4 5 6 
#
# 1 0.005626 -0.001889 -0.000214 0.000000 0.000000 0.000000
# 2 -0.001889 0.006412 0.000232 0.000000 0.000000 0.000000
# 3 -0.000214 0.000232 0.013872 0.000000 0.000000 0.000000
# 4 0.000000 0.000000 0.000000 0.021908 0.000000 0.000000
# 5 0.000000 0.000000 0.000000 0.000000 0.056977 0.000000
# 6 0.000000 0.000000 0.000000 0.000000 0.000000 0.019435
#
#
# Mechanical properties :
#
#
# Convention : Reuss Voigt Hill
#
# Bulk Modulus (GPa) = 45.11403 62.10020 53.60711
# Shear Modulus (GPa) = 36.93798 48.56086 42.74942
#
# Velocity S-wave (km/s) = 3.89001 4.46023 4.18484
# Velocity P-wave (km/s) = 6.21754 7.20868 6.73138
#
# Compressibility (1/GPa) = 0.02216605
#
# Stress axis : x y z
#
# Youngs Moduli (GPa) = 177.73167 155.96828 72.08966
#
# Poissons Ratio (x) = 0.29466 0.01545
# Poissons Ratio (y) = 0.33577 -0.01671
# Poissons Ratio (z) = 0.03810 -0.03615
#
# Static dielectric constant tensor:
#      x y z
#    x 1.885300 0.000000 0.000000 
#    y 0.000000 1.868550 0.000000 
#    z 0.000000 0.000000 2.095440 
# 
# From -- ./inp_files/3830.got.cif
#   From: 2010.05.17/outbox.cif.g08.bks.cpg/sg60_2_cif.got.tgz:3830.got - 2010.06.03 14:59:27.
