data_PCOD9455924
_publ_section_title
;
Structure prediction by ZEFSAII (Michael W. Deem and Ramdas Pophale) SiO2 
 PCOD9455924
Probable space group: P B C N
;
_chemical_formula_sum "Si O2"
_cell_formula_units_Z 48
_cell_length_a 8.960831
_cell_length_b 14.425159
_cell_length_c 15.506685
_cell_angle_alpha 90.000000
_cell_angle_beta 90.000000
_cell_angle_gamma 90.000000
_cell_volume 2004.415998
_symmetry_space_group_name_H-M "P B C N"
_symmetry_group_IT_number 60
_symmetry_cell_setting 'orthorhombic'
loop_
_space_group_symop_operation_xyz
x,y,z
1/2-x,1/2-y,1/2+z
1/2+x,1/2-y,-z
-x,y,1/2-z
-x,-y,-z
1/2+x,1/2+y,1/2-z
1/2-x,1/2+y,z
x,-y,1/2+z
loop_
_atom_site_type_symbol
_atom_site_label
_atom_site_fract_x
_atom_site_fract_y
_atom_site_fract_z
Si Si1 0.159029 0.260787 0.281652
Si Si2 0.679847 0.700713 0.893566
Si Si3 0.363276 0.987928 0.899422
Si Si4 0.789701 0.497342 0.918371
Si Si5 0.150443 0.734661 0.438791
Si Si6 0.339853 0.450512 0.750640
O O1 0.275307 0.276793 0.204250
O O2 0.232488 0.283342 0.373388
O O3 0.134379 0.150139 0.291423
O O4 0.000000 0.301026 0.250000
O O5 0.698459 0.591175 0.906287
O O6 0.514303 0.729606 0.919255
O O7 0.794842 0.744207 0.963136
O O8 0.359076 0.876683 0.919112
O O9 0.279281 0.003017 0.809874
O O10 0.535887 0.015646 0.898719
O O11 0.284164 0.032774 0.982585
O O12 0.725577 0.433123 0.843971
O O13 0.500000 0.499229 0.750000
#
# Coordination Sequence:
#
# PCOD9455924 Si02
#       6
#     8   8   8   8   8   8
#     4  10  21  38  59  84 116 156 196 233 287 356
#     4  11  22  37  59  87 115 148 194 246 292 339
#     4   9  20  40  61  81 112 156 194 228 285 354
#     4  10  21  37  58  86 113 145 195 243 286 336
#     4  10  21  39  61  84 118 158 193 234 291 355
#     4  10  21  37  58  84 116 153 190 231 284 348
#
# _framework density 23.947123999999999
#
# number of rings (size 3 to 8) (size 9 to 14) (size 15 to 20)
#    0.000    2.000    0.000    3.000    0.000    7.333 
#    0.000    8.333    0.000    0.000    0.000    0.000 
#    0.000    0.000    0.000    0.000    0.000    0.000 
#
# Total GULP energy -268502.035914 kJ/mol
# GULP energy per Si atom -5593.792415 kJ/mol
# Density = 2.389262 g / cm^3
# Si number density = 23.947124 Si / 1000 Ang^3
#
#
#
# Elastic Constant Matrix: (Units=GPa)
#
#
# Indices 1 2 3 4 5 6 
#
# 1 79.5275 2.2551 31.3526 0.0000 0.0000 0.0000
# 2 2.2551 45.2234 15.8849 0.0000 0.0000 0.0000
# 3 31.3526 15.8849 118.0565 0.0000 0.0000 0.0000
# 4 0.0000 0.0000 0.0000 33.0496 0.0000 0.0000
# 5 0.0000 0.0000 0.0000 0.0000 37.4551 0.0000
# 6 0.0000 0.0000 0.0000 0.0000 0.0000 23.5390
#
#
#
# Elastic Compliance Matrix: (Units=1/GPa)
#
#
# Indices 1 2 3 4 5 6 
#
# 1 0.014062 0.000641 -0.003821 0.000000 0.000000 0.000000
# 2 0.000641 0.023239 -0.003297 0.000000 0.000000 0.000000
# 3 -0.003821 -0.003297 0.009929 0.000000 0.000000 0.000000
# 4 0.000000 0.000000 0.000000 0.030258 0.000000 0.000000
# 5 0.000000 0.000000 0.000000 0.000000 0.026699 0.000000
# 6 0.000000 0.000000 0.000000 0.000000 0.000000 0.042483
#
#
# Mechanical properties :
#
#
# Convention : Reuss Voigt Hill
#
# Bulk Modulus (GPa) = 29.17509 37.97696 33.57603
# Shear Modulus (GPa) = 29.23157 31.69639 30.46398
#
# Velocity S-wave (km/s) = 3.49760 3.64208 3.57057
# Velocity P-wave (km/s) = 5.34046 5.79477 5.57225
#
# Compressibility (1/GPa) = 0.03427581
#
# Stress axis : x y z
#
# Youngs Moduli (GPa) = 71.11167 43.03195 100.71666
#
# Poissons Ratio (x) = -0.02758 0.38482
# Poissons Ratio (y) = -0.04557 0.33206
# Poissons Ratio (z) = 0.27170 0.14188
#
# Static dielectric constant tensor:
#      x y z
#    x 1.858910 0.000000 0.000000 
#    y 0.000000 1.967630 0.000000 
#    z 0.000000 0.000000 1.923260 
# 
# From -- ./inp_files/14972.got.cif
#   From: 2010.05.17/outbox.cif.g08.bks.cpg/sg60_8_cif.got.tgz:14972.got - 2010.06.03 14:59:27.
