data_PCOD9455124
_publ_section_title
;
Structure prediction by ZEFSAII (Michael W. Deem and Ramdas Pophale) SiO2 
 PCOD9455124
Probable space group: P B C N
;
_chemical_formula_sum "Si O2"
_cell_formula_units_Z 56
_cell_length_a 13.971007
_cell_length_b 21.561547
_cell_length_c 9.094132
_cell_angle_alpha 90.000000
_cell_angle_beta 90.000000
_cell_angle_gamma 90.000000
_cell_volume 2739.484713
_symmetry_space_group_name_H-M "P B C N"
_symmetry_group_IT_number 60
_symmetry_cell_setting 'orthorhombic'
loop_
_space_group_symop_operation_xyz
x,y,z
1/2-x,1/2-y,1/2+z
1/2+x,1/2-y,-z
-x,y,1/2-z
-x,-y,-z
1/2+x,1/2+y,1/2-z
1/2-x,1/2+y,z
x,-y,1/2+z
loop_
_atom_site_type_symbol
_atom_site_label
_atom_site_fract_x
_atom_site_fract_y
_atom_site_fract_z
Si Si1 0.393948 0.154414 0.814336
Si Si2 0.592436 0.203734 0.172762
Si Si3 0.385897 0.971822 0.206142
Si Si4 0.104805 0.134756 0.311074
Si Si5 0.700000 0.922840 0.608246
Si Si6 0.633853 0.253380 0.472662
Si Si7 0.156616 0.760346 0.591033
O O1 0.500000 0.147647 0.750000
O O2 0.350420 0.086690 0.804352
O O3 0.346289 0.205757 0.710689
O O4 0.400029 0.186279 0.970161
O O5 0.500000 0.175253 0.250000
O O6 0.658603 0.146301 0.129444
O O7 0.626032 0.251952 0.297605
O O8 0.575279 0.244585 0.027504
O O9 0.500000 0.979557 0.250000
O O10 0.334406 0.033595 0.259202
O O11 0.350820 0.951300 0.040922
O O12 0.184307 0.086880 0.374904
O O13 0.095032 0.188006 0.437295
O O14 0.147703 0.174730 0.173930
O O15 0.000000 0.113410 0.250000
O O16 0.747334 0.247824 0.500065
#
# Coordination Sequence:
#
# PCOD9455124 Si02
#       7
#     8   8   8   8   8   8   8
#     4  10  20  36  57  82 118 164 204 244 323 391
#     4  12  22  34  59  94 131 160 208 264 324 395
#     4  11  25  42  66  89 130 167 216 282 346 403
#     4  11  23  43  66  90 133 179 219 267 336 400
#     4  12  25  43  62  94 127 169 230 270 334 413
#     4  11  20  34  60  92 129 161 205 258 323 397
#     4  11  19  38  57  93 128 166 206 263 319 397
#
# _framework density 20.441799
#
# number of rings (size 3 to 8) (size 9 to 14) (size 15 to 20)
#    0.000    0.857    4.286    5.143    4.000    0.000 
#    0.000    0.714    0.000    0.000    0.000    0.000 
#    0.000    0.000    0.000    0.000    0.000    0.000 
#
# Total GULP energy -311826.334780 kJ/mol
# GULP energy per Si atom -5568.327407 kJ/mol
# Density = 2.039527 g / cm^3
# Si number density = 20.441799 Si / 1000 Ang^3
#
#
#
# Elastic Constant Matrix: (Units=GPa)
#
#
# Indices 1 2 3 4 5 6 
#
# 1 106.0891 25.1261 29.9716 0.0000 0.0000 0.0000
# 2 25.1261 59.4160 30.0465 0.0000 0.0000 0.0000
# 3 29.9716 30.0465 121.5197 0.0000 0.0000 0.0000
# 4 0.0000 0.0000 0.0000 16.5246 0.0000 0.0000
# 5 0.0000 0.0000 0.0000 0.0000 34.4241 0.0000
# 6 0.0000 0.0000 0.0000 0.0000 0.0000 23.9740
#
#
#
# Elastic Compliance Matrix: (Units=1/GPa)
#
#
# Indices 1 2 3 4 5 6 
#
# 1 0.010792 -0.003678 -0.001752 0.000000 0.000000 0.000000
# 2 -0.003678 0.020489 -0.004159 0.000000 0.000000 0.000000
# 3 -0.001752 -0.004159 0.009690 0.000000 0.000000 0.000000
# 4 0.000000 0.000000 0.000000 0.060516 0.000000 0.000000
# 5 0.000000 0.000000 0.000000 0.000000 0.029049 0.000000
# 6 0.000000 0.000000 0.000000 0.000000 0.000000 0.041712
#
#
# Mechanical properties :
#
#
# Convention : Reuss Voigt Hill
#
# Bulk Modulus (GPa) = 45.88709 50.81258 48.34983
# Shear Modulus (GPa) = 25.16482 28.44325 26.80404
#
# Velocity S-wave (km/s) = 3.51243 3.73423 3.62503
# Velocity P-wave (km/s) = 6.24067 6.59574 6.42066
#
# Compressibility (1/GPa) = 0.02179262
#
# Stress axis : x y z
#
# Youngs Moduli (GPa) = 92.66013 48.80707 103.20272
#
# Poissons Ratio (x) = 0.17949 0.18086
# Poissons Ratio (y) = 0.34077 0.42921
# Poissons Ratio (z) = 0.16238 0.20299
#
# Static dielectric constant tensor:
#      x y z
#    x 1.928720 0.000000 0.000000 
#    y 0.000000 1.688280 0.000000 
#    z 0.000000 0.000000 1.828810 
# 
# From -- ./inp_files/6147.got.cif
#   From: 2010.05.17/outbox.cif.g08.bks.cpg/sg60_4_cif.got.tgz:6147.got - 2010.06.03 14:59:27.
