data_PCOD9455259
_publ_section_title
;
Structure prediction by ZEFSAII (Michael W. Deem and Ramdas Pophale) SiO2 
 PCOD9455259
Probable space group: P B C N
;
_chemical_formula_sum "Si O2"
_cell_formula_units_Z 48
_cell_length_a 14.196808
_cell_length_b 16.507040
_cell_length_c 10.274018
_cell_angle_alpha 90.000000
_cell_angle_beta 90.000000
_cell_angle_gamma 90.000000
_cell_volume 2407.688148
_symmetry_space_group_name_H-M "P B C N"
_symmetry_group_IT_number 60
_symmetry_cell_setting 'orthorhombic'
loop_
_space_group_symop_operation_xyz
x,y,z
1/2-x,1/2-y,1/2+z
1/2+x,1/2-y,-z
-x,y,1/2-z
-x,-y,-z
1/2+x,1/2+y,1/2-z
1/2-x,1/2+y,z
x,-y,1/2+z
loop_
_atom_site_type_symbol
_atom_site_label
_atom_site_fract_x
_atom_site_fract_y
_atom_site_fract_z
Si Si1 0.620331 0.564088 0.079378
Si Si2 0.767713 0.808872 0.724644
Si Si3 0.606274 0.934330 0.703967
Si Si4 0.959712 0.886446 0.112576
Si Si5 0.731746 0.684723 0.513107
Si Si6 0.806468 0.494520 0.958092
O O1 0.658228 0.618702 0.197350
O O2 0.579122 0.478668 0.127593
O O3 0.710284 0.543647 0.987340
O O4 0.541171 0.608451 0.995208
O O5 0.665945 0.851267 0.706397
O O6 0.782158 0.741725 0.615960
O O7 0.774363 0.776593 0.870240
O O8 0.500000 0.923431 0.750000
O O9 0.618185 0.971243 0.560558
O O10 0.658162 0.992556 0.810008
O O11 0.000000 0.858451 0.250000
O O12 0.872353 0.833946 0.065071
O O13 0.783030 0.598657 0.493467
#
# Coordination Sequence:
#
# PCOD9455259 Si02
#       6
#     8   8   8   8   8   8
#     4   9  21  37  61  90 121 152 190 257 299 352
#     4  10  23  40  59  82 125 162 196 236 300 354
#     4  10  20  37  61  84 113 146 197 244 277 341
#     4  10  22  34  65  94 119 147 204 251 303 357
#     4  10  23  39  57  86 120 161 195 239 295 360
#     4   9  20  36  61  86 112 152 192 236 299 339
#
# _framework density 19.936136999999999
#
# number of rings (size 3 to 8) (size 9 to 14) (size 15 to 20)
#    0.000    2.333    0.000    0.500   16.333    2.000 
#    3.000    0.000    0.000    0.000    0.000    0.000 
#    0.000    0.000    0.000    0.000    0.000    0.000 
#
# Total GULP energy -268122.429595 kJ/mol
# GULP energy per Si atom -5585.883950 kJ/mol
# Density = 1.989076 g / cm^3
# Si number density = 19.936137 Si / 1000 Ang^3
#
#
#
# Elastic Constant Matrix: (Units=GPa)
#
#
# Indices 1 2 3 4 5 6 
#
# 1 54.0046 0.2794 -16.5302 0.0000 0.0000 0.0000
# 2 0.2794 22.4807 18.1302 0.0000 0.0000 0.0000
# 3 -16.5302 18.1302 80.7394 0.0000 0.0000 0.0000
# 4 0.0000 0.0000 0.0000 26.1231 0.0000 0.0000
# 5 0.0000 0.0000 0.0000 0.0000 26.4413 0.0000
# 6 0.0000 0.0000 0.0000 0.0000 0.0000 5.5031
#
#
#
# Elastic Compliance Matrix: (Units=1/GPa)
#
#
# Indices 1 2 3 4 5 6 
#
# 1 0.020099 -0.004357 0.005093 0.000000 0.000000 0.000000
# 2 -0.004357 0.055264 -0.013302 0.000000 0.000000 0.000000
# 3 0.005093 -0.013302 0.016415 0.000000 0.000000 0.000000
# 4 0.000000 0.000000 0.000000 0.038280 0.000000 0.000000
# 5 0.000000 0.000000 0.000000 0.000000 0.037820 0.000000
# 6 0.000000 0.000000 0.000000 0.000000 0.000000 0.181714
#
#
# Mechanical properties :
#
#
# Convention : Reuss Voigt Hill
#
# Bulk Modulus (GPa) = 15.00460 17.88706 16.44583
# Shear Modulus (GPa) = 12.59637 21.96986 17.28312
#
# Velocity S-wave (km/s) = 2.51636 3.32326 2.94755
# Velocity P-wave (km/s) = 3.99818 4.87001 4.45547
#
# Compressibility (1/GPa) = 0.06664623
#
# Stress axis : x y z
#
# Youngs Moduli (GPa) = 49.75494 18.09484 60.91891
#
# Poissons Ratio (x) = 0.07885 -0.31028
# Poissons Ratio (y) = 0.21681 0.81033
# Poissons Ratio (z) = -0.25342 0.24069
#
# Static dielectric constant tensor:
#      x y z
#    x 1.695420 0.000000 0.000000 
#    y 0.000000 1.698670 0.000000 
#    z 0.000000 0.000000 1.702340 
# 
# From -- ./inp_files/5941.got.cif
#   From: 2010.05.17/outbox.cif.g08.bks.cpg/sg60_3_cif.got.tgz:5941.got - 2010.06.03 14:59:27.
