data_PCOD9455664
_publ_section_title
;
Structure prediction by ZEFSAII (Michael W. Deem and Ramdas Pophale) SiO2 
 PCOD9455664
Probable space group: P B C N
;
_chemical_formula_sum "Si O2"
_cell_formula_units_Z 32
_cell_length_a 5.285485
_cell_length_b 14.881158
_cell_length_c 17.277224
_cell_angle_alpha 90.000000
_cell_angle_beta 90.000000
_cell_angle_gamma 90.000000
_cell_volume 1358.925150
_symmetry_space_group_name_H-M "P B C N"
_symmetry_group_IT_number 60
_symmetry_cell_setting 'orthorhombic'
loop_
_space_group_symop_operation_xyz
x,y,z
1/2-x,1/2-y,1/2+z
1/2+x,1/2-y,-z
-x,y,1/2-z
-x,-y,-z
1/2+x,1/2+y,1/2-z
1/2-x,1/2+y,z
x,-y,1/2+z
loop_
_atom_site_type_symbol
_atom_site_label
_atom_site_fract_x
_atom_site_fract_y
_atom_site_fract_z
Si Si1 0.834283 0.431039 0.078042
Si Si2 0.756365 0.572215 0.203702
Si Si3 0.658255 0.350377 0.474984
Si Si4 0.175927 0.245146 0.873008
O O1 0.770295 0.522283 0.121399
O O2 0.607586 0.403130 0.020316
O O3 0.807950 0.350135 0.141511
O O4 0.108739 0.416604 0.041471
O O5 0.500000 0.553975 0.250000
O O6 0.790908 0.678404 0.189336
O O7 0.000000 0.539229 0.250000
O O8 0.605365 0.284373 0.401001
O O9 0.707230 0.288299 0.548512
#
# Coordination Sequence:
#
# PCOD9455664 Si02
#       4
#     8   8   8   8
#     4  10  22  42  65  94 133 164 211 274 327 389
#     4  12  29  43  63  97 134 182 228 256 316 404
#     4  10  20  41  69 101 122 164 211 276 347 375
#     4  10  23  42  72  97 131 162 220 274 334 385
#
# _framework density 23.548022
#
# number of rings (size 3 to 8) (size 9 to 14) (size 15 to 20)
#    1.500    0.000    2.500    1.500    3.500    4.000 
#    0.000    0.000    0.000    0.000    0.000    0.000 
#    0.000    0.000    0.000    0.000    0.000    0.000 
#
# Total GULP energy -178646.633148 kJ/mol
# GULP energy per Si atom -5582.707286 kJ/mol
# Density = 2.349443 g / cm^3
# Si number density = 23.548022 Si / 1000 Ang^3
#
#
#
# Elastic Constant Matrix: (Units=GPa)
#
#
# Indices 1 2 3 4 5 6 
#
# 1 185.2228 19.6886 35.2931 0.0000 0.0000 0.0000
# 2 19.6886 98.6920 3.5659 0.0000 0.0000 0.0000
# 3 35.2931 3.5659 45.7378 0.0000 0.0000 0.0000
# 4 0.0000 0.0000 0.0000 52.0561 0.0000 0.0000
# 5 0.0000 0.0000 0.0000 0.0000 33.3482 0.0000
# 6 0.0000 0.0000 0.0000 0.0000 0.0000 -235.7513
#
#
#
# Elastic Compliance Matrix: (Units=1/GPa)
#
#
# Indices 1 2 3 4 5 6 
#
# 1 0.006449 -0.001110 -0.004889 0.000000 0.000000 0.000000
# 2 -0.001110 0.010352 0.000049 0.000000 0.000000 0.000000
# 3 -0.004889 0.000049 0.025633 0.000000 0.000000 0.000000
# 4 0.000000 0.000000 0.000000 0.019210 0.000000 0.000000
# 5 0.000000 0.000000 0.000000 0.000000 0.029987 0.000000
# 6 0.000000 0.000000 0.000000 0.000000 0.000000 -0.004242
#
#
# Mechanical properties :
#
#
# Convention : Reuss Voigt Hill
#
# Bulk Modulus (GPa) = 32.75084 49.63866 41.19475
# Shear Modulus (GPa) = 45.67623 -11.99574 16.84025
#
# Velocity S-wave (km/s) = 4.40899 -2.25947 2.67712
# Velocity P-wave (km/s) = 6.31325 3.78399 5.20460
#
# Compressibility (1/GPa) = 0.03053357
#
# Stress axis : x y z
#
# Youngs Moduli (GPa) = 155.07439 96.59825 39.01254
#
# Poissons Ratio (x) = 0.10720 0.19075
# Poissons Ratio (y) = 0.17210 -0.00192
# Poissons Ratio (z) = 0.75822 -0.00476
#
# Static dielectric constant tensor:
#      x y z
#    x 1.863610 0.000000 0.000000 
#    y 0.000000 1.931370 0.000000 
#    z 0.000000 0.000000 1.749250 
# 
# From -- ./inp_files/18376.got.cif
#   From: 2010.05.17/outbox.cif.g08.bks.cpg/sg60_10_cif.got.tgz:18376.got - 2010.06.03 14:59:27.
