data_PCOD9455312
_publ_section_title
;
Structure prediction by ZEFSAII (Michael W. Deem and Ramdas Pophale) SiO2 
 PCOD9455312
Probable space group: P B C N
;
_chemical_formula_sum "Si O2"
_cell_formula_units_Z 56
_cell_length_a 11.327009
_cell_length_b 15.334664
_cell_length_c 14.522046
_cell_angle_alpha 90.000000
_cell_angle_beta 90.000000
_cell_angle_gamma 90.000000
_cell_volume 2522.419518
_symmetry_space_group_name_H-M "P B C N"
_symmetry_group_IT_number 60
_symmetry_cell_setting 'orthorhombic'
loop_
_space_group_symop_operation_xyz
x,y,z
1/2-x,1/2-y,1/2+z
1/2+x,1/2-y,-z
-x,y,1/2-z
-x,-y,-z
1/2+x,1/2+y,1/2-z
1/2-x,1/2+y,z
x,-y,1/2+z
loop_
_atom_site_type_symbol
_atom_site_label
_atom_site_fract_x
_atom_site_fract_y
_atom_site_fract_z
Si Si1 0.361229 0.967560 0.740979
Si Si2 0.815364 0.666339 0.787141
Si Si3 0.743713 0.416355 0.937288
Si Si4 0.249032 0.056628 0.430272
Si Si5 0.045690 0.741382 0.878576
Si Si6 0.202144 0.769142 0.042445
Si Si7 0.499561 0.445737 0.854309
O O1 0.500000 0.978758 0.750000
O O2 0.325454 0.912169 0.652435
O O3 0.310623 0.926902 0.833737
O O4 0.304921 0.063634 0.728639
O O5 0.847673 0.710948 0.689379
O O6 0.710092 0.705178 0.849662
O O7 0.932925 0.684079 0.849848
O O8 0.719905 0.318116 0.968893
O O9 0.623039 0.461734 0.903741
O O10 0.804532 0.477317 0.012755
O O11 0.244247 0.144259 0.489513
O O12 0.116602 0.023830 0.406572
O O13 0.015664 0.840723 0.852477
O O14 0.084557 0.741940 0.985307
O O15 0.500000 0.478445 0.750000
#
# Coordination Sequence:
#
# PCOD9455312 Si02
#       7
#     8   8   8   8   8   8   8
#     4  12  26  43  67  97 140 180 226 277 342 410
#     4  11  20  42  68  95 133 179 224 268 338 406
#     4  12  24  43  69  99 133 180 222 285 337 402
#     4  11  26  44  67 101 134 176 227 284 337 406
#     4  10  20  37  69  94 125 177 222 269 323 411
#     4  11  24  40  70  98 129 168 226 277 336 398
#     4  11  19  40  70  94 128 174 225 273 337 393
#
# _framework density 22.200907000000001
#
# number of rings (size 3 to 8) (size 9 to 14) (size 15 to 20)
#    0.000    0.857    7.143    1.286    2.000    1.714 
#    0.000    0.000    0.000    0.000    0.000    0.000 
#    0.000    0.000    0.000    0.000    0.000    0.000 
#
# Total GULP energy -312794.789152 kJ/mol
# GULP energy per Si atom -5585.621235 kJ/mol
# Density = 2.215038 g / cm^3
# Si number density = 22.200907 Si / 1000 Ang^3
#
#
#
# Elastic Constant Matrix: (Units=GPa)
#
#
# Indices 1 2 3 4 5 6 
#
# 1 42.6360 -11.3229 24.2855 0.0000 0.0000 0.0000
# 2 -11.3229 77.3701 15.7642 0.0000 0.0000 0.0000
# 3 24.2855 15.7642 100.2279 0.0000 0.0000 0.0000
# 4 0.0000 0.0000 0.0000 181.3511 0.0000 0.0000
# 5 0.0000 0.0000 0.0000 0.0000 24.2997 0.0000
# 6 0.0000 0.0000 0.0000 0.0000 0.0000 14.2554
#
#
#
# Elastic Compliance Matrix: (Units=1/GPa)
#
#
# Indices 1 2 3 4 5 6 
#
# 1 0.029683 0.006002 -0.008136 0.000000 0.000000 0.000000
# 2 0.006002 0.014566 -0.003745 0.000000 0.000000 0.000000
# 3 -0.008136 -0.003745 0.012538 0.000000 0.000000 0.000000
# 4 0.000000 0.000000 0.000000 0.005514 0.000000 0.000000
# 5 0.000000 0.000000 0.000000 0.000000 0.041153 0.000000
# 6 0.000000 0.000000 0.000000 0.000000 0.000000 0.070149
#
#
# Mechanical properties :
#
#
# Convention : Reuss Voigt Hill
#
# Bulk Modulus (GPa) = 22.20876 30.85416 26.53146
# Shear Modulus (GPa) = 24.95369 56.74838 40.85103
#
# Velocity S-wave (km/s) = 3.35624 5.06130 4.29425
# Velocity P-wave (km/s) = 5.00444 6.93423 6.04682
#
# Compressibility (1/GPa) = 0.04502728
#
# Stress axis : x y z
#
# Youngs Moduli (GPa) = 33.68978 68.65141 79.75913
#
# Poissons Ratio (x) = -0.41203 0.64893
# Poissons Ratio (y) = -0.20220 0.29872
# Poissons Ratio (z) = 0.27411 0.25712
#
# Static dielectric constant tensor:
#      x y z
#    x 1.875050 0.000000 0.000000 
#    y 0.000000 1.764270 0.000000 
#    z 0.000000 0.000000 1.865340 
# 
# From -- ./inp_files/16145.got.cif
#   From: 2010.05.17/outbox.cif.g08.bks.cpg/sg60_9_cif.got.tgz:16145.got - 2010.06.03 14:59:27.
