data_PCOD9455019
_publ_section_title
;
Structure prediction by ZEFSAII (Michael W. Deem and Ramdas Pophale) SiO2 
 PCOD9455019
Probable space group: P B C N
;
_chemical_formula_sum "Si O2"
_cell_formula_units_Z 48
_cell_length_a 14.785500
_cell_length_b 14.718400
_cell_length_c 8.927234
_cell_angle_alpha 90.000000
_cell_angle_beta 90.000000
_cell_angle_gamma 90.000000
_cell_volume 1942.734872
_symmetry_space_group_name_H-M "P B C N"
_symmetry_group_IT_number 60
_symmetry_cell_setting 'orthorhombic'
loop_
_space_group_symop_operation_xyz
x,y,z
1/2-x,1/2-y,1/2+z
1/2+x,1/2-y,-z
-x,y,1/2-z
-x,-y,-z
1/2+x,1/2+y,1/2-z
1/2-x,1/2+y,z
x,-y,1/2+z
loop_
_atom_site_type_symbol
_atom_site_label
_atom_site_fract_x
_atom_site_fract_y
_atom_site_fract_z
Si Si1 0.630501 0.401664 0.011936
Si Si2 0.500000 0.613578 0.750000
Si Si3 0.810348 0.694770 0.059507
Si Si4 0.000000 0.848441 0.750000
Si Si5 0.685826 0.091675 0.366736
Si Si6 0.556873 0.935907 0.388508
Si Si7 0.387368 0.269339 0.012204
O O1 0.563280 0.399217 0.870732
O O2 0.726546 0.440186 0.959615
O O3 0.574256 0.440324 0.151835
O O4 0.656883 0.298805 0.060981
O O5 0.551602 0.679178 0.866591
O O6 0.791226 0.651651 0.221483
O O7 0.889616 0.639603 0.979938
O O8 0.714560 0.692876 0.976085
O O9 0.930709 0.791328 0.647552
O O10 0.623678 0.161860 0.460946
O O11 0.630763 0.004306 0.318487
O O12 0.500000 0.900233 0.250000
O O13 0.500000 0.000000 0.500000
#
# Coordination Sequence:
#
# PCOD9455019 Si02
#       7
#     8   4   8   4   8   8   8
#     4  10  22  37  68  92 129 169 209 279 319 382
#     4  10  20  36  62 102 118 152 212 274 322 366
#     4  11  23  43  59  94 133 173 218 260 330 383
#     4  10  20  34  62 102 112 158 216 268 322 378
#     4  11  23  44  60  92 134 175 211 266 331 376
#     4  12  28  42  66  94 133 181 212 255 328 396
#     4  10  22  38  68  92 129 168 210 278 318 383
#
# _framework density 24.707438
#
# number of rings (size 3 to 8) (size 9 to 14) (size 15 to 20)
#    0.000    1.333    5.000    0.000    7.000    1.333 
#    0.000    0.000    0.000    6.000    0.000    0.000 
#    0.000    0.000    0.000    0.000    0.000    0.000 
#
# Total GULP energy -268994.053725 kJ/mol
# GULP energy per Si atom -5604.042786 kJ/mol
# Density = 2.465120 g / cm^3
# Si number density = 24.707438 Si / 1000 Ang^3
#
#
#
# Elastic Constant Matrix: (Units=GPa)
#
#
# Indices 1 2 3 4 5 6 
#
# 1 130.2181 22.0275 53.2518 0.0000 0.0000 0.0000
# 2 22.0275 47.7888 11.1379 0.0000 0.0000 0.0000
# 3 53.2518 11.1379 132.4493 0.0000 0.0000 0.0000
# 4 0.0000 0.0000 0.0000 27.0163 0.0000 0.0000
# 5 0.0000 0.0000 0.0000 0.0000 54.0182 0.0000
# 6 0.0000 0.0000 0.0000 0.0000 0.0000 29.2852
#
#
#
# Elastic Compliance Matrix: (Units=1/GPa)
#
#
# Indices 1 2 3 4 5 6 
#
# 1 0.009781 -0.003664 -0.003625 0.000000 0.000000 0.000000
# 2 -0.003664 0.022716 -0.000437 0.000000 0.000000 0.000000
# 3 -0.003625 -0.000437 0.009044 0.000000 0.000000 0.000000
# 4 0.000000 0.000000 0.000000 0.037015 0.000000 0.000000
# 5 0.000000 0.000000 0.000000 0.000000 0.018512 0.000000
# 6 0.000000 0.000000 0.000000 0.000000 0.000000 0.034147
#
#
# Mechanical properties :
#
#
# Convention : Reuss Voigt Hill
#
# Bulk Modulus (GPa) = 38.32819 53.69895 46.01357
# Shear Modulus (GPa) = 32.18258 36.99987 34.59122
#
# Velocity S-wave (km/s) = 3.61300 3.87398 3.74576
# Velocity P-wave (km/s) = 5.74034 6.46462 6.11322
#
# Compressibility (1/GPa) = 0.02609045
#
# Stress axis : x y z
#
# Youngs Moduli (GPa) = 102.23449 44.02167 110.56938
#
# Poissons Ratio (x) = 0.16129 0.40077
# Poissons Ratio (y) = 0.37457 0.04834
# Poissons Ratio (z) = 0.37056 0.01925
#
# Static dielectric constant tensor:
#      x y z
#    x 1.973110 0.000000 0.000000 
#    y 0.000000 1.943220 0.000000 
#    z 0.000000 0.000000 1.929500 
# 
# From -- ./inp_files/5964.got.cif
#   From: 2010.05.17/outbox.cif.g08.bks.cpg/sg60_3_cif.got.tgz:5964.got - 2010.06.03 14:59:27.
