data_PCOD9455565
_publ_section_title
;
Structure prediction by ZEFSAII (Michael W. Deem and Ramdas Pophale) SiO2 
 PCOD9455565
Probable space group: P B C N
;
_chemical_formula_sum "Si O2"
_cell_formula_units_Z 56
_cell_length_a 10.053168
_cell_length_b 12.375492
_cell_length_c 22.082922
_cell_angle_alpha 90.000000
_cell_angle_beta 90.000000
_cell_angle_gamma 90.000000
_cell_volume 2747.400370
_symmetry_space_group_name_H-M "P B C N"
_symmetry_group_IT_number 60
_symmetry_cell_setting 'orthorhombic'
loop_
_space_group_symop_operation_xyz
x,y,z
1/2-x,1/2-y,1/2+z
1/2+x,1/2-y,-z
-x,y,1/2-z
-x,-y,-z
1/2+x,1/2+y,1/2-z
1/2-x,1/2+y,z
x,-y,1/2+z
loop_
_atom_site_type_symbol
_atom_site_label
_atom_site_fract_x
_atom_site_fract_y
_atom_site_fract_z
Si Si1 0.389912 0.232002 0.403743
Si Si2 0.890264 0.590591 0.201809
Si Si3 0.344980 0.865019 0.343230
Si Si4 0.649941 0.286180 0.765078
Si Si5 0.404108 0.601981 0.999683
Si Si6 0.618713 0.782893 0.398486
Si Si7 0.848947 0.452882 0.499235
O O1 0.454448 0.176685 0.345123
O O2 0.271444 0.302500 0.376262
O O3 0.459304 0.317920 0.447332
O O4 0.340619 0.136479 0.447760
O O5 0.838558 0.492488 0.161156
O O6 0.764343 0.639643 0.236816
O O7 0.000000 0.555472 0.250000
O O8 0.346836 0.822967 0.274349
O O9 0.477304 0.828783 0.376973
O O10 0.500000 0.330257 0.750000
O O11 0.678283 0.258552 0.834892
O O12 0.398415 0.678986 0.058324
O O13 0.256654 0.549520 0.992219
O O14 0.500000 0.500000 0.000000
O O15 0.678477 0.881923 0.438128
O O16 0.000000 0.500000 0.500000
#
# Coordination Sequence:
#
# PCOD9455565 Si02
#       7
#     8   8   8   8   8   8   8
#     4  10  22  39  60  85 120 158 199 238 291 365
#     4  11  22  37  63  91 116 153 201 247 293 351
#     4  10  20  40  63  83 116 163 197 233 297 367
#     4   9  21  39  58  85 118 153 192 240 299 357
#     4  11  24  39  59  87 120 160 197 240 297 353
#     4  10  21  37  61  89 120 150 197 255 296 341
#     4  11  23  39  63  90 118 157 201 247 298 354
#
# _framework density 20.382905000000001
#
# number of rings (size 3 to 8) (size 9 to 14) (size 15 to 20)
#    0.000    1.714    0.000    4.714    0.000   10.286 
#    0.000    4.286    0.000    1.714    0.000    0.000 
#    0.000    0.000    0.000    0.000    0.000    0.000 
#
# Total GULP energy -312296.759555 kJ/mol
# GULP energy per Si atom -5576.727849 kJ/mol
# Density = 2.033651 g / cm^3
# Si number density = 20.382905 Si / 1000 Ang^3
#
#
#
# Elastic Constant Matrix: (Units=GPa)
#
#
# Indices 1 2 3 4 5 6 
#
# 1 48.7406 25.6665 16.5501 0.0000 0.0000 0.0000
# 2 25.6665 116.9559 55.5754 0.0000 0.0000 0.0000
# 3 16.5501 55.5754 117.6705 0.0000 0.0000 0.0000
# 4 0.0000 0.0000 0.0000 33.2690 0.0000 0.0000
# 5 0.0000 0.0000 0.0000 0.0000 14.5756 0.0000
# 6 0.0000 0.0000 0.0000 0.0000 0.0000 29.3714
#
#
#
# Elastic Compliance Matrix: (Units=1/GPa)
#
#
# Indices 1 2 3 4 5 6 
#
# 1 0.023310 -0.004587 -0.001112 0.000000 0.000000 0.000000
# 2 -0.004587 0.011927 -0.004988 0.000000 0.000000 0.000000
# 3 -0.001112 -0.004988 0.011011 0.000000 0.000000 0.000000
# 4 0.000000 0.000000 0.000000 0.030058 0.000000 0.000000
# 5 0.000000 0.000000 0.000000 0.000000 0.068608 0.000000
# 6 0.000000 0.000000 0.000000 0.000000 0.000000 0.034047
#
#
# Mechanical properties :
#
#
# Convention : Reuss Voigt Hill
#
# Bulk Modulus (GPa) = 40.20363 53.21678 46.71021
# Shear Modulus (GPa) = 23.96644 27.81487 25.89065
#
# Velocity S-wave (km/s) = 3.43273 3.69808 3.56787
# Velocity P-wave (km/s) = 5.95638 6.66330 6.31974
#
# Compressibility (1/GPa) = 0.02487337
#
# Stress axis : x y z
#
# Youngs Moduli (GPa) = 42.90029 83.84290 90.82232
#
# Poissons Ratio (x) = 0.38459 0.10100
# Poissons Ratio (y) = 0.19679 0.45302
# Poissons Ratio (z) = 0.04771 0.41820
#
# Static dielectric constant tensor:
#      x y z
#    x 1.713620 0.000000 0.000000 
#    y 0.000000 1.700610 0.000000 
#    z 0.000000 0.000000 1.780680 
# 
# From -- ./inp_files/22625.got.cif
#   From: 2010.05.17/outbox.cif.g08.bks.cpg/sg60_12_cif.got.tgz:22625.got - 2010.06.03 14:59:27.
