data_PCOD9455033
_publ_section_title
;
Structure prediction by ZEFSAII (Michael W. Deem and Ramdas Pophale) SiO2 
 PCOD9455033
Probable space group: P B C N
;
_chemical_formula_sum "Si O2"
_cell_formula_units_Z 56
_cell_length_a 5.181160
_cell_length_b 29.491075
_cell_length_c 18.596039
_cell_angle_alpha 90.000000
_cell_angle_beta 90.000000
_cell_angle_gamma 90.000000
_cell_volume 2841.437161
_symmetry_space_group_name_H-M "P B C N"
_symmetry_group_IT_number 60
_symmetry_cell_setting 'orthorhombic'
loop_
_space_group_symop_operation_xyz
x,y,z
1/2-x,1/2-y,1/2+z
1/2+x,1/2-y,-z
-x,y,1/2-z
-x,-y,-z
1/2+x,1/2+y,1/2-z
1/2-x,1/2+y,z
x,-y,1/2+z
loop_
_atom_site_type_symbol
_atom_site_label
_atom_site_fract_x
_atom_site_fract_y
_atom_site_fract_z
Si Si1 0.121894 0.044171 0.963039
Si Si2 0.061566 0.788476 0.930440
Si Si3 0.940531 0.692408 0.522492
Si Si4 0.511025 0.926669 0.837812
Si Si5 0.377578 0.092381 0.550002
Si Si6 0.539947 0.970314 0.164927
Si Si7 0.992504 0.872345 0.663779
O O1 0.185415 0.034866 0.877726
O O2 0.618486 0.070112 0.871018
O O3 0.912644 0.083771 0.975101
O O4 0.000000 0.000000 0.000000
O O5 0.843445 0.804304 0.987833
O O6 0.028533 0.821236 0.863250
O O7 0.346152 0.796896 0.961716
O O8 0.031905 0.734369 0.922027
O O9 0.017188 0.643005 0.550071
O O10 0.500000 0.926272 0.750000
O O11 0.746510 0.895817 0.862023
O O12 0.544996 0.979077 0.857216
O O13 0.247207 0.902951 0.861751
O O14 0.594829 0.060846 0.511066
O O15 0.500000 0.967772 0.250000
O O16 0.000000 0.873146 0.750000
#
# Coordination Sequence:
#
# PCOD9455033 Si02
#       7
#     8   8   8   8   8   8   8
#     4  10  22  37  55  83 115 152 190 244 286 335
#     4  10  21  37  61  81 112 144 184 234 288 354
#     4  10  21  39  57  85 108 148 189 226 292 339
#     4   9  19  33  52  77 113 146 184 218 274 342
#     4  10  22  38  58  81 118 147 192 245 280 347
#     4   9  22  38  57  82 117 162 193 236 286 353
#     4  10  20  35  54  84 109 142 181 233 281 334
#
# _framework density 19.708338000000001
#
# number of rings (size 3 to 8) (size 9 to 14) (size 15 to 20)
#    0.857    1.429    0.000    2.143    2.000    4.000 
#    0.000    0.714    0.000    0.000    3.714    0.000 
#    0.000    0.000    0.000    0.000    0.000    0.000 
#
# Total GULP energy -312128.291682 kJ/mol
# GULP energy per Si atom -5573.719494 kJ/mol
# Density = 1.966348 g / cm^3
# Si number density = 19.708338 Si / 1000 Ang^3
#
#
#
# Elastic Constant Matrix: (Units=GPa)
#
#
# Indices 1 2 3 4 5 6 
#
# 1 71.6119 -7.5902 9.8071 0.0000 0.0000 0.0000
# 2 -7.5902 101.0693 22.0200 0.0000 0.0000 0.0000
# 3 9.8071 22.0200 74.6783 0.0000 0.0000 0.0000
# 4 0.0000 0.0000 0.0000 -10.4687 0.0000 0.0000
# 5 0.0000 0.0000 0.0000 0.0000 12.6456 0.0000
# 6 0.0000 0.0000 0.0000 0.0000 0.0000 31.1678
#
#
#
# Elastic Compliance Matrix: (Units=1/GPa)
#
#
# Indices 1 2 3 4 5 6 
#
# 1 0.014459 0.001602 -0.002371 0.000000 0.000000 0.000000
# 2 0.001602 0.010751 -0.003381 0.000000 0.000000 0.000000
# 3 -0.002371 -0.003381 0.014699 0.000000 0.000000 0.000000
# 4 0.000000 0.000000 0.000000 -0.095523 0.000000 0.000000
# 5 0.000000 0.000000 0.000000 0.000000 0.079079 0.000000
# 6 0.000000 0.000000 0.000000 0.000000 0.000000 0.032084
#
#
# Mechanical properties :
#
#
# Convention : Reuss Voigt Hill
#
# Bulk Modulus (GPa) = 31.63555 32.87039 32.25297
# Shear Modulus (GPa) = 67.21822 21.54379 44.38100
#
# Velocity S-wave (km/s) = 5.84641 3.30984 4.75056
# Velocity P-wave (km/s) = 7.85244 5.59655 6.81843
#
# Compressibility (1/GPa) = 0.03161001
#
# Stress axis : x y z
#
# Youngs Moduli (GPa) = 69.16230 93.01404 68.03192
#
# Poissons Ratio (x) = -0.14905 0.16132
# Poissons Ratio (y) = -0.11083 0.22999
# Poissons Ratio (z) = 0.16401 0.31444
#
# Static dielectric constant tensor:
#      x y z
#    x 1.725710 0.000000 0.000000 
#    y 0.000000 1.686900 0.000000 
#    z 0.000000 0.000000 1.739880 
# 
# From -- ./inp_files/14106.got.cif
#   From: 2010.05.17/outbox.cif.g08.bks.cpg/sg60_8_cif.got.tgz:14106.got - 2010.06.03 14:59:27.
