data_PCOD9455921
_publ_section_title
;
Structure prediction by ZEFSAII (Michael W. Deem and Ramdas Pophale) SiO2 
 PCOD9455921
Probable space group: P B C N
;
_chemical_formula_sum "Si O2"
_cell_formula_units_Z 56
_cell_length_a 5.021807
_cell_length_b 15.847130
_cell_length_c 29.294651
_cell_angle_alpha 90.000000
_cell_angle_beta 90.000000
_cell_angle_gamma 90.000000
_cell_volume 2331.304311
_symmetry_space_group_name_H-M "P B C N"
_symmetry_group_IT_number 60
_symmetry_cell_setting 'orthorhombic'
loop_
_space_group_symop_operation_xyz
x,y,z
1/2-x,1/2-y,1/2+z
1/2+x,1/2-y,-z
-x,y,1/2-z
-x,-y,-z
1/2+x,1/2+y,1/2-z
1/2-x,1/2+y,z
x,-y,1/2+z
loop_
_atom_site_type_symbol
_atom_site_label
_atom_site_fract_x
_atom_site_fract_y
_atom_site_fract_z
Si Si1 0.923845 0.338081 0.556539
Si Si2 0.985962 0.202463 0.303458
Si Si3 0.333213 0.855074 0.135060
Si Si4 0.849972 0.967794 0.141295
Si Si5 0.537713 0.805710 0.044465
Si Si6 0.189560 0.012658 0.957877
Si Si7 0.501446 0.127229 0.340730
O O1 0.661635 0.280299 0.564951
O O2 0.893962 0.434871 0.539580
O O3 0.052769 0.350289 0.606071
O O4 0.021103 0.291884 0.510385
O O5 0.846168 0.275238 0.332514
O O6 0.781180 0.125403 0.314317
O O7 0.000000 0.218406 0.250000
O O8 0.286771 0.192518 0.320753
O O9 0.624316 0.896426 0.136533
O O10 0.300648 0.829549 0.080912
O O11 0.116317 0.919547 0.155128
O O12 0.937206 0.003593 0.091646
O O13 0.676705 0.042326 0.163301
O O14 0.707344 0.892289 0.044272
O O15 0.000000 0.000000 0.000000
#
# Coordination Sequence:
#
# PCOD9455921 Si02
#       7
#     8   8   8   8   8   8   8
#     4  11  23  37  61 101 140 194 244 296 355 435
#     4  12  26  47  75 103 139 185 235 304 376 442
#     4  11  23  44  69 102 142 185 241 295 365 426
#     4  10  23  42  70 100 139 188 232 298 356 428
#     4  11  23  37  63  99 144 192 246 301 358 430
#     4  10  21  37  57  91 142 191 244 292 355 419
#     4  11  25  46  71 105 145 185 242 297 363 438
#
# _framework density 24.020889
#
# number of rings (size 3 to 8) (size 9 to 14) (size 15 to 20)
#    0.000    1.143    1.429    4.286    4.000    4.571 
#    0.000    2.857    0.000    0.000    0.000    0.000 
#    0.000    0.000    0.000    0.000    0.000    0.000 
#
# Total GULP energy -312357.040238 kJ/mol
# GULP energy per Si atom -5577.804290 kJ/mol
# Density = 2.396622 g / cm^3
# Si number density = 24.020889 Si / 1000 Ang^3
#
#
#
# Elastic Constant Matrix: (Units=GPa)
#
#
# Indices 1 2 3 4 5 6 
#
# 1 101.2957 28.3896 37.5006 0.0000 0.0000 0.0000
# 2 28.3896 81.6695 21.2213 0.0000 0.0000 0.0000
# 3 37.5006 21.2213 115.1930 0.0000 0.0000 0.0000
# 4 0.0000 0.0000 0.0000 11.4135 0.0000 0.0000
# 5 0.0000 0.0000 0.0000 0.0000 25.6589 0.0000
# 6 0.0000 0.0000 0.0000 0.0000 0.0000 42.8017
#
#
#
# Elastic Compliance Matrix: (Units=1/GPa)
#
#
# Indices 1 2 3 4 5 6 
#
# 1 0.012026 -0.003322 -0.003303 0.000000 0.000000 0.000000
# 2 -0.003322 0.013778 -0.001457 0.000000 0.000000 0.000000
# 3 -0.003303 -0.001457 0.010025 0.000000 0.000000 0.000000
# 4 0.000000 0.000000 0.000000 0.087616 0.000000 0.000000
# 5 0.000000 0.000000 0.000000 0.000000 0.038973 0.000000
# 6 0.000000 0.000000 0.000000 0.000000 0.000000 0.023364
#
#
# Mechanical properties :
#
#
# Convention : Reuss Voigt Hill
#
# Bulk Modulus (GPa) = 50.85219 52.48680 51.66950
# Shear Modulus (GPa) = 23.98089 30.04459 27.01274
#
# Velocity S-wave (km/s) = 3.16307 3.54046 3.35707
# Velocity P-wave (km/s) = 5.87843 6.21378 6.04843
#
# Compressibility (1/GPa) = 0.01966484
#
# Stress axis : x y z
#
# Youngs Moduli (GPa) = 83.15338 72.58045 99.75355
#
# Poissons Ratio (x) = 0.24112 0.32948
# Poissons Ratio (y) = 0.27625 0.14531
# Poissons Ratio (z) = 0.27465 0.10573
#
# Static dielectric constant tensor:
#      x y z
#    x 2.049870 0.000000 0.000000 
#    y 0.000000 1.858850 0.000000 
#    z 0.000000 0.000000 1.929710 
# 
# From -- ./inp_files/25704.got.cif
#   From: 2010.05.17/outbox.cif.g08.bks.cpg/sg60_13_cif.got.tgz:25704.got - 2010.06.03 14:59:27.
