data_PCOD9455982
_publ_section_title
;
Structure prediction by ZEFSAII (Michael W. Deem and Ramdas Pophale) SiO2 
 PCOD9455982
Probable space group: P B C N
;
_chemical_formula_sum "Si O2"
_cell_formula_units_Z 32
_cell_length_a 18.860851
_cell_length_b 14.792894
_cell_length_c 5.233790
_cell_angle_alpha 90.000000
_cell_angle_beta 90.000000
_cell_angle_gamma 90.000000
_cell_volume 1460.261794
_symmetry_space_group_name_H-M "P B C N"
_symmetry_group_IT_number 60
_symmetry_cell_setting 'orthorhombic'
loop_
_space_group_symop_operation_xyz
x,y,z
1/2-x,1/2-y,1/2+z
1/2+x,1/2-y,-z
-x,y,1/2-z
-x,-y,-z
1/2+x,1/2+y,1/2-z
1/2-x,1/2+y,z
x,-y,1/2+z
loop_
_atom_site_type_symbol
_atom_site_label
_atom_site_fract_x
_atom_site_fract_y
_atom_site_fract_z
Si Si1 0.584290 0.456410 0.286905
Si Si2 0.677033 0.823851 0.512353
Si Si3 0.531527 0.898835 0.498615
Si Si4 0.835092 0.795449 0.510118
O O1 0.500000 0.464306 0.250000
O O2 0.611990 0.528847 0.498219
O O3 0.603959 0.362825 0.421511
O O4 0.616089 0.898656 0.488910
O O5 0.759561 0.848103 0.487382
O O6 0.668736 0.781281 0.792903
O O7 0.660879 0.750603 0.287981
O O8 0.500000 0.853147 0.750000
O O9 0.500000 0.000000 0.500000
O O10 0.500000 0.851741 0.250000
#
# Coordination Sequence:
#
# PCOD9455982 Si02
#       4
#     8   8   8   8
#     4  10  21  38  57  85 117 144 191 244 297 357
#     4  10  21  38  59  85 121 152 205 248 289 367
#     4  10  21  38  56  83 122 158 197 248 300 359
#     4  10  21  38  60  87 115 159 200 247 302 354
#
# _framework density 21.913876999999999
#
# number of rings (size 3 to 8) (size 9 to 14) (size 15 to 20)
#    0.000    2.000    0.000    3.000    0.000    3.000 
#    9.000    0.000    0.000    0.000    0.000    0.000 
#    0.000    0.000    0.000    0.000    0.000    0.000 
#
# Total GULP energy -178403.844849 kJ/mol
# GULP energy per Si atom -5575.120152 kJ/mol
# Density = 2.186400 g / cm^3
# Si number density = 21.913877 Si / 1000 Ang^3
#
#
#
# Elastic Constant Matrix: (Units=GPa)
#
#
# Indices 1 2 3 4 5 6 
#
# 1 72.1830 18.6602 17.0445 0.0000 0.0000 0.0000
# 2 18.6602 29.3169 -6.1310 0.0000 0.0000 0.0000
# 3 17.0445 -6.1310 113.7393 0.0000 0.0000 0.0000
# 4 0.0000 0.0000 0.0000 7.4215 0.0000 0.0000
# 5 0.0000 0.0000 0.0000 0.0000 24.2176 0.0000
# 6 0.0000 0.0000 0.0000 0.0000 0.0000 38.3896
#
#
#
# Elastic Compliance Matrix: (Units=1/GPa)
#
#
# Indices 1 2 3 4 5 6 
#
# 1 0.017729 -0.011975 -0.003302 0.000000 0.000000 0.000000
# 2 -0.011975 0.042588 0.004090 0.000000 0.000000 0.000000
# 3 -0.003302 0.004090 0.009507 0.000000 0.000000 0.000000
# 4 0.000000 0.000000 0.000000 0.134743 0.000000 0.000000
# 5 0.000000 0.000000 0.000000 0.000000 0.041292 0.000000
# 6 0.000000 0.000000 0.000000 0.000000 0.000000 0.026049
#
#
# Mechanical properties :
#
#
# Convention : Reuss Voigt Hill
#
# Bulk Modulus (GPa) = 21.07505 30.48740 25.78123
# Shear Modulus (GPa) = 16.12386 26.38345 21.25366
#
# Velocity S-wave (km/s) = 2.71548 3.47358 3.11766
# Velocity P-wave (km/s) = 4.41246 5.47998 4.97494
#
# Compressibility (1/GPa) = 0.04744947
#
# Stress axis : x y z
#
# Youngs Moduli (GPa) = 56.40415 23.48102 105.18131
#
# Poissons Ratio (x) = 0.28119 0.34734
# Poissons Ratio (y) = 0.67545 -0.43021
# Poissons Ratio (z) = 0.18627 -0.09604
#
# Static dielectric constant tensor:
#      x y z
#    x 1.823710 0.000000 0.000000 
#    y 0.000000 1.779510 0.000000 
#    z 0.000000 0.000000 1.830590 
# 
# From -- ./inp_files/1041.got.cif
#   From: 2010.05.17/outbox.cif.g08.bks.cpg/sg60_1_cif.got.tgz:1041.got - 2010.06.03 14:59:27.
