data_PCOD9455177
_publ_section_title
;
Structure prediction by ZEFSAII (Michael W. Deem and Ramdas Pophale) SiO2 
 PCOD9455177
Probable space group: P B C N
;
_chemical_formula_sum "Si O2"
_cell_formula_units_Z 40
_cell_length_a 8.626576
_cell_length_b 23.253682
_cell_length_c 7.557971
_cell_angle_alpha 90.000000
_cell_angle_beta 90.000000
_cell_angle_gamma 90.000000
_cell_volume 1516.126375
_symmetry_space_group_name_H-M "P B C N"
_symmetry_group_IT_number 60
_symmetry_cell_setting 'orthorhombic'
loop_
_space_group_symop_operation_xyz
x,y,z
1/2-x,1/2-y,1/2+z
1/2+x,1/2-y,-z
-x,y,1/2-z
-x,-y,-z
1/2+x,1/2+y,1/2-z
1/2-x,1/2+y,z
x,-y,1/2+z
loop_
_atom_site_type_symbol
_atom_site_label
_atom_site_fract_x
_atom_site_fract_y
_atom_site_fract_z
Si Si1 0.500000 0.469342 0.250000
Si Si2 0.000000 0.466666 0.250000
Si Si3 0.725714 0.319793 0.894480
Si Si4 0.267956 0.442192 0.743210
Si Si5 0.758703 0.894309 0.381912
Si Si6 0.609333 0.286164 0.504786
O O1 0.604458 0.517756 0.351982
O O2 0.360980 0.423504 0.271282
O O3 0.866050 0.512701 0.205367
O O4 0.911387 0.421573 0.375714
O O5 0.771800 0.386469 0.871571
O O6 0.674457 0.297621 0.700599
O O7 0.567955 0.307456 0.004224
O O8 0.865519 0.280054 0.958696
O O9 0.327062 0.415563 0.928909
O O10 0.781835 0.826542 0.382366
#
# Coordination Sequence:
#
# PCOD9455177 Si02
#       6
#     4   4   8   8   8   8
#     4  10  20  36  62  90 122 164 214 264 316 386
#     4  10  22  36  60  94 126 168 214 264 320 382
#     4  10  23  42  66  93 129 169 214 267 320 385
#     4  10  20  39  62  91 126 168 212 263 325 381
#     4  10  21  38  60  89 127 165 213 266 320 381
#     4  10  23  43  64  93 127 168 215 264 323 381
#
# _framework density 26.383023999999999
#
# number of rings (size 3 to 8) (size 9 to 14) (size 15 to 20)
#    0.000    2.000    0.000    3.600    0.000    8.800 
#    0.000    6.000    0.000    4.800    0.000    0.000 
#    0.000    0.000    0.000    0.000    0.000    0.000 
#
# Total GULP energy -222996.596218 kJ/mol
# GULP energy per Si atom -5574.914905 kJ/mol
# Density = 2.632298 g / cm^3
# Si number density = 26.383024 Si / 1000 Ang^3
#
#
#
# Elastic Constant Matrix: (Units=GPa)
#
#
# Indices 1 2 3 4 5 6 
#
# 1 90.7200 39.5267 22.0911 0.0000 0.0000 0.0000
# 2 39.5267 181.7339 39.7947 0.0000 0.0000 0.0000
# 3 22.0911 39.7947 73.9590 0.0000 0.0000 0.0000
# 4 0.0000 0.0000 0.0000 3.4662 0.0000 0.0000
# 5 0.0000 0.0000 0.0000 0.0000 32.3991 0.0000
# 6 0.0000 0.0000 0.0000 0.0000 0.0000 49.8605
#
#
#
# Elastic Compliance Matrix: (Units=1/GPa)
#
#
# Indices 1 2 3 4 5 6 
#
# 1 0.012601 -0.002173 -0.002595 0.000000 0.000000 0.000000
# 2 -0.002173 0.006612 -0.002909 0.000000 0.000000 0.000000
# 3 -0.002595 -0.002909 0.015861 0.000000 0.000000 0.000000
# 4 0.000000 0.000000 0.000000 0.288498 0.000000 0.000000
# 5 0.000000 0.000000 0.000000 0.000000 0.030865 0.000000
# 6 0.000000 0.000000 0.000000 0.000000 0.000000 0.020056
#
#
# Mechanical properties :
#
#
# Convention : Reuss Voigt Hill
#
# Bulk Modulus (GPa) = 50.70472 61.02645 55.86558
# Shear Modulus (GPa) = 12.61286 33.47851 23.04569
#
# Velocity S-wave (km/s) = 2.18885 3.56608 2.95872
# Velocity P-wave (km/s) = 5.06443 6.33539 5.73522
#
# Compressibility (1/GPa) = 0.01972203
#
# Stress axis : x y z
#
# Youngs Moduli (GPa) = 79.35618 151.23990 63.04684
#
# Poissons Ratio (x) = 0.32858 0.16361
# Poissons Ratio (y) = 0.17240 0.18339
# Poissons Ratio (z) = 0.20593 0.43992
#
# Static dielectric constant tensor:
#      x y z
#    x 2.065120 0.000000 0.000000 
#    y 0.000000 2.005540 0.000000 
#    z 0.000000 0.000000 2.208590 
# 
# From -- ./inp_files/3925.got.cif
#   From: 2010.05.17/outbox.cif.g08.bks.cpg/sg60_2_cif.got.tgz:3925.got - 2010.06.03 14:59:27.
