data_PCOD9455523
_publ_section_title
;
Structure prediction by ZEFSAII (Michael W. Deem and Ramdas Pophale) SiO2 
 PCOD9455523
Probable space group: P B C N
;
_chemical_formula_sum "Si O2"
_cell_formula_units_Z 24
_cell_length_a 7.515252
_cell_length_b 15.081401
_cell_length_c 8.602048
_cell_angle_alpha 90.000000
_cell_angle_beta 90.000000
_cell_angle_gamma 90.000000
_cell_volume 974.960671
_symmetry_space_group_name_H-M "P B C N"
_symmetry_group_IT_number 60
_symmetry_cell_setting 'orthorhombic'
loop_
_space_group_symop_operation_xyz
x,y,z
1/2-x,1/2-y,1/2+z
1/2+x,1/2-y,-z
-x,y,1/2-z
-x,-y,-z
1/2+x,1/2+y,1/2-z
1/2-x,1/2+y,z
x,-y,1/2+z
loop_
_atom_site_type_symbol
_atom_site_label
_atom_site_fract_x
_atom_site_fract_y
_atom_site_fract_z
Si Si1 0.698395 0.965741 0.438219
Si Si2 0.243037 0.626168 0.894687
Si Si3 0.081821 0.311616 0.910042
O O1 0.715899 0.929845 0.263513
O O2 0.737409 0.878972 0.541685
O O3 0.500000 0.000000 0.500000
O O4 0.805753 0.054025 0.478439
O O5 0.369718 0.710331 0.884255
O O6 0.061200 0.673571 0.953322
O O7 0.000000 0.345962 0.750000
#
# Coordination Sequence:
#
# PCOD9455523 Si02
#       3
#     8   8   8
#     4  10  20  39  66  90 123 171 211 245 308 390
#     4  11  23  41  66  94 125 166 211 261 312 373
#     4  11  22  40  65  94 124 163 213 260 311 373
#
# _framework density 24.616377
#
# number of rings (size 3 to 8) (size 9 to 14) (size 15 to 20)
#    0.000    1.333    0.000   10.000    0.000    0.000 
#    0.000   10.000    0.000    0.000    0.000    0.000 
#    0.000    0.000    0.000    0.000    0.000    0.000 
#
# Total GULP energy -133916.144302 kJ/mol
# GULP energy per Si atom -5579.839346 kJ/mol
# Density = 2.456035 g / cm^3
# Si number density = 24.616377 Si / 1000 Ang^3
#
#
#
# Elastic Constant Matrix: (Units=GPa)
#
#
# Indices 1 2 3 4 5 6 
#
# 1 30.3672 35.2653 11.5249 0.0000 0.0000 0.0000
# 2 35.2653 207.4788 84.5217 0.0000 0.0000 0.0000
# 3 11.5249 84.5217 157.7618 0.0000 0.0000 0.0000
# 4 0.0000 0.0000 0.0000 49.2085 0.0000 0.0000
# 5 0.0000 0.0000 0.0000 0.0000 7.3950 0.0000
# 6 0.0000 0.0000 0.0000 0.0000 0.0000 48.7334
#
#
#
# Elastic Compliance Matrix: (Units=1/GPa)
#
#
# Indices 1 2 3 4 5 6 
#
# 1 0.041139 -0.007379 0.000948 0.000000 0.000000 0.000000
# 2 -0.007379 0.007489 -0.003473 0.000000 0.000000 0.000000
# 3 0.000948 -0.003473 0.008130 0.000000 0.000000 0.000000
# 4 0.000000 0.000000 0.000000 0.020322 0.000000 0.000000
# 5 0.000000 0.000000 0.000000 0.000000 0.135226 0.000000
# 6 0.000000 0.000000 0.000000 0.000000 0.000000 0.020520
#
#
# Mechanical properties :
#
#
# Convention : Reuss Voigt Hill
#
# Bulk Modulus (GPa) = 27.06334 73.13686 50.10010
# Shear Modulus (GPa) = 18.87147 38.68710 28.77929
#
# Velocity S-wave (km/s) = 2.77180 3.96864 3.42294
# Velocity P-wave (km/s) = 4.61104 7.12568 6.00154
#
# Compressibility (1/GPa) = 0.03695035
#
# Stress axis : x y z
#
# Youngs Moduli (GPa) = 24.30770 133.53311 122.99850
#
# Poissons Ratio (x) = 0.98528 -0.11658
# Poissons Ratio (y) = 0.17936 0.42719
# Poissons Ratio (z) = -0.02304 0.46378
#
# Static dielectric constant tensor:
#      x y z
#    x 2.239040 0.000000 0.000000 
#    y 0.000000 2.042480 0.000000 
#    z 0.000000 0.000000 1.973280 
# 
# From -- ./inp_files/3348.got.cif
#   From: 2010.05.17/outbox.cif.g08.bks.cpg/sg60_2_cif.got.tgz:3348.got - 2010.06.03 14:59:27.
