data_PCOD9455611
_publ_section_title
;
Structure prediction by ZEFSAII (Michael W. Deem and Ramdas Pophale) SiO2 
 PCOD9455611
Probable space group: P B C N
;
_chemical_formula_sum "Si O2"
_cell_formula_units_Z 48
_cell_length_a 9.067882
_cell_length_b 28.499588
_cell_length_c 8.596663
_cell_angle_alpha 90.000000
_cell_angle_beta 90.000000
_cell_angle_gamma 90.000000
_cell_volume 2221.643365
_symmetry_space_group_name_H-M "P B C N"
_symmetry_group_IT_number 60
_symmetry_cell_setting 'orthorhombic'
loop_
_space_group_symop_operation_xyz
x,y,z
1/2-x,1/2-y,1/2+z
1/2+x,1/2-y,-z
-x,y,1/2-z
-x,-y,-z
1/2+x,1/2+y,1/2-z
1/2-x,1/2+y,z
x,-y,1/2+z
loop_
_atom_site_type_symbol
_atom_site_label
_atom_site_fract_x
_atom_site_fract_y
_atom_site_fract_z
Si Si1 0.660516 0.215602 0.161277
Si Si2 0.859212 0.448264 0.339903
Si Si3 0.477200 0.857027 0.064511
Si Si4 0.368970 0.395934 0.368182
Si Si5 0.110577 0.026530 0.111264
Si Si6 0.217868 0.189801 0.023496
O O1 0.500000 0.222582 0.250000
O O2 0.779257 0.201598 0.293754
O O3 0.636605 0.176110 0.028549
O O4 0.713435 0.262198 0.073028
O O5 0.929486 0.411479 0.463527
O O6 0.770803 0.410363 0.235618
O O7 0.747387 0.490954 0.367524
O O8 0.000000 0.468106 0.250000
O O9 0.500000 0.847194 0.250000
O O10 0.633654 0.841039 0.995896
O O11 0.500000 0.409303 0.250000
O O12 0.347227 0.427217 0.520392
O O13 0.396470 0.344190 0.435212
O O14 0.000000 0.038430 0.250000
O O15 0.000000 0.000000 0.000000
#
# Coordination Sequence:
#
# PCOD9455611 Si02
#       6
#     8   8   8   8   8   8
#     4  10  23  41  66 101 139 184 231 294 353 426
#     4  11  22  42  72  99 133 184 228 290 364 416
#     4  10  20  40  68  96 135 178 228 287 347 416
#     4  12  24  45  71  98 140 189 232 292 357 421
#     4  12  24  46  67  99 138 183 233 293 358 433
#     4  11  22  42  65 101 137 182 232 291 355 417
#
# _framework density 21.605627999999999
#
# number of rings (size 3 to 8) (size 9 to 14) (size 15 to 20)
#    0.000    1.000    6.667    1.500    0.000    2.000 
#    0.000    1.667    0.000    0.000    0.000    0.000 
#    0.000    0.000    0.000    0.000    0.000    0.000 
#
# Total GULP energy -267260.665806 kJ/mol
# GULP energy per Si atom -5567.930538 kJ/mol
# Density = 2.155645 g / cm^3
# Si number density = 21.605628 Si / 1000 Ang^3
#
#
#
# Elastic Constant Matrix: (Units=GPa)
#
#
# Indices 1 2 3 4 5 6 
#
# 1 96.1410 34.5418 20.7267 0.0000 0.0000 0.0000
# 2 34.5418 132.9626 46.0061 0.0000 0.0000 0.0000
# 3 20.7267 46.0061 97.2966 0.0000 0.0000 0.0000
# 4 0.0000 0.0000 0.0000 24.5322 0.0000 0.0000
# 5 0.0000 0.0000 0.0000 0.0000 30.0215 0.0000
# 6 0.0000 0.0000 0.0000 0.0000 0.0000 -23.2625
#
#
#
# Elastic Compliance Matrix: (Units=1/GPa)
#
#
# Indices 1 2 3 4 5 6 
#
# 1 0.011598 -0.002580 -0.001251 0.000000 0.000000 0.000000
# 2 -0.002580 0.009566 -0.003974 0.000000 0.000000 0.000000
# 3 -0.001251 -0.003974 0.012423 0.000000 0.000000 0.000000
# 4 0.000000 0.000000 0.000000 0.040763 0.000000 0.000000
# 5 0.000000 0.000000 0.000000 0.000000 0.033309 0.000000
# 6 0.000000 0.000000 0.000000 0.000000 0.000000 -0.042988
#
#
# Mechanical properties :
#
#
# Convention : Reuss Voigt Hill
#
# Bulk Modulus (GPa) = 55.62254 58.77213 57.19734
# Shear Modulus (GPa) = 57.95509 21.26662 39.61086
#
# Velocity S-wave (km/s) = 5.18481 3.14077 4.28642
# Velocity P-wave (km/s) = 7.85133 6.35719 7.14344
#
# Compressibility (1/GPa) = 0.01797832
#
# Stress axis : x y z
#
# Youngs Moduli (GPa) = 86.22132 104.53544 80.49476
#
# Poissons Ratio (x) = 0.26973 0.10067
# Poissons Ratio (y) = 0.22248 0.31986
# Poissons Ratio (z) = 0.10783 0.41538
#
# Static dielectric constant tensor:
#      x y z
#    x 1.915450 0.000000 0.000000 
#    y 0.000000 1.794860 0.000000 
#    z 0.000000 0.000000 1.863390 
# 
# From -- ./inp_files/4160.got.cif
#   From: 2010.05.17/outbox.cif.g08.bks.cpg/sg60_3_cif.got.tgz:4160.got - 2010.06.03 14:59:27.
