data_PCOD9455261
_publ_section_title
;
Structure prediction by ZEFSAII (Michael W. Deem and Ramdas Pophale) SiO2 
 PCOD9455261
Probable space group: P B C N
;
_chemical_formula_sum "Si O2"
_cell_formula_units_Z 44
_cell_length_a 13.958219
_cell_length_b 17.630257
_cell_length_c 8.302190
_cell_angle_alpha 90.000000
_cell_angle_beta 90.000000
_cell_angle_gamma 90.000000
_cell_volume 2043.060933
_symmetry_space_group_name_H-M "P B C N"
_symmetry_group_IT_number 60
_symmetry_cell_setting 'orthorhombic'
loop_
_space_group_symop_operation_xyz
x,y,z
1/2-x,1/2-y,1/2+z
1/2+x,1/2-y,-z
-x,y,1/2-z
-x,-y,-z
1/2+x,1/2+y,1/2-z
1/2-x,1/2+y,z
x,-y,1/2+z
loop_
_atom_site_type_symbol
_atom_site_label
_atom_site_fract_x
_atom_site_fract_y
_atom_site_fract_z
Si Si1 0.157359 0.225144 0.541808
Si Si2 0.000000 0.621131 0.750000
Si Si3 0.292330 0.115878 0.372892
Si Si4 0.943480 0.265757 0.536333
Si Si5 0.718081 0.661163 0.620389
Si Si6 0.309130 0.966341 0.216560
O O1 0.196708 0.165014 0.408699
O O2 0.191584 0.305474 0.473620
O O3 0.212697 0.201001 0.703156
O O4 0.045691 0.230048 0.579713
O O5 0.034922 0.680113 0.614520
O O6 0.089189 0.564979 0.783351
O O7 0.381155 0.174478 0.357530
O O8 0.304944 0.065092 0.534861
O O9 0.294581 0.055708 0.230273
O O10 0.871877 0.194211 0.522507
O O11 0.729390 0.574711 0.671653
#
# Coordination Sequence:
#
# PCOD9455261 Si02
#       6
#     8   4   8   8   8   8
#     4  10  20  39  57  84 118 152 200 242 286 350
#     4  10  20  38  58  84 128 148 184 258 294 338
#     4   9  22  38  58  86 120 156 187 242 297 348
#     4  10  20  37  61  86 112 155 200 237 295 337
#     4  10  21  36  59  83 118 153 193 246 290 345
#     4  10  20  39  55  84 123 152 187 240 301 346
#
# _framework density 21.536314999999998
#
# number of rings (size 3 to 8) (size 9 to 14) (size 15 to 20)
#    0.000    2.182    1.818    1.636    0.000    5.818 
#    9.818    0.909    0.000    0.000    0.000    0.000 
#    0.000    0.000    0.000    0.000    0.000    0.000 
#
# Total GULP energy -245294.590887 kJ/mol
# GULP energy per Si atom -5574.877066 kJ/mol
# Density = 2.148730 g / cm^3
# Si number density = 21.536315 Si / 1000 Ang^3
#
#
#
# Elastic Constant Matrix: (Units=GPa)
#
#
# Indices 1 2 3 4 5 6 
#
# 1 110.8820 30.7793 12.0029 0.0000 0.0000 0.0000
# 2 30.7793 97.5472 19.9871 0.0000 0.0000 0.0000
# 3 12.0029 19.9871 31.1767 0.0000 0.0000 0.0000
# 4 0.0000 0.0000 0.0000 40.8872 0.0000 0.0000
# 5 0.0000 0.0000 0.0000 0.0000 19.7433 0.0000
# 6 0.0000 0.0000 0.0000 0.0000 0.0000 20.9284
#
#
#
# Elastic Compliance Matrix: (Units=1/GPa)
#
#
# Indices 1 2 3 4 5 6 
#
# 1 0.010003 -0.002725 -0.002104 0.000000 0.000000 0.000000
# 2 -0.002725 0.012544 -0.006993 0.000000 0.000000 0.000000
# 3 -0.002104 -0.006993 0.037368 0.000000 0.000000 0.000000
# 4 0.000000 0.000000 0.000000 0.024458 0.000000 0.000000
# 5 0.000000 0.000000 0.000000 0.000000 0.050650 0.000000
# 6 0.000000 0.000000 0.000000 0.000000 0.000000 0.047782
#
#
# Mechanical properties :
#
#
# Convention : Reuss Voigt Hill
#
# Bulk Modulus (GPa) = 27.56989 40.57161 34.07075
# Shear Modulus (GPa) = 22.87923 28.10089 25.49006
#
# Velocity S-wave (km/s) = 3.26292 3.61614 3.44406
# Velocity P-wave (km/s) = 5.19854 6.02618 5.62760
#
# Compressibility (1/GPa) = 0.03627145
#
# Stress axis : x y z
#
# Youngs Moduli (GPa) = 99.97197 79.71872 26.76069
#
# Poissons Ratio (x) = 0.21724 0.05630
# Poissons Ratio (y) = 0.27243 0.18713
# Poissons Ratio (z) = 0.21034 0.55745
#
# Static dielectric constant tensor:
#      x y z
#    x 1.808780 0.000000 0.000000 
#    y 0.000000 1.775310 0.000000 
#    z 0.000000 0.000000 1.886540 
# 
# From -- ./inp_files/5830.got.cif
#   From: 2010.05.17/outbox.cif.g08.bks.cpg/sg60_3_cif.got.tgz:5830.got - 2010.06.03 14:59:27.
