data_PCOD9455864
_publ_section_title
;
Structure prediction by ZEFSAII (Michael W. Deem and Ramdas Pophale) SiO2 
 PCOD9455864
Probable space group: P B C N
;
_chemical_formula_sum "Si O2"
_cell_formula_units_Z 40
_cell_length_a 15.001545
_cell_length_b 24.342557
_cell_length_c 5.122027
_cell_angle_alpha 90.000000
_cell_angle_beta 90.000000
_cell_angle_gamma 90.000000
_cell_volume 1870.441149
_symmetry_space_group_name_H-M "P B C N"
_symmetry_group_IT_number 60
_symmetry_cell_setting 'orthorhombic'
loop_
_space_group_symop_operation_xyz
x,y,z
1/2-x,1/2-y,1/2+z
1/2+x,1/2-y,-z
-x,y,1/2-z
-x,-y,-z
1/2+x,1/2+y,1/2-z
1/2-x,1/2+y,z
x,-y,1/2+z
loop_
_atom_site_type_symbol
_atom_site_label
_atom_site_fract_x
_atom_site_fract_y
_atom_site_fract_z
Si Si1 0.500000 0.238694 0.750000
Si Si2 0.500000 0.038469 0.750000
Si Si3 0.500000 0.459299 0.250000
Si Si4 0.149713 0.385144 0.079074
Si Si5 0.193386 0.262719 0.263995
Si Si6 0.678668 0.460336 0.430437
Si Si7 0.000000 0.339625 0.750000
O O1 0.403150 0.267308 0.732692
O O2 0.511403 0.199888 0.497527
O O3 0.415145 0.078060 0.754944
O O4 0.500000 0.000000 0.500000
O O5 0.500000 0.500000 0.500000
O O6 0.590239 0.427742 0.326097
O O7 0.173711 0.326043 0.194190
O O8 0.238828 0.419761 0.051099
O O9 0.087830 0.374391 0.823703
O O10 0.235691 0.257724 0.549684
O O11 0.680556 0.492217 0.707309
#
# Coordination Sequence:
#
# PCOD9455864 Si02
#       7
#     4   4   4   8   8   8   4
#     4  10  21  42  64  88 126 164 212 274 321 384
#     4  12  26  40  62  98 132 172 218 256 322 412
#     4   8  16  34  54  74 104 146 192 230 284 356
#     4  11  23  41  63  91 132 164 206 271 321 381
#     4  11  24  41  65  94 122 169 223 263 328 402
#     4  10  21  36  58  85 116 158 203 253 315 378
#     4  10  21  36  62  88 120 176 208 244 335 402
#
# _framework density 21.385331000000001
#
# number of rings (size 3 to 8) (size 9 to 14) (size 15 to 20)
#    0.000    1.600    0.000    6.600    0.000    8.000 
#    0.000    2.000    0.000    2.400    0.000    0.000 
#    0.000    0.000    0.000    0.000    0.000    0.000 
#
# Total GULP energy -223072.876093 kJ/mol
# GULP energy per Si atom -5576.821902 kJ/mol
# Density = 2.133666 g / cm^3
# Si number density = 21.385331 Si / 1000 Ang^3
#
#
#
# Elastic Constant Matrix: (Units=GPa)
#
#
# Indices 1 2 3 4 5 6 
#
# 1 153.6144 2.8947 2.7183 0.0000 0.0000 0.0000
# 2 2.8947 43.6404 4.6916 0.0000 0.0000 0.0000
# 3 2.7183 4.6916 130.4289 0.0000 0.0000 0.0000
# 4 0.0000 0.0000 0.0000 64.9695 0.0000 0.0000
# 5 0.0000 0.0000 0.0000 0.0000 40.3745 0.0000
# 6 0.0000 0.0000 0.0000 0.0000 0.0000 102.4551
#
#
#
# Elastic Compliance Matrix: (Units=1/GPa)
#
#
# Indices 1 2 3 4 5 6 
#
# 1 0.006520 -0.000419 -0.000121 0.000000 0.000000 0.000000
# 2 -0.000419 0.023030 -0.000820 0.000000 0.000000 0.000000
# 3 -0.000121 -0.000820 0.007699 0.000000 0.000000 0.000000
# 4 0.000000 0.000000 0.000000 0.015392 0.000000 0.000000
# 5 0.000000 0.000000 0.000000 0.000000 0.024768 0.000000
# 6 0.000000 0.000000 0.000000 0.000000 0.000000 0.009760
#
#
# Mechanical properties :
#
#
# Convention : Reuss Voigt Hill
#
# Bulk Modulus (GPa) = 28.96079 38.69924 33.83002
# Shear Modulus (GPa) = 49.30997 62.71844 56.01421
#
# Velocity S-wave (km/s) = 4.80707 5.42139 5.12344
# Velocity P-wave (km/s) = 6.66200 7.57126 7.13114
#
# Compressibility (1/GPa) = 0.03452944
#
# Stress axis : x y z
#
# Youngs Moduli (GPa) = 153.37783 43.42069 129.88680
#
# Poissons Ratio (x) = 0.01821 0.01569
# Poissons Ratio (y) = 0.06434 0.10647
# Poissons Ratio (z) = 0.01853 0.03559
#
# Static dielectric constant tensor:
#      x y z
#    x 1.981700 0.000000 0.000000 
#    y 0.000000 1.761120 0.000000 
#    z 0.000000 0.000000 1.780790 
# 
# From -- ./inp_files/1276.got.cif
#   From: 2010.05.17/outbox.cif.g08.bks.cpg/sg60_1_cif.got.tgz:1276.got - 2010.06.03 14:59:27.
