data_PCOD9455383
_publ_section_title
;
Structure prediction by ZEFSAII (Michael W. Deem and Ramdas Pophale) SiO2 
 PCOD9455383
Probable space group: P B C N
;
_chemical_formula_sum "Si O2"
_cell_formula_units_Z 56
_cell_length_a 12.605489
_cell_length_b 14.711917
_cell_length_c 13.999195
_cell_angle_alpha 90.000000
_cell_angle_beta 90.000000
_cell_angle_gamma 90.000000
_cell_volume 2596.163423
_symmetry_space_group_name_H-M "P B C N"
_symmetry_group_IT_number 60
_symmetry_cell_setting 'orthorhombic'
loop_
_space_group_symop_operation_xyz
x,y,z
1/2-x,1/2-y,1/2+z
1/2+x,1/2-y,-z
-x,y,1/2-z
-x,-y,-z
1/2+x,1/2+y,1/2-z
1/2-x,1/2+y,z
x,-y,1/2+z
loop_
_atom_site_type_symbol
_atom_site_label
_atom_site_fract_x
_atom_site_fract_y
_atom_site_fract_z
Si Si1 0.574192 0.424012 0.043397
Si Si2 0.898498 0.628876 0.985124
Si Si3 0.603556 0.161589 0.626881
Si Si4 0.259576 0.296403 0.774961
Si Si5 0.258149 0.295807 0.551218
Si Si6 0.718024 0.011707 0.124380
Si Si7 0.951391 0.756425 0.150351
O O1 0.666151 0.475018 0.100349
O O2 0.509792 0.351375 0.107381
O O3 0.500000 0.500000 0.000000
O O4 0.639862 0.360414 0.969802
O O5 0.850228 0.536561 0.028229
O O6 0.958595 0.677088 0.073852
O O7 0.797978 0.693200 0.965264
O O8 0.982347 0.637720 0.899699
O O9 0.630061 0.249160 0.692942
O O10 0.667935 0.179970 0.526431
O O11 0.654112 0.070550 0.672374
O O12 0.235282 0.301938 0.663080
O O13 0.236184 0.395614 0.818089
O O14 0.173181 0.231663 0.826431
O O15 0.000000 0.730564 0.250000
#
# Coordination Sequence:
#
# PCOD9455383 Si02
#       7
#     8   8   8   8   8   8   8
#     4  10  22  39  61  93 125 161 212 261 324 379
#     4  10  21  38  65  90 122 170 202 256 328 369
#     4  11  21  43  63  90 130 162 213 264 312 387
#     4  11  22  40  64  88 129 165 209 263 316 374
#     4  10  22  41  62  93 123 168 207 256 325 375
#     4  10  21  41  61  89 127 164 205 267 306 380
#     4  10  20  38  62  91 121 162 215 252 311 382
#
# _framework density 21.570291000000001
#
# number of rings (size 3 to 8) (size 9 to 14) (size 15 to 20)
#    0.000    1.714    5.714    1.286    4.000    2.857 
#    5.143    0.000    9.429    0.000    0.000    0.000 
#    0.000    0.000    0.000    0.000    0.000    0.000 
#
# Total GULP energy -312362.731291 kJ/mol
# GULP energy per Si atom -5577.905916 kJ/mol
# Density = 2.152120 g / cm^3
# Si number density = 21.570291 Si / 1000 Ang^3
#
#
#
# Elastic Constant Matrix: (Units=GPa)
#
#
# Indices 1 2 3 4 5 6 
#
# 1 32.0003 -5.5309 -12.1548 0.0000 0.0000 0.0000
# 2 -5.5309 90.1512 10.1156 0.0000 0.0000 0.0000
# 3 -12.1548 10.1156 61.8386 0.0000 0.0000 0.0000
# 4 0.0000 0.0000 0.0000 3.9076 0.0000 0.0000
# 5 0.0000 0.0000 0.0000 0.0000 20.0675 0.0000
# 6 0.0000 0.0000 0.0000 0.0000 0.0000 16.0227
#
#
#
# Elastic Compliance Matrix: (Units=1/GPa)
#
#
# Indices 1 2 3 4 5 6 
#
# 1 0.033933 0.001358 0.006448 0.000000 0.000000 0.000000
# 2 0.001358 0.011354 -0.001590 0.000000 0.000000 0.000000
# 3 0.006448 -0.001590 0.017699 0.000000 0.000000 0.000000
# 4 0.000000 0.000000 0.000000 0.255914 0.000000 0.000000
# 5 0.000000 0.000000 0.000000 0.000000 0.049832 0.000000
# 6 0.000000 0.000000 0.000000 0.000000 0.000000 0.062411
#
#
# Mechanical properties :
#
#
# Convention : Reuss Voigt Hill
#
# Bulk Modulus (GPa) = 13.25949 18.76112 16.01031
# Shear Modulus (GPa) = 11.26502 20.77023 16.01763
#
# Velocity S-wave (km/s) = 2.28775 3.10644 2.72799
# Velocity P-wave (km/s) = 3.62476 4.64577 4.16666
#
# Compressibility (1/GPa) = 0.07541768
#
# Stress axis : x y z
#
# Youngs Moduli (GPa) = 29.46944 88.07268 56.50163
#
# Poissons Ratio (x) = -0.11964 -0.36430
# Poissons Ratio (y) = -0.04003 0.08986
# Poissons Ratio (z) = -0.19001 0.14007
#
# Static dielectric constant tensor:
#      x y z
#    x 1.856080 0.000000 0.000000 
#    y 0.000000 1.800090 0.000000 
#    z 0.000000 0.000000 1.837640 
# 
# From -- ./inp_files/16174.got.cif
#   From: 2010.05.17/outbox.cif.g08.bks.cpg/sg60_9_cif.got.tgz:16174.got - 2010.06.03 14:59:27.
