data_PCOD9455393
_publ_section_title
;
Structure prediction by ZEFSAII (Michael W. Deem and Ramdas Pophale) SiO2 
 PCOD9455393
Probable space group: P B C N
;
_chemical_formula_sum "Si O2"
_cell_formula_units_Z 60
_cell_length_a 9.973922
_cell_length_b 28.104267
_cell_length_c 10.996242
_cell_angle_alpha 90.000000
_cell_angle_beta 90.000000
_cell_angle_gamma 90.000000
_cell_volume 3082.354032
_symmetry_space_group_name_H-M "P B C N"
_symmetry_group_IT_number 60
_symmetry_cell_setting 'orthorhombic'
loop_
_space_group_symop_operation_xyz
x,y,z
1/2-x,1/2-y,1/2+z
1/2+x,1/2-y,-z
-x,y,1/2-z
-x,-y,-z
1/2+x,1/2+y,1/2-z
1/2-x,1/2+y,z
x,-y,1/2+z
loop_
_atom_site_type_symbol
_atom_site_label
_atom_site_fract_x
_atom_site_fract_y
_atom_site_fract_z
Si Si1 0.872347 0.560048 0.587197
Si Si2 0.500000 0.418408 0.750000
Si Si3 0.271256 0.166210 0.915614
Si Si4 0.137776 0.988174 0.568856
Si Si5 0.840725 0.563580 0.867370
Si Si6 0.750825 0.670546 0.865844
Si Si7 0.005766 0.270124 0.110310
Si Si8 0.009129 0.838509 0.950368
O O1 0.850299 0.616656 0.585254
O O2 0.752779 0.537426 0.510491
O O3 0.858420 0.546765 0.728564
O O4 0.027463 0.549839 0.555749
O O5 0.604789 0.454370 0.815461
O O6 0.542235 0.381627 0.642277
O O7 0.225482 0.179453 0.777779
O O8 0.379978 0.205500 0.956249
O O9 0.141111 0.157620 0.997259
O O10 0.203735 0.038961 0.595347
O O11 0.000000 0.000000 0.500000
O O12 0.827531 0.620200 0.871015
O O13 0.848115 0.710180 0.926496
O O14 0.615156 0.663770 0.940424
O O15 0.989319 0.213844 0.108562
O O16 0.000000 0.287490 0.250000
#
# Coordination Sequence:
#
# PCOD9455393 Si02
#       8
#     8   4   8   8   8   8   8   8
#     4  10  20  39  62  86 117 154 202 263 307 364
#     4  12  26  40  58  94 138 166 204 250 330 386
#     4  10  20  38  63  89 120 157 211 260 309 364
#     4  12  24  41  61  91 125 166 209 255 315 385
#     4  10  21  38  63  88 113 155 211 260 311 362
#     4  10  21  37  63  91 117 157 217 264 304 374
#     4  10  20  38  63  91 119 164 209 256 316 380
#     4  12  22  39  59  89 130 166 201 257 324 377
#
# _framework density 19.465641999999999
#
# number of rings (size 3 to 8) (size 9 to 14) (size 15 to 20)
#    0.000    1.333    3.333    3.200    0.000    0.000 
#    0.000    0.000    0.000    3.200    0.000    0.000 
#    0.000    0.000    0.000    0.000    0.000    0.000 
#
# Total GULP energy -334443.401365 kJ/mol
# GULP energy per Si atom -5574.056689 kJ/mol
# Density = 1.942134 g / cm^3
# Si number density = 19.465642 Si / 1000 Ang^3
#
#
#
# Elastic Constant Matrix: (Units=GPa)
#
#
# Indices 1 2 3 4 5 6 
#
# 1 110.7134 14.7098 27.2797 0.0000 0.0000 0.0000
# 2 14.7098 64.3344 8.0368 0.0000 0.0000 0.0000
# 3 27.2797 8.0368 44.8227 0.0000 0.0000 0.0000
# 4 0.0000 0.0000 0.0000 24.7356 0.0000 0.0000
# 5 0.0000 0.0000 0.0000 0.0000 28.8133 0.0000
# 6 0.0000 0.0000 0.0000 0.0000 0.0000 33.7487
#
#
#
# Elastic Compliance Matrix: (Units=1/GPa)
#
#
# Indices 1 2 3 4 5 6 
#
# 1 0.010802 -0.001686 -0.006272 0.000000 0.000000 0.000000
# 2 -0.001686 0.016163 -0.001872 0.000000 0.000000 0.000000
# 3 -0.006272 -0.001872 0.026463 0.000000 0.000000 0.000000
# 4 0.000000 0.000000 0.000000 0.040427 0.000000 0.000000
# 5 0.000000 0.000000 0.000000 0.000000 0.034706 0.000000
# 6 0.000000 0.000000 0.000000 0.000000 0.000000 0.029631
#
#
# Mechanical properties :
#
#
# Convention : Reuss Voigt Hill
#
# Bulk Modulus (GPa) = 29.61376 35.54701 32.58038
# Shear Modulus (GPa) = 26.43994 28.78247 27.61121
#
# Velocity S-wave (km/s) = 3.68949 3.84947 3.77033
# Velocity P-wave (km/s) = 5.77894 6.16919 5.97725
#
# Compressibility (1/GPa) = 0.03376809
#
# Stress axis : x y z
#
# Youngs Moduli (GPa) = 92.57782 61.86902 37.78888
#
# Poissons Ratio (x) = 0.10433 0.23700
# Poissons Ratio (y) = 0.15611 0.07073
# Poissons Ratio (z) = 0.58062 0.11581
#
# Static dielectric constant tensor:
#      x y z
#    x 1.717270 0.000000 0.000000 
#    y 0.000000 1.686110 0.000000 
#    z 0.000000 0.000000 1.703460 
# 
# From -- ./inp_files/10360.got.cif
#   From: 2010.05.17/outbox.cif.g08.bks.cpg/sg60_6_cif.got.tgz:10360.got - 2010.06.03 14:59:27.
