data_PCOD9455249
_publ_section_title
;
Structure prediction by ZEFSAII (Michael W. Deem and Ramdas Pophale) SiO2 
 PCOD9455249
Probable space group: P B C N
;
_chemical_formula_sum "Si O2"
_cell_formula_units_Z 40
_cell_length_a 19.117367
_cell_length_b 5.201146
_cell_length_c 16.434654
_cell_angle_alpha 90.000000
_cell_angle_beta 90.000000
_cell_angle_gamma 90.000000
_cell_volume 1634.134081
_symmetry_space_group_name_H-M "P B C N"
_symmetry_group_IT_number 60
_symmetry_cell_setting 'orthorhombic'
loop_
_space_group_symop_operation_xyz
x,y,z
1/2-x,1/2-y,1/2+z
1/2+x,1/2-y,-z
-x,y,1/2-z
-x,-y,-z
1/2+x,1/2+y,1/2-z
1/2-x,1/2+y,z
x,-y,1/2+z
loop_
_atom_site_type_symbol
_atom_site_label
_atom_site_fract_x
_atom_site_fract_y
_atom_site_fract_z
Si Si1 0.792236 0.616950 0.295562
Si Si2 0.070150 0.386838 0.269766
Si Si3 0.986482 0.928370 0.874113
Si Si4 0.706947 0.072209 0.490368
Si Si5 0.937303 0.321980 0.528907
O O1 0.766743 0.903202 0.277299
O O2 0.806021 0.582311 0.392367
O O3 0.860267 0.536420 0.245992
O O4 0.000000 0.547021 0.250000
O O5 0.051358 0.266419 0.356031
O O6 0.062286 0.150383 0.203011
O O7 0.938013 0.883646 0.953166
O O8 0.031026 0.180386 0.893176
O O9 0.766376 0.858395 0.510486
O O10 0.636794 0.960305 0.529621
O O11 0.000000 0.500000 0.500000
#
# Coordination Sequence:
#
# PCOD9455249 Si02
#       5
#     8   8   8   8   8
#     4  10  20  37  60  88 119 158 201 248 302 362
#     4   8  17  41  59  85 115 156 200 250 299 362
#     4   8  20  37  59  83 120 147 209 244 308 351
#     4  10  22  37  59  89 124 161 202 250 308 367
#     4  11  21  36  62  89 118 162 205 257 302 372
#
# _framework density 24.477795
#
# number of rings (size 3 to 8) (size 9 to 14) (size 15 to 20)
#    1.200    1.200    2.000    0.000    5.600    1.600 
#    3.600    5.000    0.000    0.000    0.000    0.000 
#    0.000    0.000    0.000    0.000    0.000    0.000 
#
# Total GULP energy -223063.194842 kJ/mol
# GULP energy per Si atom -5576.579871 kJ/mol
# Density = 2.442208 g / cm^3
# Si number density = 24.477795 Si / 1000 Ang^3
#
#
#
# Elastic Constant Matrix: (Units=GPa)
#
#
# Indices 1 2 3 4 5 6 
#
# 1 94.7247 -1.8825 16.9650 0.0000 0.0000 0.0000
# 2 -1.8825 44.4837 15.2593 0.0000 0.0000 0.0000
# 3 16.9650 15.2593 79.7253 0.0000 0.0000 0.0000
# 4 0.0000 0.0000 0.0000 12.5698 0.0000 0.0000
# 5 0.0000 0.0000 0.0000 0.0000 38.2455 0.0000
# 6 0.0000 0.0000 0.0000 0.0000 0.0000 24.3523
#
#
#
# Elastic Compliance Matrix: (Units=1/GPa)
#
#
# Indices 1 2 3 4 5 6 
#
# 1 0.011052 0.001364 -0.002613 0.000000 0.000000 0.000000
# 2 0.001364 0.024228 -0.004927 0.000000 0.000000 0.000000
# 3 -0.002613 -0.004927 0.014042 0.000000 0.000000 0.000000
# 4 0.000000 0.000000 0.000000 0.079556 0.000000 0.000000
# 5 0.000000 0.000000 0.000000 0.000000 0.026147 0.000000
# 6 0.000000 0.000000 0.000000 0.000000 0.000000 0.041064
#
#
# Mechanical properties :
#
#
# Convention : Reuss Voigt Hill
#
# Bulk Modulus (GPa) = 27.04922 31.06857 29.05890
# Shear Modulus (GPa) = 22.64853 27.60632 25.12742
#
# Velocity S-wave (km/s) = 3.04512 3.36193 3.20744
# Velocity P-wave (km/s) = 4.84130 5.27164 5.06105
#
# Compressibility (1/GPa) = 0.03696964
#
# Stress axis : x y z
#
# Youngs Moduli (GPa) = 90.48157 41.27432 71.21399
#
# Poissons Ratio (x) = -0.05630 0.18607
# Poissons Ratio (y) = -0.12342 0.35091
# Poissons Ratio (z) = 0.23641 0.20338
#
# Static dielectric constant tensor:
#      x y z
#    x 1.888600 0.000000 0.000000 
#    y 0.000000 1.904490 0.000000 
#    z 0.000000 0.000000 2.024990 
# 
# From -- ./inp_files/20730.got.cif
#   From: 2010.05.17/outbox.cif.g08.bks.cpg/sg60_11_cif.got.tgz:20730.got - 2010.06.03 14:59:27.
