data_PCOD9455061
_publ_section_title
;
Structure prediction by ZEFSAII (Michael W. Deem and Ramdas Pophale) SiO2 
 PCOD9455061
Probable space group: P B C N
;
_chemical_formula_sum "Si O2"
_cell_formula_units_Z 40
_cell_length_a 20.919510
_cell_length_b 5.551862
_cell_length_c 12.965987
_cell_angle_alpha 90.000000
_cell_angle_beta 90.000000
_cell_angle_gamma 90.000000
_cell_volume 1505.898678
_symmetry_space_group_name_H-M "P B C N"
_symmetry_group_IT_number 60
_symmetry_cell_setting 'orthorhombic'
loop_
_space_group_symop_operation_xyz
x,y,z
1/2-x,1/2-y,1/2+z
1/2+x,1/2-y,-z
-x,y,1/2-z
-x,-y,-z
1/2+x,1/2+y,1/2-z
1/2-x,1/2+y,z
x,-y,1/2+z
loop_
_atom_site_type_symbol
_atom_site_label
_atom_site_fract_x
_atom_site_fract_y
_atom_site_fract_z
Si Si1 0.416294 0.595388 0.197165
Si Si2 0.261173 0.098142 0.851223
Si Si3 0.909205 0.597806 0.610071
Si Si4 0.714208 0.624587 0.423256
Si Si5 0.049739 0.089237 0.894801
O O1 0.426518 0.833920 0.269765
O O2 0.356387 0.628131 0.124173
O O3 0.406193 0.404977 0.290451
O O4 0.479538 0.498024 0.141222
O O5 0.256061 0.352664 0.794840
O O6 0.333373 0.076876 0.890943
O O7 0.215437 0.114197 0.950999
O O8 0.943172 0.359881 0.566738
O O9 0.926259 0.845272 0.550548
O O10 0.750169 0.374897 0.398444
#
# Coordination Sequence:
#
# PCOD9455061 Si02
#       5
#     8   8   8   8   8
#     4   9  22  35  62  89 122 149 199 243 304 353
#     4  10  21  39  58  79 120 167 198 239 291 349
#     4  10  20  35  58  90 119 150 200 240 299 356
#     4  10  23  38  58  83 121 161 200 241 297 348
#     4   9  21  34  59  90 118 151 191 253 300 349
#
# _framework density 26.562211000000001
#
# number of rings (size 3 to 8) (size 9 to 14) (size 15 to 20)
#    1.200    1.200    0.000    1.200    8.400    1.600 
#    0.000    0.000    0.000   28.800    0.000    0.000 
#    0.000    0.000    0.000    0.000    0.000    0.000 
#
# Total GULP energy -223467.991320 kJ/mol
# GULP energy per Si atom -5586.699783 kJ/mol
# Density = 2.650175 g / cm^3
# Si number density = 26.562211 Si / 1000 Ang^3
#
#
#
# Elastic Constant Matrix: (Units=GPa)
#
#
# Indices 1 2 3 4 5 6 
#
# 1 119.8636 74.2332 47.1265 0.0000 0.0000 0.0000
# 2 74.2332 300.9181 46.9102 0.0000 0.0000 0.0000
# 3 47.1265 46.9102 47.8024 0.0000 0.0000 0.0000
# 4 0.0000 0.0000 0.0000 37.0778 0.0000 0.0000
# 5 0.0000 0.0000 0.0000 0.0000 39.3890 0.0000
# 6 0.0000 0.0000 0.0000 0.0000 0.0000 17.0628
#
#
#
# Elastic Compliance Matrix: (Units=1/GPa)
#
#
# Indices 1 2 3 4 5 6 
#
# 1 0.014219 -0.001561 -0.012485 0.000000 0.000000 0.000000
# 2 -0.001561 0.004095 -0.002479 0.000000 0.000000 0.000000
# 3 -0.012485 -0.002479 0.035661 0.000000 0.000000 0.000000
# 4 0.000000 0.000000 0.000000 0.026970 0.000000 0.000000
# 5 0.000000 0.000000 0.000000 0.000000 0.025388 0.000000
# 6 0.000000 0.000000 0.000000 0.000000 0.000000 0.058607
#
#
# Mechanical properties :
#
#
# Convention : Reuss Voigt Hill
#
# Bulk Modulus (GPa) = 47.79452 89.45819 68.62635
# Shear Modulus (GPa) = 24.39429 38.72687 31.56058
#
# Velocity S-wave (km/s) = 3.03377 3.82248 3.45073
# Velocity P-wave (km/s) = 5.50492 7.29614 6.46289
#
# Compressibility (1/GPa) = 0.02092290
#
# Stress axis : x y z
#
# Youngs Moduli (GPa) = 70.33059 244.21323 28.04159
#
# Poissons Ratio (x) = 0.38127 0.35011
# Poissons Ratio (y) = 0.10980 0.06952
# Poissons Ratio (z) = 0.87811 0.60546
#
# Static dielectric constant tensor:
#      x y z
#    x 2.047320 0.000000 0.000000 
#    y 0.000000 2.108590 0.000000 
#    z 0.000000 0.000000 2.138830 
# 
# From -- ./inp_files/20758.got.cif
#   From: 2010.05.17/outbox.cif.g08.bks.cpg/sg60_11_cif.got.tgz:20758.got - 2010.06.03 14:59:27.
