data_PCOD9455790
_publ_section_title
;
Structure prediction by ZEFSAII (Michael W. Deem and Ramdas Pophale) SiO2 
 PCOD9455790
Probable space group: P B C N
;
_chemical_formula_sum "Si O2"
_cell_formula_units_Z 48
_cell_length_a 20.872684
_cell_length_b 20.698255
_cell_length_c 5.529956
_cell_angle_alpha 90.000000
_cell_angle_beta 90.000000
_cell_angle_gamma 90.000000
_cell_volume 2389.096583
_symmetry_space_group_name_H-M "P B C N"
_symmetry_group_IT_number 60
_symmetry_cell_setting 'orthorhombic'
loop_
_space_group_symop_operation_xyz
x,y,z
1/2-x,1/2-y,1/2+z
1/2+x,1/2-y,-z
-x,y,1/2-z
-x,-y,-z
1/2+x,1/2+y,1/2-z
1/2-x,1/2+y,z
x,-y,1/2+z
loop_
_atom_site_type_symbol
_atom_site_label
_atom_site_fract_x
_atom_site_fract_y
_atom_site_fract_z
Si Si1 0.564947 0.678872 0.009322
Si Si2 0.282807 0.480356 0.421013
Si Si3 0.312329 0.807509 0.953086
Si Si4 0.073183 0.030790 0.397673
Si Si5 0.252733 0.662636 0.952617
Si Si6 0.420671 0.271767 0.491836
O O1 0.597750 0.690982 0.753850
O O2 0.554747 0.603240 0.037468
O O3 0.602055 0.701542 0.247868
O O4 0.497313 0.717003 0.002682
O O5 0.249448 0.504549 0.665705
O O6 0.349402 0.520516 0.400968
O O7 0.293730 0.403442 0.444862
O O8 0.286553 0.732841 0.954204
O O9 0.287375 0.838496 0.704200
O O10 0.287299 0.838079 0.201863
O O11 0.389140 0.798016 0.960723
O O12 0.053839 0.986227 0.624399
#
# Coordination Sequence:
#
# PCOD9455790 Si02
#       6
#     8   8   8   8   8   8
#     4  10  21  36  54  76 107 140 186 225 272 330
#     4  10  21  33  53  77 108 146 177 234 273 323
#     4  10  21  35  57  72 102 142 181 250 273 323
#     4  10  21  34  50  74 100 151 184 222 271 306
#     4  10  21  36  51  81  99 135 198 226 285 330
#     4  10  21  36  54  75 102 146 177 243 272 309
#
# _framework density 20.091277999999999
#
# number of rings (size 3 to 8) (size 9 to 14) (size 15 to 20)
#    0.000    2.000    0.000    3.000    9.333    0.000 
#    0.000   10.000    0.000    0.000    0.000    0.000 
#    0.000    0.000    0.000  210.000    0.000    0.000 
#
# Total GULP energy -267619.716011 kJ/mol
# GULP energy per Si atom -5575.410750 kJ/mol
# Density = 2.004555 g / cm^3
# Si number density = 20.091278 Si / 1000 Ang^3
#
#
#
# Elastic Constant Matrix: (Units=GPa)
#
#
# Indices 1 2 3 4 5 6 
#
# 1 53.9346 20.1940 22.5702 0.0000 0.0000 0.0000
# 2 20.1940 43.1565 17.1083 0.0000 0.0000 0.0000
# 3 22.5702 17.1083 218.4426 0.0000 0.0000 0.0000
# 4 0.0000 0.0000 0.0000 3.1638 0.0000 0.0000
# 5 0.0000 0.0000 0.0000 0.0000 15.5207 0.0000
# 6 0.0000 0.0000 0.0000 0.0000 0.0000 -115.9925
#
#
#
# Elastic Compliance Matrix: (Units=1/GPa)
#
#
# Indices 1 2 3 4 5 6 
#
# 1 0.022997 -0.010134 -0.001582 0.000000 0.000000 0.000000
# 2 -0.010134 0.028379 -0.001176 0.000000 0.000000 0.000000
# 3 -0.001582 -0.001176 0.004833 0.000000 0.000000 0.000000
# 4 0.000000 0.000000 0.000000 0.316074 0.000000 0.000000
# 5 0.000000 0.000000 0.000000 0.000000 0.064430 0.000000
# 6 0.000000 0.000000 0.000000 0.000000 0.000000 -0.008621
#
#
# Mechanical properties :
#
#
# Convention : Reuss Voigt Hill
#
# Bulk Modulus (GPa) = 32.86602 48.36430 40.61516
# Shear Modulus (GPa) = 10.77543 -2.41752 4.17895
#
# Velocity S-wave (km/s) = 2.31838 -1.09813 1.44378
# Velocity P-wave (km/s) = 4.85390 4.74518 4.79985
#
# Compressibility (1/GPa) = 0.03042657
#
# Stress axis : x y z
#
# Youngs Moduli (GPa) = 43.48308 35.23685 206.89185
#
# Poissons Ratio (x) = 0.35708 0.32741
# Poissons Ratio (y) = 0.44065 0.24322
# Poissons Ratio (z) = 0.06881 0.04142
#
# Static dielectric constant tensor:
#      x y z
#    x 1.855030 0.000000 0.000000 
#    y 0.000000 1.677100 0.000000 
#    z 0.000000 0.000000 1.833580 
# 
# From -- ./inp_files/2053.got.cif
#   From: 2010.05.17/outbox.cif.g08.bks.cpg/sg60_2_cif.got.tgz:2053.got - 2010.06.03 14:59:27.
