data_PCOD9455871
_publ_section_title
;
Structure prediction by ZEFSAII (Michael W. Deem and Ramdas Pophale) SiO2 
 PCOD9455871
Probable space group: P B C N
;
_chemical_formula_sum "Si O2"
_cell_formula_units_Z 56
_cell_length_a 16.393877
_cell_length_b 5.382409
_cell_length_c 28.327261
_cell_angle_alpha 90.000000
_cell_angle_beta 90.000000
_cell_angle_gamma 90.000000
_cell_volume 2499.556468
_symmetry_space_group_name_H-M "P B C N"
_symmetry_group_IT_number 60
_symmetry_cell_setting 'orthorhombic'
loop_
_space_group_symop_operation_xyz
x,y,z
1/2-x,1/2-y,1/2+z
1/2+x,1/2-y,-z
-x,y,1/2-z
-x,-y,-z
1/2+x,1/2+y,1/2-z
1/2-x,1/2+y,z
x,-y,1/2+z
loop_
_atom_site_type_symbol
_atom_site_label
_atom_site_fract_x
_atom_site_fract_y
_atom_site_fract_z
Si Si1 0.723278 0.446011 0.454028
Si Si2 0.282485 0.609356 0.652906
Si Si3 0.476952 0.352091 0.148211
Si Si4 0.195824 0.392892 0.353182
Si Si5 0.559096 0.693649 0.475452
Si Si6 0.563838 0.948910 0.570940
Si Si7 0.535933 0.147286 0.698496
O O1 0.770840 0.676246 0.476854
O O2 0.754954 0.406524 0.400469
O O3 0.632093 0.543890 0.452779
O O4 0.256298 0.351740 0.676325
O O5 0.379101 0.634846 0.647082
O O6 0.524535 0.279410 0.100224
O O7 0.509756 0.612432 0.167974
O O8 0.498759 0.112588 0.180219
O O9 0.252985 0.637587 0.353637
O O10 0.135289 0.428340 0.398284
O O11 0.133144 0.383295 0.308958
O O12 0.500000 0.500000 0.500000
O O13 0.590622 0.859947 0.519210
O O14 0.510394 0.862243 0.438867
O O15 0.500000 0.191710 0.750000
#
# Coordination Sequence:
#
# PCOD9455871 Si02
#       7
#     8   8   8   8   8   8   8
#     4  10  24  39  59  86 127 175 219 280 348 394
#     4  10  21  36  59  93 130 169 216 271 334 404
#     4  11  23  42  72  96 134 180 228 279 346 431
#     4  11  25  46  73 105 142 185 233 294 362 429
#     4  11  25  41  64  94 138 186 251 304 344 407
#     4  10  26  41  65  98 133 190 243 294 349 417
#     4  11  25  47  75 106 136 177 227 284 360 437
#
# _framework density 22.403976
#
# number of rings (size 3 to 8) (size 9 to 14) (size 15 to 20)
#    0.000    1.429    0.000    3.857   20.000    1.143 
#    0.000    4.286    0.000    0.000    0.000    0.000 
#    0.000    0.000    0.000    0.000    0.000    0.000 
#
# Total GULP energy -313013.288581 kJ/mol
# GULP energy per Si atom -5589.523010 kJ/mol
# Density = 2.235298 g / cm^3
# Si number density = 22.403976 Si / 1000 Ang^3
#
#
#
# Elastic Constant Matrix: (Units=GPa)
#
#
# Indices 1 2 3 4 5 6 
#
# 1 117.5746 55.8452 32.4382 0.0000 0.0000 0.0000
# 2 55.8452 166.9953 33.9628 0.0000 0.0000 0.0000
# 3 32.4382 33.9628 80.8831 0.0000 0.0000 0.0000
# 4 0.0000 0.0000 0.0000 27.6322 0.0000 0.0000
# 5 0.0000 0.0000 0.0000 0.0000 21.9243 0.0000
# 6 0.0000 0.0000 0.0000 0.0000 0.0000 56.4635
#
#
#
# Elastic Compliance Matrix: (Units=1/GPa)
#
#
# Indices 1 2 3 4 5 6 
#
# 1 0.010765 -0.002976 -0.003068 0.000000 0.000000 0.000000
# 2 -0.002976 0.007370 -0.001901 0.000000 0.000000 0.000000
# 3 -0.003068 -0.001901 0.014392 0.000000 0.000000 0.000000
# 4 0.000000 0.000000 0.000000 0.036190 0.000000 0.000000
# 5 0.000000 0.000000 0.000000 0.000000 0.045611 0.000000
# 6 0.000000 0.000000 0.000000 0.000000 0.000000 0.017711
#
#
# Mechanical properties :
#
#
# Convention : Reuss Voigt Hill
#
# Bulk Modulus (GPa) = 60.10525 67.77172 63.93849
# Shear Modulus (GPa) = 32.57864 37.41778 34.99821
#
# Velocity S-wave (km/s) = 3.81746 4.09117 3.95668
# Velocity P-wave (km/s) = 6.80565 7.25482 7.03382
#
# Compressibility (1/GPa) = 0.01663748
#
# Stress axis : x y z
#
# Youngs Moduli (GPa) = 92.89203 135.68364 69.48252
#
# Poissons Ratio (x) = 0.40381 0.21315
# Poissons Ratio (y) = 0.27646 0.13210
# Poissons Ratio (z) = 0.28497 0.25795
#
# Static dielectric constant tensor:
#      x y z
#    x 1.818840 0.000000 0.000000 
#    y 0.000000 1.872970 0.000000 
#    z 0.000000 0.000000 1.851750 
# 
# From -- ./inp_files/26140.got.cif
#   From: 2010.05.17/outbox.cif.g08.bks.cpg/sg60_14_cif.got.tgz:26140.got - 2010.06.03 14:59:27.
