data_PCOD9455529
_publ_section_title
;
Structure prediction by ZEFSAII (Michael W. Deem and Ramdas Pophale) SiO2 
 PCOD9455529
Probable space group: P B C N
;
_chemical_formula_sum "Si O2"
_cell_formula_units_Z 48
_cell_length_a 7.349084
_cell_length_b 11.135607
_cell_length_c 22.564171
_cell_angle_alpha 90.000000
_cell_angle_beta 90.000000
_cell_angle_gamma 90.000000
_cell_volume 1846.573034
_symmetry_space_group_name_H-M "P B C N"
_symmetry_group_IT_number 60
_symmetry_cell_setting 'orthorhombic'
loop_
_space_group_symop_operation_xyz
x,y,z
1/2-x,1/2-y,1/2+z
1/2+x,1/2-y,-z
-x,y,1/2-z
-x,-y,-z
1/2+x,1/2+y,1/2-z
1/2-x,1/2+y,z
x,-y,1/2+z
loop_
_atom_site_type_symbol
_atom_site_label
_atom_site_fract_x
_atom_site_fract_y
_atom_site_fract_z
Si Si1 0.000000 0.621327 0.250000
Si Si2 0.695303 0.674211 0.826042
Si Si3 0.000000 0.689362 0.750000
Si Si4 0.369220 0.135491 0.555418
Si Si5 0.713057 0.306886 0.052776
Si Si6 0.220891 0.153282 0.343240
Si Si7 0.549317 0.503904 0.911007
O O1 0.878833 0.713203 0.290428
O O2 0.857775 0.576159 0.198235
O O3 0.849854 0.615175 0.784810
O O4 0.791782 0.708465 0.887848
O O5 0.564372 0.567958 0.845980
O O6 0.904298 0.772485 0.701534
O O7 0.587032 0.132975 0.556217
O O8 0.307734 0.208613 0.498135
O O9 0.257991 0.009949 0.565402
O O10 0.667283 0.245038 0.115680
O O11 0.559889 0.407664 0.045431
O O12 0.088363 0.099497 0.393770
#
# Coordination Sequence:
#
# PCOD9455529 Si02
#       7
#     4   8   4   8   8   8   8
#     4  10  20  39  67  86 134 178 206 275 333 392
#     4   9  19  39  62  95 124 174 218 258 336 388
#     4  10  20  39  67  88 132 180 208 273 333 394
#     4  10  21  41  66  92 128 170 222 271 334 392
#     4  12  21  44  69  93 134 176 219 281 338 393
#     4  11  22  42  64  95 132 172 227 271 333 395
#     4  10  23  41  63 102 126 169 224 269 323 401
#
# _framework density 25.994097
#
# number of rings (size 3 to 8) (size 9 to 14) (size 15 to 20)
#    1.000    0.667    5.000    0.000    0.000    1.333 
#    6.000    1.667    0.000    0.000    0.000    0.000 
#    0.000    0.000    0.000    0.000    0.000    0.000 
#
# Total GULP energy -267806.406541 kJ/mol
# GULP energy per Si atom -5579.300136 kJ/mol
# Density = 2.593493 g / cm^3
# Si number density = 25.994097 Si / 1000 Ang^3
#
#
#
# Elastic Constant Matrix: (Units=GPa)
#
#
# Indices 1 2 3 4 5 6 
#
# 1 96.9357 4.8009 17.3473 0.0000 0.0000 0.0000
# 2 4.8009 24.3887 6.0002 0.0000 0.0000 0.0000
# 3 17.3473 6.0002 136.6091 0.0000 0.0000 0.0000
# 4 0.0000 0.0000 0.0000 54.4922 0.0000 0.0000
# 5 0.0000 0.0000 0.0000 0.0000 59.8516 0.0000
# 6 0.0000 0.0000 0.0000 0.0000 0.0000 21.6384
#
#
#
# Elastic Compliance Matrix: (Units=1/GPa)
#
#
# Indices 1 2 3 4 5 6 
#
# 1 0.010632 -0.001780 -0.001272 0.000000 0.000000 0.000000
# 2 -0.001780 0.041748 -0.001608 0.000000 0.000000 0.000000
# 3 -0.001272 -0.001608 0.007552 0.000000 0.000000 0.000000
# 4 0.000000 0.000000 0.000000 0.018351 0.000000 0.000000
# 5 0.000000 0.000000 0.000000 0.000000 0.016708 0.000000
# 6 0.000000 0.000000 0.000000 0.000000 0.000000 0.046214
#
#
# Mechanical properties :
#
#
# Convention : Reuss Voigt Hill
#
# Bulk Modulus (GPa) = 19.75756 34.91448 27.33602
# Shear Modulus (GPa) = 29.86922 42.51542 36.19232
#
# Velocity S-wave (km/s) = 3.39348 4.04862 3.73544
# Velocity P-wave (km/s) = 4.79287 5.94272 5.39850
#
# Compressibility (1/GPa) = 0.05061354
#
# Stress axis : x y z
#
# Youngs Moduli (GPa) = 94.05666 23.95297 132.41027
#
# Poissons Ratio (x) = 0.04264 0.16841
# Poissons Ratio (y) = 0.16742 0.21287
# Poissons Ratio (z) = 0.11963 0.03851
#
# Static dielectric constant tensor:
#      x y z
#    x 2.005260 0.000000 0.000000 
#    y 0.000000 2.129590 0.000000 
#    z 0.000000 0.000000 2.009620 
# 
# From -- ./inp_files/22115.got.cif
#   From: 2010.05.17/outbox.cif.g08.bks.cpg/sg60_12_cif.got.tgz:22115.got - 2010.06.03 14:59:27.
