data_PCOD9455474
_publ_section_title
;
Structure prediction by ZEFSAII (Michael W. Deem and Ramdas Pophale) SiO2 
 PCOD9455474
Probable space group: P B C N
;
_chemical_formula_sum "Si O2"
_cell_formula_units_Z 60
_cell_length_a 11.349641
_cell_length_b 10.660086
_cell_length_c 23.259318
_cell_angle_alpha 90.000000
_cell_angle_beta 90.000000
_cell_angle_gamma 90.000000
_cell_volume 2814.101835
_symmetry_space_group_name_H-M "P B C N"
_symmetry_group_IT_number 60
_symmetry_cell_setting 'orthorhombic'
loop_
_space_group_symop_operation_xyz
x,y,z
1/2-x,1/2-y,1/2+z
1/2+x,1/2-y,-z
-x,y,1/2-z
-x,-y,-z
1/2+x,1/2+y,1/2-z
1/2-x,1/2+y,z
x,-y,1/2+z
loop_
_atom_site_type_symbol
_atom_site_label
_atom_site_fract_x
_atom_site_fract_y
_atom_site_fract_z
Si Si1 0.500000 0.282241 0.250000
Si Si2 0.701059 0.587868 0.429043
Si Si3 0.005073 0.274297 0.057767
Si Si4 0.867682 0.015791 0.049867
Si Si5 0.566988 0.596856 0.868546
Si Si6 0.313478 0.890724 0.373191
Si Si7 0.957022 0.655760 0.430489
Si Si8 0.338784 0.149030 0.333856
O O1 0.460386 0.363684 0.195758
O O2 0.396718 0.196039 0.275243
O O3 0.633095 0.720572 0.426608
O O4 0.632175 0.527546 0.484027
O O5 0.661985 0.511274 0.373411
O O6 0.840143 0.572706 0.435474
O O7 0.946234 0.358440 0.107125
O O8 0.907770 0.160259 0.051858
O O9 0.010236 0.331592 0.993986
O O10 0.744178 0.958202 0.071064
O O11 0.951745 0.951749 0.097445
O O12 0.602214 0.716110 0.906565
O O13 0.249572 0.760677 0.354336
O O14 0.295809 0.005380 0.328484
O O15 0.059401 0.638578 0.383251
#
# Coordination Sequence:
#
# PCOD9455474 Si02
#       8
#     4   8   8   8   8   8   8   8
#     4  10  22  46  68  84 124 170 232 272 332 394
#     4  11  21  35  63 100 139 176 216 275 336 408
#     4  11  21  34  62  97 135 180 215 262 324 412
#     4  11  18  36  63  95 134 178 212 265 328 412
#     4  10  20  39  60  86 125 176 220 263 333 402
#     4  12  22  40  69  94 133 167 228 262 332 396
#     4  11  21  36  59  93 137 167 212 263 338 387
#     4  11  26  45  67  96 124 176 218 282 321 395
#
# _framework density 21.321190000000001
#
# number of rings (size 3 to 8) (size 9 to 14) (size 15 to 20)
#    0.000    1.067    8.000    0.800    0.000    1.600 
#    4.800    0.000    0.000    1.600    0.000    0.000 
#    0.000    0.000    0.000    0.000    0.000    0.000 
#
# Total GULP energy -334346.690929 kJ/mol
# GULP energy per Si atom -5572.444849 kJ/mol
# Density = 2.127266 g / cm^3
# Si number density = 21.321190 Si / 1000 Ang^3
#
#
#
# Elastic Constant Matrix: (Units=GPa)
#
#
# Indices 1 2 3 4 5 6 
#
# 1 68.6853 22.3759 18.6148 0.0000 0.0000 0.0000
# 2 22.3759 71.6290 29.4372 0.0000 0.0000 0.0000
# 3 18.6148 29.4372 98.9187 0.0000 0.0000 0.0000
# 4 0.0000 0.0000 0.0000 13.9069 0.0000 0.0000
# 5 0.0000 0.0000 0.0000 0.0000 22.0352 0.0000
# 6 0.0000 0.0000 0.0000 0.0000 0.0000 10.0880
#
#
#
# Elastic Compliance Matrix: (Units=1/GPa)
#
#
# Indices 1 2 3 4 5 6 
#
# 1 0.016482 -0.004414 -0.001788 0.000000 0.000000 0.000000
# 2 -0.004414 0.017088 -0.004255 0.000000 0.000000 0.000000
# 3 -0.001788 -0.004255 0.011712 0.000000 0.000000 0.000000
# 4 0.000000 0.000000 0.000000 0.071907 0.000000 0.000000
# 5 0.000000 0.000000 0.000000 0.000000 0.045382 0.000000
# 6 0.000000 0.000000 0.000000 0.000000 0.000000 0.099128
#
#
# Mechanical properties :
#
#
# Convention : Reuss Voigt Hill
#
# Bulk Modulus (GPa) = 41.03626 42.23210 41.63418
# Shear Modulus (GPa) = 17.19781 20.45967 18.82874
#
# Velocity S-wave (km/s) = 2.84316 3.10109 2.97492
# Velocity P-wave (km/s) = 5.48330 5.71602 5.60087
#
# Compressibility (1/GPa) = 0.02436869
#
# Stress axis : x y z
#
# Youngs Moduli (GPa) = 60.67356 58.52006 85.38289
#
# Poissons Ratio (x) = 0.25830 0.15267
# Poissons Ratio (y) = 0.26780 0.36328
# Poissons Ratio (z) = 0.10849 0.24898
#
# Static dielectric constant tensor:
#      x y z
#    x 1.916300 0.000000 0.000000 
#    y 0.000000 1.935540 0.000000 
#    z 0.000000 0.000000 1.732280 
# 
# From -- ./inp_files/22688.got.cif
#   From: 2010.05.17/outbox.cif.g08.bks.cpg/sg60_12_cif.got.tgz:22688.got - 2010.06.03 14:59:27.
