data_PCOD9455391
_publ_section_title
;
Structure prediction by ZEFSAII (Michael W. Deem and Ramdas Pophale) SiO2 
 PCOD9455391
Probable space group: P B C N
;
_chemical_formula_sum "Si O2"
_cell_formula_units_Z 48
_cell_length_a 7.676555
_cell_length_b 19.574931
_cell_length_c 14.059361
_cell_angle_alpha 90.000000
_cell_angle_beta 90.000000
_cell_angle_gamma 90.000000
_cell_volume 2112.672543
_symmetry_space_group_name_H-M "P B C N"
_symmetry_group_IT_number 60
_symmetry_cell_setting 'orthorhombic'
loop_
_space_group_symop_operation_xyz
x,y,z
1/2-x,1/2-y,1/2+z
1/2+x,1/2-y,-z
-x,y,1/2-z
-x,-y,-z
1/2+x,1/2+y,1/2-z
1/2-x,1/2+y,z
x,-y,1/2+z
loop_
_atom_site_type_symbol
_atom_site_label
_atom_site_fract_x
_atom_site_fract_y
_atom_site_fract_z
Si Si1 0.282489 0.019631 0.392401
Si Si2 0.201165 0.837950 0.657321
Si Si3 0.167745 0.846554 0.008471
Si Si4 0.500000 0.547820 0.250000
Si Si5 0.718406 0.629507 0.556260
Si Si6 0.499281 0.778977 0.111665
Si Si7 0.500000 0.087635 0.250000
O O1 0.220208 0.083365 0.455463
O O2 0.461957 0.041660 0.341891
O O3 0.153814 0.008254 0.301269
O O4 0.273961 0.949221 0.447508
O O5 0.068715 0.900792 0.669014
O O6 0.261494 0.838496 0.548056
O O7 0.122405 0.765079 0.681994
O O8 0.342842 0.861460 0.731860
O O9 0.347419 0.820005 0.055026
O O10 0.990557 0.861988 0.069705
O O11 0.096326 0.784616 0.942027
O O12 0.844684 0.668251 0.630087
#
# Coordination Sequence:
#
# PCOD9455391 Si02
#       7
#     8   8   8   4   8   8   4
#     4  11  23  42  66  96 129 177 226 275 336 398
#     4  10  21  39  63  97 123 176 216 276 322 395
#     4  11  21  37  68  99 126 164 215 282 322 392
#     4  10  20  38  63  87 136 170 212 260 336 398
#     4  11  23  41  69  99 129 171 228 278 327 383
#     4  11  21  38  64  96 131 158 215 274 331 382
#     4  10  24  40  67  91 134 176 228 270 336 414
#
# _framework density 22.720037000000001
#
# number of rings (size 3 to 8) (size 9 to 14) (size 15 to 20)
#    0.000    1.333    6.667    1.500    0.000    2.667 
#    3.000    0.833    0.000    1.000    0.000    0.000 
#    0.000    0.000    0.000    0.000    0.000    0.000 
#
# Total GULP energy -267457.501995 kJ/mol
# GULP energy per Si atom -5572.031292 kJ/mol
# Density = 2.266833 g / cm^3
# Si number density = 22.720037 Si / 1000 Ang^3
#
#
#
# Elastic Constant Matrix: (Units=GPa)
#
#
# Indices 1 2 3 4 5 6 
#
# 1 101.6704 45.7811 3.8728 0.0000 0.0000 0.0000
# 2 45.7811 139.5137 20.6092 0.0000 0.0000 0.0000
# 3 3.8728 20.6092 20.8449 0.0000 0.0000 0.0000
# 4 0.0000 0.0000 0.0000 16.7566 0.0000 0.0000
# 5 0.0000 0.0000 0.0000 0.0000 18.3834 0.0000
# 6 0.0000 0.0000 0.0000 0.0000 0.0000 19.5557
#
#
#
# Elastic Compliance Matrix: (Units=1/GPa)
#
#
# Indices 1 2 3 4 5 6 
#
# 1 0.011604 -0.004086 0.001884 0.000000 0.000000 0.000000
# 2 -0.004086 0.009832 -0.008962 0.000000 0.000000 0.000000
# 3 0.001884 -0.008962 0.056484 0.000000 0.000000 0.000000
# 4 0.000000 0.000000 0.000000 0.059678 0.000000 0.000000
# 5 0.000000 0.000000 0.000000 0.000000 0.054397 0.000000
# 6 0.000000 0.000000 0.000000 0.000000 0.000000 0.051136
#
#
# Mechanical properties :
#
#
# Convention : Reuss Voigt Hill
#
# Bulk Modulus (GPa) = 17.98817 44.72836 31.35827
# Shear Modulus (GPa) = 17.60620 23.72353 20.66487
#
# Velocity S-wave (km/s) = 2.78676 3.23486 3.01914
# Velocity P-wave (km/s) = 4.27659 5.80361 5.09760
#
# Compressibility (1/GPa) = 0.05559208
#
# Stress axis : x y z
#
# Youngs Moduli (GPa) = 86.17822 101.70356 17.70403
#
# Poissons Ratio (x) = 0.41557 -0.03335
# Poissons Ratio (y) = 0.35213 0.15867
# Poissons Ratio (z) = -0.16236 0.91149
#
# Static dielectric constant tensor:
#      x y z
#    x 1.999870 0.000000 0.000000 
#    y 0.000000 1.809670 0.000000 
#    z 0.000000 0.000000 1.987170 
# 
# From -- ./inp_files/15071.got.cif
#   From: 2010.05.17/outbox.cif.g08.bks.cpg/sg60_8_cif.got.tgz:15071.got - 2010.06.03 14:59:27.
