data_PCOD9455964
_publ_section_title
;
Structure prediction by ZEFSAII (Michael W. Deem and Ramdas Pophale) SiO2 
 PCOD9455964
Probable space group: P B C N
;
_chemical_formula_sum "Si O2"
_cell_formula_units_Z 52
_cell_length_a 12.706800
_cell_length_b 18.319079
_cell_length_c 9.748105
_cell_angle_alpha 90.000000
_cell_angle_beta 90.000000
_cell_angle_gamma 90.000000
_cell_volume 2269.133400
_symmetry_space_group_name_H-M "P B C N"
_symmetry_group_IT_number 60
_symmetry_cell_setting 'orthorhombic'
loop_
_space_group_symop_operation_xyz
x,y,z
1/2-x,1/2-y,1/2+z
1/2+x,1/2-y,-z
-x,y,1/2-z
-x,-y,-z
1/2+x,1/2+y,1/2-z
1/2-x,1/2+y,z
x,-y,1/2+z
loop_
_atom_site_type_symbol
_atom_site_label
_atom_site_fract_x
_atom_site_fract_y
_atom_site_fract_z
Si Si1 0.117051 0.811187 0.975238
Si Si2 0.342453 0.466256 0.281827
Si Si3 0.642677 0.003252 0.604414
Si Si4 0.500000 0.898697 0.750000
Si Si5 0.463313 0.842942 0.447996
Si Si6 0.500000 0.650293 0.750000
Si Si7 0.180264 0.383313 0.086057
Si Si8 0.500000 0.588909 0.250000
O O1 0.107428 0.728155 0.926160
O O2 0.049043 0.862342 0.872287
O O3 0.237403 0.839676 0.989353
O O4 0.066084 0.812229 0.129317
O O5 0.268803 0.497526 0.399081
O O6 0.423157 0.405322 0.329930
O O7 0.257207 0.421904 0.193089
O O8 0.406095 0.531883 0.210606
O O9 0.595518 0.083393 0.598939
O O10 0.598143 0.953310 0.726812
O O11 0.616136 0.951830 0.477202
O O12 0.483036 0.852406 0.612688
O O13 0.579302 0.833415 0.379834
#
# Coordination Sequence:
#
# PCOD9455964 Si02
#       8
#     8   8   8   4   8   4   8   4
#     4  11  24  45  63 100 140 176 217 275 344 401
#     4  10  21  37  65  92 126 172 228 277 325 385
#     4  11  20  38  66  94 121 172 222 276 318 398
#     4  10  21  41  63  91 128 172 222 274 327 391
#     4  11  24  41  66  96 137 171 220 280 337 401
#     4   9  23  40  64  91 137 178 222 268 326 410
#     4  10  22  41  63  94 128 172 225 267 329 401
#     4  11  24  41  67  98 135 176 226 284 333 397
#
# _framework density 22.916236000000001
#
# number of rings (size 3 to 8) (size 9 to 14) (size 15 to 20)
#    0.000    1.538    1.538    4.154    2.154    4.923 
#    2.769    3.077    0.000    0.000    0.000    0.000 
#    0.000    0.000    0.000    0.000    0.000    0.000 
#
# Total GULP energy -289878.267827 kJ/mol
# GULP energy per Si atom -5574.582074 kJ/mol
# Density = 2.286408 g / cm^3
# Si number density = 22.916236 Si / 1000 Ang^3
#
#
#
# Elastic Constant Matrix: (Units=GPa)
#
#
# Indices 1 2 3 4 5 6 
#
# 1 122.8720 56.5427 11.9011 0.0000 0.0000 0.0000
# 2 56.5427 138.4783 17.4726 0.0000 0.0000 0.0000
# 3 11.9011 17.4726 55.9779 0.0000 0.0000 0.0000
# 4 0.0000 0.0000 0.0000 27.8173 0.0000 0.0000
# 5 0.0000 0.0000 0.0000 0.0000 35.7452 0.0000
# 6 0.0000 0.0000 0.0000 0.0000 0.0000 27.0852
#
#
#
# Elastic Compliance Matrix: (Units=1/GPa)
#
#
# Indices 1 2 3 4 5 6 
#
# 1 0.010064 -0.003997 -0.000892 0.000000 0.000000 0.000000
# 2 -0.003997 0.009105 -0.001992 0.000000 0.000000 0.000000
# 3 -0.000892 -0.001992 0.018676 0.000000 0.000000 0.000000
# 4 0.000000 0.000000 0.000000 0.035949 0.000000 0.000000
# 5 0.000000 0.000000 0.000000 0.000000 0.027976 0.000000
# 6 0.000000 0.000000 0.000000 0.000000 0.000000 0.036921
#
#
# Mechanical properties :
#
#
# Convention : Reuss Voigt Hill
#
# Bulk Modulus (GPa) = 41.52413 54.35122 47.93767
# Shear Modulus (GPa) = 31.15664 33.55697 32.35680
#
# Velocity S-wave (km/s) = 3.69126 3.83081 3.76168
# Velocity P-wave (km/s) = 6.02715 6.58298 6.31119
#
# Compressibility (1/GPa) = 0.02408238
#
# Stress axis : x y z
#
# Youngs Moduli (GPa) = 99.36219 109.83385 53.54552
#
# Poissons Ratio (x) = 0.43898 0.04777
# Poissons Ratio (y) = 0.39713 0.10667
# Poissons Ratio (z) = 0.08865 0.21881
#
# Static dielectric constant tensor:
#      x y z
#    x 1.936750 0.000000 0.000000 
#    y 0.000000 1.857510 0.000000 
#    z 0.000000 0.000000 2.033080 
# 
# From -- ./inp_files/12087.got.cif
#   From: 2010.05.17/outbox.cif.g08.bks.cpg/sg60_7_cif.got.tgz:12087.got - 2010.06.03 14:59:27.
