data_PCOD9455234
_publ_section_title
;
Structure prediction by ZEFSAII (Michael W. Deem and Ramdas Pophale) SiO2 
 PCOD9455234
Probable space group: P B C N
;
_chemical_formula_sum "Si O2"
_cell_formula_units_Z 20
_cell_length_a 8.817504
_cell_length_b 9.407645
_cell_length_c 8.897266
_cell_angle_alpha 90.000000
_cell_angle_beta 90.000000
_cell_angle_gamma 90.000000
_cell_volume 738.045541
_symmetry_space_group_name_H-M "P B C N"
_symmetry_group_IT_number 60
_symmetry_cell_setting 'orthorhombic'
loop_
_space_group_symop_operation_xyz
x,y,z
1/2-x,1/2-y,1/2+z
1/2+x,1/2-y,-z
-x,y,1/2-z
-x,-y,-z
1/2+x,1/2+y,1/2-z
1/2-x,1/2+y,z
x,-y,1/2+z
loop_
_atom_site_type_symbol
_atom_site_label
_atom_site_fract_x
_atom_site_fract_y
_atom_site_fract_z
Si Si1 0.264092 0.551610 0.054946
Si Si2 0.000000 0.566656 0.250000
Si Si3 0.296799 0.692897 0.354103
O O1 0.119468 0.487775 0.144595
O O2 0.343544 0.647040 0.184784
O O3 0.193980 0.653357 0.927042
O O4 0.350508 0.424334 0.974679
O O5 0.114020 0.667376 0.342104
#
# Coordination Sequence:
#
# PCOD9455234 Si02
#       3
#     8   4   8
#     4  10  20  37  59  84 114 145 187 233 277 331
#     4   8  22  32  64  80 114 140 206 206 294 322
#     4  10  20  37  59  84 114 145 187 233 277 331
#
# _framework density 27.098597999999999
#
# number of rings (size 3 to 8) (size 9 to 14) (size 15 to 20)
#    2.400    0.000    0.000    3.600    0.000    0.000 
#    0.000    2.000    0.000    0.000    0.000    0.000 
#    0.000    0.000    0.000    0.000    0.000    0.000 
#
# Total GULP energy -111542.330351 kJ/mol
# GULP energy per Si atom -5577.116518 kJ/mol
# Density = 2.703692 g / cm^3
# Si number density = 27.098598 Si / 1000 Ang^3
#
#
#
# Elastic Constant Matrix: (Units=GPa)
#
#
# Indices 1 2 3 4 5 6 
#
# 1 70.3367 -2.3402 24.6835 0.0000 0.0000 0.0000
# 2 -2.3402 120.1994 52.0505 0.0000 0.0000 0.0000
# 3 24.6835 52.0505 178.8554 0.0000 0.0000 0.0000
# 4 0.0000 0.0000 0.0000 41.0164 0.0000 0.0000
# 5 0.0000 0.0000 0.0000 0.0000 48.1654 0.0000
# 6 0.0000 0.0000 0.0000 0.0000 0.0000 17.8773
#
#
#
# Elastic Compliance Matrix: (Units=1/GPa)
#
#
# Indices 1 2 3 4 5 6 
#
# 1 0.015136 0.001372 -0.002488 0.000000 0.000000 0.000000
# 2 0.001372 0.009644 -0.002996 0.000000 0.000000 0.000000
# 3 -0.002488 -0.002996 0.006806 0.000000 0.000000 0.000000
# 4 0.000000 0.000000 0.000000 0.024381 0.000000 0.000000
# 5 0.000000 0.000000 0.000000 0.000000 0.020762 0.000000
# 6 0.000000 0.000000 0.000000 0.000000 0.000000 0.055937
#
#
# Mechanical properties :
#
#
# Convention : Reuss Voigt Hill
#
# Bulk Modulus (GPa) = 42.80406 57.57548 50.18977
# Shear Modulus (GPa) = 33.63008 41.07833 37.35420
#
# Velocity S-wave (km/s) = 3.52664 3.89766 3.71678
# Velocity P-wave (km/s) = 5.69323 6.44581 6.08117
#
# Compressibility (1/GPa) = 0.02336227
#
# Stress axis : x y z
#
# Youngs Moduli (GPa) = 66.06683 103.69658 146.92156
#
# Poissons Ratio (x) = -0.14229 0.36558
# Poissons Ratio (y) = -0.09066 0.44015
# Poissons Ratio (z) = 0.16439 0.31066
#
# Static dielectric constant tensor:
#      x y z
#    x 2.158170 0.000000 0.000000 
#    y 0.000000 2.004880 0.000000 
#    z 0.000000 0.000000 2.165750 
# 
# From -- ./inp_files/3241.got.cif
#   From: 2010.05.17/outbox.cif.g08.bks.cpg/sg60_2_cif.got.tgz:3241.got - 2010.06.03 14:59:27.
