data_PCOD9455707
_publ_section_title
;
Structure prediction by ZEFSAII (Michael W. Deem and Ramdas Pophale) SiO2 
 PCOD9455707
Probable space group: P B C N
;
_chemical_formula_sum "Si O2"
_cell_formula_units_Z 24
_cell_length_a 4.928817
_cell_length_b 17.045573
_cell_length_c 12.704547
_cell_angle_alpha 90.000000
_cell_angle_beta 90.000000
_cell_angle_gamma 90.000000
_cell_volume 1067.366291
_symmetry_space_group_name_H-M "P B C N"
_symmetry_group_IT_number 60
_symmetry_cell_setting 'orthorhombic'
loop_
_space_group_symop_operation_xyz
x,y,z
1/2-x,1/2-y,1/2+z
1/2+x,1/2-y,-z
-x,y,1/2-z
-x,-y,-z
1/2+x,1/2+y,1/2-z
1/2-x,1/2+y,z
x,-y,1/2+z
loop_
_atom_site_type_symbol
_atom_site_label
_atom_site_fract_x
_atom_site_fract_y
_atom_site_fract_z
Si Si1 0.264493 0.069804 0.676961
Si Si2 0.000000 0.577871 0.250000
Si Si3 0.500000 0.683624 0.250000
Si Si4 0.734157 0.278465 0.441330
O O1 0.500000 0.106376 0.750000
O O2 0.218765 0.128829 0.581779
O O3 0.000000 0.064376 0.750000
O O4 0.379738 0.981926 0.661353
O O5 0.253313 0.628357 0.288577
O O6 0.361252 0.734977 0.159524
O O7 0.438890 0.244850 0.466023
#
# Coordination Sequence:
#
# PCOD9455707 Si02
#       4
#     8   4   4   8
#     4  10  20  42  67  88 130 177 209 256 342 376
#     4  10  21  40  71  94 124 188 204 264 349 372
#     4  12  23  44  67  98 134 166 222 282 311 394
#     4  12  26  42  68 101 129 175 224 268 328 392
#
# _framework density 22.485253
#
# number of rings (size 3 to 8) (size 9 to 14) (size 15 to 20)
#    1.000    0.000    3.333    4.000    2.333    0.000 
#    0.000   10.000    0.000    0.000    0.000    0.000 
#    0.000    0.000    0.000    0.000    0.000    0.000 
#
# Total GULP energy -133962.889259 kJ/mol
# GULP energy per Si atom -5581.787052 kJ/mol
# Density = 2.243408 g / cm^3
# Si number density = 22.485253 Si / 1000 Ang^3
#
#
#
# Elastic Constant Matrix: (Units=GPa)
#
#
# Indices 1 2 3 4 5 6 
#
# 1 123.1721 22.9118 -9.3564 0.0000 0.0000 0.0000
# 2 22.9118 102.6092 18.5799 0.0000 0.0000 0.0000
# 3 -9.3564 18.5799 28.4651 0.0000 0.0000 0.0000
# 4 0.0000 0.0000 0.0000 12.7741 0.0000 0.0000
# 5 0.0000 0.0000 0.0000 0.0000 35.5307 0.0000
# 6 0.0000 0.0000 0.0000 0.0000 0.0000 5961.4322
#
#
#
# Elastic Compliance Matrix: (Units=1/GPa)
#
#
# Indices 1 2 3 4 5 6 
#
# 1 0.009026 -0.002895 0.004856 0.000000 0.000000 0.000000
# 2 -0.002895 0.011980 -0.008771 0.000000 0.000000 0.000000
# 3 0.004856 -0.008771 0.042452 0.000000 0.000000 0.000000
# 4 0.000000 0.000000 0.000000 0.078283 0.000000 0.000000
# 5 0.000000 0.000000 0.000000 0.000000 0.028145 0.000000
# 6 0.000000 0.000000 0.000000 0.000000 0.000000 0.000168
#
#
# Mechanical properties :
#
#
# Convention : Reuss Voigt Hill
#
# Bulk Modulus (GPa) = 20.06456 35.39078 27.72767
# Shear Modulus (GPa) = 24.96413 1216.75481 620.85947
#
# Velocity S-wave (km/s) = 3.33565 23.28754 16.63484
# Velocity P-wave (km/s) = 4.87629 27.18185 19.52730
#
# Compressibility (1/GPa) = 0.04983912
#
# Stress axis : x y z
#
# Youngs Moduli (GPa) = 110.78989 83.46974 23.55579
#
# Poissons Ratio (x) = 0.24163 -0.11440
# Poissons Ratio (y) = 0.32072 0.20662
# Poissons Ratio (z) = -0.53804 0.73215
#
# Static dielectric constant tensor:
#      x y z
#    x 1.758050 0.000000 0.000000 
#    y 0.000000 1.860080 0.000000 
#    z 0.000000 0.000000 1.847490 
# 
# From -- ./inp_files/8686.got.cif
#   From: 2010.05.17/outbox.cif.g08.bks.cpg/sg60_5_cif.got.tgz:8686.got - 2010.06.03 14:59:27.
