data_PCOD9455156
_publ_section_title
;
Structure prediction by ZEFSAII (Michael W. Deem and Ramdas Pophale) SiO2 
 PCOD9455156
Probable space group: P B C N
;
_chemical_formula_sum "Si O2"
_cell_formula_units_Z 52
_cell_length_a 18.589677
_cell_length_b 15.792346
_cell_length_c 9.325853
_cell_angle_alpha 90.000000
_cell_angle_beta 90.000000
_cell_angle_gamma 90.000000
_cell_volume 2737.833669
_symmetry_space_group_name_H-M "P B C N"
_symmetry_group_IT_number 60
_symmetry_cell_setting 'orthorhombic'
loop_
_space_group_symop_operation_xyz
x,y,z
1/2-x,1/2-y,1/2+z
1/2+x,1/2-y,-z
-x,y,1/2-z
-x,-y,-z
1/2+x,1/2+y,1/2-z
1/2-x,1/2+y,z
x,-y,1/2+z
loop_
_atom_site_type_symbol
_atom_site_label
_atom_site_fract_x
_atom_site_fract_y
_atom_site_fract_z
Si Si1 0.148475 0.672880 0.515581
Si Si2 0.685452 0.360981 0.980884
Si Si3 0.500000 0.483612 0.250000
Si Si4 0.948310 0.460974 0.615391
Si Si5 0.097971 0.036122 0.501209
Si Si6 0.727571 0.403903 0.675370
Si Si7 0.307467 0.074696 0.804701
O O1 0.146036 0.772860 0.492038
O O2 0.209518 0.638975 0.410190
O O3 0.169711 0.635727 0.673360
O O4 0.079271 0.625350 0.455493
O O5 0.708047 0.353780 0.816034
O O6 0.631428 0.441119 0.990002
O O7 0.757411 0.377572 0.076938
O O8 0.561927 0.438794 0.346859
O O9 0.539514 0.536386 0.126197
O O10 0.880120 0.524769 0.643914
O O11 0.000000 0.447100 0.750000
O O12 0.000000 0.500000 0.500000
O O13 0.163383 0.089305 0.438478
O O14 0.753943 0.496190 0.734056
#
# Coordination Sequence:
#
# PCOD9455156 Si02
#       7
#     8   8   4   8   8   8   8
#     4  11  23  38  60  92 120 154 196 258 308 351
#     4  11  22  38  59  90 124 149 198 264 304 348
#     4  10  20  36  60  82 108 150 208 228 286 348
#     4  11  22  41  67  89 119 165 211 245 297 385
#     4  10  20  37  61  84 112 157 200 246 281 367
#     4  10  20  37  62  86 112 155 204 246 297 357
#     4  10  21  38  64  88 114 159 207 245 303 367
#
# _framework density 18.993119
#
# number of rings (size 3 to 8) (size 9 to 14) (size 15 to 20)
#    0.000    1.538    3.077    3.692    4.308    0.000 
#    1.385    1.538    3.385    0.000    0.000    0.000 
#    0.000    0.000    0.000    0.000    0.000    0.000 
#
# Total GULP energy -289626.294687 kJ/mol
# GULP energy per Si atom -5569.736436 kJ/mol
# Density = 1.894989 g / cm^3
# Si number density = 18.993119 Si / 1000 Ang^3
#
#
#
# Elastic Constant Matrix: (Units=GPa)
#
#
# Indices 1 2 3 4 5 6 
#
# 1 100.1960 30.9985 42.3795 0.0000 0.0000 0.0000
# 2 30.9985 58.6924 36.4202 0.0000 0.0000 0.0000
# 3 42.3795 36.4202 119.1975 0.0000 0.0000 0.0000
# 4 0.0000 0.0000 0.0000 28.8780 0.0000 0.0000
# 5 0.0000 0.0000 0.0000 0.0000 42.7594 0.0000
# 6 0.0000 0.0000 0.0000 0.0000 0.0000 14.1080
#
#
#
# Elastic Compliance Matrix: (Units=1/GPa)
#
#
# Indices 1 2 3 4 5 6 
#
# 1 0.012775 -0.004848 -0.003061 0.000000 0.000000 0.000000
# 2 -0.004848 0.022864 -0.005262 0.000000 0.000000 0.000000
# 3 -0.003061 -0.005262 0.011086 0.000000 0.000000 0.000000
# 4 0.000000 0.000000 0.000000 0.034628 0.000000 0.000000
# 5 0.000000 0.000000 0.000000 0.000000 0.023387 0.000000
# 6 0.000000 0.000000 0.000000 0.000000 0.000000 0.070882
#
#
# Mechanical properties :
#
#
# Convention : Reuss Voigt Hill
#
# Bulk Modulus (GPa) = 49.06190 55.29804 52.17997
# Shear Modulus (GPa) = 23.95130 28.36824 26.15977
#
# Velocity S-wave (km/s) = 3.55498 3.86891 3.71526
# Velocity P-wave (km/s) = 6.53743 7.00971 6.77768
#
# Compressibility (1/GPa) = 0.02038241
#
# Stress axis : x y z
#
# Youngs Moduli (GPa) = 78.27887 43.73732 90.20769
#
# Poissons Ratio (x) = 0.21203 0.27610
# Poissons Ratio (y) = 0.37948 0.47470
# Poissons Ratio (z) = 0.23959 0.23016
#
# Static dielectric constant tensor:
#      x y z
#    x 1.721470 0.000000 0.000000 
#    y 0.000000 1.654110 0.000000 
#    z 0.000000 0.000000 1.652240 
# 
# From -- ./inp_files/6866.got.cif
#   From: 2010.05.17/outbox.cif.g08.bks.cpg/sg60_4_cif.got.tgz:6866.got - 2010.06.03 14:59:27.
