data_PCOD9455533
_publ_section_title
;
Structure prediction by ZEFSAII (Michael W. Deem and Ramdas Pophale) SiO2 
 PCOD9455533
Probable space group: P B C N
;
_chemical_formula_sum "Si O2"
_cell_formula_units_Z 36
_cell_length_a 6.818942
_cell_length_b 10.489144
_cell_length_c 20.742476
_cell_angle_alpha 90.000000
_cell_angle_beta 90.000000
_cell_angle_gamma 90.000000
_cell_volume 1483.602787
_symmetry_space_group_name_H-M "P B C N"
_symmetry_group_IT_number 60
_symmetry_cell_setting 'orthorhombic'
loop_
_space_group_symop_operation_xyz
x,y,z
1/2-x,1/2-y,1/2+z
1/2+x,1/2-y,-z
-x,y,1/2-z
-x,-y,-z
1/2+x,1/2+y,1/2-z
1/2-x,1/2+y,z
x,-y,1/2+z
loop_
_atom_site_type_symbol
_atom_site_label
_atom_site_fract_x
_atom_site_fract_y
_atom_site_fract_z
Si Si1 0.112101 0.163809 0.812460
Si Si2 0.591727 0.594031 0.358743
Si Si3 0.768993 0.295070 0.564115
Si Si4 0.230522 0.035234 0.013309
Si Si5 0.000000 0.277522 0.250000
O O1 0.100162 0.253607 0.874941
O O2 0.339089 0.146563 0.791007
O O3 0.000000 0.213471 0.750000
O O4 0.016985 0.030277 0.831820
O O5 0.437283 0.670674 0.402850
O O6 0.753300 0.546157 0.409599
O O7 0.622750 0.686444 0.298489
O O8 0.742170 0.171869 0.519587
O O9 0.835503 0.417443 0.522761
O O10 0.000000 0.000000 0.000000
#
# Coordination Sequence:
#
# PCOD9455533 Si02
#       5
#     8   8   8   8   4
#     4  11  22  43  73 100 144 187 233 294 359 425
#     4  10  21  43  68  97 142 190 229 298 358 420
#     4  10  20  40  66  97 134 184 230 291 348 423
#     4  10  20  39  68  90 139 182 226 296 358 399
#     4  10  24  44  68 104 142 186 238 290 354 438
#
# _framework density 24.265255
#
# number of rings (size 3 to 8) (size 9 to 14) (size 15 to 20)
#    0.000    1.778    5.556    0.000    0.000    1.778 
#    8.000    4.444    0.000    0.000    0.000    0.000 
#    0.000    0.000    0.000    0.000    0.000    0.000 
#
# Total GULP energy -201248.250978 kJ/mol
# GULP energy per Si atom -5590.229194 kJ/mol
# Density = 2.421003 g / cm^3
# Si number density = 24.265255 Si / 1000 Ang^3
#
#
#
# Elastic Constant Matrix: (Units=GPa)
#
#
# Indices 1 2 3 4 5 6 
#
# 1 58.1268 25.3137 31.6752 0.0000 0.0000 0.0000
# 2 25.3137 133.6432 70.3376 0.0000 0.0000 0.0000
# 3 31.6752 70.3376 169.9939 0.0000 0.0000 0.0000
# 4 0.0000 0.0000 0.0000 40.9502 0.0000 0.0000
# 5 0.0000 0.0000 0.0000 0.0000 40.7556 0.0000
# 6 0.0000 0.0000 0.0000 0.0000 0.0000 12.6526
#
#
#
# Elastic Compliance Matrix: (Units=1/GPa)
#
#
# Indices 1 2 3 4 5 6 
#
# 1 0.019685 -0.002299 -0.002717 0.000000 0.000000 0.000000
# 2 -0.002299 0.009834 -0.003641 0.000000 0.000000 0.000000
# 3 -0.002717 -0.003641 0.007895 0.000000 0.000000 0.000000
# 4 0.000000 0.000000 0.000000 0.024420 0.000000 0.000000
# 5 0.000000 0.000000 0.000000 0.000000 0.024537 0.000000
# 6 0.000000 0.000000 0.000000 0.000000 0.000000 0.079035
#
#
# Mechanical properties :
#
#
# Convention : Reuss Voigt Hill
#
# Bulk Modulus (GPa) = 49.74608 68.49076 59.11842
# Shear Modulus (GPa) = 26.39642 34.50084 30.44863
#
# Velocity S-wave (km/s) = 3.30180 3.77479 3.54619
# Velocity P-wave (km/s) = 5.92295 6.87647 6.41745
#
# Compressibility (1/GPa) = 0.02010209
#
# Stress axis : x y z
#
# Youngs Moduli (GPa) = 50.79920 101.68640 126.65931
#
# Poissons Ratio (x) = 0.23375 0.34411
# Poissons Ratio (y) = 0.11677 0.46113
# Poissons Ratio (z) = 0.13801 0.37021
#
# Static dielectric constant tensor:
#      x y z
#    x 2.269970 0.000000 0.000000 
#    y 0.000000 1.931100 0.000000 
#    z 0.000000 0.000000 2.028610 
# 
# From -- ./inp_files/21945.got.cif
#   From: 2010.05.17/outbox.cif.g08.bks.cpg/sg60_11_cif.got.tgz:21945.got - 2010.06.03 14:59:27.
