data_PCOD9455539
_publ_section_title
;
Structure prediction by ZEFSAII (Michael W. Deem and Ramdas Pophale) SiO2 
 PCOD9455539
Probable space group: P B C N
;
_chemical_formula_sum "Si O2"
_cell_formula_units_Z 32
_cell_length_a 9.545736
_cell_length_b 14.353537
_cell_length_c 9.014876
_cell_angle_alpha 90.000000
_cell_angle_beta 90.000000
_cell_angle_gamma 90.000000
_cell_volume 1235.173910
_symmetry_space_group_name_H-M "P B C N"
_symmetry_group_IT_number 60
_symmetry_cell_setting 'orthorhombic'
loop_
_space_group_symop_operation_xyz
x,y,z
1/2-x,1/2-y,1/2+z
1/2+x,1/2-y,-z
-x,y,1/2-z
-x,-y,-z
1/2+x,1/2+y,1/2-z
1/2-x,1/2+y,z
x,-y,1/2+z
loop_
_atom_site_type_symbol
_atom_site_label
_atom_site_fract_x
_atom_site_fract_y
_atom_site_fract_z
Si Si1 0.500000 0.848870 0.250000
Si Si2 0.915418 0.076397 0.408212
Si Si3 0.310173 0.936563 0.008764
Si Si4 0.410322 0.731746 0.499590
Si Si5 0.500000 0.871667 0.750000
O O1 0.423330 0.909103 0.129081
O O2 0.393035 0.785725 0.344775
O O3 0.000000 0.077726 0.250000
O O4 0.939839 0.177673 0.478794
O O5 0.762418 0.032483 0.438133
O O6 0.000000 0.000000 0.500000
O O7 0.198957 0.851670 0.014399
O O8 0.388291 0.928202 0.850964
O O9 0.421189 0.801622 0.635830
#
# Coordination Sequence:
#
# PCOD9455539 Si02
#       5
#     4   8   8   8   4
#     4  10  20  40  67 105 134 190 234 312 378 428
#     4  10  22  41  68 107 140 190 252 309 364 440
#     4  10  22  39  67 104 148 182 246 306 375 455
#     4  10  20  39  70 105 133 189 254 305 354 447
#     4  10  22  40  69 109 144 194 238 316 386 426
#
# _framework density 25.907281999999999
#
# number of rings (size 3 to 8) (size 9 to 14) (size 15 to 20)
#    0.000    2.000    1.250    1.500    7.000    0.000 
#    0.000    5.000    0.000   18.000   13.000    0.000 
#    0.000    0.000    0.000    0.000    0.000    0.000 
#
# Total GULP energy -179056.261736 kJ/mol
# GULP energy per Si atom -5595.508179 kJ/mol
# Density = 2.584832 g / cm^3
# Si number density = 25.907282 Si / 1000 Ang^3
#
#
#
# Elastic Constant Matrix: (Units=GPa)
#
#
# Indices 1 2 3 4 5 6 
#
# 1 109.9197 69.4569 63.9110 0.0000 0.0000 0.0000
# 2 69.4569 134.0161 77.2996 0.0000 0.0000 0.0000
# 3 63.9110 77.2996 198.8344 0.0000 0.0000 0.0000
# 4 0.0000 0.0000 0.0000 29.2011 0.0000 0.0000
# 5 0.0000 0.0000 0.0000 0.0000 43.5023 0.0000
# 6 0.0000 0.0000 0.0000 0.0000 0.0000 36.9800
#
#
#
# Elastic Compliance Matrix: (Units=1/GPa)
#
#
# Indices 1 2 3 4 5 6 
#
# 1 0.014238 -0.006109 -0.002201 0.000000 0.000000 0.000000
# 2 -0.006109 0.012240 -0.002795 0.000000 0.000000 0.000000
# 3 -0.002201 -0.002795 0.006823 0.000000 0.000000 0.000000
# 4 0.000000 0.000000 0.000000 0.034245 0.000000 0.000000
# 5 0.000000 0.000000 0.000000 0.000000 0.022987 0.000000
# 6 0.000000 0.000000 0.000000 0.000000 0.000000 0.027042
#
#
# Mechanical properties :
#
#
# Convention : Reuss Voigt Hill
#
# Bulk Modulus (GPa) = 90.16825 96.01169 93.08997
# Shear Modulus (GPa) = 34.84719 37.41021 36.12870
#
# Velocity S-wave (km/s) = 3.67150 3.80413 3.73840
# Velocity P-wave (km/s) = 7.27001 7.51235 7.39217
#
# Compressibility (1/GPa) = 0.01109038
#
# Stress axis : x y z
#
# Youngs Moduli (GPa) = 70.23481 81.69836 146.55442
#
# Poissons Ratio (x) = 0.49913 0.32262
# Poissons Ratio (y) = 0.42909 0.40959
# Poissons Ratio (z) = 0.15461 0.22833
#
# Static dielectric constant tensor:
#      x y z
#    x 3.937400 0.000000 0.000000 
#    y 0.000000 2.031800 0.000000 
#    z 0.000000 0.000000 1.998090 
# 
# From -- ./inp_files/4581.got.cif
#   From: 2010.05.17/outbox.cif.g08.bks.cpg/sg60_3_cif.got.tgz:4581.got - 2010.06.03 14:59:27.
