data_PCOD9455811
_publ_section_title
;
Structure prediction by ZEFSAII (Michael W. Deem and Ramdas Pophale) SiO2 
 PCOD9455811
Probable space group: P B C N
;
_chemical_formula_sum "Si O2"
_cell_formula_units_Z 52
_cell_length_a 21.861256
_cell_length_b 5.625357
_cell_length_c 21.841436
_cell_angle_alpha 90.000000
_cell_angle_beta 90.000000
_cell_angle_gamma 90.000000
_cell_volume 2686.002345
_symmetry_space_group_name_H-M "P B C N"
_symmetry_group_IT_number 60
_symmetry_cell_setting 'orthorhombic'
loop_
_space_group_symop_operation_xyz
x,y,z
1/2-x,1/2-y,1/2+z
1/2+x,1/2-y,-z
-x,y,1/2-z
-x,-y,-z
1/2+x,1/2+y,1/2-z
1/2-x,1/2+y,z
x,-y,1/2+z
loop_
_atom_site_type_symbol
_atom_site_label
_atom_site_fract_x
_atom_site_fract_y
_atom_site_fract_z
Si Si1 0.215760 0.943242 0.240027
Si Si2 0.081014 0.041020 0.435429
Si Si3 0.961606 0.266649 0.946481
Si Si4 0.500709 0.146209 0.858246
Si Si5 0.408487 0.517103 0.673692
Si Si6 0.000000 0.683214 0.250000
Si Si7 0.213071 0.947314 0.384905
O O1 0.257828 0.177318 0.230715
O O2 0.198282 0.951530 0.312130
O O3 0.160716 0.979293 0.192989
O O4 0.076084 0.224940 0.491999
O O5 0.051419 0.168667 0.376225
O O6 0.149033 0.954790 0.421662
O O7 0.030010 0.843229 0.451765
O O8 0.925854 0.129773 0.891962
O O9 0.974016 0.527076 0.920188
O O10 0.559728 0.261817 0.826982
O O11 0.476652 0.962317 0.808646
O O12 0.445091 0.663156 0.724380
O O13 0.250423 0.197018 0.396979
#
# Coordination Sequence:
#
# PCOD9455811 Si02
#       7
#     8   8   8   8   8   4   8
#     4  10  24  41  63  87 125 171 207 257 316 379
#     4  10  21  39  64  86 127 160 209 262 313 366
#     4   9  21  39  60  96 118 163 202 260 321 377
#     4  10  21  34  60  92 121 159 199 255 320 374
#     4  10  22  38  57  91 123 153 211 252 315 382
#     4  10  22  32  56  92 124 152 198 264 314 370
#     4  10  24  42  61  91 120 166 216 257 308 373
#
# _framework density 19.359625999999999
#
# number of rings (size 3 to 8) (size 9 to 14) (size 15 to 20)
#    0.000    2.154    0.000    0.923   15.077    1.231 
#    0.000    1.538    0.000    0.000    0.000    0.000 
#    0.000    0.000    0.000    0.000    0.000    0.000 
#
# Total GULP energy -289946.161103 kJ/mol
# GULP energy per Si atom -5575.887714 kJ/mol
# Density = 1.931556 g / cm^3
# Si number density = 19.359626 Si / 1000 Ang^3
#
#
#
# Elastic Constant Matrix: (Units=GPa)
#
#
# Indices 1 2 3 4 5 6 
#
# 1 88.0304 11.8427 35.0551 0.0000 0.0000 0.0000
# 2 11.8427 63.6969 8.1239 0.0000 0.0000 0.0000
# 3 35.0551 8.1239 58.4160 0.0000 0.0000 0.0000
# 4 0.0000 0.0000 0.0000 39.7666 0.0000 0.0000
# 5 0.0000 0.0000 0.0000 0.0000 30.1800 0.0000
# 6 0.0000 0.0000 0.0000 0.0000 0.0000 19.5443
#
#
#
# Elastic Compliance Matrix: (Units=1/GPa)
#
#
# Indices 1 2 3 4 5 6 
#
# 1 0.015102 -0.001682 -0.008829 0.000000 0.000000 0.000000
# 2 -0.001682 0.016170 -0.001240 0.000000 0.000000 0.000000
# 3 -0.008829 -0.001240 0.022589 0.000000 0.000000 0.000000
# 4 0.000000 0.000000 0.000000 0.025147 0.000000 0.000000
# 5 0.000000 0.000000 0.000000 0.000000 0.033135 0.000000
# 6 0.000000 0.000000 0.000000 0.000000 0.000000 0.051166
#
#
# Mechanical properties :
#
#
# Convention : Reuss Voigt Hill
#
# Bulk Modulus (GPa) = 32.93700 35.57631 34.25665
# Shear Modulus (GPa) = 25.39002 28.23961 26.81482
#
# Velocity S-wave (km/s) = 3.62538 3.82342 3.72572
# Velocity P-wave (km/s) = 5.88003 6.15693 6.02007
#
# Compressibility (1/GPa) = 0.03036100
#
# Stress axis : x y z
#
# Youngs Moduli (GPa) = 66.21807 61.84244 44.26951
#
# Poissons Ratio (x) = 0.10400 0.39083
# Poissons Ratio (y) = 0.11136 0.05488
# Poissons Ratio (z) = 0.58461 0.07666
#
# Static dielectric constant tensor:
#      x y z
#    x 1.626380 0.000000 0.000000 
#    y 0.000000 1.769900 0.000000 
#    z 0.000000 0.000000 1.682600 
# 
# From -- ./inp_files/23181.got.cif
#   From: 2010.05.17/outbox.cif.g08.bks.cpg/sg60_12_cif.got.tgz:23181.got - 2010.06.03 14:59:27.
