data_PCOD9455883
_publ_section_title
;
Structure prediction by ZEFSAII (Michael W. Deem and Ramdas Pophale) SiO2 
 PCOD9455883
Probable space group: P B C N
;
_chemical_formula_sum "Si O2"
_cell_formula_units_Z 48
_cell_length_a 17.065956
_cell_length_b 15.931651
_cell_length_c 7.678506
_cell_angle_alpha 90.000000
_cell_angle_beta 90.000000
_cell_angle_gamma 90.000000
_cell_volume 2087.700204
_symmetry_space_group_name_H-M "P B C N"
_symmetry_group_IT_number 60
_symmetry_cell_setting 'orthorhombic'
loop_
_space_group_symop_operation_xyz
x,y,z
1/2-x,1/2-y,1/2+z
1/2+x,1/2-y,-z
-x,y,1/2-z
-x,-y,-z
1/2+x,1/2+y,1/2-z
1/2-x,1/2+y,z
x,-y,1/2+z
loop_
_atom_site_type_symbol
_atom_site_label
_atom_site_fract_x
_atom_site_fract_y
_atom_site_fract_z
Si Si1 0.954621 0.886690 0.475637
Si Si2 0.672860 0.732095 0.999469
Si Si3 0.237110 0.626606 0.245872
Si Si4 0.416059 0.034426 0.156780
Si Si5 0.584510 0.137633 0.705236
Si Si6 0.601226 0.433611 0.862153
O O1 0.907177 0.805511 0.417963
O O2 0.925766 0.900433 0.674429
O O3 0.048583 0.886088 0.492639
O O4 0.924791 0.969852 0.378885
O O5 0.727381 0.657886 0.071580
O O6 0.645878 0.790006 0.162978
O O7 0.714834 0.791108 0.863264
O O8 0.158985 0.572193 0.255022
O O9 0.306000 0.579284 0.138430
O O10 0.500000 0.047411 0.250000
O O11 0.401906 0.934108 0.151012
O O12 0.419286 0.082286 0.972644
O O13 0.500000 0.176474 0.750000
#
# Coordination Sequence:
#
# PCOD9455883 Si02
#       6
#     8   8   8   8   8   8
#     4   9  19  37  59  85 111 148 192 233 282 345
#     4  10  23  37  56  88 117 146 191 238 297 339
#     4  10  23  38  55  86 119 152 194 239 289 344
#     4  10  21  39  56  85 114 152 202 236 285 353
#     4  10  21  36  62  83 110 154 196 236 288 344
#     4   9  19  36  60  80 112 149 191 231 281 348
#
# _framework density 22.991806
#
# number of rings (size 3 to 8) (size 9 to 14) (size 15 to 20)
#    0.000    2.333    0.000    2.000    4.667   10.667 
#    3.000    0.000    3.667    0.000    0.000    0.000 
#    0.000    0.000    0.000    0.000    0.000    0.000 
#
# Total GULP energy -268031.632110 kJ/mol
# GULP energy per Si atom -5583.992336 kJ/mol
# Density = 2.293948 g / cm^3
# Si number density = 22.991806 Si / 1000 Ang^3
#
#
#
# Elastic Constant Matrix: (Units=GPa)
#
#
# Indices 1 2 3 4 5 6 
#
# 1 145.5442 41.4723 20.6657 0.0000 0.0000 0.0000
# 2 41.4723 52.5171 2.1565 0.0000 0.0000 0.0000
# 3 20.6657 2.1565 35.8164 0.0000 0.0000 0.0000
# 4 0.0000 0.0000 0.0000 29.8535 0.0000 0.0000
# 5 0.0000 0.0000 0.0000 0.0000 10.9770 0.0000
# 6 0.0000 0.0000 0.0000 0.0000 0.0000 24.3785
#
#
#
# Elastic Compliance Matrix: (Units=1/GPa)
#
#
# Indices 1 2 3 4 5 6 
#
# 1 0.009734 -0.007475 -0.005167 0.000000 0.000000 0.000000
# 2 -0.007475 0.024829 0.002818 0.000000 0.000000 0.000000
# 3 -0.005167 0.002818 0.030732 0.000000 0.000000 0.000000
# 4 0.000000 0.000000 0.000000 0.033497 0.000000 0.000000
# 5 0.000000 0.000000 0.000000 0.000000 0.091099 0.000000
# 6 0.000000 0.000000 0.000000 0.000000 0.000000 0.041020
#
#
# Mechanical properties :
#
#
# Convention : Reuss Voigt Hill
#
# Bulk Modulus (GPa) = 21.90696 40.27408 31.09052
# Shear Modulus (GPa) = 18.81302 24.34733 21.58017
#
# Velocity S-wave (km/s) = 2.86361 3.25769 3.06699
# Velocity P-wave (km/s) = 4.52576 5.63070 5.10820
#
# Compressibility (1/GPa) = 0.04564759
#
# Stress axis : x y z
#
# Youngs Moduli (GPa) = 102.72919 40.27606 32.53985
#
# Poissons Ratio (x) = 0.30106 0.16812
# Poissons Ratio (y) = 0.76790 -0.09170
# Poissons Ratio (z) = 0.53075 -0.11350
#
# Static dielectric constant tensor:
#      x y z
#    x 1.904820 0.000000 0.000000 
#    y 0.000000 1.852970 0.000000 
#    z 0.000000 0.000000 1.897190 
# 
# From -- ./inp_files/6737.got.cif
#   From: 2010.05.17/outbox.cif.g08.bks.cpg/sg60_4_cif.got.tgz:6737.got - 2010.06.03 14:59:27.
