data_PCOD9455045
_publ_section_title
;
Structure prediction by ZEFSAII (Michael W. Deem and Ramdas Pophale) SiO2 
 PCOD9455045
Probable space group: P B C N
;
_chemical_formula_sum "Si O2"
_cell_formula_units_Z 64
_cell_length_a 8.368935
_cell_length_b 20.667653
_cell_length_c 14.567555
_cell_angle_alpha 90.000000
_cell_angle_beta 90.000000
_cell_angle_gamma 90.000000
_cell_volume 2519.695281
_symmetry_space_group_name_H-M "P B C N"
_symmetry_group_IT_number 60
_symmetry_cell_setting 'orthorhombic'
loop_
_space_group_symop_operation_xyz
x,y,z
1/2-x,1/2-y,1/2+z
1/2+x,1/2-y,-z
-x,y,1/2-z
-x,-y,-z
1/2+x,1/2+y,1/2-z
1/2-x,1/2+y,z
x,-y,1/2+z
loop_
_atom_site_type_symbol
_atom_site_label
_atom_site_fract_x
_atom_site_fract_y
_atom_site_fract_z
Si Si1 0.362750 0.360194 0.150039
Si Si2 0.604448 0.779220 0.064247
Si Si3 0.246150 0.229807 0.129869
Si Si4 0.712454 0.009331 0.818786
Si Si5 0.263770 0.353088 0.933689
Si Si6 0.095175 0.105328 0.124281
Si Si7 0.799108 0.898290 0.084559
Si Si8 0.111269 0.524298 0.382427
O O1 0.321665 0.288838 0.186232
O O2 0.257472 0.416660 0.193454
O O3 0.547303 0.381740 0.146823
O O4 0.309570 0.357552 0.041708
O O5 0.427826 0.755917 0.092567
O O6 0.730100 0.722416 0.091350
O O7 0.656311 0.847929 0.104522
O O8 0.629969 0.781857 0.954097
O O9 0.198323 0.161253 0.174421
O O10 0.861440 0.967015 0.850254
O O11 0.568511 0.001802 0.890725
O O12 0.655048 0.978047 0.724788
O O13 0.407933 0.383264 0.873861
O O14 0.121288 0.402830 0.918528
O O15 0.143036 0.116567 0.018496
O O16 0.737139 0.971547 0.081162
#
# Coordination Sequence:
#
# PCOD9455045 Si02
#       8
#     8   8   8   8   8   8   8   8
#     4  10  20  35  57  83 108 137 176 219 265 319
#     4   9  17  31  53  82 112 138 170 216 265 314
#     4   9  17  31  53  82 112 138 170 216 265 314
#     4  11  24  38  52  75 107 142 181 222 263 312
#     4   9  19  35  56  82 108 136 173 215 261 315
#     4   9  19  35  56  82 108 136 173 215 261 315
#     4  10  20  35  57  83 108 137 176 219 265 319
#     4  11  24  38  52  75 107 142 181 222 263 312
#
# _framework density 25.399896999999999
#
# number of rings (size 3 to 8) (size 9 to 14) (size 15 to 20)
#    0.000    2.250    0.000    4.500    0.000   11.000 
#    0.000    1.250    0.000    1.500    0.000    0.000 
#    0.000    0.000    0.000    0.000    0.000    0.000 
#
# Total GULP energy -357922.696391 kJ/mol
# GULP energy per Si atom -5592.542131 kJ/mol
# Density = 2.534209 g / cm^3
# Si number density = 25.399897 Si / 1000 Ang^3
#
#
#
# Elastic Constant Matrix: (Units=GPa)
#
#
# Indices 1 2 3 4 5 6 
#
# 1 67.7813 26.8352 14.9665 0.0000 0.0000 0.0000
# 2 26.8352 127.9131 7.4388 0.0000 0.0000 0.0000
# 3 14.9665 7.4388 39.6683 0.0000 0.0000 0.0000
# 4 0.0000 0.0000 0.0000 16.5667 0.0000 0.0000
# 5 0.0000 0.0000 0.0000 0.0000 23.9728 0.0000
# 6 0.0000 0.0000 0.0000 0.0000 0.0000 43.1193
#
#
#
# Elastic Compliance Matrix: (Units=1/GPa)
#
#
# Indices 1 2 3 4 5 6 
#
# 1 0.017370 -0.003299 -0.005935 0.000000 0.000000 0.000000
# 2 -0.003299 0.008531 -0.000355 0.000000 0.000000 0.000000
# 3 -0.005935 -0.000355 0.027515 0.000000 0.000000 0.000000
# 4 0.000000 0.000000 0.000000 0.060362 0.000000 0.000000
# 5 0.000000 0.000000 0.000000 0.000000 0.041714 0.000000
# 6 0.000000 0.000000 0.000000 0.000000 0.000000 0.023191
#
#
# Mechanical properties :
#
#
# Convention : Reuss Voigt Hill
#
# Bulk Modulus (GPa) = 29.20768 37.09372 33.15070
# Shear Modulus (GPa) = 23.89228 29.13992 26.51610
#
# Velocity S-wave (km/s) = 3.07032 3.39078 3.23452
# Velocity P-wave (km/s) = 4.90849 5.47407 5.19897
#
# Compressibility (1/GPa) = 0.03423757
#
# Stress axis : x y z
#
# Youngs Moduli (GPa) = 57.57107 117.22583 36.34406
#
# Poissons Ratio (x) = 0.38672 0.21570
# Poissons Ratio (y) = 0.18992 0.01290
# Poissons Ratio (z) = 0.34168 0.04162
#
# Static dielectric constant tensor:
#      x y z
#    x 2.003640 0.000000 0.000000 
#    y 0.000000 1.963750 0.000000 
#    z 0.000000 0.000000 2.087070 
# 
# From -- ./inp_files/19687.got.cif
#   From: 2010.05.17/outbox.cif.g08.bks.cpg/sg60_10_cif.got.tgz:19687.got - 2010.06.03 14:59:27.
