data_PCOD9455951
_publ_section_title
;
Structure prediction by ZEFSAII (Michael W. Deem and Ramdas Pophale) SiO2 
 PCOD9455951
Probable space group: P B C N
;
_chemical_formula_sum "Si O2"
_cell_formula_units_Z 40
_cell_length_a 10.325781
_cell_length_b 10.681048
_cell_length_c 15.137561
_cell_angle_alpha 90.000000
_cell_angle_beta 90.000000
_cell_angle_gamma 90.000000
_cell_volume 1669.524063
_symmetry_space_group_name_H-M "P B C N"
_symmetry_group_IT_number 60
_symmetry_cell_setting 'orthorhombic'
loop_
_space_group_symop_operation_xyz
x,y,z
1/2-x,1/2-y,1/2+z
1/2+x,1/2-y,-z
-x,y,1/2-z
-x,-y,-z
1/2+x,1/2+y,1/2-z
1/2-x,1/2+y,z
x,-y,1/2+z
loop_
_atom_site_type_symbol
_atom_site_label
_atom_site_fract_x
_atom_site_fract_y
_atom_site_fract_z
Si Si1 0.597133 0.806546 0.031829
Si Si2 0.500000 0.447768 0.750000
Si Si3 0.207981 0.741260 0.789246
Si Si4 0.611697 0.646358 0.856848
Si Si5 0.000000 0.527436 0.750000
Si Si6 0.376138 0.034240 0.583278
O O1 0.584845 0.726370 0.943600
O O2 0.633789 0.947083 0.001656
O O3 0.697565 0.752259 0.103859
O O4 0.453943 0.834672 0.071216
O O5 0.625245 0.359308 0.745483
O O6 0.504668 0.543847 0.831631
O O7 0.336683 0.721971 0.730703
O O8 0.120835 0.617627 0.771877
O O9 0.735266 0.564269 0.884172
O O10 0.041990 0.463032 0.659830
#
# Coordination Sequence:
#
# PCOD9455951 Si02
#       6
#     8   4   8   8   4   8
#     4  10  21  37  62  91 123 167 216 260 320 389
#     4  11  24  41  64  92 126 173 218 261 322 384
#     4   9  20  40  59  85 127 167 207 265 324 375
#     4  11  23  39  64  94 127 166 214 265 320 386
#     4   7  14  33  58  78 114 165 206 255 324 388
#     4   9  19  37  60  88 123 164 209 266 325 380
#
# _framework density 23.958925000000001
#
# number of rings (size 3 to 8) (size 9 to 14) (size 15 to 20)
#    0.000    2.400    0.000    2.400    0.000    4.800 
#    0.000    4.000    0.000    0.000    0.000    0.000 
#    0.000    0.000    0.000    0.000    0.000    0.000 
#
# Total GULP energy -223098.667280 kJ/mol
# GULP energy per Si atom -5577.466682 kJ/mol
# Density = 2.390439 g / cm^3
# Si number density = 23.958925 Si / 1000 Ang^3
#
#
#
# Elastic Constant Matrix: (Units=GPa)
#
#
# Indices 1 2 3 4 5 6 
#
# 1 28.8055 14.0056 -2.0082 0.0000 0.0000 0.0000
# 2 14.0056 64.7589 46.2368 0.0000 0.0000 0.0000
# 3 -2.0082 46.2368 123.6500 0.0000 0.0000 0.0000
# 4 0.0000 0.0000 0.0000 47.7255 0.0000 0.0000
# 5 0.0000 0.0000 0.0000 0.0000 29.9363 0.0000
# 6 0.0000 0.0000 0.0000 0.0000 0.0000 9.5770
#
#
#
# Elastic Compliance Matrix: (Units=1/GPa)
#
#
# Indices 1 2 3 4 5 6 
#
# 1 0.041347 -0.012853 0.005478 0.000000 0.000000 0.000000
# 2 -0.012853 0.025062 -0.009580 0.000000 0.000000 0.000000
# 3 0.005478 -0.009580 0.011759 0.000000 0.000000 0.000000
# 4 0.000000 0.000000 0.000000 0.020953 0.000000 0.000000
# 5 0.000000 0.000000 0.000000 0.000000 0.033404 0.000000
# 6 0.000000 0.000000 0.000000 0.000000 0.000000 0.104417
#
#
# Mechanical properties :
#
#
# Convention : Reuss Voigt Hill
#
# Bulk Modulus (GPa) = 22.59577 37.07587 29.83582
# Shear Modulus (GPa) = 17.50668 28.04642 22.77655
#
# Velocity S-wave (km/s) = 2.70607 3.42512 3.08661
# Velocity P-wave (km/s) = 4.38352 5.58125 5.01825
#
# Compressibility (1/GPa) = 0.04425606
#
# Stress axis : x y z
#
# Youngs Moduli (GPa) = 24.18558 39.90135 85.04369
#
# Poissons Ratio (x) = 0.51286 -0.46585
# Poissons Ratio (y) = 0.31086 0.81473
# Poissons Ratio (z) = -0.13248 0.38226
#
# Static dielectric constant tensor:
#      x y z
#    x 1.919890 0.000000 0.000000 
#    y 0.000000 1.897600 0.000000 
#    z 0.000000 0.000000 2.097360 
# 
# From -- ./inp_files/15875.got.cif
#   From: 2010.05.17/outbox.cif.g08.bks.cpg/sg60_8_cif.got.tgz:15875.got - 2010.06.03 14:59:27.
