data_PCOD9455405
_publ_section_title
;
Structure prediction by ZEFSAII (Michael W. Deem and Ramdas Pophale) SiO2 
 PCOD9455405
Probable space group: P B C N
;
_chemical_formula_sum "Si O2"
_cell_formula_units_Z 48
_cell_length_a 11.793999
_cell_length_b 16.640081
_cell_length_c 12.390216
_cell_angle_alpha 90.000000
_cell_angle_beta 90.000000
_cell_angle_gamma 90.000000
_cell_volume 2431.618283
_symmetry_space_group_name_H-M "P B C N"
_symmetry_group_IT_number 60
_symmetry_cell_setting 'orthorhombic'
loop_
_space_group_symop_operation_xyz
x,y,z
1/2-x,1/2-y,1/2+z
1/2+x,1/2-y,-z
-x,y,1/2-z
-x,-y,-z
1/2+x,1/2+y,1/2-z
1/2-x,1/2+y,z
x,-y,1/2+z
loop_
_atom_site_type_symbol
_atom_site_label
_atom_site_fract_x
_atom_site_fract_y
_atom_site_fract_z
Si Si1 0.018521 0.632848 0.130809
Si Si2 0.123764 0.922109 0.776844
Si Si3 0.608490 0.396540 0.134075
Si Si4 0.227439 0.627588 0.469881
Si Si5 0.761177 0.445724 0.944282
Si Si6 0.122510 0.808822 0.145579
O O1 0.109530 0.581565 0.065645
O O2 0.075337 0.719366 0.150303
O O3 0.000000 0.595938 0.250000
O O4 0.900109 0.641544 0.069252
O O5 0.192317 0.871165 0.864701
O O6 0.198647 0.933258 0.669746
O O7 0.000000 0.888045 0.750000
O O8 0.103311 0.011185 0.826528
O O9 0.648820 0.342561 0.235168
O O10 0.482399 0.365343 0.106181
O O11 0.692584 0.395627 0.033801
O O12 0.239667 0.538419 0.520236
O O13 0.274747 0.685283 0.562555
#
# Coordination Sequence:
#
# PCOD9455405 Si02
#       6
#     8   8   8   8   8   8
#     4  12  25  42  63  91 130 175 206 257 322 389
#     4  11  19  36  65  98 125 158 217 267 312 366
#     4  10  20  38  63  94 127 162 204 264 318 366
#     4  11  24  42  65  93 127 169 217 265 313 378
#     4  11  23  40  66  95 124 166 216 262 312 377
#     4  11  22  41  65  90 129 165 209 258 327 372
#
# _framework density 19.739940000000001
#
# number of rings (size 3 to 8) (size 9 to 14) (size 15 to 20)
#    0.000    1.000    6.667    1.500    2.333    2.667 
#    0.000    0.833    0.000    0.000    0.000    0.000 
#    0.000    0.000    0.000    0.000    0.000    0.000 
#
# Total GULP energy -268387.455196 kJ/mol
# GULP energy per Si atom -5591.405317 kJ/mol
# Density = 1.969501 g / cm^3
# Si number density = 19.739940 Si / 1000 Ang^3
#
#
#
# Elastic Constant Matrix: (Units=GPa)
#
#
# Indices 1 2 3 4 5 6 
#
# 1 97.4147 -10.8640 32.9158 0.0000 0.0000 0.0000
# 2 -10.8640 20.5774 -4.3856 0.0000 0.0000 0.0000
# 3 32.9158 -4.3856 66.4797 0.0000 0.0000 0.0000
# 4 0.0000 0.0000 0.0000 6.0401 0.0000 0.0000
# 5 0.0000 0.0000 0.0000 0.0000 24.4687 0.0000
# 6 0.0000 0.0000 0.0000 0.0000 0.0000 15.7264
#
#
#
# Elastic Compliance Matrix: (Units=1/GPa)
#
#
# Indices 1 2 3 4 5 6 
#
# 1 0.012921 0.005536 -0.006032 0.000000 0.000000 0.000000
# 2 0.005536 0.051662 0.000667 0.000000 0.000000 0.000000
# 3 -0.006032 0.000667 0.018073 0.000000 0.000000 0.000000
# 4 0.000000 0.000000 0.000000 0.165559 0.000000 0.000000
# 5 0.000000 0.000000 0.000000 0.000000 0.040868 0.000000
# 6 0.000000 0.000000 0.000000 0.000000 0.000000 0.063587
#
#
# Mechanical properties :
#
#
# Convention : Reuss Voigt Hill
#
# Bulk Modulus (GPa) = 12.04853 24.42268 18.23561
# Shear Modulus (GPa) = 13.15804 20.36742 16.76273
#
# Velocity S-wave (km/s) = 2.58460 3.21563 2.91723
# Velocity P-wave (km/s) = 3.87605 5.11724 4.53927
#
# Compressibility (1/GPa) = 0.08299765
#
# Stress axis : x y z
#
# Youngs Moduli (GPa) = 77.39278 19.35660 55.33123
#
# Poissons Ratio (x) = -0.10716 0.33378
# Poissons Ratio (y) = -0.42846 -0.03691
# Poissons Ratio (z) = 0.46686 -0.01291
#
# Static dielectric constant tensor:
#      x y z
#    x 1.688910 0.000000 0.000000 
#    y 0.000000 1.692140 0.000000 
#    z 0.000000 0.000000 1.703460 
# 
# From -- ./inp_files/11012.got.cif
#   From: 2010.05.17/outbox.cif.g08.bks.cpg/sg60_6_cif.got.tgz:11012.got - 2010.06.03 14:59:27.
