data_PCOD9455737
_publ_section_title
;
Structure prediction by ZEFSAII (Michael W. Deem and Ramdas Pophale) SiO2 
 PCOD9455737
Probable space group: P B C N
;
_chemical_formula_sum "Si O2"
_cell_formula_units_Z 64
_cell_length_a 8.335585
_cell_length_b 13.571544
_cell_length_c 26.672701
_cell_angle_alpha 90.000000
_cell_angle_beta 90.000000
_cell_angle_gamma 90.000000
_cell_volume 3017.396207
_symmetry_space_group_name_H-M "P B C N"
_symmetry_group_IT_number 60
_symmetry_cell_setting 'orthorhombic'
loop_
_space_group_symop_operation_xyz
x,y,z
1/2-x,1/2-y,1/2+z
1/2+x,1/2-y,-z
-x,y,1/2-z
-x,-y,-z
1/2+x,1/2+y,1/2-z
1/2-x,1/2+y,z
x,-y,1/2+z
loop_
_atom_site_type_symbol
_atom_site_label
_atom_site_fract_x
_atom_site_fract_y
_atom_site_fract_z
Si Si1 0.619782 0.342659 0.286714
Si Si2 0.749022 0.144229 0.516667
Si Si3 0.553963 0.775573 0.440903
Si Si4 0.766691 0.503010 0.606238
Si Si5 0.379135 0.007477 0.070761
Si Si6 0.923398 0.773436 0.824594
Si Si7 0.367638 0.095184 0.788089
Si Si8 0.429077 0.475732 0.645306
O O1 0.500000 0.285011 0.250000
O O2 0.756252 0.274108 0.308571
O O3 0.709470 0.408123 0.244997
O O4 0.558858 0.415824 0.329946
O O5 0.628244 0.220237 0.541905
O O6 0.864224 0.206632 0.481696
O O7 0.798521 0.079652 0.564375
O O8 0.664915 0.068230 0.478530
O O9 0.571480 0.738128 0.384657
O O10 0.612772 0.889867 0.439678
O O11 0.831346 0.548479 0.658461
O O12 0.599465 0.449616 0.618717
O O13 0.937891 0.460835 0.585956
O O14 0.234004 0.024420 0.111162
O O15 0.918787 0.888896 0.813817
O O16 0.063778 0.705274 0.801153
O O17 0.500000 0.050873 0.750000
#
# Coordination Sequence:
#
# PCOD9455737 Si02
#       8
#     8   8   8   8   8   8   8   8
#     4  11  23  44  71  98 136 178 227 290 353 413
#     4  11  25  41  68 102 137 185 236 283 348 418
#     4  11  22  41  67  96 139 183 227 285 345 412
#     4  11  23  44  68 100 135 187 233 281 348 420
#     4  11  23  46  65 100 144 183 228 291 345 412
#     4  11  23  44  69 101 138 180 231 290 346 420
#     4  10  20  43  70  89 135 181 222 287 351 397
#     4  12  25  44  76 103 138 183 238 287 352 426
#
# _framework density 21.210341
#
# number of rings (size 3 to 8) (size 9 to 14) (size 15 to 20)
#    0.000    1.000    6.250    2.250    1.750    4.000 
#    2.250    1.875    0.000    0.000    0.000    0.000 
#    0.000    0.000    0.000    0.000    0.000    0.000 
#
# Total GULP energy -356473.872862 kJ/mol
# GULP energy per Si atom -5569.904263 kJ/mol
# Density = 2.116206 g / cm^3
# Si number density = 21.210341 Si / 1000 Ang^3
#
#
#
# Elastic Constant Matrix: (Units=GPa)
#
#
# Indices 1 2 3 4 5 6 
#
# 1 64.2903 11.7399 8.9274 0.0000 0.0000 0.0000
# 2 11.7399 45.5080 -4.0230 0.0000 0.0000 0.0000
# 3 8.9274 -4.0230 91.1952 0.0000 0.0000 0.0000
# 4 0.0000 0.0000 0.0000 -7.5569 0.0000 0.0000
# 5 0.0000 0.0000 0.0000 0.0000 25.7982 0.0000
# 6 0.0000 0.0000 0.0000 0.0000 0.0000 -26.7343
#
#
#
# Elastic Compliance Matrix: (Units=1/GPa)
#
#
# Indices 1 2 3 4 5 6 
#
# 1 0.016620 -0.004449 -0.001823 0.000000 0.000000 0.000000
# 2 -0.004449 0.023251 0.001461 0.000000 0.000000 0.000000
# 3 -0.001823 0.001461 0.011208 0.000000 0.000000 0.000000
# 4 0.000000 0.000000 0.000000 -0.132330 0.000000 0.000000
# 5 0.000000 0.000000 0.000000 0.000000 0.038762 0.000000
# 6 0.000000 0.000000 0.000000 0.000000 0.000000 -0.037405
#
#
# Mechanical properties :
#
#
# Convention : Reuss Voigt Hill
#
# Bulk Modulus (GPa) = 24.12085 26.03135 25.07610
# Shear Modulus (GPa) = -88.57039 10.59135 -38.98952
#
# Velocity S-wave (km/s) = -6.46906 2.23703 -4.29211
# Velocity P-wave (km/s) = 6.66344 4.35569 3.56577
#
# Compressibility (1/GPa) = 0.04145791
#
# Stress axis : x y z
#
# Youngs Moduli (GPa) = 60.16851 43.00888 89.21857
#
# Poissons Ratio (x) = 0.19133 0.16267
# Poissons Ratio (y) = 0.26767 -0.13037
# Poissons Ratio (z) = 0.10970 -0.06285
#
# Static dielectric constant tensor:
#      x y z
#    x 1.927950 0.000000 0.000000 
#    y 0.000000 1.819690 0.000000 
#    z 0.000000 0.000000 1.819640 
# 
# From -- ./inp_files/24077.got.cif
#   From: 2010.05.17/outbox.cif.g08.bks.cpg/sg60_13_cif.got.tgz:24077.got - 2010.06.03 14:59:27.
