data_PCOD9455056
_publ_section_title
;
Structure prediction by ZEFSAII (Michael W. Deem and Ramdas Pophale) SiO2 
 PCOD9455056
Probable space group: P B C N
;
_chemical_formula_sum "Si O2"
_cell_formula_units_Z 64
_cell_length_a 11.690111
_cell_length_b 7.997719
_cell_length_c 31.996850
_cell_angle_alpha 90.000000
_cell_angle_beta 90.000000
_cell_angle_gamma 90.000000
_cell_volume 2991.520625
_symmetry_space_group_name_H-M "P B C N"
_symmetry_group_IT_number 60
_symmetry_cell_setting 'orthorhombic'
loop_
_space_group_symop_operation_xyz
x,y,z
1/2-x,1/2-y,1/2+z
1/2+x,1/2-y,-z
-x,y,1/2-z
-x,-y,-z
1/2+x,1/2+y,1/2-z
1/2-x,1/2+y,z
x,-y,1/2+z
loop_
_atom_site_type_symbol
_atom_site_label
_atom_site_fract_x
_atom_site_fract_y
_atom_site_fract_z
Si Si1 0.382989 0.845277 0.556471
Si Si2 0.238560 0.629352 0.333138
Si Si3 0.697106 0.533812 0.994298
Si Si4 0.376504 0.774813 0.957425
Si Si5 0.135435 0.564323 0.697696
Si Si6 0.886102 0.652396 0.708794
Si Si7 0.409701 0.415982 0.370780
Si Si8 0.645229 0.278479 0.349464
O O1 0.372749 0.675835 0.529220
O O2 0.297393 0.978384 0.537219
O O3 0.514400 0.895750 0.548430
O O4 0.347317 0.802017 0.603906
O O5 0.161113 0.468814 0.326985
O O6 0.337100 0.585180 0.366608
O O7 0.152891 0.779500 0.341640
O O8 0.316031 0.677051 0.293416
O O9 0.763455 0.615937 0.033778
O O10 0.629361 0.366246 0.006312
O O11 0.389941 0.663446 0.916010
O O12 0.147350 0.563365 0.747908
O O13 0.113108 0.378171 0.680271
O O14 0.240884 0.640366 0.671038
O O15 0.018593 0.673008 0.697528
O O16 0.541695 0.411598 0.356301
#
# Coordination Sequence:
#
# PCOD9455056 Si02
#       8
#     8   8   8   8   8   8   8   8
#     4  10  21  37  57  83 118 153 196 239 293 346
#     4  10  20  40  59  86 117 153 197 249 291 356
#     4  10  20  36  57  84 115 156 193 242 290 345
#     4  10  20  35  58  84 116 152 196 244 287 349
#     4  11  23  40  60  87 120 153 197 241 296 359
#     4  10  22  40  63  85 118 152 195 242 297 350
#     4  10  21  37  61  87 119 158 200 247 301 348
#     4  11  23  39  60  88 122 158 199 247 298 357
#
# _framework density 21.393802000000001
#
# number of rings (size 3 to 8) (size 9 to 14) (size 15 to 20)
#    0.000    1.750    1.250    3.000    1.750    0.000 
#    0.000    0.000    8.250    0.000    0.000    0.000 
#    0.000    0.000    0.000    0.000    0.000    0.000 
#
# Total GULP energy -356332.888483 kJ/mol
# GULP energy per Si atom -5567.701383 kJ/mol
# Density = 2.134511 g / cm^3
# Si number density = 21.393802 Si / 1000 Ang^3
#
#
#
# Elastic Constant Matrix: (Units=GPa)
#
#
# Indices 1 2 3 4 5 6 
#
# 1 96.3222 7.7725 33.9110 0.0000 0.0000 0.0000
# 2 7.7725 24.7192 -14.3963 0.0000 0.0000 0.0000
# 3 33.9110 -14.3963 55.2923 0.0000 0.0000 0.0000
# 4 0.0000 0.0000 0.0000 22.0957 0.0000 0.0000
# 5 0.0000 0.0000 0.0000 0.0000 18.2035 0.0000
# 6 0.0000 0.0000 0.0000 0.0000 0.0000 11.5790
#
#
#
# Elastic Compliance Matrix: (Units=1/GPa)
#
#
# Indices 1 2 3 4 5 6 
#
# 1 0.016030 -0.012691 -0.013136 0.000000 0.000000 0.000000
# 2 -0.012691 0.057732 0.022815 0.000000 0.000000 0.000000
# 3 -0.013136 0.022815 0.032082 0.000000 0.000000 0.000000
# 4 0.000000 0.000000 0.000000 0.045258 0.000000 0.000000
# 5 0.000000 0.000000 0.000000 0.000000 0.054935 0.000000
# 6 0.000000 0.000000 0.000000 0.000000 0.000000 0.086363
#
#
# Mechanical properties :
#
#
# Convention : Reuss Voigt Hill
#
# Bulk Modulus (GPa) = 10.01796 25.65648 17.83722
# Shear Modulus (GPa) = 15.07402 20.31207 17.69304
#
# Velocity S-wave (km/s) = 2.65731 3.08464 2.87891
# Velocity P-wave (km/s) = 3.75604 4.97043 4.40528
#
# Compressibility (1/GPa) = 0.09982070
#
# Stress axis : x y z
#
# Youngs Moduli (GPa) = 62.38143 17.32150 31.17006
#
# Poissons Ratio (x) = 0.21982 0.40944
# Poissons Ratio (y) = 0.79166 -0.71113
# Poissons Ratio (z) = 0.81943 -0.39518
#
# Static dielectric constant tensor:
#      x y z
#    x 1.860070 0.000000 0.000000 
#    y 0.000000 1.802120 0.000000 
#    z 0.000000 0.000000 1.812620 
# 
# From -- ./inp_files/26108.got.cif
#   From: 2010.05.17/outbox.cif.g08.bks.cpg/sg60_14_cif.got.tgz:26108.got - 2010.06.03 14:59:27.
