data_PCOD9455317
_publ_section_title
;
Structure prediction by ZEFSAII (Michael W. Deem and Ramdas Pophale) SiO2 
 PCOD9455317
Probable space group: P B C N
;
_chemical_formula_sum "Si O2"
_cell_formula_units_Z 52
_cell_length_a 9.546268
_cell_length_b 20.620385
_cell_length_c 14.745184
_cell_angle_alpha 90.000000
_cell_angle_beta 90.000000
_cell_angle_gamma 90.000000
_cell_volume 2902.555873
_symmetry_space_group_name_H-M "P B C N"
_symmetry_group_IT_number 60
_symmetry_cell_setting 'orthorhombic'
loop_
_space_group_symop_operation_xyz
x,y,z
1/2-x,1/2-y,1/2+z
1/2+x,1/2-y,-z
-x,y,1/2-z
-x,-y,-z
1/2+x,1/2+y,1/2-z
1/2-x,1/2+y,z
x,-y,1/2+z
loop_
_atom_site_type_symbol
_atom_site_label
_atom_site_fract_x
_atom_site_fract_y
_atom_site_fract_z
Si Si1 0.500000 0.920206 0.750000
Si Si2 0.441982 0.314528 0.446707
Si Si3 0.855093 0.306679 0.975300
Si Si4 0.408117 0.050118 0.055297
Si Si5 0.000000 0.115331 0.250000
Si Si6 0.000000 0.798477 0.250000
Si Si7 0.720007 0.813176 0.764518
Si Si8 0.073921 0.944217 0.558631
O O1 0.544875 0.956276 0.840149
O O2 0.625153 0.871312 0.726603
O O3 0.535437 0.252382 0.475053
O O4 0.275637 0.298660 0.456568
O O5 0.494015 0.333985 0.345797
O O6 0.461062 0.376026 0.510668
O O7 0.930435 0.376505 0.982681
O O8 0.787455 0.312233 0.874243
O O9 0.240460 0.042128 0.052340
O O10 0.500000 0.000000 0.000000
O O11 0.872107 0.165268 0.234413
O O12 0.968478 0.069353 0.336713
O O13 0.136826 0.752074 0.258874
O O14 0.000000 0.000000 0.500000
#
# Coordination Sequence:
#
# PCOD9455317 Si02
#       8
#     4   8   8   8   4   4   8   8
#     4   9  16  36  54  82 108 149 198 236 286 355
#     4  10  20  38  57  86 122 152 199 254 300 363
#     4   9  19  37  55  88 116 150 202 244 301 358
#     4  10  21  38  59  85 119 153 204 249 295 371
#     4  12  20  39  60  86 124 157 202 262 284 383
#     4   9  20  33  60  88 120 162 196 246 316 366
#     4   9  18  33  57  86 112 150 203 241 296 359
#     4  11  26  40  58  92 121 164 207 250 315 358
#
# _framework density 17.915244999999999
#
# number of rings (size 3 to 8) (size 9 to 14) (size 15 to 20)
#    0.000    2.154    4.615    0.923    4.308    1.846 
#    0.000    1.538    0.000    0.923    0.000    0.000 
#    0.000    0.000    0.000    0.000    0.000    0.000 
#
# Total GULP energy -289488.221831 kJ/mol
# GULP energy per Si atom -5567.081189 kJ/mol
# Density = 1.787447 g / cm^3
# Si number density = 17.915245 Si / 1000 Ang^3
#
#
#
# Elastic Constant Matrix: (Units=GPa)
#
#
# Indices 1 2 3 4 5 6 
#
# 1 119.8034 57.1777 45.0614 0.0000 0.0000 0.0000
# 2 57.1777 91.9298 57.2258 0.0000 0.0000 0.0000
# 3 45.0614 57.2258 113.6117 0.0000 0.0000 0.0000
# 4 0.0000 0.0000 0.0000 51.5657 0.0000 0.0000
# 5 0.0000 0.0000 0.0000 0.0000 31.7038 0.0000
# 6 0.0000 0.0000 0.0000 0.0000 0.0000 57.2483
#
#
#
# Elastic Compliance Matrix: (Units=1/GPa)
#
#
# Indices 1 2 3 4 5 6 
#
# 1 0.012035 -0.006576 -0.001461 0.000000 0.000000 0.000000
# 2 -0.006576 0.019440 -0.007183 0.000000 0.000000 0.000000
# 3 -0.001461 -0.007183 0.013000 0.000000 0.000000 0.000000
# 4 0.000000 0.000000 0.000000 0.019393 0.000000 0.000000
# 5 0.000000 0.000000 0.000000 0.000000 0.031542 0.000000
# 6 0.000000 0.000000 0.000000 0.000000 0.000000 0.017468
#
#
# Mechanical properties :
#
#
# Convention : Reuss Voigt Hill
#
# Bulk Modulus (GPa) = 71.25913 71.58609 71.42261
# Shear Modulus (GPa) = 33.78483 39.16223 36.47353
#
# Velocity S-wave (km/s) = 4.34731 4.68051 4.51698
# Velocity P-wave (km/s) = 8.06603 8.32193 8.19498
#
# Compressibility (1/GPa) = 0.01403329
#
# Stress axis : x y z
#
# Youngs Moduli (GPa) = 83.09092 51.44162 76.92466
#
# Poissons Ratio (x) = 0.33827 0.11240
# Poissons Ratio (y) = 0.54639 0.55258
# Poissons Ratio (z) = 0.12141 0.36953
#
# Static dielectric constant tensor:
#      x y z
#    x 1.736600 0.000000 0.000000 
#    y 0.000000 1.622770 0.000000 
#    z 0.000000 0.000000 1.491860 
# 
# From -- ./inp_files/15229.got.cif
#   From: 2010.05.17/outbox.cif.g08.bks.cpg/sg60_8_cif.got.tgz:15229.got - 2010.06.03 14:59:27.
