data_PCOD9455438
_publ_section_title
;
Structure prediction by ZEFSAII (Michael W. Deem and Ramdas Pophale) SiO2 
 PCOD9455438
Probable space group: P B C N
;
_chemical_formula_sum "Si O2"
_cell_formula_units_Z 36
_cell_length_a 18.378675
_cell_length_b 9.087108
_cell_length_c 8.213807
_cell_angle_alpha 90.000000
_cell_angle_beta 90.000000
_cell_angle_gamma 90.000000
_cell_volume 1371.779731
_symmetry_space_group_name_H-M "P B C N"
_symmetry_group_IT_number 60
_symmetry_cell_setting 'orthorhombic'
loop_
_space_group_symop_operation_xyz
x,y,z
1/2-x,1/2-y,1/2+z
1/2+x,1/2-y,-z
-x,y,1/2-z
-x,-y,-z
1/2+x,1/2+y,1/2-z
1/2-x,1/2+y,z
x,-y,1/2+z
loop_
_atom_site_type_symbol
_atom_site_label
_atom_site_fract_x
_atom_site_fract_y
_atom_site_fract_z
Si Si1 0.227731 0.133070 0.466142
Si Si2 0.024540 0.201324 0.967204
Si Si3 0.500000 0.025091 0.250000
Si Si4 0.831968 0.165909 0.672680
Si Si5 0.096759 0.752828 0.795811
O O1 0.309001 0.183573 0.420505
O O2 0.199638 0.166443 0.645998
O O3 0.178693 0.231892 0.345679
O O4 0.207110 0.967265 0.421358
O O5 0.077596 0.178055 0.122511
O O6 0.949267 0.165017 0.060468
O O7 0.004838 0.364259 0.902016
O O8 0.079860 0.147232 0.826148
O O9 0.432719 0.912530 0.268482
#
# Coordination Sequence:
#
# PCOD9455438 Si02
#       5
#     8   8   4   8   8
#     4  12  27  48  72 103 143 190 242 299 364 431
#     4  10  21  40  67 102 139 183 235 289 355 420
#     4  10  20  38  66 104 140 186 230 288 348 420
#     4  12  27  48  72 103 142 192 240 301 362 435
#     4  10  21  40  67 101 140 183 234 291 352 424
#
# _framework density 26.243279000000001
#
# number of rings (size 3 to 8) (size 9 to 14) (size 15 to 20)
#    0.000    1.333    0.000    8.000    3.111    0.889 
#    4.000    3.333    0.000    0.000    0.000    0.000 
#    0.000    0.000    0.000    0.000    0.000    0.000 
#
# Total GULP energy -201026.177935 kJ/mol
# GULP energy per Si atom -5584.060498 kJ/mol
# Density = 2.618355 g / cm^3
# Si number density = 26.243279 Si / 1000 Ang^3
#
#
#
# Elastic Constant Matrix: (Units=GPa)
#
#
# Indices 1 2 3 4 5 6 
#
# 1 95.9117 18.4465 -2.3739 0.0000 0.0000 0.0000
# 2 18.4465 99.0893 1.0320 0.0000 0.0000 0.0000
# 3 -2.3739 1.0320 123.9790 0.0000 0.0000 0.0000
# 4 0.0000 0.0000 0.0000 105.6154 0.0000 0.0000
# 5 0.0000 0.0000 0.0000 0.0000 50.2946 0.0000
# 6 0.0000 0.0000 0.0000 0.0000 0.0000 33.7956
#
#
#
# Elastic Compliance Matrix: (Units=1/GPa)
#
#
# Indices 1 2 3 4 5 6 
#
# 1 0.010820 -0.002017 0.000224 0.000000 0.000000 0.000000
# 2 -0.002017 0.010469 -0.000126 0.000000 0.000000 0.000000
# 3 0.000224 -0.000126 0.008071 0.000000 0.000000 0.000000
# 4 0.000000 0.000000 0.000000 0.009468 0.000000 0.000000
# 5 0.000000 0.000000 0.000000 0.000000 0.019883 0.000000
# 6 0.000000 0.000000 0.000000 0.000000 0.000000 0.029590
#
#
# Mechanical properties :
#
#
# Convention : Reuss Voigt Hill
#
# Bulk Modulus (GPa) = 39.18059 39.24323 39.21191
# Shear Modulus (GPa) = 49.67980 58.06614 53.87297
#
# Velocity S-wave (km/s) = 4.35564 4.70894 4.53573
# Velocity P-wave (km/s) = 6.34489 6.67470 6.51188
#
# Compressibility (1/GPa) = 0.02552284
#
# Stress axis : x y z
#
# Youngs Moduli (GPa) = 92.42463 95.52368 123.89706
#
# Poissons Ratio (x) = 0.19262 -0.02775
# Poissons Ratio (y) = 0.18638 0.01558
# Poissons Ratio (z) = -0.02070 0.01201
#
# Static dielectric constant tensor:
#      x y z
#    x 2.021310 0.000000 0.000000 
#    y 0.000000 2.073570 0.000000 
#    z 0.000000 0.000000 2.118120 
# 
# From -- ./inp_files/7207.got.cif
#   From: 2010.05.17/outbox.cif.g08.bks.cpg/sg60_4_cif.got.tgz:7207.got - 2010.06.03 14:59:27.
