data_PCOD9455283
_publ_section_title
;
Structure prediction by ZEFSAII (Michael W. Deem and Ramdas Pophale) SiO2 
 PCOD9455283
Probable space group: P B C N
;
_chemical_formula_sum "Si O2"
_cell_formula_units_Z 48
_cell_length_a 7.478565
_cell_length_b 14.465238
_cell_length_c 19.550429
_cell_angle_alpha 90.000000
_cell_angle_beta 90.000000
_cell_angle_gamma 90.000000
_cell_volume 2114.950211
_symmetry_space_group_name_H-M "P B C N"
_symmetry_group_IT_number 60
_symmetry_cell_setting 'orthorhombic'
loop_
_space_group_symop_operation_xyz
x,y,z
1/2-x,1/2-y,1/2+z
1/2+x,1/2-y,-z
-x,y,1/2-z
-x,-y,-z
1/2+x,1/2+y,1/2-z
1/2-x,1/2+y,z
x,-y,1/2+z
loop_
_atom_site_type_symbol
_atom_site_label
_atom_site_fract_x
_atom_site_fract_y
_atom_site_fract_z
Si Si1 0.004376 0.502217 0.676740
Si Si2 0.305931 0.466538 0.415422
Si Si3 0.434216 0.790787 0.678149
Si Si4 0.282594 0.505642 0.565787
Si Si5 0.357322 0.711432 0.080372
Si Si6 0.739923 0.749348 0.569050
O O1 0.804373 0.492876 0.647452
O O2 0.000000 0.551901 0.750000
O O3 0.087610 0.400707 0.690049
O O4 0.127210 0.540947 0.615345
O O5 0.259208 0.522568 0.484838
O O6 0.520451 0.462878 0.411141
O O7 0.243731 0.361001 0.422072
O O8 0.500000 0.749240 0.750000
O O9 0.251901 0.752801 0.645591
O O10 0.583210 0.780139 0.619464
O O11 0.291476 0.393832 0.569506
O O12 0.569249 0.708900 0.087832
O O13 0.309078 0.764927 0.010514
#
# Coordination Sequence:
#
# PCOD9455283 Si02
#       6
#     8   8   8   8   8   8
#     4  10  21  39  60  83 116 156 193 232 291 353
#     4  10  21  37  57  89 114 149 192 241 293 337
#     4  10  22  40  60  86 118 154 197 245 290 352
#     4   9  20  38  60  85 114 147 195 242 284 342
#     4  10  20  37  63  87 113 155 198 237 290 354
#     4  11  21  37  60  88 117 153 196 242 294 345
#
# _framework density 22.695571000000001
#
# number of rings (size 3 to 8) (size 9 to 14) (size 15 to 20)
#    0.000    2.000    1.667    1.500    0.000    2.667 
#    9.000    5.000    0.000    0.000    0.000    0.000 
#    0.000    0.000    0.000    0.000    0.000    0.000 
#
# Total GULP energy -268239.481857 kJ/mol
# GULP energy per Si atom -5588.322539 kJ/mol
# Density = 2.264391 g / cm^3
# Si number density = 22.695571 Si / 1000 Ang^3
#
#
#
# Elastic Constant Matrix: (Units=GPa)
#
#
# Indices 1 2 3 4 5 6 
#
# 1 83.4730 -27.4260 50.6675 0.0000 0.0000 0.0000
# 2 -27.4260 36.6234 -18.0857 0.0000 0.0000 0.0000
# 3 50.6675 -18.0857 125.9985 0.0000 0.0000 0.0000
# 4 0.0000 0.0000 0.0000 2.0209 0.0000 0.0000
# 5 0.0000 0.0000 0.0000 0.0000 23.9173 0.0000
# 6 0.0000 0.0000 0.0000 0.0000 0.0000 23.5714
#
#
#
# Elastic Compliance Matrix: (Units=1/GPa)
#
#
# Indices 1 2 3 4 5 6 
#
# 1 0.019546 0.011576 -0.006198 0.000000 0.000000 0.000000
# 2 0.011576 0.036244 0.000547 0.000000 0.000000 0.000000
# 3 -0.006198 0.000547 0.010508 0.000000 0.000000 0.000000
# 4 0.000000 0.000000 0.000000 0.494819 0.000000 0.000000
# 5 0.000000 0.000000 0.000000 0.000000 0.041811 0.000000
# 6 0.000000 0.000000 0.000000 0.000000 0.000000 0.042424
#
#
# Mechanical properties :
#
#
# Convention : Reuss Voigt Hill
#
# Bulk Modulus (GPa) = 12.79619 28.48963 20.64291
# Shear Modulus (GPa) = 7.58092 25.96455 16.77274
#
# Velocity S-wave (km/s) = 1.82962 3.38603 2.72146
# Velocity P-wave (km/s) = 3.18022 5.27893 4.35780
#
# Compressibility (1/GPa) = 0.07814824
#
# Stress axis : x y z
#
# Youngs Moduli (GPa) = 51.16214 27.59058 95.16872
#
# Poissons Ratio (x) = -0.31939 0.58988
# Poissons Ratio (y) = -0.59226 -0.05209
# Poissons Ratio (z) = 0.31712 -0.01510
#
# Static dielectric constant tensor:
#      x y z
#    x 1.815130 0.000000 0.000000 
#    y 0.000000 1.902840 0.000000 
#    z 0.000000 0.000000 1.884390 
# 
# From -- ./inp_files/21592.got.cif
#   From: 2010.05.17/outbox.cif.g08.bks.cpg/sg60_11_cif.got.tgz:21592.got - 2010.06.03 14:59:27.
