data_PCOD9455602
_publ_section_title
;
Structure prediction by ZEFSAII (Michael W. Deem and Ramdas Pophale) SiO2 
 PCOD9455602
Probable space group: P B C N
;
_chemical_formula_sum "Si O2"
_cell_formula_units_Z 48
_cell_length_a 8.255984
_cell_length_b 9.812385
_cell_length_c 27.294476
_cell_angle_alpha 90.000000
_cell_angle_beta 90.000000
_cell_angle_gamma 90.000000
_cell_volume 2211.149890
_symmetry_space_group_name_H-M "P B C N"
_symmetry_group_IT_number 60
_symmetry_cell_setting 'orthorhombic'
loop_
_space_group_symop_operation_xyz
x,y,z
1/2-x,1/2-y,1/2+z
1/2+x,1/2-y,-z
-x,y,1/2-z
-x,-y,-z
1/2+x,1/2+y,1/2-z
1/2-x,1/2+y,z
x,-y,1/2+z
loop_
_atom_site_type_symbol
_atom_site_label
_atom_site_fract_x
_atom_site_fract_y
_atom_site_fract_z
Si Si1 0.635723 0.194540 0.131700
Si Si2 0.957003 0.812227 0.693292
Si Si3 0.941189 0.428242 0.373653
Si Si4 0.117507 0.390981 0.475304
Si Si5 0.363851 0.395861 0.958567
Si Si6 0.430473 0.532803 0.618652
O O1 0.553314 0.340813 0.124658
O O2 0.768650 0.186480 0.175269
O O3 0.498322 0.080651 0.138757
O O4 0.730249 0.153316 0.081803
O O5 0.024626 0.672600 0.670705
O O6 0.000000 0.819495 0.750000
O O7 0.043767 0.937289 0.665755
O O8 0.753502 0.422360 0.386922
O O9 0.051860 0.381680 0.419514
O O10 0.289871 0.464790 0.479359
O O11 0.000000 0.500000 0.500000
O O12 0.114988 0.234938 0.493374
O O13 0.517271 0.439438 0.926969
#
# Coordination Sequence:
#
# PCOD9455602 Si02
#       6
#     8   8   8   8   8   8
#     4  10  20  40  67  87 124 172 208 259 322 376
#     4  11  23  41  64  91 125 170 215 262 327 393
#     4  11  23  40  64  95 130 168 215 269 318 386
#     4  11  23  42  66  94 130 172 224 260 324 383
#     4  10  20  42  63  90 124 174 208 264 320 375
#     4  11  21  39  65  91 128 165 214 263 327 380
#
# _framework density 21.708162999999999
#
# number of rings (size 3 to 8) (size 9 to 14) (size 15 to 20)
#    0.000    1.333    5.000    3.000    0.000    4.000 
#    3.000    4.167    0.000    0.000    0.000    0.000 
#    0.000    0.000    0.000    0.000    0.000    0.000 
#
# Total GULP energy -268454.765707 kJ/mol
# GULP energy per Si atom -5592.807619 kJ/mol
# Density = 2.165875 g / cm^3
# Si number density = 21.708163 Si / 1000 Ang^3
#
#
#
# Elastic Constant Matrix: (Units=GPa)
#
#
# Indices 1 2 3 4 5 6 
#
# 1 78.8148 22.0770 13.3696 0.0000 0.0000 0.0000
# 2 22.0770 122.4794 24.0373 0.0000 0.0000 0.0000
# 3 13.3696 24.0373 71.6029 0.0000 0.0000 0.0000
# 4 0.0000 0.0000 0.0000 28.8509 0.0000 0.0000
# 5 0.0000 0.0000 0.0000 0.0000 15.8337 0.0000
# 6 0.0000 0.0000 0.0000 0.0000 0.0000 23.3329
#
#
#
# Elastic Compliance Matrix: (Units=1/GPa)
#
#
# Indices 1 2 3 4 5 6 
#
# 1 0.013584 -0.002088 -0.001835 0.000000 0.000000 0.000000
# 2 -0.002088 0.009062 -0.002652 0.000000 0.000000 0.000000
# 3 -0.001835 -0.002652 0.015199 0.000000 0.000000 0.000000
# 4 0.000000 0.000000 0.000000 0.034661 0.000000 0.000000
# 5 0.000000 0.000000 0.000000 0.000000 0.063156 0.000000
# 6 0.000000 0.000000 0.000000 0.000000 0.000000 0.042858
#
#
# Mechanical properties :
#
#
# Convention : Reuss Voigt Hill
#
# Bulk Modulus (GPa) = 40.49704 43.54056 42.01880
# Shear Modulus (GPa) = 25.01219 27.83106 26.42163
#
# Velocity S-wave (km/s) = 3.39809 3.58446 3.49252
# Velocity P-wave (km/s) = 5.83881 6.10180 5.97175
#
# Compressibility (1/GPa) = 0.02469316
#
# Stress axis : x y z
#
# Youngs Moduli (GPa) = 73.61447 110.35632 65.79415
#
# Poissons Ratio (x) = 0.23047 0.12076
# Poissons Ratio (y) = 0.15374 0.17449
# Poissons Ratio (z) = 0.13511 0.29267
#
# Static dielectric constant tensor:
#      x y z
#    x 1.802660 0.000000 0.000000 
#    y 0.000000 1.832570 0.000000 
#    z 0.000000 0.000000 1.779630 
# 
# From -- ./inp_files/25950.got.cif
#   From: 2010.05.17/outbox.cif.g08.bks.cpg/sg60_13_cif.got.tgz:25950.got - 2010.06.03 14:59:27.
