data_PCOD9455369
_publ_section_title
;
Structure prediction by ZEFSAII (Michael W. Deem and Ramdas Pophale) SiO2 
 PCOD9455369
Probable space group: P B C N
;
_chemical_formula_sum "Si O2"
_cell_formula_units_Z 60
_cell_length_a 11.790302
_cell_length_b 9.145635
_cell_length_c 30.449601
_cell_angle_alpha 90.000000
_cell_angle_beta 90.000000
_cell_angle_gamma 90.000000
_cell_volume 3283.374344
_symmetry_space_group_name_H-M "P B C N"
_symmetry_group_IT_number 60
_symmetry_cell_setting 'orthorhombic'
loop_
_space_group_symop_operation_xyz
x,y,z
1/2-x,1/2-y,1/2+z
1/2+x,1/2-y,-z
-x,y,1/2-z
-x,-y,-z
1/2+x,1/2+y,1/2-z
1/2-x,1/2+y,z
x,-y,1/2+z
loop_
_atom_site_type_symbol
_atom_site_label
_atom_site_fract_x
_atom_site_fract_y
_atom_site_fract_z
Si Si1 0.707538 0.921466 0.793576
Si Si2 0.000000 0.250432 0.750000
Si Si3 0.866011 0.242939 0.156774
Si Si4 0.867661 0.764960 0.945575
Si Si5 0.183918 0.056245 0.793907
Si Si6 0.630761 0.724172 0.053911
Si Si7 0.279452 0.994724 0.500277
Si Si8 0.866926 0.302079 0.344194
O O1 0.593607 0.844754 0.775738
O O2 0.797422 0.807584 0.813074
O O3 0.765393 0.002291 0.752418
O O4 0.673379 0.037364 0.830594
O O5 0.927039 0.151775 0.716642
O O6 0.780323 0.350091 0.181868
O O7 0.838594 0.240533 0.105054
O O8 0.997590 0.288043 0.162386
O O9 0.848613 0.083215 0.177247
O O10 0.840544 0.735421 0.894684
O O11 0.998183 0.810657 0.948614
O O12 0.792041 0.892469 0.966657
O O13 0.850194 0.613998 0.972323
O O14 0.653148 0.877651 0.029180
O O15 0.700531 0.594959 0.030776
#
# Coordination Sequence:
#
# PCOD9455369 Si02
#       8
#     8   4   8   8   8   8   8   8
#     4  12  23  42  62  87 121 160 204 246 298 352
#     4  12  24  40  64  88 116 164 206 242 296 356
#     4  11  24  40  62  89 122 156 201 249 297 350
#     4  10  21  38  61  88 118 153 193 240 292 351
#     4  12  23  42  62  87 121 160 204 246 298 352
#     4  10  21  38  61  88 118 153 193 240 292 351
#     4  10  20  38  62  86 120 152 192 236 294 354
#     4  11  24  40  62  89 122 156 201 249 297 350
#
# _framework density 18.273883999999999
#
# number of rings (size 3 to 8) (size 9 to 14) (size 15 to 20)
#    0.000    1.067    2.667    4.000    0.000    1.067 
#    0.000    0.000    5.867    0.000    0.000    0.000 
#    0.000    0.000    0.000    0.000    0.000    0.000 
#
# Total GULP energy -335321.808960 kJ/mol
# GULP energy per Si atom -5588.696816 kJ/mol
# Density = 1.823229 g / cm^3
# Si number density = 18.273884 Si / 1000 Ang^3
#
#
#
# Elastic Constant Matrix: (Units=GPa)
#
#
# Indices 1 2 3 4 5 6 
#
# 1 32.3149 -14.0229 13.1022 0.0000 0.0000 0.0000
# 2 -14.0229 43.9177 -6.8313 0.0000 0.0000 0.0000
# 3 13.1022 -6.8313 72.5851 0.0000 0.0000 0.0000
# 4 0.0000 0.0000 0.0000 21.5535 0.0000 0.0000
# 5 0.0000 0.0000 0.0000 0.0000 29.9533 0.0000
# 6 0.0000 0.0000 0.0000 0.0000 0.0000 23.3726
#
#
#
# Elastic Compliance Matrix: (Units=1/GPa)
#
#
# Indices 1 2 3 4 5 6 
#
# 1 0.038212 0.011293 -0.005835 0.000000 0.000000 0.000000
# 2 0.011293 0.026446 0.000450 0.000000 0.000000 0.000000
# 3 -0.005835 0.000450 0.014873 0.000000 0.000000 0.000000
# 4 0.000000 0.000000 0.000000 0.046396 0.000000 0.000000
# 5 0.000000 0.000000 0.000000 0.000000 0.033385 0.000000
# 6 0.000000 0.000000 0.000000 0.000000 0.000000 0.042785
#
#
# Mechanical properties :
#
#
# Convention : Reuss Voigt Hill
#
# Bulk Modulus (GPa) = 10.94707 14.81264 12.87986
# Shear Modulus (GPa) = 22.65232 25.41389 24.03310
#
# Velocity S-wave (km/s) = 3.52462 3.73328 3.63045
# Velocity P-wave (km/s) = 4.75052 5.16785 4.96358
#
# Compressibility (1/GPa) = 0.09134862
#
# Stress axis : x y z
#
# Youngs Moduli (GPa) = 26.16985 37.81307 67.23807
#
# Poissons Ratio (x) = -0.42704 0.39231
# Poissons Ratio (y) = -0.29555 -0.03028
# Poissons Ratio (z) = 0.15269 -0.01703
#
# Static dielectric constant tensor:
#      x y z
#    x 1.595800 0.000000 0.000000 
#    y 0.000000 1.603390 0.000000 
#    z 0.000000 0.000000 1.611570 
# 
# From -- ./inp_files/13275.got.cif
#   From: 2010.05.17/outbox.cif.g08.bks.cpg/sg60_7_cif.got.tgz:13275.got - 2010.06.03 14:59:27.
