data_PCOD9455468
_publ_section_title
;
Structure prediction by ZEFSAII (Michael W. Deem and Ramdas Pophale) SiO2 
 PCOD9455468
Probable space group: P B C N
;
_chemical_formula_sum "Si O2"
_cell_formula_units_Z 52
_cell_length_a 21.671067
_cell_length_b 8.442357
_cell_length_c 12.984219
_cell_angle_alpha 90.000000
_cell_angle_beta 90.000000
_cell_angle_gamma 90.000000
_cell_volume 2375.526283
_symmetry_space_group_name_H-M "P B C N"
_symmetry_group_IT_number 60
_symmetry_cell_setting 'orthorhombic'
loop_
_space_group_symop_operation_xyz
x,y,z
1/2-x,1/2-y,1/2+z
1/2+x,1/2-y,-z
-x,y,1/2-z
-x,-y,-z
1/2+x,1/2+y,1/2-z
1/2-x,1/2+y,z
x,-y,1/2+z
loop_
_atom_site_type_symbol
_atom_site_label
_atom_site_fract_x
_atom_site_fract_y
_atom_site_fract_z
Si Si1 0.244554 0.425335 0.819534
Si Si2 0.189734 0.174594 0.679580
Si Si3 0.068268 0.013243 0.598380
Si Si4 0.185811 0.687709 0.957204
Si Si5 0.943458 0.429146 0.104169
Si Si6 0.500000 0.278190 0.750000
Si Si7 0.962324 0.250237 0.529087
O O1 0.194594 0.309120 0.767294
O O2 0.267487 0.537369 0.727077
O O3 0.218773 0.532787 0.911690
O O4 0.298718 0.321412 0.871744
O O5 0.124526 0.092162 0.656655
O O6 0.207283 0.251356 0.568951
O O7 0.021345 0.148524 0.562622
O O8 0.085249 0.886177 0.507679
O O9 0.027803 0.898580 0.668260
O O10 0.113772 0.640884 0.959355
O O11 0.939865 0.618489 0.109694
O O12 0.945397 0.336304 0.211309
O O13 0.009385 0.369152 0.057945
#
# Coordination Sequence:
#
# PCOD9455468 Si02
#       7
#     8   8   8   8   8   4   8
#     4  10  25  42  64  96 123 161 230 262 313 386
#     4  11  22  44  66  91 127 171 208 271 322 371
#     4  10  20  39  62  91 121 164 204 250 322 368
#     4  11  22  44  65  90 129 169 209 273 320 370
#     4  10  20  39  59  89 122 162 202 252 322 367
#     4  10  22  34  60  92 130 158 202 270 296 382
#     4   9  20  38  60  87 122 153 206 243 295 407
#
# _framework density 21.889885
#
# number of rings (size 3 to 8) (size 9 to 14) (size 15 to 20)
#    0.000    1.846    1.538    1.846    0.000    3.077 
#   16.615    0.000    0.000    0.000    0.000    0.000 
#    0.000    0.000    0.000    0.000    0.000    0.000 
#
# Total GULP energy -289716.966544 kJ/mol
# GULP energy per Si atom -5571.480126 kJ/mol
# Density = 2.184006 g / cm^3
# Si number density = 21.889885 Si / 1000 Ang^3
#
#
#
# Elastic Constant Matrix: (Units=GPa)
#
#
# Indices 1 2 3 4 5 6 
#
# 1 42.2873 32.8018 3.2172 0.0000 0.0000 0.0000
# 2 32.8018 164.7025 49.9261 0.0000 0.0000 0.0000
# 3 3.2172 49.9261 54.3478 0.0000 0.0000 0.0000
# 4 0.0000 0.0000 0.0000 3.6789 0.0000 0.0000
# 5 0.0000 0.0000 0.0000 0.0000 25.7763 0.0000
# 6 0.0000 0.0000 0.0000 0.0000 0.0000 10.0533
#
#
#
# Elastic Compliance Matrix: (Units=1/GPa)
#
#
# Indices 1 2 3 4 5 6 
#
# 1 0.028901 -0.007258 0.004957 0.000000 0.000000 0.000000
# 2 -0.007258 0.010238 -0.008975 0.000000 0.000000 0.000000
# 3 0.004957 -0.008975 0.026351 0.000000 0.000000 0.000000
# 4 0.000000 0.000000 0.000000 0.271823 0.000000 0.000000
# 5 0.000000 0.000000 0.000000 0.000000 0.038795 0.000000
# 6 0.000000 0.000000 0.000000 0.000000 0.000000 0.099470
#
#
# Mechanical properties :
#
#
# Convention : Reuss Voigt Hill
#
# Bulk Modulus (GPa) = 23.28986 48.13642 35.71314
# Shear Modulus (GPa) = 9.75716 19.59452 14.67584
#
# Velocity S-wave (km/s) = 2.11354 2.99514 2.59209
# Velocity P-wave (km/s) = 4.07661 5.83088 5.03080
#
# Compressibility (1/GPa) = 0.04293713
#
# Stress axis : x y z
#
# Youngs Moduli (GPa) = 34.60090 97.67761 37.94854
#
# Poissons Ratio (x) = 0.70899 -0.18811
# Poissons Ratio (y) = 0.25115 0.34059
# Poissons Ratio (z) = -0.17152 0.87667
#
# Static dielectric constant tensor:
#      x y z
#    x 1.803260 0.000000 0.000000 
#    y 0.000000 1.823090 0.000000 
#    z 0.000000 0.000000 2.084240 
# 
# From -- ./inp_files/17669.got.cif
#   From: 2010.05.17/outbox.cif.g08.bks.cpg/sg60_9_cif.got.tgz:17669.got - 2010.06.03 14:59:27.
