data_PCOD9455734
_publ_section_title
;
Structure prediction by ZEFSAII (Michael W. Deem and Ramdas Pophale) SiO2 
 PCOD9455734
Probable space group: P B C N
;
_chemical_formula_sum "Si O2"
_cell_formula_units_Z 56
_cell_length_a 14.499769
_cell_length_b 5.539063
_cell_length_c 27.696717
_cell_angle_alpha 90.000000
_cell_angle_beta 90.000000
_cell_angle_gamma 90.000000
_cell_volume 2224.465537
_symmetry_space_group_name_H-M "P B C N"
_symmetry_group_IT_number 60
_symmetry_cell_setting 'orthorhombic'
loop_
_space_group_symop_operation_xyz
x,y,z
1/2-x,1/2-y,1/2+z
1/2+x,1/2-y,-z
-x,y,1/2-z
-x,-y,-z
1/2+x,1/2+y,1/2-z
1/2-x,1/2+y,z
x,-y,1/2+z
loop_
_atom_site_type_symbol
_atom_site_label
_atom_site_fract_x
_atom_site_fract_y
_atom_site_fract_z
Si Si1 0.040200 0.630218 0.634681
Si Si2 0.884535 0.715362 0.121322
Si Si3 0.284236 0.809291 0.646998
Si Si4 0.773790 0.775592 0.542702
Si Si5 0.978064 0.086022 0.053001
Si Si6 0.041374 0.023601 0.294892
Si Si7 0.212116 0.734123 0.757020
O O1 0.112610 0.420158 0.646722
O O2 0.936158 0.527469 0.636034
O O3 0.050161 0.748401 0.581773
O O4 0.036455 0.847793 0.672894
O O5 0.788321 0.704026 0.092173
O O6 0.893912 0.880907 0.168273
O O7 0.953364 0.848335 0.083610
O O8 0.228151 0.040142 0.624896
O O9 0.245463 0.750265 0.701022
O O10 0.744361 0.530363 0.517221
O O11 0.881944 0.767919 0.551408
O O12 0.000000 0.000000 0.000000
O O13 0.105707 0.215842 0.267498
O O14 0.000000 0.872613 0.250000
O O15 0.263208 0.972204 0.777258
#
# Coordination Sequence:
#
# PCOD9455734 Si02
#       7
#     8   8   8   8   8   8   8
#     4  11  24  44  70 102 141 189 248 299 372 437
#     4  10  24  41  72 100 145 188 236 305 369 440
#     4  10  23  43  70  89 140 190 236 300 363 418
#     4  10  20  43  68 104 145 186 228 296 368 438
#     4  10  23  45  74 107 143 188 241 309 381 455
#     4  11  25  40  65 100 138 190 249 299 359 433
#     4  10  23  40  58  91 131 186 234 292 351 409
#
# _framework density 25.174588
#
# number of rings (size 3 to 8) (size 9 to 14) (size 15 to 20)
#    0.000    1.714    1.429    1.714   10.000    4.571 
#    0.000    2.857    0.000    0.000    0.000    0.000 
#    0.000    0.000    0.000    0.000    0.000    0.000 
#
# Total GULP energy -312598.412329 kJ/mol
# GULP energy per Si atom -5582.114506 kJ/mol
# Density = 2.511729 g / cm^3
# Si number density = 25.174588 Si / 1000 Ang^3
#
#
#
# Elastic Constant Matrix: (Units=GPa)
#
#
# Indices 1 2 3 4 5 6 
#
# 1 66.5038 -6.8143 -5.6270 0.0000 0.0000 0.0000
# 2 -6.8143 123.0175 -1.4905 0.0000 0.0000 0.0000
# 3 -5.6270 -1.4905 79.7995 0.0000 0.0000 0.0000
# 4 0.0000 0.0000 0.0000 10.5469 0.0000 0.0000
# 5 0.0000 0.0000 0.0000 0.0000 24.4745 0.0000
# 6 0.0000 0.0000 0.0000 0.0000 0.0000 47.7351
#
#
#
# Elastic Compliance Matrix: (Units=1/GPa)
#
#
# Indices 1 2 3 4 5 6 
#
# 1 0.015217 0.000856 0.001089 0.000000 0.000000 0.000000
# 2 0.000856 0.008179 0.000213 0.000000 0.000000 0.000000
# 3 0.001089 0.000213 0.012612 0.000000 0.000000 0.000000
# 4 0.000000 0.000000 0.000000 0.094815 0.000000 0.000000
# 5 0.000000 0.000000 0.000000 0.000000 0.040859 0.000000
# 6 0.000000 0.000000 0.000000 0.000000 0.000000 0.020949
#
#
# Mechanical properties :
#
#
# Convention : Reuss Voigt Hill
#
# Bulk Modulus (GPa) = 24.79908 26.82859 25.81383
# Shear Modulus (GPa) = 24.78251 35.43481 30.10866
#
# Velocity S-wave (km/s) = 3.14096 3.75582 3.46207
# Velocity P-wave (km/s) = 4.79858 5.43032 5.12420
#
# Compressibility (1/GPa) = 0.04032408
#
# Stress axis : x y z
#
# Youngs Moduli (GPa) = 65.71770 122.26545 79.28848
#
# Poissons Ratio (x) = -0.10467 -0.08634
# Poissons Ratio (y) = -0.05626 -0.01690
# Poissons Ratio (z) = -0.07157 -0.02606
#
# Static dielectric constant tensor:
#      x y z
#    x 2.077600 0.000000 0.000000 
#    y 0.000000 2.142430 0.000000 
#    z 0.000000 0.000000 2.017820 
# 
# From -- ./inp_files/26150.got.cif
#   From: 2010.05.17/outbox.cif.g08.bks.cpg/sg60_14_cif.got.tgz:26150.got - 2010.06.03 14:59:27.
