data_PCOD9455905
_publ_section_title
;
Structure prediction by ZEFSAII (Michael W. Deem and Ramdas Pophale) SiO2 
 PCOD9455905
Probable space group: P B C N
;
_chemical_formula_sum "Si O2"
_cell_formula_units_Z 32
_cell_length_a 16.680796
_cell_length_b 5.188940
_cell_length_c 14.166888
_cell_angle_alpha 90.000000
_cell_angle_beta 90.000000
_cell_angle_gamma 90.000000
_cell_volume 1226.224194
_symmetry_space_group_name_H-M "P B C N"
_symmetry_group_IT_number 60
_symmetry_cell_setting 'orthorhombic'
loop_
_space_group_symop_operation_xyz
x,y,z
1/2-x,1/2-y,1/2+z
1/2+x,1/2-y,-z
-x,y,1/2-z
-x,-y,-z
1/2+x,1/2+y,1/2-z
1/2-x,1/2+y,z
x,-y,1/2+z
loop_
_atom_site_type_symbol
_atom_site_label
_atom_site_fract_x
_atom_site_fract_y
_atom_site_fract_z
Si Si1 0.781278 0.952667 0.869107
Si Si2 0.960516 0.737257 0.617373
Si Si3 0.781671 0.203873 0.154254
Si Si4 0.550128 0.262508 0.390235
O O1 0.780284 0.663803 0.911440
O O2 0.759710 0.877924 0.761068
O O3 0.864526 0.106698 0.870050
O O4 0.871228 0.687788 0.653167
O O5 0.955242 0.740913 0.503660
O O6 0.024634 0.519032 0.645909
O O7 0.986795 0.024344 0.644330
O O8 0.725355 0.420742 0.108539
#
# Coordination Sequence:
#
# PCOD9455905 Si02
#       4
#     8   8   8   8
#     4  10  21  37  56  81 113 147 187 233 280 338
#     4  10  21  37  57  83 114 147 188 237 287 344
#     4  10  21  37  56  81 113 147 187 233 280 338
#     4  10  21  37  57  83 114 147 188 237 287 344
#
# _framework density 26.096368999999999
#
# number of rings (size 3 to 8) (size 9 to 14) (size 15 to 20)
#    0.000    2.000    0.000    3.000    0.000    3.000 
#    0.000    2.500    0.000    0.000    0.000    0.000 
#    0.000    0.000    0.000    0.000    0.000    0.000 
#
# Total GULP energy -178846.011600 kJ/mol
# GULP energy per Si atom -5588.937863 kJ/mol
# Density = 2.603697 g / cm^3
# Si number density = 26.096369 Si / 1000 Ang^3
#
#
#
# Elastic Constant Matrix: (Units=GPa)
#
#
# Indices 1 2 3 4 5 6 
#
# 1 113.6379 38.3097 -19.4765 0.0000 0.0000 0.0000
# 2 38.3097 207.4489 2.9587 0.0000 0.0000 0.0000
# 3 -19.4765 2.9587 84.8022 0.0000 0.0000 0.0000
# 4 0.0000 0.0000 0.0000 12.5519 0.0000 0.0000
# 5 0.0000 0.0000 0.0000 0.0000 78.5529 0.0000
# 6 0.0000 0.0000 0.0000 0.0000 0.0000 50.5182
#
#
#
# Elastic Compliance Matrix: (Units=1/GPa)
#
#
# Indices 1 2 3 4 5 6 
#
# 1 0.009820 -0.001847 0.002320 0.000000 0.000000 0.000000
# 2 -0.001847 0.005170 -0.000604 0.000000 0.000000 0.000000
# 3 0.002320 -0.000604 0.012346 0.000000 0.000000 0.000000
# 4 0.000000 0.000000 0.000000 0.079669 0.000000 0.000000
# 5 0.000000 0.000000 0.000000 0.000000 0.012730 0.000000
# 6 0.000000 0.000000 0.000000 0.000000 0.000000 0.019795
#
#
# Mechanical properties :
#
#
# Convention : Reuss Voigt Hill
#
# Bulk Modulus (GPa) = 36.93635 49.94142 43.43888
# Shear Modulus (GPa) = 33.59822 53.93106 43.76464
#
# Velocity S-wave (km/s) = 3.59202 4.55093 4.09961
# Velocity P-wave (km/s) = 5.60250 6.84058 6.25226
#
# Compressibility (1/GPa) = 0.02707360
#
# Stress axis : x y z
#
# Youngs Moduli (GPa) = 101.83318 193.42025 80.99773
#
# Poissons Ratio (x) = 0.35716 -0.18790
# Poissons Ratio (y) = 0.18804 0.04896
# Poissons Ratio (z) = -0.23623 0.11692
#
# Static dielectric constant tensor:
#      x y z
#    x 2.023100 0.000000 0.000000 
#    y 0.000000 2.165050 0.000000 
#    z 0.000000 0.000000 2.140300 
# 
# From -- ./inp_files/20333.got.cif
#   From: 2010.05.17/outbox.cif.g08.bks.cpg/sg60_11_cif.got.tgz:20333.got - 2010.06.03 14:59:27.
