data_PCOD9455227
_publ_section_title
;
Structure prediction by ZEFSAII (Michael W. Deem and Ramdas Pophale) SiO2 
 PCOD9455227
Probable space group: P B C N
;
_chemical_formula_sum "Si O2"
_cell_formula_units_Z 60
_cell_length_a 8.476169
_cell_length_b 15.588978
_cell_length_c 22.814767
_cell_angle_alpha 90.000000
_cell_angle_beta 90.000000
_cell_angle_gamma 90.000000
_cell_volume 3014.624950
_symmetry_space_group_name_H-M "P B C N"
_symmetry_group_IT_number 60
_symmetry_cell_setting 'orthorhombic'
loop_
_space_group_symop_operation_xyz
x,y,z
1/2-x,1/2-y,1/2+z
1/2+x,1/2-y,-z
-x,y,1/2-z
-x,-y,-z
1/2+x,1/2+y,1/2-z
1/2-x,1/2+y,z
x,-y,1/2+z
loop_
_atom_site_type_symbol
_atom_site_label
_atom_site_fract_x
_atom_site_fract_y
_atom_site_fract_z
Si Si1 0.720512 0.340494 0.305709
Si Si2 0.494159 0.217242 0.875838
Si Si3 0.251344 0.791266 0.787422
Si Si4 0.991532 0.704955 0.375608
Si Si5 0.518842 0.487596 0.356352
Si Si6 0.000000 0.899970 0.750000
Si Si7 0.809005 0.854831 0.069811
Si Si8 0.693100 0.630875 0.432167
O O1 0.708854 0.301758 0.240436
O O2 0.620636 0.272851 0.343494
O O3 0.642816 0.430418 0.319732
O O4 0.895200 0.336296 0.332116
O O5 0.383218 0.275178 0.835064
O O6 0.372610 0.159003 0.911856
O O7 0.598824 0.281828 0.914655
O O8 0.398448 0.829973 0.822557
O O9 0.158284 0.844079 0.737404
O O10 0.102488 0.763645 0.417293
O O11 0.873783 0.642336 0.409814
O O12 0.445137 0.545105 0.305344
O O13 0.398242 0.426092 0.390895
O O14 0.609166 0.550954 0.400597
O O15 0.816702 0.877916 0.001840
#
# Coordination Sequence:
#
# PCOD9455227 Si02
#       8
#     8   8   8   8   8   4   8   8
#     4  10  20  37  58  86 125 156 201 254 318 380
#     4  10  20  38  62  89 114 162 220 249 306 384
#     4  11  19  39  62  89 119 165 207 263 304 383
#     4   9  21  35  63  92 113 163 222 250 311 382
#     4  11  25  38  58  94 127 168 203 264 334 383
#     4  12  22  40  62  90 128 158 212 256 320 376
#     4  10  22  39  65  89 124 172 215 263 317 383
#     4  11  20  43  61  91 130 163 215 273 315 374
#
# _framework density 19.902975000000001
#
# number of rings (size 3 to 8) (size 9 to 14) (size 15 to 20)
#    0.000    1.600    2.667    2.400    5.600    0.000 
#    2.400    0.667    0.000    0.000    0.000    0.000 
#    0.000    0.000    0.000    0.000    0.000    0.000 
#
# Total GULP energy -334641.722316 kJ/mol
# GULP energy per Si atom -5577.362039 kJ/mol
# Density = 1.985767 g / cm^3
# Si number density = 19.902975 Si / 1000 Ang^3
#
#
#
# Elastic Constant Matrix: (Units=GPa)
#
#
# Indices 1 2 3 4 5 6 
#
# 1 106.6309 30.4477 35.0282 0.0000 0.0000 0.0000
# 2 30.4477 71.7871 29.6389 0.0000 0.0000 0.0000
# 3 35.0282 29.6389 108.8900 0.0000 0.0000 0.0000
# 4 0.0000 0.0000 0.0000 31.6375 0.0000 0.0000
# 5 0.0000 0.0000 0.0000 0.0000 33.6376 0.0000
# 6 0.0000 0.0000 0.0000 0.0000 0.0000 15.7605
#
#
#
# Elastic Compliance Matrix: (Units=1/GPa)
#
#
# Indices 1 2 3 4 5 6 
#
# 1 0.011300 -0.003709 -0.002625 0.000000 0.000000 0.000000
# 2 -0.003709 0.016911 -0.003410 0.000000 0.000000 0.000000
# 3 -0.002625 -0.003410 0.010956 0.000000 0.000000 0.000000
# 4 0.000000 0.000000 0.000000 0.031608 0.000000 0.000000
# 5 0.000000 0.000000 0.000000 0.000000 0.029729 0.000000
# 6 0.000000 0.000000 0.000000 0.000000 0.000000 0.063450
#
#
# Mechanical properties :
#
#
# Convention : Reuss Voigt Hill
#
# Bulk Modulus (GPa) = 50.81633 53.05972 51.93803
# Shear Modulus (GPa) = 26.31564 29.02000 27.66782
#
# Velocity S-wave (km/s) = 3.64015 3.82262 3.73250
# Velocity P-wave (km/s) = 6.57685 6.79708 6.68787
#
# Compressibility (1/GPa) = 0.01967871
#
# Stress axis : x y z
#
# Youngs Moduli (GPa) = 88.49895 59.13330 91.27153
#
# Poissons Ratio (x) = 0.21930 0.23963
# Poissons Ratio (y) = 0.32821 0.31124
# Poissons Ratio (z) = 0.23235 0.20164
#
# Static dielectric constant tensor:
#      x y z
#    x 1.739630 0.000000 0.000000 
#    y 0.000000 1.753410 0.000000 
#    z 0.000000 0.000000 1.726890 
# 
# From -- ./inp_files/24046.got.cif
#   From: 2010.05.17/outbox.cif.g08.bks.cpg/sg60_13_cif.got.tgz:24046.got - 2010.06.03 14:59:27.
