data_PCOD9455050
_publ_section_title
;
Structure prediction by ZEFSAII (Michael W. Deem and Ramdas Pophale) SiO2 
 PCOD9455050
Probable space group: P B C N
;
_chemical_formula_sum "Si O2"
_cell_formula_units_Z 64
_cell_length_a 15.948297
_cell_length_b 22.867495
_cell_length_c 7.787745
_cell_angle_alpha 90.000000
_cell_angle_beta 90.000000
_cell_angle_gamma 90.000000
_cell_volume 2840.171926
_symmetry_space_group_name_H-M "P B C N"
_symmetry_group_IT_number 60
_symmetry_cell_setting 'orthorhombic'
loop_
_space_group_symop_operation_xyz
x,y,z
1/2-x,1/2-y,1/2+z
1/2+x,1/2-y,-z
-x,y,1/2-z
-x,-y,-z
1/2+x,1/2+y,1/2-z
1/2-x,1/2+y,z
x,-y,1/2+z
loop_
_atom_site_type_symbol
_atom_site_label
_atom_site_fract_x
_atom_site_fract_y
_atom_site_fract_z
Si Si1 0.970808 0.779315 0.443728
Si Si2 0.643830 0.281344 0.923629
Si Si3 0.522445 0.581553 0.951601
Si Si4 0.812195 0.533913 0.369392
Si Si5 0.204923 0.796145 0.963649
Si Si6 0.156189 0.913198 0.503847
Si Si7 0.701178 0.426675 0.392037
Si Si8 0.063807 0.532924 0.874372
O O1 0.964551 0.849128 0.479274
O O2 0.874269 0.760606 0.456459
O O3 0.000000 0.770028 0.250000
O O4 0.047829 0.758933 0.563455
O O5 0.676297 0.296734 0.733983
O O6 0.708915 0.237721 0.009591
O O7 0.646460 0.343661 0.018673
O O8 0.500000 0.573858 0.750000
O O9 0.437728 0.565197 0.050278
O O10 0.613652 0.555108 0.982428
O O11 0.726367 0.570212 0.355853
O O12 0.775221 0.471251 0.432847
O O13 0.868120 0.566398 0.513224
O O14 0.879581 0.514687 0.227460
O O15 0.216263 0.860019 0.050529
O O16 0.186020 0.932865 0.313842
O O17 0.000000 0.566498 0.750000
O O18 0.000000 0.500000 0.000000
#
# Coordination Sequence:
#
# PCOD9455050 Si02
#       8
#     8   8   8   8   8   8   8   8
#     4   9  17  35  60  82 115 154 196 236 295 356
#     4  11  22  37  61  87 118 156 201 245 300 358
#     4   7  14  30  50  78 113 156 179 217 278 339
#     4  11  20  35  62  87 116 151 197 248 299 357
#     4  11  22  37  61  87 118 156 199 246 296 361
#     4  10  20  35  57  85 119 156 196 239 291 357
#     4  10  20  35  57  85 119 156 197 239 291 357
#     4   9  20  38  60  80 106 154 201 244 305 363
#
# _framework density 22.533847000000002
#
# number of rings (size 3 to 8) (size 9 to 14) (size 15 to 20)
#    0.000    2.250    1.250    4.125    1.750    0.500 
#    0.000    0.000    8.250    0.000    0.000    0.000 
#    0.000    0.000    0.000    0.000    0.000    0.000 
#
# Total GULP energy -356644.057113 kJ/mol
# GULP energy per Si atom -5572.563392 kJ/mol
# Density = 2.248256 g / cm^3
# Si number density = 22.533847 Si / 1000 Ang^3
#
#
#
# Elastic Constant Matrix: (Units=GPa)
#
#
# Indices 1 2 3 4 5 6 
#
# 1 173.0666 29.8279 36.8771 0.0000 0.0000 0.0000
# 2 29.8279 45.4460 0.4152 0.0000 0.0000 0.0000
# 3 36.8771 0.4152 53.0749 0.0000 0.0000 0.0000
# 4 0.0000 0.0000 0.0000 16.7877 0.0000 0.0000
# 5 0.0000 0.0000 0.0000 0.0000 43.5352 0.0000
# 6 0.0000 0.0000 0.0000 0.0000 0.0000 20.8859
#
#
#
# Elastic Compliance Matrix: (Units=1/GPa)
#
#
# Indices 1 2 3 4 5 6 
#
# 1 0.007798 -0.005069 -0.005378 0.000000 0.000000 0.000000
# 2 -0.005069 0.025301 0.003324 0.000000 0.000000 0.000000
# 3 -0.005378 0.003324 0.022552 0.000000 0.000000 0.000000
# 4 0.000000 0.000000 0.000000 0.059567 0.000000 0.000000
# 5 0.000000 0.000000 0.000000 0.000000 0.022970 0.000000
# 6 0.000000 0.000000 0.000000 0.000000 0.000000 0.047879
#
#
# Mechanical properties :
#
#
# Convention : Reuss Voigt Hill
#
# Bulk Modulus (GPa) = 24.15214 45.09199 34.62207
# Shear Modulus (GPa) = 23.35197 29.87292 26.61244
#
# Velocity S-wave (km/s) = 3.22266 3.64495 3.44029
# Velocity P-wave (km/s) = 4.95871 6.14561 5.58379
#
# Compressibility (1/GPa) = 0.04140419
#
# Stress axis : x y z
#
# Youngs Moduli (GPa) = 128.24232 39.52474 44.34160
#
# Poissons Ratio (x) = 0.20034 0.23848
# Poissons Ratio (y) = 0.65004 -0.14739
# Poissons Ratio (z) = 0.68973 -0.13138
#
# Static dielectric constant tensor:
#      x y z
#    x 1.870790 0.000000 0.000000 
#    y 0.000000 1.841540 0.000000 
#    z 0.000000 0.000000 1.922710 
# 
# From -- ./inp_files/6318.got.cif
#   From: 2010.05.17/outbox.cif.g08.bks.cpg/sg60_4_cif.got.tgz:6318.got - 2010.06.03 14:59:27.
