data_PCOD9455554
_publ_section_title
;
Structure prediction by ZEFSAII (Michael W. Deem and Ramdas Pophale) SiO2 
 PCOD9455554
Probable space group: P B C N
;
_chemical_formula_sum "Si O2"
_cell_formula_units_Z 64
_cell_length_a 12.633842
_cell_length_b 18.014858
_cell_length_c 13.863108
_cell_angle_alpha 90.000000
_cell_angle_beta 90.000000
_cell_angle_gamma 90.000000
_cell_volume 3155.199984
_symmetry_space_group_name_H-M "P B C N"
_symmetry_group_IT_number 60
_symmetry_cell_setting 'orthorhombic'
loop_
_space_group_symop_operation_xyz
x,y,z
1/2-x,1/2-y,1/2+z
1/2+x,1/2-y,-z
-x,y,1/2-z
-x,-y,-z
1/2+x,1/2+y,1/2-z
1/2-x,1/2+y,z
x,-y,1/2+z
loop_
_atom_site_type_symbol
_atom_site_label
_atom_site_fract_x
_atom_site_fract_y
_atom_site_fract_z
Si Si1 0.359986 0.780666 0.332540
Si Si2 0.665831 0.315987 0.847094
Si Si3 0.605207 0.518054 0.362783
Si Si4 0.633077 0.510737 0.088017
Si Si5 0.690245 0.609973 0.726055
Si Si6 0.375173 0.275367 0.133716
Si Si7 0.247607 0.843383 0.956535
Si Si8 0.459372 0.781119 0.010866
O O1 0.385501 0.726991 0.243192
O O2 0.304790 0.852202 0.284877
O O3 0.276753 0.730018 0.392981
O O4 0.452815 0.800323 0.407630
O O5 0.654315 0.402825 0.839465
O O6 0.786699 0.288092 0.852370
O O7 0.604539 0.287440 0.941989
O O8 0.477564 0.524137 0.356548
O O9 0.619291 0.497192 0.474238
O O10 0.664372 0.456763 0.299201
O O11 0.669258 0.430337 0.125390
O O12 0.709282 0.582390 0.097742
O O13 0.619680 0.677065 0.768617
O O14 0.323990 0.329628 0.051895
O O15 0.479671 0.242991 0.085513
O O16 0.369764 0.841843 0.988254
#
# Coordination Sequence:
#
# PCOD9455554 Si02
#       8
#     8   8   8   8   8   8   8   8
#     4  10  22  39  63  96 122 169 221 261 327 390
#     4  10  21  38  65  88 127 166 207 267 313 386
#     4  11  23  38  61  93 130 165 206 262 335 383
#     4  11  24  37  61  93 131 165 207 261 331 392
#     4  11  23  39  61  93 132 161 206 272 320 386
#     4   9  20  39  61  93 122 158 211 262 314 375
#     4  10  20  40  61  89 130 166 207 273 317 382
#     4  10  21  36  68  91 125 165 224 265 322 382
#
# _framework density 20.283975999999999
#
# number of rings (size 3 to 8) (size 9 to 14) (size 15 to 20)
#    0.000    1.750    1.250    3.000    7.000    2.000 
#    0.000    2.500    0.000    0.000    0.000    0.000 
#    0.000    0.000    0.000    0.000    0.000    0.000 
#
# Total GULP energy -357140.026406 kJ/mol
# GULP energy per Si atom -5580.312913 kJ/mol
# Density = 2.023781 g / cm^3
# Si number density = 20.283976 Si / 1000 Ang^3
#
#
#
# Elastic Constant Matrix: (Units=GPa)
#
#
# Indices 1 2 3 4 5 6 
#
# 1 93.4798 63.6460 39.4320 0.0000 0.0000 0.0000
# 2 63.6460 127.3730 26.9596 0.0000 0.0000 0.0000
# 3 39.4320 26.9596 68.4676 0.0000 0.0000 0.0000
# 4 0.0000 0.0000 0.0000 37.8972 0.0000 0.0000
# 5 0.0000 0.0000 0.0000 0.0000 34.7070 0.0000
# 6 0.0000 0.0000 0.0000 0.0000 0.0000 -2.9499
#
#
#
# Elastic Compliance Matrix: (Units=1/GPa)
#
#
# Indices 1 2 3 4 5 6 
#
# 1 0.019631 -0.008091 -0.008120 0.000000 0.000000 0.000000
# 2 -0.008091 0.011899 -0.000026 0.000000 0.000000 0.000000
# 3 -0.008120 -0.000026 0.019292 0.000000 0.000000 0.000000
# 4 0.000000 0.000000 0.000000 0.026387 0.000000 0.000000
# 5 0.000000 0.000000 0.000000 0.000000 0.028813 0.000000
# 6 0.000000 0.000000 0.000000 0.000000 0.000000 -0.338992
#
#
# Mechanical properties :
#
#
# Convention : Reuss Voigt Hill
#
# Bulk Modulus (GPa) = 54.49835 61.04394 57.77115
# Shear Modulus (GPa) = -25.72300 24.54972 -0.58664
#
# Velocity S-wave (km/s) = -3.56496 3.48271 -0.53837
# Velocity P-wave (km/s) = 3.15923 6.80679 5.30627
#
# Compressibility (1/GPa) = 0.01834918
#
# Stress axis : x y z
#
# Youngs Moduli (GPa) = 50.93859 84.03923 51.83410
#
# Poissons Ratio (x) = 0.67994 0.42091
# Poissons Ratio (y) = 0.41213 0.00134
# Poissons Ratio (z) = 0.41364 0.00217
#
# Static dielectric constant tensor:
#      x y z
#    x 1.755020 0.000000 0.000000 
#    y 0.000000 1.702230 0.000000 
#    z 0.000000 0.000000 1.798660 
# 
# From -- ./inp_files/16378.got.cif
#   From: 2010.05.17/outbox.cif.g08.bks.cpg/sg60_9_cif.got.tgz:16378.got - 2010.06.03 14:59:27.
