data_PCOD9455798
_publ_section_title
;
Structure prediction by ZEFSAII (Michael W. Deem and Ramdas Pophale) SiO2 
 PCOD9455798
Probable space group: P B C N
;
_chemical_formula_sum "Si O2"
_cell_formula_units_Z 64
_cell_length_a 22.957582
_cell_length_b 18.592057
_cell_length_c 8.542297
_cell_angle_alpha 90.000000
_cell_angle_beta 90.000000
_cell_angle_gamma 90.000000
_cell_volume 3646.097294
_symmetry_space_group_name_H-M "P B C N"
_symmetry_group_IT_number 60
_symmetry_cell_setting 'orthorhombic'
loop_
_space_group_symop_operation_xyz
x,y,z
1/2-x,1/2-y,1/2+z
1/2+x,1/2-y,-z
-x,y,1/2-z
-x,-y,-z
1/2+x,1/2+y,1/2-z
1/2-x,1/2+y,z
x,-y,1/2+z
loop_
_atom_site_type_symbol
_atom_site_label
_atom_site_fract_x
_atom_site_fract_y
_atom_site_fract_z
Si Si1 0.463310 0.172898 0.092477
Si Si2 0.769544 0.396647 0.010790
Si Si3 0.692477 0.020569 0.200846
Si Si4 0.576011 0.854563 0.419504
Si Si5 0.217594 0.214200 0.183603
Si Si6 0.934786 0.511505 0.319955
Si Si7 0.193605 0.669331 0.437849
Si Si8 0.868437 0.714348 0.612610
O O1 0.500000 0.187646 0.250000
O O2 0.436151 0.092066 0.108737
O O3 0.512671 0.172901 0.960231
O O4 0.412203 0.224311 0.031771
O O5 0.791590 0.445815 0.867822
O O6 0.715868 0.350776 0.941661
O O7 0.770169 0.450981 0.156008
O O8 0.816472 0.335960 0.052628
O O9 0.623196 0.005315 0.212560
O O10 0.704778 0.084393 0.076946
O O11 0.623775 0.826505 0.544360
O O12 0.598125 0.828841 0.250562
O O13 0.571754 0.940901 0.426484
O O14 0.275487 0.203615 0.287184
O O15 0.163243 0.219013 0.302388
O O16 0.218018 0.288584 0.087700
O O17 0.000000 0.504039 0.250000
#
# Coordination Sequence:
#
# PCOD9455798 Si02
#       8
#     8   8   8   8   8   8   8   8
#     4  11  23  33  48  75 108 147 191 232 273 317
#     4  11  22  37  53  75 104 141 187 237 284 324
#     4  11  22  33  50  76 104 139 191 239 274 314
#     4  11  22  32  48  72 106 150 188 232 272 318
#     4  10  22  37  56  70 101 142 192 233 286 341
#     4  11  20  31  45  69 107 150 185 223 262 307
#     4  10  21  34  52  75  99 143 186 233 280 334
#     4  11  21  37  53  71 102 145 193 231 277 336
#
# _framework density 17.553014000000001
#
# number of rings (size 3 to 8) (size 9 to 14) (size 15 to 20)
#    0.000    1.250    3.750    3.750    3.500    1.000 
#    0.000    0.000    0.000    0.000    0.000    0.000 
#    0.000    0.000    0.000  118.125    0.000    3.750 
#
# Total GULP energy -356851.782612 kJ/mol
# GULP energy per Si atom -5575.809103 kJ/mol
# Density = 1.751306 g / cm^3
# Si number density = 17.553014 Si / 1000 Ang^3
#
#
#
# Elastic Constant Matrix: (Units=GPa)
#
#
# Indices 1 2 3 4 5 6 
#
# 1 60.3804 39.2490 26.2220 0.0000 0.0000 0.0000
# 2 39.2490 53.8314 20.3838 0.0000 0.0000 0.0000
# 3 26.2220 20.3838 51.3058 0.0000 0.0000 0.0000
# 4 0.0000 0.0000 0.0000 28.4702 0.0000 0.0000
# 5 0.0000 0.0000 0.0000 0.0000 37.7138 0.0000
# 6 0.0000 0.0000 0.0000 0.0000 0.0000 26.5953
#
#
#
# Elastic Compliance Matrix: (Units=1/GPa)
#
#
# Indices 1 2 3 4 5 6 
#
# 1 0.034719 -0.021887 -0.009049 0.000000 0.000000 0.000000
# 2 -0.021887 0.035664 -0.002983 0.000000 0.000000 0.000000
# 3 -0.009049 -0.002983 0.025301 0.000000 0.000000 0.000000
# 4 0.000000 0.000000 0.000000 0.035124 0.000000 0.000000
# 5 0.000000 0.000000 0.000000 0.000000 0.026515 0.000000
# 6 0.000000 0.000000 0.000000 0.000000 0.000000 0.037601
#
#
# Mechanical properties :
#
#
# Convention : Reuss Voigt Hill
#
# Bulk Modulus (GPa) = 35.91193 37.46970 36.69081
# Shear Modulus (GPa) = 18.37936 23.86671 21.12304
#
# Velocity S-wave (km/s) = 3.23937 3.69140 3.47275
# Velocity P-wave (km/s) = 5.87323 6.28980 6.08508
#
# Compressibility (1/GPa) = 0.02784590
#
# Stress axis : x y z
#
# Youngs Moduli (GPa) = 28.80295 28.03922 39.52441
#
# Poissons Ratio (x) = 0.61370 0.35764
# Poissons Ratio (y) = 0.63042 0.11790
# Poissons Ratio (z) = 0.26063 0.08364
#
# Static dielectric constant tensor:
#      x y z
#    x 1.606640 0.000000 0.000000 
#    y 0.000000 1.598780 0.000000 
#    z 0.000000 0.000000 1.726440 
# 
# From -- ./inp_files/8036.got.cif
#   From: 2010.05.17/outbox.cif.g08.bks.cpg/sg60_5_cif.got.tgz:8036.got - 2010.06.03 14:59:27.
