data_PCOD9455765
_publ_section_title
;
Structure prediction by ZEFSAII (Michael W. Deem and Ramdas Pophale) SiO2 
 PCOD9455765
Probable space group: P B C N
;
_chemical_formula_sum "Si O2"
_cell_formula_units_Z 32
_cell_length_a 7.339294
_cell_length_b 29.533998
_cell_length_c 5.423272
_cell_angle_alpha 90.000000
_cell_angle_beta 90.000000
_cell_angle_gamma 90.000000
_cell_volume 1175.541358
_symmetry_space_group_name_H-M "P B C N"
_symmetry_group_IT_number 60
_symmetry_cell_setting 'orthorhombic'
loop_
_space_group_symop_operation_xyz
x,y,z
1/2-x,1/2-y,1/2+z
1/2+x,1/2-y,-z
-x,y,1/2-z
-x,-y,-z
1/2+x,1/2+y,1/2-z
1/2-x,1/2+y,z
x,-y,1/2+z
loop_
_atom_site_type_symbol
_atom_site_label
_atom_site_fract_x
_atom_site_fract_y
_atom_site_fract_z
Si Si1 0.706113 0.517019 0.663359
Si Si2 0.703998 0.308637 0.615553
Si Si3 0.815457 0.397123 0.867362
Si Si4 0.500000 0.168774 0.750000
Si Si5 0.500000 0.741556 0.750000
O O1 0.500000 0.504829 0.750000
O O2 0.787662 0.485158 0.442876
O O3 0.710127 0.565297 0.524938
O O4 0.706625 0.361996 0.690420
O O5 0.516245 0.290622 0.494160
O O6 0.829434 0.275953 0.782273
O O7 0.838217 0.305541 0.377965
O O8 0.000000 0.417831 0.750000
O O9 0.903239 0.362675 0.055969
#
# Coordination Sequence:
#
# PCOD9455765 Si02
#       5
#     8   8   8   4   4
#     4  10  24  47  73 110 155 201 248 315 386 468
#     4  11  24  45  69 106 146 199 247 318 381 453
#     4  10  23  44  74 105 147 193 250 313 380 456
#     4  10  20  46  66 103 148 194 241 320 374 454
#     4  12  24  46  72  99 152 198 257 312 384 450
#
# _framework density 27.221498
#
# number of rings (size 3 to 8) (size 9 to 14) (size 15 to 20)
#    0.000    1.500    3.750    1.500    7.000    1.000 
#    2.250    0.000    0.000    0.000    0.000    0.000 
#    0.000    0.000    0.000    0.000    0.000    0.000 
#
# Total GULP energy -178470.854331 kJ/mol
# GULP energy per Si atom -5577.214198 kJ/mol
# Density = 2.715954 g / cm^3
# Si number density = 27.221498 Si / 1000 Ang^3
#
#
#
# Elastic Constant Matrix: (Units=GPa)
#
#
# Indices 1 2 3 4 5 6 
#
# 1 115.5852 62.0057 28.8180 0.0000 0.0000 0.0000
# 2 62.0057 144.3825 64.8403 0.0000 0.0000 0.0000
# 3 28.8180 64.8403 153.9536 0.0000 0.0000 0.0000
# 4 0.0000 0.0000 0.0000 -41.2227 0.0000 0.0000
# 5 0.0000 0.0000 0.0000 0.0000 42.6804 0.0000
# 6 0.0000 0.0000 0.0000 0.0000 0.0000 17.8926
#
#
#
# Elastic Compliance Matrix: (Units=1/GPa)
#
#
# Indices 1 2 3 4 5 6 
#
# 1 0.011242 -0.004789 -0.000088 0.000000 0.000000 0.000000
# 2 -0.004789 0.010581 -0.003560 0.000000 0.000000 0.000000
# 3 -0.000088 -0.003560 0.008011 0.000000 0.000000 0.000000
# 4 0.000000 0.000000 0.000000 -0.024258 0.000000 0.000000
# 5 0.000000 0.000000 0.000000 0.000000 0.023430 0.000000
# 6 0.000000 0.000000 0.000000 0.000000 0.000000 0.055889
#
#
# Mechanical properties :
#
#
# Convention : Reuss Voigt Hill
#
# Bulk Modulus (GPa) = 77.14781 80.58324 78.86553
# Shear Modulus (GPa) = 47.13011 21.08722 34.10867
#
# Velocity S-wave (km/s) = 4.16547 2.78628 3.54362
# Velocity P-wave (km/s) = 7.17894 6.32599 6.76592
#
# Compressibility (1/GPa) = 0.01296213
#
# Stress axis : x y z
#
# Youngs Moduli (GPa) = 88.94908 94.50519 124.82405
#
# Poissons Ratio (x) = 0.45256 0.01093
# Poissons Ratio (y) = 0.42596 0.44439
# Poissons Ratio (z) = 0.00779 0.33645
#
# Static dielectric constant tensor:
#      x y z
#    x 2.470920 0.000000 0.000000 
#    y 0.000000 2.123160 0.000000 
#    z 0.000000 0.000000 1.548210 
# 
# From -- ./inp_files/453.got.cif
#   From: 2010.05.17/outbox.cif.g08.bks.cpg/sg60_1_cif.got.tgz:453.got - 2010.06.03 14:59:27.
