data_PCOD9455225
_publ_section_title
;
Structure prediction by ZEFSAII (Michael W. Deem and Ramdas Pophale) SiO2 
 PCOD9455225
Probable space group: P B C N
;
_chemical_formula_sum "Si O2"
_cell_formula_units_Z 48
_cell_length_a 8.620938
_cell_length_b 17.616189
_cell_length_c 15.228367
_cell_angle_alpha 90.000000
_cell_angle_beta 90.000000
_cell_angle_gamma 90.000000
_cell_volume 2312.702754
_symmetry_space_group_name_H-M "P B C N"
_symmetry_group_IT_number 60
_symmetry_cell_setting 'orthorhombic'
loop_
_space_group_symop_operation_xyz
x,y,z
1/2-x,1/2-y,1/2+z
1/2+x,1/2-y,-z
-x,y,1/2-z
-x,-y,-z
1/2+x,1/2+y,1/2-z
1/2-x,1/2+y,z
x,-y,1/2+z
loop_
_atom_site_type_symbol
_atom_site_label
_atom_site_fract_x
_atom_site_fract_y
_atom_site_fract_z
Si Si1 0.295830 0.652748 0.067319
Si Si2 0.888770 0.235301 0.023028
Si Si3 0.080330 0.017468 0.156591
Si Si4 0.763962 0.973711 0.082417
Si Si5 0.585403 0.852009 0.159910
Si Si6 0.301726 0.908526 0.043663
O O1 0.143125 0.704544 0.056113
O O2 0.336543 0.600073 0.150807
O O3 0.437981 0.708206 0.044103
O O4 0.288053 0.590561 0.990563
O O5 0.794551 0.161094 0.995878
O O6 0.836545 0.279952 0.111763
O O7 0.000000 0.001796 0.250000
O O8 0.926268 0.015407 0.096820
O O9 0.196611 0.955499 0.114230
O O10 0.697491 0.925704 0.164127
O O11 0.656094 0.036313 0.037424
O O12 0.500000 0.833004 0.250000
O O13 0.452245 0.878869 0.092794
#
# Coordination Sequence:
#
# PCOD9455225 Si02
#       6
#     8   8   8   8   8   8
#     4  10  20  37  58  85 112 155 207 231 289 356
#     4  11  20  37  61  82 117 159 196 240 289 360
#     4  11  21  36  62  89 121 154 199 253 291 338
#     4  10  20  38  62  83 113 159 203 234 291 356
#     4  11  24  38  59  90 122 152 193 251 306 342
#     4  11  20  39  60  86 116 158 203 241 287 365
#
# _framework density 20.754937999999999
#
# number of rings (size 3 to 8) (size 9 to 14) (size 15 to 20)
#    0.000    1.333    5.000    2.500    0.000    0.667 
#    0.000    0.000    0.000    0.000    0.000    2.333 
#    0.000    0.000    0.000    0.000    0.000    0.000 
#
# Total GULP energy -267445.600895 kJ/mol
# GULP energy per Si atom -5571.783352 kJ/mol
# Density = 2.070770 g / cm^3
# Si number density = 20.754938 Si / 1000 Ang^3
#
#
#
# Elastic Constant Matrix: (Units=GPa)
#
#
# Indices 1 2 3 4 5 6 
#
# 1 48.5422 19.5394 3.7208 0.0000 0.0000 0.0000
# 2 19.5394 122.6880 33.1431 0.0000 0.0000 0.0000
# 3 3.7208 33.1431 55.3635 0.0000 0.0000 0.0000
# 4 0.0000 0.0000 0.0000 16.5202 0.0000 0.0000
# 5 0.0000 0.0000 0.0000 0.0000 28.6053 0.0000
# 6 0.0000 0.0000 0.0000 0.0000 0.0000 38.6287
#
#
#
# Elastic Compliance Matrix: (Units=1/GPa)
#
#
# Indices 1 2 3 4 5 6 
#
# 1 0.022037 -0.003709 0.000740 0.000000 0.000000 0.000000
# 2 -0.003709 0.010348 -0.005945 0.000000 0.000000 0.000000
# 3 0.000740 -0.005945 0.021572 0.000000 0.000000 0.000000
# 4 0.000000 0.000000 0.000000 0.060532 0.000000 0.000000
# 5 0.000000 0.000000 0.000000 0.000000 0.034959 0.000000
# 6 0.000000 0.000000 0.000000 0.000000 0.000000 0.025887
#
#
# Mechanical properties :
#
#
# Convention : Reuss Voigt Hill
#
# Bulk Modulus (GPa) = 27.68064 37.71115 32.69590
# Shear Modulus (GPa) = 24.36567 28.09687 26.23127
#
# Velocity S-wave (km/s) = 3.43004 3.68332 3.55893
# Velocity P-wave (km/s) = 5.39006 6.02480 5.71625
#
# Compressibility (1/GPa) = 0.03612633
#
# Stress axis : x y z
#
# Youngs Moduli (GPa) = 45.37804 96.64092 46.35680
#
# Poissons Ratio (x) = 0.35849 -0.03429
# Poissons Ratio (y) = 0.16833 0.27560
# Poissons Ratio (z) = -0.03356 0.57455
#
# Static dielectric constant tensor:
#      x y z
#    x 1.803720 0.000000 0.000000 
#    y 0.000000 1.805630 0.000000 
#    z 0.000000 0.000000 1.797770 
# 
# From -- ./inp_files/15020.got.cif
#   From: 2010.05.17/outbox.cif.g08.bks.cpg/sg60_8_cif.got.tgz:15020.got - 2010.06.03 14:59:27.
