data_PCOD9455891
_publ_section_title
;
Structure prediction by ZEFSAII (Michael W. Deem and Ramdas Pophale) SiO2 
 PCOD9455891
Probable space group: P B C N
;
_chemical_formula_sum "Si O2"
_cell_formula_units_Z 28
_cell_length_a 16.634257
_cell_length_b 16.192772
_cell_length_c 5.010968
_cell_angle_alpha 90.000000
_cell_angle_beta 90.000000
_cell_angle_gamma 90.000000
_cell_volume 1349.727938
_symmetry_space_group_name_H-M "P B C N"
_symmetry_group_IT_number 60
_symmetry_cell_setting 'orthorhombic'
loop_
_space_group_symop_operation_xyz
x,y,z
1/2-x,1/2-y,1/2+z
1/2+x,1/2-y,-z
-x,y,1/2-z
-x,-y,-z
1/2+x,1/2+y,1/2-z
1/2-x,1/2+y,z
x,-y,1/2+z
loop_
_atom_site_type_symbol
_atom_site_label
_atom_site_fract_x
_atom_site_fract_y
_atom_site_fract_z
Si Si1 0.633695 0.446140 0.543939
Si Si2 0.553257 0.188717 0.012365
Si Si3 0.000000 0.850337 0.250000
Si Si4 0.735408 0.807056 0.429338
O O1 0.639381 0.474816 0.848295
O O2 0.550462 0.403662 0.456460
O O3 0.703020 0.381356 0.473274
O O4 0.500000 0.181400 0.750000
O O5 0.644425 0.161887 0.976882
O O6 0.500000 0.149983 0.250000
O O7 0.557277 0.286083 0.093329
O O8 0.757313 0.735294 0.641114
#
# Coordination Sequence:
#
# PCOD9455891 Si02
#       4
#     8   8   4   8
#     4  12  26  39  61  94 135 166 196 256 329 384
#     4  10  21  36  64  94 115 160 222 261 303 350
#     4  10  22  40  60  92 128 166 200 248 326 376
#     4  12  22  42  66  89 126 171 221 259 299 379
#
# _framework density 20.74492
#
# number of rings (size 3 to 8) (size 9 to 14) (size 15 to 20)
#    0.857    0.000    2.857    6.000    4.000    0.000 
#    0.000    0.000    0.000    5.143    0.000    0.000 
#    0.000    0.000    0.000    0.000    0.000    0.000 
#
# Total GULP energy -156549.484904 kJ/mol
# GULP energy per Si atom -5591.053032 kJ/mol
# Density = 2.069770 g / cm^3
# Si number density = 20.744920 Si / 1000 Ang^3
#
#
#
# Elastic Constant Matrix: (Units=GPa)
#
#
# Indices 1 2 3 4 5 6 
#
# 1 130.4758 11.0255 -4.5242 0.0000 0.0000 0.0000
# 2 11.0255 30.0138 -16.6604 0.0000 0.0000 0.0000
# 3 -4.5242 -16.6604 70.2857 0.0000 0.0000 0.0000
# 4 0.0000 0.0000 0.0000 -4.8888 0.0000 0.0000
# 5 0.0000 0.0000 0.0000 0.0000 28.5612 0.0000
# 6 0.0000 0.0000 0.0000 0.0000 0.0000 11.5558
#
#
#
# Elastic Compliance Matrix: (Units=1/GPa)
#
#
# Indices 1 2 3 4 5 6 
#
# 1 0.007912 -0.003021 -0.000207 0.000000 0.000000 0.000000
# 2 -0.003021 0.039520 0.009173 0.000000 0.000000 0.000000
# 3 -0.000207 0.009173 0.016389 0.000000 0.000000 0.000000
# 4 0.000000 0.000000 0.000000 -0.204551 0.000000 0.000000
# 5 0.000000 0.000000 0.000000 0.000000 0.035013 0.000000
# 6 0.000000 0.000000 0.000000 0.000000 0.000000 0.086536
#
#
# Mechanical properties :
#
#
# Convention : Reuss Voigt Hill
#
# Bulk Modulus (GPa) = 13.20816 23.38414 18.29615
# Shear Modulus (GPa) = -857.10350 23.10794 -416.99778
#
# Velocity S-wave (km/s) = -20.34846 3.34115 -14.19325
# Velocity P-wave (km/s) = 23.36021 5.11674 16.11704
#
# Compressibility (1/GPa) = 0.07571076
#
# Stress axis : x y z
#
# Youngs Moduli (GPa) = 126.38381 25.30373 61.01751
#
# Poissons Ratio (x) = 0.07645 0.01262
# Poissons Ratio (y) = 0.38186 -0.55973
# Poissons Ratio (z) = 0.02615 -0.23212
#
# Static dielectric constant tensor:
#      x y z
#    x 1.720420 0.000000 0.000000 
#    y 0.000000 1.728810 0.000000 
#    z 0.000000 0.000000 1.761400 
# 
# From -- ./inp_files/1597.got.cif
#   From: 2010.05.17/outbox.cif.g08.bks.cpg/sg60_1_cif.got.tgz:1597.got - 2010.06.03 14:59:27.
