data_PCOD9455759
_publ_section_title
;
Structure prediction by ZEFSAII (Michael W. Deem and Ramdas Pophale) SiO2 
 PCOD9455759
Probable space group: P B C N
;
_chemical_formula_sum "Si O2"
_cell_formula_units_Z 48
_cell_length_a 8.398410
_cell_length_b 11.580273
_cell_length_c 22.908068
_cell_angle_alpha 90.000000
_cell_angle_beta 90.000000
_cell_angle_gamma 90.000000
_cell_volume 2227.944325
_symmetry_space_group_name_H-M "P B C N"
_symmetry_group_IT_number 60
_symmetry_cell_setting 'orthorhombic'
loop_
_space_group_symop_operation_xyz
x,y,z
1/2-x,1/2-y,1/2+z
1/2+x,1/2-y,-z
-x,y,1/2-z
-x,-y,-z
1/2+x,1/2+y,1/2-z
1/2-x,1/2+y,z
x,-y,1/2+z
loop_
_atom_site_type_symbol
_atom_site_label
_atom_site_fract_x
_atom_site_fract_y
_atom_site_fract_z
Si Si1 0.979334 0.010903 0.397552
Si Si2 0.000000 0.336541 0.250000
Si Si3 0.763702 0.192561 0.941468
Si Si4 0.268170 0.363847 0.334654
Si Si5 0.223015 0.165595 0.174757
Si Si6 0.083759 0.743927 0.941400
Si Si7 0.500000 0.218923 0.250000
O O1 0.869271 0.051711 0.343776
O O2 0.017818 0.125926 0.433538
O O3 0.879216 0.916325 0.432734
O O4 0.140526 0.961640 0.370349
O O5 0.873351 0.400750 0.208945
O O6 0.895917 0.252833 0.292014
O O7 0.781623 0.271274 0.884048
O O8 0.575033 0.165429 0.944671
O O9 0.814604 0.259436 0.999834
O O10 0.187041 0.284780 0.384430
O O11 0.399448 0.297238 0.295545
O O12 0.372570 0.145138 0.215173
#
# Coordination Sequence:
#
# PCOD9455759 Si02
#       7
#     8   4   8   8   8   8   4
#     4  11  23  44  68  99 135 178 226 270 350 391
#     4  10  20  45  67  94 142 168 222 274 336 390
#     4  11  22  44  69  96 133 178 220 285 339 395
#     4  11  22  44  70 100 132 183 217 283 333 398
#     4  10  22  44  66 101 133 175 221 282 327 407
#     4  11  25  46  69  97 138 170 229 285 332 406
#     4  10  22  43  71  94 140 172 224 276 340 392
#
# _framework density 21.544525
#
# number of rings (size 3 to 8) (size 9 to 14) (size 15 to 20)
#    0.000    1.333    5.000    1.500    0.000    2.000 
#    3.000    5.833    0.000    0.000    0.000    0.000 
#    0.000    0.000    0.000    0.000    0.000    0.000 
#
# Total GULP energy -268325.492076 kJ/mol
# GULP energy per Si atom -5590.114418 kJ/mol
# Density = 2.149549 g / cm^3
# Si number density = 21.544525 Si / 1000 Ang^3
#
#
#
# Elastic Constant Matrix: (Units=GPa)
#
#
# Indices 1 2 3 4 5 6 
#
# 1 131.7330 27.4661 56.9401 0.0000 0.0000 0.0000
# 2 27.4661 47.5913 20.4065 0.0000 0.0000 0.0000
# 3 56.9401 20.4065 127.6408 0.0000 0.0000 0.0000
# 4 0.0000 0.0000 0.0000 -16.8628 0.0000 0.0000
# 5 0.0000 0.0000 0.0000 0.0000 49.8944 0.0000
# 6 0.0000 0.0000 0.0000 0.0000 0.0000 36.5753
#
#
#
# Elastic Compliance Matrix: (Units=1/GPa)
#
#
# Indices 1 2 3 4 5 6 
#
# 1 0.010129 -0.004196 -0.003848 0.000000 0.000000 0.000000
# 2 -0.004196 0.024297 -0.002013 0.000000 0.000000 0.000000
# 3 -0.003848 -0.002013 0.009873 0.000000 0.000000 0.000000
# 4 0.000000 0.000000 0.000000 -0.059302 0.000000 0.000000
# 5 0.000000 0.000000 0.000000 0.000000 0.020042 0.000000
# 6 0.000000 0.000000 0.000000 0.000000 0.000000 0.027341
#
#
# Mechanical properties :
#
#
# Convention : Reuss Voigt Hill
#
# Bulk Modulus (GPa) = 41.34617 57.39894 49.37256
# Shear Modulus (GPa) = 82.57050 27.39820 54.98435
#
# Velocity S-wave (km/s) = 6.19748 3.56996 5.05734
# Velocity P-wave (km/s) = 8.39311 6.61004 7.55437
#
# Compressibility (1/GPa) = 0.02418604
#
# Stress axis : x y z
#
# Youngs Moduli (GPa) = 98.72554 41.15766 101.28921
#
# Poissons Ratio (x) = 0.17269 0.38973
# Poissons Ratio (y) = 0.41424 0.20386
# Poissons Ratio (z) = 0.37987 0.08284
#
# Static dielectric constant tensor:
#      x y z
#    x 1.820860 0.000000 0.000000 
#    y 0.000000 1.753040 0.000000 
#    z 0.000000 0.000000 1.770060 
# 
# From -- ./inp_files/23961.got.cif
#   From: 2010.05.17/outbox.cif.g08.bks.cpg/sg60_12_cif.got.tgz:23961.got - 2010.06.03 14:59:27.
