data_PCOD9455971
_publ_section_title
;
Structure prediction by ZEFSAII (Michael W. Deem and Ramdas Pophale) SiO2 
 PCOD9455971
Probable space group: P B C N
;
_chemical_formula_sum "Si O2"
_cell_formula_units_Z 60
_cell_length_a 13.764510
_cell_length_b 13.060780
_cell_length_c 16.347201
_cell_angle_alpha 90.000000
_cell_angle_beta 90.000000
_cell_angle_gamma 90.000000
_cell_volume 2938.821933
_symmetry_space_group_name_H-M "P B C N"
_symmetry_group_IT_number 60
_symmetry_cell_setting 'orthorhombic'
loop_
_space_group_symop_operation_xyz
x,y,z
1/2-x,1/2-y,1/2+z
1/2+x,1/2-y,-z
-x,y,1/2-z
-x,-y,-z
1/2+x,1/2+y,1/2-z
1/2-x,1/2+y,z
x,-y,1/2+z
loop_
_atom_site_type_symbol
_atom_site_label
_atom_site_fract_x
_atom_site_fract_y
_atom_site_fract_z
Si Si1 0.158655 0.445497 0.347545
Si Si2 0.846667 0.125003 0.739070
Si Si3 0.260334 0.192032 0.992098
Si Si4 0.979737 0.958631 0.371539
Si Si5 0.466763 0.726003 0.531346
Si Si6 0.371751 0.186302 0.362228
Si Si7 0.500000 0.822993 0.250000
Si Si8 0.087654 0.811640 0.617076
O O1 0.241717 0.417899 0.281547
O O2 0.200151 0.400368 0.433945
O O3 0.144010 0.566753 0.352882
O O4 0.061413 0.391290 0.313850
O O5 0.889475 0.096073 0.825970
O O6 0.853516 0.245177 0.718240
O O7 0.922112 0.069506 0.676743
O O8 0.200947 0.264706 0.929585
O O9 0.355427 0.247917 0.024294
O O10 0.189074 0.170676 0.068842
O O11 0.985536 0.894925 0.454723
O O12 0.960010 0.077704 0.369333
O O13 0.521430 0.786356 0.603457
O O14 0.521353 0.750347 0.447373
O O15 0.422746 0.751310 0.201037
#
# Coordination Sequence:
#
# PCOD9455971 Si02
#       8
#     8   8   8   8   8   8   4   8
#     4  11  24  43  66  93 129 187 214 265 341 400
#     4   9  21  40  61  98 127 165 221 271 326 392
#     4  10  23  42  66  96 128 171 224 271 325 396
#     4  10  21  37  67  96 127 165 220 274 329 382
#     4  10  21  41  62  94 130 165 221 276 317 395
#     4   9  22  41  66  88 132 170 219 275 327 391
#     4  12  26  44  64  98 146 170 222 274 330 406
#     4  11  24  43  66 100 132 175 216 280 335 388
#
# _framework density 20.416345
#
# number of rings (size 3 to 8) (size 9 to 14) (size 15 to 20)
#    0.000    1.867    1.333    2.000    5.600    4.800 
#    2.400    0.000    0.000    0.000    0.000    0.000 
#    0.000    0.000    0.000    0.000    0.000    0.000 
#
# Total GULP energy -334796.106809 kJ/mol
# GULP energy per Si atom -5579.935113 kJ/mol
# Density = 2.036988 g / cm^3
# Si number density = 20.416345 Si / 1000 Ang^3
#
#
#
# Elastic Constant Matrix: (Units=GPa)
#
#
# Indices 1 2 3 4 5 6 
#
# 1 85.4718 16.5295 3.7549 0.0000 0.0000 0.0000
# 2 16.5295 137.8871 32.0946 0.0000 0.0000 0.0000
# 3 3.7549 32.0946 49.9237 0.0000 0.0000 0.0000
# 4 0.0000 0.0000 0.0000 10.9433 0.0000 0.0000
# 5 0.0000 0.0000 0.0000 0.0000 26.7949 0.0000
# 6 0.0000 0.0000 0.0000 0.0000 0.0000 19.2263
#
#
#
# Elastic Compliance Matrix: (Units=1/GPa)
#
#
# Indices 1 2 3 4 5 6 
#
# 1 0.011977 -0.001442 0.000026 0.000000 0.000000 0.000000
# 2 -0.001442 0.008702 -0.005486 0.000000 0.000000 0.000000
# 3 0.000026 -0.005486 0.023555 0.000000 0.000000 0.000000
# 4 0.000000 0.000000 0.000000 0.091380 0.000000 0.000000
# 5 0.000000 0.000000 0.000000 0.000000 0.037321 0.000000
# 6 0.000000 0.000000 0.000000 0.000000 0.000000 0.052012
#
#
# Mechanical properties :
#
#
# Convention : Reuss Voigt Hill
#
# Bulk Modulus (GPa) = 32.86067 42.00450 37.43259
# Shear Modulus (GPa) = 20.08885 26.11983 23.10434
#
# Velocity S-wave (km/s) = 3.14022 3.58069 3.36766
# Velocity P-wave (km/s) = 5.41093 6.14115 5.78757
#
# Compressibility (1/GPa) = 0.03043151
#
# Stress axis : x y z
#
# Youngs Moduli (GPa) = 83.49010 114.91553 42.45327
#
# Poissons Ratio (x) = 0.16570 -0.00111
# Poissons Ratio (y) = 0.12038 0.23289
# Poissons Ratio (z) = -0.00218 0.63041
#
# Static dielectric constant tensor:
#      x y z
#    x 1.726040 0.000000 0.000000 
#    y 0.000000 1.697720 0.000000 
#    z 0.000000 0.000000 1.789590 
# 
# From -- ./inp_files/20639.got.cif
#   From: 2010.05.17/outbox.cif.g08.bks.cpg/sg60_11_cif.got.tgz:20639.got - 2010.06.03 14:59:27.
