data_PCOD9455524
_publ_section_title
;
Structure prediction by ZEFSAII (Michael W. Deem and Ramdas Pophale) SiO2 
 PCOD9455524
Probable space group: P B C N
;
_chemical_formula_sum "Si O2"
_cell_formula_units_Z 60
_cell_length_a 17.845522
_cell_length_b 12.293369
_cell_length_c 14.751786
_cell_angle_alpha 90.000000
_cell_angle_beta 90.000000
_cell_angle_gamma 90.000000
_cell_volume 3236.270223
_symmetry_space_group_name_H-M "P B C N"
_symmetry_group_IT_number 60
_symmetry_cell_setting 'orthorhombic'
loop_
_space_group_symop_operation_xyz
x,y,z
1/2-x,1/2-y,1/2+z
1/2+x,1/2-y,-z
-x,y,1/2-z
-x,-y,-z
1/2+x,1/2+y,1/2-z
1/2-x,1/2+y,z
x,-y,1/2+z
loop_
_atom_site_type_symbol
_atom_site_label
_atom_site_fract_x
_atom_site_fract_y
_atom_site_fract_z
Si Si1 0.957562 0.925938 0.427478
Si Si2 0.317428 0.688615 0.498485
Si Si3 0.500000 0.557941 0.250000
Si Si4 0.837459 0.586208 0.058801
Si Si5 0.910606 0.505980 0.741448
Si Si6 0.422263 0.755871 0.334866
Si Si7 0.987062 0.300044 0.503766
Si Si8 0.363854 0.097601 0.073451
O O1 0.871855 0.904351 0.459246
O O2 0.997211 0.808304 0.437744
O O3 0.000000 0.000000 0.500000
O O4 0.969463 0.982519 0.330937
O O5 0.238327 0.651225 0.460439
O O6 0.359983 0.736523 0.410822
O O7 0.321548 0.786562 0.571857
O O8 0.436563 0.643172 0.283415
O O9 0.868123 0.553544 0.158151
O O10 0.905682 0.653285 0.015849
O O11 0.826768 0.476193 0.002481
O O12 0.907286 0.635875 0.722594
O O13 0.870503 0.465017 0.832362
O O14 0.000000 0.478750 0.750000
O O15 0.495166 0.777157 0.398491
O O16 0.050748 0.382464 0.539218
#
# Coordination Sequence:
#
# PCOD9455524 Si02
#       8
#     8   8   4   8   8   8   8   8
#     4  10  21  40  62  91 124 169 219 266 314 398
#     4  10  24  46  58  90 143 170 214 269 335 402
#     4  12  20  38  72  94 122 172 220 272 324 388
#     4  12  23  41  67  92 133 180 205 283 342 376
#     4  12  21  38  73 101 122 162 227 281 326 381
#     4  10  21  40  65  95 125 165 222 266 316 401
#     4  10  20  39  66  90 124 167 223 267 317 385
#     4  10  22  42  64  94 131 166 223 272 321 399
#
# _framework density 18.539860000000001
#
# number of rings (size 3 to 8) (size 9 to 14) (size 15 to 20)
#    0.000    1.600    7.333    1.200    0.000    3.200 
#    4.800    0.000    0.000    0.000    0.000    0.000 
#    0.000    0.000    0.000    0.000    0.000    0.000 
#
# Total GULP energy -334490.736205 kJ/mol
# GULP energy per Si atom -5574.845603 kJ/mol
# Density = 1.849766 g / cm^3
# Si number density = 18.539860 Si / 1000 Ang^3
#
#
#
# Elastic Constant Matrix: (Units=GPa)
#
#
# Indices 1 2 3 4 5 6 
#
# 1 92.2371 37.4627 24.0312 0.0000 0.0000 0.0000
# 2 37.4627 87.6036 48.7958 0.0000 0.0000 0.0000
# 3 24.0312 48.7958 119.5809 0.0000 0.0000 0.0000
# 4 0.0000 0.0000 0.0000 38.7980 0.0000 0.0000
# 5 0.0000 0.0000 0.0000 0.0000 17.2265 0.0000
# 6 0.0000 0.0000 0.0000 0.0000 0.0000 19.7759
#
#
#
# Elastic Compliance Matrix: (Units=1/GPa)
#
#
# Indices 1 2 3 4 5 6 
#
# 1 0.013139 -0.005368 -0.000450 0.000000 0.000000 0.000000
# 2 -0.005368 0.016966 -0.005844 0.000000 0.000000 0.000000
# 3 -0.000450 -0.005844 0.010838 0.000000 0.000000 0.000000
# 4 0.000000 0.000000 0.000000 0.025775 0.000000 0.000000
# 5 0.000000 0.000000 0.000000 0.000000 0.058050 0.000000
# 6 0.000000 0.000000 0.000000 0.000000 0.000000 0.050567
#
#
# Mechanical properties :
#
#
# Convention : Reuss Voigt Hill
#
# Bulk Modulus (GPa) = 56.75986 57.77789 57.26888
# Shear Modulus (GPa) = 24.44607 27.76887 26.10747
#
# Velocity S-wave (km/s) = 3.63515 3.87433 3.75664
# Velocity P-wave (km/s) = 6.94986 7.15861 7.05501
#
# Compressibility (1/GPa) = 0.01761808
#
# Stress axis : x y z
#
# Youngs Moduli (GPa) = 76.10821 58.94141 92.27003
#
# Poissons Ratio (x) = 0.31641 0.04152
# Poissons Ratio (y) = 0.40856 0.53925
# Poissons Ratio (z) = 0.03424 0.34447
#
# Static dielectric constant tensor:
#      x y z
#    x 1.675090 0.000000 0.000000 
#    y 0.000000 1.706010 0.000000 
#    z 0.000000 0.000000 1.667570 
# 
# From -- ./inp_files/17462.got.cif
#   From: 2010.05.17/outbox.cif.g08.bks.cpg/sg60_9_cif.got.tgz:17462.got - 2010.06.03 14:59:27.
