data_PCOD9455892
_publ_section_title
;
Structure prediction by ZEFSAII (Michael W. Deem and Ramdas Pophale) SiO2 
 PCOD9455892
Probable space group: P B C N
;
_chemical_formula_sum "Si O2"
_cell_formula_units_Z 64
_cell_length_a 7.157987
_cell_length_b 24.099506
_cell_length_c 14.909824
_cell_angle_alpha 90.000000
_cell_angle_beta 90.000000
_cell_angle_gamma 90.000000
_cell_volume 2572.003544
_symmetry_space_group_name_H-M "P B C N"
_symmetry_group_IT_number 60
_symmetry_cell_setting 'orthorhombic'
loop_
_space_group_symop_operation_xyz
x,y,z
1/2-x,1/2-y,1/2+z
1/2+x,1/2-y,-z
-x,y,1/2-z
-x,-y,-z
1/2+x,1/2+y,1/2-z
1/2-x,1/2+y,z
x,-y,1/2+z
loop_
_atom_site_type_symbol
_atom_site_label
_atom_site_fract_x
_atom_site_fract_y
_atom_site_fract_z
Si Si1 0.172028 0.008598 0.632441
Si Si2 0.781760 0.143006 0.578654
Si Si3 0.566885 0.817997 0.517105
Si Si4 0.641243 0.738308 0.359779
Si Si5 0.426731 0.610849 0.101121
Si Si6 0.294341 0.062157 0.444239
Si Si7 0.769921 0.534322 0.673752
Si Si8 0.198773 0.245587 0.821115
O O1 0.224825 0.031008 0.534309
O O2 0.279527 0.032181 0.718996
O O3 0.951476 0.023231 0.649420
O O4 0.193537 0.941613 0.631571
O O5 0.645365 0.180115 0.516821
O O6 0.918535 0.115976 0.506806
O O7 0.683815 0.094368 0.633950
O O8 0.871771 0.185881 0.646496
O O9 0.674825 0.779542 0.444562
O O10 0.601010 0.883648 0.521835
O O11 0.614522 0.791701 0.612921
O O12 0.624917 0.671279 0.365005
O O13 0.799551 0.748115 0.285303
O O14 0.425850 0.753552 0.335918
O O15 0.636245 0.591092 0.118549
O O16 0.376564 0.013918 0.381104
#
# Coordination Sequence:
#
# PCOD9455892 Si02
#       8
#     8   8   8   8   8   8   8   8
#     4  10  21  36  64  95 115 159 220 254 306 368
#     4  11  22  41  62  85 133 161 200 261 326 370
#     4  11  24  38  63  94 124 165 205 252 325 388
#     4  10  22  39  65  91 121 162 215 258 306 369
#     4  11  19  39  67  87 120 163 206 266 305 361
#     4  11  21  39  63  90 120 162 216 252 304 379
#     4  10  21  38  61  93 123 162 207 265 309 365
#     4  10  22  40  62  90 120 166 211 253 307 378
#
# _framework density 24.883324000000002
#
# number of rings (size 3 to 8) (size 9 to 14) (size 15 to 20)
#    0.000    1.500    5.000    0.750    3.500    1.500 
#    0.000    0.625    0.000    0.000    0.000    0.000 
#    0.000    0.000    0.000    0.000    0.000    0.000 
#
# Total GULP energy -357424.774556 kJ/mol
# GULP energy per Si atom -5584.762102 kJ/mol
# Density = 2.482669 g / cm^3
# Si number density = 24.883324 Si / 1000 Ang^3
#
#
#
# Elastic Constant Matrix: (Units=GPa)
#
#
# Indices 1 2 3 4 5 6 
#
# 1 32.9606 10.6391 32.6269 0.0000 0.0000 0.0000
# 2 10.6391 111.1470 20.8085 0.0000 0.0000 0.0000
# 3 32.6269 20.8085 88.3876 0.0000 0.0000 0.0000
# 4 0.0000 0.0000 0.0000 25.0441 0.0000 0.0000
# 5 0.0000 0.0000 0.0000 0.0000 30.9154 0.0000
# 6 0.0000 0.0000 0.0000 0.0000 0.0000 30.7851
#
#
#
# Elastic Compliance Matrix: (Units=1/GPa)
#
#
# Indices 1 2 3 4 5 6 
#
# 1 0.047997 -0.001336 -0.017403 0.000000 0.000000 0.000000
# 2 -0.001336 0.009449 -0.001731 0.000000 0.000000 0.000000
# 3 -0.017403 -0.001731 0.018145 0.000000 0.000000 0.000000
# 4 0.000000 0.000000 0.000000 0.039930 0.000000 0.000000
# 5 0.000000 0.000000 0.000000 0.000000 0.032346 0.000000
# 6 0.000000 0.000000 0.000000 0.000000 0.000000 0.032483
#
#
# Mechanical properties :
#
#
# Convention : Reuss Voigt Hill
#
# Bulk Modulus (GPa) = 28.85920 40.07157 34.46538
# Shear Modulus (GPa) = 21.47380 28.57698 25.02539
#
# Velocity S-wave (km/s) = 2.94084 3.39254 3.17473
# Velocity P-wave (km/s) = 4.81190 5.61111 5.22680
#
# Compressibility (1/GPa) = 0.03465100
#
# Stress axis : x y z
#
# Youngs Moduli (GPa) = 20.83453 105.82988 55.11043
#
# Poissons Ratio (x) = 0.14141 0.95908
# Poissons Ratio (y) = 0.02784 0.09541
# Poissons Ratio (z) = 0.36258 0.18322
#
# Static dielectric constant tensor:
#      x y z
#    x 2.131980 0.000000 0.000000 
#    y 0.000000 1.928020 0.000000 
#    z 0.000000 0.000000 2.048800 
# 
# From -- ./inp_files/15423.got.cif
#   From: 2010.05.17/outbox.cif.g08.bks.cpg/sg60_8_cif.got.tgz:15423.got - 2010.06.03 14:59:27.
