data_PCOD9455947
_publ_section_title
;
Structure prediction by ZEFSAII (Michael W. Deem and Ramdas Pophale) SiO2 
 PCOD9455947
Probable space group: P B C N
;
_chemical_formula_sum "Si O2"
_cell_formula_units_Z 48
_cell_length_a 8.770739
_cell_length_b 26.159194
_cell_length_c 9.452811
_cell_angle_alpha 90.000000
_cell_angle_beta 90.000000
_cell_angle_gamma 90.000000
_cell_volume 2168.810069
_symmetry_space_group_name_H-M "P B C N"
_symmetry_group_IT_number 60
_symmetry_cell_setting 'orthorhombic'
loop_
_space_group_symop_operation_xyz
x,y,z
1/2-x,1/2-y,1/2+z
1/2+x,1/2-y,-z
-x,y,1/2-z
-x,-y,-z
1/2+x,1/2+y,1/2-z
1/2-x,1/2+y,z
x,-y,1/2+z
loop_
_atom_site_type_symbol
_atom_site_label
_atom_site_fract_x
_atom_site_fract_y
_atom_site_fract_z
Si Si1 0.192919 0.988141 0.370021
Si Si2 0.456634 0.587367 0.505871
Si Si3 0.274599 0.642511 0.155306
Si Si4 0.962983 0.276905 0.918680
Si Si5 0.285444 0.679729 0.477273
Si Si6 0.636452 0.968244 0.859401
O O1 0.235421 0.994826 0.207764
O O2 0.120946 0.042748 0.413466
O O3 0.073605 0.943180 0.395459
O O4 0.338467 0.977815 0.473942
O O5 0.569961 0.623491 0.414746
O O6 0.328507 0.627066 0.558012
O O7 0.176698 0.683318 0.067563
O O8 0.294689 0.665659 0.310999
O O9 0.175351 0.590999 0.164295
O O10 0.000000 0.272499 0.750000
O O11 0.113976 0.298709 0.994849
O O12 0.904018 0.223382 0.978456
O O13 0.500000 0.977340 0.750000
#
# Coordination Sequence:
#
# PCOD9455947 Si02
#       6
#     8   8   8   8   8   8
#     4  10  23  37  63  95 127 171 222 261 321 393
#     4  10  21  37  61  94 124 165 211 265 309 386
#     4  10  21  38  68  92 121 167 221 258 324 388
#     4  10  23  40  62  99 121 163 212 272 319 393
#     4  11  20  38  63  87 127 160 211 261 322 379
#     4  11  21  40  63  96 130 171 217 271 324 384
#
# _framework density 22.131951999999998
#
# number of rings (size 3 to 8) (size 9 to 14) (size 15 to 20)
#    0.000    1.667    1.667    3.500    2.333    3.333 
#    3.000    0.000    0.000    0.000    0.000    0.000 
#    0.000    0.000    0.000    0.000    0.000    0.000 
#
# Total GULP energy -267943.090153 kJ/mol
# GULP energy per Si atom -5582.147712 kJ/mol
# Density = 2.208158 g / cm^3
# Si number density = 22.131952 Si / 1000 Ang^3
#
#
#
# Elastic Constant Matrix: (Units=GPa)
#
#
# Indices 1 2 3 4 5 6 
#
# 1 74.0326 53.0412 3.5576 0.0000 0.0000 0.0000
# 2 53.0412 148.5357 27.8176 0.0000 0.0000 0.0000
# 3 3.5576 27.8176 56.2332 0.0000 0.0000 0.0000
# 4 0.0000 0.0000 0.0000 5.3284 0.0000 0.0000
# 5 0.0000 0.0000 0.0000 0.0000 26.6351 0.0000
# 6 0.0000 0.0000 0.0000 0.0000 0.0000 24.9043
#
#
#
# Elastic Compliance Matrix: (Units=1/GPa)
#
#
# Indices 1 2 3 4 5 6 
#
# 1 0.018418 -0.007008 0.002301 0.000000 0.000000 0.000000
# 2 -0.007008 0.010086 -0.004546 0.000000 0.000000 0.000000
# 3 0.002301 -0.004546 0.019886 0.000000 0.000000 0.000000
# 4 0.000000 0.000000 0.000000 0.187675 0.000000 0.000000
# 5 0.000000 0.000000 0.000000 0.000000 0.037544 0.000000
# 6 0.000000 0.000000 0.000000 0.000000 0.000000 0.040154
#
#
# Mechanical properties :
#
#
# Convention : Reuss Voigt Hill
#
# Bulk Modulus (GPa) = 33.46121 49.73714 41.59918
# Shear Modulus (GPa) = 14.61002 24.33256 19.47129
#
# Velocity S-wave (km/s) = 2.57209 3.31936 2.96933
# Velocity P-wave (km/s) = 4.89619 6.10022 5.53106
#
# Compressibility (1/GPa) = 0.02988535
#
# Stress axis : x y z
#
# Youngs Moduli (GPa) = 54.29512 99.14467 50.28571
#
# Poissons Ratio (x) = 0.69480 -0.11573
# Poissons Ratio (y) = 0.38050 0.22861
# Poissons Ratio (z) = -0.12496 0.45073
#
# Static dielectric constant tensor:
#      x y z
#    x 1.951330 0.000000 0.000000 
#    y 0.000000 1.783250 0.000000 
#    z 0.000000 0.000000 1.810160 
# 
# From -- ./inp_files/10074.got.cif
#   From: 2010.05.17/outbox.cif.g08.bks.cpg/sg60_6_cif.got.tgz:10074.got - 2010.06.03 14:59:27.
