data_PCOD9455813
_publ_section_title
;
Structure prediction by ZEFSAII (Michael W. Deem and Ramdas Pophale) SiO2 
 PCOD9455813
Probable space group: P B C N
;
_chemical_formula_sum "Si O2"
_cell_formula_units_Z 64
_cell_length_a 19.794925
_cell_length_b 9.157186
_cell_length_c 17.282041
_cell_angle_alpha 90.000000
_cell_angle_beta 90.000000
_cell_angle_gamma 90.000000
_cell_volume 3132.643162
_symmetry_space_group_name_H-M "P B C N"
_symmetry_group_IT_number 60
_symmetry_cell_setting 'orthorhombic'
loop_
_space_group_symop_operation_xyz
x,y,z
1/2-x,1/2-y,1/2+z
1/2+x,1/2-y,-z
-x,y,1/2-z
-x,-y,-z
1/2+x,1/2+y,1/2-z
1/2-x,1/2+y,z
x,-y,1/2+z
loop_
_atom_site_type_symbol
_atom_site_label
_atom_site_fract_x
_atom_site_fract_y
_atom_site_fract_z
Si Si1 0.766251 0.255368 0.000000
Si Si2 0.705969 0.100316 0.345166
Si Si3 0.663828 0.781468 0.692620
Si Si4 0.336172 0.781468 0.192620
Si Si5 0.422496 0.544779 0.839632
Si Si6 0.705969 0.100316 0.654834
Si Si7 0.845199 0.977015 0.000000
Si Si8 0.077504 0.955221 0.660368
O O1 0.801924 0.323876 0.073962
O O2 0.689223 0.315503 1.000000
O O3 0.780674 0.084547 0.000000
O O4 0.801924 0.323876 0.926038
O O5 0.657750 0.172334 0.281555
O O6 0.780878 0.151616 0.317279
O O7 0.694510 0.927375 0.345640
O O8 0.594705 0.717688 0.660745
O O9 0.719122 0.651616 0.682721
O O10 0.694510 0.927375 0.654360
O O11 0.342250 0.827666 0.281555
O O12 0.405295 0.717688 0.160745
O O13 0.384967 0.495140 0.919466
O O14 0.500000 0.500000 0.846683
O O15 0.402194 0.500000 0.750000
O O16 0.884967 0.004860 0.919466
#
# Coordination Sequence:
#
# PCOD9455813 Si02
#       8
#     8   8   8   8   8   8   8   8
#     4  12  22  36  59 100 126 154 193 269 333 375
#     4  10  21  34  60  96 128 154 196 271 323 379
#     4  10  21  37  60  93 121 165 206 253 330 370
#     4  10  21  37  60  93 121 165 206 253 330 370
#     4  11  25  43  65  88 126 178 221 255 298 382
#     4  10  21  34  60  96 128 154 196 271 323 379
#     4  12  25  40  65 100 128 159 216 260 327 383
#     4  11  25  43  65  88 126 178 221 255 298 382
#
# _framework density 20.430033000000002
#
# number of rings (size 3 to 8) (size 9 to 14) (size 15 to 20)
#    0.000    1.250    2.500    3.375    7.000    0.000 
#    0.000    0.000    0.000   27.000    0.000    0.000 
#    0.000    0.000    0.000    0.000    0.000    0.000 
#
# Total GULP energy -356625.560877 kJ/mol
# GULP energy per Si atom -5572.274389 kJ/mol
# Density = 2.038353 g / cm^3
# Si number density = 20.430033 Si / 1000 Ang^3
#
#
#
# Elastic Constant Matrix: (Units=GPa)
#
#
# Indices 1 2 3 4 5 6 
#
# 1 88.9639 61.9209 36.0117 0.0000 0.0000 0.0000
# 2 61.9209 114.6771 22.4694 0.0000 0.0000 0.0000
# 3 36.0117 22.4694 158.5443 0.0000 0.0000 0.0000
# 4 0.0000 0.0000 0.0000 18.0107 0.0000 0.0000
# 5 0.0000 0.0000 0.0000 0.0000 28.6361 0.0000
# 6 0.0000 0.0000 0.0000 0.0000 0.0000 19.9256
#
#
#
# Elastic Compliance Matrix: (Units=1/GPa)
#
#
# Indices 1 2 3 4 5 6 
#
# 1 0.019294 -0.009832 -0.002989 0.000000 0.000000 0.000000
# 2 -0.009832 0.013980 0.000252 0.000000 0.000000 0.000000
# 3 -0.002989 0.000252 0.006951 0.000000 0.000000 0.000000
# 4 0.000000 0.000000 0.000000 0.055523 0.000000 0.000000
# 5 0.000000 0.000000 0.000000 0.000000 0.034921 0.000000
# 6 0.000000 0.000000 0.000000 0.000000 0.000000 0.050187
#
#
# Mechanical properties :
#
#
# Convention : Reuss Voigt Hill
#
# Bulk Modulus (GPa) = 66.28709 66.99881 66.64295
# Shear Modulus (GPa) = 23.69430 29.43339 26.56384
#
# Velocity S-wave (km/s) = 3.40925 3.79976 3.60979
# Velocity P-wave (km/s) = 6.92919 7.21917 7.07566
#
# Compressibility (1/GPa) = 0.01508589
#
# Stress axis : x y z
#
# Youngs Moduli (GPa) = 51.82998 71.53204 143.87303
#
# Poissons Ratio (x) = 0.70332 0.43003
# Poissons Ratio (y) = 0.50960 -0.03626
# Poissons Ratio (z) = 0.15492 -0.01803
#
# Static dielectric constant tensor:
#      x y z
#    x 1.725120 0.000000 0.000000 
#    y 0.000000 1.768980 0.000000 
#    z 0.000000 0.000000 1.819760 
# 
# From -- ./inp_files/21053.got.cif
#   From: 2010.05.17/outbox.cif.g08.bks.cpg/sg60_11_cif.got.tgz:21053.got - 2010.06.03 14:59:27.
