data_PCOD9455670
_publ_section_title
;
Structure prediction by ZEFSAII (Michael W. Deem and Ramdas Pophale) SiO2 
 PCOD9455670
Probable space group: P B C N
;
_chemical_formula_sum "Si O2"
_cell_formula_units_Z 60
_cell_length_a 8.533566
_cell_length_b 17.868337
_cell_length_c 18.037776
_cell_angle_alpha 90.000000
_cell_angle_beta 90.000000
_cell_angle_gamma 90.000000
_cell_volume 2750.411504
_symmetry_space_group_name_H-M "P B C N"
_symmetry_group_IT_number 60
_symmetry_cell_setting 'orthorhombic'
loop_
_space_group_symop_operation_xyz
x,y,z
1/2-x,1/2-y,1/2+z
1/2+x,1/2-y,-z
-x,y,1/2-z
-x,-y,-z
1/2+x,1/2+y,1/2-z
1/2-x,1/2+y,z
x,-y,1/2+z
loop_
_atom_site_type_symbol
_atom_site_label
_atom_site_fract_x
_atom_site_fract_y
_atom_site_fract_z
Si Si1 0.966675 0.653852 0.018869
Si Si2 0.153835 0.567993 0.708493
Si Si3 0.500000 0.389163 0.250000
Si Si4 0.129974 0.076668 0.481108
Si Si5 0.282152 0.039340 0.078653
Si Si6 0.529002 0.616196 0.333764
Si Si7 0.403862 0.782437 0.131722
Si Si8 0.543146 0.301166 0.403011
O O1 0.801759 0.613077 0.018808
O O2 0.091698 0.590927 0.039912
O O3 0.956667 0.725767 0.072749
O O4 0.001942 0.686496 0.937503
O O5 0.331917 0.566669 0.742107
O O6 0.157573 0.529621 0.627775
O O7 0.116982 0.654836 0.693639
O O8 0.000000 0.536354 0.750000
O O9 0.494969 0.338631 0.324851
O O10 0.033002 0.134520 0.533536
O O11 0.079022 0.077827 0.395734
O O12 0.159304 0.996837 0.520685
O O13 0.199122 0.090993 0.139445
O O14 0.500000 0.594249 0.250000
O O15 0.523184 0.705378 0.341789
O O16 0.224877 0.774533 0.102618
#
# Coordination Sequence:
#
# PCOD9455670 Si02
#       8
#     8   8   4   8   8   8   8   8
#     4  11  22  42  74  98 133 183 240 296 348 422
#     4  11  25  46  70 105 146 192 240 294 362 433
#     4  10  22  46  74 100 148 190 240 292 360 428
#     4  11  24  45  69 101 139 186 238 285 359 440
#     4  12  25  46  67  99 147 185 232 296 359 436
#     4  12  27  44  70 101 139 182 233 299 359 418
#     4  10  21  45  70  98 135 178 238 295 346 429
#     4  10  20  41  71 102 136 183 238 291 344 424
#
# _framework density 21.814917999999999
#
# number of rings (size 3 to 8) (size 9 to 14) (size 15 to 20)
#    0.000    1.067    6.667    1.200    0.933    4.267 
#    3.600    0.000    0.000    0.000    0.000    0.000 
#    0.000    0.000    0.000    0.000    0.000    0.000 
#
# Total GULP energy -335075.986058 kJ/mol
# GULP energy per Si atom -5584.599768 kJ/mol
# Density = 2.176527 g / cm^3
# Si number density = 21.814918 Si / 1000 Ang^3
#
#
#
# Elastic Constant Matrix: (Units=GPa)
#
#
# Indices 1 2 3 4 5 6 
#
# 1 66.0041 32.4228 57.1197 0.0000 0.0000 0.0000
# 2 32.4228 105.0517 44.5509 0.0000 0.0000 0.0000
# 3 57.1197 44.5509 149.2856 0.0000 0.0000 0.0000
# 4 0.0000 0.0000 0.0000 17.5782 0.0000 0.0000
# 5 0.0000 0.0000 0.0000 0.0000 38.0919 0.0000
# 6 0.0000 0.0000 0.0000 0.0000 0.0000 20.5000
#
#
#
# Elastic Compliance Matrix: (Units=1/GPa)
#
#
# Indices 1 2 3 4 5 6 
#
# 1 0.024055 -0.004031 -0.008001 0.000000 0.000000 0.000000
# 2 -0.004031 0.011574 -0.001912 0.000000 0.000000 0.000000
# 3 -0.008001 -0.001912 0.010330 0.000000 0.000000 0.000000
# 4 0.000000 0.000000 0.000000 0.056889 0.000000 0.000000
# 5 0.000000 0.000000 0.000000 0.000000 0.026252 0.000000
# 6 0.000000 0.000000 0.000000 0.000000 0.000000 0.048780
#
#
# Mechanical properties :
#
#
# Convention : Reuss Voigt Hill
#
# Bulk Modulus (GPa) = 55.33465 65.39202 60.36334
# Shear Modulus (GPa) = 23.60818 27.65057 25.62938
#
# Velocity S-wave (km/s) = 3.29326 3.56407 3.43134
# Velocity P-wave (km/s) = 6.31516 6.85403 6.59011
#
# Compressibility (1/GPa) = 0.01807186
#
# Stress axis : x y z
#
# Youngs Moduli (GPa) = 41.57213 86.40083 96.80267
#
# Poissons Ratio (x) = 0.34829 0.77450
# Poissons Ratio (y) = 0.16758 0.18505
# Poissons Ratio (z) = 0.33261 0.16516
#
# Static dielectric constant tensor:
#      x y z
#    x 1.854750 0.000000 0.000000 
#    y 0.000000 1.823140 0.000000 
#    z 0.000000 0.000000 1.775700 
# 
# From -- ./inp_files/19565.got.cif
#   From: 2010.05.17/outbox.cif.g08.bks.cpg/sg60_10_cif.got.tgz:19565.got - 2010.06.03 14:59:27.
