data_PCOD9455037
_publ_section_title
;
Structure prediction by ZEFSAII (Michael W. Deem and Ramdas Pophale) SiO2 
 PCOD9455037
Probable space group: P B C N
;
_chemical_formula_sum "Si O2"
_cell_formula_units_Z 48
_cell_length_a 16.154172
_cell_length_b 16.160406
_cell_length_c 8.459093
_cell_angle_alpha 90.000000
_cell_angle_beta 90.000000
_cell_angle_gamma 90.000000
_cell_volume 2208.313715
_symmetry_space_group_name_H-M "P B C N"
_symmetry_group_IT_number 60
_symmetry_cell_setting 'orthorhombic'
loop_
_space_group_symop_operation_xyz
x,y,z
1/2-x,1/2-y,1/2+z
1/2+x,1/2-y,-z
-x,y,1/2-z
-x,-y,-z
1/2+x,1/2+y,1/2-z
1/2-x,1/2+y,z
x,-y,1/2+z
loop_
_atom_site_type_symbol
_atom_site_label
_atom_site_fract_x
_atom_site_fract_y
_atom_site_fract_z
Si Si1 0.640339 0.883548 0.917322
Si Si2 0.345160 0.952866 0.931307
Si Si3 0.762478 0.707957 0.649992
Si Si4 0.424146 0.811496 0.140184
Si Si5 0.967472 0.214728 0.921578
Si Si6 0.302363 0.363016 0.035002
O O1 0.650841 0.927851 0.750645
O O2 0.579356 0.804670 0.904709
O O3 0.723989 0.846406 0.993482
O O4 0.618170 0.956477 0.038798
O O5 0.397601 0.886913 0.030382
O O6 0.250640 0.945181 0.000913
O O7 0.848974 0.710121 0.744827
O O8 0.704727 0.668190 0.782604
O O9 0.751588 0.798791 0.578489
O O10 0.500000 0.835167 0.250000
O O11 0.455450 0.734860 0.034641
O O12 0.899691 0.151423 0.993868
O O13 0.000000 0.189384 0.750000
#
# Coordination Sequence:
#
# PCOD9455037 Si02
#       6
#     8   8   8   8   8   8
#     4  11  22  38  55  82 117 152 197 227 294 336
#     4  11  23  36  56  81 116 152 193 238 280 348
#     4  10  21  35  56  79 113 151 191 238 277 346
#     4  11  20  35  53  81 115 149 188 224 283 342
#     4  11  22  38  56  86 120 156 187 235 288 349
#     4  10  20  35  55  80 116 149 196 234 280 336
#
# _framework density 21.736042999999999
#
# number of rings (size 3 to 8) (size 9 to 14) (size 15 to 20)
#    0.000    1.333    5.000    4.000    2.333    1.333 
#    0.000    0.000    0.000    0.000    0.000    4.667 
#    0.000    0.167    0.000    0.000    0.000    0.000 
#
# Total GULP energy -267976.907280 kJ/mol
# GULP energy per Si atom -5582.852235 kJ/mol
# Density = 2.168657 g / cm^3
# Si number density = 21.736043 Si / 1000 Ang^3
#
#
#
# Elastic Constant Matrix: (Units=GPa)
#
#
# Indices 1 2 3 4 5 6 
#
# 1 50.3946 5.8414 -6.9563 0.0000 0.0000 0.0000
# 2 5.8414 15.7325 10.2196 0.0000 0.0000 0.0000
# 3 -6.9563 10.2196 92.1492 0.0000 0.0000 0.0000
# 4 0.0000 0.0000 0.0000 29.7236 0.0000 0.0000
# 5 0.0000 0.0000 0.0000 0.0000 30.9028 0.0000
# 6 0.0000 0.0000 0.0000 0.0000 0.0000 24.0869
#
#
#
# Elastic Compliance Matrix: (Units=1/GPa)
#
#
# Indices 1 2 3 4 5 6 
#
# 1 0.021334 -0.009663 0.002682 0.000000 0.000000 0.000000
# 2 -0.009663 0.072874 -0.008811 0.000000 0.000000 0.000000
# 3 0.002682 -0.008811 0.012032 0.000000 0.000000 0.000000
# 4 0.000000 0.000000 0.000000 0.033643 0.000000 0.000000
# 5 0.000000 0.000000 0.000000 0.000000 0.032359 0.000000
# 6 0.000000 0.000000 0.000000 0.000000 0.000000 0.041516
#
#
# Mechanical properties :
#
#
# Convention : Reuss Voigt Hill
#
# Bulk Modulus (GPa) = 13.39505 19.60952 16.50228
# Shear Modulus (GPa) = 18.50282 26.88745 22.69514
#
# Velocity S-wave (km/s) = 2.92079 3.52091 3.23480
# Velocity P-wave (km/s) = 4.18935 5.05671 4.64333
#
# Compressibility (1/GPa) = 0.07465445
#
# Stress axis : x y z
#
# Youngs Moduli (GPa) = 46.87408 13.72223 83.11410
#
# Poissons Ratio (x) = 0.13260 -0.22293
# Poissons Ratio (y) = 0.45296 0.73235
# Poissons Ratio (z) = -0.12572 0.12091
#
# Static dielectric constant tensor:
#      x y z
#    x 1.872410 0.000000 0.000000 
#    y 0.000000 1.824030 0.000000 
#    z 0.000000 0.000000 1.845390 
# 
# From -- ./inp_files/6818.got.cif
#   From: 2010.05.17/outbox.cif.g08.bks.cpg/sg60_4_cif.got.tgz:6818.got - 2010.06.03 14:59:27.
