data_PCOD9455504
_publ_section_title
;
Structure prediction by ZEFSAII (Michael W. Deem and Ramdas Pophale) SiO2 
 PCOD9455504
Probable space group: P B C N
;
_chemical_formula_sum "Si O2"
_cell_formula_units_Z 48
_cell_length_a 9.174685
_cell_length_b 20.559126
_cell_length_c 14.130235
_cell_angle_alpha 90.000000
_cell_angle_beta 90.000000
_cell_angle_gamma 90.000000
_cell_volume 2665.294451
_symmetry_space_group_name_H-M "P B C N"
_symmetry_group_IT_number 60
_symmetry_cell_setting 'orthorhombic'
loop_
_space_group_symop_operation_xyz
x,y,z
1/2-x,1/2-y,1/2+z
1/2+x,1/2-y,-z
-x,y,1/2-z
-x,-y,-z
1/2+x,1/2+y,1/2-z
1/2-x,1/2+y,z
x,-y,1/2+z
loop_
_atom_site_type_symbol
_atom_site_label
_atom_site_fract_x
_atom_site_fract_y
_atom_site_fract_z
Si Si1 0.680405 0.182944 0.546495
Si Si2 0.827226 0.994245 0.746069
Si Si3 0.664416 0.944555 0.923027
Si Si4 0.832209 0.306484 0.455624
Si Si5 0.327077 0.936456 0.932864
Si Si6 0.176090 0.635280 0.747194
O O1 0.704268 0.115348 0.490936
O O2 0.764278 0.240776 0.495205
O O3 0.507629 0.197118 0.543346
O O4 0.719816 0.172185 0.656526
O O5 0.750660 0.064771 0.753249
O O6 0.000000 0.001418 0.750000
O O7 0.765941 0.951455 0.832505
O O8 0.777945 0.960389 0.649201
O O9 0.494266 0.936157 0.895966
O O10 0.675695 0.010949 0.982790
O O11 0.790364 0.366683 0.523443
O O12 0.788360 0.325422 0.348397
O O13 0.000000 0.625736 0.750000
#
# Coordination Sequence:
#
# PCOD9455504 Si02
#       6
#     8   8   8   8   8   8
#     4  10  22  39  63  89 119 157 198 249 298 354
#     4  12  24  35  58  95 127 153 193 259 308 342
#     4  10  20  39  64  86 115 159 205 241 287 361
#     4  10  22  39  63  89 119 157 198 249 298 354
#     4  10  20  39  64  86 115 159 205 241 287 361
#     4  10  20  41  64  83 113 163 209 237 294 370
#
# _framework density 18.009267000000001
#
# number of rings (size 3 to 8) (size 9 to 14) (size 15 to 20)
#    0.000    1.667    3.333    1.500    0.000    4.667 
#    0.000    3.333    0.000    0.000    0.000    0.000 
#    0.000    0.000    0.000    0.000    0.000    0.000 
#
# Total GULP energy -268112.995664 kJ/mol
# GULP energy per Si atom -5585.687410 kJ/mol
# Density = 1.796828 g / cm^3
# Si number density = 18.009267 Si / 1000 Ang^3
#
#
#
# Elastic Constant Matrix: (Units=GPa)
#
#
# Indices 1 2 3 4 5 6 
#
# 1 41.8288 19.0924 37.8659 0.0000 0.0000 0.0000
# 2 19.0924 70.0879 10.4149 0.0000 0.0000 0.0000
# 3 37.8659 10.4149 89.8433 0.0000 0.0000 0.0000
# 4 0.0000 0.0000 0.0000 22.3512 0.0000 0.0000
# 5 0.0000 0.0000 0.0000 0.0000 11.8502 0.0000
# 6 0.0000 0.0000 0.0000 0.0000 0.0000 28.2394
#
#
#
# Elastic Compliance Matrix: (Units=1/GPa)
#
#
# Indices 1 2 3 4 5 6 
#
# 1 0.043992 -0.009390 -0.017453 0.000000 0.000000 0.000000
# 2 -0.009390 0.016522 0.002042 0.000000 0.000000 0.000000
# 3 -0.017453 0.002042 0.018249 0.000000 0.000000 0.000000
# 4 0.000000 0.000000 0.000000 0.044740 0.000000 0.000000
# 5 0.000000 0.000000 0.000000 0.000000 0.084387 0.000000
# 6 0.000000 0.000000 0.000000 0.000000 0.000000 0.035412
#
#
# Mechanical properties :
#
#
# Convention : Reuss Voigt Hill
#
# Bulk Modulus (GPa) = 34.29032 37.38959 35.83995
# Shear Modulus (GPa) = 16.52208 21.44727 18.98468
#
# Velocity S-wave (km/s) = 3.03218 3.45469 3.25031
# Velocity P-wave (km/s) = 5.59826 6.05967 5.83353
#
# Compressibility (1/GPa) = 0.02916275
#
# Stress axis : x y z
#
# Youngs Moduli (GPa) = 22.73115 60.52426 54.79606
#
# Poissons Ratio (x) = 0.56835 0.95634
# Poissons Ratio (y) = 0.21345 -0.11192
# Poissons Ratio (z) = 0.39672 -0.12362
#
# Static dielectric constant tensor:
#      x y z
#    x 1.604870 0.000000 0.000000 
#    y 0.000000 1.580590 0.000000 
#    z 0.000000 0.000000 1.611630 
# 
# From -- ./inp_files/10097.got.cif
#   From: 2010.05.17/outbox.cif.g08.bks.cpg/sg60_6_cif.got.tgz:10097.got - 2010.06.03 14:59:27.
