data_PCOD9455387
_publ_section_title
;
Structure prediction by ZEFSAII (Michael W. Deem and Ramdas Pophale) SiO2 
 PCOD9455387
Probable space group: P B C N
;
_chemical_formula_sum "Si O2"
_cell_formula_units_Z 40
_cell_length_a 8.304884
_cell_length_b 14.203288
_cell_length_c 14.963766
_cell_angle_alpha 90.000000
_cell_angle_beta 90.000000
_cell_angle_gamma 90.000000
_cell_volume 1765.075847
_symmetry_space_group_name_H-M "P B C N"
_symmetry_group_IT_number 60
_symmetry_cell_setting 'orthorhombic'
loop_
_space_group_symop_operation_xyz
x,y,z
1/2-x,1/2-y,1/2+z
1/2+x,1/2-y,-z
-x,y,1/2-z
-x,-y,-z
1/2+x,1/2+y,1/2-z
1/2-x,1/2+y,z
x,-y,1/2+z
loop_
_atom_site_type_symbol
_atom_site_label
_atom_site_fract_x
_atom_site_fract_y
_atom_site_fract_z
Si Si1 0.298297 0.826669 0.948656
Si Si2 0.000000 0.873900 0.250000
Si Si3 0.267031 0.216891 0.637587
Si Si4 0.677410 0.856480 0.990394
Si Si5 0.771456 0.007968 0.635535
Si Si6 0.000000 0.604443 0.750000
O O1 0.246467 0.718418 0.936133
O O2 0.228207 0.896307 0.876035
O O3 0.222443 0.840686 0.047368
O O4 0.490269 0.840949 0.963863
O O5 0.135176 0.805497 0.210697
O O6 0.070348 0.941899 0.326940
O O7 0.271583 0.322807 0.599060
O O8 0.428507 0.172327 0.674577
O O9 0.715946 0.954123 0.037514
O O10 0.634771 0.039669 0.705431
#
# Coordination Sequence:
#
# PCOD9455387 Si02
#       6
#     8   4   8   8   8   4
#     4  10  22  39  66  89 115 165 213 248 296 379
#     4  10  22  38  60  96 128 160 192 276 310 350
#     4   9  21  38  64  87 128 160 205 249 316 350
#     4  10  20  40  66  92 114 169 213 247 296 381
#     4  11  21  41  66  85 130 160 208 250 315 362
#     4  10  20  38  62  96 128 160 194 270 308 352
#
# _framework density 22.661913999999999
#
# number of rings (size 3 to 8) (size 9 to 14) (size 15 to 20)
#    1.200    0.800    2.000    1.800    0.000    0.800 
#    0.000    7.000    4.400    0.000    0.000    0.000 
#    0.000    0.000    0.000    0.000    0.000    0.000 
#
# Total GULP energy -222945.027493 kJ/mol
# GULP energy per Si atom -5573.625687 kJ/mol
# Density = 2.261033 g / cm^3
# Si number density = 22.661914 Si / 1000 Ang^3
#
#
#
# Elastic Constant Matrix: (Units=GPa)
#
#
# Indices 1 2 3 4 5 6 
#
# 1 24.7057 -1.9279 -5.3367 0.0000 0.0000 0.0000
# 2 -1.9279 43.8636 -0.6549 0.0000 0.0000 0.0000
# 3 -5.3367 -0.6549 47.4500 0.0000 0.0000 0.0000
# 4 0.0000 0.0000 0.0000 -3.8878 0.0000 0.0000
# 5 0.0000 0.0000 0.0000 0.0000 26.7988 0.0000
# 6 0.0000 0.0000 0.0000 0.0000 0.0000 12.6087
#
#
#
# Elastic Compliance Matrix: (Units=1/GPa)
#
#
# Indices 1 2 3 4 5 6 
#
# 1 0.041642 0.001901 0.004710 0.000000 0.000000 0.000000
# 2 0.001901 0.022889 0.000530 0.000000 0.000000 0.000000
# 3 0.004710 0.000530 0.021612 0.000000 0.000000 0.000000
# 4 0.000000 0.000000 0.000000 -0.257214 0.000000 0.000000
# 5 0.000000 0.000000 0.000000 0.000000 0.037315 0.000000
# 6 0.000000 0.000000 0.000000 0.000000 0.000000 0.079311
#
#
# Mechanical properties :
#
#
# Convention : Reuss Voigt Hill
#
# Bulk Modulus (GPa) = 9.95785 11.13115 10.54450
# Shear Modulus (GPa) = -141.84401 15.36651 -63.23875
#
# Velocity S-wave (km/s) = -7.92005 2.60681 -5.28828
# Velocity P-wave (km/s) = 8.90127 3.73940 5.71181
#
# Compressibility (1/GPa) = 0.10042328
#
# Stress axis : x y z
#
# Youngs Moduli (GPa) = 24.01416 43.68834 46.27093
#
# Poissons Ratio (x) = -0.08303 -0.21792
# Poissons Ratio (y) = -0.04564 -0.02451
# Poissons Ratio (z) = -0.11310 -0.02314
#
# Static dielectric constant tensor:
#      x y z
#    x 1.859270 0.000000 0.000000 
#    y 0.000000 1.824070 0.000000 
#    z 0.000000 0.000000 1.858050 
# 
# From -- ./inp_files/14865.got.cif
#   From: 2010.05.17/outbox.cif.g08.bks.cpg/sg60_8_cif.got.tgz:14865.got - 2010.06.03 14:59:27.
