data_PCOD9455967
_publ_section_title
;
Structure prediction by ZEFSAII (Michael W. Deem and Ramdas Pophale) SiO2 
 PCOD9455967
Probable space group: P B C N
;
_chemical_formula_sum "Si O2"
_cell_formula_units_Z 44
_cell_length_a 20.849052
_cell_length_b 13.591394
_cell_length_c 7.651983
_cell_angle_alpha 90.000000
_cell_angle_beta 90.000000
_cell_angle_gamma 90.000000
_cell_volume 2168.324672
_symmetry_space_group_name_H-M "P B C N"
_symmetry_group_IT_number 60
_symmetry_cell_setting 'orthorhombic'
loop_
_space_group_symop_operation_xyz
x,y,z
1/2-x,1/2-y,1/2+z
1/2+x,1/2-y,-z
-x,y,1/2-z
-x,-y,-z
1/2+x,1/2+y,1/2-z
1/2-x,1/2+y,z
x,-y,1/2+z
loop_
_atom_site_type_symbol
_atom_site_label
_atom_site_fract_x
_atom_site_fract_y
_atom_site_fract_z
Si Si1 0.031957 0.396276 0.935753
Si Si2 0.655288 0.201795 0.211557
Si Si3 0.129449 0.790745 0.918161
Si Si4 0.500000 0.752266 0.250000
Si Si5 0.741760 0.424416 0.585469
Si Si6 0.258350 0.856554 0.311062
O O1 0.106542 0.368887 0.894735
O O2 0.000000 0.377329 0.750000
O O3 0.015148 0.321187 0.086656
O O4 0.000000 0.500000 0.000000
O O5 0.621941 0.249283 0.382904
O O6 0.716280 0.129489 0.235242
O O7 0.694466 0.295335 0.134236
O O8 0.167996 0.892497 0.900736
O O9 0.178498 0.707629 0.846226
O O10 0.064268 0.801159 0.811353
O O11 0.755977 0.538421 0.597633
O O12 0.758546 0.378806 0.396351
#
# Coordination Sequence:
#
# PCOD9455967 Si02
#       6
#     8   8   8   4   8   8
#     4  12  25  40  60  91 124 170 207 254 316 390
#     4  10  22  40  61  89 130 162 215 270 316 380
#     4  10  22  40  61  94 124 173 211 264 330 377
#     4  12  24  40  64  86 136 168 210 260 318 386
#     4  10  21  37  66  91 124 163 216 272 319 383
#     4  10  21  38  63  93 122 164 213 270 323 377
#
# _framework density 20.292162999999999
#
# number of rings (size 3 to 8) (size 9 to 14) (size 15 to 20)
#    0.000    1.455    2.727    2.182    2.545    5.818 
#    0.000    0.000    2.000    3.273    0.000    0.000 
#    0.000    0.000    0.000    0.000    0.000    0.000 
#
# Total GULP energy -244974.485408 kJ/mol
# GULP energy per Si atom -5567.601941 kJ/mol
# Density = 2.024598 g / cm^3
# Si number density = 20.292163 Si / 1000 Ang^3
#
#
#
# Elastic Constant Matrix: (Units=GPa)
#
#
# Indices 1 2 3 4 5 6 
#
# 1 94.9029 4.6503 9.7031 0.0000 0.0000 0.0000
# 2 4.6503 56.4552 -8.1827 0.0000 0.0000 0.0000
# 3 9.7031 -8.1827 62.6276 0.0000 0.0000 0.0000
# 4 0.0000 0.0000 0.0000 9.7515 0.0000 0.0000
# 5 0.0000 0.0000 0.0000 0.0000 31.5891 0.0000
# 6 0.0000 0.0000 0.0000 0.0000 0.0000 18.5920
#
#
#
# Elastic Compliance Matrix: (Units=1/GPa)
#
#
# Indices 1 2 3 4 5 6 
#
# 1 0.010780 -0.001152 -0.001821 0.000000 0.000000 0.000000
# 2 -0.001152 0.018178 0.002554 0.000000 0.000000 0.000000
# 3 -0.001821 0.002554 0.016583 0.000000 0.000000 0.000000
# 4 0.000000 0.000000 0.000000 0.102548 0.000000 0.000000
# 5 0.000000 0.000000 0.000000 0.000000 0.031657 0.000000
# 6 0.000000 0.000000 0.000000 0.000000 0.000000 0.053787
#
#
# Mechanical properties :
#
#
# Convention : Reuss Voigt Hill
#
# Bulk Modulus (GPa) = 22.36979 25.14746 23.75863
# Shear Modulus (GPa) = 20.05848 25.84085 22.94967
#
# Velocity S-wave (km/s) = 3.14743 3.57240 3.36663
# Velocity P-wave (km/s) = 4.92506 5.42546 5.18131
#
# Compressibility (1/GPa) = 0.04470314
#
# Stress axis : x y z
#
# Youngs Moduli (GPa) = 92.76717 55.01112 60.30234
#
# Poissons Ratio (x) = 0.06336 0.10979
# Poissons Ratio (y) = 0.10685 -0.15399
# Poissons Ratio (z) = 0.16889 -0.14047
#
# Static dielectric constant tensor:
#      x y z
#    x 1.785240 0.000000 0.000000 
#    y 0.000000 1.716200 0.000000 
#    z 0.000000 0.000000 1.799690 
# 
# From -- ./inp_files/6643.got.cif
#   From: 2010.05.17/outbox.cif.g08.bks.cpg/sg60_4_cif.got.tgz:6643.got - 2010.06.03 14:59:27.
