data_PCOD9455116
_publ_section_title
;
Structure prediction by ZEFSAII (Michael W. Deem and Ramdas Pophale) SiO2 
 PCOD9455116
Probable space group: P B C N
;
_chemical_formula_sum "Si O2"
_cell_formula_units_Z 48
_cell_length_a 25.940260
_cell_length_b 9.833758
_cell_length_c 7.873066
_cell_angle_alpha 90.000000
_cell_angle_beta 90.000000
_cell_angle_gamma 90.000000
_cell_volume 2008.342290
_symmetry_space_group_name_H-M "P B C N"
_symmetry_group_IT_number 60
_symmetry_cell_setting 'orthorhombic'
loop_
_space_group_symop_operation_xyz
x,y,z
1/2-x,1/2-y,1/2+z
1/2+x,1/2-y,-z
-x,y,1/2-z
-x,-y,-z
1/2+x,1/2+y,1/2-z
1/2-x,1/2+y,z
x,-y,1/2+z
loop_
_atom_site_type_symbol
_atom_site_label
_atom_site_fract_x
_atom_site_fract_y
_atom_site_fract_z
Si Si1 0.131011 0.687598 0.666856
Si Si2 0.266965 0.107920 0.830733
Si Si3 0.696446 0.180520 0.297955
Si Si4 0.597482 0.912498 0.965998
Si Si5 0.000000 0.956237 0.750000
Si Si6 0.000000 0.389087 0.750000
Si Si7 0.941860 0.163830 0.551553
O O1 0.189835 0.689171 0.722093
O O2 0.124940 0.558421 0.542894
O O3 0.109035 0.812397 0.558991
O O4 0.100171 0.652450 0.844623
O O5 0.213264 0.172991 0.772158
O O6 0.281057 0.948385 0.809174
O O7 0.277196 0.152151 0.021486
O O8 0.635406 0.173712 0.342035
O O9 0.541447 0.943781 0.886980
O O10 0.015008 0.869133 0.589519
O O11 0.048795 0.048731 0.806508
O O12 0.038555 0.299059 0.860903
#
# Coordination Sequence:
#
# PCOD9455116 Si02
#       7
#     8   8   8   8   4   4   8
#     4  10  21  38  59  86 118 153 192 243 297 358
#     4  10  21  39  64  90 121 159 198 246 306 359
#     4  10  21  40  63  90 123 157 198 250 301 362
#     4  10  22  37  58  89 121 151 193 242 297 358
#     4   9  20  37  54  76 108 151 194 245 288 334
#     4  11  22  35  58  88 114 155 196 239 298 358
#     4  10  20  36  56  77 110 149 194 239 288 342
#
# _framework density 23.900307000000002
#
# number of rings (size 3 to 8) (size 9 to 14) (size 15 to 20)
#    0.000    2.000    0.000    3.000    0.000    7.333 
#    0.000   10.000    0.000    0.000    0.000    0.000 
#    0.000    0.000    0.000    0.000    0.000    0.000 
#
# Total GULP energy -267769.109146 kJ/mol
# GULP energy per Si atom -5578.523107 kJ/mol
# Density = 2.384591 g / cm^3
# Si number density = 23.900307 Si / 1000 Ang^3
#
#
#
# Elastic Constant Matrix: (Units=GPa)
#
#
# Indices 1 2 3 4 5 6 
#
# 1 87.1531 20.1885 33.5080 0.0000 0.0000 0.0000
# 2 20.1885 36.3584 26.4305 0.0000 0.0000 0.0000
# 3 33.5080 26.4305 117.1581 0.0000 0.0000 0.0000
# 4 0.0000 0.0000 0.0000 -2.1536 0.0000 0.0000
# 5 0.0000 0.0000 0.0000 0.0000 49.1632 0.0000
# 6 0.0000 0.0000 0.0000 0.0000 0.0000 -6.7823
#
#
#
# Elastic Compliance Matrix: (Units=1/GPa)
#
#
# Indices 1 2 3 4 5 6 
#
# 1 0.013827 -0.005745 -0.002659 0.000000 0.000000 0.000000
# 2 -0.005745 0.035286 -0.006317 0.000000 0.000000 0.000000
# 3 -0.002659 -0.006317 0.010721 0.000000 0.000000 0.000000
# 4 0.000000 0.000000 0.000000 -0.464338 0.000000 0.000000
# 5 0.000000 0.000000 0.000000 0.000000 0.020340 0.000000
# 6 0.000000 0.000000 0.000000 0.000000 0.000000 -0.147442
#
#
# Mechanical properties :
#
#
# Convention : Reuss Voigt Hill
#
# Bulk Modulus (GPa) = 32.90291 44.54708 38.72499
# Shear Modulus (GPa) = -10.16195 18.74828 4.29317
#
# Velocity S-wave (km/s) = -2.06423 2.80382 1.34171
# Velocity P-wave (km/s) = 2.84873 5.40010 4.31719
#
# Compressibility (1/GPa) = 0.03039245
#
# Stress axis : x y z
#
# Youngs Moduli (GPa) = 72.32223 28.33960 93.27470
#
# Poissons Ratio (x) = 0.16281 0.24798
# Poissons Ratio (y) = 0.41549 0.58925
# Poissons Ratio (z) = 0.19227 0.17903
#
# Static dielectric constant tensor:
#      x y z
#    x 1.945400 0.000000 0.000000 
#    y 0.000000 1.935700 0.000000 
#    z 0.000000 0.000000 1.977490 
# 
# From -- ./inp_files/8124.got.cif
#   From: 2010.05.17/outbox.cif.g08.bks.cpg/sg60_5_cif.got.tgz:8124.got - 2010.06.03 14:59:27.
