data_PCOD9455535
_publ_section_title
;
Structure prediction by ZEFSAII (Michael W. Deem and Ramdas Pophale) SiO2 
 PCOD9455535
Probable space group: P B C N
;
_chemical_formula_sum "Si O2"
_cell_formula_units_Z 48
_cell_length_a 9.473958
_cell_length_b 32.718983
_cell_length_c 8.024999
_cell_angle_alpha 90.000000
_cell_angle_beta 90.000000
_cell_angle_gamma 90.000000
_cell_volume 2487.575313
_symmetry_space_group_name_H-M "P B C N"
_symmetry_group_IT_number 60
_symmetry_cell_setting 'orthorhombic'
loop_
_space_group_symop_operation_xyz
x,y,z
1/2-x,1/2-y,1/2+z
1/2+x,1/2-y,-z
-x,y,1/2-z
-x,-y,-z
1/2+x,1/2+y,1/2-z
1/2-x,1/2+y,z
x,-y,1/2+z
loop_
_atom_site_type_symbol
_atom_site_label
_atom_site_fract_x
_atom_site_fract_y
_atom_site_fract_z
Si Si1 0.149852 0.549966 0.931461
Si Si2 0.000000 0.242253 0.250000
Si Si3 0.255331 0.675680 0.216430
Si Si4 0.987447 0.685142 0.006211
Si Si5 0.500000 0.979142 0.750000
Si Si6 0.000000 0.107266 0.250000
Si Si7 0.000000 0.619634 0.750000
Si Si8 0.972892 0.952938 0.049371
O O1 0.119788 0.510008 0.818181
O O2 0.112943 0.589452 0.827363
O O3 0.308262 0.551906 0.983031
O O4 0.051635 0.546465 0.093498
O O5 0.136791 0.213585 0.229363
O O6 0.000369 0.272098 0.409819
O O7 0.134151 0.683909 0.355232
O O8 0.361138 0.636523 0.224907
O O9 0.148168 0.673852 0.059883
O O10 0.936063 0.649617 0.884218
O O11 0.035207 0.078881 0.412722
O O12 0.000000 0.946547 0.250000
O O13 0.000000 0.000000 0.000000
#
# Coordination Sequence:
#
# PCOD9455535 Si02
#       8
#     8   4   8   8   4   4   4   8
#     4  10  21  39  57  88 115 155 213 261 334 377
#     4  10  20  39  68  98 130 156 212 248 311 392
#     4  10  22  41  64  93 130 168 203 260 317 378
#     4  10  21  39  63  94 124 169 202 253 312 375
#     4   9  20  37  62  83 114 152 203 278 319 394
#     4  11  26  43  62  93 132 172 225 268 327 396
#     4  10  22  35  58  86 120 156 208 260 301 384
#     4  12  25  42  64  89 125 173 221 278 332 397
#
# _framework density 19.2959
#
# number of rings (size 3 to 8) (size 9 to 14) (size 15 to 20)
#    0.000    1.667    0.833    3.000    2.333    2.667 
#    0.000    0.000    7.333    0.000    0.000    0.000 
#    0.000    0.000    0.000    0.000    0.000    0.000 
#
# Total GULP energy -267411.239483 kJ/mol
# GULP energy per Si atom -5571.067489 kJ/mol
# Density = 1.925198 g / cm^3
# Si number density = 19.295900 Si / 1000 Ang^3
#
#
#
# Elastic Constant Matrix: (Units=GPa)
#
#
# Indices 1 2 3 4 5 6 
#
# 1 77.4234 58.3117 20.2133 0.0000 0.0000 0.0000
# 2 58.3117 139.0460 63.1062 0.0000 0.0000 0.0000
# 3 20.2133 63.1062 97.0162 0.0000 0.0000 0.0000
# 4 0.0000 0.0000 0.0000 36.1334 0.0000 0.0000
# 5 0.0000 0.0000 0.0000 0.0000 12.7283 0.0000
# 6 0.0000 0.0000 0.0000 0.0000 0.0000 -30.6245
#
#
#
# Elastic Compliance Matrix: (Units=1/GPa)
#
#
# Indices 1 2 3 4 5 6 
#
# 1 0.019085 -0.008796 0.001745 0.000000 0.000000 0.000000
# 2 -0.008796 0.014258 -0.007442 0.000000 0.000000 0.000000
# 3 0.001745 -0.007442 0.014785 0.000000 0.000000 0.000000
# 4 0.000000 0.000000 0.000000 0.027675 0.000000 0.000000
# 5 0.000000 0.000000 0.000000 0.000000 0.078565 0.000000
# 6 0.000000 0.000000 0.000000 0.000000 0.000000 -0.032654
#
#
# Mechanical properties :
#
#
# Convention : Reuss Voigt Hill
#
# Bulk Modulus (GPa) = 52.23957 66.30531 59.27244
# Shear Modulus (GPa) = 31.83095 15.10440 23.46768
#
# Velocity S-wave (km/s) = 4.06596 2.80085 3.49119
# Velocity P-wave (km/s) = 7.01244 6.70050 6.85825
#
# Compressibility (1/GPa) = 0.01914258
#
# Stress axis : x y z
#
# Youngs Moduli (GPa) = 52.39765 70.13645 67.63755
#
# Poissons Ratio (x) = 0.61689 -0.11802
# Poissons Ratio (y) = 0.46087 0.50335
# Poissons Ratio (z) = -0.09143 0.52194
#
# Static dielectric constant tensor:
#      x y z
#    x 1.622240 0.000000 0.000000 
#    y 0.000000 1.690290 0.000000 
#    z 0.000000 0.000000 1.570640 
# 
# From -- ./inp_files/4301.got.cif
#   From: 2010.05.17/outbox.cif.g08.bks.cpg/sg60_3_cif.got.tgz:4301.got - 2010.06.03 14:59:27.
