data_PCOD9455669
_publ_section_title
;
Structure prediction by ZEFSAII (Michael W. Deem and Ramdas Pophale) SiO2 
 PCOD9455669
Probable space group: P B C N
;
_chemical_formula_sum "Si O2"
_cell_formula_units_Z 48
_cell_length_a 7.905492
_cell_length_b 14.153954
_cell_length_c 17.491990
_cell_angle_alpha 90.000000
_cell_angle_beta 90.000000
_cell_angle_gamma 90.000000
_cell_volume 1957.248206
_symmetry_space_group_name_H-M "P B C N"
_symmetry_group_IT_number 60
_symmetry_cell_setting 'orthorhombic'
loop_
_space_group_symop_operation_xyz
x,y,z
1/2-x,1/2-y,1/2+z
1/2+x,1/2-y,-z
-x,y,1/2-z
-x,-y,-z
1/2+x,1/2+y,1/2-z
1/2-x,1/2+y,z
x,-y,1/2+z
loop_
_atom_site_type_symbol
_atom_site_label
_atom_site_fract_x
_atom_site_fract_y
_atom_site_fract_z
Si Si1 0.925980 0.870494 0.372580
Si Si2 0.801332 0.370081 0.498508
Si Si3 0.457317 0.312248 0.582648
Si Si4 0.896359 0.354906 0.902473
Si Si5 0.000000 0.446689 0.750000
Si Si6 0.748820 0.394758 0.208408
Si Si7 0.000000 0.768159 0.750000
O O1 0.806700 0.922343 0.433270
O O2 0.928404 0.759420 0.396610
O O3 0.844808 0.887423 0.290067
O O4 0.118991 0.899278 0.361224
O O5 0.644026 0.336057 0.552383
O O6 0.906256 0.292029 0.447919
O O7 0.951359 0.404997 0.552272
O O8 0.286185 0.367276 0.558119
O O9 0.446951 0.323349 0.674560
O O10 0.909797 0.387036 0.815071
O O11 0.133403 0.515117 0.790245
O O12 0.860144 0.300412 0.212305
#
# Coordination Sequence:
#
# PCOD9455669 Si02
#       7
#     8   8   8   8   4   8   4
#     4  10  20  41  70  95 125 174 230 266 328 404
#     4  11  21  39  65 103 134 165 218 283 339 384
#     4  11  22  36  64 104 133 166 216 284 330 390
#     4  11  23  42  68 100 130 170 220 287 333 384
#     4  11  26  44  60  98 139 172 220 285 342 386
#     4  10  21  39  65  89 132 177 219 268 324 409
#     4  11  20  34  64 100 123 176 224 259 328 404
#
# _framework density 24.524228000000001
#
# number of rings (size 3 to 8) (size 9 to 14) (size 15 to 20)
#    0.000    1.333    6.667    2.000    2.333    0.000 
#    6.000    1.667    0.000    0.000    0.000    0.000 
#    0.000    0.000    0.000    0.000    0.000    0.000 
#
# Total GULP energy -267881.324939 kJ/mol
# GULP energy per Si atom -5580.860936 kJ/mol
# Density = 2.446841 g / cm^3
# Si number density = 24.524228 Si / 1000 Ang^3
#
#
#
# Elastic Constant Matrix: (Units=GPa)
#
#
# Indices 1 2 3 4 5 6 
#
# 1 123.4310 -11.4324 21.1040 0.0000 0.0000 0.0000
# 2 -11.4324 37.1161 0.0430 0.0000 0.0000 0.0000
# 3 21.1040 0.0430 97.3802 0.0000 0.0000 0.0000
# 4 0.0000 0.0000 0.0000 53.7899 0.0000 0.0000
# 5 0.0000 0.0000 0.0000 0.0000 53.1501 0.0000
# 6 0.0000 0.0000 0.0000 0.0000 0.0000 -8.8637
#
#
#
# Elastic Compliance Matrix: (Units=1/GPa)
#
#
# Indices 1 2 3 4 5 6 
#
# 1 0.008671 0.002673 -0.001880 0.000000 0.000000 0.000000
# 2 0.002673 0.027766 -0.000592 0.000000 0.000000 0.000000
# 3 -0.001880 -0.000592 0.010677 0.000000 0.000000 0.000000
# 4 0.000000 0.000000 0.000000 0.018591 0.000000 0.000000
# 5 0.000000 0.000000 0.000000 0.000000 0.018815 0.000000
# 6 0.000000 0.000000 0.000000 0.000000 0.000000 -0.112820
#
#
# Mechanical properties :
#
#
# Convention : Reuss Voigt Hill
#
# Bulk Modulus (GPa) = 21.04545 30.81740 25.93142
# Shear Modulus (GPa) = -388.68865 36.16278 -176.26293
#
# Velocity S-wave (km/s) = -12.60301 3.84418 -8.48699
# Velocity P-wave (km/s) = 14.25415 5.68305 9.24348
#
# Compressibility (1/GPa) = 0.04751621
#
# Stress axis : x y z
#
# Youngs Moduli (GPa) = 115.33028 36.01463 93.66121
#
# Poissons Ratio (x) = -0.09626 0.17611
# Poissons Ratio (y) = -0.30827 0.05540
# Poissons Ratio (z) = 0.21685 0.02130
#
# Static dielectric constant tensor:
#      x y z
#    x 2.031650 0.000000 0.000000 
#    y 0.000000 1.961790 0.000000 
#    z 0.000000 0.000000 1.962240 
# 
# From -- ./inp_files/19471.got.cif
#   From: 2010.05.17/outbox.cif.g08.bks.cpg/sg60_10_cif.got.tgz:19471.got - 2010.06.03 14:59:27.
