data_PCOD9455994
_publ_section_title
;
Structure prediction by ZEFSAII (Michael W. Deem and Ramdas Pophale) SiO2 
 PCOD9455994
Probable space group: P B C N
;
_chemical_formula_sum "Si O2"
_cell_formula_units_Z 44
_cell_length_a 18.416094
_cell_length_b 13.810638
_cell_length_c 8.941092
_cell_angle_alpha 90.000000
_cell_angle_beta 90.000000
_cell_angle_gamma 90.000000
_cell_volume 2274.059525
_symmetry_space_group_name_H-M "P B C N"
_symmetry_group_IT_number 60
_symmetry_cell_setting 'orthorhombic'
loop_
_space_group_symop_operation_xyz
x,y,z
1/2-x,1/2-y,1/2+z
1/2+x,1/2-y,-z
-x,y,1/2-z
-x,-y,-z
1/2+x,1/2+y,1/2-z
1/2-x,1/2+y,z
x,-y,1/2+z
loop_
_atom_site_type_symbol
_atom_site_label
_atom_site_fract_x
_atom_site_fract_y
_atom_site_fract_z
Si Si1 0.126958 0.212547 0.519429
Si Si2 0.000000 0.993633 0.750000
Si Si3 0.534946 0.363278 0.994985
Si Si4 0.353185 0.234545 0.360644
Si Si5 0.232093 0.424178 0.024360
Si Si6 0.784740 0.625693 0.633024
O O1 0.124132 0.254912 0.688298
O O2 0.189208 0.129146 0.510526
O O3 0.150833 0.302083 0.415448
O O4 0.049026 0.167530 0.483408
O O5 0.052009 0.925362 0.652027
O O6 0.958705 0.063182 0.634875
O O7 0.583628 0.271859 0.030945
O O8 0.322308 0.132582 0.413678
O O9 0.286849 0.308741 0.379483
O O10 0.208783 0.409082 0.196186
O O11 0.228412 0.535098 0.975559
#
# Coordination Sequence:
#
# PCOD9455994 Si02
#       6
#     8   4   8   8   8   8
#     4  10  21  38  58  85 116 149 186 234 279 334
#     4  10  24  34  56  90 118 150 180 222 296 334
#     4  11  22  38  57  88 116 148 186 232 280 341
#     4  10  21  38  58  85 116 149 186 234 279 334
#     4  10  22  37  58  83 114 151 191 231 279 332
#     4  10  22  37  58  83 114 151 191 231 279 332
#
# _framework density 19.348658
#
# number of rings (size 3 to 8) (size 9 to 14) (size 15 to 20)
#    0.000    1.818    1.818    1.091    7.636    1.455 
#    0.000    0.909    0.000    0.000    0.000    0.000 
#    0.000    0.000    0.000    0.000    0.000    0.000 
#
# Total GULP energy -245746.634039 kJ/mol
# GULP energy per Si atom -5585.150774 kJ/mol
# Density = 1.930462 g / cm^3
# Si number density = 19.348658 Si / 1000 Ang^3
#
#
#
# Elastic Constant Matrix: (Units=GPa)
#
#
# Indices 1 2 3 4 5 6 
#
# 1 42.6473 2.0663 9.9043 0.0000 0.0000 0.0000
# 2 2.0663 70.8716 34.4481 0.0000 0.0000 0.0000
# 3 9.9043 34.4481 75.4049 0.0000 0.0000 0.0000
# 4 0.0000 0.0000 0.0000 25.0517 0.0000 0.0000
# 5 0.0000 0.0000 0.0000 0.0000 15.0696 0.0000
# 6 0.0000 0.0000 0.0000 0.0000 0.0000 2.5733
#
#
#
# Elastic Compliance Matrix: (Units=1/GPa)
#
#
# Indices 1 2 3 4 5 6 
#
# 1 0.024250 0.001081 -0.003679 0.000000 0.000000 0.000000
# 2 0.001081 0.018186 -0.008450 0.000000 0.000000 0.000000
# 3 -0.003679 -0.008450 0.017605 0.000000 0.000000 0.000000
# 4 0.000000 0.000000 0.000000 0.039917 0.000000 0.000000
# 5 0.000000 0.000000 0.000000 0.000000 0.066359 0.000000
# 6 0.000000 0.000000 0.000000 0.000000 0.000000 0.388602
#
#
# Mechanical properties :
#
#
# Convention : Reuss Voigt Hill
#
# Bulk Modulus (GPa) = 26.35367 31.30682 28.83025
# Shear Modulus (GPa) = 8.47941 18.03928 13.25935
#
# Velocity S-wave (km/s) = 2.09570 3.05672 2.62063
# Velocity P-wave (km/s) = 4.41655 5.35476 4.90813
#
# Compressibility (1/GPa) = 0.03794537
#
# Stress axis : x y z
#
# Youngs Moduli (GPa) = 41.23675 54.98811 56.80102
#
# Poissons Ratio (x) = -0.05946 0.20898
# Poissons Ratio (y) = -0.04459 0.47997
# Poissons Ratio (z) = 0.15172 0.46465
#
# Static dielectric constant tensor:
#      x y z
#    x 1.666750 0.000000 0.000000 
#    y 0.000000 1.659790 0.000000 
#    z 0.000000 0.000000 1.709430 
# 
# From -- ./inp_files/6641.got.cif
#   From: 2010.05.17/outbox.cif.g08.bks.cpg/sg60_4_cif.got.tgz:6641.got - 2010.06.03 14:59:27.
