data_PCOD9455683
_publ_section_title
;
Structure prediction by ZEFSAII (Michael W. Deem and Ramdas Pophale) SiO2 
 PCOD9455683
Probable space group: P B C N
;
_chemical_formula_sum "Si O2"
_cell_formula_units_Z 28
_cell_length_a 8.244164
_cell_length_b 9.471384
_cell_length_c 14.709938
_cell_angle_alpha 90.000000
_cell_angle_beta 90.000000
_cell_angle_gamma 90.000000
_cell_volume 1148.605547
_symmetry_space_group_name_H-M "P B C N"
_symmetry_group_IT_number 60
_symmetry_cell_setting 'orthorhombic'
loop_
_space_group_symop_operation_xyz
x,y,z
1/2-x,1/2-y,1/2+z
1/2+x,1/2-y,-z
-x,y,1/2-z
-x,-y,-z
1/2+x,1/2+y,1/2-z
1/2-x,1/2+y,z
x,-y,1/2+z
loop_
_atom_site_type_symbol
_atom_site_label
_atom_site_fract_x
_atom_site_fract_y
_atom_site_fract_z
Si Si1 0.036222 0.160358 0.931293
Si Si2 0.862730 0.606504 0.537112
Si Si3 0.000000 0.016022 0.250000
Si Si4 0.657411 0.092224 0.189325
O O1 0.173940 0.077016 0.988564
O O2 0.977853 0.075237 0.842771
O O3 0.142133 0.287608 0.886369
O O4 0.913451 0.243029 0.995953
O O5 0.860479 0.561818 0.642941
O O6 0.000000 0.500000 0.500000
O O7 0.831623 0.098822 0.236829
O O8 0.500000 0.113430 0.250000
#
# Coordination Sequence:
#
# PCOD9455683 Si02
#       4
#     8   8   4   8
#     4  10  20  42  63  92 127 165 207 260 322 373
#     4   9  21  39  62  91 124 160 209 255 312 378
#     4  10  22  40  62  92 126 166 216 258 314 376
#     4  10  21  41  62  93 128 162 213 263 313 377
#
# _framework density 24.377385
#
# number of rings (size 3 to 8) (size 9 to 14) (size 15 to 20)
#    0.000    2.286    1.429    0.000    4.000    0.000 
#   20.571    4.286    0.000    0.000    0.000    0.000 
#    0.000    0.000    0.000    0.000    0.000    0.000 
#
# Total GULP energy -156146.307763 kJ/mol
# GULP energy per Si atom -5576.653849 kJ/mol
# Density = 2.432190 g / cm^3
# Si number density = 24.377385 Si / 1000 Ang^3
#
#
#
# Elastic Constant Matrix: (Units=GPa)
#
#
# Indices 1 2 3 4 5 6 
#
# 1 126.0639 -2.8891 60.8922 0.0000 0.0000 0.0000
# 2 -2.8891 70.7705 27.3094 0.0000 0.0000 0.0000
# 3 60.8922 27.3094 75.3872 0.0000 0.0000 0.0000
# 4 0.0000 0.0000 0.0000 -270.7708 0.0000 0.0000
# 5 0.0000 0.0000 0.0000 0.0000 60.9481 0.0000
# 6 0.0000 0.0000 0.0000 0.0000 0.0000 28.6912
#
#
#
# Elastic Compliance Matrix: (Units=1/GPa)
#
#
# Indices 1 2 3 4 5 6 
#
# 1 0.015002 0.006148 -0.014345 0.000000 0.000000 0.000000
# 2 0.006148 0.018946 -0.011829 0.000000 0.000000 0.000000
# 3 -0.014345 -0.011829 0.029137 0.000000 0.000000 0.000000
# 4 0.000000 0.000000 0.000000 -0.003693 0.000000 0.000000
# 5 0.000000 0.000000 0.000000 0.000000 0.016407 0.000000
# 6 0.000000 0.000000 0.000000 0.000000 0.000000 0.034854
#
#
# Mechanical properties :
#
#
# Convention : Reuss Voigt Hill
#
# Bulk Modulus (GPa) = 43.41622 49.20516 46.31069
# Shear Modulus (GPa) = 31.56909 -23.76570 3.90169
#
# Velocity S-wave (km/s) = 3.60254 -3.12574 1.26650
# Velocity P-wave (km/s) = 5.92900 2.68358 4.60188
#
# Compressibility (1/GPa) = 0.02303287
#
# Stress axis : x y z
#
# Youngs Moduli (GPa) = 66.65621 52.78200 34.32092
#
# Poissons Ratio (x) = -0.32450 0.49233
# Poissons Ratio (y) = -0.40980 0.40599
# Poissons Ratio (z) = 0.95618 0.62436
#
# Static dielectric constant tensor:
#      x y z
#    x 2.058830 0.000000 0.000000 
#    y 0.000000 2.074290 0.000000 
#    z 0.000000 0.000000 1.968400 
# 
# From -- ./inp_files/14227.got.cif
#   From: 2010.05.17/outbox.cif.g08.bks.cpg/sg60_8_cif.got.tgz:14227.got - 2010.06.03 14:59:27.
