data_PCOD9455131
_publ_section_title
;
Structure prediction by ZEFSAII (Michael W. Deem and Ramdas Pophale) SiO2 
 PCOD9455131
Probable space group: P B C N
;
_chemical_formula_sum "Si O2"
_cell_formula_units_Z 60
_cell_length_a 10.501802
_cell_length_b 12.163471
_cell_length_c 21.311085
_cell_angle_alpha 90.000000
_cell_angle_beta 90.000000
_cell_angle_gamma 90.000000
_cell_volume 2722.243135
_symmetry_space_group_name_H-M "P B C N"
_symmetry_group_IT_number 60
_symmetry_cell_setting 'orthorhombic'
loop_
_space_group_symop_operation_xyz
x,y,z
1/2-x,1/2-y,1/2+z
1/2+x,1/2-y,-z
-x,y,1/2-z
-x,-y,-z
1/2+x,1/2+y,1/2-z
1/2-x,1/2+y,z
x,-y,1/2+z
loop_
_atom_site_type_symbol
_atom_site_label
_atom_site_fract_x
_atom_site_fract_y
_atom_site_fract_z
Si Si1 0.736558 0.916072 0.283253
Si Si2 0.880173 0.937438 0.681240
Si Si3 0.331824 0.689635 0.596115
Si Si4 0.299499 0.971173 0.006039
Si Si5 0.398262 0.396198 0.431432
Si Si6 0.000000 0.253278 0.250000
Si Si7 0.345844 0.829981 0.882937
Si Si8 0.884847 0.586857 0.379394
O O1 0.827982 0.859219 0.334239
O O2 0.625846 0.831405 0.258240
O O3 0.830414 0.976020 0.233861
O O4 0.661124 0.005772 0.325685
O O5 0.752714 0.869350 0.667761
O O6 0.979856 0.839334 0.695568
O O7 0.916767 0.009093 0.620619
O O8 0.235226 0.627323 0.552181
O O9 0.465749 0.664017 0.560955
O O10 0.289905 0.814074 0.606109
O O11 0.397425 0.034934 0.050954
O O12 0.333923 0.914294 0.940956
O O13 0.177942 0.048777 0.988656
O O14 0.317372 0.294309 0.403664
O O15 0.488168 0.849651 0.858909
#
# Coordination Sequence:
#
# PCOD9455131 Si02
#       8
#     8   8   8   8   8   4   8   8
#     4  11  23  40  60  86 119 155 202 255 306 372
#     4  11  23  40  60  86 119 155 202 255 306 372
#     4  10  21  37  57  83 115 153 193 244 307 366
#     4  10  20  36  58  84 114 152 198 248 298 370
#     4  10  21  37  58  84 116 153 195 246 306 367
#     4  12  24  40  64  92 120 164 212 256 316 378
#     4  10  21  37  57  83 115 153 193 244 307 366
#     4  10  21  37  58  84 116 153 195 246 306 367
#
# _framework density 22.040647
#
# number of rings (size 3 to 8) (size 9 to 14) (size 15 to 20)
#    0.000    1.600    0.000    4.800    0.000    2.133 
#    0.000   13.333    0.000    0.000    0.000    0.000 
#    0.000    0.000    0.000    0.000    0.000    0.000 
#
# Total GULP energy -334145.843979 kJ/mol
# GULP energy per Si atom -5569.097400 kJ/mol
# Density = 2.199048 g / cm^3
# Si number density = 22.040647 Si / 1000 Ang^3
#
#
#
# Elastic Constant Matrix: (Units=GPa)
#
#
# Indices 1 2 3 4 5 6 
#
# 1 28.0114 8.0350 -10.0267 0.0000 0.0000 0.0000
# 2 8.0350 100.8133 2.8774 0.0000 0.0000 0.0000
# 3 -10.0267 2.8774 34.4349 0.0000 0.0000 0.0000
# 4 0.0000 0.0000 0.0000 21.1381 0.0000 0.0000
# 5 0.0000 0.0000 0.0000 0.0000 11.9808 0.0000
# 6 0.0000 0.0000 0.0000 0.0000 0.0000 -25.3598
#
#
#
# Elastic Compliance Matrix: (Units=1/GPa)
#
#
# Indices 1 2 3 4 5 6 
#
# 1 0.041137 -0.003629 0.012282 0.000000 0.000000 0.000000
# 2 -0.003629 0.010263 -0.001914 0.000000 0.000000 0.000000
# 3 0.012282 -0.001914 0.032776 0.000000 0.000000 0.000000
# 4 0.000000 0.000000 0.000000 0.047308 0.000000 0.000000
# 5 0.000000 0.000000 0.000000 0.000000 0.083467 0.000000
# 6 0.000000 0.000000 0.000000 0.000000 0.000000 -0.039433
#
#
# Mechanical properties :
#
#
# Convention : Reuss Voigt Hill
#
# Bulk Modulus (GPa) = 10.24039 18.33676 14.28858
# Shear Modulus (GPa) = 25.69453 12.37675 19.03564
#
# Velocity S-wave (km/s) = 3.41805 2.37226 2.94200
# Velocity P-wave (km/s) = 4.49819 3.98008 4.24704
#
# Compressibility (1/GPa) = 0.09765249
#
# Stress axis : x y z
#
# Youngs Moduli (GPa) = 24.30903 97.43530 30.50976
#
# Poissons Ratio (x) = 0.35361 -0.37471
# Poissons Ratio (y) = 0.08822 0.05841
# Poissons Ratio (z) = -0.29855 0.18653
#
# Static dielectric constant tensor:
#      x y z
#    x 2.136830 0.000000 0.000000 
#    y 0.000000 1.909190 0.000000 
#    z 0.000000 0.000000 1.854600 
# 
# From -- ./inp_files/12886.got.cif
#   From: 2010.05.17/outbox.cif.g08.bks.cpg/sg60_7_cif.got.tgz:12886.got - 2010.06.03 14:59:27.
