data_PCOD9455463
_publ_section_title
;
Structure prediction by ZEFSAII (Michael W. Deem and Ramdas Pophale) SiO2 
 PCOD9455463
Probable space group: P B C N
;
_chemical_formula_sum "Si O2"
_cell_formula_units_Z 60
_cell_length_a 15.126547
_cell_length_b 13.776510
_cell_length_c 14.723499
_cell_angle_alpha 90.000000
_cell_angle_beta 90.000000
_cell_angle_gamma 90.000000
_cell_volume 3068.245063
_symmetry_space_group_name_H-M "P B C N"
_symmetry_group_IT_number 60
_symmetry_cell_setting 'orthorhombic'
loop_
_space_group_symop_operation_xyz
x,y,z
1/2-x,1/2-y,1/2+z
1/2+x,1/2-y,-z
-x,y,1/2-z
-x,-y,-z
1/2+x,1/2+y,1/2-z
1/2-x,1/2+y,z
x,-y,1/2+z
loop_
_atom_site_type_symbol
_atom_site_label
_atom_site_fract_x
_atom_site_fract_y
_atom_site_fract_z
Si Si1 0.986581 0.679258 0.430553
Si Si2 0.779441 0.212282 0.256233
Si Si3 0.000000 0.448083 0.750000
Si Si4 0.848542 0.552729 0.518667
Si Si5 0.719176 0.478073 0.853619
Si Si6 0.340077 0.907880 0.288017
Si Si7 0.683523 0.171018 0.064555
Si Si8 0.171123 0.180731 0.589661
O O1 0.943916 0.601357 0.501123
O O2 0.919510 0.768430 0.435621
O O3 0.979671 0.621958 0.334636
O O4 0.086418 0.718018 0.441018
O O5 0.817798 0.117353 0.305373
O O6 0.851134 0.297409 0.243525
O O7 0.730297 0.182854 0.162377
O O8 0.706783 0.264019 0.320775
O O9 0.923428 0.521528 0.719002
O O10 0.788736 0.560047 0.429098
O O11 0.808099 0.600748 0.608407
O O12 0.845937 0.439774 0.543731
O O13 0.771287 0.537508 0.776268
O O14 0.661881 0.564478 0.897327
O O15 0.753696 0.197182 0.986846
#
# Coordination Sequence:
#
# PCOD9455463 Si02
#       8
#     8   8   4   8   8   8   8   8
#     4  12  21  38  65  94 130 163 211 272 327 377
#     4  11  21  40  59  86 126 172 208 261 320 386
#     4  12  22  38  64 102 130 154 214 282 330 386
#     4  11  20  35  59  94 124 161 203 269 329 373
#     4  10  20  39  57  87 128 164 211 258 309 388
#     4  11  22  35  61  92 126 163 208 260 334 377
#     4  11  23  38  60  95 131 162 211 272 319 382
#     4  10  23  37  62  95 125 169 215 257 323 389
#
# _framework density 19.555153000000001
#
# number of rings (size 3 to 8) (size 9 to 14) (size 15 to 20)
#    0.000    1.067    5.333    2.000    0.000    0.000 
#    0.000    0.000    0.000    4.800    0.000    1.867 
#    0.000    0.000    0.000    0.000    0.000    0.000 
#
# Total GULP energy -334546.589768 kJ/mol
# GULP energy per Si atom -5575.776496 kJ/mol
# Density = 1.951064 g / cm^3
# Si number density = 19.555153 Si / 1000 Ang^3
#
#
#
# Elastic Constant Matrix: (Units=GPa)
#
#
# Indices 1 2 3 4 5 6 
#
# 1 82.7580 42.8471 21.7700 0.0000 0.0000 0.0000
# 2 42.8471 115.7964 17.7823 0.0000 0.0000 0.0000
# 3 21.7700 17.7823 94.5202 0.0000 0.0000 0.0000
# 4 0.0000 0.0000 0.0000 28.4035 0.0000 0.0000
# 5 0.0000 0.0000 0.0000 0.0000 10.1673 0.0000
# 6 0.0000 0.0000 0.0000 0.0000 0.0000 33.7168
#
#
#
# Elastic Compliance Matrix: (Units=1/GPa)
#
#
# Indices 1 2 3 4 5 6 
#
# 1 0.015530 -0.005352 -0.002570 0.000000 0.000000 0.000000
# 2 -0.005352 0.010737 -0.000787 0.000000 0.000000 0.000000
# 3 -0.002570 -0.000787 0.011320 0.000000 0.000000 0.000000
# 4 0.000000 0.000000 0.000000 0.035207 0.000000 0.000000
# 5 0.000000 0.000000 0.000000 0.000000 0.098355 0.000000
# 6 0.000000 0.000000 0.000000 0.000000 0.000000 0.029659
#
#
# Mechanical properties :
#
#
# Convention : Reuss Voigt Hill
#
# Bulk Modulus (GPa) = 49.58201 50.87482 50.22841
# Shear Modulus (GPa) = 22.22721 28.50252 25.36487
#
# Velocity S-wave (km/s) = 3.37507 3.82192 3.60543
# Velocity P-wave (km/s) = 6.37167 6.74898 6.56303
#
# Compressibility (1/GPa) = 0.02016860
#
# Stress axis : x y z
#
# Youngs Moduli (GPa) = 64.38990 93.13533 88.34057
#
# Poissons Ratio (x) = 0.49845 0.22705
# Poissons Ratio (y) = 0.34461 0.06955
# Poissons Ratio (z) = 0.16549 0.07333
#
# Static dielectric constant tensor:
#      x y z
#    x 1.697170 0.000000 0.000000 
#    y 0.000000 1.729390 0.000000 
#    z 0.000000 0.000000 1.727940 
# 
# From -- ./inp_files/17009.got.cif
#   From: 2010.05.17/outbox.cif.g08.bks.cpg/sg60_9_cif.got.tgz:17009.got - 2010.06.03 14:59:27.
