data_PCOD9455763
_publ_section_title
;
Structure prediction by ZEFSAII (Michael W. Deem and Ramdas Pophale) SiO2 
 PCOD9455763
Probable space group: P B C N
;
_chemical_formula_sum "Si O2"
_cell_formula_units_Z 40
_cell_length_a 15.571027
_cell_length_b 8.756597
_cell_length_c 11.966179
_cell_angle_alpha 90.000000
_cell_angle_beta 90.000000
_cell_angle_gamma 90.000000
_cell_volume 1631.579033
_symmetry_space_group_name_H-M "P B C N"
_symmetry_group_IT_number 60
_symmetry_cell_setting 'orthorhombic'
loop_
_space_group_symop_operation_xyz
x,y,z
1/2-x,1/2-y,1/2+z
1/2+x,1/2-y,-z
-x,y,1/2-z
-x,-y,-z
1/2+x,1/2+y,1/2-z
1/2-x,1/2+y,z
x,-y,1/2+z
loop_
_atom_site_type_symbol
_atom_site_label
_atom_site_fract_x
_atom_site_fract_y
_atom_site_fract_z
Si Si1 0.987003 0.223733 0.882764
Si Si2 0.231709 0.659193 0.290989
Si Si3 0.672817 0.542718 0.840991
Si Si4 0.837803 0.218810 0.490169
Si Si5 0.417653 0.030986 0.674920
O O1 0.949456 0.392707 0.906561
O O2 0.000000 0.233127 0.750000
O O3 0.075647 0.185101 0.940405
O O4 0.916328 0.094243 0.893322
O O5 0.320381 0.573804 0.263377
O O6 0.224414 0.707257 0.418531
O O7 0.154934 0.541995 0.256830
O O8 0.213274 0.803900 0.210207
O O9 0.708054 0.428401 0.936007
O O10 0.874367 0.336413 0.397584
O O11 0.500000 0.079346 0.750000
#
# Coordination Sequence:
#
# PCOD9455763 Si02
#       5
#     8   8   8   8   8
#     4  10  20  45  73 103 143 183 240 299 347 432
#     4  11  25  47  67 102 151 179 242 303 353 445
#     4  11  25  44  68 102 141 189 244 294 359 437
#     4  12  23  44  78 102 143 197 233 298 380 411
#     4  10  21  42  72 110 140 179 239 289 351 443
#
# _framework density 24.516127000000001
#
# number of rings (size 3 to 8) (size 9 to 14) (size 15 to 20)
#    0.000    1.200    6.000    2.400    0.000    4.000 
#    3.600    2.000    0.000    0.000    0.000    0.000 
#    0.000    0.000    0.000    0.000    0.000    0.000 
#
# Total GULP energy -223398.362308 kJ/mol
# GULP energy per Si atom -5584.959058 kJ/mol
# Density = 2.446033 g / cm^3
# Si number density = 24.516127 Si / 1000 Ang^3
#
#
#
# Elastic Constant Matrix: (Units=GPa)
#
#
# Indices 1 2 3 4 5 6 
#
# 1 52.9806 40.2239 32.3957 0.0000 0.0000 0.0000
# 2 40.2239 113.6387 65.1923 0.0000 0.0000 0.0000
# 3 32.3957 65.1923 97.8134 0.0000 0.0000 0.0000
# 4 0.0000 0.0000 0.0000 42.2347 0.0000 0.0000
# 5 0.0000 0.0000 0.0000 0.0000 34.1851 0.0000
# 6 0.0000 0.0000 0.0000 0.0000 0.0000 22.3730
#
#
#
# Elastic Compliance Matrix: (Units=1/GPa)
#
#
# Indices 1 2 3 4 5 6 
#
# 1 0.026806 -0.007116 -0.004135 0.000000 0.000000 0.000000
# 2 -0.007116 0.016136 -0.008398 0.000000 0.000000 0.000000
# 3 -0.004135 -0.008398 0.017190 0.000000 0.000000 0.000000
# 4 0.000000 0.000000 0.000000 0.023677 0.000000 0.000000
# 5 0.000000 0.000000 0.000000 0.000000 0.029252 0.000000
# 6 0.000000 0.000000 0.000000 0.000000 0.000000 0.044697
#
#
# Mechanical properties :
#
#
# Convention : Reuss Voigt Hill
#
# Bulk Modulus (GPa) = 47.99818 60.00626 54.00222
# Shear Modulus (GPa) = 24.50945 28.19994 26.35470
#
# Velocity S-wave (km/s) = 3.16528 3.39523 3.28227
# Velocity P-wave (km/s) = 5.74277 6.31660 6.03651
#
# Compressibility (1/GPa) = 0.02083412
#
# Stress axis : x y z
#
# Youngs Moduli (GPa) = 37.30502 61.97166 58.17180
#
# Poissons Ratio (x) = 0.44099 0.24056
# Poissons Ratio (y) = 0.26546 0.48853
# Poissons Ratio (z) = 0.15427 0.52044
#
# Static dielectric constant tensor:
#      x y z
#    x 2.074620 0.000000 0.000000 
#    y 0.000000 2.031090 0.000000 
#    z 0.000000 0.000000 1.968690 
# 
# From -- ./inp_files/12324.got.cif
#   From: 2010.05.17/outbox.cif.g08.bks.cpg/sg60_7_cif.got.tgz:12324.got - 2010.06.03 14:59:27.
