data_PCOD9455174
_publ_section_title
;
Structure prediction by ZEFSAII (Michael W. Deem and Ramdas Pophale) SiO2 
 PCOD9455174
Probable space group: P B C N
;
_chemical_formula_sum "Si O2"
_cell_formula_units_Z 44
_cell_length_a 17.608930
_cell_length_b 8.104251
_cell_length_c 11.103852
_cell_angle_alpha 90.000000
_cell_angle_beta 90.000000
_cell_angle_gamma 90.000000
_cell_volume 1584.599501
_symmetry_space_group_name_H-M "P B C N"
_symmetry_group_IT_number 60
_symmetry_cell_setting 'orthorhombic'
loop_
_space_group_symop_operation_xyz
x,y,z
1/2-x,1/2-y,1/2+z
1/2+x,1/2-y,-z
-x,y,1/2-z
-x,-y,-z
1/2+x,1/2+y,1/2-z
1/2-x,1/2+y,z
x,-y,1/2+z
loop_
_atom_site_type_symbol
_atom_site_label
_atom_site_fract_x
_atom_site_fract_y
_atom_site_fract_z
Si Si1 0.315894 0.542110 0.644314
Si Si2 0.000000 0.346634 0.750000
Si Si3 0.896066 0.341570 0.224486
Si Si4 0.245743 0.711586 0.311135
Si Si5 0.436308 0.732207 0.512129
Si Si6 0.157434 0.571604 0.528092
O O1 0.305880 0.721911 0.704064
O O2 0.305959 0.425384 0.761286
O O3 0.383039 0.578455 0.551048
O O4 0.238291 0.505821 0.575745
O O5 0.932105 0.476721 0.728958
O O6 0.993450 0.244089 0.874299
O O7 0.810953 0.349294 0.167234
O O8 0.879252 0.311915 0.366922
O O9 0.947210 0.230687 0.133622
O O10 0.189501 0.681145 0.419766
O O11 0.400080 0.918840 0.516492
#
# Coordination Sequence:
#
# PCOD9455174 Si02
#       6
#     8   4   8   8   8   8
#     4  11  22  36  60  95 136 167 208 268 342 408
#     4  10  24  42  68  92 130 182 238 270 330 398
#     4  10  22  40  64  94 128 172 228 279 324 397
#     4  11  22  37  62  98 137 168 207 273 349 409
#     4  11  21  41  64  97 131 175 225 275 324 403
#     4  10  20  36  61  95 131 165 208 270 342 395
#
# _framework density 27.767268999999999
#
# number of rings (size 3 to 8) (size 9 to 14) (size 15 to 20)
#    0.000    1.455    3.636    2.727    2.545    0.000 
#    0.000    0.909    0.000    2.182    0.000    0.000 
#    0.000    0.000    0.000    0.000    0.000    0.000 
#
# Total GULP energy -245176.144302 kJ/mol
# GULP energy per Si atom -5572.185098 kJ/mol
# Density = 2.770407 g / cm^3
# Si number density = 27.767269 Si / 1000 Ang^3
#
#
#
# Elastic Constant Matrix: (Units=GPa)
#
#
# Indices 1 2 3 4 5 6 
#
# 1 66.9692 15.8271 15.8083 0.0000 0.0000 0.0000
# 2 15.8271 56.0483 36.6840 0.0000 0.0000 0.0000
# 3 15.8083 36.6840 147.8961 0.0000 0.0000 0.0000
# 4 0.0000 0.0000 0.0000 28.4387 0.0000 0.0000
# 5 0.0000 0.0000 0.0000 0.0000 43.4778 0.0000
# 6 0.0000 0.0000 0.0000 0.0000 0.0000 26.0402
#
#
#
# Elastic Compliance Matrix: (Units=1/GPa)
#
#
# Indices 1 2 3 4 5 6 
#
# 1 0.016062 -0.004073 -0.000707 0.000000 0.000000 0.000000
# 2 -0.004073 0.022333 -0.005104 0.000000 0.000000 0.000000
# 3 -0.000707 -0.005104 0.008103 0.000000 0.000000 0.000000
# 4 0.000000 0.000000 0.000000 0.035163 0.000000 0.000000
# 5 0.000000 0.000000 0.000000 0.000000 0.023000 0.000000
# 6 0.000000 0.000000 0.000000 0.000000 0.000000 0.038402
#
#
# Mechanical properties :
#
#
# Convention : Reuss Voigt Hill
#
# Bulk Modulus (GPa) = 37.41119 45.28360 41.34740
# Shear Modulus (GPa) = 29.11376 33.09760 31.10568
#
# Velocity S-wave (km/s) = 3.24156 3.45623 3.35061
# Velocity P-wave (km/s) = 5.24525 5.68076 5.46734
#
# Compressibility (1/GPa) = 0.02672997
#
# Stress axis : x y z
#
# Youngs Moduli (GPa) = 62.26016 44.77779 123.41099
#
# Poissons Ratio (x) = 0.18238 0.08719
# Poissons Ratio (y) = 0.25359 0.62989
# Poissons Ratio (z) = 0.04399 0.22854
#
# Static dielectric constant tensor:
#      x y z
#    x 2.271500 0.000000 0.000000 
#    y 0.000000 2.256640 0.000000 
#    z 0.000000 0.000000 2.469320 
# 
# From -- ./inp_files/13024.got.cif
#   From: 2010.05.17/outbox.cif.g08.bks.cpg/sg60_7_cif.got.tgz:13024.got - 2010.06.03 14:59:27.
