data_PCOD9455694
_publ_section_title
;
Structure prediction by ZEFSAII (Michael W. Deem and Ramdas Pophale) SiO2 
 PCOD9455694
Probable space group: P B C N
;
_chemical_formula_sum "Si O2"
_cell_formula_units_Z 56
_cell_length_a 22.051006
_cell_length_b 11.879658
_cell_length_c 8.662125
_cell_angle_alpha 90.000000
_cell_angle_beta 90.000000
_cell_angle_gamma 90.000000
_cell_volume 2269.116491
_symmetry_space_group_name_H-M "P B C N"
_symmetry_group_IT_number 60
_symmetry_cell_setting 'orthorhombic'
loop_
_space_group_symop_operation_xyz
x,y,z
1/2-x,1/2-y,1/2+z
1/2+x,1/2-y,-z
-x,y,1/2-z
-x,-y,-z
1/2+x,1/2+y,1/2-z
1/2-x,1/2+y,z
x,-y,1/2+z
loop_
_atom_site_type_symbol
_atom_site_label
_atom_site_fract_x
_atom_site_fract_y
_atom_site_fract_z
Si Si1 0.903532 0.633388 0.980117
Si Si2 0.635363 0.461813 0.105966
Si Si3 0.268665 0.879666 0.431562
Si Si4 0.947164 0.062881 0.857971
Si Si5 0.524814 0.238568 0.580685
Si Si6 0.658778 0.057415 0.278785
Si Si7 0.147796 0.778922 0.785099
O O1 0.879670 0.625747 0.153894
O O2 0.883606 0.523383 0.883417
O O3 0.870714 0.735234 0.885041
O O4 0.975952 0.648094 0.974213
O O5 0.698806 0.411653 0.056343
O O6 0.605005 0.393162 0.244197
O O7 0.643004 0.589722 0.173662
O O8 0.586586 0.477233 0.970651
O O9 0.299070 0.878245 0.599648
O O10 0.287571 0.766892 0.341466
O O11 0.298810 0.976926 0.326005
O O12 0.000000 0.015095 0.750000
O O13 0.974858 0.161509 0.958922
O O14 0.500000 0.271277 0.750000
O O15 0.595734 0.214890 0.611437
#
# Coordination Sequence:
#
# PCOD9455694 Si02
#       7
#     8   8   8   8   8   8   8
#     4   9  18  37  65  97 139 182 224 279 343 404
#     4  11  24  44  68  95 131 178 224 283 352 411
#     4  10  20  42  65  91 132 174 225 281 337 404
#     4  11  25  43  66  96 131 172 223 281 345 416
#     4   9  20  42  67  99 141 181 223 280 343 411
#     4   9  19  37  64  96 132 178 227 281 336 402
#     4   9  21  41  65  94 133 177 225 283 343 406
#
# _framework density 24.679209
#
# number of rings (size 3 to 8) (size 9 to 14) (size 15 to 20)
#    0.000    2.286    0.000    1.286    0.000   10.286 
#    0.000   36.429    0.000    0.000    0.000    0.000 
#    0.000    0.000    0.000    0.000    0.000    0.000 
#
# Total GULP energy -313490.213369 kJ/mol
# GULP energy per Si atom -5598.039524 kJ/mol
# Density = 2.462304 g / cm^3
# Si number density = 24.679209 Si / 1000 Ang^3
#
#
#
# Elastic Constant Matrix: (Units=GPa)
#
#
# Indices 1 2 3 4 5 6 
#
# 1 150.3357 49.7971 64.9498 0.0000 0.0000 0.0000
# 2 49.7971 77.6487 37.0931 0.0000 0.0000 0.0000
# 3 64.9498 37.0931 145.6408 0.0000 0.0000 0.0000
# 4 0.0000 0.0000 0.0000 35.1300 0.0000 0.0000
# 5 0.0000 0.0000 0.0000 0.0000 44.5237 0.0000
# 6 0.0000 0.0000 0.0000 0.0000 0.0000 13.4029
#
#
#
# Elastic Compliance Matrix: (Units=1/GPa)
#
#
# Indices 1 2 3 4 5 6 
#
# 1 0.009510 -0.004637 -0.003060 0.000000 0.000000 0.000000
# 2 -0.004637 0.016923 -0.002242 0.000000 0.000000 0.000000
# 3 -0.003060 -0.002242 0.008802 0.000000 0.000000 0.000000
# 4 0.000000 0.000000 0.000000 0.028466 0.000000 0.000000
# 5 0.000000 0.000000 0.000000 0.000000 0.022460 0.000000
# 6 0.000000 0.000000 0.000000 0.000000 0.000000 0.074611
#
#
# Mechanical properties :
#
#
# Convention : Reuss Voigt Hill
#
# Bulk Modulus (GPa) = 65.11861 75.25615 70.18738
# Shear Modulus (GPa) = 26.91518 33.39701 30.15609
#
# Velocity S-wave (km/s) = 3.30601 3.68264 3.49939
# Velocity P-wave (km/s) = 6.40439 6.97441 6.69547
#
# Compressibility (1/GPa) = 0.01535659
#
# Stress axis : x y z
#
# Youngs Moduli (GPa) = 105.15550 59.08972 113.61158
#
# Poissons Ratio (x) = 0.27400 0.34765
# Poissons Ratio (y) = 0.48760 0.25475
# Poissons Ratio (z) = 0.32177 0.13250
#
# Static dielectric constant tensor:
#      x y z
#    x 1.952190 0.000000 0.000000 
#    y 0.000000 1.958410 0.000000 
#    z 0.000000 0.000000 1.956690 
# 
# From -- ./inp_files/7427.got.cif
#   From: 2010.05.17/outbox.cif.g08.bks.cpg/sg60_4_cif.got.tgz:7427.got - 2010.06.03 14:59:27.
