data_PCOD9455505
_publ_section_title
;
Structure prediction by ZEFSAII (Michael W. Deem and Ramdas Pophale) SiO2 
 PCOD9455505
Probable space group: P B C N
;
_chemical_formula_sum "Si O2"
_cell_formula_units_Z 44
_cell_length_a 5.094348
_cell_length_b 28.990323
_cell_length_c 10.872274
_cell_angle_alpha 90.000000
_cell_angle_beta 90.000000
_cell_angle_gamma 90.000000
_cell_volume 1605.691290
_symmetry_space_group_name_H-M "P B C N"
_symmetry_group_IT_number 60
_symmetry_cell_setting 'orthorhombic'
loop_
_space_group_symop_operation_xyz
x,y,z
1/2-x,1/2-y,1/2+z
1/2+x,1/2-y,-z
-x,y,1/2-z
-x,-y,-z
1/2+x,1/2+y,1/2-z
1/2-x,1/2+y,z
x,-y,1/2+z
loop_
_atom_site_type_symbol
_atom_site_label
_atom_site_fract_x
_atom_site_fract_y
_atom_site_fract_z
Si Si1 0.798983 0.848635 0.580241
Si Si2 0.630080 0.549569 0.130964
Si Si3 0.870040 0.507702 0.390810
Si Si4 0.500000 0.920981 0.250000
Si Si5 0.313009 0.248279 0.414302
Si Si6 0.796604 0.345215 0.091439
O O1 0.788787 0.897718 0.647324
O O2 0.744929 0.800581 0.650357
O O3 0.578671 0.848109 0.474317
O O4 0.078973 0.847096 0.514214
O O5 0.500000 0.524854 0.250000
O O6 0.344051 0.545939 0.064706
O O7 0.834551 0.519667 0.050948
O O8 0.846719 0.455543 0.339389
O O9 0.000000 0.529115 0.250000
O O10 0.296753 0.887650 0.317151
O O11 0.604762 0.249854 0.471208
O O12 0.250415 0.295623 0.344644
#
# Coordination Sequence:
#
# PCOD9455505 Si02
#       6
#     8   8   8   4   8   8
#     4  10  20  39  64  87 122 161 198 241 313 369
#     4  12  23  42  59  91 119 155 209 254 299 366
#     4  12  26  43  63  86 125 165 206 258 320 365
#     4  12  24  42  62  90 124 158 214 262 300 364
#     4   8  16  34  58  85 117 151 191 239 297 365
#     4  10  22  37  61  92 119 159 199 250 302 367
#
# _framework density 27.402525000000001
#
# number of rings (size 3 to 8) (size 9 to 14) (size 15 to 20)
#    0.000    1.455    1.818    3.818    0.000    3.636 
#    1.636    0.000    0.000    0.000    0.000    0.000 
#    0.000    0.000    0.000    0.000    0.000    0.000 
#
# Total GULP energy -245565.278053 kJ/mol
# GULP energy per Si atom -5581.029047 kJ/mol
# Density = 2.734016 g / cm^3
# Si number density = 27.402525 Si / 1000 Ang^3
#
#
#
# Elastic Constant Matrix: (Units=GPa)
#
#
# Indices 1 2 3 4 5 6 
#
# 1 138.4768 38.1693 -4.1131 0.0000 0.0000 0.0000
# 2 38.1693 272.3872 49.8261 0.0000 0.0000 0.0000
# 3 -4.1131 49.8261 91.1893 0.0000 0.0000 0.0000
# 4 0.0000 0.0000 0.0000 13.1514 0.0000 0.0000
# 5 0.0000 0.0000 0.0000 0.0000 29.6584 0.0000
# 6 0.0000 0.0000 0.0000 0.0000 0.0000 36.1344
#
#
#
# Elastic Compliance Matrix: (Units=1/GPa)
#
#
# Indices 1 2 3 4 5 6 
#
# 1 0.007597 -0.001252 0.001027 0.000000 0.000000 0.000000
# 2 -0.001252 0.004285 -0.002398 0.000000 0.000000 0.000000
# 3 0.001027 -0.002398 0.012323 0.000000 0.000000 0.000000
# 4 0.000000 0.000000 0.000000 0.076038 0.000000 0.000000
# 5 0.000000 0.000000 0.000000 0.000000 0.033717 0.000000
# 6 0.000000 0.000000 0.000000 0.000000 0.000000 0.027674
#
#
# Mechanical properties :
#
#
# Convention : Reuss Voigt Hill
#
# Bulk Modulus (GPa) = 52.74700 74.42420 63.58560
# Shear Modulus (GPa) = 28.86815 43.66691 36.26753
#
# Velocity S-wave (km/s) = 3.24926 3.99624 3.64196
# Velocity P-wave (km/s) = 5.77648 6.96504 6.39842
#
# Compressibility (1/GPa) = 0.01895842
#
# Stress axis : x y z
#
# Youngs Moduli (GPa) = 131.62825 233.34992 81.15018
#
# Poissons Ratio (x) = 0.29226 -0.08334
# Poissons Ratio (y) = 0.16486 0.19460
# Poissons Ratio (z) = -0.13518 0.55959
#
# Static dielectric constant tensor:
#      x y z
#    x 1.465950 0.000000 0.000000 
#    y 0.000000 2.157360 0.000000 
#    z 0.000000 0.000000 3.143610 
# 
# From -- ./inp_files/14023.got.cif
#   From: 2010.05.17/outbox.cif.g08.bks.cpg/sg60_8_cif.got.tgz:14023.got - 2010.06.03 14:59:27.
