data_PCOD9455248
_publ_section_title
;
Structure prediction by ZEFSAII (Michael W. Deem and Ramdas Pophale) SiO2 
 PCOD9455248
Probable space group: P B C N
;
_chemical_formula_sum "Si O2"
_cell_formula_units_Z 64
_cell_length_a 9.122721
_cell_length_b 18.166925
_cell_length_c 14.996773
_cell_angle_alpha 90.000000
_cell_angle_beta 90.000000
_cell_angle_gamma 90.000000
_cell_volume 2485.442007
_symmetry_space_group_name_H-M "P B C N"
_symmetry_group_IT_number 60
_symmetry_cell_setting 'orthorhombic'
loop_
_space_group_symop_operation_xyz
x,y,z
1/2-x,1/2-y,1/2+z
1/2+x,1/2-y,-z
-x,y,1/2-z
-x,-y,-z
1/2+x,1/2+y,1/2-z
1/2-x,1/2+y,z
x,-y,1/2+z
loop_
_atom_site_type_symbol
_atom_site_label
_atom_site_fract_x
_atom_site_fract_y
_atom_site_fract_z
Si Si1 0.294662 0.688193 0.911973
Si Si2 0.627329 0.333668 0.825838
Si Si3 0.830180 0.992425 0.329715
Si Si4 0.888996 0.024817 0.577754
Si Si5 0.580204 0.256321 0.343467
Si Si6 0.021914 0.296207 0.060840
Si Si7 0.803715 0.641260 0.780947
Si Si8 0.358416 0.052482 0.496762
O O1 0.327051 0.605267 0.941052
O O2 0.442784 0.736695 0.911471
O O3 0.235318 0.683667 0.809696
O O4 0.149698 0.712668 0.963466
O O5 0.500000 0.318644 0.750000
O O6 0.650334 0.420605 0.823422
O O7 0.795568 0.304702 0.827748
O O8 0.572149 0.286213 0.911160
O O9 0.732028 0.943868 0.261950
O O10 0.735586 0.973194 0.417969
O O11 0.998905 0.967837 0.341054
O O12 0.755683 0.966902 0.582345
O O13 0.000000 0.000000 0.500000
O O14 0.500000 0.258303 0.250000
O O15 0.676479 0.330473 0.349829
O O16 0.054739 0.337863 0.160143
O O17 0.092916 0.362720 0.002640
O O18 0.500000 0.000000 0.500000
#
# Coordination Sequence:
#
# PCOD9455248 Si02
#       8
#     8   8   8   8   8   8   8   8
#     4  11  18  32  63  87 112 147 207 248 306 361
#     4  11  23  38  57  86 132 165 192 241 319 382
#     4  10  22  38  58  88 122 157 195 257 320 361
#     4  10  21  35  59  87 111 151 201 255 304 349
#     4   9  18  33  55  83 113 155 196 236 285 369
#     4  10  20  37  60  87 119 163 199 253 307 373
#     4   9  18  32  57  88 113 146 198 252 296 369
#     4  10  20  41  64  86 117 151 217 268 298 353
#
# _framework density 25.749948
#
# number of rings (size 3 to 8) (size 9 to 14) (size 15 to 20)
#    0.000    2.000    2.500    2.625    3.500    0.000 
#    0.000    6.250    0.000    0.000    0.000    0.000 
#    0.000    0.000    0.000    0.000    0.000    0.000 
#
# Total GULP energy -356718.554915 kJ/mol
# GULP energy per Si atom -5573.727421 kJ/mol
# Density = 2.569134 g / cm^3
# Si number density = 25.749948 Si / 1000 Ang^3
#
#
#
# Elastic Constant Matrix: (Units=GPa)
#
#
# Indices 1 2 3 4 5 6 
#
# 1 208.1640 57.7370 3.2761 0.0000 0.0000 0.0000
# 2 57.7370 164.4032 -2.2665 0.0000 0.0000 0.0000
# 3 3.2761 -2.2665 36.7354 0.0000 0.0000 0.0000
# 4 0.0000 0.0000 0.0000 0.3169 0.0000 0.0000
# 5 0.0000 0.0000 0.0000 0.0000 38.0363 0.0000
# 6 0.0000 0.0000 0.0000 0.0000 0.0000 43.7544
#
#
#
# Elastic Compliance Matrix: (Units=1/GPa)
#
#
# Indices 1 2 3 4 5 6 
#
# 1 0.005335 -0.001882 -0.000592 0.000000 0.000000 0.000000
# 2 -0.001882 0.006752 0.000584 0.000000 0.000000 0.000000
# 3 -0.000592 0.000584 0.027311 0.000000 0.000000 0.000000
# 4 0.000000 0.000000 0.000000 3.155484 0.000000 0.000000
# 5 0.000000 0.000000 0.000000 0.000000 0.026291 0.000000
# 6 0.000000 0.000000 0.000000 0.000000 0.000000 0.022855
#
#
# Mechanical properties :
#
#
# Convention : Reuss Voigt Hill
#
# Bulk Modulus (GPa) = 28.07527 58.53288 43.30407
# Shear Modulus (GPa) = 1.53389 39.79193 20.66291
#
# Velocity S-wave (km/s) = 0.77265 3.93532 2.83582
# Velocity P-wave (km/s) = 3.42384 6.59011 5.25130
#
# Compressibility (1/GPa) = 0.03561854
#
# Stress axis : x y z
#
# Youngs Moduli (GPa) = 187.43556 148.11430 36.61591
#
# Poissons Ratio (x) = 0.27872 0.02167
# Poissons Ratio (y) = 0.35272 -0.02140
# Poissons Ratio (z) = 0.11094 -0.08655
#
# Static dielectric constant tensor:
#      x y z
#    x 5.694160 0.000000 0.000000 
#    y 0.000000 2.203720 0.000000 
#    z 0.000000 0.000000 2.333930 
# 
# From -- ./inp_files/22367.got.cif
#   From: 2010.05.17/outbox.cif.g08.bks.cpg/sg60_12_cif.got.tgz:22367.got - 2010.06.03 14:59:27.
