data_PCOD9455608
_publ_section_title
;
Structure prediction by ZEFSAII (Michael W. Deem and Ramdas Pophale) SiO2 
 PCOD9455608
Probable space group: P B C N
;
_chemical_formula_sum "Si O2"
_cell_formula_units_Z 60
_cell_length_a 8.818045
_cell_length_b 29.871787
_cell_length_c 11.304166
_cell_angle_alpha 90.000000
_cell_angle_beta 90.000000
_cell_angle_gamma 90.000000
_cell_volume 2977.638980
_symmetry_space_group_name_H-M "P B C N"
_symmetry_group_IT_number 60
_symmetry_cell_setting 'orthorhombic'
loop_
_space_group_symop_operation_xyz
x,y,z
1/2-x,1/2-y,1/2+z
1/2+x,1/2-y,-z
-x,y,1/2-z
-x,-y,-z
1/2+x,1/2+y,1/2-z
1/2-x,1/2+y,z
x,-y,1/2+z
loop_
_atom_site_type_symbol
_atom_site_label
_atom_site_fract_x
_atom_site_fract_y
_atom_site_fract_z
Si Si1 0.028496 0.234790 0.109634
Si Si2 0.000000 0.097883 0.250000
Si Si3 0.559563 0.612187 0.880011
Si Si4 0.066680 0.519526 0.378540
Si Si5 0.692429 0.354713 0.937308
Si Si6 0.972599 0.373153 0.615561
Si Si7 0.120535 0.964655 0.955666
Si Si8 0.247542 0.310393 0.023332
O O1 0.148249 0.197004 0.068688
O O2 0.000000 0.232641 0.250000
O O3 0.872536 0.220800 0.042551
O O4 0.111412 0.281003 0.076863
O O5 0.867368 0.126267 0.311079
O O6 0.937963 0.066967 0.147664
O O7 0.500000 0.602750 0.750000
O O8 0.413777 0.622248 0.963937
O O9 0.649497 0.569970 0.936230
O O10 0.661390 0.657230 0.886602
O O11 0.054334 0.573610 0.384252
O O12 0.242374 0.508979 0.395828
O O13 0.000000 0.505708 0.250000
O O14 0.000000 0.500000 0.500000
O O15 0.869442 0.363739 0.952066
O O16 0.832605 0.345422 0.564930
O O17 0.000000 0.358537 0.750000
O O18 0.000000 0.000000 0.000000
#
# Coordination Sequence:
#
# PCOD9455608 Si02
#       8
#     8   4   8   8   8   8   8   8
#     4  11  23  40  66  94 131 164 220 274 323 397
#     4  10  20  40  68  94 126 164 226 268 318 394
#     4  10  24  44  64  91 138 174 222 271 337 402
#     4  11  26  44  66 100 139 176 228 288 344 414
#     4  10  21  39  69  96 123 174 218 267 329 393
#     4  11  22  41  68  92 131 170 218 273 342 397
#     4  11  25  41  70  97 130 177 225 280 336 406
#     4  11  24  42  62  97 127 170 219 269 336 401
#
# _framework density 20.150193000000002
#
# number of rings (size 3 to 8) (size 9 to 14) (size 15 to 20)
#    0.000    1.333    2.000    3.200    8.400    3.200 
#    0.000    2.000    0.000    0.000    0.000    0.000 
#    0.000    0.000    0.000    0.000    0.000    0.000 
#
# Total GULP energy -334922.221860 kJ/mol
# GULP energy per Si atom -5582.037031 kJ/mol
# Density = 2.010433 g / cm^3
# Si number density = 20.150193 Si / 1000 Ang^3
#
#
#
# Elastic Constant Matrix: (Units=GPa)
#
#
# Indices 1 2 3 4 5 6 
#
# 1 102.9830 14.7345 26.5643 0.0000 0.0000 0.0000
# 2 14.7345 52.8709 26.9580 0.0000 0.0000 0.0000
# 3 26.5643 26.9580 119.5735 0.0000 0.0000 0.0000
# 4 0.0000 0.0000 0.0000 22.5223 0.0000 0.0000
# 5 0.0000 0.0000 0.0000 0.0000 28.1711 0.0000
# 6 0.0000 0.0000 0.0000 0.0000 0.0000 31.7652
#
#
#
# Elastic Compliance Matrix: (Units=1/GPa)
#
#
# Indices 1 2 3 4 5 6 
#
# 1 0.010477 -0.001958 -0.001886 0.000000 0.000000 0.000000
# 2 -0.001958 0.021737 -0.004466 0.000000 0.000000 0.000000
# 3 -0.001886 -0.004466 0.009789 0.000000 0.000000 0.000000
# 4 0.000000 0.000000 0.000000 0.044400 0.000000 0.000000
# 5 0.000000 0.000000 0.000000 0.000000 0.035497 0.000000
# 6 0.000000 0.000000 0.000000 0.000000 0.000000 0.031481
#
#
# Mechanical properties :
#
#
# Convention : Reuss Voigt Hill
#
# Bulk Modulus (GPa) = 39.39653 45.77121 42.58387
# Shear Modulus (GPa) = 28.01720 30.30309 29.16015
#
# Velocity S-wave (km/s) = 3.73288 3.88217 3.80826
# Velocity P-wave (km/s) = 6.17843 6.54671 6.36523
#
# Compressibility (1/GPa) = 0.02538294
#
# Stress axis : x y z
#
# Youngs Moduli (GPa) = 95.44701 46.00531 102.15722
#
# Poissons Ratio (x) = 0.09008 0.19268
# Poissons Ratio (y) = 0.18690 0.45619
# Poissons Ratio (z) = 0.18002 0.20544
#
# Static dielectric constant tensor:
#      x y z
#    x 1.813020 0.000000 0.000000 
#    y 0.000000 1.785950 0.000000 
#    z 0.000000 0.000000 1.711210 
# 
# From -- ./inp_files/10351.got.cif
#   From: 2010.05.17/outbox.cif.g08.bks.cpg/sg60_6_cif.got.tgz:10351.got - 2010.06.03 14:59:27.
