data_PCOD9455292
_publ_section_title
;
Structure prediction by ZEFSAII (Michael W. Deem and Ramdas Pophale) SiO2 
 PCOD9455292
Probable space group: P B C N
;
_chemical_formula_sum "Si O2"
_cell_formula_units_Z 40
_cell_length_a 9.782319
_cell_length_b 26.044532
_cell_length_c 8.174321
_cell_angle_alpha 90.000000
_cell_angle_beta 90.000000
_cell_angle_gamma 90.000000
_cell_volume 2082.620155
_symmetry_space_group_name_H-M "P B C N"
_symmetry_group_IT_number 60
_symmetry_cell_setting 'orthorhombic'
loop_
_space_group_symop_operation_xyz
x,y,z
1/2-x,1/2-y,1/2+z
1/2+x,1/2-y,-z
-x,y,1/2-z
-x,-y,-z
1/2+x,1/2+y,1/2-z
1/2-x,1/2+y,z
x,-y,1/2+z
loop_
_atom_site_type_symbol
_atom_site_label
_atom_site_fract_x
_atom_site_fract_y
_atom_site_fract_z
Si Si1 0.797206 0.396615 0.698684
Si Si2 0.522443 0.939411 0.992506
Si Si3 0.983510 0.801983 0.433130
Si Si4 0.000000 0.126888 0.250000
Si Si5 0.831399 0.703077 0.014098
Si Si6 0.500000 0.137627 0.750000
O O1 0.880981 0.422423 0.843944
O O2 0.637728 0.404513 0.720207
O O3 0.823448 0.335817 0.669687
O O4 0.867496 0.420084 0.538692
O O5 0.579592 0.903931 0.138014
O O6 0.500000 0.000000 0.000000
O O7 0.018849 0.838809 0.586206
O O8 0.824803 0.786651 0.461501
O O9 0.000000 0.824680 0.250000
O O10 0.083601 0.753318 0.442640
O O11 0.909798 0.674232 0.865696
#
# Coordination Sequence:
#
# PCOD9455292 Si02
#       6
#     8   8   8   4   8   4
#     4   9  21  39  61  82 124 156 194 252 308 357
#     4  10  20  37  64  91 112 151 197 254 310 374
#     4  11  26  38  62  85 128 166 219 245 296 359
#     4  10  23  44  58  90 126 168 198 254 307 352
#     4  10  24  38  55  89 117 168 202 253 299 348
#     4  10  21  34  60  84 118 146 210 244 307 366
#
# _framework density 19.206575999999998
#
# number of rings (size 3 to 8) (size 9 to 14) (size 15 to 20)
#    0.000    2.000    0.000    1.800   16.800    0.000 
#    0.000    1.000    0.000    0.000    0.000    0.000 
#    0.000    0.000    0.000    0.000    0.000    0.000 
#
# Total GULP energy -222781.319720 kJ/mol
# GULP energy per Si atom -5569.532993 kJ/mol
# Density = 1.916286 g / cm^3
# Si number density = 19.206576 Si / 1000 Ang^3
#
#
#
# Elastic Constant Matrix: (Units=GPa)
#
#
# Indices 1 2 3 4 5 6 
#
# 1 117.4711 28.6453 12.1135 0.0000 0.0000 0.0000
# 2 28.6453 38.9325 13.1099 0.0000 0.0000 0.0000
# 3 12.1135 13.1099 93.2529 0.0000 0.0000 0.0000
# 4 0.0000 0.0000 0.0000 25.2901 0.0000 0.0000
# 5 0.0000 0.0000 0.0000 0.0000 22.4585 0.0000
# 6 0.0000 0.0000 0.0000 0.0000 0.0000 16.1016
#
#
#
# Elastic Compliance Matrix: (Units=1/GPa)
#
#
# Indices 1 2 3 4 5 6 
#
# 1 0.010381 -0.007541 -0.000288 0.000000 0.000000 0.000000
# 2 -0.007541 0.032440 -0.003581 0.000000 0.000000 0.000000
# 3 -0.000288 -0.003581 0.011264 0.000000 0.000000 0.000000
# 4 0.000000 0.000000 0.000000 0.039541 0.000000 0.000000
# 5 0.000000 0.000000 0.000000 0.000000 0.044527 0.000000
# 6 0.000000 0.000000 0.000000 0.000000 0.000000 0.062106
#
#
# Mechanical properties :
#
#
# Convention : Reuss Voigt Hill
#
# Bulk Modulus (GPa) = 31.98499 39.71043 35.84771
# Shear Modulus (GPa) = 21.41314 25.82257 23.61786
#
# Velocity S-wave (km/s) = 3.34261 3.67067 3.51048
# Velocity P-wave (km/s) = 5.62021 6.21976 5.92757
#
# Compressibility (1/GPa) = 0.03126467
#
# Stress axis : x y z
#
# Youngs Moduli (GPa) = 96.32624 30.82625 88.77517
#
# Poissons Ratio (x) = 0.23247 0.02560
# Poissons Ratio (y) = 0.72641 0.31790
# Poissons Ratio (z) = 0.02778 0.11039
#
# Static dielectric constant tensor:
#      x y z
#    x 1.662210 0.000000 0.000000 
#    y 0.000000 1.682020 0.000000 
#    z 0.000000 0.000000 1.603800 
# 
# From -- ./inp_files/3918.got.cif
#   From: 2010.05.17/outbox.cif.g08.bks.cpg/sg60_2_cif.got.tgz:3918.got - 2010.06.03 14:59:27.
