data_PCOD9455014
_publ_section_title
;
Structure prediction by ZEFSAII (Michael W. Deem and Ramdas Pophale) SiO2 
 PCOD9455014
Probable space group: P B C N
;
_chemical_formula_sum "Si O2"
_cell_formula_units_Z 60
_cell_length_a 12.638828
_cell_length_b 8.195988
_cell_length_c 25.117676
_cell_angle_alpha 90.000000
_cell_angle_beta 90.000000
_cell_angle_gamma 90.000000
_cell_volume 2601.881850
_symmetry_space_group_name_H-M "P B C N"
_symmetry_group_IT_number 60
_symmetry_cell_setting 'orthorhombic'
loop_
_space_group_symop_operation_xyz
x,y,z
1/2-x,1/2-y,1/2+z
1/2+x,1/2-y,-z
-x,y,1/2-z
-x,-y,-z
1/2+x,1/2+y,1/2-z
1/2-x,1/2+y,z
x,-y,1/2+z
loop_
_atom_site_type_symbol
_atom_site_label
_atom_site_fract_x
_atom_site_fract_y
_atom_site_fract_z
Si Si1 0.878987 0.675431 0.557993
Si Si2 0.685455 0.851117 0.615598
Si Si3 0.327344 0.145923 0.701444
Si Si4 0.895419 0.232032 0.402962
Si Si5 0.701150 0.419903 0.195894
Si Si6 0.823885 0.410837 0.937762
Si Si7 0.500000 0.574537 0.750000
Si Si8 0.885662 0.715543 0.333667
O O1 0.779550 0.780385 0.579177
O O2 0.879945 0.492362 0.584720
O O3 0.856104 0.644646 0.496161
O O4 0.985941 0.773420 0.573390
O O5 0.650815 0.690893 0.648593
O O6 0.731677 0.951469 0.664595
O O7 0.401991 0.256822 0.662499
O O8 0.283403 0.163021 0.761802
O O9 0.218897 0.175849 0.670271
O O10 0.366361 0.961265 0.693310
O O11 0.800897 0.112784 0.422516
O O12 0.853175 0.403215 0.426452
O O13 0.607881 0.504548 0.230109
O O14 0.897298 0.313234 0.895744
O O15 0.533032 0.691468 0.797886
#
# Coordination Sequence:
#
# PCOD9455014 Si02
#       8
#     8   8   8   8   8   8   4   8
#     4  11  23  45  65  93 133 174 218 270 329 386
#     4  10  24  42  60  89 133 168 217 269 321 392
#     4   9  18  36  59  84 120 155 203 262 309 373
#     4  10  22  41  66  99 122 172 216 267 331 385
#     4  10  20  40  59  87 125 169 206 271 325 387
#     4  10  21  41  65  94 130 165 219 275 314 386
#     4  10  20  34  60  90 116 160 206 246 336 388
#     4   9  19  35  59  87 120 155 205 258 312 380
#
# _framework density 23.060231999999999
#
# number of rings (size 3 to 8) (size 9 to 14) (size 15 to 20)
#    0.000    2.133    0.000    2.800    3.733    0.000 
#   21.600    1.333    0.000    0.000    0.000    0.000 
#    0.000    0.000    0.000    0.000    0.000    0.000 
#
# Total GULP energy -334086.854687 kJ/mol
# GULP energy per Si atom -5568.114245 kJ/mol
# Density = 2.300775 g / cm^3
# Si number density = 23.060232 Si / 1000 Ang^3
#
#
#
# Elastic Constant Matrix: (Units=GPa)
#
#
# Indices 1 2 3 4 5 6 
#
# 1 37.7390 2.4779 12.1369 0.0000 0.0000 0.0000
# 2 2.4779 9.8494 7.1151 0.0000 0.0000 0.0000
# 3 12.1369 7.1151 139.3241 0.0000 0.0000 0.0000
# 4 0.0000 0.0000 0.0000 -13.8223 0.0000 0.0000
# 5 0.0000 0.0000 0.0000 0.0000 13.0420 0.0000
# 6 0.0000 0.0000 0.0000 0.0000 0.0000 23.3021
#
#
#
# Elastic Compliance Matrix: (Units=1/GPa)
#
#
# Indices 1 2 3 4 5 6 
#
# 1 0.027535 -0.005393 -0.002123 0.000000 0.000000 0.000000
# 2 -0.005393 0.106474 -0.004968 0.000000 0.000000 0.000000
# 3 -0.002123 -0.004968 0.007616 0.000000 0.000000 0.000000
# 4 0.000000 0.000000 0.000000 -0.072347 0.000000 0.000000
# 5 0.000000 0.000000 0.000000 0.000000 0.076675 0.000000
# 6 0.000000 0.000000 0.000000 0.000000 0.000000 0.042915
#
#
# Mechanical properties :
#
#
# Convention : Reuss Voigt Hill
#
# Bulk Modulus (GPa) = 8.57215 25.59691 17.08453
# Shear Modulus (GPa) = 19.78458 15.51653 17.65056
#
# Velocity S-wave (km/s) = 2.93226 2.59679 2.76961
# Velocity P-wave (km/s) = 3.89738 4.48500 4.20147
#
# Compressibility (1/GPa) = 0.11665679
#
# Stress axis : x y z
#
# Youngs Moduli (GPa) = 36.31775 9.39195 131.29981
#
# Poissons Ratio (x) = 0.05065 0.27877
# Poissons Ratio (y) = 0.19587 0.65226
# Poissons Ratio (z) = 0.07711 0.04666
#
# Static dielectric constant tensor:
#      x y z
#    x 1.760500 0.000000 0.000000 
#    y 0.000000 1.905130 0.000000 
#    z 0.000000 0.000000 1.742240 
# 
# From -- ./inp_files/25332.got.cif
#   From: 2010.05.17/outbox.cif.g08.bks.cpg/sg60_13_cif.got.tgz:25332.got - 2010.06.03 14:59:27.
