data_PCOD9455958
_publ_section_title
;
Structure prediction by ZEFSAII (Michael W. Deem and Ramdas Pophale) SiO2 
 PCOD9455958
Probable space group: P B C N
;
_chemical_formula_sum "Si O2"
_cell_formula_units_Z 56
_cell_length_a 29.839555
_cell_length_b 15.041292
_cell_length_c 5.444093
_cell_angle_alpha 90.000000
_cell_angle_beta 90.000000
_cell_angle_gamma 90.000000
_cell_volume 2443.447544
_symmetry_space_group_name_H-M "P B C N"
_symmetry_group_IT_number 60
_symmetry_cell_setting 'orthorhombic'
loop_
_space_group_symop_operation_xyz
x,y,z
1/2-x,1/2-y,1/2+z
1/2+x,1/2-y,-z
-x,y,1/2-z
-x,-y,-z
1/2+x,1/2+y,1/2-z
1/2-x,1/2+y,z
x,-y,1/2+z
loop_
_atom_site_type_symbol
_atom_site_label
_atom_site_fract_x
_atom_site_fract_y
_atom_site_fract_z
Si Si1 0.156453 0.833055 0.564615
Si Si2 0.562599 0.056342 0.510304
Si Si3 0.374991 0.689352 0.567093
Si Si4 0.666627 0.943318 0.998850
Si Si5 0.747379 0.193148 0.543940
Si Si6 0.411121 0.497367 0.595746
Si Si7 0.024600 0.747808 0.999191
O O1 0.154930 0.788301 0.831961
O O2 0.206452 0.861982 0.499931
O O3 0.119777 0.910410 0.591627
O O4 0.140668 0.774628 0.331279
O O5 0.614708 0.088469 0.507716
O O6 0.530619 0.141209 0.505233
O O7 0.556370 0.998520 0.262786
O O8 0.377400 0.581787 0.596595
O O9 0.425525 0.714876 0.509435
O O10 0.704801 0.869670 0.016715
O O11 0.671681 0.005727 0.239352
O O12 0.748690 0.263331 0.315855
O O13 0.438102 0.499968 0.845622
O O14 0.000000 0.776015 0.750000
O O15 0.000000 0.773957 0.250000
#
# Coordination Sequence:
#
# PCOD9455958 Si02
#       7
#     8   8   8   8   8   8   8
#     4  10  21  37  63  91 124 178 210 259 303 376
#     4  10  23  43  67  93 123 172 214 259 326 402
#     4  10  21  40  63  93 124 162 212 259 316 388
#     4  10  23  44  66  92 134 184 224 267 326 397
#     4  12  26  40  62 104 141 172 225 282 327 373
#     4   8  16  32  57  85 116 153 209 245 290 358
#     4  12  26  42  66  98 128 160 203 274 341 394
#
# _framework density 22.918437999999998
#
# number of rings (size 3 to 8) (size 9 to 14) (size 15 to 20)
#    0.000    1.714    0.000    3.429    4.000    5.143 
#    0.000    0.000    0.000   23.143    0.000    0.000 
#    0.000    0.000    0.000    0.000    0.000    0.000 
#
# Total GULP energy -312834.338493 kJ/mol
# GULP energy per Si atom -5586.327473 kJ/mol
# Density = 2.286627 g / cm^3
# Si number density = 22.918438 Si / 1000 Ang^3
#
#
#
# Elastic Constant Matrix: (Units=GPa)
#
#
# Indices 1 2 3 4 5 6 
#
# 1 58.8134 15.2990 4.2714 0.0000 0.0000 0.0000
# 2 15.2990 30.6601 14.1039 0.0000 0.0000 0.0000
# 3 4.2714 14.1039 207.0777 0.0000 0.0000 0.0000
# 4 0.0000 0.0000 0.0000 -3.6658 0.0000 0.0000
# 5 0.0000 0.0000 0.0000 0.0000 28.8456 0.0000
# 6 0.0000 0.0000 0.0000 0.0000 0.0000 26.1066
#
#
#
# Elastic Compliance Matrix: (Units=1/GPa)
#
#
# Indices 1 2 3 4 5 6 
#
# 1 0.019554 -0.009881 0.000270 0.000000 0.000000 0.000000
# 2 -0.009881 0.038664 -0.002430 0.000000 0.000000 0.000000
# 3 0.000270 -0.002430 0.004989 0.000000 0.000000 0.000000
# 4 0.000000 0.000000 0.000000 -0.272793 0.000000 0.000000
# 5 0.000000 0.000000 0.000000 0.000000 0.034667 0.000000
# 6 0.000000 0.000000 0.000000 0.000000 0.000000 0.038304
#
#
# Mechanical properties :
#
#
# Convention : Reuss Voigt Hill
#
# Bulk Modulus (GPa) = 25.55939 40.43330 32.99634
# Shear Modulus (GPa) = -50.25534 27.78242 -11.23646
#
# Velocity S-wave (km/s) = -4.68780 3.48549 -2.21663
# Velocity P-wave (km/s) = 4.25725 5.82054 2.80665
#
# Compressibility (1/GPa) = 0.03912457
#
# Stress axis : x y z
#
# Youngs Moduli (GPa) = 51.14133 25.86404 200.44025
#
# Poissons Ratio (x) = 0.25556 -0.05405
# Poissons Ratio (y) = 0.50533 0.48698
# Poissons Ratio (z) = -0.01379 0.06284
#
# Static dielectric constant tensor:
#      x y z
#    x 1.788730 0.000000 0.000000 
#    y 0.000000 1.871120 0.000000 
#    z 0.000000 0.000000 1.880420 
# 
# From -- ./inp_files/2700.got.cif
#   From: 2010.05.17/outbox.cif.g08.bks.cpg/sg60_2_cif.got.tgz:2700.got - 2010.06.03 14:59:27.
