data_PCOD9455015
_publ_section_title
;
Structure prediction by ZEFSAII (Michael W. Deem and Ramdas Pophale) SiO2 
 PCOD9455015
Probable space group: P B C N
;
_chemical_formula_sum "Si O2"
_cell_formula_units_Z 40
_cell_length_a 7.654402
_cell_length_b 23.791230
_cell_length_c 9.127532
_cell_angle_alpha 90.000000
_cell_angle_beta 90.000000
_cell_angle_gamma 90.000000
_cell_volume 1662.193298
_symmetry_space_group_name_H-M "P B C N"
_symmetry_group_IT_number 60
_symmetry_cell_setting 'orthorhombic'
loop_
_space_group_symop_operation_xyz
x,y,z
1/2-x,1/2-y,1/2+z
1/2+x,1/2-y,-z
-x,y,1/2-z
-x,-y,-z
1/2+x,1/2+y,1/2-z
1/2-x,1/2+y,z
x,-y,1/2+z
loop_
_atom_site_type_symbol
_atom_site_label
_atom_site_fract_x
_atom_site_fract_y
_atom_site_fract_z
Si Si1 0.000000 0.008984 0.750000
Si Si2 0.337030 0.422444 0.984196
Si Si3 0.265102 0.304033 0.867447
Si Si4 0.917061 0.574448 0.512317
Si Si5 0.854930 0.305863 0.955241
Si Si6 0.500000 0.992073 0.750000
O O1 0.905433 0.964569 0.640104
O O2 0.088654 0.052427 0.634484
O O3 0.366593 0.357763 0.933929
O O4 0.127058 0.422244 0.003124
O O5 0.328871 0.246341 0.938822
O O6 0.261814 0.301820 0.691136
O O7 0.058732 0.308310 0.908467
O O8 0.824993 0.633557 0.529248
O O9 0.889487 0.532688 0.645442
O O10 0.880359 0.546180 0.355250
#
# Coordination Sequence:
#
# PCOD9455015 Si02
#       6
#     4   8   8   8   8   4
#     4  10  22  38  62  94 128 174 212 254 310 378
#     4  10  21  39  61  89 127 163 211 258 311 372
#     4  10  23  43  64  91 124 164 211 265 317 377
#     4  10  20  38  61  91 124 163 205 260 315 373
#     4  10  23  42  65  91 125 163 211 264 319 378
#     4  10  20  34  60  90 120 154 200 248 314 376
#
# _framework density 24.064591
#
# number of rings (size 3 to 8) (size 9 to 14) (size 15 to 20)
#    0.000    2.000    0.000    3.600    0.000    8.800 
#    0.000    6.000    0.000    4.800    0.000    0.000 
#    0.000    0.000    0.000    0.000    0.000    0.000 
#
# Total GULP energy -223727.732556 kJ/mol
# GULP energy per Si atom -5593.193314 kJ/mol
# Density = 2.400982 g / cm^3
# Si number density = 24.064591 Si / 1000 Ang^3
#
#
#
# Elastic Constant Matrix: (Units=GPa)
#
#
# Indices 1 2 3 4 5 6 
#
# 1 50.7681 51.8653 66.8038 0.0000 0.0000 0.0000
# 2 51.8653 261.5620 100.0101 0.0000 0.0000 0.0000
# 3 66.8038 100.0101 146.1916 0.0000 0.0000 0.0000
# 4 0.0000 0.0000 0.0000 35.1916 0.0000 0.0000
# 5 0.0000 0.0000 0.0000 0.0000 32.7296 0.0000
# 6 0.0000 0.0000 0.0000 0.0000 0.0000 39.4199
#
#
#
# Elastic Compliance Matrix: (Units=1/GPa)
#
#
# Indices 1 2 3 4 5 6 
#
# 1 0.049889 -0.001592 -0.021708 0.000000 0.000000 0.000000
# 2 -0.001592 0.005228 -0.002849 0.000000 0.000000 0.000000
# 3 -0.021708 -0.002849 0.018709 0.000000 0.000000 0.000000
# 4 0.000000 0.000000 0.000000 0.028416 0.000000 0.000000
# 5 0.000000 0.000000 0.000000 0.000000 0.030553 0.000000
# 6 0.000000 0.000000 0.000000 0.000000 0.000000 0.025368
#
#
# Mechanical properties :
#
#
# Convention : Reuss Voigt Hill
#
# Bulk Modulus (GPa) = 46.45213 99.54223 72.99718
# Shear Modulus (GPa) = 22.97399 37.45774 30.21587
#
# Velocity S-wave (km/s) = 3.09314 3.94959 3.54731
# Velocity P-wave (km/s) = 5.66584 7.89009 6.86859
#
# Compressibility (1/GPa) = 0.02152754
#
# Stress axis : x y z
#
# Youngs Moduli (GPa) = 20.04461 191.26737 53.45011
#
# Poissons Ratio (x) = 0.30456 1.16029
# Poissons Ratio (y) = 0.03192 0.15228
# Poissons Ratio (z) = 0.43513 0.54493
#
# Static dielectric constant tensor:
#      x y z
#    x 2.049480 0.000000 0.000000 
#    y 0.000000 1.909710 0.000000 
#    z 0.000000 0.000000 2.156970 
# 
# From -- ./inp_files/3900.got.cif
#   From: 2010.05.17/outbox.cif.g08.bks.cpg/sg60_2_cif.got.tgz:3900.got - 2010.06.03 14:59:27.
