data_PCOD9455688
_publ_section_title
;
Structure prediction by ZEFSAII (Michael W. Deem and Ramdas Pophale) SiO2 
 PCOD9455688
Probable space group: P B C N
;
_chemical_formula_sum "Si O2"
_cell_formula_units_Z 44
_cell_length_a 7.326489
_cell_length_b 16.553242
_cell_length_c 13.967488
_cell_angle_alpha 90.000000
_cell_angle_beta 90.000000
_cell_angle_gamma 90.000000
_cell_volume 1693.937073
_symmetry_space_group_name_H-M "P B C N"
_symmetry_group_IT_number 60
_symmetry_cell_setting 'orthorhombic'
loop_
_space_group_symop_operation_xyz
x,y,z
1/2-x,1/2-y,1/2+z
1/2+x,1/2-y,-z
-x,y,1/2-z
-x,-y,-z
1/2+x,1/2+y,1/2-z
1/2-x,1/2+y,z
x,-y,1/2+z
loop_
_atom_site_type_symbol
_atom_site_label
_atom_site_fract_x
_atom_site_fract_y
_atom_site_fract_z
Si Si1 0.000000 0.267744 0.750000
Si Si2 0.218552 0.606393 0.335474
Si Si3 0.038225 0.003708 0.643014
Si Si4 0.967421 0.528767 0.892258
Si Si5 0.381664 0.187347 0.538077
Si Si6 0.470943 0.665055 0.925817
O O1 0.834414 0.335374 0.752936
O O2 0.089221 0.208417 0.828667
O O3 0.426236 0.580010 0.355385
O O4 0.139073 0.649360 0.431143
O O5 0.111102 0.521377 0.330705
O O6 0.255472 0.006226 0.627853
O O7 0.946407 0.069328 0.571518
O O8 0.000000 0.035871 0.750000
O O9 0.001909 0.625871 0.898995
O O10 0.000000 0.500000 0.000000
O O11 0.186423 0.179839 0.584956
O O12 0.420202 0.280439 0.516727
#
# Coordination Sequence:
#
# PCOD9455688 Si02
#       6
#     4   8   8   8   8   8
#     4  10  20  42  64  88 132 174 202 274 336 382
#     4  10  21  39  64  90 125 166 216 263 325 386
#     4  11  22  38  64  96 125 169 215 267 327 392
#     4   9  20  38  61  93 123 159 210 268 315 380
#     4   9  21  38  58  92 117 165 207 257 323 379
#     4  10  21  39  62  87 130 162 209 262 324 386
#
# _framework density 25.974990999999999
#
# number of rings (size 3 to 8) (size 9 to 14) (size 15 to 20)
#    0.000    2.182    0.909    1.091    2.545    6.545 
#    9.818    0.000    0.000    0.000    0.000    0.000 
#    0.000    0.000    0.000    0.000    0.000    0.000 
#
# Total GULP energy -245232.441845 kJ/mol
# GULP energy per Si atom -5573.464587 kJ/mol
# Density = 2.591587 g / cm^3
# Si number density = 25.974991 Si / 1000 Ang^3
#
#
#
# Elastic Constant Matrix: (Units=GPa)
#
#
# Indices 1 2 3 4 5 6 
#
# 1 91.3014 22.2305 28.7810 0.0000 0.0000 0.0000
# 2 22.2305 95.9082 13.1010 0.0000 0.0000 0.0000
# 3 28.7810 13.1010 45.4727 0.0000 0.0000 0.0000
# 4 0.0000 0.0000 0.0000 9.3966 0.0000 0.0000
# 5 0.0000 0.0000 0.0000 0.0000 41.7081 0.0000
# 6 0.0000 0.0000 0.0000 0.0000 0.0000 80.0915
#
#
#
# Elastic Compliance Matrix: (Units=1/GPa)
#
#
# Indices 1 2 3 4 5 6 
#
# 1 0.014089 -0.002131 -0.008303 0.000000 0.000000 0.000000
# 2 -0.002131 0.011176 -0.001871 0.000000 0.000000 0.000000
# 3 -0.008303 -0.001871 0.027786 0.000000 0.000000 0.000000
# 4 0.000000 0.000000 0.000000 0.106422 0.000000 0.000000
# 5 0.000000 0.000000 0.000000 0.000000 0.023976 0.000000
# 6 0.000000 0.000000 0.000000 0.000000 0.000000 0.012486
#
#
# Mechanical properties :
#
#
# Convention : Reuss Voigt Hill
#
# Bulk Modulus (GPa) = 35.16214 40.10079 37.63146
# Shear Modulus (GPa) = 21.73664 37.47722 29.60693
#
# Velocity S-wave (km/s) = 2.89594 3.80257 3.37979
# Velocity P-wave (km/s) = 4.97476 5.89501 5.45433
#
# Compressibility (1/GPa) = 0.02843968
#
# Stress axis : x y z
#
# Youngs Moduli (GPa) = 70.97639 89.47543 35.98978
#
# Poissons Ratio (x) = 0.19072 0.29884
# Poissons Ratio (y) = 0.15129 0.06733
# Poissons Ratio (z) = 0.58934 0.16740
#
# Static dielectric constant tensor:
#      x y z
#    x 2.062890 0.000000 0.000000 
#    y 0.000000 2.206120 0.000000 
#    z 0.000000 0.000000 1.773580 
# 
# From -- ./inp_files/19240.got.cif
#   From: 2010.05.17/outbox.cif.g08.bks.cpg/sg60_10_cif.got.tgz:19240.got - 2010.06.03 14:59:27.
