data_PCOD9455126
_publ_section_title
;
Structure prediction by ZEFSAII (Michael W. Deem and Ramdas Pophale) SiO2 
 PCOD9455126
Probable space group: P B C N
;
_chemical_formula_sum "Si O2"
_cell_formula_units_Z 64
_cell_length_a 19.144994
_cell_length_b 14.503509
_cell_length_c 9.183624
_cell_angle_alpha 90.000000
_cell_angle_beta 90.000000
_cell_angle_gamma 90.000000
_cell_volume 2550.013136
_symmetry_space_group_name_H-M "P B C N"
_symmetry_group_IT_number 60
_symmetry_cell_setting 'orthorhombic'
loop_
_space_group_symop_operation_xyz
x,y,z
1/2-x,1/2-y,1/2+z
1/2+x,1/2-y,-z
-x,y,1/2-z
-x,-y,-z
1/2+x,1/2+y,1/2-z
1/2-x,1/2+y,z
x,-y,1/2+z
loop_
_atom_site_type_symbol
_atom_site_label
_atom_site_fract_x
_atom_site_fract_y
_atom_site_fract_z
Si Si1 0.929896 0.458980 0.797848
Si Si2 0.109315 0.412759 0.000549
Si Si3 0.179247 0.166760 0.177113
Si Si4 0.873113 0.137320 0.857559
Si Si5 0.549326 0.387975 0.621429
Si Si6 0.574617 0.701167 0.555794
Si Si7 0.680548 0.158428 0.443424
Si Si8 0.777979 0.379040 0.272131
O O1 0.888476 0.469332 0.648082
O O2 0.949332 0.550297 0.887687
O O3 0.889189 0.393707 0.904335
O O4 0.000000 0.410146 0.750000
O O5 0.175315 0.429466 0.105752
O O6 0.095400 0.308440 0.954279
O O7 0.119540 0.144639 0.294637
O O8 0.258012 0.128725 0.170466
O O9 0.199665 0.274205 0.186308
O O10 0.138469 0.150699 0.026868
O O11 0.921328 0.166362 0.721185
O O12 0.841979 0.233374 0.927841
O O13 0.801925 0.093003 0.798535
O O14 0.914695 0.073835 0.973300
O O15 0.500000 0.430440 0.750000
O O16 0.494991 0.317191 0.540567
O O17 0.706768 0.127878 0.601094
#
# Coordination Sequence:
#
# PCOD9455126 Si02
#       8
#     8   8   8   8   8   8   8   8
#     4  12  27  42  58  83 118 168 218 262 292 339
#     4  11  25  42  59  80 119 160 217 250 298 346
#     4   9  19  33  52  84 112 151 195 244 306 364
#     4  11  20  34  59  87 119 153 203 244 318 369
#     4  10  21  33  53  86 123 154 187 235 304 374
#     4  10  20  36  57  87 121 160 196 247 304 374
#     4  11  21  36  58  78 115 155 209 259 300 349
#     4  10  21  36  60  84 111 155 197 260 304 361
#
# _framework density 25.097908
#
# number of rings (size 3 to 8) (size 9 to 14) (size 15 to 20)
#    0.000    1.500    3.750    1.500    3.500    2.500 
#    0.000    0.000    0.000    0.000    0.000    0.000 
#    0.000   11.000    0.000    1.125    0.000    0.000 
#
# Total GULP energy -356659.250505 kJ/mol
# GULP energy per Si atom -5572.800789 kJ/mol
# Density = 2.504078 g / cm^3
# Si number density = 25.097908 Si / 1000 Ang^3
#
#
#
# Elastic Constant Matrix: (Units=GPa)
#
#
# Indices 1 2 3 4 5 6 
#
# 1 119.0714 -0.8842 42.3227 0.0000 0.0000 0.0000
# 2 -0.8842 27.3735 4.9948 0.0000 0.0000 0.0000
# 3 42.3227 4.9948 173.4388 0.0000 0.0000 0.0000
# 4 0.0000 0.0000 0.0000 -36.0510 0.0000 0.0000
# 5 0.0000 0.0000 0.0000 0.0000 55.6315 0.0000
# 6 0.0000 0.0000 0.0000 0.0000 0.0000 3.0108
#
#
#
# Elastic Compliance Matrix: (Units=1/GPa)
#
#
# Indices 1 2 3 4 5 6 
#
# 1 0.009210 0.000711 -0.002268 0.000000 0.000000 0.000000
# 2 0.000711 0.036780 -0.001233 0.000000 0.000000 0.000000
# 3 -0.002268 -0.001233 0.006355 0.000000 0.000000 0.000000
# 4 0.000000 0.000000 0.000000 -0.027738 0.000000 0.000000
# 5 0.000000 0.000000 0.000000 0.000000 0.017975 0.000000
# 6 0.000000 0.000000 0.000000 0.000000 0.000000 0.332138
#
#
# Mechanical properties :
#
#
# Convention : Reuss Voigt Hill
#
# Bulk Modulus (GPa) = 21.38340 45.86115 33.62228
# Shear Modulus (GPa) = 12.62989 22.74828 17.68908
#
# Velocity S-wave (km/s) = 2.24570 3.01388 2.65769
# Velocity P-wave (km/s) = 3.90675 5.51579 4.77947
#
# Compressibility (1/GPa) = 0.04676525
#
# Stress axis : x y z
#
# Youngs Moduli (GPa) = 108.58134 27.18899 157.36569
#
# Poissons Ratio (x) = -0.01934 0.35688
# Poissons Ratio (y) = -0.07723 0.19400
# Poissons Ratio (z) = 0.24625 0.03352
#
# Static dielectric constant tensor:
#      x y z
#    x 2.106920 0.000000 0.000000 
#    y 0.000000 2.050850 0.000000 
#    z 0.000000 0.000000 2.013710 
# 
# From -- ./inp_files/7046.got.cif
#   From: 2010.05.17/outbox.cif.g08.bks.cpg/sg60_4_cif.got.tgz:7046.got - 2010.06.03 14:59:27.
