data_PCOD9455091
_publ_section_title
;
Structure prediction by ZEFSAII (Michael W. Deem and Ramdas Pophale) SiO2 
 PCOD9455091
Probable space group: P B C N
;
_chemical_formula_sum "Si O2"
_cell_formula_units_Z 64
_cell_length_a 30.278764
_cell_length_b 10.870290
_cell_length_c 10.188507
_cell_angle_alpha 90.000000
_cell_angle_beta 90.000000
_cell_angle_gamma 90.000000
_cell_volume 3353.434450
_symmetry_space_group_name_H-M "P B C N"
_symmetry_group_IT_number 60
_symmetry_cell_setting 'orthorhombic'
loop_
_space_group_symop_operation_xyz
x,y,z
1/2-x,1/2-y,1/2+z
1/2+x,1/2-y,-z
-x,y,1/2-z
-x,-y,-z
1/2+x,1/2+y,1/2-z
1/2-x,1/2+y,z
x,-y,1/2+z
loop_
_atom_site_type_symbol
_atom_site_label
_atom_site_fract_x
_atom_site_fract_y
_atom_site_fract_z
Si Si1 0.533400 0.126625 0.635207
Si Si2 0.687436 0.983321 0.600387
Si Si3 0.368537 0.220421 0.837954
Si Si4 0.333571 0.609516 0.108374
Si Si5 0.230551 0.620431 0.143287
Si Si6 0.342588 0.680116 0.618455
Si Si7 0.522222 0.832496 0.613619
Si Si8 0.121157 0.258704 0.889823
O O1 0.500000 0.161191 0.750000
O O2 0.581889 0.171678 0.668441
O O3 0.513669 0.179766 0.500866
O O4 0.533047 0.978341 0.624720
O O5 0.720846 0.929713 0.709904
O O6 0.649197 0.881920 0.575874
O O7 0.664100 0.103408 0.661547
O O8 0.710358 0.027178 0.465740
O O9 0.357071 0.311609 0.720973
O O10 0.361804 0.286675 0.977100
O O11 0.281658 0.638990 0.113419
O O12 0.338098 0.464910 0.132127
O O13 0.355615 0.650928 0.972073
O O14 0.203944 0.748170 0.130094
O O15 0.372060 0.735246 0.735416
O O16 0.500000 0.792289 0.750000
O O17 0.569243 0.770904 0.582531
#
# Coordination Sequence:
#
# PCOD9455091 Si02
#       8
#     8   8   8   8   8   8   8   8
#     4  10  20  35  62  98 126 152 198 255 318 376
#     4  10  22  40  64  92 126 158 205 257 317 371
#     4  11  22  41  63  91 128 164 198 262 314 366
#     4  12  26  39  63  87 122 173 215 252 303 371
#     4  10  25  39  63  89 123 164 212 267 303 356
#     4  10  25  41  59  89 123 170 211 252 304 372
#     4  10  20  36  64  97 127 154 195 260 321 381
#     4  11  22  41  64  93 127 165 199 259 319 368
#
# _framework density 19.084911000000002
#
# number of rings (size 3 to 8) (size 9 to 14) (size 15 to 20)
#    0.000    1.500    1.250    3.000    7.000    2.000 
#    0.000    0.000    0.000   15.000    0.000    0.000 
#    0.000    0.000    0.000    0.000    0.000    0.000 
#
# Total GULP energy -357778.138254 kJ/mol
# GULP energy per Si atom -5590.283410 kJ/mol
# Density = 1.904147 g / cm^3
# Si number density = 19.084911 Si / 1000 Ang^3
#
#
#
# Elastic Constant Matrix: (Units=GPa)
#
#
# Indices 1 2 3 4 5 6 
#
# 1 91.0132 2.5187 5.2349 0.0000 0.0000 0.0000
# 2 2.5187 61.8068 0.1831 0.0000 0.0000 0.0000
# 3 5.2349 0.1831 59.1250 0.0000 0.0000 0.0000
# 4 0.0000 0.0000 0.0000 22.7695 0.0000 0.0000
# 5 0.0000 0.0000 0.0000 0.0000 14.7102 0.0000
# 6 0.0000 0.0000 0.0000 0.0000 0.0000 -2.1954
#
#
#
# Elastic Compliance Matrix: (Units=1/GPa)
#
#
# Indices 1 2 3 4 5 6 
#
# 1 0.011056 -0.000448 -0.000978 0.000000 0.000000 0.000000
# 2 -0.000448 0.016198 -0.000011 0.000000 0.000000 0.000000
# 3 -0.000978 -0.000011 0.017000 0.000000 0.000000 0.000000
# 4 0.000000 0.000000 0.000000 0.043918 0.000000 0.000000
# 5 0.000000 0.000000 0.000000 0.000000 0.067980 0.000000
# 6 0.000000 0.000000 0.000000 0.000000 0.000000 -0.455501
#
#
# Mechanical properties :
#
#
# Convention : Reuss Voigt Hill
#
# Bulk Modulus (GPa) = 24.16493 25.31315 24.73904
# Shear Modulus (GPa) = -17.68762 20.65741 1.48490
#
# Velocity S-wave (km/s) = -3.04762 3.29355 0.88303
# Velocity P-wave (km/s) = 0.55256 5.26835 3.74572
#
# Compressibility (1/GPa) = 0.04138229
#
# Stress axis : x y z
#
# Youngs Moduli (GPa) = 90.44834 61.73709 58.82382
#
# Poissons Ratio (x) = 0.02764 0.05750
# Poissons Ratio (y) = 0.04049 0.00062
# Poissons Ratio (z) = 0.08841 0.00065
#
# Static dielectric constant tensor:
#      x y z
#    x 1.636700 0.000000 0.000000 
#    y 0.000000 1.644480 0.000000 
#    z 0.000000 0.000000 1.677460 
# 
# From -- ./inp_files/8496.got.cif
#   From: 2010.05.17/outbox.cif.g08.bks.cpg/sg60_5_cif.got.tgz:8496.got - 2010.06.03 14:59:27.
