data_PCOD9455404
_publ_section_title
;
Structure prediction by ZEFSAII (Michael W. Deem and Ramdas Pophale) SiO2 
 PCOD9455404
Probable space group: P B C N
;
_chemical_formula_sum "Si O2"
_cell_formula_units_Z 64
_cell_length_a 12.454766
_cell_length_b 18.926510
_cell_length_c 14.121480
_cell_angle_alpha 90.000000
_cell_angle_beta 90.000000
_cell_angle_gamma 90.000000
_cell_volume 3328.789449
_symmetry_space_group_name_H-M "P B C N"
_symmetry_group_IT_number 60
_symmetry_cell_setting 'orthorhombic'
loop_
_space_group_symop_operation_xyz
x,y,z
1/2-x,1/2-y,1/2+z
1/2+x,1/2-y,-z
-x,y,1/2-z
-x,-y,-z
1/2+x,1/2+y,1/2-z
1/2-x,1/2+y,z
x,-y,1/2+z
loop_
_atom_site_type_symbol
_atom_site_label
_atom_site_fract_x
_atom_site_fract_y
_atom_site_fract_z
Si Si1 0.221908 0.079358 0.136822
Si Si2 0.216620 0.330434 0.474717
Si Si3 0.000000 0.313904 0.141329
Si Si4 0.783380 0.669566 0.974717
Si Si5 0.874687 0.927255 0.136780
Si Si6 0.778092 0.079358 0.136822
Si Si7 1.000000 0.145032 0.357123
Si Si8 0.874687 0.072745 0.863220
O O1 0.240780 0.089615 0.250000
O O2 0.110347 0.116208 0.105148
O O3 0.197164 0.997293 0.118898
O O4 0.301862 0.120926 0.068223
O O5 0.250000 0.250000 0.500000
O O6 0.313136 0.363737 0.413153
O O7 0.108537 0.333669 0.412852
O O8 0.108537 0.333669 0.087148
O O9 0.000000 0.339730 0.250000
O O10 0.000000 0.228604 0.143834
O O11 0.686864 0.636263 0.913153
O O12 0.801862 0.620926 0.068223
O O13 0.876332 0.917318 0.250000
O O14 0.000000 0.936506 0.107218
O O15 0.802836 0.997293 0.118898
O O16 0.889653 0.116208 0.105148
O O17 0.000000 0.116048 0.250000
#
# Coordination Sequence:
#
# PCOD9455404 Si02
#       8
#     8   8   8   8   8   8   8   8
#     4  10  20  38  63  94 127 159 204 264 327 376
#     4  12  25  37  63  92 127 168 216 252 310 378
#     4  11  24  44  61  85 133 180 215 248 305 391
#     4  12  25  37  63  92 127 168 216 252 310 378
#     4  10  22  40  65  97 128 158 205 272 332 372
#     4  10  20  38  63  94 127 159 204 264 327 376
#     4   9  16  32  60  88 118 161 198 244 313 379
#     4  10  22  40  65  97 128 158 205 272 332 372
#
# _framework density 19.226208
#
# number of rings (size 3 to 8) (size 9 to 14) (size 15 to 20)
#    0.000    1.500    3.750    1.500    3.500    2.000 
#    0.000    3.125    0.000    3.000    0.000    0.000 
#    0.000    0.000    0.000    0.000    0.000    0.000 
#
# Total GULP energy -356979.718474 kJ/mol
# GULP energy per Si atom -5577.808101 kJ/mol
# Density = 1.918245 g / cm^3
# Si number density = 19.226208 Si / 1000 Ang^3
#
#
#
# Elastic Constant Matrix: (Units=GPa)
#
#
# Indices 1 2 3 4 5 6 
#
# 1 81.8306 38.1476 68.3245 0.0000 0.0000 0.0000
# 2 38.1476 115.2440 67.1823 0.0000 0.0000 0.0000
# 3 68.3245 67.1823 126.6756 0.0000 0.0000 0.0000
# 4 0.0000 0.0000 0.0000 37.8988 0.0000 0.0000
# 5 0.0000 0.0000 0.0000 0.0000 -203.1516 0.0000
# 6 0.0000 0.0000 0.0000 0.0000 0.0000 34.0455
#
#
#
# Elastic Compliance Matrix: (Units=1/GPa)
#
#
# Indices 1 2 3 4 5 6 
#
# 1 0.022255 -0.000534 -0.011720 0.000000 0.000000 0.000000
# 2 -0.000534 0.012573 -0.006380 0.000000 0.000000 0.000000
# 3 -0.011720 -0.006380 0.017599 0.000000 0.000000 0.000000
# 4 0.000000 0.000000 0.000000 0.026386 0.000000 0.000000
# 5 0.000000 0.000000 0.000000 0.000000 -0.004922 0.000000
# 6 0.000000 0.000000 0.000000 0.000000 0.000000 0.029372
#
#
# Mechanical properties :
#
#
# Convention : Reuss Voigt Hill
#
# Bulk Modulus (GPa) = 65.96937 74.56211 70.26574
# Shear Modulus (GPa) = 34.34372 -16.23507 9.05433
#
# Velocity S-wave (km/s) = 4.23105 -2.90905 2.17246
# Velocity P-wave (km/s) = 7.63254 5.25188 6.55126
#
# Compressibility (1/GPa) = 0.01515855
#
# Stress axis : x y z
#
# Youngs Moduli (GPa) = 44.93279 79.53271 56.82001
#
# Poissons Ratio (x) = 0.04250 0.66595
# Poissons Ratio (y) = 0.02401 0.36252
# Poissons Ratio (z) = 0.52663 0.50742
#
# Static dielectric constant tensor:
#      x y z
#    x 1.672600 0.000000 0.000000 
#    y 0.000000 1.677370 0.000000 
#    z 0.000000 0.000000 1.743540 
# 
# From -- ./inp_files/16371.got.cif
#   From: 2010.05.17/outbox.cif.g08.bks.cpg/sg60_9_cif.got.tgz:16371.got - 2010.06.03 14:59:27.
