data_PCOD9455922
_publ_section_title
;
Structure prediction by ZEFSAII (Michael W. Deem and Ramdas Pophale) SiO2 
 PCOD9455922
Probable space group: P B C N
;
_chemical_formula_sum "Si O2"
_cell_formula_units_Z 64
_cell_length_a 19.504909
_cell_length_b 18.998444
_cell_length_c 9.229240
_cell_angle_alpha 90.000000
_cell_angle_beta 90.000000
_cell_angle_gamma 90.000000
_cell_volume 3420.014136
_symmetry_space_group_name_H-M "P B C N"
_symmetry_group_IT_number 60
_symmetry_cell_setting 'orthorhombic'
loop_
_space_group_symop_operation_xyz
x,y,z
1/2-x,1/2-y,1/2+z
1/2+x,1/2-y,-z
-x,y,1/2-z
-x,-y,-z
1/2+x,1/2+y,1/2-z
1/2-x,1/2+y,z
x,-y,1/2+z
loop_
_atom_site_type_symbol
_atom_site_label
_atom_site_fract_x
_atom_site_fract_y
_atom_site_fract_z
Si Si1 0.552524 0.367304 0.630424
Si Si2 0.458011 0.606967 0.892580
Si Si3 0.150071 0.986600 0.826627
Si Si4 0.148523 0.224964 0.574352
Si Si5 0.858569 0.224033 0.581721
Si Si6 0.250724 0.497340 0.070181
Si Si7 0.286295 0.854856 0.434277
Si Si8 0.297042 0.848655 0.091833
O O1 0.500000 0.338693 0.750000
O O2 0.509906 0.416876 0.518353
O O3 0.607694 0.417066 0.711157
O O4 0.592599 0.312497 0.527850
O O5 0.500000 0.626739 0.750000
O O6 0.400609 0.552989 0.834540
O O7 0.421612 0.675118 0.961468
O O8 0.218937 0.995252 0.731852
O O9 0.178704 0.979689 0.987686
O O10 0.133387 0.230669 0.744874
O O11 0.163795 0.303024 0.518979
O O12 0.219962 0.181013 0.562235
O O13 0.789781 0.178620 0.554892
O O14 0.847203 0.296467 0.495070
O O15 0.219109 0.568491 0.006003
O O16 0.202275 0.430331 0.048634
O O17 0.305991 0.849996 0.265229
#
# Coordination Sequence:
#
# PCOD9455922 Si02
#       8
#     8   8   8   8   8   8   8   8
#     4  12  25  36  55  86 119 163 203 236 279 340
#     4  12  22  40  57  80 121 163 205 236 278 340
#     4  12  23  37  56  83 124 162 200 229 278 350
#     4  10  21  38  55  81 110 151 196 245 282 344
#     4  10  21  38  57  80 108 155 195 242 289 340
#     4  12  21  37  59  86 117 154 192 242 295 349
#     4  10  22  36  59  81 113 145 193 246 299 338
#     4  10  21  37  58  80 112 147 194 243 296 343
#
# _framework density 18.713372
#
# number of rings (size 3 to 8) (size 9 to 14) (size 15 to 20)
#    0.000    1.000    5.000    3.000    3.500    1.000 
#    0.000    0.000    0.000    0.000    0.000    1.750 
#    0.000    0.000    0.000    0.000    0.000    0.000 
#
# Total GULP energy -357127.796727 kJ/mol
# GULP energy per Si atom -5580.121824 kJ/mol
# Density = 1.867078 g / cm^3
# Si number density = 18.713372 Si / 1000 Ang^3
#
#
#
# Elastic Constant Matrix: (Units=GPa)
#
#
# Indices 1 2 3 4 5 6 
#
# 1 25.6758 19.8618 12.5589 0.0000 0.0000 0.0000
# 2 19.8618 131.7540 34.3712 0.0000 0.0000 0.0000
# 3 12.5589 34.3712 60.5683 0.0000 0.0000 0.0000
# 4 0.0000 0.0000 0.0000 23.0905 0.0000 0.0000
# 5 0.0000 0.0000 0.0000 0.0000 33.7469 0.0000
# 6 0.0000 0.0000 0.0000 0.0000 0.0000 19.3720
#
#
#
# Elastic Compliance Matrix: (Units=1/GPa)
#
#
# Indices 1 2 3 4 5 6 
#
# 1 0.046239 -0.005246 -0.006611 0.000000 0.000000 0.000000
# 2 -0.005246 0.009504 -0.004306 0.000000 0.000000 0.000000
# 3 -0.006611 -0.004306 0.020324 0.000000 0.000000 0.000000
# 4 0.000000 0.000000 0.000000 0.043308 0.000000 0.000000
# 5 0.000000 0.000000 0.000000 0.000000 0.029632 0.000000
# 6 0.000000 0.000000 0.000000 0.000000 0.000000 0.051621
#
#
# Mechanical properties :
#
#
# Convention : Reuss Voigt Hill
#
# Bulk Modulus (GPa) = 22.86093 39.06465 30.96279
# Shear Modulus (GPa) = 20.19931 25.32230 22.76081
#
# Velocity S-wave (km/s) = 3.28899 3.68253 3.49131
# Velocity P-wave (km/s) = 5.16393 6.24515 5.73010
#
# Compressibility (1/GPa) = 0.04374274
#
# Stress axis : x y z
#
# Youngs Moduli (GPa) = 21.62689 105.21973 49.20217
#
# Poissons Ratio (x) = 0.55197 0.32526
# Poissons Ratio (y) = 0.11345 0.21184
# Poissons Ratio (z) = 0.14297 0.45303
#
# Static dielectric constant tensor:
#      x y z
#    x 1.642090 0.000000 0.000000 
#    y 0.000000 1.665270 0.000000 
#    z 0.000000 0.000000 1.670380 
# 
# From -- ./inp_files/7044.got.cif
#   From: 2010.05.17/outbox.cif.g08.bks.cpg/sg60_4_cif.got.tgz:7044.got - 2010.06.03 14:59:27.
