data_PCOD9455026
_publ_section_title
;
Structure prediction by ZEFSAII (Michael W. Deem and Ramdas Pophale) SiO2 
 PCOD9455026
Probable space group: P B C N
;
_chemical_formula_sum "Si O2"
_cell_formula_units_Z 56
_cell_length_a 17.180952
_cell_length_b 20.847074
_cell_length_c 10.015325
_cell_angle_alpha 90.000000
_cell_angle_beta 90.000000
_cell_angle_gamma 90.000000
_cell_volume 3587.214772
_symmetry_space_group_name_H-M "P B C N"
_symmetry_group_IT_number 60
_symmetry_cell_setting 'orthorhombic'
loop_
_space_group_symop_operation_xyz
x,y,z
1/2-x,1/2-y,1/2+z
1/2+x,1/2-y,-z
-x,y,1/2-z
-x,-y,-z
1/2+x,1/2+y,1/2-z
1/2-x,1/2+y,z
x,-y,1/2+z
loop_
_atom_site_type_symbol
_atom_site_label
_atom_site_fract_x
_atom_site_fract_y
_atom_site_fract_z
Si Si1 0.282854 0.798057 0.285681
Si Si2 0.853120 0.118215 0.036720
Si Si3 0.871482 0.866447 0.221478
Si Si4 0.062021 0.755319 0.868683
Si Si5 0.944252 0.998482 0.126753
Si Si6 0.704803 0.191353 0.027668
Si Si7 0.545550 0.765763 0.622753
O O1 0.221024 0.855778 0.303779
O O2 0.371078 0.797612 0.339351
O O3 0.242495 0.741674 0.369711
O O4 0.287351 0.785462 0.126260
O O5 0.894667 0.176311 0.115813
O O6 0.879223 0.051826 0.100143
O O7 0.760355 0.129748 0.038545
O O8 0.879823 0.125088 0.881699
O O9 0.916343 0.802635 0.169602
O O10 0.906961 0.928919 0.152430
O O11 0.000000 0.756834 0.750000
O O12 0.015619 0.744298 0.004784
O O13 0.000000 0.015143 0.250000
O O14 0.000000 0.000000 0.000000
O O15 0.615151 0.189645 0.068996
O O16 0.500000 0.792304 0.750000
#
# Coordination Sequence:
#
# PCOD9455026 Si02
#       7
#     8   8   8   8   8   8   8
#     4   9  19  33  49  70 100 132 165 201 248 304
#     4  10  20  35  50  70 103 136 165 205 244 291
#     4  10  20  36  50  68 103 141 163 196 255 298
#     4  11  19  31  50  79 103 124 168 210 243 291
#     4  12  22  35  51  74  99 132 175 203 234 288
#     4   9  19  33  49  71  99 133 165 199 251 300
#     4  11  19  32  53  74 104 135 161 202 255 302
#
# _framework density 15.610996999999999
#
# number of rings (size 3 to 8) (size 9 to 14) (size 15 to 20)
#    0.000    1.714    4.286    1.714    2.000    0.000 
#    2.571    0.000    0.000    0.000    0.000    2.000 
#    0.000    0.000    0.000    0.000    0.000    0.000 
#
# Total GULP energy -311945.282317 kJ/mol
# GULP energy per Si atom -5570.451470 kJ/mol
# Density = 1.557547 g / cm^3
# Si number density = 15.610997 Si / 1000 Ang^3
#
#
#
# Elastic Constant Matrix: (Units=GPa)
#
#
# Indices 1 2 3 4 5 6 
#
# 1 111.9493 39.3884 44.1547 0.0000 0.0000 0.0000
# 2 39.3884 53.7107 25.8032 0.0000 0.0000 0.0000
# 3 44.1547 25.8032 101.8709 0.0000 0.0000 0.0000
# 4 0.0000 0.0000 0.0000 15.2443 0.0000 0.0000
# 5 0.0000 0.0000 0.0000 0.0000 32.8353 0.0000
# 6 0.0000 0.0000 0.0000 0.0000 0.0000 28.7913
#
#
#
# Elastic Compliance Matrix: (Units=1/GPa)
#
#
# Indices 1 2 3 4 5 6 
#
# 1 0.013167 -0.007872 -0.003713 0.000000 0.000000 0.000000
# 2 -0.007872 0.025904 -0.003149 0.000000 0.000000 0.000000
# 3 -0.003713 -0.003149 0.012223 0.000000 0.000000 0.000000
# 4 0.000000 0.000000 0.000000 0.065598 0.000000 0.000000
# 5 0.000000 0.000000 0.000000 0.000000 0.030455 0.000000
# 6 0.000000 0.000000 0.000000 0.000000 0.000000 0.034733
#
#
# Mechanical properties :
#
#
# Convention : Reuss Voigt Hill
#
# Bulk Modulus (GPa) = 45.81778 54.02483 49.92131
# Shear Modulus (GPa) = 22.84940 25.91984 24.38462
#
# Velocity S-wave (km/s) = 3.82995 4.07917 3.95652
# Velocity P-wave (km/s) = 6.99796 7.54110 7.27460
#
# Compressibility (1/GPa) = 0.02182559
#
# Stress axis : x y z
#
# Youngs Moduli (GPa) = 75.94861 38.60391 81.81015
#
# Poissons Ratio (x) = 0.30389 0.30377
# Poissons Ratio (y) = 0.59787 0.25765
# Poissons Ratio (z) = 0.28200 0.12158
#
# Static dielectric constant tensor:
#      x y z
#    x 1.562700 0.000000 0.000000 
#    y 0.000000 1.496550 0.000000 
#    z 0.000000 0.000000 1.533930 
# 
# From -- ./inp_files/6160.got.cif
#   From: 2010.05.17/outbox.cif.g08.bks.cpg/sg60_4_cif.got.tgz:6160.got - 2010.06.03 14:59:27.
