data_PCOD9455158
_publ_section_title
;
Structure prediction by ZEFSAII (Michael W. Deem and Ramdas Pophale) SiO2 
 PCOD9455158
Probable space group: P B C N
;
_chemical_formula_sum "Si O2"
_cell_formula_units_Z 44
_cell_length_a 15.980663
_cell_length_b 8.843757
_cell_length_c 13.637353
_cell_angle_alpha 90.000000
_cell_angle_beta 90.000000
_cell_angle_gamma 90.000000
_cell_volume 1927.354830
_symmetry_space_group_name_H-M "P B C N"
_symmetry_group_IT_number 60
_symmetry_cell_setting 'orthorhombic'
loop_
_space_group_symop_operation_xyz
x,y,z
1/2-x,1/2-y,1/2+z
1/2+x,1/2-y,-z
-x,y,1/2-z
-x,-y,-z
1/2+x,1/2+y,1/2-z
1/2-x,1/2+y,z
x,-y,1/2+z
loop_
_atom_site_type_symbol
_atom_site_label
_atom_site_fract_x
_atom_site_fract_y
_atom_site_fract_z
Si Si1 0.358740 0.051693 0.240019
Si Si2 0.215604 0.148768 0.795615
Si Si3 0.450190 0.397420 0.078164
Si Si4 0.500000 0.397535 0.750000
Si Si5 0.512518 0.068041 0.105055
Si Si6 0.354588 0.355018 0.892749
O O1 0.337411 0.229606 0.234509
O O2 0.434366 0.011587 0.169182
O O3 0.398428 0.030306 0.347974
O O4 0.276943 0.951596 0.228173
O O5 0.276359 0.253277 0.861731
O O6 0.166100 0.028204 0.861625
O O7 0.444542 0.499482 0.175554
O O8 0.502757 0.248767 0.103900
O O9 0.500000 0.500000 0.000000
O O10 0.373872 0.345592 0.008273
O O11 0.434903 0.313886 0.822894
O O12 0.500000 0.000000 0.000000
#
# Coordination Sequence:
#
# PCOD9455158 Si02
#       6
#     8   8   8   4   8   8
#     4  10  22  41  62  86 124 160 199 251 301 357
#     4  10  21  40  60  87 127 163 195 245 307 364
#     4  10  20  36  60  85 112 150 196 244 293 352
#     4  10  20  38  64  88 112 156 210 248 290 356
#     4  11  22  39  63  91 118 156 206 255 298 349
#     4  10  21  38  60  87 121 158 200 248 298 357
#
# _framework density 22.829215999999999
#
# number of rings (size 3 to 8) (size 9 to 14) (size 15 to 20)
#    0.000    1.818    0.000    5.455    0.000    4.364 
#    0.000   20.000    0.000    0.000    0.000    0.000 
#    0.000    0.000    0.000    0.000    0.000    0.000 
#
# Total GULP energy -245929.543218 kJ/mol
# GULP energy per Si atom -5589.307800 kJ/mol
# Density = 2.277726 g / cm^3
# Si number density = 22.829216 Si / 1000 Ang^3
#
#
#
# Elastic Constant Matrix: (Units=GPa)
#
#
# Indices 1 2 3 4 5 6 
#
# 1 78.2206 15.6343 17.7604 0.0000 0.0000 0.0000
# 2 15.6343 77.8434 5.5965 0.0000 0.0000 0.0000
# 3 17.7604 5.5965 102.1930 0.0000 0.0000 0.0000
# 4 0.0000 0.0000 0.0000 23.9538 0.0000 0.0000
# 5 0.0000 0.0000 0.0000 0.0000 27.7194 0.0000
# 6 0.0000 0.0000 0.0000 0.0000 0.0000 48.4381
#
#
#
# Elastic Compliance Matrix: (Units=1/GPa)
#
#
# Indices 1 2 3 4 5 6 
#
# 1 0.013819 -0.002613 -0.002259 0.000000 0.000000 0.000000
# 2 -0.002613 0.013391 -0.000279 0.000000 0.000000 0.000000
# 3 -0.002259 -0.000279 0.010193 0.000000 0.000000 0.000000
# 4 0.000000 0.000000 0.000000 0.041747 0.000000 0.000000
# 5 0.000000 0.000000 0.000000 0.000000 0.036076 0.000000
# 6 0.000000 0.000000 0.000000 0.000000 0.000000 0.020645
#
#
# Mechanical properties :
#
#
# Convention : Reuss Voigt Hill
#
# Bulk Modulus (GPa) = 36.89774 37.35995 37.12884
# Shear Modulus (GPa) = 32.21490 34.63997 33.42743
#
# Velocity S-wave (km/s) = 3.76057 3.89955 3.83069
# Velocity P-wave (km/s) = 5.92060 6.05605 5.98871
#
# Compressibility (1/GPa) = 0.02710193
#
# Stress axis : x y z
#
# Youngs Moduli (GPa) = 72.36159 74.67581 98.10434
#
# Poissons Ratio (x) = 0.19514 0.22158
# Poissons Ratio (y) = 0.18909 0.02739
# Poissons Ratio (z) = 0.16344 0.02085
#
# Static dielectric constant tensor:
#      x y z
#    x 1.897530 0.000000 0.000000 
#    y 0.000000 1.889980 0.000000 
#    z 0.000000 0.000000 1.853160 
# 
# From -- ./inp_files/17258.got.cif
#   From: 2010.05.17/outbox.cif.g08.bks.cpg/sg60_9_cif.got.tgz:17258.got - 2010.06.03 14:59:27.
