data_PCOD9455406
_publ_section_title
;
Structure prediction by ZEFSAII (Michael W. Deem and Ramdas Pophale) SiO2 
 PCOD9455406
Probable space group: P B C N
;
_chemical_formula_sum "Si O2"
_cell_formula_units_Z 36
_cell_length_a 6.265451
_cell_length_b 9.635309
_cell_length_c 25.002091
_cell_angle_alpha 90.000000
_cell_angle_beta 90.000000
_cell_angle_gamma 90.000000
_cell_volume 1509.365143
_symmetry_space_group_name_H-M "P B C N"
_symmetry_group_IT_number 60
_symmetry_cell_setting 'orthorhombic'
loop_
_space_group_symop_operation_xyz
x,y,z
1/2-x,1/2-y,1/2+z
1/2+x,1/2-y,-z
-x,y,1/2-z
-x,-y,-z
1/2+x,1/2+y,1/2-z
1/2-x,1/2+y,z
x,-y,1/2+z
loop_
_atom_site_type_symbol
_atom_site_label
_atom_site_fract_x
_atom_site_fract_y
_atom_site_fract_z
Si Si1 0.446324 0.430902 0.944085
Si Si2 0.242629 0.506390 0.144804
Si Si3 0.500000 0.063585 0.250000
Si Si4 0.139767 0.336379 0.397663
Si Si5 0.129808 0.144793 0.796971
O O1 0.652748 0.417499 0.905705
O O2 0.355455 0.276059 0.944357
O O3 0.276301 0.531485 0.915600
O O4 0.500000 0.500000 0.000000
O O5 0.109446 0.588978 0.188866
O O6 0.442925 0.439678 0.175364
O O7 0.090417 0.389789 0.119789
O O8 0.697374 0.959810 0.228530
O O9 0.244636 0.274298 0.343107
O O10 0.000000 0.232504 0.750000
#
# Coordination Sequence:
#
# PCOD9455406 Si02
#       5
#     8   8   4   8   8
#     4  11  28  47  72 103 139 189 243 298 353 423
#     4  11  22  42  70 100 141 183 232 290 353 426
#     4  10  20  38  64 100 140 184 220 282 354 416
#     4  11  24  46  71 100 142 181 236 294 357 422
#     4   9  21  38  61  99 137 172 228 268 346 420
#
# _framework density 23.851085999999999
#
# number of rings (size 3 to 8) (size 9 to 14) (size 15 to 20)
#    0.667    0.889    0.000    4.000    3.111    4.444 
#    0.000    0.000    0.000    0.000    0.000    0.000 
#    0.000    0.000    0.000    0.000    0.000    0.000 
#
# Total GULP energy -200767.993485 kJ/mol
# GULP energy per Si atom -5576.888708 kJ/mol
# Density = 2.379680 g / cm^3
# Si number density = 23.851086 Si / 1000 Ang^3
#
#
#
# Elastic Constant Matrix: (Units=GPa)
#
#
# Indices 1 2 3 4 5 6 
#
# 1 129.2940 36.0745 28.8725 0.0000 0.0000 0.0000
# 2 36.0745 72.7653 2.5050 0.0000 0.0000 0.0000
# 3 28.8725 2.5050 65.1578 0.0000 0.0000 0.0000
# 4 0.0000 0.0000 0.0000 35.8655 0.0000 0.0000
# 5 0.0000 0.0000 0.0000 0.0000 39.7258 0.0000
# 6 0.0000 0.0000 0.0000 0.0000 0.0000 16.7347
#
#
#
# Elastic Compliance Matrix: (Units=1/GPa)
#
#
# Indices 1 2 3 4 5 6 
#
# 1 0.010032 -0.004827 -0.004260 0.000000 0.000000 0.000000
# 2 -0.004827 0.016084 0.001521 0.000000 0.000000 0.000000
# 3 -0.004260 0.001521 0.017177 0.000000 0.000000 0.000000
# 4 0.000000 0.000000 0.000000 0.027882 0.000000 0.000000
# 5 0.000000 0.000000 0.000000 0.000000 0.025173 0.000000
# 6 0.000000 0.000000 0.000000 0.000000 0.000000 0.059756
#
#
# Mechanical properties :
#
#
# Convention : Reuss Voigt Hill
#
# Bulk Modulus (GPa) = 35.51171 44.68012 40.09592
# Shear Modulus (GPa) = 27.68202 31.78286 29.73244
#
# Velocity S-wave (km/s) = 3.41048 3.65438 3.53453
# Velocity P-wave (km/s) = 5.51632 6.04811 5.78832
#
# Compressibility (1/GPa) = 0.02815973
#
# Stress axis : x y z
#
# Youngs Moduli (GPa) = 99.67698 62.17526 58.21890
#
# Poissons Ratio (x) = 0.30012 0.24801
# Poissons Ratio (y) = 0.48115 -0.08853
# Poissons Ratio (z) = 0.42462 -0.09455
#
# Static dielectric constant tensor:
#      x y z
#    x 1.886790 0.000000 0.000000 
#    y 0.000000 2.121390 0.000000 
#    z 0.000000 0.000000 1.958450 
# 
# From -- ./inp_files/23476.got.cif
#   From: 2010.05.17/outbox.cif.g08.bks.cpg/sg60_12_cif.got.tgz:23476.got - 2010.06.03 14:59:27.
