data_PCOD9455667
_publ_section_title
;
Structure prediction by ZEFSAII (Michael W. Deem and Ramdas Pophale) SiO2 
 PCOD9455667
Probable space group: P B C N
;
_chemical_formula_sum "Si O2"
_cell_formula_units_Z 48
_cell_length_a 22.508324
_cell_length_b 9.462814
_cell_length_c 9.526705
_cell_angle_alpha 90.000000
_cell_angle_beta 90.000000
_cell_angle_gamma 90.000000
_cell_volume 2029.112746
_symmetry_space_group_name_H-M "P B C N"
_symmetry_group_IT_number 60
_symmetry_cell_setting 'orthorhombic'
loop_
_space_group_symop_operation_xyz
x,y,z
1/2-x,1/2-y,1/2+z
1/2+x,1/2-y,-z
-x,y,1/2-z
-x,-y,-z
1/2+x,1/2+y,1/2-z
1/2-x,1/2+y,z
x,-y,1/2+z
loop_
_atom_site_type_symbol
_atom_site_label
_atom_site_fract_x
_atom_site_fract_y
_atom_site_fract_z
Si Si1 0.642643 0.199362 0.232408
Si Si2 0.162675 0.965426 0.463752
Si Si3 0.868125 0.382423 0.229615
Si Si4 0.276150 0.657183 0.235246
Si Si5 0.025160 0.370772 0.091456
Si Si6 0.570119 0.694083 0.990566
O O1 0.652889 0.322817 0.122393
O O2 0.707341 0.173553 0.301139
O O3 0.592805 0.247759 0.342233
O O4 0.627996 0.042964 0.180331
O O5 0.190800 0.926207 0.612077
O O6 0.206413 0.070798 0.376601
O O7 0.099387 0.041955 0.488328
O O8 0.803819 0.314215 0.251648
O O9 0.897836 0.286490 0.110908
O O10 0.905269 0.369544 0.374300
O O11 0.998582 0.229310 0.020117
O O12 0.000000 0.385482 0.250000
O O13 0.000000 0.500000 0.000000
#
# Coordination Sequence:
#
# PCOD9455667 Si02
#       6
#     8   8   8   8   8   8
#     4  12  24  39  68  96 133 178 224 276 337 406
#     4  11  25  45  63  94 140 183 219 274 344 412
#     4  10  24  41  69  99 129 175 226 285 334 398
#     4  11  26  41  65  95 137 177 223 274 338 410
#     4  10  20  41  69  96 131 165 223 285 331 390
#     4  10  23  44  65  96 136 175 224 282 339 402
#
# _framework density 23.655660000000001
#
# number of rings (size 3 to 8) (size 9 to 14) (size 15 to 20)
#    0.000    1.333    3.333    1.000    9.333    0.000 
#    0.000    0.833    7.333    0.000    0.000    0.000 
#    0.000    0.000    0.000    0.000    0.000    0.000 
#
# Total GULP energy -268564.706097 kJ/mol
# GULP energy per Si atom -5595.098044 kJ/mol
# Density = 2.360182 g / cm^3
# Si number density = 23.655660 Si / 1000 Ang^3
#
#
#
# Elastic Constant Matrix: (Units=GPa)
#
#
# Indices 1 2 3 4 5 6 
#
# 1 31.0630 15.8763 -13.2629 0.0000 0.0000 0.0000
# 2 15.8763 123.3529 9.2767 0.0000 0.0000 0.0000
# 3 -13.2629 9.2767 63.7335 0.0000 0.0000 0.0000
# 4 0.0000 0.0000 0.0000 29.8826 0.0000 0.0000
# 5 0.0000 0.0000 0.0000 0.0000 7.2070 0.0000
# 6 0.0000 0.0000 0.0000 0.0000 0.0000 26.0473
#
#
#
# Elastic Compliance Matrix: (Units=1/GPa)
#
#
# Indices 1 2 3 4 5 6 
#
# 1 0.038904 -0.005678 0.008922 0.000000 0.000000 0.000000
# 2 -0.005678 0.009025 -0.002495 0.000000 0.000000 0.000000
# 3 0.008922 -0.002495 0.017910 0.000000 0.000000 0.000000
# 4 0.000000 0.000000 0.000000 0.033464 0.000000 0.000000
# 5 0.000000 0.000000 0.000000 0.000000 0.138755 0.000000
# 6 0.000000 0.000000 0.000000 0.000000 0.000000 0.038392
#
#
# Mechanical properties :
#
#
# Convention : Reuss Voigt Hill
#
# Bulk Modulus (GPa) = 14.85049 26.88106 20.86577
# Shear Modulus (GPa) = 16.81243 26.37800 21.59522
#
# Velocity S-wave (km/s) = 2.66882 3.34291 3.02470
# Velocity P-wave (km/s) = 3.97343 5.12720 4.58674
#
# Compressibility (1/GPa) = 0.06733785
#
# Stress axis : x y z
#
# Youngs Moduli (GPa) = 25.70402 110.79948 55.83382
#
# Poissons Ratio (x) = 0.62915 -0.49818
# Poissons Ratio (y) = 0.14595 0.13932
# Poissons Ratio (z) = -0.22934 0.27648
#
# Static dielectric constant tensor:
#      x y z
#    x 2.033220 0.000000 0.000000 
#    y 0.000000 1.897640 0.000000 
#    z 0.000000 0.000000 1.857250 
# 
# From -- ./inp_files/13048.got.cif
#   From: 2010.05.17/outbox.cif.g08.bks.cpg/sg60_7_cif.got.tgz:13048.got - 2010.06.03 14:59:27.
