data_PCOD9455016
_publ_section_title
;
Structure prediction by ZEFSAII (Michael W. Deem and Ramdas Pophale) SiO2 
 PCOD9455016
Probable space group: P B C N
;
_chemical_formula_sum "Si O2"
_cell_formula_units_Z 44
_cell_length_a 6.990650
_cell_length_b 16.282000
_cell_length_c 14.243934
_cell_angle_alpha 90.000000
_cell_angle_beta 90.000000
_cell_angle_gamma 90.000000
_cell_volume 1621.269684
_symmetry_space_group_name_H-M "P B C N"
_symmetry_group_IT_number 60
_symmetry_cell_setting 'orthorhombic'
loop_
_space_group_symop_operation_xyz
x,y,z
1/2-x,1/2-y,1/2+z
1/2+x,1/2-y,-z
-x,y,1/2-z
-x,-y,-z
1/2+x,1/2+y,1/2-z
1/2-x,1/2+y,z
x,-y,1/2+z
loop_
_atom_site_type_symbol
_atom_site_label
_atom_site_fract_x
_atom_site_fract_y
_atom_site_fract_z
Si Si1 0.730809 0.693224 0.171697
Si Si2 0.831420 0.278739 0.882832
Si Si3 0.791384 0.407541 0.404831
Si Si4 0.287861 0.856802 0.426662
Si Si5 0.700344 0.471904 0.598708
Si Si6 0.500000 0.005123 0.750000
O O1 0.751716 0.691362 0.283295
O O2 0.655615 0.783267 0.143443
O O3 0.613737 0.615066 0.132969
O O4 0.941935 0.702647 0.123907
O O5 0.804098 0.181101 0.894949
O O6 0.734919 0.319186 0.973470
O O7 0.704434 0.463655 0.486236
O O8 0.830665 0.446380 0.303262
O O9 0.007373 0.398223 0.443613
O O10 0.156623 0.930911 0.387470
O O11 0.892173 0.461468 0.664522
#
# Coordination Sequence:
#
# PCOD9455016 Si02
#       6
#     8   8   8   8   8   4
#     4  11  24  38  61  85 120 159 194 237 297 354
#     4  11  21  39  61  87 120 155 194 238 298 352
#     4  11  22  38  63  90 118 153 197 248 292 344
#     4  11  21  40  61  89 120 151 197 247 289 340
#     4  11  22  36  61  90 118 152 201 241 289 347
#     4  10  20  34  60  92 116 154 200 242 288 348
#
# _framework density 27.139223000000001
#
# number of rings (size 3 to 8) (size 9 to 14) (size 15 to 20)
#    0.000    1.091    3.636    5.455    2.545    0.000 
#    0.000    0.909    0.000    2.182    0.000    0.000 
#    0.000    0.000    0.000    0.000    0.000    0.000 
#
# Total GULP energy -245811.842328 kJ/mol
# GULP energy per Si atom -5586.632780 kJ/mol
# Density = 2.707745 g / cm^3
# Si number density = 27.139223 Si / 1000 Ang^3
#
#
#
# Elastic Constant Matrix: (Units=GPa)
#
#
# Indices 1 2 3 4 5 6 
#
# 1 61.1230 24.9992 20.0662 0.0000 0.0000 0.0000
# 2 24.9992 140.0571 20.6712 0.0000 0.0000 0.0000
# 3 20.0662 20.6712 161.0773 0.0000 0.0000 0.0000
# 4 0.0000 0.0000 0.0000 45.4620 0.0000 0.0000
# 5 0.0000 0.0000 0.0000 0.0000 29.2901 0.0000
# 6 0.0000 0.0000 0.0000 0.0000 0.0000 22.7300
#
#
#
# Elastic Compliance Matrix: (Units=1/GPa)
#
#
# Indices 1 2 3 4 5 6 
#
# 1 0.018194 -0.002969 -0.001885 0.000000 0.000000 0.000000
# 2 -0.002969 0.007762 -0.000626 0.000000 0.000000 0.000000
# 3 -0.001885 -0.000626 0.006523 0.000000 0.000000 0.000000
# 4 0.000000 0.000000 0.000000 0.021996 0.000000 0.000000
# 5 0.000000 0.000000 0.000000 0.000000 0.034141 0.000000
# 6 0.000000 0.000000 0.000000 0.000000 0.000000 0.043995
#
#
# Mechanical properties :
#
#
# Convention : Reuss Voigt Hill
#
# Bulk Modulus (GPa) = 46.47315 54.85896 50.66606
# Shear Modulus (GPa) = 33.16827 39.26446 36.21637
#
# Velocity S-wave (km/s) = 3.49972 3.80778 3.65700
# Velocity P-wave (km/s) = 5.78722 6.29206 6.04491
#
# Compressibility (1/GPa) = 0.02151780
#
# Stress axis : x y z
#
# Youngs Moduli (GPa) = 54.96373 128.82689 153.29307
#
# Poissons Ratio (x) = 0.38251 0.28903
# Poissons Ratio (y) = 0.16320 0.09600
# Poissons Ratio (z) = 0.10363 0.08068
#
# Static dielectric constant tensor:
#      x y z
#    x 2.262020 0.000000 0.000000 
#    y 0.000000 2.270130 0.000000 
#    z 0.000000 0.000000 2.058700 
# 
# From -- ./inp_files/16017.got.cif
#   From: 2010.05.17/outbox.cif.g08.bks.cpg/sg60_9_cif.got.tgz:16017.got - 2010.06.03 14:59:27.
