data_PCOD9455390
_publ_section_title
;
Structure prediction by ZEFSAII (Michael W. Deem and Ramdas Pophale) SiO2 
 PCOD9455390
Probable space group: P B C N
;
_chemical_formula_sum "Si O2"
_cell_formula_units_Z 64
_cell_length_a 25.504853
_cell_length_b 9.519283
_cell_length_c 13.110461
_cell_angle_alpha 90.000000
_cell_angle_beta 90.000000
_cell_angle_gamma 90.000000
_cell_volume 3183.061472
_symmetry_space_group_name_H-M "P B C N"
_symmetry_group_IT_number 60
_symmetry_cell_setting 'orthorhombic'
loop_
_space_group_symop_operation_xyz
x,y,z
1/2-x,1/2-y,1/2+z
1/2+x,1/2-y,-z
-x,y,1/2-z
-x,-y,-z
1/2+x,1/2+y,1/2-z
1/2-x,1/2+y,z
x,-y,1/2+z
loop_
_atom_site_type_symbol
_atom_site_label
_atom_site_fract_x
_atom_site_fract_y
_atom_site_fract_z
Si Si1 0.178673 0.844214 0.750702
Si Si2 0.297642 0.511471 0.457364
Si Si3 0.869449 0.645515 0.391697
Si Si4 0.901666 0.393179 0.255520
Si Si5 0.024046 0.174552 0.138726
Si Si6 0.609127 0.459592 0.394807
Si Si7 0.748403 0.233170 0.436322
Si Si8 0.042769 0.599418 0.947752
O O1 0.204211 0.925429 0.844913
O O2 0.141771 0.715736 0.786727
O O3 0.142348 0.954153 0.689483
O O4 0.219442 0.784470 0.667926
O O5 0.356342 0.529744 0.502092
O O6 0.278767 0.353500 0.476108
O O7 0.260921 0.607585 0.529575
O O8 0.875456 0.526986 0.306731
O O9 0.809459 0.670327 0.421390
O O10 0.904872 0.597769 0.486267
O O11 0.892563 0.798014 0.361897
O O12 0.934406 0.300672 0.337531
O O13 0.941383 0.440269 0.167268
O O14 0.054754 0.041434 0.096280
O O15 0.000000 0.140559 0.250000
O O16 0.980985 0.243885 0.065611
O O17 0.000000 0.500000 0.000000
#
# Coordination Sequence:
#
# PCOD9455390 Si02
#       8
#     8   8   8   8   8   8   8   8
#     4  10  21  41  63  84 124 167 200 250 324 383
#     4  10  21  39  62  89 126 158 209 253 308 382
#     4  11  22  38  59  90 123 152 207 261 306 362
#     4  10  20  38  63  83 118 163 203 247 311 371
#     4   9  19  39  61  83 119 168 203 245 314 372
#     4   9  21  40  58  90 122 158 204 259 305 378
#     4  10  22  37  60  92 122 159 205 259 308 373
#     4  11  22  39  61  88 120 160 207 254 307 367
#
# _framework density 20.106428000000001
#
# number of rings (size 3 to 8) (size 9 to 14) (size 15 to 20)
#    0.000    2.000    1.250    2.250    0.000    5.500 
#    4.500    0.000    0.000    0.000    0.000    0.000 
#    0.000    0.000    0.000    0.000    0.000    0.000 
#
# Total GULP energy -357419.572183 kJ/mol
# GULP energy per Si atom -5584.680815 kJ/mol
# Density = 2.006067 g / cm^3
# Si number density = 20.106428 Si / 1000 Ang^3
#
#
#
# Elastic Constant Matrix: (Units=GPa)
#
#
# Indices 1 2 3 4 5 6 
#
# 1 41.7434 -4.6752 1.2715 0.0000 0.0000 0.0000
# 2 -4.6752 40.8802 0.2218 0.0000 0.0000 0.0000
# 3 1.2715 0.2218 59.1818 0.0000 0.0000 0.0000
# 4 0.0000 0.0000 0.0000 15.0430 0.0000 0.0000
# 5 0.0000 0.0000 0.0000 0.0000 19.7908 0.0000
# 6 0.0000 0.0000 0.0000 0.0000 0.0000 40.4824
#
#
#
# Elastic Compliance Matrix: (Units=1/GPa)
#
#
# Indices 1 2 3 4 5 6 
#
# 1 0.024283 0.002780 -0.000532 0.000000 0.000000 0.000000
# 2 0.002780 0.024781 -0.000153 0.000000 0.000000 0.000000
# 3 -0.000532 -0.000153 0.016909 0.000000 0.000000 0.000000
# 4 0.000000 0.000000 0.000000 0.066476 0.000000 0.000000
# 5 0.000000 0.000000 0.000000 0.000000 0.050529 0.000000
# 6 0.000000 0.000000 0.000000 0.000000 0.000000 0.024702
#
#
# Mechanical properties :
#
#
# Convention : Reuss Voigt Hill
#
# Bulk Modulus (GPa) = 14.25238 15.04904 14.65071
# Shear Modulus (GPa) = 22.03837 24.72906 23.38371
#
# Velocity S-wave (km/s) = 3.31431 3.51081 3.41397
# Velocity P-wave (km/s) = 4.66370 4.89237 4.77940
#
# Compressibility (1/GPa) = 0.07016373
#
# Stress axis : x y z
#
# Youngs Moduli (GPa) = 41.18028 40.35430 59.13978
#
# Poissons Ratio (x) = -0.11219 0.03147
# Poissons Ratio (y) = -0.11448 0.00902
# Poissons Ratio (z) = 0.02191 0.00616
#
# Static dielectric constant tensor:
#      x y z
#    x 1.726040 0.000000 0.000000 
#    y 0.000000 1.702160 0.000000 
#    z 0.000000 0.000000 1.702680 
# 
# From -- ./inp_files/17958.got.cif
#   From: 2010.05.17/outbox.cif.g08.bks.cpg/sg60_9_cif.got.tgz:17958.got - 2010.06.03 14:59:27.
