data_PCOD9455996
_publ_section_title
;
Structure prediction by ZEFSAII (Michael W. Deem and Ramdas Pophale) SiO2 
 PCOD9455996
Probable space group: P B C N
;
_chemical_formula_sum "Si O2"
_cell_formula_units_Z 48
_cell_length_a 8.752546
_cell_length_b 16.306900
_cell_length_c 18.884779
_cell_angle_alpha 90.000000
_cell_angle_beta 90.000000
_cell_angle_gamma 90.000000
_cell_volume 2695.365820
_symmetry_space_group_name_H-M "P B C N"
_symmetry_group_IT_number 60
_symmetry_cell_setting 'orthorhombic'
loop_
_space_group_symop_operation_xyz
x,y,z
1/2-x,1/2-y,1/2+z
1/2+x,1/2-y,-z
-x,y,1/2-z
-x,-y,-z
1/2+x,1/2+y,1/2-z
1/2-x,1/2+y,z
x,-y,1/2+z
loop_
_atom_site_type_symbol
_atom_site_label
_atom_site_fract_x
_atom_site_fract_y
_atom_site_fract_z
Si Si1 0.472687 0.757535 0.573753
Si Si2 0.152793 0.177363 0.209267
Si Si3 0.068996 0.593361 0.176360
Si Si4 0.126519 0.286969 0.076718
Si Si5 0.849597 0.817119 0.203961
Si Si6 0.943215 0.587501 0.672007
O O1 0.444524 0.846371 0.609923
O O2 0.550071 0.766703 0.497878
O O3 0.311233 0.708962 0.569405
O O4 0.585418 0.717867 0.630730
O O5 0.252621 0.096197 0.195823
O O6 0.106961 0.215200 0.134054
O O7 0.252178 0.248133 0.251248
O O8 0.000000 0.159521 0.250000
O O9 0.000000 0.628146 0.250000
O O10 0.986800 0.507588 0.163794
O O11 0.037567 0.362763 0.112934
O O12 0.734084 0.888677 0.179221
O O13 0.000000 0.840036 0.250000
O O14 0.000000 0.612989 0.750000
#
# Coordination Sequence:
#
# PCOD9455996 Si02
#       6
#     8   8   8   8   8   8
#     4  11  22  36  62  84 118 156 204 250 295 356
#     4  11  19  37  64  90 113 154 201 255 286 351
#     4  10  21  38  58  85 123 156 192 243 306 355
#     4  11  21  36  58  91 116 157 206 246 295 352
#     4  12  18  37  65  90 114 155 204 250 289 349
#     4  11  21  37  60  86 122 154 197 245 300 360
#
# _framework density 17.808344000000002
#
# number of rings (size 3 to 8) (size 9 to 14) (size 15 to 20)
#    0.000    1.000    8.333    1.000    0.000    0.667 
#    0.000    6.667    0.000    5.000    0.000    0.000 
#    0.000    0.000    0.000    0.000    0.000    0.000 
#
# Total GULP energy -267327.691795 kJ/mol
# GULP energy per Si atom -5569.326912 kJ/mol
# Density = 1.776781 g / cm^3
# Si number density = 17.808344 Si / 1000 Ang^3
#
#
#
# Elastic Constant Matrix: (Units=GPa)
#
#
# Indices 1 2 3 4 5 6 
#
# 1 144.2170 69.3702 61.8490 0.0000 0.0000 0.0000
# 2 69.3702 73.8862 21.2053 0.0000 0.0000 0.0000
# 3 61.8490 21.2053 139.3141 0.0000 0.0000 0.0000
# 4 0.0000 0.0000 0.0000 17.9046 0.0000 0.0000
# 5 0.0000 0.0000 0.0000 0.0000 41.8599 0.0000
# 6 0.0000 0.0000 0.0000 0.0000 0.0000 21.5713
#
#
#
# Elastic Compliance Matrix: (Units=1/GPa)
#
#
# Indices 1 2 3 4 5 6 
#
# 1 0.015178 -0.012879 -0.004778 0.000000 0.000000 0.000000
# 2 -0.012879 0.025081 0.001900 0.000000 0.000000 0.000000
# 3 -0.004778 0.001900 0.009010 0.000000 0.000000 0.000000
# 4 0.000000 0.000000 0.000000 0.055851 0.000000 0.000000
# 5 0.000000 0.000000 0.000000 0.000000 0.023889 0.000000
# 6 0.000000 0.000000 0.000000 0.000000 0.000000 0.046358
#
#
# Mechanical properties :
#
#
# Convention : Reuss Voigt Hill
#
# Bulk Modulus (GPa) = 56.32211 73.58514 64.95362
# Shear Modulus (GPa) = 23.49621 29.93334 26.71477
#
# Velocity S-wave (km/s) = 3.63629 4.10428 3.87735
# Velocity P-wave (km/s) = 7.02322 7.99190 7.52316
#
# Compressibility (1/GPa) = 0.01775502
#
# Stress axis : x y z
#
# Youngs Moduli (GPa) = 65.88424 39.87084 110.98750
#
# Poissons Ratio (x) = 0.51350 0.53030
# Poissons Ratio (y) = 0.84853 -0.21089
# Poissons Ratio (z) = 0.31480 -0.07576
#
# Static dielectric constant tensor:
#      x y z
#    x 1.683160 0.000000 0.000000 
#    y 0.000000 1.624370 0.000000 
#    z 0.000000 0.000000 1.590470 
# 
# From -- ./inp_files/19443.got.cif
#   From: 2010.05.17/outbox.cif.g08.bks.cpg/sg60_10_cif.got.tgz:19443.got - 2010.06.03 14:59:27.
