data_PCOD9455376
_publ_section_title
;
Structure prediction by ZEFSAII (Michael W. Deem and Ramdas Pophale) SiO2 
 PCOD9455376
Probable space group: P B C N
;
_chemical_formula_sum "Si O2"
_cell_formula_units_Z 60
_cell_length_a 23.064436
_cell_length_b 19.824315
_cell_length_c 5.199401
_cell_angle_alpha 90.000000
_cell_angle_beta 90.000000
_cell_angle_gamma 90.000000
_cell_volume 2377.356667
_symmetry_space_group_name_H-M "P B C N"
_symmetry_group_IT_number 60
_symmetry_cell_setting 'orthorhombic'
loop_
_space_group_symop_operation_xyz
x,y,z
1/2-x,1/2-y,1/2+z
1/2+x,1/2-y,-z
-x,y,1/2-z
-x,-y,-z
1/2+x,1/2+y,1/2-z
1/2-x,1/2+y,z
x,-y,1/2+z
loop_
_atom_site_type_symbol
_atom_site_label
_atom_site_fract_x
_atom_site_fract_y
_atom_site_fract_z
Si Si1 0.771454 0.476334 0.016470
Si Si2 0.314738 0.298107 0.248437
Si Si3 0.500000 0.754908 0.750000
Si Si4 0.903792 0.470105 0.176538
Si Si5 0.752477 0.335972 0.755280
Si Si6 0.918075 0.811246 0.597862
Si Si7 0.570241 0.540330 0.269164
Si Si8 0.434501 0.824642 0.136150
O O1 0.742841 0.475549 0.299818
O O2 0.837522 0.489933 0.107111
O O3 0.772095 0.407512 0.857250
O O4 0.303573 0.218213 0.222178
O O5 0.271866 0.329942 0.032147
O O6 0.377512 0.317812 0.151983
O O7 0.296492 0.316393 0.535618
O O8 0.481116 0.705666 0.521298
O O9 0.551784 0.803776 0.657548
O O10 0.931084 0.518222 0.395129
O O11 0.904745 0.394645 0.291374
O O12 0.913585 0.881273 0.745388
O O13 0.903945 0.741634 0.746215
O O14 0.500000 0.538732 0.250000
O O15 0.590651 0.503990 0.527169
O O16 0.500000 0.831505 0.250000
#
# Coordination Sequence:
#
# PCOD9455376 Si02
#       8
#     8   8   4   8   8   8   8   8
#     4  10  20  38  62  89 121 164 204 248 305 370
#     4  10  23  39  67  90 126 156 208 256 322 365
#     4  10  24  40  64  92 128 164 226 262 332 372
#     4  10  23  39  61  92 128 168 218 258 308 375
#     4  10  21  42  60  95 121 162 202 260 309 382
#     4  11  24  42  65  95 125 169 212 275 314 400
#     4  10  23  40  63  89 122 162 205 254 316 381
#     4  10  23  40  60  90 124 170 213 263 318 366
#
# _framework density 25.238113999999999
#
# number of rings (size 3 to 8) (size 9 to 14) (size 15 to 20)
#    0.000    1.867    0.000    2.800   10.267    0.533 
#    4.800    4.000    0.000    0.000    0.000    0.000 
#    0.000    0.000    0.000    0.000    0.000    0.000 
#
# Total GULP energy -335259.038465 kJ/mol
# GULP energy per Si atom -5587.650641 kJ/mol
# Density = 2.518067 g / cm^3
# Si number density = 25.238114 Si / 1000 Ang^3
#
#
#
# Elastic Constant Matrix: (Units=GPa)
#
#
# Indices 1 2 3 4 5 6 
#
# 1 36.0894 8.4099 3.2733 0.0000 0.0000 0.0000
# 2 8.4099 181.1319 53.9534 0.0000 0.0000 0.0000
# 3 3.2733 53.9534 117.4680 0.0000 0.0000 0.0000
# 4 0.0000 0.0000 0.0000 36.7187 0.0000 0.0000
# 5 0.0000 0.0000 0.0000 0.0000 29.0349 0.0000
# 6 0.0000 0.0000 0.0000 0.0000 0.0000 20.3950
#
#
#
# Elastic Compliance Matrix: (Units=1/GPa)
#
#
# Indices 1 2 3 4 5 6 
#
# 1 0.028017 -0.001238 -0.000212 0.000000 0.000000 0.000000
# 2 -0.001238 0.006451 -0.002928 0.000000 0.000000 0.000000
# 3 -0.000212 -0.002928 0.009864 0.000000 0.000000 0.000000
# 4 0.000000 0.000000 0.000000 0.027234 0.000000 0.000000
# 5 0.000000 0.000000 0.000000 0.000000 0.034441 0.000000
# 6 0.000000 0.000000 0.000000 0.000000 0.000000 0.049032
#
#
# Mechanical properties :
#
#
# Convention : Reuss Voigt Hill
#
# Bulk Modulus (GPa) = 28.10986 51.77366 39.94176
# Shear Modulus (GPa) = 28.46530 35.16657 31.81594
#
# Velocity S-wave (km/s) = 3.36202 3.73687 3.55439
# Velocity P-wave (km/s) = 5.12181 6.25919 5.71885
#
# Compressibility (1/GPa) = 0.03557471
#
# Stress axis : x y z
#
# Youngs Moduli (GPa) = 35.69314 155.02590 101.38049
#
# Poissons Ratio (x) = 0.19186 0.02152
# Poissons Ratio (y) = 0.04417 0.29687
# Poissons Ratio (z) = 0.00758 0.45396
#
# Static dielectric constant tensor:
#      x y z
#    x 2.056330 0.000000 0.000000 
#    y 0.000000 1.979830 0.000000 
#    z 0.000000 0.000000 2.139650 
# 
# From -- ./inp_files/2612.got.cif
#   From: 2010.05.17/outbox.cif.g08.bks.cpg/sg60_2_cif.got.tgz:2612.got - 2010.06.03 14:59:27.
