data_PCOD9455652
_publ_section_title
;
Structure prediction by ZEFSAII (Michael W. Deem and Ramdas Pophale) SiO2 
 PCOD9455652
Probable space group: P B C N
;
_chemical_formula_sum "Si O2"
_cell_formula_units_Z 44
_cell_length_a 9.800328
_cell_length_b 16.046072
_cell_length_c 12.325807
_cell_angle_alpha 90.000000
_cell_angle_beta 90.000000
_cell_angle_gamma 90.000000
_cell_volume 1938.316581
_symmetry_space_group_name_H-M "P B C N"
_symmetry_group_IT_number 60
_symmetry_cell_setting 'orthorhombic'
loop_
_space_group_symop_operation_xyz
x,y,z
1/2-x,1/2-y,1/2+z
1/2+x,1/2-y,-z
-x,y,1/2-z
-x,-y,-z
1/2+x,1/2+y,1/2-z
1/2-x,1/2+y,z
x,-y,1/2+z
loop_
_atom_site_type_symbol
_atom_site_label
_atom_site_fract_x
_atom_site_fract_y
_atom_site_fract_z
Si Si1 0.421536 0.714891 0.478910
Si Si2 0.000000 0.372327 0.750000
Si Si3 0.628540 0.007249 0.426466
Si Si4 0.847229 0.317870 0.391528
Si Si5 0.698813 0.673210 0.242870
Si Si6 0.899611 0.075483 0.463961
O O1 0.285301 0.722095 0.548119
O O2 0.508698 0.796654 0.450217
O O3 0.373930 0.662625 0.372449
O O4 0.537622 0.654165 0.526049
O O5 0.927607 0.432085 0.835379
O O6 0.861970 0.323775 0.717544
O O7 0.671565 0.916271 0.382921
O O8 0.500000 0.000000 0.500000
O O9 0.751313 0.044258 0.496477
O O10 0.846331 0.264660 0.282384
O O11 0.642342 0.609392 0.338353
O O12 0.000000 0.000000 0.500000
#
# Coordination Sequence:
#
# PCOD9455652 Si02
#       6
#     8   4   8   8   8   8
#     4  11  24  42  69  91 139 174 222 278 347 403
#     4  10  24  42  70  94 132 176 224 284 350 410
#     4  11  24  41  66  96 132 171 226 282 341 403
#     4  11  24  40  68  97 130 178 226 274 335 425
#     4  10  24  44  67  95 137 181 219 278 353 403
#     4  10  20  41  65  94 124 168 219 268 337 408
#
# _framework density 22.700109999999999
#
# number of rings (size 3 to 8) (size 9 to 14) (size 15 to 20)
#    0.000    1.455    1.818    3.273   12.727    0.000 
#    0.000    0.000    8.000    0.000    0.000    0.000 
#    0.000    0.000    0.000    0.000    0.000    0.000 
#
# Total GULP energy -244948.191932 kJ/mol
# GULP energy per Si atom -5567.004362 kJ/mol
# Density = 2.264844 g / cm^3
# Si number density = 22.700110 Si / 1000 Ang^3
#
#
#
# Elastic Constant Matrix: (Units=GPa)
#
#
# Indices 1 2 3 4 5 6 
#
# 1 206.8963 13.3914 20.0447 0.0000 0.0000 0.0000
# 2 13.3914 63.5943 2.6732 0.0000 0.0000 0.0000
# 3 20.0447 2.6732 19.2107 0.0000 0.0000 0.0000
# 4 0.0000 0.0000 0.0000 8.2389 0.0000 0.0000
# 5 0.0000 0.0000 0.0000 0.0000 30.7102 0.0000
# 6 0.0000 0.0000 0.0000 0.0000 0.0000 28.7026
#
#
#
# Elastic Compliance Matrix: (Units=1/GPa)
#
#
# Indices 1 2 3 4 5 6 
#
# 1 0.005429 -0.000910 -0.005538 0.000000 0.000000 0.000000
# 2 -0.000910 0.015970 -0.001272 0.000000 0.000000 0.000000
# 3 -0.005538 -0.001272 0.058010 0.000000 0.000000 0.000000
# 4 0.000000 0.000000 0.000000 0.121376 0.000000 0.000000
# 5 0.000000 0.000000 0.000000 0.000000 0.032562 0.000000
# 6 0.000000 0.000000 0.000000 0.000000 0.000000 0.034840
#
#
# Mechanical properties :
#
#
# Convention : Reuss Voigt Hill
#
# Bulk Modulus (GPa) = 15.63296 40.21331 27.92314
# Shear Modulus (GPa) = 16.39611 30.43646 23.41628
#
# Velocity S-wave (km/s) = 2.69046 3.66567 3.21526
# Velocity P-wave (km/s) = 4.06856 5.97241 5.10993
#
# Compressibility (1/GPa) = 0.06396740
#
# Stress axis : x y z
#
# Youngs Moduli (GPa) = 184.20330 62.61792 17.23849
#
# Poissons Ratio (x) = 0.05701 0.09546
# Poissons Ratio (y) = 0.16770 0.02193
# Poissons Ratio (z) = 1.02008 0.07967
#
# Static dielectric constant tensor:
#      x y z
#    x -2.770150 0.000000 0.000000 
#    y 0.000000 3.010190 0.000000 
#    z 0.000000 0.000000 1.880230 
# 
# From -- ./inp_files/14905.got.cif
#   From: 2010.05.17/outbox.cif.g08.bks.cpg/sg60_8_cif.got.tgz:14905.got - 2010.06.03 14:59:27.
