data_PCOD9455367
_publ_section_title
;
Structure prediction by ZEFSAII (Michael W. Deem and Ramdas Pophale) SiO2 
 PCOD9455367
Probable space group: P B C N
;
_chemical_formula_sum "Si O2"
_cell_formula_units_Z 52
_cell_length_a 27.463090
_cell_length_b 5.233162
_cell_length_c 16.737945
_cell_angle_alpha 90.000000
_cell_angle_beta 90.000000
_cell_angle_gamma 90.000000
_cell_volume 2405.557353
_symmetry_space_group_name_H-M "P B C N"
_symmetry_group_IT_number 60
_symmetry_cell_setting 'orthorhombic'
loop_
_space_group_symop_operation_xyz
x,y,z
1/2-x,1/2-y,1/2+z
1/2+x,1/2-y,-z
-x,y,1/2-z
-x,-y,-z
1/2+x,1/2+y,1/2-z
1/2-x,1/2+y,z
x,-y,1/2+z
loop_
_atom_site_type_symbol
_atom_site_label
_atom_site_fract_x
_atom_site_fract_y
_atom_site_fract_z
Si Si1 0.085330 0.674109 0.735343
Si Si2 0.500000 0.461047 0.250000
Si Si3 0.835518 0.937116 0.241658
Si Si4 0.778699 0.997406 0.587173
Si Si5 0.128451 0.673859 0.116417
Si Si6 0.924908 0.692809 0.140541
Si Si7 0.872631 0.171476 0.486738
O O1 0.086429 0.435131 0.675467
O O2 0.077207 0.597573 0.827993
O O3 0.042218 0.861904 0.713485
O O4 0.138298 0.802581 0.730811
O O5 0.473165 0.303333 0.319152
O O6 0.791729 0.979397 0.181359
O O7 0.829895 0.766860 0.320877
O O8 0.877994 0.810114 0.187085
O O9 0.737797 0.209671 0.569805
O O10 0.825677 0.076056 0.536165
O O11 0.139939 0.431862 0.060778
O O12 0.114138 0.927643 0.067864
O O13 0.915030 0.750939 0.048984
#
# Coordination Sequence:
#
# PCOD9455367 Si02
#       7
#     8   4   8   8   8   8   8
#     4  10  20  40  68  92 127 172 218 262 316 380
#     4  10  20  38  62 100 126 162 226 274 308 362
#     4   9  21  40  66  90 121 170 214 258 311 381
#     4  11  25  42  66  96 126 161 216 270 314 375
#     4  11  22  41  66  93 128 173 210 254 316 397
#     4   9  21  36  65  90 125 169 218 258 309 377
#     4  11  24  41  66  92 132 171 212 258 329 388
#
# _framework density 21.616610000000001
#
# number of rings (size 3 to 8) (size 9 to 14) (size 15 to 20)
#    0.000    1.846    1.538    1.385   12.923    0.000 
#    0.000    6.154    0.000    0.000    0.000    0.000 
#    0.000    0.000    0.000    0.000    0.000    0.000 
#
# Total GULP energy -290026.355109 kJ/mol
# GULP energy per Si atom -5577.429906 kJ/mol
# Density = 2.156741 g / cm^3
# Si number density = 21.616610 Si / 1000 Ang^3
#
#
#
# Elastic Constant Matrix: (Units=GPa)
#
#
# Indices 1 2 3 4 5 6 
#
# 1 37.8410 14.0557 10.4666 0.0000 0.0000 0.0000
# 2 14.0557 109.1522 46.5058 0.0000 0.0000 0.0000
# 3 10.4666 46.5058 103.1540 0.0000 0.0000 0.0000
# 4 0.0000 0.0000 0.0000 23.0198 0.0000 0.0000
# 5 0.0000 0.0000 0.0000 0.0000 16.9814 0.0000
# 6 0.0000 0.0000 0.0000 0.0000 0.0000 25.7955
#
#
#
# Elastic Compliance Matrix: (Units=1/GPa)
#
#
# Indices 1 2 3 4 5 6 
#
# 1 0.027940 -0.002958 -0.001501 0.000000 0.000000 0.000000
# 2 -0.002958 0.011653 -0.004953 0.000000 0.000000 0.000000
# 3 -0.001501 -0.004953 0.012080 0.000000 0.000000 0.000000
# 4 0.000000 0.000000 0.000000 0.043441 0.000000 0.000000
# 5 0.000000 0.000000 0.000000 0.000000 0.058888 0.000000
# 6 0.000000 0.000000 0.000000 0.000000 0.000000 0.038766
#
#
# Mechanical properties :
#
#
# Convention : Reuss Voigt Hill
#
# Bulk Modulus (GPa) = 30.44404 43.57816 37.01110
# Shear Modulus (GPa) = 22.46752 25.10061 23.78407
#
# Velocity S-wave (km/s) = 3.22741 3.41129 3.32063
# Velocity P-wave (km/s) = 5.29174 5.97656 5.64454
#
# Compressibility (1/GPa) = 0.03284715
#
# Stress axis : x y z
#
# Youngs Moduli (GPa) = 35.79038 85.81525 82.78303
#
# Poissons Ratio (x) = 0.25387 0.12428
# Poissons Ratio (y) = 0.10588 0.41006
# Poissons Ratio (z) = 0.05373 0.42508
#
# Static dielectric constant tensor:
#      x y z
#    x 1.771830 0.000000 0.000000 
#    y 0.000000 1.876110 0.000000 
#    z 0.000000 0.000000 1.846430 
# 
# From -- ./inp_files/21204.got.cif
#   From: 2010.05.17/outbox.cif.g08.bks.cpg/sg60_11_cif.got.tgz:21204.got - 2010.06.03 14:59:27.
