data_PCOD9455728
_publ_section_title
;
Structure prediction by ZEFSAII (Michael W. Deem and Ramdas Pophale) SiO2 
 PCOD9455728
Probable space group: P B C N
;
_chemical_formula_sum "Si O2"
_cell_formula_units_Z 60
_cell_length_a 13.620820
_cell_length_b 13.191581
_cell_length_c 14.297203
_cell_angle_alpha 90.000000
_cell_angle_beta 90.000000
_cell_angle_gamma 90.000000
_cell_volume 2568.923584
_symmetry_space_group_name_H-M "P B C N"
_symmetry_group_IT_number 60
_symmetry_cell_setting 'orthorhombic'
loop_
_space_group_symop_operation_xyz
x,y,z
1/2-x,1/2-y,1/2+z
1/2+x,1/2-y,-z
-x,y,1/2-z
-x,-y,-z
1/2+x,1/2+y,1/2-z
1/2-x,1/2+y,z
x,-y,1/2+z
loop_
_atom_site_type_symbol
_atom_site_label
_atom_site_fract_x
_atom_site_fract_y
_atom_site_fract_z
Si Si1 0.500000 0.208767 0.250000
Si Si2 0.687946 0.844983 0.847618
Si Si3 0.201524 0.105853 0.662843
Si Si4 0.321362 0.467713 0.972054
Si Si5 0.607252 0.893739 0.228138
Si Si6 0.182723 0.815374 0.814361
Si Si7 0.614961 0.975049 0.020151
Si Si8 0.136261 0.835437 0.359094
O O1 0.407556 0.145944 0.217679
O O2 0.536122 0.273692 0.159459
O O3 0.725287 0.746668 0.645941
O O4 0.776905 0.873702 0.777787
O O5 0.658614 0.898293 0.943068
O O6 0.149090 0.048997 0.578824
O O7 0.312517 0.076389 0.694005
O O8 0.145728 0.104212 0.761097
O O9 0.357113 0.388800 0.894126
O O10 0.203031 0.442929 0.979133
O O11 0.348900 0.581239 0.938818
O O12 0.500000 0.930113 0.250000
O O13 0.610451 0.771940 0.220374
O O14 0.627768 0.932485 0.124317
O O15 0.295364 0.725075 0.635094
O O16 0.500000 0.000000 0.000000
#
# Coordination Sequence:
#
# PCOD9455728 Si02
#       8
#     4   8   8   8   8   8   8   8
#     4   8  18  42  66  82 120 162 212 252 306 368
#     4   9  21  41  62  86 121 159 208 247 314 374
#     4   9  20  39  62  84 118 170 197 257 304 375
#     4  12  22  37  63  88 123 158 208 244 317 370
#     4  10  20  43  57  84 131 158 205 261 307 362
#     4   9  21  40  64  83 119 171 199 253 309 372
#     4  12  25  34  60  99 126 157 202 263 315 378
#     4   9  20  41  61  86 121 158 208 258 300 369
#
# _framework density 23.356086999999999
#
# number of rings (size 3 to 8) (size 9 to 14) (size 15 to 20)
#    0.000    2.667    2.667    1.600    5.600    1.067 
#    1.200    2.667    0.000    0.000    0.000    0.000 
#    0.000    0.000    0.000    0.000    0.000    0.000 
#
# Total GULP energy -334671.317889 kJ/mol
# GULP energy per Si atom -5577.855298 kJ/mol
# Density = 2.330293 g / cm^3
# Si number density = 23.356087 Si / 1000 Ang^3
#
#
#
# Elastic Constant Matrix: (Units=GPa)
#
#
# Indices 1 2 3 4 5 6 
#
# 1 31.5669 -3.3786 -9.6737 0.0000 0.0000 0.0000
# 2 -3.3786 75.1779 39.5532 0.0000 0.0000 0.0000
# 3 -9.6737 39.5532 150.9092 0.0000 0.0000 0.0000
# 4 0.0000 0.0000 0.0000 37.3865 0.0000 0.0000
# 5 0.0000 0.0000 0.0000 0.0000 23.7413 0.0000
# 6 0.0000 0.0000 0.0000 0.0000 0.0000 7.9396
#
#
#
# Elastic Compliance Matrix: (Units=1/GPa)
#
#
# Indices 1 2 3 4 5 6 
#
# 1 0.032325 0.000420 0.001962 0.000000 0.000000 0.000000
# 2 0.000420 0.015435 -0.004019 0.000000 0.000000 0.000000
# 3 0.001962 -0.004019 0.007806 0.000000 0.000000 0.000000
# 4 0.000000 0.000000 0.000000 0.026748 0.000000 0.000000
# 5 0.000000 0.000000 0.000000 0.000000 0.042121 0.000000
# 6 0.000000 0.000000 0.000000 0.000000 0.000000 0.125951
#
#
# Mechanical properties :
#
#
# Convention : Reuss Voigt Hill
#
# Bulk Modulus (GPa) = 19.12294 34.51732 26.82013
# Shear Modulus (GPa) = 18.44419 29.22367 23.83393
#
# Velocity S-wave (km/s) = 2.81320 3.54110 3.19793
# Velocity P-wave (km/s) = 4.33099 5.61516 5.01435
#
# Compressibility (1/GPa) = 0.05229320
#
# Stress axis : x y z
#
# Youngs Moduli (GPa) = 30.93580 64.78808 128.11449
#
# Poissons Ratio (x) = -0.02724 -0.25135
# Poissons Ratio (y) = -0.01301 0.51483
# Poissons Ratio (z) = -0.06069 0.26035
#
# Static dielectric constant tensor:
#      x y z
#    x 1.916000 0.000000 0.000000 
#    y 0.000000 1.967930 0.000000 
#    z 0.000000 0.000000 1.963660 
# 
# From -- ./inp_files/17012.got.cif
#   From: 2010.05.17/outbox.cif.g08.bks.cpg/sg60_9_cif.got.tgz:17012.got - 2010.06.03 14:59:27.
