data_PCOD9455675
_publ_section_title
;
Structure prediction by ZEFSAII (Michael W. Deem and Ramdas Pophale) SiO2 
 PCOD9455675
Probable space group: P B C N
;
_chemical_formula_sum "Si O2"
_cell_formula_units_Z 32
_cell_length_a 7.438595
_cell_length_b 12.422531
_cell_length_c 16.492952
_cell_angle_alpha 90.000000
_cell_angle_beta 90.000000
_cell_angle_gamma 90.000000
_cell_volume 1524.050641
_symmetry_space_group_name_H-M "P B C N"
_symmetry_group_IT_number 60
_symmetry_cell_setting 'orthorhombic'
loop_
_space_group_symop_operation_xyz
x,y,z
1/2-x,1/2-y,1/2+z
1/2+x,1/2-y,-z
-x,y,1/2-z
-x,-y,-z
1/2+x,1/2+y,1/2-z
1/2-x,1/2+y,z
x,-y,1/2+z
loop_
_atom_site_type_symbol
_atom_site_label
_atom_site_fract_x
_atom_site_fract_y
_atom_site_fract_z
Si Si1 0.474268 0.669372 0.156603
Si Si2 0.066330 0.366619 0.664246
Si Si3 0.773172 0.580281 0.046240
Si Si4 0.480180 0.905646 0.109651
O O1 0.500000 0.631777 0.250000
O O2 0.262713 0.669305 0.140611
O O3 0.584949 0.601289 0.090096
O O4 0.532553 0.793676 0.148649
O O5 0.074759 0.497343 0.668695
O O6 0.000000 0.322887 0.750000
O O7 0.915408 0.346940 0.597042
O O8 0.851106 0.459597 0.061408
O O9 0.814451 0.606301 0.953422
#
# Coordination Sequence:
#
# PCOD9455675 Si02
#       4
#     8   8   8   8
#     4  12  22  37  66  88 118 167 195 247 324 352
#     4  10  20  42  58  86 126 148 203 256 290 363
#     4   9  22  42  56  87 124 153 203 257 287 363
#     4   9  22  41  59  87 124 155 207 251 295 370
#
# _framework density 20.996676000000001
#
# number of rings (size 3 to 8) (size 9 to 14) (size 15 to 20)
#    1.500    0.500    2.500    0.750    3.500    1.000 
#    4.500    1.250    0.000    0.000    0.000    0.000 
#    0.000    0.000    0.000    0.000    0.000    0.000 
#
# Total GULP energy -178142.466074 kJ/mol
# GULP energy per Si atom -5566.952065 kJ/mol
# Density = 2.094889 g / cm^3
# Si number density = 20.996676 Si / 1000 Ang^3
#
#
#
# Elastic Constant Matrix: (Units=GPa)
#
#
# Indices 1 2 3 4 5 6 
#
# 1 110.5224 -3.9233 19.2178 0.0000 0.0000 0.0000
# 2 -3.9233 49.1613 -3.7110 0.0000 0.0000 0.0000
# 3 19.2178 -3.7110 78.7767 0.0000 0.0000 0.0000
# 4 0.0000 0.0000 0.0000 4.5822 0.0000 0.0000
# 5 0.0000 0.0000 0.0000 0.0000 34.5516 0.0000
# 6 0.0000 0.0000 0.0000 0.0000 0.0000 16.9230
#
#
#
# Elastic Compliance Matrix: (Units=1/GPa)
#
#
# Indices 1 2 3 4 5 6 
#
# 1 0.009465 0.000583 -0.002282 0.000000 0.000000 0.000000
# 2 0.000583 0.020450 0.000821 0.000000 0.000000 0.000000
# 3 -0.002282 0.000821 0.013289 0.000000 0.000000 0.000000
# 4 0.000000 0.000000 0.000000 0.218234 0.000000 0.000000
# 5 0.000000 0.000000 0.000000 0.000000 0.028942 0.000000
# 6 0.000000 0.000000 0.000000 0.000000 0.000000 0.059091
#
#
# Mechanical properties :
#
#
# Convention : Reuss Voigt Hill
#
# Bulk Modulus (GPa) = 24.12561 29.06969 26.59765
# Shear Modulus (GPa) = 13.69701 26.33650 20.01676
#
# Velocity S-wave (km/s) = 2.55687 3.54548 3.09095
# Velocity P-wave (km/s) = 4.49799 5.53493 5.04318
#
# Compressibility (1/GPa) = 0.04144973
#
# Stress axis : x y z
#
# Youngs Moduli (GPa) = 105.64824 48.90040 75.24796
#
# Poissons Ratio (x) = -0.02852 0.17169
# Poissons Ratio (y) = -0.06161 -0.06179
# Poissons Ratio (z) = 0.24105 -0.04015
#
# Static dielectric constant tensor:
#      x y z
#    x 1.766470 0.000000 0.000000 
#    y 0.000000 1.758510 0.000000 
#    z 0.000000 0.000000 1.795940 
# 
# From -- ./inp_files/14492.got.cif
#   From: 2010.05.17/outbox.cif.g08.bks.cpg/sg60_8_cif.got.tgz:14492.got - 2010.06.03 14:59:27.
