data_PCOD9455984
_publ_section_title
;
Structure prediction by ZEFSAII (Michael W. Deem and Ramdas Pophale) SiO2 
 PCOD9455984
Probable space group: P B C N
;
_chemical_formula_sum "Si O2"
_cell_formula_units_Z 48
_cell_length_a 25.092462
_cell_length_b 5.414919
_cell_length_c 13.639178
_cell_angle_alpha 90.000000
_cell_angle_beta 90.000000
_cell_angle_gamma 90.000000
_cell_volume 1853.204888
_symmetry_space_group_name_H-M "P B C N"
_symmetry_group_IT_number 60
_symmetry_cell_setting 'orthorhombic'
loop_
_space_group_symop_operation_xyz
x,y,z
1/2-x,1/2-y,1/2+z
1/2+x,1/2-y,-z
-x,y,1/2-z
-x,-y,-z
1/2+x,1/2+y,1/2-z
1/2-x,1/2+y,z
x,-y,1/2+z
loop_
_atom_site_type_symbol
_atom_site_label
_atom_site_fract_x
_atom_site_fract_y
_atom_site_fract_z
Si Si1 0.440171 0.394295 0.007183
Si Si2 0.275070 0.639692 0.287989
Si Si3 0.390125 0.890406 0.003980
Si Si4 0.891369 0.341491 0.260188
Si Si5 0.766222 0.411222 0.492521
Si Si6 0.938751 0.157097 0.761752
O O1 0.404529 0.617722 0.966220
O O2 0.427561 0.367749 0.122604
O O3 0.427101 0.118736 0.969876
O O4 0.500000 0.500000 0.000000
O O5 0.264870 0.359026 0.254867
O O6 0.332986 0.743234 0.264386
O O7 0.265813 0.619794 0.405714
O O8 0.396699 0.866920 0.122107
O O9 0.328368 0.948744 0.986983
O O10 0.903163 0.617247 0.222583
O O11 0.930181 0.121760 0.224328
O O12 0.741921 0.649180 0.440221
O O13 0.000000 0.231728 0.750000
#
# Coordination Sequence:
#
# PCOD9455984 Si02
#       6
#     8   8   8   8   8   8
#     4  10  21  40  60  90 120 154 205 253 303 368
#     4  10  21  38  56  84 123 151 201 246 293 361
#     4  10  21  38  62  84 120 163 200 247 308 361
#     4  10  21  38  62  84 120 162 199 246 308 360
#     4  10  21  38  56  84 123 153 202 247 293 361
#     4  10  21  40  60  90 120 153 205 253 301 367
#
# _framework density 25.901074999999999
#
# number of rings (size 3 to 8) (size 9 to 14) (size 15 to 20)
#    0.000    2.000    0.000    3.000    0.000    1.333 
#   18.000    0.000    0.000    0.000    0.000    0.000 
#    0.000    0.000    0.000    0.000    0.000    0.000 
#
# Total GULP energy -268707.000923 kJ/mol
# GULP energy per Si atom -5598.062519 kJ/mol
# Density = 2.584212 g / cm^3
# Si number density = 25.901075 Si / 1000 Ang^3
#
#
#
# Elastic Constant Matrix: (Units=GPa)
#
#
# Indices 1 2 3 4 5 6 
#
# 1 109.6602 57.8197 -28.6693 0.0000 0.0000 0.0000
# 2 57.8197 215.5348 50.3794 0.0000 0.0000 0.0000
# 3 -28.6693 50.3794 87.4397 0.0000 0.0000 0.0000
# 4 0.0000 0.0000 0.0000 48.1249 0.0000 0.0000
# 5 0.0000 0.0000 0.0000 0.0000 28.6119 0.0000
# 6 0.0000 0.0000 0.0000 0.0000 0.0000 77.4404
#
#
#
# Elastic Compliance Matrix: (Units=1/GPa)
#
#
# Indices 1 2 3 4 5 6 
#
# 1 0.014158 -0.005643 0.007893 0.000000 0.000000 0.000000
# 2 -0.005643 0.007611 -0.006235 0.000000 0.000000 0.000000
# 3 0.007893 -0.006235 0.017617 0.000000 0.000000 0.000000
# 4 0.000000 0.000000 0.000000 0.020779 0.000000 0.000000
# 5 0.000000 0.000000 0.000000 0.000000 0.034950 0.000000
# 6 0.000000 0.000000 0.000000 0.000000 0.000000 0.012913
#
#
# Mechanical properties :
#
#
# Convention : Reuss Voigt Hill
#
# Bulk Modulus (GPa) = 31.83088 63.52158 47.67623
# Shear Modulus (GPa) = 39.53476 53.04243 46.28859
#
# Velocity S-wave (km/s) = 3.91112 4.53027 4.23203
# Velocity P-wave (km/s) = 5.71943 7.20710 6.50593
#
# Compressibility (1/GPa) = 0.03141604
#
# Stress axis : x y z
#
# Youngs Moduli (GPa) = 70.63099 131.39058 56.76317
#
# Poissons Ratio (x) = 0.74145 -0.44805
# Poissons Ratio (y) = 0.39858 0.35394
# Poissons Ratio (z) = -0.55752 0.81926
#
# Static dielectric constant tensor:
#      x y z
#    x 1.940500 0.000000 0.000000 
#    y 0.000000 2.086700 0.000000 
#    z 0.000000 0.000000 2.091810 
# 
# From -- ./inp_files/21125.got.cif
#   From: 2010.05.17/outbox.cif.g08.bks.cpg/sg60_11_cif.got.tgz:21125.got - 2010.06.03 14:59:27.
