data_PCOD9455869
_publ_section_title
;
Structure prediction by ZEFSAII (Michael W. Deem and Ramdas Pophale) SiO2 
 PCOD9455869
Probable space group: P B C N
;
_chemical_formula_sum "Si O2"
_cell_formula_units_Z 40
_cell_length_a 7.039435
_cell_length_b 13.462170
_cell_length_c 16.399142
_cell_angle_alpha 90.000000
_cell_angle_beta 90.000000
_cell_angle_gamma 90.000000
_cell_volume 1554.082250
_symmetry_space_group_name_H-M "P B C N"
_symmetry_group_IT_number 60
_symmetry_cell_setting 'orthorhombic'
loop_
_space_group_symop_operation_xyz
x,y,z
1/2-x,1/2-y,1/2+z
1/2+x,1/2-y,-z
-x,y,1/2-z
-x,-y,-z
1/2+x,1/2+y,1/2-z
1/2-x,1/2+y,z
x,-y,1/2+z
loop_
_atom_site_type_symbol
_atom_site_label
_atom_site_fract_x
_atom_site_fract_y
_atom_site_fract_z
Si Si1 0.734432 0.464571 0.577878
Si Si2 0.807104 0.409726 0.227715
Si Si3 0.304572 0.240023 0.904223
Si Si4 0.101286 0.759076 0.167405
Si Si5 0.663502 0.899858 0.946330
O O1 0.693206 0.526282 0.660502
O O2 0.653588 0.354550 0.582790
O O3 0.704821 0.518886 0.490743
O O4 0.965428 0.450073 0.579323
O O5 0.875529 0.311857 0.177646
O O6 0.696622 0.362298 0.304233
O O7 0.000000 0.465206 0.250000
O O8 0.075744 0.227509 0.893833
O O9 0.375087 0.173726 0.977899
O O10 0.227366 0.673115 0.126563
O O11 0.000000 0.720930 0.250000
#
# Coordination Sequence:
#
# PCOD9455869 Si02
#       5
#     8   8   8   8   8
#     4   9  19  36  60  86 116 159 207 242 290 369
#     4  10  21  36  59  87 116 158 206 247 295 361
#     4   9  19  38  59  83 117 155 194 249 304 347
#     4   9  19  36  59  85 122 160 192 248 308 349
#     4   9  18  34  60  87 114 154 201 243 292 356
#
# _framework density 25.738665000000001
#
# number of rings (size 3 to 8) (size 9 to 14) (size 15 to 20)
#    0.000    2.800    0.000    0.000    0.000   14.400 
#    0.000    5.000    0.000   56.400    0.000    0.000 
#    0.000    0.000    0.000    0.000    0.000    0.000 
#
# Total GULP energy -223275.619558 kJ/mol
# GULP energy per Si atom -5581.890489 kJ/mol
# Density = 2.568008 g / cm^3
# Si number density = 25.738665 Si / 1000 Ang^3
#
#
#
# Elastic Constant Matrix: (Units=GPa)
#
#
# Indices 1 2 3 4 5 6 
#
# 1 83.3043 15.6322 28.5365 0.0000 0.0000 0.0000
# 2 15.6322 134.7980 24.2119 0.0000 0.0000 0.0000
# 3 28.5365 24.2119 88.4723 0.0000 0.0000 0.0000
# 4 0.0000 0.0000 0.0000 39.2138 0.0000 0.0000
# 5 0.0000 0.0000 0.0000 0.0000 21.6375 0.0000
# 6 0.0000 0.0000 0.0000 0.0000 0.0000 14.3686
#
#
#
# Elastic Compliance Matrix: (Units=1/GPa)
#
#
# Indices 1 2 3 4 5 6 
#
# 1 0.013583 -0.000829 -0.004154 0.000000 0.000000 0.000000
# 2 -0.000829 0.007853 -0.001882 0.000000 0.000000 0.000000
# 3 -0.004154 -0.001882 0.013158 0.000000 0.000000 0.000000
# 4 0.000000 0.000000 0.000000 0.025501 0.000000 0.000000
# 5 0.000000 0.000000 0.000000 0.000000 0.046216 0.000000
# 6 0.000000 0.000000 0.000000 0.000000 0.000000 0.069596
#
#
# Mechanical properties :
#
#
# Convention : Reuss Voigt Hill
#
# Bulk Modulus (GPa) = 47.93038 49.25953 48.59495
# Shear Modulus (GPa) = 25.43349 30.92356 28.17852
#
# Velocity S-wave (km/s) = 3.14688 3.46995 3.31236
# Velocity P-wave (km/s) = 5.64502 5.93582 5.79224
#
# Compressibility (1/GPa) = 0.02086360
#
# Stress axis : x y z
#
# Youngs Moduli (GPa) = 73.62246 127.34618 76.00029
#
# Poissons Ratio (x) = 0.10557 0.31572
# Poissons Ratio (y) = 0.06103 0.14300
# Poissons Ratio (z) = 0.30584 0.23962
#
# Static dielectric constant tensor:
#      x y z
#    x 2.143160 0.000000 0.000000 
#    y 0.000000 2.065920 0.000000 
#    z 0.000000 0.000000 2.061300 
# 
# From -- ./inp_files/19157.got.cif
#   From: 2010.05.17/outbox.cif.g08.bks.cpg/sg60_10_cif.got.tgz:19157.got - 2010.06.03 14:59:27.
