data_PCOD9455070
_publ_section_title
;
Structure prediction by ZEFSAII (Michael W. Deem and Ramdas Pophale) SiO2 
 PCOD9455070
Probable space group: P B C N
;
_chemical_formula_sum "Si O2"
_cell_formula_units_Z 64
_cell_length_a 18.484267
_cell_length_b 19.226497
_cell_length_c 8.663971
_cell_angle_alpha 90.000000
_cell_angle_beta 90.000000
_cell_angle_gamma 90.000000
_cell_volume 3079.068761
_symmetry_space_group_name_H-M "P B C N"
_symmetry_group_IT_number 60
_symmetry_cell_setting 'orthorhombic'
loop_
_space_group_symop_operation_xyz
x,y,z
1/2-x,1/2-y,1/2+z
1/2+x,1/2-y,-z
-x,y,1/2-z
-x,-y,-z
1/2+x,1/2+y,1/2-z
1/2-x,1/2+y,z
x,-y,1/2+z
loop_
_atom_site_type_symbol
_atom_site_label
_atom_site_fract_x
_atom_site_fract_y
_atom_site_fract_z
Si Si1 0.153012 0.736215 0.139703
Si Si2 0.571349 0.660749 0.650835
Si Si3 0.731661 0.888232 0.977274
Si Si4 0.858062 0.980337 0.259192
Si Si5 0.249419 0.957453 0.984360
Si Si6 0.209188 0.668062 0.670194
Si Si7 0.421047 0.251598 0.818027
Si Si8 0.394332 0.620018 0.155287
O O1 0.118511 0.774456 0.287492
O O2 0.182114 0.657488 0.135841
O O3 0.226165 0.781597 0.113018
O O4 0.097008 0.735911 0.996503
O O5 0.500000 0.661616 0.750000
O O6 0.607326 0.584396 0.673880
O O7 0.557138 0.659866 0.469694
O O8 0.813402 0.878530 0.915919
O O9 0.712098 0.969552 0.976225
O O10 0.727916 0.863103 0.157267
O O11 0.820427 0.947832 0.406974
O O12 0.912438 0.040568 0.310272
O O13 0.792806 0.021900 0.172520
O O14 0.296703 0.891824 0.038735
O O15 0.137348 0.711401 0.709556
O O16 0.500000 0.235491 0.750000
O O17 0.400730 0.332928 0.804011
#
# Coordination Sequence:
#
# PCOD9455070 Si02
#       8
#     8   8   8   8   8   8   8   8
#     4  11  21  40  62  85 116 162 205 251 298 362
#     4  12  24  39  57  82 126 168 200 244 302 371
#     4  10  20  35  59  89 114 142 203 260 294 345
#     4  11  21  35  58  86 121 157 200 247 299 356
#     4  11  18  38  59  88 116 145 198 259 301 348
#     4  11  20  38  65  87 117 158 204 249 307 357
#     4  11  25  40  59  91 128 161 200 258 318 367
#     4  11  21  37  56  86 120 156 206 245 294 366
#
# _framework density 20.785506000000002
#
# number of rings (size 3 to 8) (size 9 to 14) (size 15 to 20)
#    0.000    1.000    7.500    1.500    0.000    1.000 
#    4.500    0.000    0.000    3.750    0.000    0.000 
#    0.000    0.000    0.000    0.000    0.000    0.000 
#
# Total GULP energy -356747.754234 kJ/mol
# GULP energy per Si atom -5574.183660 kJ/mol
# Density = 2.073820 g / cm^3
# Si number density = 20.785506 Si / 1000 Ang^3
#
#
#
# Elastic Constant Matrix: (Units=GPa)
#
#
# Indices 1 2 3 4 5 6 
#
# 1 71.6930 23.4608 10.8600 0.0000 0.0000 0.0000
# 2 23.4608 84.9782 10.9562 0.0000 0.0000 0.0000
# 3 10.8600 10.9562 54.3707 0.0000 0.0000 0.0000
# 4 0.0000 0.0000 0.0000 22.6598 0.0000 0.0000
# 5 0.0000 0.0000 0.0000 0.0000 21.3026 0.0000
# 6 0.0000 0.0000 0.0000 0.0000 0.0000 11.2696
#
#
#
# Elastic Compliance Matrix: (Units=1/GPa)
#
#
# Indices 1 2 3 4 5 6 
#
# 1 0.015611 -0.004012 -0.002310 0.000000 0.000000 0.000000
# 2 -0.004012 0.013113 -0.001841 0.000000 0.000000 0.000000
# 3 -0.002310 -0.001841 0.019225 0.000000 0.000000 0.000000
# 4 0.000000 0.000000 0.000000 0.044131 0.000000 0.000000
# 5 0.000000 0.000000 0.000000 0.000000 0.046943 0.000000
# 6 0.000000 0.000000 0.000000 0.000000 0.000000 0.088734
#
#
# Mechanical properties :
#
#
# Convention : Reuss Voigt Hill
#
# Bulk Modulus (GPa) = 31.62267 33.51067 32.56667
# Shear Modulus (GPa) = 19.63688 22.09740 20.86714
#
# Velocity S-wave (km/s) = 3.07700 3.26408 3.17192
# Velocity P-wave (km/s) = 5.27927 5.51024 5.39599
#
# Compressibility (1/GPa) = 0.03162289
#
# Stress axis : x y z
#
# Youngs Moduli (GPa) = 64.05673 76.26162 52.01683
#
# Poissons Ratio (x) = 0.30597 0.12014
# Poissons Ratio (y) = 0.25701 0.09576
# Poissons Ratio (z) = 0.14795 0.14039
#
# Static dielectric constant tensor:
#      x y z
#    x 1.774250 0.000000 0.000000 
#    y 0.000000 1.780970 0.000000 
#    z 0.000000 0.000000 1.880690 
# 
# From -- ./inp_files/7043.got.cif
#   From: 2010.05.17/outbox.cif.g08.bks.cpg/sg60_4_cif.got.tgz:7043.got - 2010.06.03 14:59:27.
