data_PCOD9455271
_publ_section_title
;
Structure prediction by ZEFSAII (Michael W. Deem and Ramdas Pophale) SiO2 
 PCOD9455271
Probable space group: P B C N
;
_chemical_formula_sum "Si O2"
_cell_formula_units_Z 64
_cell_length_a 14.856942
_cell_length_b 10.231453
_cell_length_c 22.058385
_cell_angle_alpha 90.000000
_cell_angle_beta 90.000000
_cell_angle_gamma 90.000000
_cell_volume 3353.053277
_symmetry_space_group_name_H-M "P B C N"
_symmetry_group_IT_number 60
_symmetry_cell_setting 'orthorhombic'
loop_
_space_group_symop_operation_xyz
x,y,z
1/2-x,1/2-y,1/2+z
1/2+x,1/2-y,-z
-x,y,1/2-z
-x,-y,-z
1/2+x,1/2+y,1/2-z
1/2-x,1/2+y,z
x,-y,1/2+z
loop_
_atom_site_type_symbol
_atom_site_label
_atom_site_fract_x
_atom_site_fract_y
_atom_site_fract_z
Si Si1 0.797794 0.501283 0.133516
Si Si2 0.213183 0.847599 0.072686
Si Si3 0.376392 0.916517 0.987129
Si Si4 0.601581 0.995230 0.762656
Si Si5 0.562016 0.207983 0.497602
Si Si6 0.096557 0.794772 0.744874
Si Si7 0.243032 0.100576 0.154339
Si Si8 0.659541 0.276417 0.619253
O O1 0.839635 0.513108 0.200553
O O2 0.776632 0.351162 0.117432
O O3 0.712166 0.589379 0.120724
O O4 0.868738 0.553168 0.084156
O O5 0.282884 0.871266 0.017115
O O6 0.115650 0.803916 0.047410
O O7 0.250126 0.727750 0.112526
O O8 0.214420 0.976502 0.114108
O O9 0.401777 0.059370 0.014441
O O10 0.455065 0.811156 0.996023
O O11 0.500000 0.946357 0.750000
O O12 0.660404 0.925075 0.813951
O O13 0.591019 0.147686 0.782149
O O14 0.591415 0.255510 0.564415
O O15 0.170652 0.872973 0.707577
O O16 0.117952 0.768559 0.814627
O O17 0.000000 0.862198 0.750000
#
# Coordination Sequence:
#
# PCOD9455271 Si02
#       8
#     8   8   8   8   8   8   8   8
#     4  10  20  37  62  86 118 155 204 255 305 364
#     4  12  24  40  65  94 132 167 208 264 327 380
#     4  10  22  40  65  93 124 167 213 261 314 381
#     4  10  22  39  65  93 120 166 217 255 307 384
#     4  10  22  40  65  94 124 166 216 260 310 381
#     4  10  22  41  65  91 124 168 210 257 315 378
#     4  12  24  40  65  94 131 166 211 264 320 382
#     4  10  20  37  64  86 116 158 208 250 304 366
#
# _framework density 19.087081999999999
#
# number of rings (size 3 to 8) (size 9 to 14) (size 15 to 20)
#    0.000    1.500    5.000    0.000    3.500    1.000 
#    0.000    2.500    0.000    0.000    0.000    0.000 
#    0.000    0.000    0.000    0.000    0.000    0.000 
#
# Total GULP energy -356819.810210 kJ/mol
# GULP energy per Si atom -5575.309535 kJ/mol
# Density = 1.904364 g / cm^3
# Si number density = 19.087082 Si / 1000 Ang^3
#
#
#
# Elastic Constant Matrix: (Units=GPa)
#
#
# Indices 1 2 3 4 5 6 
#
# 1 69.1478 16.0593 7.5716 0.0000 0.0000 0.0000
# 2 16.0593 67.0984 25.4170 0.0000 0.0000 0.0000
# 3 7.5716 25.4170 75.6013 0.0000 0.0000 0.0000
# 4 0.0000 0.0000 0.0000 39.0067 0.0000 0.0000
# 5 0.0000 0.0000 0.0000 0.0000 11.4489 0.0000
# 6 0.0000 0.0000 0.0000 0.0000 0.0000 23.0924
#
#
#
# Elastic Compliance Matrix: (Units=1/GPa)
#
#
# Indices 1 2 3 4 5 6 
#
# 1 0.015321 -0.003536 -0.000346 0.000000 0.000000 0.000000
# 2 -0.003536 0.017895 -0.005662 0.000000 0.000000 0.000000
# 3 -0.000346 -0.005662 0.015165 0.000000 0.000000 0.000000
# 4 0.000000 0.000000 0.000000 0.025637 0.000000 0.000000
# 5 0.000000 0.000000 0.000000 0.000000 0.087344 0.000000
# 6 0.000000 0.000000 0.000000 0.000000 0.000000 0.043304
#
#
# Mechanical properties :
#
#
# Convention : Reuss Voigt Hill
#
# Bulk Modulus (GPa) = 34.13702 34.43814 34.28758
# Shear Modulus (GPa) = 21.41164 25.56292 23.48728
#
# Velocity S-wave (km/s) = 3.35294 3.66359 3.51170
# Velocity P-wave (km/s) = 5.73702 5.99813 5.86903
#
# Compressibility (1/GPa) = 0.02929371
#
# Stress axis : x y z
#
# Youngs Moduli (GPa) = 65.27064 55.88299 65.93937
#
# Poissons Ratio (x) = 0.19760 0.02279
# Poissons Ratio (y) = 0.23079 0.37335
# Poissons Ratio (z) = 0.02256 0.31641
#
# Static dielectric constant tensor:
#      x y z
#    x 1.680420 0.000000 0.000000 
#    y 0.000000 1.669780 0.000000 
#    z 0.000000 0.000000 1.716470 
# 
# From -- ./inp_files/24451.got.cif
#   From: 2010.05.17/outbox.cif.g08.bks.cpg/sg60_13_cif.got.tgz:24451.got - 2010.06.03 14:59:27.
