data_PCOD9455847
_publ_section_title
;
Structure prediction by ZEFSAII (Michael W. Deem and Ramdas Pophale) SiO2 
 PCOD9455847
Probable space group: P B C N
;
_chemical_formula_sum "Si O2"
_cell_formula_units_Z 40
_cell_length_a 8.458195
_cell_length_b 24.952697
_cell_length_c 9.316648
_cell_angle_alpha 90.000000
_cell_angle_beta 90.000000
_cell_angle_gamma 90.000000
_cell_volume 1966.323066
_symmetry_space_group_name_H-M "P B C N"
_symmetry_group_IT_number 60
_symmetry_cell_setting 'orthorhombic'
loop_
_space_group_symop_operation_xyz
x,y,z
1/2-x,1/2-y,1/2+z
1/2+x,1/2-y,-z
-x,y,1/2-z
-x,-y,-z
1/2+x,1/2+y,1/2-z
1/2-x,1/2+y,z
x,-y,1/2+z
loop_
_atom_site_type_symbol
_atom_site_label
_atom_site_fract_x
_atom_site_fract_y
_atom_site_fract_z
Si Si1 0.132887 0.569679 0.000129
Si Si2 0.160756 0.144190 0.173269
Si Si3 0.892393 0.659408 0.063789
Si Si4 0.000000 0.494681 0.250000
Si Si5 0.168363 0.270106 0.180877
Si Si6 0.500000 0.245948 0.250000
O O1 0.282351 0.606312 0.044083
O O2 0.096334 0.529684 0.133102
O O3 0.985368 0.610426 0.999070
O O4 0.121600 0.539299 0.848884
O O5 0.294227 0.141530 0.298062
O O6 0.142186 0.207613 0.139154
O O7 0.000000 0.126188 0.250000
O O8 0.013765 0.705862 0.114436
O O9 0.789785 0.690456 0.948708
O O10 0.330152 0.272688 0.272571
O O11 0.000000 0.287181 0.250000
#
# Coordination Sequence:
#
# PCOD9455847 Si02
#       6
#     8   8   8   4   8   4
#     4  11  20  43  64  91 117 159 214 263 318 366
#     4  10  21  38  60  88 126 168 196 255 318 383
#     4  11  20  39  57  87 124 160 205 253 300 378
#     4  10  23  38  72  86 112 158 218 273 310 364
#     4  10  23  36  58  89 125 169 209 241 312 377
#     4  10  21  36  54  82 124 170 196 255 286 378
#
# _framework density 20.342537
#
# number of rings (size 3 to 8) (size 9 to 14) (size 15 to 20)
#    0.000    1.600    6.000    0.000    9.800    0.000 
#    0.000    1.000    0.000    0.000    0.000    0.000 
#    0.000    0.000    0.000    0.000    0.000    0.000 
#
# Total GULP energy -222849.302448 kJ/mol
# GULP energy per Si atom -5571.232561 kJ/mol
# Density = 2.029624 g / cm^3
# Si number density = 20.342537 Si / 1000 Ang^3
#
#
#
# Elastic Constant Matrix: (Units=GPa)
#
#
# Indices 1 2 3 4 5 6 
#
# 1 98.7378 12.7214 12.5497 0.0000 0.0000 0.0000
# 2 12.7214 68.1685 40.9308 0.0000 0.0000 0.0000
# 3 12.5497 40.9308 81.1618 0.0000 0.0000 0.0000
# 4 0.0000 0.0000 0.0000 34.4794 0.0000 0.0000
# 5 0.0000 0.0000 0.0000 0.0000 24.1018 0.0000
# 6 0.0000 0.0000 0.0000 0.0000 0.0000 -0.3671
#
#
#
# Elastic Compliance Matrix: (Units=1/GPa)
#
#
# Indices 1 2 3 4 5 6 
#
# 1 0.010423 -0.001402 -0.000905 0.000000 0.000000 0.000000
# 2 -0.001402 0.021229 -0.010489 0.000000 0.000000 0.000000
# 3 -0.000905 -0.010489 0.017751 0.000000 0.000000 0.000000
# 4 0.000000 0.000000 0.000000 0.029003 0.000000 0.000000
# 5 0.000000 0.000000 0.000000 0.000000 0.041491 0.000000
# 6 0.000000 0.000000 0.000000 0.000000 0.000000 -2.724006
#
#
# Mechanical properties :
#
#
# Convention : Reuss Voigt Hill
#
# Bulk Modulus (GPa) = 41.99649 42.27465 42.13557
# Shear Modulus (GPa) = -1.94509 23.76723 10.91107
#
# Velocity S-wave (km/s) = -0.97890 3.42182 2.31847
# Velocity P-wave (km/s) = 4.40589 6.03642 5.28442
#
# Compressibility (1/GPa) = 0.02381151
#
# Stress axis : x y z
#
# Youngs Moduli (GPa) = 95.93744 47.10448 56.33520
#
# Poissons Ratio (x) = 0.06604 0.05097
# Poissons Ratio (y) = 0.13450 0.59092
# Poissons Ratio (z) = 0.08679 0.49410
#
# Static dielectric constant tensor:
#      x y z
#    x 1.808180 0.000000 0.000000 
#    y 0.000000 1.745020 0.000000 
#    z 0.000000 0.000000 1.990470 
# 
# From -- ./inp_files/3892.got.cif
#   From: 2010.05.17/outbox.cif.g08.bks.cpg/sg60_2_cif.got.tgz:3892.got - 2010.06.03 14:59:27.
