data_PCOD9455546
_publ_section_title
;
Structure prediction by ZEFSAII (Michael W. Deem and Ramdas Pophale) SiO2 
 PCOD9455546
Probable space group: P B C N
;
_chemical_formula_sum "Si O2"
_cell_formula_units_Z 52
_cell_length_a 5.402471
_cell_length_b 21.418439
_cell_length_c 20.750857
_cell_angle_alpha 90.000000
_cell_angle_beta 90.000000
_cell_angle_gamma 90.000000
_cell_volume 2401.133449
_symmetry_space_group_name_H-M "P B C N"
_symmetry_group_IT_number 60
_symmetry_cell_setting 'orthorhombic'
loop_
_space_group_symop_operation_xyz
x,y,z
1/2-x,1/2-y,1/2+z
1/2+x,1/2-y,-z
-x,y,1/2-z
-x,-y,-z
1/2+x,1/2+y,1/2-z
1/2-x,1/2+y,z
x,-y,1/2+z
loop_
_atom_site_type_symbol
_atom_site_label
_atom_site_fract_x
_atom_site_fract_y
_atom_site_fract_z
Si Si1 0.926340 0.629322 0.175493
Si Si2 0.500000 0.670600 0.750000
Si Si3 0.041686 0.186224 0.955782
Si Si4 0.654608 0.241690 0.652906
Si Si5 0.112580 0.081913 0.638479
Si Si6 0.594343 0.014506 0.675640
Si Si7 0.763895 0.198236 0.409868
O O1 0.752763 0.686662 0.154242
O O2 0.000000 0.638742 0.250000
O O3 0.840020 0.558648 0.168716
O O4 0.154170 0.640084 0.127434
O O5 0.296233 0.709331 0.789288
O O6 0.645193 0.627791 0.800638
O O7 0.280522 0.199844 0.910016
O O8 0.910265 0.127213 0.922984
O O9 0.912963 0.253426 0.946948
O O10 0.068257 0.175680 0.031430
O O11 0.367269 0.256067 0.646359
O O12 0.844890 0.050344 0.654546
O O13 0.351056 0.036966 0.636206
O O14 0.500000 0.022657 0.750000
#
# Coordination Sequence:
#
# PCOD9455546 Si02
#       7
#     8   4   8   8   8   8   8
#     4  10  24  43  63  96 128 174 230 272 342 402
#     4  10  20  40  58 102 126 166 216 278 344 400
#     4  10  23  39  65  98 128 173 223 268 350 407
#     4  10  21  40  63  94 132 165 215 277 338 406
#     4  11  24  41  67  96 133 175 227 284 338 407
#     4  11  23  44  66  93 132 183 229 283 343 401
#     4  11  22  42  68  94 137 177 217 286 339 421
#
# _framework density 21.656438999999999
#
# number of rings (size 3 to 8) (size 9 to 14) (size 15 to 20)
#    0.000    1.538    3.846    0.000    6.462    0.615 
#    2.769    1.538    0.000    0.000    0.000    0.000 
#    0.000    0.000    0.000    0.000    0.000    0.000 
#
# Total GULP energy -289879.820051 kJ/mol
# GULP energy per Si atom -5574.611924 kJ/mol
# Density = 2.160715 g / cm^3
# Si number density = 21.656439 Si / 1000 Ang^3
#
#
#
# Elastic Constant Matrix: (Units=GPa)
#
#
# Indices 1 2 3 4 5 6 
#
# 1 48.5075 19.7888 24.5642 0.0000 0.0000 0.0000
# 2 19.7888 105.9568 42.4264 0.0000 0.0000 0.0000
# 3 24.5642 42.4264 120.1815 0.0000 0.0000 0.0000
# 4 0.0000 0.0000 0.0000 6.2298 0.0000 0.0000
# 5 0.0000 0.0000 0.0000 0.0000 21.7875 0.0000
# 6 0.0000 0.0000 0.0000 0.0000 0.0000 22.3780
#
#
#
# Elastic Compliance Matrix: (Units=1/GPa)
#
#
# Indices 1 2 3 4 5 6 
#
# 1 0.023737 -0.002901 -0.003828 0.000000 0.000000 0.000000
# 2 -0.002901 0.011346 -0.003412 0.000000 0.000000 0.000000
# 3 -0.003828 -0.003412 0.010308 0.000000 0.000000 0.000000
# 4 0.000000 0.000000 0.000000 0.160520 0.000000 0.000000
# 5 0.000000 0.000000 0.000000 0.000000 0.045898 0.000000
# 6 0.000000 0.000000 0.000000 0.000000 0.000000 0.044687
#
#
# Mechanical properties :
#
#
# Convention : Reuss Voigt Hill
#
# Bulk Modulus (GPa) = 39.82597 49.80049 44.81323
# Shear Modulus (GPa) = 15.37770 22.60349 18.99059
#
# Velocity S-wave (km/s) = 2.66761 3.23419 2.96447
# Velocity P-wave (km/s) = 5.28375 6.08212 5.69694
#
# Compressibility (1/GPa) = 0.02510924
#
# Stress axis : x y z
#
# Youngs Moduli (GPa) = 42.12836 88.13748 97.01418
#
# Poissons Ratio (x) = 0.25564 0.37134
# Poissons Ratio (y) = 0.12219 0.33106
# Poissons Ratio (z) = 0.16126 0.30077
#
# Static dielectric constant tensor:
#      x y z
#    x 2.004490 0.000000 0.000000 
#    y 0.000000 1.759540 0.000000 
#    z 0.000000 0.000000 1.827350 
# 
# From -- ./inp_files/21653.got.cif
#   From: 2010.05.17/outbox.cif.g08.bks.cpg/sg60_11_cif.got.tgz:21653.got - 2010.06.03 14:59:27.
