data_PCOD9455916
_publ_section_title
;
Structure prediction by ZEFSAII (Michael W. Deem and Ramdas Pophale) SiO2 
 PCOD9455916
Probable space group: P B C N
;
_chemical_formula_sum "Si O2"
_cell_formula_units_Z 32
_cell_length_a 13.412341
_cell_length_b 23.925094
_cell_length_c 5.025619
_cell_angle_alpha 90.000000
_cell_angle_beta 90.000000
_cell_angle_gamma 90.000000
_cell_volume 1612.678516
_symmetry_space_group_name_H-M "P B C N"
_symmetry_group_IT_number 60
_symmetry_cell_setting 'orthorhombic'
loop_
_space_group_symop_operation_xyz
x,y,z
1/2-x,1/2-y,1/2+z
1/2+x,1/2-y,-z
-x,y,1/2-z
-x,-y,-z
1/2+x,1/2+y,1/2-z
1/2-x,1/2+y,z
x,-y,1/2+z
loop_
_atom_site_type_symbol
_atom_site_label
_atom_site_fract_x
_atom_site_fract_y
_atom_site_fract_z
Si Si1 0.789433 0.652297 0.841246
Si Si2 0.880183 0.466623 0.264317
Si Si3 0.392433 0.198101 0.177005
Si Si4 0.433337 0.674559 0.512279
O O1 0.838184 0.591562 0.868882
O O2 0.820441 0.669525 0.540619
O O3 0.675874 0.649502 0.938826
O O4 0.837869 0.697838 0.039869
O O5 0.849485 0.515286 0.469068
O O6 0.000000 0.462318 0.250000
O O7 0.500000 0.170397 0.250000
O O8 0.417015 0.258960 0.061128
O O9 0.500000 0.652083 0.750000
O O10 0.500000 0.666794 0.250000
#
# Coordination Sequence:
#
# PCOD9455916 Si02
#       4
#     8   8   8   8
#     4  12  22  37  61  84 114 158 197 232 292 356
#     4  10  21  37  57  84 115 144 183 240 300 353
#     4  11  21  35  57  89 120 148 189 238 292 356
#     4  11  23  39  56  82 120 156 195 240 281 336
#
# _framework density 19.842763000000001
#
# number of rings (size 3 to 8) (size 9 to 14) (size 15 to 20)
#    0.000    1.000    0.000    9.750    0.000    2.000 
#    0.000    0.000    0.000    4.500    0.000    0.000 
#    0.000    0.000    0.000    0.000    0.000    0.000 
#
# Total GULP energy -178480.088002 kJ/mol
# GULP energy per Si atom -5577.502750 kJ/mol
# Density = 1.979760 g / cm^3
# Si number density = 19.842763 Si / 1000 Ang^3
#
#
#
# Elastic Constant Matrix: (Units=GPa)
#
#
# Indices 1 2 3 4 5 6 
#
# 1 108.9060 7.3293 49.8906 0.0000 0.0000 0.0000
# 2 7.3293 38.4128 22.1522 0.0000 0.0000 0.0000
# 3 49.8906 22.1522 136.5466 0.0000 0.0000 0.0000
# 4 0.0000 0.0000 0.0000 18.9148 0.0000 0.0000
# 5 0.0000 0.0000 0.0000 0.0000 37.1039 0.0000
# 6 0.0000 0.0000 0.0000 0.0000 0.0000 47.8569
#
#
#
# Elastic Compliance Matrix: (Units=1/GPa)
#
#
# Indices 1 2 3 4 5 6 
#
# 1 0.011030 0.000242 -0.004069 0.000000 0.000000 0.000000
# 2 0.000242 0.028725 -0.004749 0.000000 0.000000 0.000000
# 3 -0.004069 -0.004749 0.009581 0.000000 0.000000 0.000000
# 4 0.000000 0.000000 0.000000 0.052869 0.000000 0.000000
# 5 0.000000 0.000000 0.000000 0.000000 0.026951 0.000000
# 6 0.000000 0.000000 0.000000 0.000000 0.000000 0.020896
#
#
# Mechanical properties :
#
#
# Convention : Reuss Voigt Hill
#
# Bulk Modulus (GPa) = 31.07090 49.17883 40.12487
# Shear Modulus (GPa) = 28.10067 34.40800 31.25434
#
# Velocity S-wave (km/s) = 3.76728 4.16869 3.97306
# Velocity P-wave (km/s) = 5.88352 6.92883 6.42746
#
# Compressibility (1/GPa) = 0.03218445
#
# Stress axis : x y z
#
# Youngs Moduli (GPa) = 90.66050 34.81252 104.37591
#
# Poissons Ratio (x) = -0.00843 0.42475
# Poissons Ratio (y) = -0.02196 0.49564
# Poissons Ratio (z) = 0.36894 0.16531
#
# Static dielectric constant tensor:
#      x y z
#    x 1.707610 0.000000 0.000000 
#    y 0.000000 1.682160 0.000000 
#    z 0.000000 0.000000 1.383600 
# 
# From -- ./inp_files/627.got.cif
#   From: 2010.05.17/outbox.cif.g08.bks.cpg/sg60_1_cif.got.tgz:627.got - 2010.06.03 14:59:27.
