data_PCOD9455454
_publ_section_title
;
Structure prediction by ZEFSAII (Michael W. Deem and Ramdas Pophale) SiO2 
 PCOD9455454
Probable space group: P B C N
;
_chemical_formula_sum "Si O2"
_cell_formula_units_Z 36
_cell_length_a 7.992207
_cell_length_b 13.650664
_cell_length_c 13.884701
_cell_angle_alpha 90.000000
_cell_angle_beta 90.000000
_cell_angle_gamma 90.000000
_cell_volume 1514.806055
_symmetry_space_group_name_H-M "P B C N"
_symmetry_group_IT_number 60
_symmetry_cell_setting 'orthorhombic'
loop_
_space_group_symop_operation_xyz
x,y,z
1/2-x,1/2-y,1/2+z
1/2+x,1/2-y,-z
-x,y,1/2-z
-x,-y,-z
1/2+x,1/2+y,1/2-z
1/2-x,1/2+y,z
x,-y,1/2+z
loop_
_atom_site_type_symbol
_atom_site_label
_atom_site_fract_x
_atom_site_fract_y
_atom_site_fract_z
Si Si1 0.460803 0.839443 0.463497
Si Si2 0.000000 0.840966 0.250000
Si Si3 0.771241 0.522305 0.062276
Si Si4 0.933795 0.970411 0.872311
Si Si5 0.737218 0.719234 0.355247
O O1 0.357462 0.921573 0.403179
O O2 0.570643 0.774670 0.391542
O O3 0.348452 0.785670 0.544953
O O4 0.589013 0.902648 0.529030
O O5 0.842199 0.771002 0.270816
O O6 0.970704 0.920702 0.334249
O O7 0.621573 0.570466 0.120769
O O8 0.667693 0.485612 0.969821
O O9 0.816543 0.889750 0.823630
#
# Coordination Sequence:
#
# PCOD9455454 Si02
#       5
#     8   4   8   8   8
#     4  10  20  38  70 103 129 184 245 285 336 432
#     4  12  26  44  66 102 150 178 222 314 354 414
#     4   9  19  40  72  95 132 180 238 296 339 414
#     4  10  22  43  66  99 137 182 232 292 355 422
#     4  11  24  41  72 101 143 187 241 283 362 419
#
# _framework density 23.765418
#
# number of rings (size 3 to 8) (size 9 to 14) (size 15 to 20)
#    0.000    1.778    2.222    1.333    6.222    1.778 
#    4.000    0.000    0.000    0.000    0.000    0.000 
#    0.000    0.000    0.000    0.000    0.000    0.000 
#
# Total GULP energy -200600.549293 kJ/mol
# GULP energy per Si atom -5572.237480 kJ/mol
# Density = 2.371133 g / cm^3
# Si number density = 23.765418 Si / 1000 Ang^3
#
#
#
# Elastic Constant Matrix: (Units=GPa)
#
#
# Indices 1 2 3 4 5 6 
#
# 1 130.1885 66.3640 18.5486 0.0000 0.0000 0.0000
# 2 66.3640 109.9045 23.4517 0.0000 0.0000 0.0000
# 3 18.5486 23.4517 51.4239 0.0000 0.0000 0.0000
# 4 0.0000 0.0000 0.0000 42.5417 0.0000 0.0000
# 5 0.0000 0.0000 0.0000 0.0000 -2.9353 0.0000
# 6 0.0000 0.0000 0.0000 0.0000 0.0000 64.9177
#
#
#
# Elastic Compliance Matrix: (Units=1/GPa)
#
#
# Indices 1 2 3 4 5 6 
#
# 1 0.011148 -0.006507 -0.001054 0.000000 0.000000 0.000000
# 2 -0.006507 0.013877 -0.003982 0.000000 0.000000 0.000000
# 3 -0.001054 -0.003982 0.021642 0.000000 0.000000 0.000000
# 4 0.000000 0.000000 0.000000 0.023506 0.000000 0.000000
# 5 0.000000 0.000000 0.000000 0.000000 -0.340682 0.000000
# 6 0.000000 0.000000 0.000000 0.000000 0.000000 0.015404
#
#
# Mechanical properties :
#
#
# Convention : Reuss Voigt Hill
#
# Bulk Modulus (GPa) = 42.40306 56.47172 49.43739
# Shear Modulus (GPa) = -22.30568 33.11499 5.40466
#
# Velocity S-wave (km/s) = -3.06694 3.73689 1.50967
# Velocity P-wave (km/s) = 2.31074 6.51405 4.88735
#
# Compressibility (1/GPa) = 0.02358321
#
# Stress axis : x y z
#
# Youngs Moduli (GPa) = 89.70102 72.05933 46.20604
#
# Poissons Ratio (x) = 0.46887 0.04869
# Poissons Ratio (y) = 0.58366 0.18398
# Poissons Ratio (z) = 0.09452 0.28692
#
# Static dielectric constant tensor:
#      x y z
#    x 2.013740 0.000000 0.000000 
#    y 0.000000 1.925540 0.000000 
#    z 0.000000 0.000000 1.990500 
# 
# From -- ./inp_files/14580.got.cif
#   From: 2010.05.17/outbox.cif.g08.bks.cpg/sg60_8_cif.got.tgz:14580.got - 2010.06.03 14:59:27.
