data_PCOD9455783
_publ_section_title
;
Structure prediction by ZEFSAII (Michael W. Deem and Ramdas Pophale) SiO2 
 PCOD9455783
Probable space group: P B C N
;
_chemical_formula_sum "Si O2"
_cell_formula_units_Z 48
_cell_length_a 18.474126
_cell_length_b 5.405133
_cell_length_c 19.473795
_cell_angle_alpha 90.000000
_cell_angle_beta 90.000000
_cell_angle_gamma 90.000000
_cell_volume 1944.557905
_symmetry_space_group_name_H-M "P B C N"
_symmetry_group_IT_number 60
_symmetry_cell_setting 'orthorhombic'
loop_
_space_group_symop_operation_xyz
x,y,z
1/2-x,1/2-y,1/2+z
1/2+x,1/2-y,-z
-x,y,1/2-z
-x,-y,-z
1/2+x,1/2+y,1/2-z
1/2-x,1/2+y,z
x,-y,1/2+z
loop_
_atom_site_type_symbol
_atom_site_label
_atom_site_fract_x
_atom_site_fract_y
_atom_site_fract_z
Si Si1 0.978194 0.390353 0.071550
Si Si2 0.927056 0.391704 0.295646
Si Si3 0.561898 0.388667 0.122048
Si Si4 0.100461 0.888823 0.170612
Si Si5 0.293707 0.578426 0.546610
Si Si6 0.290570 0.415917 0.880282
O O1 0.924099 0.605927 0.099241
O O2 0.043844 0.396929 0.125580
O O3 0.955943 0.105250 0.066688
O O4 0.000000 0.500000 0.000000
O O5 0.882962 0.642407 0.286985
O O6 0.000000 0.382424 0.250000
O O7 0.881089 0.144840 0.293524
O O8 0.487917 0.385463 0.165531
O O9 0.633434 0.506455 0.152553
O O10 0.136374 0.886815 0.095190
O O11 0.242407 0.813336 0.562830
O O12 0.303163 0.579292 0.463916
O O13 0.263375 0.141983 0.864100
#
# Coordination Sequence:
#
# PCOD9455783 Si02
#       6
#     8   8   8   8   8   8
#     4  10  21  32  53  86 112 145 183 239 284 334
#     4  10  21  36  55  86 118 146 188 238 294 346
#     4  10  21  34  53  81 114 149 195 236 286 360
#     4  10  21  36  59  85 110 159 194 245 294 353
#     4  10  21  35  51  79 118 153 192 241 299 353
#     4  10  21  34  49  75 115 160 193 239 299 352
#
# _framework density 24.684273000000001
#
# number of rings (size 3 to 8) (size 9 to 14) (size 15 to 20)
#    0.000    2.000    0.000    3.000    9.333    0.000 
#    0.000    0.000    0.000    0.000    0.000   93.333 
#    0.000    0.000    0.000    0.000    0.000    0.000 
#
# Total GULP energy -268002.904317 kJ/mol
# GULP energy per Si atom -5583.393840 kJ/mol
# Density = 2.462809 g / cm^3
# Si number density = 24.684273 Si / 1000 Ang^3
#
#
#
# Elastic Constant Matrix: (Units=GPa)
#
#
# Indices 1 2 3 4 5 6 
#
# 1 67.2256 -2.1528 1.4059 0.0000 0.0000 0.0000
# 2 -2.1528 148.1499 -20.6762 0.0000 0.0000 0.0000
# 3 1.4059 -20.6762 64.5921 0.0000 0.0000 0.0000
# 4 0.0000 0.0000 0.0000 11.1787 0.0000 0.0000
# 5 0.0000 0.0000 0.0000 0.0000 15.7610 0.0000
# 6 0.0000 0.0000 0.0000 0.0000 0.0000 29.1997
#
#
#
# Elastic Compliance Matrix: (Units=1/GPa)
#
#
# Indices 1 2 3 4 5 6 
#
# 1 0.014887 0.000179 -0.000267 0.000000 0.000000 0.000000
# 2 0.000179 0.007068 0.002259 0.000000 0.000000 0.000000
# 3 -0.000267 0.002259 0.016211 0.000000 0.000000 0.000000
# 4 0.000000 0.000000 0.000000 0.089456 0.000000 0.000000
# 5 0.000000 0.000000 0.000000 0.000000 0.063448 0.000000
# 6 0.000000 0.000000 0.000000 0.000000 0.000000 0.034247
#
#
# Mechanical properties :
#
#
# Convention : Reuss Voigt Hill
#
# Bulk Modulus (GPa) = 23.52572 26.34684 24.93628
# Shear Modulus (GPa) = 21.26371 31.32061 26.29216
#
# Velocity S-wave (km/s) = 2.93819 3.56595 3.26719
# Velocity P-wave (km/s) = 4.58933 5.25846 4.93525
#
# Compressibility (1/GPa) = 0.04250667
#
# Stress axis : x y z
#
# Youngs Moduli (GPa) = 67.17456 141.48824 61.68832
#
# Poissons Ratio (x) = -0.02534 0.01645
# Poissons Ratio (y) = -0.01203 -0.13932
# Poissons Ratio (z) = 0.01791 -0.31955
#
# Static dielectric constant tensor:
#      x y z
#    x 1.972950 0.000000 0.000000 
#    y 0.000000 2.144690 0.000000 
#    z 0.000000 0.000000 2.038850 
# 
# From -- ./inp_files/24507.got.cif
#   From: 2010.05.17/outbox.cif.g08.bks.cpg/sg60_13_cif.got.tgz:24507.got - 2010.06.03 14:59:27.
