data_PCOD9455119
_publ_section_title
;
Structure prediction by ZEFSAII (Michael W. Deem and Ramdas Pophale) SiO2 
 PCOD9455119
Probable space group: P B C N
;
_chemical_formula_sum "Si O2"
_cell_formula_units_Z 64
_cell_length_a 10.016390
_cell_length_b 28.892174
_cell_length_c 11.351817
_cell_angle_alpha 90.000000
_cell_angle_beta 90.000000
_cell_angle_gamma 90.000000
_cell_volume 3285.162290
_symmetry_space_group_name_H-M "P B C N"
_symmetry_group_IT_number 60
_symmetry_cell_setting 'orthorhombic'
loop_
_space_group_symop_operation_xyz
x,y,z
1/2-x,1/2-y,1/2+z
1/2+x,1/2-y,-z
-x,y,1/2-z
-x,-y,-z
1/2+x,1/2+y,1/2-z
1/2-x,1/2+y,z
x,-y,1/2+z
loop_
_atom_site_type_symbol
_atom_site_label
_atom_site_fract_x
_atom_site_fract_y
_atom_site_fract_z
Si Si1 0.995878 0.902130 0.119698
Si Si2 0.101352 0.743131 0.156686
Si Si3 0.602922 0.678389 0.042071
Si Si4 0.778773 0.023467 0.848832
Si Si5 0.903951 0.678481 0.041480
Si Si6 0.597465 0.743192 0.343951
Si Si7 0.743596 0.038978 0.581006
Si Si8 0.970603 0.408293 0.380879
O O1 0.847469 0.918463 0.089124
O O2 0.000000 0.880194 0.250000
O O3 0.058842 0.867529 0.026089
O O4 0.084646 0.948445 0.131558
O O5 0.111494 0.779014 0.049892
O O6 0.252126 0.735856 0.199803
O O7 0.000000 0.764928 0.250000
O O8 0.026061 0.695671 0.121996
O O9 0.753428 0.671806 0.090820
O O10 0.481992 0.696361 0.123198
O O11 0.766698 0.011411 0.707342
O O12 0.659462 0.059848 0.869323
O O13 0.767420 0.987099 0.956661
O O14 0.893273 0.722045 0.952884
O O15 0.944054 0.632753 0.971196
O O16 0.500000 0.766667 0.250000
O O17 0.594722 0.059426 0.583576
O O18 0.000000 0.389213 0.250000
#
# Coordination Sequence:
#
# PCOD9455119 Si02
#       8
#     8   8   8   8   8   8   8   8
#     4  10  20  36  59  86 112 147 192 244 287 345
#     4  10  21  36  55  80 114 153 191 235 288 342
#     4  10  20  36  56  81 113 149 191 236 286 340
#     4  10  20  40  58  85 116 152 188 245 298 358
#     4  10  20  36  56  81 113 149 191 236 286 340
#     4  10  21  36  55  80 114 153 191 235 288 342
#     4  10  22  36  62  85 116 146 196 241 302 358
#     4  10  20  36  59  86 112 147 192 244 287 345
#
# _framework density 19.481532999999999
#
# number of rings (size 3 to 8) (size 9 to 14) (size 15 to 20)
#    0.000    2.000    1.250    2.250    1.750    1.000 
#    0.000    2.500    0.000    0.000    0.000    0.000 
#    0.000    0.000    0.000    0.000    0.000    0.000 
#
# Total GULP energy -356459.928501 kJ/mol
# GULP energy per Si atom -5569.686383 kJ/mol
# Density = 1.943719 g / cm^3
# Si number density = 19.481533 Si / 1000 Ang^3
#
#
#
# Elastic Constant Matrix: (Units=GPa)
#
#
# Indices 1 2 3 4 5 6 
#
# 1 107.0081 -5.5566 17.5075 0.0000 0.0000 0.0000
# 2 -5.5566 41.5857 27.1127 0.0000 0.0000 0.0000
# 3 17.5075 27.1127 73.6780 0.0000 0.0000 0.0000
# 4 0.0000 0.0000 0.0000 -258.4905 0.0000 0.0000
# 5 0.0000 0.0000 0.0000 0.0000 13.5752 0.0000
# 6 0.0000 0.0000 0.0000 0.0000 0.0000 24.3830
#
#
#
# Elastic Compliance Matrix: (Units=1/GPa)
#
#
# Indices 1 2 3 4 5 6 
#
# 1 0.010174 0.003862 -0.003839 0.000000 0.000000 0.000000
# 2 0.003862 0.033103 -0.013099 0.000000 0.000000 0.000000
# 3 -0.003839 -0.013099 0.019305 0.000000 0.000000 0.000000
# 4 0.000000 0.000000 0.000000 -0.003869 0.000000 0.000000
# 5 0.000000 0.000000 0.000000 0.000000 0.073664 0.000000
# 6 0.000000 0.000000 0.000000 0.000000 0.000000 0.041012
#
#
# Mechanical properties :
#
#
# Convention : Reuss Voigt Hill
#
# Bulk Modulus (GPa) = 27.44982 33.37768 30.41375
# Shear Modulus (GPa) = 23.62007 -31.89258 -4.13625
#
# Velocity S-wave (km/s) = 3.48578 -4.05046 -1.45869
# Velocity P-wave (km/s) = 5.50651 2.16905 3.57889
#
# Compressibility (1/GPa) = 0.03643011
#
# Stress axis : x y z
#
# Youngs Moduli (GPa) = 98.29282 30.20866 51.79972
#
# Poissons Ratio (x) = -0.11667 0.19884
# Poissons Ratio (y) = -0.37962 0.67854
# Poissons Ratio (z) = 0.37732 0.39571
#
# Static dielectric constant tensor:
#      x y z
#    x 1.684980 0.000000 0.000000 
#    y 0.000000 1.638140 0.000000 
#    z 0.000000 0.000000 1.786550 
# 
# From -- ./inp_files/10402.got.cif
#   From: 2010.05.17/outbox.cif.g08.bks.cpg/sg60_6_cif.got.tgz:10402.got - 2010.06.03 14:59:27.
