data_PCOD9455099
_publ_section_title
;
Structure prediction by ZEFSAII (Michael W. Deem and Ramdas Pophale) SiO2 
 PCOD9455099
Probable space group: P B C N
;
_chemical_formula_sum "Si O2"
_cell_formula_units_Z 60
_cell_length_a 9.111547
_cell_length_b 17.405180
_cell_length_c 16.412771
_cell_angle_alpha 90.000000
_cell_angle_beta 90.000000
_cell_angle_gamma 90.000000
_cell_volume 2602.870425
_symmetry_space_group_name_H-M "P B C N"
_symmetry_group_IT_number 60
_symmetry_cell_setting 'orthorhombic'
loop_
_space_group_symop_operation_xyz
x,y,z
1/2-x,1/2-y,1/2+z
1/2+x,1/2-y,-z
-x,y,1/2-z
-x,-y,-z
1/2+x,1/2+y,1/2-z
1/2-x,1/2+y,z
x,-y,1/2+z
loop_
_atom_site_type_symbol
_atom_site_label
_atom_site_fract_x
_atom_site_fract_y
_atom_site_fract_z
Si Si1 0.311528 0.643161 0.119375
Si Si2 0.478860 0.631914 0.525349
Si Si3 0.000000 0.178615 0.250000
Si Si4 0.824444 0.963951 0.349520
Si Si5 0.648120 0.037196 0.696295
Si Si6 0.766524 0.119469 0.128651
Si Si7 0.501944 0.800522 0.915535
Si Si8 0.472894 0.923176 0.054305
O O1 0.400967 0.706609 0.173118
O O2 0.336710 0.555809 0.148589
O O3 0.140639 0.659971 0.126334
O O4 0.370602 0.639744 0.026397
O O5 0.459482 0.571200 0.598687
O O6 0.357638 0.615309 0.455209
O O7 0.453971 0.714729 0.564256
O O8 0.881523 0.132495 0.199228
O O9 0.781377 0.941097 0.256803
O O10 0.680534 0.937975 0.400266
O O11 0.500000 0.026765 0.750000
O O12 0.597966 0.091036 0.622378
O O13 0.683186 0.958062 0.650369
O O14 0.650481 0.188953 0.131080
O O15 0.470489 0.850242 0.996249
O O16 0.500000 0.000000 0.000000
#
# Coordination Sequence:
#
# PCOD9455099 Si02
#       8
#     8   8   4   8   8   8   8   8
#     4  11  23  40  67  99 130 180 229 280 340 414
#     4  11  25  41  63 101 140 180 221 295 348 411
#     4  10  24  40  62 104 126 170 222 286 338 392
#     4  11  20  40  65  98 133 173 232 283 346 406
#     4  10  20  35  67 102 132 173 231 292 341 406
#     4  11  21  41  68  95 135 176 230 284 338 415
#     4  12  23  41  70  97 137 181 236 272 346 425
#     4  11  19  36  65 103 125 174 234 286 326 403
#
# _framework density 23.051475
#
# number of rings (size 3 to 8) (size 9 to 14) (size 15 to 20)
#    0.000    1.067    5.333    2.000    0.000    0.000 
#    0.000    2.667    1.467    1.600    0.000    0.000 
#    0.000    0.000    0.000    0.000    0.000    0.000 
#
# Total GULP energy -334916.603320 kJ/mol
# GULP energy per Si atom -5581.943389 kJ/mol
# Density = 2.299901 g / cm^3
# Si number density = 23.051475 Si / 1000 Ang^3
#
#
#
# Elastic Constant Matrix: (Units=GPa)
#
#
# Indices 1 2 3 4 5 6 
#
# 1 68.6923 1.7680 30.6474 0.0000 0.0000 0.0000
# 2 1.7680 46.5907 28.5233 0.0000 0.0000 0.0000
# 3 30.6474 28.5233 94.2444 0.0000 0.0000 0.0000
# 4 0.0000 0.0000 0.0000 8.2370 0.0000 0.0000
# 5 0.0000 0.0000 0.0000 0.0000 39.3602 0.0000
# 6 0.0000 0.0000 0.0000 0.0000 0.0000 9.7057
#
#
#
# Elastic Compliance Matrix: (Units=1/GPa)
#
#
# Indices 1 2 3 4 5 6 
#
# 1 0.017470 0.003455 -0.006727 0.000000 0.000000 0.000000
# 2 0.003455 0.027028 -0.009304 0.000000 0.000000 0.000000
# 3 -0.006727 -0.009304 0.015614 0.000000 0.000000 0.000000
# 4 0.000000 0.000000 0.000000 0.121404 0.000000 0.000000
# 5 0.000000 0.000000 0.000000 0.000000 0.025406 0.000000
# 6 0.000000 0.000000 0.000000 0.000000 0.000000 0.103033
#
#
# Mechanical properties :
#
#
# Convention : Reuss Voigt Hill
#
# Bulk Modulus (GPa) = 28.60283 36.82276 32.71279
# Shear Modulus (GPa) = 14.41921 21.36649 17.89285
#
# Velocity S-wave (km/s) = 2.50376 3.04781 2.78908
# Velocity P-wave (km/s) = 4.56000 5.32864 4.95923
#
# Compressibility (1/GPa) = 0.03496157
#
# Stress axis : x y z
#
# Youngs Moduli (GPa) = 57.24121 36.99831 64.04499
#
# Poissons Ratio (x) = -0.12784 0.43082
# Poissons Ratio (y) = -0.19778 0.59586
# Poissons Ratio (z) = 0.38505 0.34422
#
# Static dielectric constant tensor:
#      x y z
#    x 2.014170 0.000000 0.000000 
#    y 0.000000 1.846140 0.000000 
#    z 0.000000 0.000000 1.948140 
# 
# From -- ./inp_files/19591.got.cif
#   From: 2010.05.17/outbox.cif.g08.bks.cpg/sg60_10_cif.got.tgz:19591.got - 2010.06.03 14:59:27.
