data_PCOD9455774
_publ_section_title
;
Structure prediction by ZEFSAII (Michael W. Deem and Ramdas Pophale) SiO2 
 PCOD9455774
Probable space group: P B C N
;
_chemical_formula_sum "Si O2"
_cell_formula_units_Z 36
_cell_length_a 6.134449
_cell_length_b 10.507348
_cell_length_c 24.609412
_cell_angle_alpha 90.000000
_cell_angle_beta 90.000000
_cell_angle_gamma 90.000000
_cell_volume 1586.243712
_symmetry_space_group_name_H-M "P B C N"
_symmetry_group_IT_number 60
_symmetry_cell_setting 'orthorhombic'
loop_
_space_group_symop_operation_xyz
x,y,z
1/2-x,1/2-y,1/2+z
1/2+x,1/2-y,-z
-x,y,1/2-z
-x,-y,-z
1/2+x,1/2+y,1/2-z
1/2-x,1/2+y,z
x,-y,1/2+z
loop_
_atom_site_type_symbol
_atom_site_label
_atom_site_fract_x
_atom_site_fract_y
_atom_site_fract_z
Si Si1 0.218044 0.946550 0.349581
Si Si2 0.922343 0.481127 0.938882
Si Si3 0.000000 0.494526 0.250000
Si Si4 0.621108 0.348653 0.805415
Si Si5 0.650123 0.293109 0.394330
O O1 0.087795 0.823911 0.370605
O O2 0.384805 0.990736 0.395828
O O3 0.337229 0.926576 0.291965
O O4 0.036063 0.054426 0.337409
O O5 0.848045 0.336492 0.928494
O O6 0.735804 0.584888 0.926562
O O7 0.000000 0.500000 0.000000
O O8 0.843502 0.580151 0.288055
O O9 0.500000 0.316032 0.750000
O O10 0.690869 0.232987 0.843426
#
# Coordination Sequence:
#
# PCOD9455774 Si02
#       5
#     8   8   4   8   8
#     4  11  24  47  76 109 158 197 257 304 386 452
#     4  12  31  51  80 111 151 205 259 321 382 448
#     4  10  20  48  70 114 152 204 246 304 378 458
#     4  10  23  47  73 110 156 205 248 307 376 461
#     4  12  26  52  73 119 156 197 257 316 385 454
#
# _framework density 22.695126999999999
#
# number of rings (size 3 to 8) (size 9 to 14) (size 15 to 20)
#    0.000    0.889    4.444    0.000    6.222    0.889 
#   26.000    0.000    0.000    0.000    0.000    0.000 
#    0.000    0.000    0.000    0.000    0.000    0.000 
#
# Total GULP energy -201705.345142 kJ/mol
# GULP energy per Si atom -5602.926254 kJ/mol
# Density = 2.264347 g / cm^3
# Si number density = 22.695127 Si / 1000 Ang^3
#
#
#
# Elastic Constant Matrix: (Units=GPa)
#
#
# Indices 1 2 3 4 5 6 
#
# 1 88.8460 41.8015 32.7522 0.0000 0.0000 0.0000
# 2 41.8015 132.0255 44.3096 0.0000 0.0000 0.0000
# 3 32.7522 44.3096 140.7295 0.0000 0.0000 0.0000
# 4 0.0000 0.0000 0.0000 18.0803 0.0000 0.0000
# 5 0.0000 0.0000 0.0000 0.0000 39.6023 0.0000
# 6 0.0000 0.0000 0.0000 0.0000 0.0000 44.1731
#
#
#
# Elastic Compliance Matrix: (Units=1/GPa)
#
#
# Indices 1 2 3 4 5 6 
#
# 1 0.013731 -0.003662 -0.002043 0.000000 0.000000 0.000000
# 2 -0.003662 0.009446 -0.002122 0.000000 0.000000 0.000000
# 3 -0.002043 -0.002122 0.008249 0.000000 0.000000 0.000000
# 4 0.000000 0.000000 0.000000 0.055309 0.000000 0.000000
# 5 0.000000 0.000000 0.000000 0.000000 0.025251 0.000000
# 6 0.000000 0.000000 0.000000 0.000000 0.000000 0.022638
#
#
# Mechanical properties :
#
#
# Convention : Reuss Voigt Hill
#
# Bulk Modulus (GPa) = 63.39769 66.59194 64.99481
# Shear Modulus (GPa) = 32.14699 36.55367 34.35033
#
# Velocity S-wave (km/s) = 3.76769 4.01763 3.89466
# Velocity P-wave (km/s) = 6.84999 7.13635 6.99464
#
# Compressibility (1/GPa) = 0.01577345
#
# Stress axis : x y z
#
# Youngs Moduli (GPa) = 72.82571 105.86636 121.22236
#
# Poissons Ratio (x) = 0.38769 0.24762
# Poissons Ratio (y) = 0.26669 0.25721
# Poissons Ratio (z) = 0.14876 0.22463
#
# Static dielectric constant tensor:
#      x y z
#    x 1.856060 0.000000 0.000000 
#    y 0.000000 1.885030 0.000000 
#    z 0.000000 0.000000 1.787810 
# 
# From -- ./inp_files/23472.got.cif
#   From: 2010.05.17/outbox.cif.g08.bks.cpg/sg60_12_cif.got.tgz:23472.got - 2010.06.03 14:59:27.
