data_PCOD9455424
_publ_section_title
;
Structure prediction by ZEFSAII (Michael W. Deem and Ramdas Pophale) SiO2 
 PCOD9455424
Probable space group: P B C N
;
_chemical_formula_sum "Si O2"
_cell_formula_units_Z 32
_cell_length_a 4.885949
_cell_length_b 22.001722
_cell_length_c 14.510931
_cell_angle_alpha 90.000000
_cell_angle_beta 90.000000
_cell_angle_gamma 90.000000
_cell_volume 1559.914803
_symmetry_space_group_name_H-M "P B C N"
_symmetry_group_IT_number 60
_symmetry_cell_setting 'orthorhombic'
loop_
_space_group_symop_operation_xyz
x,y,z
1/2-x,1/2-y,1/2+z
1/2+x,1/2-y,-z
-x,y,1/2-z
-x,-y,-z
1/2+x,1/2+y,1/2-z
1/2-x,1/2+y,z
x,-y,1/2+z
loop_
_atom_site_type_symbol
_atom_site_label
_atom_site_fract_x
_atom_site_fract_y
_atom_site_fract_z
Si Si1 0.268602 0.424980 0.186312
Si Si2 0.305155 0.170396 0.531328
Si Si3 0.000000 0.623486 0.250000
Si Si4 0.299483 0.694891 0.088592
Si Si5 0.000000 0.958556 0.750000
O O1 0.500000 0.394139 0.250000
O O2 0.241002 0.388243 0.093042
O O3 0.375544 0.494259 0.175283
O O4 0.000000 0.426582 0.250000
O O5 0.613328 0.171716 0.495495
O O6 0.268089 0.232266 0.590352
O O7 0.105372 0.177799 0.442940
O O8 0.169304 0.664071 0.177755
O O9 0.244829 0.580193 0.287095
#
# Coordination Sequence:
#
# PCOD9455424 Si02
#       5
#     8   8   4   8   4
#     4  10  20  38  65  83 116 158 197 252 285 341
#     4  10  21  42  59  93 117 149 201 251 297 350
#     4  12  22  41  60  85 122 168 188 236 318 348
#     4  10  23  38  62  87 126 149 192 251 299 371
#     4  10  22  39  58  87 122 154 212 244 268 366
#
# _framework density 20.513943000000001
#
# number of rings (size 3 to 8) (size 9 to 14) (size 15 to 20)
#    0.750    1.000    1.250    3.000    1.750    0.000 
#    2.250    7.500    0.000    0.000    0.000    0.000 
#    0.000    0.000    0.000    0.000    0.000    0.000 
#
# Total GULP energy -178359.246948 kJ/mol
# GULP energy per Si atom -5573.726467 kJ/mol
# Density = 2.046725 g / cm^3
# Si number density = 20.513943 Si / 1000 Ang^3
#
#
#
# Elastic Constant Matrix: (Units=GPa)
#
#
# Indices 1 2 3 4 5 6 
#
# 1 93.1235 13.1574 -7.3253 0.0000 0.0000 0.0000
# 2 13.1574 96.2710 39.8655 0.0000 0.0000 0.0000
# 3 -7.3253 39.8655 36.1924 0.0000 0.0000 0.0000
# 4 0.0000 0.0000 0.0000 254.4874 0.0000 0.0000
# 5 0.0000 0.0000 0.0000 0.0000 21.7652 0.0000
# 6 0.0000 0.0000 0.0000 0.0000 0.0000 -24.7129
#
#
#
# Elastic Compliance Matrix: (Units=1/GPa)
#
#
# Indices 1 2 3 4 5 6 
#
# 1 0.012043 -0.004882 0.007815 0.000000 0.000000 0.000000
# 2 -0.004882 0.021078 -0.024205 0.000000 0.000000 0.000000
# 3 0.007815 -0.024205 0.055874 0.000000 0.000000 0.000000
# 4 0.000000 0.000000 0.000000 0.003929 0.000000 0.000000
# 5 0.000000 0.000000 0.000000 0.000000 0.045945 0.000000
# 6 0.000000 0.000000 0.000000 0.000000 0.000000 -0.040465
#
#
# Mechanical properties :
#
#
# Convention : Reuss Voigt Hill
#
# Bulk Modulus (GPa) = 21.52855 35.22025 28.37440
# Shear Modulus (GPa) = 31.96283 62.30057 47.13170
#
# Velocity S-wave (km/s) = 3.95156 5.51686 4.79847
# Velocity P-wave (km/s) = 5.59796 7.60179 6.67549
#
# Compressibility (1/GPa) = 0.04644994
#
# Stress axis : x y z
#
# Youngs Moduli (GPa) = 83.03603 47.44311 17.89757
#
# Poissons Ratio (x) = 0.23162 -0.13987
# Poissons Ratio (y) = 0.40539 0.43321
# Poissons Ratio (z) = -0.64893 1.14837
#
# Static dielectric constant tensor:
#      x y z
#    x 1.711440 0.000000 0.000000 
#    y 0.000000 1.754670 0.000000 
#    z 0.000000 0.000000 1.800060 
# 
# From -- ./inp_files/13588.got.cif
#   From: 2010.05.17/outbox.cif.g08.bks.cpg/sg60_7_cif.got.tgz:13588.got - 2010.06.03 14:59:27.
