data_PCOD9455254
_publ_section_title
;
Structure prediction by ZEFSAII (Michael W. Deem and Ramdas Pophale) SiO2 
 PCOD9455254
Probable space group: P B C N
;
_chemical_formula_sum "Si O2"
_cell_formula_units_Z 40
_cell_length_a 19.768275
_cell_length_b 9.706194
_cell_length_c 8.573697
_cell_angle_alpha 90.000000
_cell_angle_beta 90.000000
_cell_angle_gamma 90.000000
_cell_volume 1645.075644
_symmetry_space_group_name_H-M "P B C N"
_symmetry_group_IT_number 60
_symmetry_cell_setting 'orthorhombic'
loop_
_space_group_symop_operation_xyz
x,y,z
1/2-x,1/2-y,1/2+z
1/2+x,1/2-y,-z
-x,y,1/2-z
-x,-y,-z
1/2+x,1/2+y,1/2-z
1/2-x,1/2+y,z
x,-y,1/2+z
loop_
_atom_site_type_symbol
_atom_site_label
_atom_site_fract_x
_atom_site_fract_y
_atom_site_fract_z
Si Si1 0.609420 0.644430 0.597194
Si Si2 0.347834 0.071529 0.084469
Si Si3 0.464112 0.876532 0.093796
Si Si4 0.125256 0.854517 0.031589
Si Si5 0.224427 0.652064 0.390095
O O1 0.557238 0.755928 0.526599
O O2 0.593532 0.492684 0.536005
O O3 0.681837 0.714819 0.551384
O O4 0.616110 0.629685 0.782653
O O5 0.295319 0.136893 0.208363
O O6 0.396903 0.956773 0.156938
O O7 0.393510 0.194408 0.014287
O O8 0.307092 0.986742 0.958925
O O9 0.500000 0.824121 0.250000
O O10 0.500000 0.000000 0.000000
O O11 0.199201 0.849269 0.948281
#
# Coordination Sequence:
#
# PCOD9455254 Si02
#       5
#     8   8   8   8   8
#     4  10  24  39  60  95 128 169 216 257 319 390
#     4  10  22  38  61  93 122 163 217 257 310 392
#     4  11  23  46  71  91 123 171 225 281 328 377
#     4  11  21  38  59  91 133 163 198 262 320 385
#     4  10  20  37  60  90 127 170 205 249 318 392
#
# _framework density 24.314990999999999
#
# number of rings (size 3 to 8) (size 9 to 14) (size 15 to 20)
#    0.000    1.600    0.000    6.000    0.000    8.000 
#    0.000    7.000    0.000    0.000    0.000    0.000 
#    0.000    0.000    0.000    0.000    0.000    0.000 
#
# Total GULP energy -223193.307076 kJ/mol
# GULP energy per Si atom -5579.832677 kJ/mol
# Density = 2.425965 g / cm^3
# Si number density = 24.314991 Si / 1000 Ang^3
#
#
#
# Elastic Constant Matrix: (Units=GPa)
#
#
# Indices 1 2 3 4 5 6 
#
# 1 35.9223 -7.4940 20.3878 0.0000 0.0000 0.0000
# 2 -7.4940 128.1253 17.2903 0.0000 0.0000 0.0000
# 3 20.3878 17.2903 110.2921 0.0000 0.0000 0.0000
# 4 0.0000 0.0000 0.0000 47.6137 0.0000 0.0000
# 5 0.0000 0.0000 0.0000 0.0000 34.4059 0.0000
# 6 0.0000 0.0000 0.0000 0.0000 0.0000 -23.2008
#
#
#
# Elastic Compliance Matrix: (Units=1/GPa)
#
#
# Indices 1 2 3 4 5 6 
#
# 1 0.032008 0.002728 -0.006344 0.000000 0.000000 0.000000
# 2 0.002728 0.008206 -0.001791 0.000000 0.000000 0.000000
# 3 -0.006344 -0.001791 0.010520 0.000000 0.000000 0.000000
# 4 0.000000 0.000000 0.000000 0.021002 0.000000 0.000000
# 5 0.000000 0.000000 0.000000 0.000000 0.029065 0.000000
# 6 0.000000 0.000000 0.000000 0.000000 0.000000 -0.043102
#
#
# Mechanical properties :
#
#
# Convention : Reuss Voigt Hill
#
# Bulk Modulus (GPa) = 25.04983 37.18977 31.11980
# Shear Modulus (GPa) = 61.10960 28.04080 44.57520
#
# Velocity S-wave (km/s) = 5.01867 3.39961 4.28628
# Velocity P-wave (km/s) = 6.62626 5.54419 6.10923
#
# Compressibility (1/GPa) = 0.03992043
#
# Stress axis : x y z
#
# Youngs Moduli (GPa) = 31.24234 121.86054 95.05381
#
# Poissons Ratio (x) = -0.33247 0.60306
# Poissons Ratio (y) = -0.08524 0.17022
# Poissons Ratio (z) = 0.19822 0.21823
#
# Static dielectric constant tensor:
#      x y z
#    x 2.061520 0.000000 0.000000 
#    y 0.000000 1.940130 0.000000 
#    z 0.000000 0.000000 1.906880 
# 
# From -- ./inp_files/7752.got.cif
#   From: 2010.05.17/outbox.cif.g08.bks.cpg/sg60_4_cif.got.tgz:7752.got - 2010.06.03 14:59:27.
