data_PCOD9455394
_publ_section_title
;
Structure prediction by ZEFSAII (Michael W. Deem and Ramdas Pophale) SiO2 
 PCOD9455394
Probable space group: P B C N
;
_chemical_formula_sum "Si O2"
_cell_formula_units_Z 64
_cell_length_a 6.739428
_cell_length_b 15.456570
_cell_length_c 29.629363
_cell_angle_alpha 90.000000
_cell_angle_beta 90.000000
_cell_angle_gamma 90.000000
_cell_volume 3086.444541
_symmetry_space_group_name_H-M "P B C N"
_symmetry_group_IT_number 60
_symmetry_cell_setting 'orthorhombic'
loop_
_space_group_symop_operation_xyz
x,y,z
1/2-x,1/2-y,1/2+z
1/2+x,1/2-y,-z
-x,y,1/2-z
-x,-y,-z
1/2+x,1/2+y,1/2-z
1/2-x,1/2+y,z
x,-y,1/2+z
loop_
_atom_site_type_symbol
_atom_site_label
_atom_site_fract_x
_atom_site_fract_y
_atom_site_fract_z
Si Si1 0.221844 0.099789 0.964192
Si Si2 0.969832 0.921368 0.803136
Si Si3 0.311333 0.299088 0.371679
Si Si4 0.923280 0.475582 0.423142
Si Si5 0.552905 0.227869 0.802443
Si Si6 0.966974 0.077276 0.449610
Si Si7 0.818638 0.092510 0.844550
Si Si8 0.281124 0.891865 0.876097
O O1 0.222523 0.165144 0.922171
O O2 0.453314 0.069772 0.963468
O O3 0.096231 0.134392 0.007045
O O4 0.100904 0.009119 0.957615
O O5 0.181637 0.918041 0.828818
O O6 0.000000 0.936247 0.750000
O O7 0.879481 0.826327 0.811225
O O8 0.841588 0.996138 0.825895
O O9 0.466542 0.368487 0.353387
O O10 0.389023 0.200423 0.373565
O O11 0.126239 0.292914 0.337225
O O12 0.747580 0.539200 0.437178
O O13 0.812431 0.408911 0.390039
O O14 0.081124 0.531912 0.394656
O O15 0.500000 0.226427 0.750000
O O16 0.715597 0.155913 0.810034
O O17 0.093030 0.122259 0.410290
#
# Coordination Sequence:
#
# PCOD9455394 Si02
#       8
#     8   8   8   8   8   8   8   8
#     4  10  20  38  63  89 121 162 217 261 319 386
#     4  10  23  44  65  91 130 168 213 274 325 387
#     4  11  23  41  60  93 128 168 213 269 317 392
#     4  11  20  38  64  94 117 168 213 256 326 387
#     4  10  25  44  64  95 131 168 215 272 331 387
#     4  10  20  39  62  87 124 164 208 271 320 380
#     4  12  23  37  71  92 126 173 216 263 330 389
#     4  10  23  40  62  89 133 166 210 268 326 386
#
# _framework density 20.735833
#
# number of rings (size 3 to 8) (size 9 to 14) (size 15 to 20)
#    0.000    1.500    3.750    1.125    3.500    0.000 
#    2.250    0.000    0.000    0.000    0.000    0.000 
#    0.000    0.000    0.000    0.000    0.000    0.000 
#
# Total GULP energy -356772.592319 kJ/mol
# GULP energy per Si atom -5574.571755 kJ/mol
# Density = 2.068864 g / cm^3
# Si number density = 20.735833 Si / 1000 Ang^3
#
#
#
# Elastic Constant Matrix: (Units=GPa)
#
#
# Indices 1 2 3 4 5 6 
#
# 1 63.4091 20.4700 20.7549 0.0000 0.0000 0.0000
# 2 20.4700 56.4475 6.8647 0.0000 0.0000 0.0000
# 3 20.7549 6.8647 78.9488 0.0000 0.0000 0.0000
# 4 0.0000 0.0000 0.0000 22.6892 0.0000 0.0000
# 5 0.0000 0.0000 0.0000 0.0000 16.3623 0.0000
# 6 0.0000 0.0000 0.0000 0.0000 0.0000 9.9463
#
#
#
# Elastic Compliance Matrix: (Units=1/GPa)
#
#
# Indices 1 2 3 4 5 6 
#
# 1 0.019337 -0.006462 -0.004522 0.000000 0.000000 0.000000
# 2 -0.006462 0.020065 -0.000046 0.000000 0.000000 0.000000
# 3 -0.004522 -0.000046 0.013859 0.000000 0.000000 0.000000
# 4 0.000000 0.000000 0.000000 0.044074 0.000000 0.000000
# 5 0.000000 0.000000 0.000000 0.000000 0.061116 0.000000
# 6 0.000000 0.000000 0.000000 0.000000 0.000000 0.100539
#
#
# Mechanical properties :
#
#
# Convention : Reuss Voigt Hill
#
# Bulk Modulus (GPa) = 32.05006 32.77606 32.41306
# Shear Modulus (GPa) = 17.15562 19.84729 18.50145
#
# Velocity S-wave (km/s) = 2.87948 3.09714 2.99029
# Velocity P-wave (km/s) = 5.15219 5.35075 5.25241
#
# Compressibility (1/GPa) = 0.03120119
#
# Stress axis : x y z
#
# Youngs Moduli (GPa) = 51.71485 49.83885 72.15482
#
# Poissons Ratio (x) = 0.32208 0.32625
# Poissons Ratio (y) = 0.33420 0.00330
# Poissons Ratio (z) = 0.23383 0.00228
#
# Static dielectric constant tensor:
#      x y z
#    x 1.748990 0.000000 0.000000 
#    y 0.000000 1.759910 0.000000 
#    z 0.000000 0.000000 1.831370 
# 
# From -- ./inp_files/25806.got.cif
#   From: 2010.05.17/outbox.cif.g08.bks.cpg/sg60_13_cif.got.tgz:25806.got - 2010.06.03 14:59:27.
