data_PCOD9455579
_publ_section_title
;
Structure prediction by ZEFSAII (Michael W. Deem and Ramdas Pophale) SiO2 
 PCOD9455579
Probable space group: P B C N
;
_chemical_formula_sum "Si O2"
_cell_formula_units_Z 60
_cell_length_a 9.015675
_cell_length_b 15.823168
_cell_length_c 16.234270
_cell_angle_alpha 90.000000
_cell_angle_beta 90.000000
_cell_angle_gamma 90.000000
_cell_volume 2315.924790
_symmetry_space_group_name_H-M "P B C N"
_symmetry_group_IT_number 60
_symmetry_cell_setting 'orthorhombic'
loop_
_space_group_symop_operation_xyz
x,y,z
1/2-x,1/2-y,1/2+z
1/2+x,1/2-y,-z
-x,y,1/2-z
-x,-y,-z
1/2+x,1/2+y,1/2-z
1/2-x,1/2+y,z
x,-y,1/2+z
loop_
_atom_site_type_symbol
_atom_site_label
_atom_site_fract_x
_atom_site_fract_y
_atom_site_fract_z
Si Si1 0.669732 0.186965 0.367075
Si Si2 0.500000 0.447129 0.250000
Si Si3 0.637600 0.193092 0.067430
Si Si4 0.365197 0.384634 0.495573
Si Si5 0.434939 0.057961 0.570537
Si Si6 0.365296 0.379402 0.090103
Si Si7 0.835542 0.764763 0.708686
Si Si8 0.214979 0.432810 0.332524
O O1 0.497155 0.165626 0.373330
O O2 0.775982 0.127011 0.420811
O O3 0.678971 0.281171 0.408003
O O4 0.728410 0.195748 0.276187
O O5 0.464654 0.391281 0.170650
O O6 0.338283 0.483775 0.278847
O O7 0.628319 0.290383 0.042686
O O8 0.790748 0.191504 0.121105
O O9 0.589034 0.144064 0.983885
O O10 0.538212 0.407146 0.488931
O O11 0.274870 0.435667 0.426955
O O12 0.267226 0.054779 0.600466
O O13 0.542034 0.049013 0.649066
O O14 0.500000 0.000000 0.500000
O O15 0.795104 0.664758 0.699547
O O16 0.000000 0.771526 0.750000
#
# Coordination Sequence:
#
# PCOD9455579 Si02
#       8
#     8   4   8   8   8   8   8   8
#     4  11  18  34  61  93 131 168 193 266 341 398
#     4  10  20  40  64  90 126 154 206 278 326 378
#     4  10  22  37  58  91 130 168 209 263 323 395
#     4   9  19  33  62  93 130 162 204 265 342 382
#     4  12  25  42  64  87 127 178 226 265 304 378
#     4  10  21  35  61  97 129 161 214 266 323 390
#     4  11  23  32  61  98 134 159 204 265 345 400
#     4  10  21  39  60  98 125 168 211 270 325 390
#
# _framework density 25.907578999999998
#
# number of rings (size 3 to 8) (size 9 to 14) (size 15 to 20)
#    0.000    1.600    4.000    2.000    1.867    0.000 
#    0.000    2.667    7.333    0.000    0.000    0.000 
#    0.000    0.000    0.000    0.000    0.000    0.000 
#
# Total GULP energy -334404.130517 kJ/mol
# GULP energy per Si atom -5573.402175 kJ/mol
# Density = 2.584861 g / cm^3
# Si number density = 25.907579 Si / 1000 Ang^3
#
#
#
# Elastic Constant Matrix: (Units=GPa)
#
#
# Indices 1 2 3 4 5 6 
#
# 1 163.9904 25.4830 56.7502 0.0000 0.0000 0.0000
# 2 25.4830 50.4686 9.7697 0.0000 0.0000 0.0000
# 3 56.7502 9.7697 69.9502 0.0000 0.0000 0.0000
# 4 0.0000 0.0000 0.0000 21.0311 0.0000 0.0000
# 5 0.0000 0.0000 0.0000 0.0000 71.4707 0.0000
# 6 0.0000 0.0000 0.0000 0.0000 0.0000 -7.3137
#
#
#
# Elastic Compliance Matrix: (Units=1/GPa)
#
#
# Indices 1 2 3 4 5 6 
#
# 1 0.008955 -0.003202 -0.006818 0.000000 0.000000 0.000000
# 2 -0.003202 0.021510 -0.000407 0.000000 0.000000 0.000000
# 3 -0.006818 -0.000407 0.019884 0.000000 0.000000 0.000000
# 4 0.000000 0.000000 0.000000 0.047549 0.000000 0.000000
# 5 0.000000 0.000000 0.000000 0.000000 0.013992 0.000000
# 6 0.000000 0.000000 0.000000 0.000000 0.000000 -0.136729
#
#
# Mechanical properties :
#
#
# Convention : Reuss Voigt Hill
#
# Bulk Modulus (GPa) = 33.90286 52.04611 42.97448
# Shear Modulus (GPa) = 855.53377 29.86469 442.69923
#
# Velocity S-wave (km/s) = 18.19182 3.39889 13.08615
# Velocity P-wave (km/s) = 21.31597 5.96121 15.65099
#
# Compressibility (1/GPa) = 0.02949604
#
# Stress axis : x y z
#
# Youngs Moduli (GPa) = 111.67193 46.49070 50.29194
#
# Poissons Ratio (x) = 0.14885 0.34288
# Poissons Ratio (y) = 0.35755 0.02045
# Poissons Ratio (z) = 0.76136 0.01890
#
# Static dielectric constant tensor:
#      x y z
#    x 2.018930 0.000000 0.000000 
#    y 0.000000 2.019610 0.000000 
#    z 0.000000 0.000000 2.293580 
# 
# From -- ./inp_files/19563.got.cif
#   From: 2010.05.17/outbox.cif.g08.bks.cpg/sg60_10_cif.got.tgz:19563.got - 2010.06.03 14:59:27.
