data_PCOD9455894
_publ_section_title
;
Structure prediction by ZEFSAII (Michael W. Deem and Ramdas Pophale) SiO2 
 PCOD9455894
Probable space group: P B C N
;
_chemical_formula_sum "Si O2"
_cell_formula_units_Z 40
_cell_length_a 9.551147
_cell_length_b 16.622855
_cell_length_c 10.300616
_cell_angle_alpha 90.000000
_cell_angle_beta 90.000000
_cell_angle_gamma 90.000000
_cell_volume 1635.401317
_symmetry_space_group_name_H-M "P B C N"
_symmetry_group_IT_number 60
_symmetry_cell_setting 'orthorhombic'
loop_
_space_group_symop_operation_xyz
x,y,z
1/2-x,1/2-y,1/2+z
1/2+x,1/2-y,-z
-x,y,1/2-z
-x,-y,-z
1/2+x,1/2+y,1/2-z
1/2-x,1/2+y,z
x,-y,1/2+z
loop_
_atom_site_type_symbol
_atom_site_label
_atom_site_fract_x
_atom_site_fract_y
_atom_site_fract_z
Si Si1 0.500000 0.489730 0.750000
Si Si2 0.281155 0.187085 0.649308
Si Si3 0.281149 0.069012 0.861732
Si Si4 0.836290 0.136980 0.377899
Si Si5 0.835597 0.607660 0.112663
Si Si6 0.000000 0.730259 0.250000
O O1 0.632663 0.540796 0.702763
O O2 0.541405 0.428637 0.866313
O O3 0.344644 0.129832 0.758429
O O4 0.368041 0.268434 0.620440
O O5 0.261966 0.135916 0.518691
O O6 0.132148 0.217399 0.706501
O O7 0.365612 0.987009 0.888058
O O8 0.249988 0.114079 0.995225
O O9 0.754051 0.122748 0.242960
O O10 0.962425 0.669242 0.133425
#
# Coordination Sequence:
#
# PCOD9455894 Si02
#       6
#     4   8   8   8   8   4
#     4  10  21  36  65  94 120 160 212 264 323 372
#     4  11  23  41  64  92 127 168 210 260 317 379
#     4  11  22  40  61  90 126 164 208 265 316 375
#     4  10  21  37  60  92 125 159 206 264 313 372
#     4  10  22  40  63  91 124 164 209 256 313 378
#     4  10  23  44  69  92 130 174 208 260 329 378
#
# _framework density 24.458829999999999
#
# number of rings (size 3 to 8) (size 9 to 14) (size 15 to 20)
#    0.000    1.600    0.000    6.000    0.000    8.000 
#    0.000   10.000    0.000    0.000    0.000    0.000 
#    0.000    0.000    0.000    0.000    0.000    0.000 
#
# Total GULP energy -223811.980977 kJ/mol
# GULP energy per Si atom -5595.299524 kJ/mol
# Density = 2.440316 g / cm^3
# Si number density = 24.458830 Si / 1000 Ang^3
#
#
#
# Elastic Constant Matrix: (Units=GPa)
#
#
# Indices 1 2 3 4 5 6 
#
# 1 80.5831 28.8884 20.0059 0.0000 0.0000 0.0000
# 2 28.8884 211.0129 83.3829 0.0000 0.0000 0.0000
# 3 20.0059 83.3829 171.1056 0.0000 0.0000 0.0000
# 4 0.0000 0.0000 0.0000 49.8604 0.0000 0.0000
# 5 0.0000 0.0000 0.0000 0.0000 11.5859 0.0000
# 6 0.0000 0.0000 0.0000 0.0000 0.0000 56.5750
#
#
#
# Elastic Compliance Matrix: (Units=1/GPa)
#
#
# Indices 1 2 3 4 5 6 
#
# 1 0.013142 -0.001476 -0.000817 0.000000 0.000000 0.000000
# 2 -0.001476 0.006035 -0.002768 0.000000 0.000000 0.000000
# 3 -0.000817 -0.002768 0.007289 0.000000 0.000000 0.000000
# 4 0.000000 0.000000 0.000000 0.020056 0.000000 0.000000
# 5 0.000000 0.000000 0.000000 0.000000 0.086312 0.000000
# 6 0.000000 0.000000 0.000000 0.000000 0.000000 0.017676
#
#
# Mechanical properties :
#
#
# Convention : Reuss Voigt Hill
#
# Bulk Modulus (GPa) = 61.19150 80.80624 70.99887
# Shear Modulus (GPa) = 30.10597 45.63255 37.86926
#
# Velocity S-wave (km/s) = 3.51220 4.32405 3.93909
# Velocity P-wave (km/s) = 6.44359 7.61835 7.05546
#
# Compressibility (1/GPa) = 0.01634214
#
# Stress axis : x y z
#
# Youngs Moduli (GPa) = 76.09400 165.69719 137.19328
#
# Poissons Ratio (x) = 0.24461 0.11211
# Poissons Ratio (y) = 0.11233 0.37981
# Poissons Ratio (z) = 0.06218 0.45872
#
# Static dielectric constant tensor:
#      x y z
#    x 2.038000 0.000000 0.000000 
#    y 0.000000 1.968710 0.000000 
#    z 0.000000 0.000000 1.897250 
# 
# From -- ./inp_files/4816.got.cif
#   From: 2010.05.17/outbox.cif.g08.bks.cpg/sg60_3_cif.got.tgz:4816.got - 2010.06.03 14:59:27.
