data_PCOD9455343
_publ_section_title
;
Structure prediction by ZEFSAII (Michael W. Deem and Ramdas Pophale) SiO2 
 PCOD9455343
Probable space group: P B C N
;
_chemical_formula_sum "Si O2"
_cell_formula_units_Z 44
_cell_length_a 14.265184
_cell_length_b 13.702770
_cell_length_c 10.959945
_cell_angle_alpha 90.000000
_cell_angle_beta 90.000000
_cell_angle_gamma 90.000000
_cell_volume 2142.368237
_symmetry_space_group_name_H-M "P B C N"
_symmetry_group_IT_number 60
_symmetry_cell_setting 'orthorhombic'
loop_
_space_group_symop_operation_xyz
x,y,z
1/2-x,1/2-y,1/2+z
1/2+x,1/2-y,-z
-x,y,1/2-z
-x,-y,-z
1/2+x,1/2+y,1/2-z
1/2-x,1/2+y,z
x,-y,1/2+z
loop_
_atom_site_type_symbol
_atom_site_label
_atom_site_fract_x
_atom_site_fract_y
_atom_site_fract_z
Si Si1 0.500000 0.120558 0.250000
Si Si2 0.317809 0.141099 0.112184
Si Si3 0.362800 0.012073 0.409183
Si Si4 0.204158 0.843678 0.001298
Si Si5 0.284299 0.525636 0.735144
Si Si6 0.053234 0.957257 0.880359
O O1 0.406130 0.172518 0.197824
O O2 0.458296 0.054488 0.358572
O O3 0.281318 0.232417 0.036528
O O4 0.234162 0.083640 0.181600
O O5 0.358774 0.058763 0.022780
O O6 0.292831 0.102696 0.439567
O O7 0.314890 0.953041 0.297618
O O8 0.190026 0.903828 0.126387
O O9 0.109888 0.861192 0.923187
O O10 0.361844 0.528620 0.840308
O O11 0.000000 0.944800 0.750000
O O12 0.000000 0.000000 0.000000
#
# Coordination Sequence:
#
# PCOD9455343 Si02
#       6
#     4   8   8   8   8   8
#     4  10  20  38  60  84 122 162 212 256 316 372
#     4  10  21  38  59  91 122 162 214 261 313 382
#     4   9  20  38  61  83 121 162 208 260 315 372
#     4  10  21  39  61  91 123 165 211 257 329 373
#     4   9  20  38  60  85 120 169 202 260 314 382
#     4  11  21  38  62  91 129 167 211 262 324 390
#
# _framework density 20.538019999999999
#
# number of rings (size 3 to 8) (size 9 to 14) (size 15 to 20)
#    0.000    2.182    1.818    0.545    0.000    5.818 
#    4.909    0.000    0.000    0.000    0.000    0.000 
#    0.000    0.000    0.000    0.000    0.000    0.000 
#
# Total GULP energy -244955.438831 kJ/mol
# GULP energy per Si atom -5567.169064 kJ/mol
# Density = 2.049127 g / cm^3
# Si number density = 20.538020 Si / 1000 Ang^3
#
#
#
# Elastic Constant Matrix: (Units=GPa)
#
#
# Indices 1 2 3 4 5 6 
#
# 1 83.9896 31.9016 38.7567 0.0000 0.0000 0.0000
# 2 31.9016 67.5736 33.3166 0.0000 0.0000 0.0000
# 3 38.7567 33.3166 112.8457 0.0000 0.0000 0.0000
# 4 0.0000 0.0000 0.0000 9.3185 0.0000 0.0000
# 5 0.0000 0.0000 0.0000 0.0000 53.1409 0.0000
# 6 0.0000 0.0000 0.0000 0.0000 0.0000 6.3098
#
#
#
# Elastic Compliance Matrix: (Units=1/GPa)
#
#
# Indices 1 2 3 4 5 6 
#
# 1 0.015766 -0.005587 -0.003765 0.000000 0.000000 0.000000
# 2 -0.005587 0.019299 -0.003779 0.000000 0.000000 0.000000
# 3 -0.003765 -0.003779 0.011271 0.000000 0.000000 0.000000
# 4 0.000000 0.000000 0.000000 0.107313 0.000000 0.000000
# 5 0.000000 0.000000 0.000000 0.000000 0.018818 0.000000
# 6 0.000000 0.000000 0.000000 0.000000 0.000000 0.158483
#
#
# Mechanical properties :
#
#
# Convention : Reuss Voigt Hill
#
# Bulk Modulus (GPa) = 49.81702 52.48430 51.15066
# Shear Modulus (GPa) = 13.73993 24.44946 19.09469
#
# Velocity S-wave (km/s) = 2.58931 3.45403 3.05245
# Velocity P-wave (km/s) = 5.76611 6.44339 6.11414
#
# Compressibility (1/GPa) = 0.02007346
#
# Stress axis : x y z
#
# Youngs Moduli (GPa) = 63.42906 51.81499 88.72601
#
# Poissons Ratio (x) = 0.28947 0.33408
# Poissons Ratio (y) = 0.35435 0.33532
# Poissons Ratio (z) = 0.23883 0.19582
#
# Static dielectric constant tensor:
#      x y z
#    x 1.786940 0.000000 0.000000 
#    y 0.000000 1.707520 0.000000 
#    z 0.000000 0.000000 1.831190 
# 
# From -- ./inp_files/11808.got.cif
#   From: 2010.05.17/outbox.cif.g08.bks.cpg/sg60_6_cif.got.tgz:11808.got - 2010.06.03 14:59:27.
