data_PCOD9455335
_publ_section_title
;
Structure prediction by ZEFSAII (Michael W. Deem and Ramdas Pophale) SiO2 
 PCOD9455335
Probable space group: P B C N
;
_chemical_formula_sum "Si O2"
_cell_formula_units_Z 24
_cell_length_a 14.166564
_cell_length_b 5.010191
_cell_length_c 16.709510
_cell_angle_alpha 90.000000
_cell_angle_beta 90.000000
_cell_angle_gamma 90.000000
_cell_volume 1185.994090
_symmetry_space_group_name_H-M "P B C N"
_symmetry_group_IT_number 60
_symmetry_cell_setting 'orthorhombic'
loop_
_space_group_symop_operation_xyz
x,y,z
1/2-x,1/2-y,1/2+z
1/2+x,1/2-y,-z
-x,y,1/2-z
-x,-y,-z
1/2+x,1/2+y,1/2-z
1/2-x,1/2+y,z
x,-y,1/2+z
loop_
_atom_site_type_symbol
_atom_site_label
_atom_site_fract_x
_atom_site_fract_y
_atom_site_fract_z
Si Si1 0.571346 0.117350 0.432657
Si Si2 0.691625 0.840757 0.078730
Si Si3 0.001784 0.144734 0.156310
O O1 0.663515 0.178410 0.484934
O O2 0.530395 0.384473 0.393915
O O3 0.500000 0.000000 0.500000
O O4 0.573654 0.884347 0.366841
O O5 0.777808 0.642036 0.095668
O O6 0.601403 0.745918 0.128877
O O7 0.000000 0.088068 0.250000
#
# Coordination Sequence:
#
# PCOD9455335 Si02
#       3
#     8   8   8
#     4  10  20  38  60  82 111 157 201 232 283 362
#     4  11  21  37  59  86 114 150 197 248 286 332
#     4  11  22  39  61  86 119 159 195 238 300 364
#
# _framework density 20.236189
#
# number of rings (size 3 to 8) (size 9 to 14) (size 15 to 20)
#    0.000    1.333    0.000   11.000    0.000    0.000 
#    0.000   10.000    0.000    0.000    0.000    0.000 
#    0.000    0.000    0.000    0.000    0.000    0.000 
#
# Total GULP energy -134043.886623 kJ/mol
# GULP energy per Si atom -5585.161943 kJ/mol
# Density = 2.019013 g / cm^3
# Si number density = 20.236189 Si / 1000 Ang^3
#
#
#
# Elastic Constant Matrix: (Units=GPa)
#
#
# Indices 1 2 3 4 5 6 
#
# 1 34.4152 17.6981 14.7111 0.0000 0.0000 0.0000
# 2 17.6981 107.4585 13.2416 0.0000 0.0000 0.0000
# 3 14.7111 13.2416 77.8576 0.0000 0.0000 0.0000
# 4 0.0000 0.0000 0.0000 20.5730 0.0000 0.0000
# 5 0.0000 0.0000 0.0000 0.0000 11.9198 0.0000
# 6 0.0000 0.0000 0.0000 0.0000 0.0000 28.4437
#
#
#
# Elastic Compliance Matrix: (Units=1/GPa)
#
#
# Indices 1 2 3 4 5 6 
#
# 1 0.033967 -0.004906 -0.005584 0.000000 0.000000 0.000000
# 2 -0.004906 0.010214 -0.000810 0.000000 0.000000 0.000000
# 3 -0.005584 -0.000810 0.014037 0.000000 0.000000 0.000000
# 4 0.000000 0.000000 0.000000 0.048607 0.000000 0.000000
# 5 0.000000 0.000000 0.000000 0.000000 0.083894 0.000000
# 6 0.000000 0.000000 0.000000 0.000000 0.000000 0.035157
#
#
# Mechanical properties :
#
#
# Convention : Reuss Voigt Hill
#
# Bulk Modulus (GPa) = 28.07604 34.55923 31.31763
# Shear Modulus (GPa) = 19.20505 23.79266 21.49886
#
# Velocity S-wave (km/s) = 3.08400 3.43264 3.26298
# Velocity P-wave (km/s) = 5.15613 5.72937 5.45029
#
# Compressibility (1/GPa) = 0.03561756
#
# Stress axis : x y z
#
# Youngs Moduli (GPa) = 29.44061 97.90706 71.24162
#
# Poissons Ratio (x) = 0.48035 0.39778
# Poissons Ratio (y) = 0.14444 0.05771
# Poissons Ratio (z) = 0.16438 0.07931
#
# Static dielectric constant tensor:
#      x y z
#    x 1.768650 0.000000 0.000000 
#    y 0.000000 1.716650 0.000000 
#    z 0.000000 0.000000 1.718600 
# 
# From -- ./inp_files/16454.got.cif
#   From: 2010.05.17/outbox.cif.g08.bks.cpg/sg60_9_cif.got.tgz:16454.got - 2010.06.03 14:59:27.
