data_PCOD9455886
_publ_section_title
;
Structure prediction by ZEFSAII (Michael W. Deem and Ramdas Pophale) SiO2 
 PCOD9455886
Probable space group: P B C N
;
_chemical_formula_sum "Si O2"
_cell_formula_units_Z 48
_cell_length_a 21.975358
_cell_length_b 9.179812
_cell_length_c 10.375637
_cell_angle_alpha 90.000000
_cell_angle_beta 90.000000
_cell_angle_gamma 90.000000
_cell_volume 2093.073673
_symmetry_space_group_name_H-M "P B C N"
_symmetry_group_IT_number 60
_symmetry_cell_setting 'orthorhombic'
loop_
_space_group_symop_operation_xyz
x,y,z
1/2-x,1/2-y,1/2+z
1/2+x,1/2-y,-z
-x,y,1/2-z
-x,-y,-z
1/2+x,1/2+y,1/2-z
1/2-x,1/2+y,z
x,-y,1/2+z
loop_
_atom_site_type_symbol
_atom_site_label
_atom_site_fract_x
_atom_site_fract_y
_atom_site_fract_z
Si Si1 0.749870 0.060572 0.962735
Si Si2 0.049932 0.603526 0.363949
Si Si3 0.234982 0.307076 0.362520
Si Si4 0.670766 0.863481 0.793432
Si Si5 0.631492 0.330893 0.521342
Si Si6 0.012386 0.730204 0.900306
O O1 0.731196 0.029151 0.590782
O O2 0.823748 0.046725 0.962019
O O3 0.708817 0.001103 0.848138
O O4 0.739792 0.226489 0.006338
O O5 0.117576 0.615559 0.308670
O O6 0.041047 0.433356 0.398493
O O7 0.000000 0.635849 0.250000
O O8 0.038561 0.705257 0.489299
O O9 0.281830 0.259219 0.255033
O O10 0.169322 0.229179 0.354375
O O11 0.636178 0.797988 0.917211
O O12 0.561787 0.348611 0.553066
O O13 0.000000 0.760814 0.750000
#
# Coordination Sequence:
#
# PCOD9455886 Si02
#       6
#     8   8   8   8   8   8
#     4   9  22  39  58  95 131 172 209 273 342 406
#     4  10  21  36  62  96 130 173 227 284 343 388
#     4   9  22  36  60  94 126 169 212 262 343 402
#     4  11  21  36  65  92 135 164 218 278 339 408
#     4   9  21  38  59  88 131 164 216 269 337 403
#     4  10  21  38  59  92 132 176 224 283 334 398
#
# _framework density 22.932780999999999
#
# number of rings (size 3 to 8) (size 9 to 14) (size 15 to 20)
#    1.000    1.333    1.667    0.000    7.000    0.000 
#    6.000    0.000    0.000    2.000    0.000    0.000 
#    0.000    0.000    0.000    0.000    0.000    0.000 
#
# Total GULP energy -267265.393951 kJ/mol
# GULP energy per Si atom -5568.029041 kJ/mol
# Density = 2.288058 g / cm^3
# Si number density = 22.932781 Si / 1000 Ang^3
#
#
#
# Elastic Constant Matrix: (Units=GPa)
#
#
# Indices 1 2 3 4 5 6 
#
# 1 116.5827 19.9050 54.5689 0.0000 0.0000 0.0000
# 2 19.9050 18.2858 0.2595 0.0000 0.0000 0.0000
# 3 54.5689 0.2595 131.3168 0.0000 0.0000 0.0000
# 4 0.0000 0.0000 0.0000 11.3264 0.0000 0.0000
# 5 0.0000 0.0000 0.0000 0.0000 51.3533 0.0000
# 6 0.0000 0.0000 0.0000 0.0000 0.0000 21.8453
#
#
#
# Elastic Compliance Matrix: (Units=1/GPa)
#
#
# Indices 1 2 3 4 5 6 
#
# 1 0.013798 -0.014939 -0.005704 0.000000 0.000000 0.000000
# 2 -0.014939 0.070863 0.006068 0.000000 0.000000 0.000000
# 3 -0.005704 0.006068 0.009974 0.000000 0.000000 0.000000
# 4 0.000000 0.000000 0.000000 0.088289 0.000000 0.000000
# 5 0.000000 0.000000 0.000000 0.000000 0.019473 0.000000
# 6 0.000000 0.000000 0.000000 0.000000 0.000000 0.045776
#
#
# Mechanical properties :
#
#
# Convention : Reuss Voigt Hill
#
# Bulk Modulus (GPa) = 15.27094 46.18358 30.72726
# Shear Modulus (GPa) = 16.71386 29.66845 23.19116
#
# Velocity S-wave (km/s) = 2.70259 3.60073 3.18349
# Velocity P-wave (km/s) = 4.05119 6.12122 5.19045
#
# Compressibility (1/GPa) = 0.06548384
#
# Stress axis : x y z
#
# Youngs Moduli (GPa) = 72.47236 14.11171 100.26405
#
# Poissons Ratio (x) = 0.21082 0.57195
# Poissons Ratio (y) = 1.08268 -0.60840
# Poissons Ratio (z) = 0.41341 -0.08563
#
# Static dielectric constant tensor:
#      x y z
#    x 1.897920 0.000000 0.000000 
#    y 0.000000 1.875890 0.000000 
#    z 0.000000 0.000000 1.985050 
# 
# From -- ./inp_files/12478.got.cif
#   From: 2010.05.17/outbox.cif.g08.bks.cpg/sg60_7_cif.got.tgz:12478.got - 2010.06.03 14:59:27.
