data_PCOD9455086
_publ_section_title
;
Structure prediction by ZEFSAII (Michael W. Deem and Ramdas Pophale) SiO2 
 PCOD9455086
Probable space group: P B C N
;
_chemical_formula_sum "Si O2"
_cell_formula_units_Z 64
_cell_length_a 18.940801
_cell_length_b 18.709278
_cell_length_c 9.363636
_cell_angle_alpha 90.000000
_cell_angle_beta 90.000000
_cell_angle_gamma 90.000000
_cell_volume 3318.179624
_symmetry_space_group_name_H-M "P B C N"
_symmetry_group_IT_number 60
_symmetry_cell_setting 'orthorhombic'
loop_
_space_group_symop_operation_xyz
x,y,z
1/2-x,1/2-y,1/2+z
1/2+x,1/2-y,-z
-x,y,1/2-z
-x,-y,-z
1/2+x,1/2+y,1/2-z
1/2-x,1/2+y,z
x,-y,1/2+z
loop_
_atom_site_type_symbol
_atom_site_label
_atom_site_fract_x
_atom_site_fract_y
_atom_site_fract_z
Si Si1 0.442795 0.770947 0.636934
Si Si2 0.196191 0.137671 0.245954
Si Si3 0.664064 0.019819 0.557337
Si Si4 0.320629 0.661786 0.572914
Si Si5 0.565759 0.148931 0.649321
Si Si6 0.140698 0.636426 0.332186
Si Si7 0.732110 0.516582 0.806075
Si Si8 0.663183 0.221643 0.888056
O O1 0.500000 0.743718 0.750000
O O2 0.381001 0.712396 0.632439
O O3 0.459400 0.796495 0.475525
O O4 0.413995 0.842513 0.712711
O O5 0.168474 0.156667 0.402937
O O6 0.281041 0.145549 0.266117
O O7 0.186557 0.054935 0.209962
O O8 0.165755 0.193347 0.132839
O O9 0.606807 0.081725 0.578760
O O10 0.700187 0.003465 0.405401
O O11 0.634290 0.943568 0.609508
O O12 0.731789 0.037490 0.656826
O O13 0.312167 0.581547 0.630789
O O14 0.244519 0.696122 0.608395
O O15 0.500000 0.127421 0.750000
O O16 0.621873 0.187386 0.754747
O O17 0.132819 0.690876 0.464591
#
# Coordination Sequence:
#
# PCOD9455086 Si02
#       8
#     8   8   8   8   8   8   8   8
#     4  12  26  42  62  88 126 169 216 267 312 369
#     4  10  20  35  61  97 125 157 205 267 317 374
#     4  11  21  37  59  95 132 166 204 256 305 384
#     4  11  21  39  64  94 128 157 208 267 317 376
#     4  12  25  41  62  89 128 180 211 247 311 379
#     4  10  21  38  59  95 131 160 212 261 311 372
#     4  11  20  36  62  96 130 155 204 265 326 370
#     4  11  20  38  65  91 122 165 215 255 311 378
#
# _framework density 19.287685
#
# number of rings (size 3 to 8) (size 9 to 14) (size 15 to 20)
#    0.000    1.000    7.500    2.250    0.000    1.500 
#    0.000    3.750    0.000    1.500    0.000    0.000 
#    0.000    0.000    0.000    0.000    0.000    0.000 
#
# Total GULP energy -357275.392618 kJ/mol
# GULP energy per Si atom -5582.428010 kJ/mol
# Density = 1.924379 g / cm^3
# Si number density = 19.287685 Si / 1000 Ang^3
#
#
#
# Elastic Constant Matrix: (Units=GPa)
#
#
# Indices 1 2 3 4 5 6 
#
# 1 43.2755 22.9952 15.4493 0.0000 0.0000 0.0000
# 2 22.9952 96.9754 13.4503 0.0000 0.0000 0.0000
# 3 15.4493 13.4503 66.5272 0.0000 0.0000 0.0000
# 4 0.0000 0.0000 0.0000 27.7687 0.0000 0.0000
# 5 0.0000 0.0000 0.0000 0.0000 9.1438 0.0000
# 6 0.0000 0.0000 0.0000 0.0000 0.0000 16.6843
#
#
#
# Elastic Compliance Matrix: (Units=1/GPa)
#
#
# Indices 1 2 3 4 5 6 
#
# 1 0.028170 -0.005939 -0.005341 0.000000 0.000000 0.000000
# 2 -0.005939 0.011862 -0.001019 0.000000 0.000000 0.000000
# 3 -0.005341 -0.001019 0.016478 0.000000 0.000000 0.000000
# 4 0.000000 0.000000 0.000000 0.036012 0.000000 0.000000
# 5 0.000000 0.000000 0.000000 0.000000 0.109364 0.000000
# 6 0.000000 0.000000 0.000000 0.000000 0.000000 0.059937
#
#
# Mechanical properties :
#
#
# Convention : Reuss Voigt Hill
#
# Bulk Modulus (GPa) = 31.33674 34.50753 32.92213
# Shear Modulus (GPa) = 16.83178 21.04490 18.93834
#
# Velocity S-wave (km/s) = 2.95730 3.30677 3.13691
# Velocity P-wave (km/s) = 5.28613 5.70171 5.49785
#
# Compressibility (1/GPa) = 0.03191142
#
# Stress axis : x y z
#
# Youngs Moduli (GPa) = 35.49823 84.30618 60.68771
#
# Poissons Ratio (x) = 0.50070 0.32414
# Poissons Ratio (y) = 0.21083 0.06184
# Poissons Ratio (z) = 0.18960 0.08590
#
# Static dielectric constant tensor:
#      x y z
#    x 1.674360 0.000000 0.000000 
#    y 0.000000 1.685650 0.000000 
#    z 0.000000 0.000000 1.705690 
# 
# From -- ./inp_files/7572.got.cif
#   From: 2010.05.17/outbox.cif.g08.bks.cpg/sg60_4_cif.got.tgz:7572.got - 2010.06.03 14:59:27.
