data_PCOD9455567
_publ_section_title
;
Structure prediction by ZEFSAII (Michael W. Deem and Ramdas Pophale) SiO2 
 PCOD9455567
Probable space group: P B C N
;
_chemical_formula_sum "Si O2"
_cell_formula_units_Z 40
_cell_length_a 13.683464
_cell_length_b 9.339087
_cell_length_c 14.339286
_cell_angle_alpha 90.000000
_cell_angle_beta 90.000000
_cell_angle_gamma 90.000000
_cell_volume 1832.432568
_symmetry_space_group_name_H-M "P B C N"
_symmetry_group_IT_number 60
_symmetry_cell_setting 'orthorhombic'
loop_
_space_group_symop_operation_xyz
x,y,z
1/2-x,1/2-y,1/2+z
1/2+x,1/2-y,-z
-x,y,1/2-z
-x,-y,-z
1/2+x,1/2+y,1/2-z
1/2-x,1/2+y,z
x,-y,1/2+z
loop_
_atom_site_type_symbol
_atom_site_label
_atom_site_fract_x
_atom_site_fract_y
_atom_site_fract_z
Si Si1 0.611333 0.893031 0.829492
Si Si2 0.787464 0.569979 0.967303
Si Si3 0.081923 0.465188 0.368756
Si Si4 0.922113 0.893828 0.402996
Si Si5 0.542998 0.705672 0.425810
O O1 0.599968 0.722960 0.822995
O O2 0.701548 0.946243 0.889506
O O3 0.516381 0.943098 0.889121
O O4 0.609101 0.981593 0.734350
O O5 0.674900 0.610783 0.967879
O O6 0.859401 0.698638 0.935723
O O7 0.831905 0.505766 0.061725
O O8 0.041436 0.304612 0.380192
O O9 0.009312 0.842432 0.470436
O O10 0.940473 0.056221 0.372932
#
# Coordination Sequence:
#
# PCOD9455567 Si02
#       5
#     8   8   8   8   8
#     4  10  20  40  63  91 127 177 222 264 327 396
#     4  11  20  40  66  89 131 179 214 257 335 398
#     4  10  20  40  67  88 124 185 216 257 342 398
#     4  11  21  37  65  97 130 165 218 282 318 378
#     4  10  21  38  64  95 126 163 221 267 329 390
#
# _framework density 21.828907999999998
#
# number of rings (size 3 to 8) (size 9 to 14) (size 15 to 20)
#    0.000    1.600    4.000    2.400    0.000    0.000 
#    3.600    8.000    4.400    0.000    0.000    0.000 
#    0.000    0.000    0.000    0.000    0.000    0.000 
#
# Total GULP energy -223230.756336 kJ/mol
# GULP energy per Si atom -5580.768908 kJ/mol
# Density = 2.177922 g / cm^3
# Si number density = 21.828908 Si / 1000 Ang^3
#
#
#
# Elastic Constant Matrix: (Units=GPa)
#
#
# Indices 1 2 3 4 5 6 
#
# 1 60.1033 14.0332 1.3729 0.0000 0.0000 0.0000
# 2 14.0332 187.9636 38.6785 0.0000 0.0000 0.0000
# 3 1.3729 38.6785 59.3920 0.0000 0.0000 0.0000
# 4 0.0000 0.0000 0.0000 17.3668 0.0000 0.0000
# 5 0.0000 0.0000 0.0000 0.0000 6.7135 0.0000
# 6 0.0000 0.0000 0.0000 0.0000 0.0000 29.1724
#
#
#
# Elastic Compliance Matrix: (Units=1/GPa)
#
#
# Indices 1 2 3 4 5 6 
#
# 1 0.016946 -0.001368 0.000499 0.000000 0.000000 0.000000
# 2 -0.001368 0.006254 -0.004041 0.000000 0.000000 0.000000
# 3 0.000499 -0.004041 0.019458 0.000000 0.000000 0.000000
# 4 0.000000 0.000000 0.000000 0.057581 0.000000 0.000000
# 5 0.000000 0.000000 0.000000 0.000000 0.148953 0.000000
# 6 0.000000 0.000000 0.000000 0.000000 0.000000 0.034279
#
#
# Mechanical properties :
#
#
# Convention : Reuss Voigt Hill
#
# Bulk Modulus (GPa) = 30.45298 46.18089 38.31693
# Shear Modulus (GPa) = 16.43461 27.54218 21.98840
#
# Velocity S-wave (km/s) = 2.74685 3.55594 3.17725
# Velocity P-wave (km/s) = 4.90319 6.16939 5.57237
#
# Compressibility (1/GPa) = 0.03283751
#
# Stress axis : x y z
#
# Youngs Moduli (GPa) = 59.01102 159.90076 51.39401
#
# Poissons Ratio (x) = 0.21872 -0.02565
# Poissons Ratio (y) = 0.08072 0.20769
# Poissons Ratio (z) = -0.02945 0.64618
#
# Static dielectric constant tensor:
#      x y z
#    x 1.817210 0.000000 0.000000 
#    y 0.000000 1.883390 0.000000 
#    z 0.000000 0.000000 1.826630 
# 
# From -- ./inp_files/16586.got.cif
#   From: 2010.05.17/outbox.cif.g08.bks.cpg/sg60_9_cif.got.tgz:16586.got - 2010.06.03 14:59:27.
