data_PCOD9455521
_publ_section_title
;
Structure prediction by ZEFSAII (Michael W. Deem and Ramdas Pophale) SiO2 
 PCOD9455521
Probable space group: P B C N
;
_chemical_formula_sum "Si O2"
_cell_formula_units_Z 32
_cell_length_a 12.057423
_cell_length_b 14.942866
_cell_length_c 8.394813
_cell_angle_alpha 90.000000
_cell_angle_beta 90.000000
_cell_angle_gamma 90.000000
_cell_volume 1512.514078
_symmetry_space_group_name_H-M "P B C N"
_symmetry_group_IT_number 60
_symmetry_cell_setting 'orthorhombic'
loop_
_space_group_symop_operation_xyz
x,y,z
1/2-x,1/2-y,1/2+z
1/2+x,1/2-y,-z
-x,y,1/2-z
-x,-y,-z
1/2+x,1/2+y,1/2-z
1/2-x,1/2+y,z
x,-y,1/2+z
loop_
_atom_site_type_symbol
_atom_site_label
_atom_site_fract_x
_atom_site_fract_y
_atom_site_fract_z
Si Si1 0.515334 0.717169 0.435534
Si Si2 0.959855 0.405860 0.931350
Si Si3 0.110061 0.075630 0.643980
Si Si4 0.291612 0.594226 0.966485
O O1 0.500000 0.699074 0.250000
O O2 0.507071 0.821251 0.473403
O O3 0.424872 0.661296 0.539038
O O4 0.633727 0.678537 0.487069
O O5 0.000000 0.397756 0.750000
O O6 0.827875 0.401942 0.954931
O O7 0.000000 0.500000 0.000000
O O8 0.206220 0.091016 0.774412
O O9 0.000000 0.054773 0.750000
O O10 0.145405 0.993496 0.533801
#
# Coordination Sequence:
#
# PCOD9455521 Si02
#       4
#     8   8   8   8
#     4  11  24  42  65  97 130 172 227 276 326 397
#     4  12  27  45  64  95 133 173 224 276 332 404
#     4  10  20  39  65  99 130 165 221 272 327 400
#     4  11  22  40  68  95 131 176 210 276 338 383
#
# _framework density 21.156828000000001
#
# number of rings (size 3 to 8) (size 9 to 14) (size 15 to 20)
#    0.000    1.000    0.000    9.750    0.000    6.000 
#    0.000    0.000    0.000    0.000    0.000    0.000 
#    0.000    0.000    0.000    0.000    0.000    0.000 
#
# Total GULP energy -179108.450767 kJ/mol
# GULP energy per Si atom -5597.139086 kJ/mol
# Density = 2.110867 g / cm^3
# Si number density = 21.156828 Si / 1000 Ang^3
#
#
#
# Elastic Constant Matrix: (Units=GPa)
#
#
# Indices 1 2 3 4 5 6 
#
# 1 89.5283 51.3825 35.9344 0.0000 0.0000 0.0000
# 2 51.3825 157.1713 37.3344 0.0000 0.0000 0.0000
# 3 35.9344 37.3344 155.3643 0.0000 0.0000 0.0000
# 4 0.0000 0.0000 0.0000 42.3319 0.0000 0.0000
# 5 0.0000 0.0000 0.0000 0.0000 36.4960 0.0000
# 6 0.0000 0.0000 0.0000 0.0000 0.0000 -6.2804
#
#
#
# Elastic Compliance Matrix: (Units=1/GPa)
#
#
# Indices 1 2 3 4 5 6 
#
# 1 0.014517 -0.004187 -0.002351 0.000000 0.000000 0.000000
# 2 -0.004187 0.007955 -0.000943 0.000000 0.000000 0.000000
# 3 -0.002351 -0.000943 0.007207 0.000000 0.000000 0.000000
# 4 0.000000 0.000000 0.000000 0.023623 0.000000 0.000000
# 5 0.000000 0.000000 0.000000 0.000000 0.027400 0.000000
# 6 0.000000 0.000000 0.000000 0.000000 0.000000 -0.159226
#
#
# Mechanical properties :
#
#
# Convention : Reuss Voigt Hill
#
# Bulk Modulus (GPa) = 67.95620 72.37406 70.16513
# Shear Modulus (GPa) = -85.24329 33.00369 -26.11980
#
# Velocity S-wave (km/s) = -6.35442 3.95391 -3.51747
# Velocity P-wave (km/s) = 4.65276 7.42477 4.09139
#
# Compressibility (1/GPa) = 0.01471536
#
# Stress axis : x y z
#
# Youngs Moduli (GPa) = 68.88678 125.70037 138.75411
#
# Poissons Ratio (x) = 0.52634 0.32626
# Poissons Ratio (y) = 0.28844 0.13088
# Poissons Ratio (z) = 0.16198 0.11857
#
# Static dielectric constant tensor:
#      x y z
#    x 1.764050 0.000000 0.000000 
#    y 0.000000 1.731800 0.000000 
#    z 0.000000 0.000000 1.774320 
# 
# From -- ./inp_files/4493.got.cif
#   From: 2010.05.17/outbox.cif.g08.bks.cpg/sg60_3_cif.got.tgz:4493.got - 2010.06.03 14:59:27.
