data_PCOD9455481
_publ_section_title
;
Structure prediction by ZEFSAII (Michael W. Deem and Ramdas Pophale) SiO2 
 PCOD9455481
Probable space group: P B C N
;
_chemical_formula_sum "Si O2"
_cell_formula_units_Z 56
_cell_length_a 28.705826
_cell_length_b 5.438889
_cell_length_c 14.338704
_cell_angle_alpha 90.000000
_cell_angle_beta 90.000000
_cell_angle_gamma 90.000000
_cell_volume 2238.670329
_symmetry_space_group_name_H-M "P B C N"
_symmetry_group_IT_number 60
_symmetry_cell_setting 'orthorhombic'
loop_
_space_group_symop_operation_xyz
x,y,z
1/2-x,1/2-y,1/2+z
1/2+x,1/2-y,-z
-x,y,1/2-z
-x,-y,-z
1/2+x,1/2+y,1/2-z
1/2-x,1/2+y,z
x,-y,1/2+z
loop_
_atom_site_type_symbol
_atom_site_label
_atom_site_fract_x
_atom_site_fract_y
_atom_site_fract_z
Si Si1 0.558730 0.745297 0.697925
Si Si2 0.663750 0.592399 0.055647
Si Si3 0.385057 0.254733 0.593630
Si Si4 0.974797 0.103179 0.886644
Si Si5 0.158202 0.956175 0.251713
Si Si6 0.070605 0.367362 0.461117
Si Si7 0.721536 0.800940 0.895982
O O1 0.525581 0.533520 0.652733
O O2 0.540592 0.787411 0.802438
O O3 0.611861 0.675702 0.711222
O O4 0.554931 0.954587 0.620747
O O5 0.685673 0.521794 0.154469
O O6 0.613415 0.709430 0.077442
O O7 0.648685 0.374554 0.985052
O O8 0.696641 0.767902 0.995698
O O9 0.433174 0.407863 0.607426
O O10 0.357927 0.307256 0.690104
O O11 0.402729 0.005677 0.547319
O O12 0.971956 0.234141 0.986355
O O13 0.184428 0.770123 0.183397
O O14 0.757939 0.573414 0.887842
#
# Coordination Sequence:
#
# PCOD9455481 Si02
#       7
#     8   8   8   8   8   8   8
#     4  10  20  39  61  91 136 179 234 281 340 412
#     4  10  23  42  66  98 130 173 223 278 349 425
#     4   9  20  39  60  91 132 180 226 278 337 396
#     4   9  21  38  54  92 138 179 233 293 331 395
#     4  10  22  43  69  97 133 178 221 277 349 423
#     4  11  21  36  65  92 132 180 233 285 341 405
#     4  11  28  49  76 105 139 172 219 287 355 430
#
# _framework density 25.014847
#
# number of rings (size 3 to 8) (size 9 to 14) (size 15 to 20)
#    0.000    2.000    1.429    1.286    6.000    2.857 
#    2.571    1.429    0.000    0.000    0.000    0.000 
#    0.000    0.000    0.000    0.000    0.000    0.000 
#
# Total GULP energy -313033.003311 kJ/mol
# GULP energy per Si atom -5589.875059 kJ/mol
# Density = 2.495791 g / cm^3
# Si number density = 25.014847 Si / 1000 Ang^3
#
#
#
# Elastic Constant Matrix: (Units=GPa)
#
#
# Indices 1 2 3 4 5 6 
#
# 1 83.0836 26.1382 25.6019 0.0000 0.0000 0.0000
# 2 26.1382 36.3654 9.7787 0.0000 0.0000 0.0000
# 3 25.6019 9.7787 160.8336 0.0000 0.0000 0.0000
# 4 0.0000 0.0000 0.0000 26.4815 0.0000 0.0000
# 5 0.0000 0.0000 0.0000 0.0000 31.9078 0.0000
# 6 0.0000 0.0000 0.0000 0.0000 0.0000 33.5350
#
#
#
# Elastic Compliance Matrix: (Units=1/GPa)
#
#
# Indices 1 2 3 4 5 6 
#
# 1 0.016099 -0.011063 -0.001890 0.000000 0.000000 0.000000
# 2 -0.011063 0.035558 -0.000401 0.000000 0.000000 0.000000
# 3 -0.001890 -0.000401 0.006543 0.000000 0.000000 0.000000
# 4 0.000000 0.000000 0.000000 0.037762 0.000000 0.000000
# 5 0.000000 0.000000 0.000000 0.000000 0.031340 0.000000
# 6 0.000000 0.000000 0.000000 0.000000 0.000000 0.029820
#
#
# Mechanical properties :
#
#
# Convention : Reuss Voigt Hill
#
# Bulk Modulus (GPa) = 31.75415 44.81335 38.28375
# Shear Modulus (GPa) = 25.72976 32.96912 29.34944
#
# Velocity S-wave (km/s) = 3.21063 3.63434 3.42903
# Velocity P-wave (km/s) = 5.14450 5.96363 5.56914
#
# Compressibility (1/GPa) = 0.03149195
#
# Stress axis : x y z
#
# Youngs Moduli (GPa) = 62.11594 28.12289 152.83886
#
# Poissons Ratio (x) = 0.31113 0.28887
# Poissons Ratio (y) = 0.68720 0.06127
# Poissons Ratio (z) = 0.11740 0.01127
#
# Static dielectric constant tensor:
#      x y z
#    x 2.019010 0.000000 0.000000 
#    y 0.000000 2.049560 0.000000 
#    z 0.000000 0.000000 1.966100 
# 
# From -- ./inp_files/18182.got.cif
#   From: 2010.05.17/outbox.cif.g08.bks.cpg/sg60_10_cif.got.tgz:18182.got - 2010.06.03 14:59:27.
