data_PCOD9455240
_publ_section_title
;
Structure prediction by ZEFSAII (Michael W. Deem and Ramdas Pophale) SiO2 
 PCOD9455240
Probable space group: P B C N
;
_chemical_formula_sum "Si O2"
_cell_formula_units_Z 60
_cell_length_a 7.888820
_cell_length_b 28.236793
_cell_length_c 13.299383
_cell_angle_alpha 90.000000
_cell_angle_beta 90.000000
_cell_angle_gamma 90.000000
_cell_volume 2962.503759
_symmetry_space_group_name_H-M "P B C N"
_symmetry_group_IT_number 60
_symmetry_cell_setting 'orthorhombic'
loop_
_space_group_symop_operation_xyz
x,y,z
1/2-x,1/2-y,1/2+z
1/2+x,1/2-y,-z
-x,y,1/2-z
-x,-y,-z
1/2+x,1/2+y,1/2-z
1/2-x,1/2+y,z
x,-y,1/2+z
loop_
_atom_site_type_symbol
_atom_site_label
_atom_site_fract_x
_atom_site_fract_y
_atom_site_fract_z
Si Si1 0.500000 0.130338 0.750000
Si Si2 0.401036 0.600854 0.038225
Si Si3 0.198218 0.717451 0.226697
Si Si4 0.129786 0.285304 0.371363
Si Si5 0.101066 0.205557 0.033868
Si Si6 0.175604 0.074314 0.814065
Si Si7 0.125063 0.966192 0.845596
Si Si8 0.802161 0.384747 0.758270
O O1 0.469196 0.166572 0.843591
O O2 0.331976 0.097438 0.752837
O O3 0.480403 0.653524 0.046784
O O4 0.521223 0.555641 0.060838
O O5 0.264428 0.601496 0.130033
O O6 0.336179 0.597347 0.924661
O O7 0.312098 0.759264 0.269386
O O8 0.239791 0.710675 0.110136
O O9 0.266063 0.667268 0.270205
O O10 0.000000 0.724430 0.250000
O O11 0.309233 0.292951 0.426594
O O12 0.021926 0.248215 0.437098
O O13 0.000000 0.079317 0.750000
O O14 0.198276 0.018740 0.842382
O O15 0.257171 0.925721 0.818586
O O16 0.000000 0.965074 0.750000
O O17 0.000000 0.378318 0.750000
#
# Coordination Sequence:
#
# PCOD9455240 Si02
#       8
#     4   8   8   8   8   8   8   8
#     4  12  26  46  64  92 140 178 222 276 318 402
#     4  10  20  40  63  92 127 165 223 275 328 395
#     4  10  20  37  59  88 126 163 210 268 330 389
#     4  12  23  41  59  91 126 169 220 262 332 386
#     4  11  22  37  62  88 124 170 216 272 325 392
#     4  11  25  45  66  93 133 181 224 266 332 399
#     4   9  19  38  67  92 126 168 215 273 336 397
#     4   9  19  36  61  95 125 157 211 276 336 385
#
# _framework density 20.253139999999998
#
# number of rings (size 3 to 8) (size 9 to 14) (size 15 to 20)
#    0.000    1.600    2.667    2.000    0.933    3.733 
#    2.400    0.667    0.000    0.000    0.000    0.000 
#    0.000    0.000    0.000    0.000    0.000    0.000 
#
# Total GULP energy -334160.454530 kJ/mol
# GULP energy per Si atom -5569.340909 kJ/mol
# Density = 2.020704 g / cm^3
# Si number density = 20.253140 Si / 1000 Ang^3
#
#
#
# Elastic Constant Matrix: (Units=GPa)
#
#
# Indices 1 2 3 4 5 6 
#
# 1 71.4033 55.2670 16.7920 0.0000 0.0000 0.0000
# 2 55.2670 133.8479 20.0263 0.0000 0.0000 0.0000
# 3 16.7920 20.0263 63.1573 0.0000 0.0000 0.0000
# 4 0.0000 0.0000 0.0000 21.4675 0.0000 0.0000
# 5 0.0000 0.0000 0.0000 0.0000 28.4841 0.0000
# 6 0.0000 0.0000 0.0000 0.0000 0.0000 27.9703
#
#
#
# Elastic Compliance Matrix: (Units=1/GPa)
#
#
# Indices 1 2 3 4 5 6 
#
# 1 0.021108 -0.008268 -0.002990 0.000000 0.000000 0.000000
# 2 -0.008268 0.011082 -0.001316 0.000000 0.000000 0.000000
# 3 -0.002990 -0.001316 0.017046 0.000000 0.000000 0.000000
# 4 0.000000 0.000000 0.000000 0.046582 0.000000 0.000000
# 5 0.000000 0.000000 0.000000 0.000000 0.035107 0.000000
# 6 0.000000 0.000000 0.000000 0.000000 0.000000 0.035752
#
#
# Mechanical properties :
#
#
# Convention : Reuss Voigt Hill
#
# Bulk Modulus (GPa) = 41.51574 50.28655 45.90114
# Shear Modulus (GPa) = 25.01817 27.33926 26.17871
#
# Velocity S-wave (km/s) = 3.51846 3.67805 3.59914
# Velocity P-wave (km/s) = 6.08679 6.55136 6.32334
#
# Compressibility (1/GPa) = 0.02408725
#
# Stress axis : x y z
#
# Youngs Moduli (GPa) = 47.37562 90.23611 58.66580
#
# Poissons Ratio (x) = 0.74609 0.17543
# Poissons Ratio (y) = 0.39171 0.07718
# Poissons Ratio (z) = 0.14167 0.11872
#
# Static dielectric constant tensor:
#      x y z
#    x 1.757430 0.000000 0.000000 
#    y 0.000000 1.797570 0.000000 
#    z 0.000000 0.000000 1.730250 
# 
# From -- ./inp_files/10294.got.cif
#   From: 2010.05.17/outbox.cif.g08.bks.cpg/sg60_6_cif.got.tgz:10294.got - 2010.06.03 14:59:27.
