data_PCOD9455995
_publ_section_title
;
Structure prediction by ZEFSAII (Michael W. Deem and Ramdas Pophale) SiO2 
 PCOD9455995
Probable space group: P B C N
;
_chemical_formula_sum "Si O2"
_cell_formula_units_Z 60
_cell_length_a 24.346479
_cell_length_b 11.628110
_cell_length_c 10.496661
_cell_angle_alpha 90.000000
_cell_angle_beta 90.000000
_cell_angle_gamma 90.000000
_cell_volume 2971.641845
_symmetry_space_group_name_H-M "P B C N"
_symmetry_group_IT_number 60
_symmetry_cell_setting 'orthorhombic'
loop_
_space_group_symop_operation_xyz
x,y,z
1/2-x,1/2-y,1/2+z
1/2+x,1/2-y,-z
-x,y,1/2-z
-x,-y,-z
1/2+x,1/2+y,1/2-z
1/2-x,1/2+y,z
x,-y,1/2+z
loop_
_atom_site_type_symbol
_atom_site_label
_atom_site_fract_x
_atom_site_fract_y
_atom_site_fract_z
Si Si1 0.113879 0.939858 0.553444
Si Si2 0.000000 0.449715 0.250000
Si Si3 0.590799 0.810549 0.389617
Si Si4 0.589976 0.131651 0.180970
Si Si5 0.105749 0.125897 0.764081
Si Si6 0.316946 0.018509 0.696310
Si Si7 0.760776 0.137348 0.431039
Si Si8 0.266657 0.309203 0.295245
O O1 0.091241 0.825696 0.623456
O O2 0.096388 0.934333 0.403467
O O3 0.180256 0.924945 0.559557
O O4 0.096923 0.046758 0.641076
O O5 0.035122 0.369994 0.156554
O O6 0.043568 0.534754 0.314709
O O7 0.600046 0.833574 0.537320
O O8 0.641806 0.875532 0.325638
O O9 0.574545 0.252020 0.247767
O O10 0.644949 0.076534 0.238159
O O11 0.169816 0.163628 0.769191
O O12 0.266696 0.072641 0.773245
O O13 0.288289 0.955780 0.576591
O O14 0.757818 0.217975 0.555795
O O15 0.754621 0.213664 0.303516
#
# Coordination Sequence:
#
# PCOD9455995 Si02
#       8
#     8   4   8   8   8   8   8   8
#     4  10  21  38  58  85 122 161 197 240 288 350
#     4  10  22  40  66  86 108 144 194 252 308 360
#     4  10  21  39  60  85 116 150 194 248 300 348
#     4  10  21  39  60  85 116 150 194 248 300 348
#     4  10  21  38  58  85 122 161 197 240 288 350
#     4  11  20  35  56  88 120 159 200 237 288 350
#     4  11  22  34  53  83 123 166 201 238 284 346
#     4  11  22  34  53  83 123 166 201 238 284 346
#
# _framework density 20.190859
#
# number of rings (size 3 to 8) (size 9 to 14) (size 15 to 20)
#    0.000    1.600    4.000    1.200    0.000    2.133 
#    0.000    3.333    0.000    3.200    0.000    0.000 
#    0.000    0.000    0.000    0.000    0.000    0.000 
#
# Total GULP energy -334726.378683 kJ/mol
# GULP energy per Si atom -5578.772978 kJ/mol
# Density = 2.014490 g / cm^3
# Si number density = 20.190859 Si / 1000 Ang^3
#
#
#
# Elastic Constant Matrix: (Units=GPa)
#
#
# Indices 1 2 3 4 5 6 
#
# 1 40.3559 1.7940 -21.6537 0.0000 0.0000 0.0000
# 2 1.7940 34.7604 -17.1230 0.0000 0.0000 0.0000
# 3 -21.6537 -17.1230 23.0962 0.0000 0.0000 0.0000
# 4 0.0000 0.0000 0.0000 34.3297 0.0000 0.0000
# 5 0.0000 0.0000 0.0000 0.0000 8.8048 0.0000
# 6 0.0000 0.0000 0.0000 0.0000 0.0000 24.6441
#
#
#
# Elastic Compliance Matrix: (Units=1/GPa)
#
#
# Indices 1 2 3 4 5 6 
#
# 1 0.092254 0.059617 0.130690 0.000000 0.000000 0.000000
# 2 0.059617 0.083845 0.118054 0.000000 0.000000 0.000000
# 3 0.130690 0.118054 0.253348 0.000000 0.000000 0.000000
# 4 0.000000 0.000000 0.000000 0.029129 0.000000 0.000000
# 5 0.000000 0.000000 0.000000 0.000000 0.113575 0.000000
# 6 0.000000 0.000000 0.000000 0.000000 0.000000 0.040578
#
#
# Mechanical properties :
#
#
# Convention : Reuss Voigt Hill
#
# Bulk Modulus (GPa) = 0.95587 2.69412 1.82500
# Shear Modulus (GPa) = 14.50417 22.56873 18.53645
#
# Velocity S-wave (km/s) = 2.68312 3.34693 3.03324
# Velocity P-wave (km/s) = 3.17384 4.03400 3.62949
#
# Compressibility (1/GPa) = 1.04616974
#
# Stress axis : x y z
#
# Youngs Moduli (GPa) = 10.83967 11.92676 3.94714
#
# Poissons Ratio (x) = -0.71104 -0.51585
# Poissons Ratio (y) = -0.64623 -0.46598
# Poissons Ratio (z) = -1.41664 -1.40800
#
# Static dielectric constant tensor:
#      x y z
#    x 1.718650 0.000000 0.000000 
#    y 0.000000 1.778360 0.000000 
#    z 0.000000 0.000000 1.720010 
# 
# From -- ./inp_files/8169.got.cif
#   From: 2010.05.17/outbox.cif.g08.bks.cpg/sg60_5_cif.got.tgz:8169.got - 2010.06.03 14:59:27.
