data_PCOD9455827
_publ_section_title
;
Structure prediction by ZEFSAII (Michael W. Deem and Ramdas Pophale) SiO2 
 PCOD9455827
Probable space group: P B C N
;
_chemical_formula_sum "Si O2"
_cell_formula_units_Z 32
_cell_length_a 7.853852
_cell_length_b 11.698659
_cell_length_c 14.416830
_cell_angle_alpha 90.000000
_cell_angle_beta 90.000000
_cell_angle_gamma 90.000000
_cell_volume 1324.611657
_symmetry_space_group_name_H-M "P B C N"
_symmetry_group_IT_number 60
_symmetry_cell_setting 'orthorhombic'
loop_
_space_group_symop_operation_xyz
x,y,z
1/2-x,1/2-y,1/2+z
1/2+x,1/2-y,-z
-x,y,1/2-z
-x,-y,-z
1/2+x,1/2+y,1/2-z
1/2-x,1/2+y,z
x,-y,1/2+z
loop_
_atom_site_type_symbol
_atom_site_label
_atom_site_fract_x
_atom_site_fract_y
_atom_site_fract_z
Si Si1 0.110742 0.733092 0.460901
Si Si2 0.344118 0.797192 0.307760
Si Si3 0.964544 0.531175 0.352327
Si Si4 0.813403 0.143094 0.875725
O O1 0.274950 0.730291 0.394356
O O2 0.009228 0.619421 0.431899
O O3 0.182130 0.720754 0.563521
O O4 0.993400 0.837970 0.426034
O O5 0.500000 0.744538 0.250000
O O6 0.199170 0.816516 0.230368
O O7 0.413224 0.919749 0.344444
O O8 0.776026 0.480993 0.370421
O O9 0.000000 0.584016 0.250000
#
# Coordination Sequence:
#
# PCOD9455827 Si02
#       4
#     8   8   8   8
#     4  12  21  39  63  85 122 165 194 247 308 351
#     4   9  20  39  58  87 119 149 201 252 293 358
#     4   9  20  39  59  83 119 160 199 247 298 350
#     4  10  21  35  58  89 117 154 204 244 290 357
#
# _framework density 24.158021999999999
#
# number of rings (size 3 to 8) (size 9 to 14) (size 15 to 20)
#    0.000    2.500    0.000    6.000    0.000    0.000 
#    0.000   15.000    0.000    0.000    0.000    0.000 
#    0.000    0.000    0.000    0.000    0.000    0.000 
#
# Total GULP energy -178642.091490 kJ/mol
# GULP energy per Si atom -5582.565359 kJ/mol
# Density = 2.410304 g / cm^3
# Si number density = 24.158022 Si / 1000 Ang^3
#
#
#
# Elastic Constant Matrix: (Units=GPa)
#
#
# Indices 1 2 3 4 5 6 
#
# 1 78.7122 15.7014 3.5397 0.0000 0.0000 0.0000
# 2 15.7014 50.8063 13.7495 0.0000 0.0000 0.0000
# 3 3.5397 13.7495 113.1621 0.0000 0.0000 0.0000
# 4 0.0000 0.0000 0.0000 15.3589 0.0000 0.0000
# 5 0.0000 0.0000 0.0000 0.0000 48.8507 0.0000
# 6 0.0000 0.0000 0.0000 0.0000 0.0000 27.9745
#
#
#
# Elastic Compliance Matrix: (Units=1/GPa)
#
#
# Indices 1 2 3 4 5 6 
#
# 1 0.013540 -0.004208 0.000088 0.000000 0.000000 0.000000
# 2 -0.004208 0.021660 -0.002500 0.000000 0.000000 0.000000
# 3 0.000088 -0.002500 0.009138 0.000000 0.000000 0.000000
# 4 0.000000 0.000000 0.000000 0.065109 0.000000 0.000000
# 5 0.000000 0.000000 0.000000 0.000000 0.020471 0.000000
# 6 0.000000 0.000000 0.000000 0.000000 0.000000 0.035747
#
#
# Mechanical properties :
#
#
# Convention : Reuss Voigt Hill
#
# Bulk Modulus (GPa) = 32.15786 34.29575 33.22680
# Shear Modulus (GPa) = 26.41724 32.41616 29.41670
#
# Velocity S-wave (km/s) = 3.31043 3.66708 3.49331
# Velocity P-wave (km/s) = 5.28699 5.67074 5.48222
#
# Compressibility (1/GPa) = 0.03109660
#
# Stress axis : x y z
#
# Youngs Moduli (GPa) = 73.85522 46.16868 109.43434
#
# Poissons Ratio (x) = 0.19429 -0.00961
# Poissons Ratio (y) = 0.31080 0.27359
# Poissons Ratio (z) = -0.00648 0.11543
#
# Static dielectric constant tensor:
#      x y z
#    x 2.046590 0.000000 0.000000 
#    y 0.000000 1.897640 0.000000 
#    z 0.000000 0.000000 1.908490 
# 
# From -- ./inp_files/9584.got.cif
#   From: 2010.05.17/outbox.cif.g08.bks.cpg/sg60_5_cif.got.tgz:9584.got - 2010.06.03 14:59:27.
