data_PCOD9455344
_publ_section_title
;
Structure prediction by ZEFSAII (Michael W. Deem and Ramdas Pophale) SiO2 
 PCOD9455344
Probable space group: P B C N
;
_chemical_formula_sum "Si O2"
_cell_formula_units_Z 32
_cell_length_a 6.991743
_cell_length_b 13.869603
_cell_length_c 13.743501
_cell_angle_alpha 90.000000
_cell_angle_beta 90.000000
_cell_angle_gamma 90.000000
_cell_volume 1332.744395
_symmetry_space_group_name_H-M "P B C N"
_symmetry_group_IT_number 60
_symmetry_cell_setting 'orthorhombic'
loop_
_space_group_symop_operation_xyz
x,y,z
1/2-x,1/2-y,1/2+z
1/2+x,1/2-y,-z
-x,y,1/2-z
-x,-y,-z
1/2+x,1/2+y,1/2-z
1/2-x,1/2+y,z
x,-y,1/2+z
loop_
_atom_site_type_symbol
_atom_site_label
_atom_site_fract_x
_atom_site_fract_y
_atom_site_fract_z
Si Si1 0.145993 0.710123 0.381016
Si Si2 0.208009 0.841605 0.565268
Si Si3 0.672280 0.811177 0.302810
Si Si4 0.213090 0.453033 0.016819
O O1 0.188305 0.789155 0.463053
O O2 0.197146 0.764985 0.281446
O O3 0.245988 0.611400 0.420429
O O4 0.921943 0.680202 0.393114
O O5 0.083273 0.781620 0.641719
O O6 0.170444 0.952597 0.546866
O O7 0.500000 0.866313 0.250000
O O8 0.735868 0.880117 0.391265
O O9 0.000000 0.500000 0.000000
#
# Coordination Sequence:
#
# PCOD9455344 Si02
#       4
#     8   8   8   8
#     4  10  20  38  60  86 118 152 195 249 297 354
#     4  10  21  39  61  85 115 157 198 243 298 357
#     4  11  22  37  58  87 118 154 198 245 294 353
#     4   9  20  38  61  84 113 159 199 231 293 372
#
# _framework density 24.010605000000002
#
# number of rings (size 3 to 8) (size 9 to 14) (size 15 to 20)
#    0.000    2.000    0.000    5.250    0.000    6.000 
#    0.000   16.250    0.000    3.000    0.000    0.000 
#    0.000    0.000    0.000    0.000    0.000    0.000 
#
# Total GULP energy -178336.743912 kJ/mol
# GULP energy per Si atom -5573.023247 kJ/mol
# Density = 2.395596 g / cm^3
# Si number density = 24.010605 Si / 1000 Ang^3
#
#
#
# Elastic Constant Matrix: (Units=GPa)
#
#
# Indices 1 2 3 4 5 6 
#
# 1 65.0722 13.6320 20.3688 0.0000 0.0000 0.0000
# 2 13.6320 166.5832 44.8434 0.0000 0.0000 0.0000
# 3 20.3688 44.8434 146.3548 0.0000 0.0000 0.0000
# 4 0.0000 0.0000 0.0000 17.2350 0.0000 0.0000
# 5 0.0000 0.0000 0.0000 0.0000 43.7755 0.0000
# 6 0.0000 0.0000 0.0000 0.0000 0.0000 27.7741
#
#
#
# Elastic Compliance Matrix: (Units=1/GPa)
#
#
# Indices 1 2 3 4 5 6 
#
# 1 0.016160 -0.000781 -0.002010 0.000000 0.000000 0.000000
# 2 -0.000781 0.006580 -0.001908 0.000000 0.000000 0.000000
# 3 -0.002010 -0.001908 0.007697 0.000000 0.000000 0.000000
# 4 0.000000 0.000000 0.000000 0.058022 0.000000 0.000000
# 5 0.000000 0.000000 0.000000 0.000000 0.022844 0.000000
# 6 0.000000 0.000000 0.000000 0.000000 0.000000 0.036005
#
#
# Mechanical properties :
#
#
# Convention : Reuss Voigt Hill
#
# Bulk Modulus (GPa) = 47.52764 59.52206 53.52485
# Shear Modulus (GPa) = 30.54024 37.70133 34.12078
#
# Velocity S-wave (km/s) = 3.57031 3.96687 3.77380
# Velocity P-wave (km/s) = 6.06906 6.76942 6.42879
#
# Compressibility (1/GPa) = 0.02104039
#
# Stress axis : x y z
#
# Youngs Moduli (GPa) = 61.88003 151.96544 129.92300
#
# Poissons Ratio (x) = 0.11875 0.26110
# Poissons Ratio (y) = 0.04836 0.24783
# Poissons Ratio (z) = 0.12436 0.28987
#
# Static dielectric constant tensor:
#      x y z
#    x 2.287750 0.000000 0.000000 
#    y 0.000000 1.906070 0.000000 
#    z 0.000000 0.000000 1.936890 
# 
# From -- ./inp_files/9496.got.cif
#   From: 2010.05.17/outbox.cif.g08.bks.cpg/sg60_5_cif.got.tgz:9496.got - 2010.06.03 14:59:27.
