data_PCOD9455172
_publ_section_title
;
Structure prediction by ZEFSAII (Michael W. Deem and Ramdas Pophale) SiO2 
 PCOD9455172
Probable space group: P B C N
;
_chemical_formula_sum "Si O2"
_cell_formula_units_Z 56
_cell_length_a 30.930210
_cell_length_b 15.467605
_cell_length_c 5.313240
_cell_angle_alpha 90.000000
_cell_angle_beta 90.000000
_cell_angle_gamma 90.000000
_cell_volume 2541.940467
_symmetry_space_group_name_H-M "P B C N"
_symmetry_group_IT_number 60
_symmetry_cell_setting 'orthorhombic'
loop_
_space_group_symop_operation_xyz
x,y,z
1/2-x,1/2-y,1/2+z
1/2+x,1/2-y,-z
-x,y,1/2-z
-x,-y,-z
1/2+x,1/2+y,1/2-z
1/2-x,1/2+y,z
x,-y,1/2+z
loop_
_atom_site_type_symbol
_atom_site_label
_atom_site_fract_x
_atom_site_fract_y
_atom_site_fract_z
Si Si1 0.690175 0.472543 0.932075
Si Si2 0.686991 0.954172 0.822781
Si Si3 0.591314 0.110745 0.318133
Si Si4 0.000000 0.276070 0.250000
Si Si5 0.811391 0.786254 0.762403
Si Si6 0.092367 0.276902 0.183051
Si Si7 0.000000 0.604503 0.250000
Si Si8 0.252764 0.132273 0.554197
O O1 0.666129 0.492005 0.672971
O O2 0.698793 0.370290 0.938029
O O3 0.732346 0.536101 0.890291
O O4 0.636568 0.935688 0.783978
O O5 0.718243 0.883854 0.698790
O O6 0.693157 0.032557 0.620372
O O7 0.591876 0.149205 0.599948
O O8 0.546642 0.058871 0.266891
O O9 0.591830 0.184153 0.099220
O O10 0.046455 0.229157 0.231771
O O11 0.000188 0.336059 0.499905
O O12 0.862227 0.770549 0.776708
O O13 0.791833 0.817674 0.499088
O O14 0.784069 0.699930 0.811029
#
# Coordination Sequence:
#
# PCOD9455172 Si02
#       8
#     8   8   8   4   8   8   4   8
#     4  10  22  41  57  83 120 158 201 248 302 351
#     4  12  25  40  58  80 119 164 205 252 306 364
#     4  10  20  38  56  87 114 154 201 258 304 370
#     4   8  16  32  56  87 118 149 184 260 314 364
#     4  11  23  38  64  92 119 167 210 254 302 374
#     4  10  20  36  61  90 119 150 206 254 313 365
#     4   8  16  32  58  77 116 149 188 252 318 352
#     4  11  24  39  60  87 125 161 210 253 308 356
#
# _framework density 22.030411999999998
#
# number of rings (size 3 to 8) (size 9 to 14) (size 15 to 20)
#    0.000    1.714    1.429    3.429    2.000    2.286 
#    0.000    0.714    0.000    0.000    0.000    4.000 
#    0.000    0.000    0.000    0.000    0.000    0.143 
#
# Total GULP energy -311757.272980 kJ/mol
# GULP energy per Si atom -5567.094160 kJ/mol
# Density = 2.198027 g / cm^3
# Si number density = 22.030412 Si / 1000 Ang^3
#
#
#
# Elastic Constant Matrix: (Units=GPa)
#
#
# Indices 1 2 3 4 5 6 
#
# 1 125.3082 28.5669 -7.8776 0.0000 0.0000 0.0000
# 2 28.5669 86.6318 15.2167 0.0000 0.0000 0.0000
# 3 -7.8776 15.2167 85.3833 0.0000 0.0000 0.0000
# 4 0.0000 0.0000 0.0000 36.4755 0.0000 0.0000
# 5 0.0000 0.0000 0.0000 0.0000 20.8588 0.0000
# 6 0.0000 0.0000 0.0000 0.0000 0.0000 8.7420
#
#
#
# Elastic Compliance Matrix: (Units=1/GPa)
#
#
# Indices 1 2 3 4 5 6 
#
# 1 0.008781 -0.003136 0.001369 0.000000 0.000000 0.000000
# 2 -0.003136 0.013036 -0.002613 0.000000 0.000000 0.000000
# 3 0.001369 -0.002613 0.012304 0.000000 0.000000 0.000000
# 4 0.000000 0.000000 0.000000 0.027416 0.000000 0.000000
# 5 0.000000 0.000000 0.000000 0.000000 0.047941 0.000000
# 6 0.000000 0.000000 0.000000 0.000000 0.000000 0.114391
#
#
# Mechanical properties :
#
#
# Convention : Reuss Voigt Hill
#
# Bulk Modulus (GPa) = 39.42904 41.01504 40.22204
# Shear Modulus (GPa) = 20.73981 30.64309 25.69145
#
# Velocity S-wave (km/s) = 3.07158 3.73358 3.41864
# Velocity P-wave (km/s) = 5.52412 6.10279 5.82065
#
# Compressibility (1/GPa) = 0.02536202
#
# Stress axis : x y z
#
# Youngs Moduli (GPa) = 113.87779 76.70985 81.27566
#
# Poissons Ratio (x) = 0.24057 -0.11127
# Poissons Ratio (y) = 0.35714 0.21234
# Poissons Ratio (z) = -0.15591 0.20041
#
# Static dielectric constant tensor:
#      x y z
#    x 1.861620 0.000000 0.000000 
#    y 0.000000 1.894630 0.000000 
#    z 0.000000 0.000000 1.940180 
# 
# From -- ./inp_files/2703.got.cif
#   From: 2010.05.17/outbox.cif.g08.bks.cpg/sg60_2_cif.got.tgz:2703.got - 2010.06.03 14:59:27.
