data_PCOD9455884
_publ_section_title
;
Structure prediction by ZEFSAII (Michael W. Deem and Ramdas Pophale) SiO2 
 PCOD9455884
Probable space group: P B C N
;
_chemical_formula_sum "Si O2"
_cell_formula_units_Z 48
_cell_length_a 9.470578
_cell_length_b 18.993305
_cell_length_c 13.452526
_cell_angle_alpha 90.000000
_cell_angle_beta 90.000000
_cell_angle_gamma 90.000000
_cell_volume 2419.807774
_symmetry_space_group_name_H-M "P B C N"
_symmetry_group_IT_number 60
_symmetry_cell_setting 'orthorhombic'
loop_
_space_group_symop_operation_xyz
x,y,z
1/2-x,1/2-y,1/2+z
1/2+x,1/2-y,-z
-x,y,1/2-z
-x,-y,-z
1/2+x,1/2+y,1/2-z
1/2-x,1/2+y,z
x,-y,1/2+z
loop_
_atom_site_type_symbol
_atom_site_label
_atom_site_fract_x
_atom_site_fract_y
_atom_site_fract_z
Si Si1 0.345944 0.667329 0.515621
Si Si2 0.599810 0.093491 0.570544
Si Si3 0.500000 0.156418 0.250000
Si Si4 0.662420 0.698247 0.549103
Si Si5 0.000000 0.693182 0.750000
Si Si6 0.195480 0.222411 0.719284
Si Si7 0.349827 0.066144 0.413599
O O1 0.508704 0.688883 0.501406
O O2 0.240588 0.729577 0.480319
O O3 0.324508 0.663842 0.634814
O O4 0.293627 0.598421 0.458285
O O5 0.731381 0.135073 0.523579
O O6 0.543167 0.142669 0.659072
O O7 0.471901 0.081489 0.494851
O O8 0.651170 0.016908 0.605910
O O9 0.396254 0.209475 0.191010
O O10 0.401059 0.109221 0.318175
O O11 0.649428 0.699593 0.669955
O O12 0.138310 0.737811 0.725224
#
# Coordination Sequence:
#
# PCOD9455884 Si02
#       7
#     8   8   4   8   4   8   8
#     4  12  21  39  62  91 121 161 203 258 309 362
#     4  10  22  41  58  91 118 168 204 247 304 376
#     4  12  21  40  58  96 121 162 198 260 313 358
#     4  11  23  37  61  90 122 157 207 254 304 359
#     4  10  21  36  62  90 119 156 208 250 295 374
#     4  11  21  35  60  90 120 154 199 253 307 357
#     4  11  23  39  63  84 127 163 202 250 312 365
#
# _framework density 19.836286000000001
#
# number of rings (size 3 to 8) (size 9 to 14) (size 15 to 20)
#    0.000    1.000    5.000    2.500    2.333    0.667 
#    0.000    0.000    0.000    0.000    0.000    0.000 
#    0.000    0.000    0.000    0.000    0.000    0.000 
#
# Total GULP energy -268146.239343 kJ/mol
# GULP energy per Si atom -5586.379986 kJ/mol
# Density = 1.979114 g / cm^3
# Si number density = 19.836286 Si / 1000 Ang^3
#
#
#
# Elastic Constant Matrix: (Units=GPa)
#
#
# Indices 1 2 3 4 5 6 
#
# 1 130.6789 23.4187 0.9804 0.0000 0.0000 0.0000
# 2 23.4187 70.4281 -1.2093 0.0000 0.0000 0.0000
# 3 0.9804 -1.2093 59.5773 0.0000 0.0000 0.0000
# 4 0.0000 0.0000 0.0000 18.8439 0.0000 0.0000
# 5 0.0000 0.0000 0.0000 0.0000 23.4683 0.0000
# 6 0.0000 0.0000 0.0000 0.0000 0.0000 24.4616
#
#
#
# Elastic Compliance Matrix: (Units=1/GPa)
#
#
# Indices 1 2 3 4 5 6 
#
# 1 0.008139 -0.002710 -0.000189 0.000000 0.000000 0.000000
# 2 -0.002710 0.015106 0.000351 0.000000 0.000000 0.000000
# 3 -0.000189 0.000351 0.016795 0.000000 0.000000 0.000000
# 4 0.000000 0.000000 0.000000 0.053068 0.000000 0.000000
# 5 0.000000 0.000000 0.000000 0.000000 0.042611 0.000000
# 6 0.000000 0.000000 0.000000 0.000000 0.000000 0.040880
#
#
# Mechanical properties :
#
#
# Convention : Reuss Voigt Hill
#
# Bulk Modulus (GPa) = 28.61596 34.11820 31.36708
# Shear Modulus (GPa) = 25.86080 29.18771 27.52426
#
# Velocity S-wave (km/s) = 3.61461 3.84008 3.72905
# Velocity P-wave (km/s) = 5.64606 6.07445 5.86416
#
# Compressibility (1/GPa) = 0.03494553
#
# Stress axis : x y z
#
# Youngs Moduli (GPa) = 122.85966 66.19906 59.54097
#
# Poissons Ratio (x) = 0.17938 0.01125
# Poissons Ratio (y) = 0.33292 -0.02091
# Poissons Ratio (z) = 0.02321 -0.02325
#
# Static dielectric constant tensor:
#      x y z
#    x 1.728240 0.000000 0.000000 
#    y 0.000000 1.685370 0.000000 
#    z 0.000000 0.000000 1.753400 
# 
# From -- ./inp_files/15084.got.cif
#   From: 2010.05.17/outbox.cif.g08.bks.cpg/sg60_8_cif.got.tgz:15084.got - 2010.06.03 14:59:27.
