data_PCOD9455804
_publ_section_title
;
Structure prediction by ZEFSAII (Michael W. Deem and Ramdas Pophale) SiO2 
 PCOD9455804
Probable space group: P B C N
;
_chemical_formula_sum "Si O2"
_cell_formula_units_Z 32
_cell_length_a 14.062682
_cell_length_b 10.765019
_cell_length_c 8.230075
_cell_angle_alpha 90.000000
_cell_angle_beta 90.000000
_cell_angle_gamma 90.000000
_cell_volume 1245.910224
_symmetry_space_group_name_H-M "P B C N"
_symmetry_group_IT_number 60
_symmetry_cell_setting 'orthorhombic'
loop_
_space_group_symop_operation_xyz
x,y,z
1/2-x,1/2-y,1/2+z
1/2+x,1/2-y,-z
-x,y,1/2-z
-x,-y,-z
1/2+x,1/2+y,1/2-z
1/2-x,1/2+y,z
x,-y,1/2+z
loop_
_atom_site_type_symbol
_atom_site_label
_atom_site_fract_x
_atom_site_fract_y
_atom_site_fract_z
Si Si1 0.602674 0.846382 0.396215
Si Si2 0.898537 0.089778 0.200443
Si Si3 0.692435 0.064272 0.220398
Si Si4 0.932210 0.743840 0.405790
O O1 0.614074 0.712579 0.312960
O O2 0.672817 0.877657 0.544493
O O3 0.499287 0.841100 0.479281
O O4 0.623336 0.951956 0.265475
O O5 0.800806 0.017614 0.224334
O O6 0.000000 0.034949 0.250000
O O7 0.907598 0.138342 0.016124
O O8 0.661210 0.171091 0.347458
O O9 0.000000 0.765999 0.250000
#
# Coordination Sequence:
#
# PCOD9455804 Si02
#       4
#     8   8   8   8
#     4  10  21  34  56  86 117 150 191 241 290 343
#     4  10  21  38  58  84 115 152 194 238 287 346
#     4  11  20  35  58  86 117 153 191 239 292 345
#     4   9  19  35  57  86 116 147 190 242 292 340
#
# _framework density 25.684034
#
# number of rings (size 3 to 8) (size 9 to 14) (size 15 to 20)
#    0.000    2.000    0.000    3.750    0.000    7.000 
#    0.000    3.750    0.000    4.500    0.000    0.000 
#    0.000    0.000    0.000    0.000    0.000    0.000 
#
# Total GULP energy -179239.482423 kJ/mol
# GULP energy per Si atom -5601.233826 kJ/mol
# Density = 2.562558 g / cm^3
# Si number density = 25.684034 Si / 1000 Ang^3
#
#
#
# Elastic Constant Matrix: (Units=GPa)
#
#
# Indices 1 2 3 4 5 6 
#
# 1 177.3552 17.1580 66.0815 0.0000 0.0000 0.0000
# 2 17.1580 66.6759 33.3199 0.0000 0.0000 0.0000
# 3 66.0815 33.3199 125.4535 0.0000 0.0000 0.0000
# 4 0.0000 0.0000 0.0000 16.8818 0.0000 0.0000
# 5 0.0000 0.0000 0.0000 0.0000 22.9806 0.0000
# 6 0.0000 0.0000 0.0000 0.0000 0.0000 15.1235
#
#
#
# Elastic Compliance Matrix: (Units=1/GPa)
#
#
# Indices 1 2 3 4 5 6 
#
# 1 0.007015 0.000048 -0.003708 0.000000 0.000000 0.000000
# 2 0.000048 0.017294 -0.004618 0.000000 0.000000 0.000000
# 3 -0.003708 -0.004618 0.011151 0.000000 0.000000 0.000000
# 4 0.000000 0.000000 0.000000 0.059235 0.000000 0.000000
# 5 0.000000 0.000000 0.000000 0.000000 0.043515 0.000000
# 6 0.000000 0.000000 0.000000 0.000000 0.000000 0.066122
#
#
# Mechanical properties :
#
#
# Convention : Reuss Voigt Hill
#
# Bulk Modulus (GPa) = 52.90243 66.95595 59.92919
# Shear Modulus (GPa) = 22.00802 27.85886 24.93344
#
# Velocity S-wave (km/s) = 2.93042 3.29702 3.11911
# Velocity P-wave (km/s) = 5.66497 6.37334 6.02957
#
# Compressibility (1/GPa) = 0.01890272
#
# Stress axis : x y z
#
# Youngs Moduli (GPa) = 142.54467 57.82513 89.67984
#
# Poissons Ratio (x) = -0.00276 0.33253
# Poissons Ratio (y) = -0.00680 0.41416
# Poissons Ratio (z) = 0.52855 0.26705
#
# Static dielectric constant tensor:
#      x y z
#    x 1.980000 0.000000 0.000000 
#    y 0.000000 2.002850 0.000000 
#    z 0.000000 0.000000 2.021300 
# 
# From -- ./inp_files/4515.got.cif
#   From: 2010.05.17/outbox.cif.g08.bks.cpg/sg60_3_cif.got.tgz:4515.got - 2010.06.03 14:59:27.
