data_PCOD9455542
_publ_section_title
;
Structure prediction by ZEFSAII (Michael W. Deem and Ramdas Pophale) SiO2 
 PCOD9455542
Probable space group: P B C N
;
_chemical_formula_sum "Si O2"
_cell_formula_units_Z 48
_cell_length_a 5.213602
_cell_length_b 13.318258
_cell_length_c 28.186952
_cell_angle_alpha 90.000000
_cell_angle_beta 90.000000
_cell_angle_gamma 90.000000
_cell_volume 1957.191920
_symmetry_space_group_name_H-M "P B C N"
_symmetry_group_IT_number 60
_symmetry_cell_setting 'orthorhombic'
loop_
_space_group_symop_operation_xyz
x,y,z
1/2-x,1/2-y,1/2+z
1/2+x,1/2-y,-z
-x,y,1/2-z
-x,-y,-z
1/2+x,1/2+y,1/2-z
1/2-x,1/2+y,z
x,-y,1/2+z
loop_
_atom_site_type_symbol
_atom_site_label
_atom_site_fract_x
_atom_site_fract_y
_atom_site_fract_z
Si Si1 0.081103 0.687292 0.494295
Si Si2 0.409360 0.628852 0.409575
Si Si3 0.000000 0.764302 0.750000
Si Si4 0.451882 0.934552 0.846222
Si Si5 0.741730 0.443140 0.418671
Si Si6 0.227354 0.728368 0.647018
Si Si7 0.000000 0.596691 0.250000
O O1 0.287604 0.777462 0.503368
O O2 0.166443 0.649732 0.442617
O O3 0.152587 0.606407 0.533852
O O4 0.569794 0.539057 0.432169
O O5 0.535939 0.733495 0.394874
O O6 0.342031 0.584948 0.357695
O O7 0.914719 0.713494 0.801487
O O8 0.748575 0.833632 0.741379
O O9 0.588836 0.825391 0.847493
O O10 0.524190 0.973025 0.795301
O O11 0.537486 0.009781 0.886394
O O12 0.628012 0.362121 0.380645
#
# Coordination Sequence:
#
# PCOD9455542 Si02
#       7
#     8   8   4   8   8   8   4
#     4  12  27  46  73  99 139 185 225 280 345 411
#     4  11  23  43  69  98 137 180 225 284 345 403
#     4  10  20  39  72  95 132 184 224 273 338 405
#     4  10  23  40  70  95 138 177 227 281 343 406
#     4  11  25  42  66 103 134 178 232 283 337 412
#     4  10  21  43  65  98 135 180 225 283 340 404
#     4  10  20  41  68  99 134 182 220 273 346 395
#
# _framework density 24.524930000000001
#
# number of rings (size 3 to 8) (size 9 to 14) (size 15 to 20)
#    0.000    1.333    3.333    1.500    4.667    2.667 
#    0.000    0.000    0.000    0.000    0.000    0.000 
#    0.000    0.000    0.000    0.000    0.000    0.000 
#
# Total GULP energy -267705.608987 kJ/mol
# GULP energy per Si atom -5577.200187 kJ/mol
# Density = 2.446911 g / cm^3
# Si number density = 24.524930 Si / 1000 Ang^3
#
#
#
# Elastic Constant Matrix: (Units=GPa)
#
#
# Indices 1 2 3 4 5 6 
#
# 1 47.9493 9.3812 5.5209 0.0000 0.0000 0.0000
# 2 9.3812 80.2307 36.8505 0.0000 0.0000 0.0000
# 3 5.5209 36.8505 153.3426 0.0000 0.0000 0.0000
# 4 0.0000 0.0000 0.0000 19.7174 0.0000 0.0000
# 5 0.0000 0.0000 0.0000 0.0000 35.9375 0.0000
# 6 0.0000 0.0000 0.0000 0.0000 0.0000 8.6387
#
#
#
# Elastic Compliance Matrix: (Units=1/GPa)
#
#
# Indices 1 2 3 4 5 6 
#
# 1 0.021349 -0.002409 -0.000190 0.000000 0.000000 0.000000
# 2 -0.002409 0.014282 -0.003346 0.000000 0.000000 0.000000
# 3 -0.000190 -0.003346 0.007332 0.000000 0.000000 0.000000
# 4 0.000000 0.000000 0.000000 0.050717 0.000000 0.000000
# 5 0.000000 0.000000 0.000000 0.000000 0.027826 0.000000
# 6 0.000000 0.000000 0.000000 0.000000 0.000000 0.115759
#
#
# Mechanical properties :
#
#
# Convention : Reuss Voigt Hill
#
# Bulk Modulus (GPa) = 32.18080 42.78086 37.48083
# Shear Modulus (GPa) = 19.26700 28.17673 23.72186
#
# Velocity S-wave (km/s) = 2.80591 3.39322 3.11345
# Velocity P-wave (km/s) = 4.86289 5.73006 5.31419
#
# Compressibility (1/GPa) = 0.03107443
#
# Stress axis : x y z
#
# Youngs Moduli (GPa) = 46.84164 70.01638 136.38552
#
# Poissons Ratio (x) = 0.16868 0.02587
# Poissons Ratio (y) = 0.11285 0.45628
# Poissons Ratio (z) = 0.00888 0.23424
#
# Static dielectric constant tensor:
#      x y z
#    x 1.972340 0.000000 0.000000 
#    y 0.000000 2.034050 0.000000 
#    z 0.000000 0.000000 2.095410 
# 
# From -- ./inp_files/24906.got.cif
#   From: 2010.05.17/outbox.cif.g08.bks.cpg/sg60_13_cif.got.tgz:24906.got - 2010.06.03 14:59:27.
