data_PCOD9455511
_publ_section_title
;
Structure prediction by ZEFSAII (Michael W. Deem and Ramdas Pophale) SiO2 
 PCOD9455511
Probable space group: P B C N
;
_chemical_formula_sum "Si O2"
_cell_formula_units_Z 60
_cell_length_a 9.018537
_cell_length_b 21.220036
_cell_length_c 14.245797
_cell_angle_alpha 90.000000
_cell_angle_beta 90.000000
_cell_angle_gamma 90.000000
_cell_volume 2726.270594
_symmetry_space_group_name_H-M "P B C N"
_symmetry_group_IT_number 60
_symmetry_cell_setting 'orthorhombic'
loop_
_space_group_symop_operation_xyz
x,y,z
1/2-x,1/2-y,1/2+z
1/2+x,1/2-y,-z
-x,y,1/2-z
-x,-y,-z
1/2+x,1/2+y,1/2-z
1/2-x,1/2+y,z
x,-y,1/2+z
loop_
_atom_site_type_symbol
_atom_site_label
_atom_site_fract_x
_atom_site_fract_y
_atom_site_fract_z
Si Si1 0.562297 0.853750 0.980832
Si Si2 0.713212 0.823231 0.158136
Si Si3 0.741085 0.396891 0.457280
Si Si4 0.500000 0.727825 0.250000
Si Si5 0.063244 0.971069 0.901351
Si Si6 0.661968 0.364636 0.874127
Si Si7 0.495236 0.707079 0.949384
Si Si8 0.335549 0.568568 0.740232
O O1 0.664675 0.876584 0.894405
O O2 0.538330 0.779074 0.966391
O O3 0.671177 0.863589 0.067806
O O4 0.409796 0.882243 0.018066
O O5 0.586199 0.772821 0.178008
O O6 0.872675 0.793985 0.133185
O O7 0.723078 0.875311 0.237760
O O8 0.682680 0.423998 0.555486
O O9 0.642636 0.334719 0.433948
O O10 0.704878 0.443526 0.368915
O O11 0.372361 0.683007 0.209578
O O12 0.931589 0.928200 0.859679
O O13 0.140992 0.015787 0.822677
O O14 0.000000 0.000000 0.000000
O O15 0.585780 0.326543 0.961770
O O16 0.500000 0.597513 0.750000
#
# Coordination Sequence:
#
# PCOD9455511 Si02
#       8
#     8   8   8   4   8   8   8   8
#     4  11  22  41  67 101 143 180 228 290 370 439
#     4  11  23  39  64  99 141 173 242 292 355 426
#     4  11  23  41  73 102 138 188 239 300 364 426
#     4  12  24  40  66 108 146 180 226 308 372 442
#     4  11  23  45  70  96 136 190 254 293 352 439
#     4  10  24  40  66  99 139 186 229 286 372 436
#     4  10  20  39  64  98 137 186 223 276 362 454
#     4  12  23  42  70 103 129 190 250 304 348 436
#
# _framework density 22.008085999999999
#
# number of rings (size 3 to 8) (size 9 to 14) (size 15 to 20)
#    0.000    1.067    4.000    4.000    4.667    0.000 
#    0.000    2.667    2.933    0.000    0.000    0.000 
#    0.000    0.000    0.000    0.000    0.000    0.000 
#
# Total GULP energy -334256.920649 kJ/mol
# GULP energy per Si atom -5570.948677 kJ/mol
# Density = 2.195800 g / cm^3
# Si number density = 22.008086 Si / 1000 Ang^3
#
#
#
# Elastic Constant Matrix: (Units=GPa)
#
#
# Indices 1 2 3 4 5 6 
#
# 1 115.4072 21.5288 32.6962 0.0000 0.0000 0.0000
# 2 21.5288 71.4051 27.1953 0.0000 0.0000 0.0000
# 3 32.6962 27.1953 68.0652 0.0000 0.0000 0.0000
# 4 0.0000 0.0000 0.0000 35.5226 0.0000 0.0000
# 5 0.0000 0.0000 0.0000 0.0000 37.0450 0.0000
# 6 0.0000 0.0000 0.0000 0.0000 0.0000 33.1246
#
#
#
# Elastic Compliance Matrix: (Units=1/GPa)
#
#
# Indices 1 2 3 4 5 6 
#
# 1 0.010150 -0.001419 -0.004309 0.000000 0.000000 0.000000
# 2 -0.001419 0.016717 -0.005997 0.000000 0.000000 0.000000
# 3 -0.004309 -0.005997 0.019158 0.000000 0.000000 0.000000
# 4 0.000000 0.000000 0.000000 0.028151 0.000000 0.000000
# 5 0.000000 0.000000 0.000000 0.000000 0.026994 0.000000
# 6 0.000000 0.000000 0.000000 0.000000 0.000000 0.030189
#
#
# Mechanical properties :
#
#
# Convention : Reuss Voigt Hill
#
# Bulk Modulus (GPa) = 44.29876 46.41312 45.35594
# Shear Modulus (GPa) = 30.80051 32.70225 31.75138
#
# Velocity S-wave (km/s) = 3.74506 3.85894 3.80243
# Velocity P-wave (km/s) = 6.23480 6.40236 6.31913
#
# Compressibility (1/GPa) = 0.02257400
#
# Stress axis : x y z
#
# Youngs Moduli (GPa) = 98.51736 59.82055 52.19800
#
# Poissons Ratio (x) = 0.08490 0.22491
# Poissons Ratio (y) = 0.13983 0.31305
# Poissons Ratio (z) = 0.42450 0.35876
#
# Static dielectric constant tensor:
#      x y z
#    x 1.809660 0.000000 0.000000 
#    y 0.000000 1.835560 0.000000 
#    z 0.000000 0.000000 2.034100 
# 
# From -- ./inp_files/15364.got.cif
#   From: 2010.05.17/outbox.cif.g08.bks.cpg/sg60_8_cif.got.tgz:15364.got - 2010.06.03 14:59:27.
