data_PCOD9455229
_publ_section_title
;
Structure prediction by ZEFSAII (Michael W. Deem and Ramdas Pophale) SiO2 
 PCOD9455229
Probable space group: P B C N
;
_chemical_formula_sum "Si O2"
_cell_formula_units_Z 56
_cell_length_a 11.802979
_cell_length_b 9.896423
_cell_length_c 21.926833
_cell_angle_alpha 90.000000
_cell_angle_beta 90.000000
_cell_angle_gamma 90.000000
_cell_volume 2561.213565
_symmetry_space_group_name_H-M "P B C N"
_symmetry_group_IT_number 60
_symmetry_cell_setting 'orthorhombic'
loop_
_space_group_symop_operation_xyz
x,y,z
1/2-x,1/2-y,1/2+z
1/2+x,1/2-y,-z
-x,y,1/2-z
-x,-y,-z
1/2+x,1/2+y,1/2-z
1/2-x,1/2+y,z
x,-y,1/2+z
loop_
_atom_site_type_symbol
_atom_site_label
_atom_site_fract_x
_atom_site_fract_y
_atom_site_fract_z
Si Si1 0.139905 0.540704 0.705778
Si Si2 0.046332 0.194626 0.629546
Si Si3 0.612634 0.438956 0.945665
Si Si4 0.588737 0.080259 0.162651
Si Si5 0.984550 0.701968 0.501390
Si Si6 0.182725 0.509238 0.465585
Si Si7 0.777895 0.192363 0.335683
O O1 0.128634 0.483176 0.773913
O O2 0.251085 0.459508 0.684451
O O3 0.144596 0.702573 0.700928
O O4 0.036106 0.492445 0.661926
O O5 0.157618 0.232369 0.666230
O O6 0.938917 0.258310 0.664797
O O7 0.047562 0.287525 0.569056
O O8 0.057025 0.046247 0.601082
O O9 0.517217 0.350541 0.977850
O O10 0.678205 0.328782 0.903997
O O11 0.701903 0.497767 0.995505
O O12 0.671907 0.055662 0.105131
O O13 0.095490 0.606251 0.502512
O O14 0.879145 0.636289 0.535208
#
# Coordination Sequence:
#
# PCOD9455229 Si02
#       7
#     8   8   8   8   8   8   8
#     4  10  21  40  66  86 120 173 224 272 318 391
#     4  10  20  37  58  92 123 165 206 270 318 397
#     4  12  21  34  64  98 130 165 223 267 335 400
#     4   9  21  42  63  82 127 173 215 257 341 385
#     4  10  21  36  56  88 133 166 204 268 329 389
#     4  10  21  37  60  90 127 172 210 263 343 403
#     4  11  20  36  65  93 119 160 226 268 316 393
#
# _framework density 21.864633999999999
#
# number of rings (size 3 to 8) (size 9 to 14) (size 15 to 20)
#    0.000    1.714    2.857    2.143    2.000    0.000 
#    5.143    0.000    9.429    0.000    0.000    0.000 
#    0.000    0.000    0.000    0.000    0.000    0.000 
#
# Total GULP energy -311836.915806 kJ/mol
# GULP energy per Si atom -5568.516354 kJ/mol
# Density = 2.181487 g / cm^3
# Si number density = 21.864634 Si / 1000 Ang^3
#
#
#
# Elastic Constant Matrix: (Units=GPa)
#
#
# Indices 1 2 3 4 5 6 
#
# 1 51.6862 30.3356 22.6840 0.0000 0.0000 0.0000
# 2 30.3356 81.7855 14.9197 0.0000 0.0000 0.0000
# 3 22.6840 14.9197 85.6568 0.0000 0.0000 0.0000
# 4 0.0000 0.0000 0.0000 31.7182 0.0000 0.0000
# 5 0.0000 0.0000 0.0000 0.0000 26.8594 0.0000
# 6 0.0000 0.0000 0.0000 0.0000 0.0000 19.7457
#
#
#
# Elastic Compliance Matrix: (Units=1/GPa)
#
#
# Indices 1 2 3 4 5 6 
#
# 1 0.027109 -0.009033 -0.005606 0.000000 0.000000 0.000000
# 2 -0.009033 0.015638 -0.000332 0.000000 0.000000 0.000000
# 3 -0.005606 -0.000332 0.013217 0.000000 0.000000 0.000000
# 4 0.000000 0.000000 0.000000 0.031528 0.000000 0.000000
# 5 0.000000 0.000000 0.000000 0.000000 0.037231 0.000000
# 6 0.000000 0.000000 0.000000 0.000000 0.000000 0.050644
#
#
# Mechanical properties :
#
#
# Convention : Reuss Voigt Hill
#
# Bulk Modulus (GPa) = 38.42676 39.44524 38.93600
# Shear Modulus (GPa) = 23.36648 25.74393 24.55521
#
# Velocity S-wave (km/s) = 3.27263 3.43508 3.35484
# Velocity P-wave (km/s) = 5.64740 5.81488 5.73175
#
# Compressibility (1/GPa) = 0.02602353
#
# Stress axis : x y z
#
# Youngs Moduli (GPa) = 36.88776 63.94683 75.66093
#
# Poissons Ratio (x) = 0.57761 0.42415
# Poissons Ratio (y) = 0.33319 0.02510
# Poissons Ratio (z) = 0.20679 0.02121
#
# Static dielectric constant tensor:
#      x y z
#    x 1.897120 0.000000 0.000000 
#    y 0.000000 1.865710 0.000000 
#    z 0.000000 0.000000 1.826730 
# 
# From -- ./inp_files/22934.got.cif
#   From: 2010.05.17/outbox.cif.g08.bks.cpg/sg60_12_cif.got.tgz:22934.got - 2010.06.03 14:59:27.
