data_PCOD9455581
_publ_section_title
;
Structure prediction by ZEFSAII (Michael W. Deem and Ramdas Pophale) SiO2 
 PCOD9455581
Probable space group: P B C N
;
_chemical_formula_sum "Si O2"
_cell_formula_units_Z 44
_cell_length_a 8.837199
_cell_length_b 15.559752
_cell_length_c 14.197797
_cell_angle_alpha 90.000000
_cell_angle_beta 90.000000
_cell_angle_gamma 90.000000
_cell_volume 1952.262750
_symmetry_space_group_name_H-M "P B C N"
_symmetry_group_IT_number 60
_symmetry_cell_setting 'orthorhombic'
loop_
_space_group_symop_operation_xyz
x,y,z
1/2-x,1/2-y,1/2+z
1/2+x,1/2-y,-z
-x,y,1/2-z
-x,-y,-z
1/2+x,1/2+y,1/2-z
1/2-x,1/2+y,z
x,-y,1/2+z
loop_
_atom_site_type_symbol
_atom_site_label
_atom_site_fract_x
_atom_site_fract_y
_atom_site_fract_z
Si Si1 0.935647 0.602144 0.647231
Si Si2 0.500000 0.593752 0.250000
Si Si3 0.862892 0.981658 0.083981
Si Si4 0.229573 0.786203 0.838008
Si Si5 0.007340 0.176292 0.650572
Si Si6 0.760310 0.617713 0.963890
O O1 0.804020 0.533704 0.627445
O O2 0.864061 0.697768 0.651411
O O3 0.000000 0.583354 0.750000
O O4 0.069996 0.601682 0.570606
O O5 0.466096 0.536302 0.342908
O O6 0.352998 0.657127 0.257757
O O7 0.923149 0.884241 0.075393
O O8 0.827205 0.028424 0.985600
O O9 0.404039 0.757914 0.828278
O O10 0.235000 0.835404 0.937129
O O11 0.177618 0.176482 0.614729
O O12 0.000000 0.127809 0.750000
#
# Coordination Sequence:
#
# PCOD9455581 Si02
#       6
#     8   4   8   8   8   8
#     4  11  22  40  66  96 132 179 224 275 340 409
#     4  10  20  40  64  92 132 168 218 288 326 392
#     4  10  22  39  64  94 129 174 221 268 338 398
#     4  10  22  39  64  95 129 174 221 273 339 397
#     4  11  22  40  64  94 124 171 222 266 338 402
#     4  11  22  39  64  91 135 167 222 280 332 397
#
# _framework density 22.537949999999999
#
# number of rings (size 3 to 8) (size 9 to 14) (size 15 to 20)
#    0.000    1.455    1.818    4.364    0.000    0.000 
#    0.000    3.636    8.000    0.000    0.000    0.000 
#    0.000    0.000    0.000    0.000    0.000    0.000 
#
# Total GULP energy -245191.569673 kJ/mol
# GULP energy per Si atom -5572.535674 kJ/mol
# Density = 2.248665 g / cm^3
# Si number density = 22.537950 Si / 1000 Ang^3
#
#
#
# Elastic Constant Matrix: (Units=GPa)
#
#
# Indices 1 2 3 4 5 6 
#
# 1 109.9289 35.1906 64.9205 0.0000 0.0000 0.0000
# 2 35.1906 62.2805 25.2428 0.0000 0.0000 0.0000
# 3 64.9205 25.2428 89.3599 0.0000 0.0000 0.0000
# 4 0.0000 0.0000 0.0000 31.4021 0.0000 0.0000
# 5 0.0000 0.0000 0.0000 0.0000 54.8128 0.0000
# 6 0.0000 0.0000 0.0000 0.0000 0.0000 33.4951
#
#
#
# Elastic Compliance Matrix: (Units=1/GPa)
#
#
# Indices 1 2 3 4 5 6 
#
# 1 0.017357 -0.005304 -0.011112 0.000000 0.000000 0.000000
# 2 -0.005304 0.019753 -0.001727 0.000000 0.000000 0.000000
# 3 -0.011112 -0.001727 0.019751 0.000000 0.000000 0.000000
# 4 0.000000 0.000000 0.000000 0.031845 0.000000 0.000000
# 5 0.000000 0.000000 0.000000 0.000000 0.018244 0.000000
# 6 0.000000 0.000000 0.000000 0.000000 0.000000 0.029855
#
#
# Mechanical properties :
#
#
# Convention : Reuss Voigt Hill
#
# Bulk Modulus (GPa) = 48.59823 56.91967 52.75895
# Shear Modulus (GPa) = 27.78584 33.02302 30.40443
#
# Velocity S-wave (km/s) = 3.51500 3.83197 3.67690
# Velocity P-wave (km/s) = 6.17117 6.69989 6.44096
#
# Compressibility (1/GPa) = 0.02057688
#
# Stress axis : x y z
#
# Youngs Moduli (GPa) = 57.61468 50.62527 50.62998
#
# Poissons Ratio (x) = 0.26849 0.56258
# Poissons Ratio (y) = 0.30556 0.08743
# Poissons Ratio (z) = 0.64019 0.08742
#
# Static dielectric constant tensor:
#      x y z
#    x 1.918080 0.000000 0.000000 
#    y 0.000000 1.938340 0.000000 
#    z 0.000000 0.000000 1.917020 
# 
# From -- ./inp_files/14908.got.cif
#   From: 2010.05.17/outbox.cif.g08.bks.cpg/sg60_8_cif.got.tgz:14908.got - 2010.06.03 14:59:27.
