data_PCOD9455223
_publ_section_title
;
Structure prediction by ZEFSAII (Michael W. Deem and Ramdas Pophale) SiO2 
 PCOD9455223
Probable space group: P B C N
;
_chemical_formula_sum "Si O2"
_cell_formula_units_Z 56
_cell_length_a 10.703303
_cell_length_b 16.778608
_cell_length_c 14.278037
_cell_angle_alpha 90.000000
_cell_angle_beta 90.000000
_cell_angle_gamma 90.000000
_cell_volume 2564.143054
_symmetry_space_group_name_H-M "P B C N"
_symmetry_group_IT_number 60
_symmetry_cell_setting 'orthorhombic'
loop_
_space_group_symop_operation_xyz
x,y,z
1/2-x,1/2-y,1/2+z
1/2+x,1/2-y,-z
-x,y,1/2-z
-x,-y,-z
1/2+x,1/2+y,1/2-z
1/2-x,1/2+y,z
x,-y,1/2+z
loop_
_atom_site_type_symbol
_atom_site_label
_atom_site_fract_x
_atom_site_fract_y
_atom_site_fract_z
Si Si1 0.705061 0.401961 0.239232
Si Si2 0.114048 0.027755 0.936262
Si Si3 0.132999 0.553500 0.232002
Si Si4 0.297751 0.859947 0.553977
Si Si5 0.590633 0.797649 0.128089
Si Si6 0.257627 0.359551 0.893762
Si Si7 0.305657 0.195918 0.602814
O O1 0.598229 0.422393 0.161672
O O2 0.759815 0.487471 0.267871
O O3 0.812224 0.354956 0.180865
O O4 0.702384 0.350288 0.334421
O O5 0.180132 0.944965 0.910821
O O6 0.203955 0.082174 0.999372
O O7 0.000000 0.000000 0.000000
O O8 0.128879 0.591687 0.130783
O O9 0.161030 0.620955 0.310163
O O10 0.000000 0.513721 0.250000
O O11 0.389341 0.818493 0.480891
O O12 0.221678 0.789512 0.603078
O O13 0.642592 0.707519 0.138838
O O14 0.444844 0.813160 0.145234
O O15 0.201827 0.331826 0.994076
#
# Coordination Sequence:
#
# PCOD9455223 Si02
#       7
#     8   8   8   8   8   8   8
#     4  10  22  36  58  86 112 148 201 245 299 369
#     4  10  21  41  61  85 120 154 193 250 304 361
#     4  11  21  37  56  82 116 151 191 248 298 351
#     4  10  22  36  59  87 116 157 205 242 300 373
#     4  10  20  37  58  84 115 155 196 251 308 356
#     4  10  22  36  57  85 116 154 203 242 295 370
#     4  11  20  37  58  83 117 153 195 252 301 356
#
# _framework density 21.839655
#
# number of rings (size 3 to 8) (size 9 to 14) (size 15 to 20)
#    0.000    1.714    0.000    4.714    0.000    0.000 
#    0.000   17.857    0.000    0.000    0.000    0.000 
#    0.000    0.000    0.000    0.000    0.000    0.000 
#
# Total GULP energy -312515.531413 kJ/mol
# GULP energy per Si atom -5580.634490 kJ/mol
# Density = 2.178995 g / cm^3
# Si number density = 21.839655 Si / 1000 Ang^3
#
#
#
# Elastic Constant Matrix: (Units=GPa)
#
#
# Indices 1 2 3 4 5 6 
#
# 1 48.9172 3.0599 3.3095 0.0000 0.0000 0.0000
# 2 3.0599 97.9861 10.6826 0.0000 0.0000 0.0000
# 3 3.3095 10.6826 75.9510 0.0000 0.0000 0.0000
# 4 0.0000 0.0000 0.0000 24.7467 0.0000 0.0000
# 5 0.0000 0.0000 0.0000 0.0000 18.7241 0.0000
# 6 0.0000 0.0000 0.0000 0.0000 0.0000 14.1928
#
#
#
# Elastic Compliance Matrix: (Units=1/GPa)
#
#
# Indices 1 2 3 4 5 6 
#
# 1 0.020533 -0.000552 -0.000817 0.000000 0.000000 0.000000
# 2 -0.000552 0.010379 -0.001436 0.000000 0.000000 0.000000
# 3 -0.000817 -0.001436 0.013404 0.000000 0.000000 0.000000
# 4 0.000000 0.000000 0.000000 0.040409 0.000000 0.000000
# 5 0.000000 0.000000 0.000000 0.000000 0.053407 0.000000
# 6 0.000000 0.000000 0.000000 0.000000 0.000000 0.070458
#
#
# Mechanical properties :
#
#
# Convention : Reuss Voigt Hill
#
# Bulk Modulus (GPa) = 25.83588 28.55091 27.19339
# Shear Modulus (GPa) = 22.01651 25.25288 23.63469
#
# Velocity S-wave (km/s) = 3.17850 3.40411 3.29324
# Velocity P-wave (km/s) = 5.03249 5.34340 5.19028
#
# Compressibility (1/GPa) = 0.03870587
#
# Stress axis : x y z
#
# Youngs Moduli (GPa) = 48.70327 96.34552 74.60495
#
# Poissons Ratio (x) = 0.05319 0.06095
# Poissons Ratio (y) = 0.02689 0.10712
# Poissons Ratio (z) = 0.03979 0.13833
#
# Static dielectric constant tensor:
#      x y z
#    x 1.846790 0.000000 0.000000 
#    y 0.000000 1.754460 0.000000 
#    z 0.000000 0.000000 1.863630 
# 
# From -- ./inp_files/16138.got.cif
#   From: 2010.05.17/outbox.cif.g08.bks.cpg/sg60_9_cif.got.tgz:16138.got - 2010.06.03 14:59:27.
