data_PCOD9455100
_publ_section_title
;
Structure prediction by ZEFSAII (Michael W. Deem and Ramdas Pophale) SiO2 
 PCOD9455100
Probable space group: P B C N
;
_chemical_formula_sum "Si O2"
_cell_formula_units_Z 24
_cell_length_a 9.733758
_cell_length_b 14.289926
_cell_length_c 6.141817
_cell_angle_alpha 90.000000
_cell_angle_beta 90.000000
_cell_angle_gamma 90.000000
_cell_volume 854.294080
_symmetry_space_group_name_H-M "P B C N"
_symmetry_group_IT_number 60
_symmetry_cell_setting 'orthorhombic'
loop_
_space_group_symop_operation_xyz
x,y,z
1/2-x,1/2-y,1/2+z
1/2+x,1/2-y,-z
-x,y,1/2-z
-x,-y,-z
1/2+x,1/2+y,1/2-z
1/2-x,1/2+y,z
x,-y,1/2+z
loop_
_atom_site_type_symbol
_atom_site_label
_atom_site_fract_x
_atom_site_fract_y
_atom_site_fract_z
Si Si1 0.145166 0.372107 0.371420
Si Si2 0.727563 0.663086 0.046304
Si Si3 0.000000 0.395051 0.750000
Si Si4 0.500000 0.455856 0.750000
O O1 0.175420 0.268856 0.464168
O O2 0.104374 0.440647 0.571604
O O3 0.000000 0.370343 0.250000
O O4 0.265599 0.384870 0.194151
O O5 0.885598 0.663119 0.121338
O O6 0.633417 0.610039 0.219638
O O7 0.500000 0.500000 0.500000
#
# Coordination Sequence:
#
# PCOD9455100 Si02
#       4
#     8   8   4   4
#     4  10  20  35  67 109 141 179 220 321 394 436
#     4  11  22  41  71 105 147 182 248 302 384 453
#     4  10  22  37  64 108 139 178 228 306 402 434
#     4  12  32  51  74 102 149 216 254 290 352 460
#
# _framework density 28.09337
#
# number of rings (size 3 to 8) (size 9 to 14) (size 15 to 20)
#    0.000    1.333    5.000    0.000    4.667    1.333 
#    0.000    1.667    0.000    0.000    0.000    0.000 
#    0.000    0.000    0.000    0.000    0.000    0.000 
#
# Total GULP energy -133630.136986 kJ/mol
# GULP energy per Si atom -5567.922374 kJ/mol
# Density = 2.802943 g / cm^3
# Si number density = 28.093370 Si / 1000 Ang^3
#
#
#
# Elastic Constant Matrix: (Units=GPa)
#
#
# Indices 1 2 3 4 5 6 
#
# 1 144.7309 39.1584 62.3491 0.0000 0.0000 0.0000
# 2 39.1584 128.4717 47.2252 0.0000 0.0000 0.0000
# 3 62.3491 47.2252 215.5145 0.0000 0.0000 0.0000
# 4 0.0000 0.0000 0.0000 12.2614 0.0000 0.0000
# 5 0.0000 0.0000 0.0000 0.0000 93.3187 0.0000
# 6 0.0000 0.0000 0.0000 0.0000 0.0000 51.4918
#
#
#
# Elastic Compliance Matrix: (Units=1/GPa)
#
#
# Indices 1 2 3 4 5 6 
#
# 1 0.008252 -0.001781 -0.001997 0.000000 0.000000 0.000000
# 2 -0.001781 0.008850 -0.001424 0.000000 0.000000 0.000000
# 3 -0.001997 -0.001424 0.005530 0.000000 0.000000 0.000000
# 4 0.000000 0.000000 0.000000 0.081557 0.000000 0.000000
# 5 0.000000 0.000000 0.000000 0.000000 0.010716 0.000000
# 6 0.000000 0.000000 0.000000 0.000000 0.000000 0.019421
#
#
# Mechanical properties :
#
#
# Convention : Reuss Voigt Hill
#
# Bulk Modulus (GPa) = 81.78296 87.35360 84.56828
# Shear Modulus (GPa) = 33.60107 54.08001 43.84054
#
# Velocity S-wave (km/s) = 3.46215 4.39225 3.95464
# Velocity P-wave (km/s) = 6.71984 7.54215 7.14284
#
# Compressibility (1/GPa) = 0.01222749
#
# Stress axis : x y z
#
# Youngs Moduli (GPa) = 121.19001 112.99243 180.83759
#
# Poissons Ratio (x) = 0.20124 0.36112
# Poissons Ratio (y) = 0.21584 0.25752
# Poissons Ratio (z) = 0.24201 0.16091
#
# Static dielectric constant tensor:
#      x y z
#    x 2.107460 0.000000 0.000000 
#    y 0.000000 2.104650 0.000000 
#    z 0.000000 0.000000 2.574870 
# 
# From -- ./inp_files/537.got.cif
#   From: 2010.05.17/outbox.cif.g08.bks.cpg/sg60_1_cif.got.tgz:537.got - 2010.06.03 14:59:27.
