data_PCOD9455067
_publ_section_title
;
Structure prediction by ZEFSAII (Michael W. Deem and Ramdas Pophale) SiO2 
 PCOD9455067
Probable space group: P B C N
;
_chemical_formula_sum "Si O2"
_cell_formula_units_Z 48
_cell_length_a 9.357770
_cell_length_b 28.008235
_cell_length_c 8.656928
_cell_angle_alpha 90.000000
_cell_angle_beta 90.000000
_cell_angle_gamma 90.000000
_cell_volume 2268.934265
_symmetry_space_group_name_H-M "P B C N"
_symmetry_group_IT_number 60
_symmetry_cell_setting 'orthorhombic'
loop_
_space_group_symop_operation_xyz
x,y,z
1/2-x,1/2-y,1/2+z
1/2+x,1/2-y,-z
-x,y,1/2-z
-x,-y,-z
1/2+x,1/2+y,1/2-z
1/2-x,1/2+y,z
x,-y,1/2+z
loop_
_atom_site_type_symbol
_atom_site_label
_atom_site_fract_x
_atom_site_fract_y
_atom_site_fract_z
Si Si1 0.159989 0.999765 0.803450
Si Si2 0.872500 0.898088 0.124980
Si Si3 0.874578 0.363096 0.347223
Si Si4 0.131324 0.536606 0.530502
Si Si5 0.698251 0.277090 0.382385
Si Si6 0.610045 0.702194 0.525551
O O1 0.000000 0.986724 0.750000
O O2 0.137520 0.046310 0.916030
O O3 0.268311 0.018240 0.670786
O O4 0.253481 0.961201 0.892674
O O5 0.732312 0.884456 0.219843
O O6 0.894599 0.855179 0.005955
O O7 0.000000 0.894838 0.250000
O O8 0.925552 0.410164 0.437265
O O9 0.791596 0.322431 0.438714
O O10 0.000000 0.339317 0.250000
O O11 0.000000 0.500000 0.500000
O O12 0.549711 0.277457 0.473474
O O13 0.786434 0.229373 0.410338
O O14 0.665262 0.286987 0.201429
#
# Coordination Sequence:
#
# PCOD9455067 Si02
#       6
#     8   8   8   8   8   8
#     4  10  21  36  62  88 114 157 206 246 298 355
#     4   9  16  35  57  80 110 149 194 238 277 343
#     4  10  20  35  59  85 112 159 201 232 286 366
#     4  11  21  38  59  90 123 156 201 252 300 351
#     4  10  22  37  61  86 118 151 197 240 293 349
#     4  10  20  38  58  90 117 151 193 247 287 350
#
# _framework density 21.155308000000002
#
# number of rings (size 3 to 8) (size 9 to 14) (size 15 to 20)
#    0.000    2.000    3.333    3.000    4.667    0.000 
#    0.000    1.667    3.667    0.000    0.000    0.000 
#    0.000    0.000    0.000    0.000    0.000    0.000 
#
# Total GULP energy -267624.842396 kJ/mol
# GULP energy per Si atom -5575.517550 kJ/mol
# Density = 2.110716 g / cm^3
# Si number density = 21.155308 Si / 1000 Ang^3
#
#
#
# Elastic Constant Matrix: (Units=GPa)
#
#
# Indices 1 2 3 4 5 6 
#
# 1 124.3250 37.7628 9.5665 0.0000 0.0000 0.0000
# 2 37.7628 80.9726 7.1806 0.0000 0.0000 0.0000
# 3 9.5665 7.1806 20.0441 0.0000 0.0000 0.0000
# 4 0.0000 0.0000 0.0000 22.6348 0.0000 0.0000
# 5 0.0000 0.0000 0.0000 0.0000 26.0153 0.0000
# 6 0.0000 0.0000 0.0000 0.0000 0.0000 39.2083
#
#
#
# Elastic Compliance Matrix: (Units=1/GPa)
#
#
# Indices 1 2 3 4 5 6 
#
# 1 0.009549 -0.004182 -0.003059 0.000000 0.000000 0.000000
# 2 -0.004182 0.014587 -0.003230 0.000000 0.000000 0.000000
# 3 -0.003059 -0.003230 0.052507 0.000000 0.000000 0.000000
# 4 0.000000 0.000000 0.000000 0.044180 0.000000 0.000000
# 5 0.000000 0.000000 0.000000 0.000000 0.038439 0.000000
# 6 0.000000 0.000000 0.000000 0.000000 0.000000 0.025505
#
#
# Mechanical properties :
#
#
# Convention : Reuss Voigt Hill
#
# Bulk Modulus (GPa) = 17.95303 37.15126 27.55215
# Shear Modulus (GPa) = 22.29407 28.96049 25.62728
#
# Velocity S-wave (km/s) = 3.24979 3.70394 3.48428
# Velocity P-wave (km/s) = 4.75250 5.99096 5.40730
#
# Compressibility (1/GPa) = 0.05570089
#
# Stress axis : x y z
#
# Youngs Moduli (GPa) = 104.72181 68.55600 19.04509
#
# Poissons Ratio (x) = 0.28671 0.05827
# Poissons Ratio (y) = 0.43795 0.06151
# Poissons Ratio (z) = 0.32038 0.22140
#
# Static dielectric constant tensor:
#      x y z
#    x 1.734230 0.000000 0.000000 
#    y 0.000000 1.818090 0.000000 
#    z 0.000000 0.000000 1.748500 
# 
# From -- ./inp_files/4175.got.cif
#   From: 2010.05.17/outbox.cif.g08.bks.cpg/sg60_3_cif.got.tgz:4175.got - 2010.06.03 14:59:27.
