data_PCOD9455342
_publ_section_title
;
Structure prediction by ZEFSAII (Michael W. Deem and Ramdas Pophale) SiO2 
 PCOD9455342
Probable space group: P B C N
;
_chemical_formula_sum "Si O2"
_cell_formula_units_Z 64
_cell_length_a 23.031645
_cell_length_b 16.209808
_cell_length_c 8.432623
_cell_angle_alpha 90.000000
_cell_angle_beta 90.000000
_cell_angle_gamma 90.000000
_cell_volume 3148.223188
_symmetry_space_group_name_H-M "P B C N"
_symmetry_group_IT_number 60
_symmetry_cell_setting 'orthorhombic'
loop_
_space_group_symop_operation_xyz
x,y,z
1/2-x,1/2-y,1/2+z
1/2+x,1/2-y,-z
-x,y,1/2-z
-x,-y,-z
1/2+x,1/2+y,1/2-z
1/2-x,1/2+y,z
x,-y,1/2+z
loop_
_atom_site_type_symbol
_atom_site_label
_atom_site_fract_x
_atom_site_fract_y
_atom_site_fract_z
Si Si1 0.713165 0.124600 0.580222
Si Si2 0.252617 0.987638 0.133848
Si Si3 0.983582 0.683205 0.564197
Si Si4 0.202929 0.113438 0.341418
Si Si5 0.896635 0.376589 0.516618
Si Si6 0.803657 0.257864 0.657747
Si Si7 0.128922 0.234857 0.513814
Si Si8 0.434808 0.974625 0.293924
O O1 0.718231 0.070061 0.737076
O O2 0.772619 0.178978 0.578131
O O3 0.661118 0.188328 0.571397
O O4 0.707240 0.058425 0.440242
O O5 0.200975 0.041335 0.212596
O O6 0.230826 0.931013 0.993346
O O7 0.938745 0.746478 0.489203
O O8 0.951056 0.594141 0.573491
O O9 0.000000 0.701388 0.750000
O O10 0.043374 0.674058 0.470969
O O11 0.249250 0.184154 0.292499
O O12 0.145728 0.157214 0.405311
O O13 0.843847 0.313905 0.543710
O O14 0.897100 0.449595 0.645451
O O15 0.905693 0.424850 0.350519
O O16 0.840796 0.232096 0.812809
O O17 0.500000 0.004906 0.250000
#
# Coordination Sequence:
#
# PCOD9455342 Si02
#       8
#     8   8   8   8   8   8   8   8
#     4  10  22  40  57  87 118 149 195 239 297 352
#     4  10  20  38  60  84 117 150 195 236 292 367
#     4   9  21  39  55  84 112 162 202 243 287 337
#     4  10  22  38  58  87 118 152 190 242 297 350
#     4  10  22  35  55  78 115 156 197 234 277 339
#     4  11  23  36  57  89 119 156 190 242 302 336
#     4  11  22  39  59  85 122 151 199 246 287 351
#     4   9  19  36  50  78 111 158 196 233 268 323
#
# _framework density 20.328925999999999
#
# number of rings (size 3 to 8) (size 9 to 14) (size 15 to 20)
#    0.000    2.250    2.500    1.500    3.500    7.000 
#    0.000    0.000    0.000    0.000    0.000    9.625 
#    0.000    0.000    0.000    0.000    0.000    0.000 
#
# Total GULP energy -357467.849160 kJ/mol
# GULP energy per Si atom -5585.435143 kJ/mol
# Density = 2.028266 g / cm^3
# Si number density = 20.328926 Si / 1000 Ang^3
#
#
#
# Elastic Constant Matrix: (Units=GPa)
#
#
# Indices 1 2 3 4 5 6 
#
# 1 103.5520 32.4579 14.8525 0.0000 0.0000 0.0000
# 2 32.4579 58.7154 20.7674 0.0000 0.0000 0.0000
# 3 14.8525 20.7674 57.8667 0.0000 0.0000 0.0000
# 4 0.0000 0.0000 0.0000 28.2988 0.0000 0.0000
# 5 0.0000 0.0000 0.0000 0.0000 23.9139 0.0000
# 6 0.0000 0.0000 0.0000 0.0000 0.0000 21.2911
#
#
#
# Elastic Compliance Matrix: (Units=1/GPa)
#
#
# Indices 1 2 3 4 5 6 
#
# 1 0.011712 -0.006198 -0.000782 0.000000 0.000000 0.000000
# 2 -0.006198 0.022787 -0.006587 0.000000 0.000000 0.000000
# 3 -0.000782 -0.006587 0.019846 0.000000 0.000000 0.000000
# 4 0.000000 0.000000 0.000000 0.035337 0.000000 0.000000
# 5 0.000000 0.000000 0.000000 0.000000 0.041817 0.000000
# 6 0.000000 0.000000 0.000000 0.000000 0.000000 0.046968
#
#
# Mechanical properties :
#
#
# Convention : Reuss Voigt Hill
#
# Bulk Modulus (GPa) = 36.74935 39.58777 38.16856
# Shear Modulus (GPa) = 23.29147 24.83783 24.06465
#
# Velocity S-wave (km/s) = 3.38854 3.49921 3.44432
# Velocity P-wave (km/s) = 5.78154 5.98681 5.88507
#
# Compressibility (1/GPa) = 0.02721137
#
# Stress axis : x y z
#
# Youngs Moduli (GPa) = 85.38415 43.88401 50.38847
#
# Poissons Ratio (x) = 0.27198 0.03939
# Poissons Ratio (y) = 0.52919 0.33192
# Poissons Ratio (z) = 0.06675 0.28907
#
# Static dielectric constant tensor:
#      x y z
#    x 1.733220 0.000000 0.000000 
#    y 0.000000 1.726880 0.000000 
#    z 0.000000 0.000000 1.808920 
# 
# From -- ./inp_files/7578.got.cif
#   From: 2010.05.17/outbox.cif.g08.bks.cpg/sg60_4_cif.got.tgz:7578.got - 2010.06.03 14:59:27.
