data_PCOD9455772
_publ_section_title
;
Structure prediction by ZEFSAII (Michael W. Deem and Ramdas Pophale) SiO2 
 PCOD9455772
Probable space group: P B C N
;
_chemical_formula_sum "Si O2"
_cell_formula_units_Z 40
_cell_length_a 16.640588
_cell_length_b 13.786566
_cell_length_c 8.556953
_cell_angle_alpha 90.000000
_cell_angle_beta 90.000000
_cell_angle_gamma 90.000000
_cell_volume 1963.106762
_symmetry_space_group_name_H-M "P B C N"
_symmetry_group_IT_number 60
_symmetry_cell_setting 'orthorhombic'
loop_
_space_group_symop_operation_xyz
x,y,z
1/2-x,1/2-y,1/2+z
1/2+x,1/2-y,-z
-x,y,1/2-z
-x,-y,-z
1/2+x,1/2+y,1/2-z
1/2-x,1/2+y,z
x,-y,1/2+z
loop_
_atom_site_type_symbol
_atom_site_label
_atom_site_fract_x
_atom_site_fract_y
_atom_site_fract_z
Si Si1 0.500000 0.946521 0.250000
Si Si2 0.400550 0.902396 0.955993
Si Si3 0.500000 0.502060 0.250000
Si Si4 0.885717 0.067588 0.494505
Si Si5 0.721594 0.379761 0.483347
Si Si6 0.192527 0.767757 0.336915
O O1 0.455368 0.889514 0.110170
O O2 0.437909 0.016122 0.343984
O O3 0.311012 0.926653 0.019375
O O4 0.382678 0.806095 0.854072
O O5 0.545609 0.434725 0.126490
O O6 0.566595 0.567524 0.333565
O O7 0.823772 0.152452 0.529663
O O8 0.841034 0.964720 0.506069
O O9 0.731496 0.299472 0.619141
O O10 0.702561 0.323043 0.324307
#
# Coordination Sequence:
#
# PCOD9455772 Si02
#       6
#     4   8   4   8   8   8
#     4  10  20  48  66 102 128 170 214 276 342 370
#     4   9  24  40  69  97 130 170 215 269 327 392
#     4  10  24  38  64  94 126 180 194 268 328 380
#     4  11  22  43  67  92 135 165 221 262 325 388
#     4  10  24  42  66  95 124 175 218 265 315 384
#     4  10  24  42  65  99 124 173 221 263 321 382
#
# _framework density 20.375865000000001
#
# number of rings (size 3 to 8) (size 9 to 14) (size 15 to 20)
#    1.200    0.800    2.000    0.000    5.600    3.200 
#    3.600    0.000    0.000    0.000    0.000    0.000 
#    0.000    0.000    0.000    0.000    0.000    0.000 
#
# Total GULP energy -222851.614060 kJ/mol
# GULP energy per Si atom -5571.290352 kJ/mol
# Density = 2.032949 g / cm^3
# Si number density = 20.375865 Si / 1000 Ang^3
#
#
#
# Elastic Constant Matrix: (Units=GPa)
#
#
# Indices 1 2 3 4 5 6 
#
# 1 79.4145 34.0516 28.9762 0.0000 0.0000 0.0000
# 2 34.0516 68.1230 0.5857 0.0000 0.0000 0.0000
# 3 28.9762 0.5857 44.4817 0.0000 0.0000 0.0000
# 4 0.0000 0.0000 0.0000 20.9327 0.0000 0.0000
# 5 0.0000 0.0000 0.0000 0.0000 43.5085 0.0000
# 6 0.0000 0.0000 0.0000 0.0000 0.0000 4.9868
#
#
#
# Elastic Compliance Matrix: (Units=1/GPa)
#
#
# Indices 1 2 3 4 5 6 
#
# 1 0.022781 -0.011261 -0.014692 0.000000 0.000000 0.000000
# 2 -0.011261 0.020247 0.007069 0.000000 0.000000 0.000000
# 3 -0.014692 0.007069 0.031959 0.000000 0.000000 0.000000
# 4 0.000000 0.000000 0.000000 0.047772 0.000000 0.000000
# 5 0.000000 0.000000 0.000000 0.000000 0.022984 0.000000
# 6 0.000000 0.000000 0.000000 0.000000 0.000000 0.200528
#
#
# Mechanical properties :
#
#
# Convention : Reuss Voigt Hill
#
# Bulk Modulus (GPa) = 26.86756 35.47180 31.16968
# Shear Modulus (GPa) = 12.61205 22.44598 17.52901
#
# Velocity S-wave (km/s) = 2.49061 3.32263 2.93624
# Velocity P-wave (km/s) = 4.63524 5.67154 5.17937
#
# Compressibility (1/GPa) = 0.03721961
#
# Stress axis : x y z
#
# Youngs Moduli (GPa) = 43.89548 49.38896 31.29041
#
# Poissons Ratio (x) = 0.55617 0.45972
# Poissons Ratio (y) = 0.49431 -0.22119
# Poissons Ratio (z) = 0.64491 -0.34913
#
# Static dielectric constant tensor:
#      x y z
#    x 1.729170 0.000000 0.000000 
#    y 0.000000 1.707930 0.000000 
#    z 0.000000 0.000000 1.727830 
# 
# From -- ./inp_files/7287.got.cif
#   From: 2010.05.17/outbox.cif.g08.bks.cpg/sg60_4_cif.got.tgz:7287.got - 2010.06.03 14:59:27.
