data_PCOD9455310
_publ_section_title
;
Structure prediction by ZEFSAII (Michael W. Deem and Ramdas Pophale) SiO2 
 PCOD9455310
Probable space group: P B C N
;
_chemical_formula_sum "Si O2"
_cell_formula_units_Z 32
_cell_length_a 16.556083
_cell_length_b 5.118754
_cell_length_c 13.408108
_cell_angle_alpha 90.000000
_cell_angle_beta 90.000000
_cell_angle_gamma 90.000000
_cell_volume 1136.290440
_symmetry_space_group_name_H-M "P B C N"
_symmetry_group_IT_number 60
_symmetry_cell_setting 'orthorhombic'
loop_
_space_group_symop_operation_xyz
x,y,z
1/2-x,1/2-y,1/2+z
1/2+x,1/2-y,-z
-x,y,1/2-z
-x,-y,-z
1/2+x,1/2+y,1/2-z
1/2-x,1/2+y,z
x,-y,1/2+z
loop_
_atom_site_type_symbol
_atom_site_label
_atom_site_fract_x
_atom_site_fract_y
_atom_site_fract_z
Si Si1 0.210066 0.332847 0.437278
Si Si2 0.451505 0.532952 0.160647
Si Si3 0.069789 0.307970 0.966653
Si Si4 0.797649 0.700284 0.321996
O O1 0.283158 0.530648 0.408773
O O2 0.134026 0.510579 0.411654
O O3 0.206165 0.318019 0.557678
O O4 0.500000 0.674290 0.250000
O O5 0.386487 0.318689 0.198782
O O6 0.525334 0.402049 0.100699
O O7 0.403781 0.689747 0.074124
O O8 0.000000 0.500000 0.000000
O O9 0.769168 0.413999 0.287137
#
# Coordination Sequence:
#
# PCOD9455310 Si02
#       4
#     8   8   8   8
#     4  10  20  37  67  97 130 177 225 272 336 403
#     4  11  25  43  66  99 136 179 225 286 345 405
#     4  11  23  42  67  97 133 175 230 280 338 411
#     4  10  20  39  66  95 130 178 226 270 333 409
#
# _framework density 28.161815000000001
#
# number of rings (size 3 to 8) (size 9 to 14) (size 15 to 20)
#    0.000    1.500    2.500    4.500    3.500    1.000 
#    0.000    2.500    0.000    0.000    0.000    0.000 
#    0.000    0.000    0.000    0.000    0.000    0.000 
#
# Total GULP energy -179139.367211 kJ/mol
# GULP energy per Si atom -5598.105225 kJ/mol
# Density = 2.809772 g / cm^3
# Si number density = 28.161815 Si / 1000 Ang^3
#
#
#
# Elastic Constant Matrix: (Units=GPa)
#
#
# Indices 1 2 3 4 5 6 
#
# 1 133.5730 24.1626 18.6926 0.0000 0.0000 0.0000
# 2 24.1626 128.9234 14.8158 0.0000 0.0000 0.0000
# 3 18.6926 14.8158 113.4494 0.0000 0.0000 0.0000
# 4 0.0000 0.0000 0.0000 14.6206 0.0000 0.0000
# 5 0.0000 0.0000 0.0000 0.0000 37.7117 0.0000
# 6 0.0000 0.0000 0.0000 0.0000 0.0000 63.6608
#
#
#
# Elastic Compliance Matrix: (Units=1/GPa)
#
#
# Indices 1 2 3 4 5 6 
#
# 1 0.007888 -0.001349 -0.001123 0.000000 0.000000 0.000000
# 2 -0.001349 0.008106 -0.000836 0.000000 0.000000 0.000000
# 3 -0.001123 -0.000836 0.009109 0.000000 0.000000 0.000000
# 4 0.000000 0.000000 0.000000 0.068397 0.000000 0.000000
# 5 0.000000 0.000000 0.000000 0.000000 0.026517 0.000000
# 6 0.000000 0.000000 0.000000 0.000000 0.000000 0.015708
#
#
# Mechanical properties :
#
#
# Convention : Reuss Voigt Hill
#
# Bulk Modulus (GPa) = 54.09975 54.58754 54.34365
# Shear Modulus (GPa) = 33.66925 44.41693 39.04309
#
# Velocity S-wave (km/s) = 3.46144 3.97571 3.72746
# Velocity P-wave (km/s) = 5.93527 6.36401 6.15338
#
# Compressibility (1/GPa) = 0.01848437
#
# Stress axis : x y z
#
# Youngs Moduli (GPa) = 126.77764 123.37291 109.78379
#
# Poissons Ratio (x) = 0.16646 0.12334
# Poissons Ratio (y) = 0.17105 0.09180
# Poissons Ratio (z) = 0.14243 0.10317
#
# Static dielectric constant tensor:
#      x y z
#    x 2.521100 0.000000 0.000000 
#    y 0.000000 2.168520 0.000000 
#    z 0.000000 0.000000 2.309630 
# 
# From -- ./inp_files/17151.got.cif
#   From: 2010.05.17/outbox.cif.g08.bks.cpg/sg60_9_cif.got.tgz:17151.got - 2010.06.03 14:59:27.
