data_PCOD9455300
_publ_section_title
;
Structure prediction by ZEFSAII (Michael W. Deem and Ramdas Pophale) SiO2 
 PCOD9455300
Probable space group: P B C N
;
_chemical_formula_sum "Si O2"
_cell_formula_units_Z 32
_cell_length_a 5.171434
_cell_length_b 15.674772
_cell_length_c 18.010611
_cell_angle_alpha 90.000000
_cell_angle_beta 90.000000
_cell_angle_gamma 90.000000
_cell_volume 1459.959018
_symmetry_space_group_name_H-M "P B C N"
_symmetry_group_IT_number 60
_symmetry_cell_setting 'orthorhombic'
loop_
_space_group_symop_operation_xyz
x,y,z
1/2-x,1/2-y,1/2+z
1/2+x,1/2-y,-z
-x,y,1/2-z
-x,-y,-z
1/2+x,1/2+y,1/2-z
1/2-x,1/2+y,z
x,-y,1/2+z
loop_
_atom_site_type_symbol
_atom_site_label
_atom_site_fract_x
_atom_site_fract_y
_atom_site_fract_z
Si Si1 0.947818 0.660790 0.163039
Si Si2 0.941899 0.133842 0.958953
Si Si3 0.200078 0.507853 0.431325
Si Si4 0.055992 0.244549 0.089131
O O1 0.903835 0.562941 0.137056
O O2 0.704995 0.719632 0.134254
O O3 0.000000 0.667882 0.250000
O O4 0.210430 0.691459 0.124667
O O5 0.682965 0.160201 0.915086
O O6 0.898243 0.073951 0.030430
O O7 0.151379 0.079818 0.913700
O O8 0.036731 0.217249 0.002471
O O9 0.000000 0.500000 0.500000
#
# Coordination Sequence:
#
# PCOD9455300 Si02
#       4
#     8   8   8   8
#     4  11  24  42  65  94 136 188 230 274 355 434
#     4  10  21  36  63 101 128 162 228 295 339 397
#     4  10  20  37  64  99 129 168 230 290 345 398
#     4  11  22  38  66  96 134 176 225 287 350 413
#
# _framework density 21.918422
#
# number of rings (size 3 to 8) (size 9 to 14) (size 15 to 20)
#    0.000    1.500    2.500    3.750    3.500    0.000 
#    0.000    0.000    5.500    0.000    0.000    0.000 
#    0.000    0.000    0.000    0.000    0.000    0.000 
#
# Total GULP energy -178250.048534 kJ/mol
# GULP energy per Si atom -5570.314017 kJ/mol
# Density = 2.186853 g / cm^3
# Si number density = 21.918422 Si / 1000 Ang^3
#
#
#
# Elastic Constant Matrix: (Units=GPa)
#
#
# Indices 1 2 3 4 5 6 
#
# 1 169.0516 61.6027 61.6364 0.0000 0.0000 0.0000
# 2 61.6027 65.6603 45.3828 0.0000 0.0000 0.0000
# 3 61.6364 45.3828 129.6767 0.0000 0.0000 0.0000
# 4 0.0000 0.0000 0.0000 24.4768 0.0000 0.0000
# 5 0.0000 0.0000 0.0000 0.0000 28.8636 0.0000
# 6 0.0000 0.0000 0.0000 0.0000 0.0000 38.6188
#
#
#
# Elastic Compliance Matrix: (Units=1/GPa)
#
#
# Indices 1 2 3 4 5 6 
#
# 1 0.009297 -0.007477 -0.001802 0.000000 0.000000 0.000000
# 2 -0.007477 0.026102 -0.005581 0.000000 0.000000 0.000000
# 3 -0.001802 -0.005581 0.010521 0.000000 0.000000 0.000000
# 4 0.000000 0.000000 0.000000 0.040855 0.000000 0.000000
# 5 0.000000 0.000000 0.000000 0.000000 0.034646 0.000000
# 6 0.000000 0.000000 0.000000 0.000000 0.000000 0.025894
#
#
# Mechanical properties :
#
#
# Convention : Reuss Voigt Hill
#
# Bulk Modulus (GPa) = 61.72816 77.95914 69.84365
# Shear Modulus (GPa) = 27.40687 31.44296 29.42491
#
# Velocity S-wave (km/s) = 3.53994 3.79165 3.66795
# Velocity P-wave (km/s) = 6.70314 7.40364 7.06208
#
# Compressibility (1/GPa) = 0.01620006
#
# Stress axis : x y z
#
# Youngs Moduli (GPa) = 107.56121 38.31097 95.04466
#
# Poissons Ratio (x) = 0.28644 0.17130
# Poissons Ratio (y) = 0.80421 0.53046
# Poissons Ratio (z) = 0.19386 0.21382
#
# Static dielectric constant tensor:
#      x y z
#    x 1.945600 0.000000 0.000000 
#    y 0.000000 2.083140 0.000000 
#    z 0.000000 0.000000 1.776640 
# 
# From -- ./inp_files/18413.got.cif
#   From: 2010.05.17/outbox.cif.g08.bks.cpg/sg60_10_cif.got.tgz:18413.got - 2010.06.03 14:59:27.
