data_PCOD9455927
_publ_section_title
;
Structure prediction by ZEFSAII (Michael W. Deem and Ramdas Pophale) SiO2 
 PCOD9455927
Probable space group: P B C N
;
_chemical_formula_sum "Si O2"
_cell_formula_units_Z 60
_cell_length_a 7.787722
_cell_length_b 12.823254
_cell_length_c 29.620473
_cell_angle_alpha 90.000000
_cell_angle_beta 90.000000
_cell_angle_gamma 90.000000
_cell_volume 2958.017058
_symmetry_space_group_name_H-M "P B C N"
_symmetry_group_IT_number 60
_symmetry_cell_setting 'orthorhombic'
loop_
_space_group_symop_operation_xyz
x,y,z
1/2-x,1/2-y,1/2+z
1/2+x,1/2-y,-z
-x,y,1/2-z
-x,-y,-z
1/2+x,1/2+y,1/2-z
1/2-x,1/2+y,z
x,-y,1/2+z
loop_
_atom_site_type_symbol
_atom_site_label
_atom_site_fract_x
_atom_site_fract_y
_atom_site_fract_z
Si Si1 0.959311 0.051145 0.951647
Si Si2 0.952268 0.519957 0.180013
Si Si3 0.293468 0.227128 0.032754
Si Si4 0.301744 0.374960 0.370663
Si Si5 0.143083 0.254216 0.785408
Si Si6 0.058439 0.675005 0.940768
Si Si7 0.118025 0.460149 0.585999
Si Si8 0.500000 0.155817 0.750000
O O1 0.876351 0.160511 0.964652
O O2 0.098059 0.075838 0.912900
O O3 0.813607 0.984523 0.926474
O O4 0.000000 0.000000 0.000000
O O5 0.786734 0.468093 0.156685
O O6 0.890235 0.622655 0.206339
O O7 0.035569 0.427056 0.209615
O O8 0.078122 0.546618 0.138671
O O9 0.100015 0.247904 0.049559
O O10 0.410231 0.150227 0.062464
O O11 0.310015 0.184884 0.982131
O O12 0.390258 0.303657 0.333159
O O13 0.153645 0.304410 0.393893
O O14 0.333098 0.222691 0.766136
O O15 0.000000 0.217841 0.750000
O O16 0.989237 0.556137 0.935547
#
# Coordination Sequence:
#
# PCOD9455927 Si02
#       8
#     8   8   8   8   8   8   8   4
#     4  11  23  39  61  98 134 179 229 274 327 410
#     4  10  22  45  66  97 135 171 224 287 345 418
#     4  11  21  36  60  90 128 180 223 267 326 386
#     4  10  23  42  63  94 135 170 223 280 341 405
#     4  11  24  46  75 101 132 182 227 285 367 423
#     4  10  21  37  58  87 132 173 221 277 326 390
#     4  10  22  37  60  91 129 176 222 279 333 402
#     4  10  24  48  68 102 142 164 228 298 340 432
#
# _framework density 20.283861000000002
#
# number of rings (size 3 to 8) (size 9 to 14) (size 15 to 20)
#    0.000    1.600    0.667    3.600    1.867    5.333 
#   12.000    0.000    0.000    0.000    0.000    0.000 
#    0.000    0.000    0.000    0.000    0.000    0.000 
#
# Total GULP energy -334702.537310 kJ/mol
# GULP energy per Si atom -5578.375622 kJ/mol
# Density = 2.023769 g / cm^3
# Si number density = 20.283861 Si / 1000 Ang^3
#
#
#
# Elastic Constant Matrix: (Units=GPa)
#
#
# Indices 1 2 3 4 5 6 
#
# 1 67.3396 35.3339 49.2131 0.0000 0.0000 0.0000
# 2 35.3339 94.0107 58.6862 0.0000 0.0000 0.0000
# 3 49.2131 58.6862 133.1462 0.0000 0.0000 0.0000
# 4 0.0000 0.0000 0.0000 34.5715 0.0000 0.0000
# 5 0.0000 0.0000 0.0000 0.0000 36.0360 0.0000
# 6 0.0000 0.0000 0.0000 0.0000 0.0000 4.0158
#
#
#
# Elastic Compliance Matrix: (Units=1/GPa)
#
#
# Indices 1 2 3 4 5 6 
#
# 1 0.021543 -0.004313 -0.006062 0.000000 0.000000 0.000000
# 2 -0.004313 0.015538 -0.005255 0.000000 0.000000 0.000000
# 3 -0.006062 -0.005255 0.012067 0.000000 0.000000 0.000000
# 4 0.000000 0.000000 0.000000 0.028926 0.000000 0.000000
# 5 0.000000 0.000000 0.000000 0.000000 0.027750 0.000000
# 6 0.000000 0.000000 0.000000 0.000000 0.000000 0.249018
#
#
# Mechanical properties :
#
#
# Convention : Reuss Voigt Hill
#
# Bulk Modulus (GPa) = 55.89712 64.55145 60.22429
# Shear Modulus (GPa) = 12.75303 25.00888 18.88095
#
# Velocity S-wave (km/s) = 2.51016 3.51514 3.05427
# Velocity P-wave (km/s) = 6.00154 6.95472 6.49564
#
# Compressibility (1/GPa) = 0.01789001
#
# Stress axis : x y z
#
# Youngs Moduli (GPa) = 46.41834 64.35715 82.87002
#
# Poissons Ratio (x) = 0.27757 0.50234
# Poissons Ratio (y) = 0.20020 0.43545
# Poissons Ratio (z) = 0.28138 0.33817
#
# Static dielectric constant tensor:
#      x y z
#    x 1.781520 0.000000 0.000000 
#    y 0.000000 1.759670 0.000000 
#    z 0.000000 0.000000 1.733570 
# 
# From -- ./inp_files/25228.got.cif
#   From: 2010.05.17/outbox.cif.g08.bks.cpg/sg60_13_cif.got.tgz:25228.got - 2010.06.03 14:59:27.
