data_PCOD9455508
_publ_section_title
;
Structure prediction by ZEFSAII (Michael W. Deem and Ramdas Pophale) SiO2 
 PCOD9455508
Probable space group: P B C N
;
_chemical_formula_sum "Si O2"
_cell_formula_units_Z 60
_cell_length_a 21.628489
_cell_length_b 10.630126
_cell_length_c 12.136210
_cell_angle_alpha 90.000000
_cell_angle_beta 90.000000
_cell_angle_gamma 90.000000
_cell_volume 2790.279286
_symmetry_space_group_name_H-M "P B C N"
_symmetry_group_IT_number 60
_symmetry_cell_setting 'orthorhombic'
loop_
_space_group_symop_operation_xyz
x,y,z
1/2-x,1/2-y,1/2+z
1/2+x,1/2-y,-z
-x,y,1/2-z
-x,-y,-z
1/2+x,1/2+y,1/2-z
1/2-x,1/2+y,z
x,-y,1/2+z
loop_
_atom_site_type_symbol
_atom_site_label
_atom_site_fract_x
_atom_site_fract_y
_atom_site_fract_z
Si Si1 0.000000 0.156875 0.750000
Si Si2 0.463718 0.267490 0.920673
Si Si3 0.823788 0.187134 0.435288
Si Si4 0.398896 0.569673 0.583223
Si Si5 0.181514 0.317461 0.632479
Si Si6 0.581793 0.971814 0.970459
Si Si7 0.887249 0.685043 0.141864
Si Si8 0.921778 0.315945 0.315258
O O1 0.956412 0.076294 0.831643
O O2 0.947839 0.239855 0.686076
O O3 0.534609 0.278404 0.886152
O O4 0.432188 0.213533 0.810691
O O5 0.430668 0.389943 0.967487
O O6 0.457262 0.153486 0.007450
O O7 0.752517 0.181988 0.402031
O O8 0.845278 0.234446 0.556106
O O9 0.853181 0.288653 0.351995
O O10 0.858325 0.054831 0.417039
O O11 0.351336 0.683317 0.610002
O O12 0.149186 0.419127 0.554562
O O13 0.157921 0.348854 0.756224
O O14 0.559773 0.048067 0.862465
O O15 0.587929 0.065692 0.072880
#
# Coordination Sequence:
#
# PCOD9455508 Si02
#       8
#     4   8   8   8   8   8   8   8
#     4  10  22  44  66 102 132 170 224 268 342 394
#     4  10  21  38  61  94 126 166 210 267 329 385
#     4  11  25  42  63  93 130 178 216 268 325 398
#     4  10  23  42  67  93 130 172 218 274 326 392
#     4  10  24  43  63  92 129 170 221 265 324 397
#     4  10  20  39  64  94 125 169 210 271 324 382
#     4  10  23  43  69  95 131 173 216 280 330 387
#     4  10  22  36  60  94 128 162 214 266 322 387
#
# _framework density 21.503223999999999
#
# number of rings (size 3 to 8) (size 9 to 14) (size 15 to 20)
#    0.000    1.867    0.000    2.800    3.733   10.667 
#    4.800    0.000    0.000    0.000    0.000    0.000 
#    0.000    0.000    0.000    0.000    0.000    0.000 
#
# Total GULP energy -335051.444419 kJ/mol
# GULP energy per Si atom -5584.190740 kJ/mol
# Density = 2.145428 g / cm^3
# Si number density = 21.503224 Si / 1000 Ang^3
#
#
#
# Elastic Constant Matrix: (Units=GPa)
#
#
# Indices 1 2 3 4 5 6 
#
# 1 178.2135 37.0123 59.6529 0.0000 0.0000 0.0000
# 2 37.0123 73.6163 15.1548 0.0000 0.0000 0.0000
# 3 59.6529 15.1548 83.5795 0.0000 0.0000 0.0000
# 4 0.0000 0.0000 0.0000 14.0381 0.0000 0.0000
# 5 0.0000 0.0000 0.0000 0.0000 31.5870 0.0000
# 6 0.0000 0.0000 0.0000 0.0000 0.0000 22.4958
#
#
#
# Elastic Compliance Matrix: (Units=1/GPa)
#
#
# Indices 1 2 3 4 5 6 
#
# 1 0.007939 -0.002935 -0.005134 0.000000 0.000000 0.000000
# 2 -0.002935 0.015195 -0.000661 0.000000 0.000000 0.000000
# 3 -0.005134 -0.000661 0.015749 0.000000 0.000000 0.000000
# 4 0.000000 0.000000 0.000000 0.071235 0.000000 0.000000
# 5 0.000000 0.000000 0.000000 0.000000 0.031659 0.000000
# 6 0.000000 0.000000 0.000000 0.000000 0.000000 0.044453
#
#
# Mechanical properties :
#
#
# Convention : Reuss Voigt Hill
#
# Bulk Modulus (GPa) = 46.67611 62.11657 54.39634
# Shear Modulus (GPa) = 23.71568 28.53014 26.12291
#
# Velocity S-wave (km/s) = 3.32458 3.64646 3.48923
# Velocity P-wave (km/s) = 6.04076 6.83218 6.44862
#
# Compressibility (1/GPa) = 0.02142424
#
# Stress axis : x y z
#
# Youngs Moduli (GPa) = 125.95442 65.80910 63.49598
#
# Poissons Ratio (x) = 0.19313 0.32601
# Poissons Ratio (y) = 0.36964 0.04195
# Poissons Ratio (z) = 0.64670 0.04348
#
# Static dielectric constant tensor:
#      x y z
#    x 1.767590 0.000000 0.000000 
#    y 0.000000 1.824020 0.000000 
#    z 0.000000 0.000000 1.826530 
# 
# From -- ./inp_files/12867.got.cif
#   From: 2010.05.17/outbox.cif.g08.bks.cpg/sg60_7_cif.got.tgz:12867.got - 2010.06.03 14:59:27.
