data_PCOD9455062
_publ_section_title
;
Structure prediction by ZEFSAII (Michael W. Deem and Ramdas Pophale) SiO2 
 PCOD9455062
Probable space group: P B C N
;
_chemical_formula_sum "Si O2"
_cell_formula_units_Z 56
_cell_length_a 7.066004
_cell_length_b 16.167798
_cell_length_c 22.404468
_cell_angle_alpha 90.000000
_cell_angle_beta 90.000000
_cell_angle_gamma 90.000000
_cell_volume 2559.525080
_symmetry_space_group_name_H-M "P B C N"
_symmetry_group_IT_number 60
_symmetry_cell_setting 'orthorhombic'
loop_
_space_group_symop_operation_xyz
x,y,z
1/2-x,1/2-y,1/2+z
1/2+x,1/2-y,-z
-x,y,1/2-z
-x,-y,-z
1/2+x,1/2+y,1/2-z
1/2-x,1/2+y,z
x,-y,1/2+z
loop_
_atom_site_type_symbol
_atom_site_label
_atom_site_fract_x
_atom_site_fract_y
_atom_site_fract_z
Si Si1 0.756533 0.291599 0.914917
Si Si2 0.304549 0.025162 0.076527
Si Si3 0.250339 0.552491 0.454109
Si Si4 0.202799 0.889532 0.384940
Si Si5 0.377505 0.304371 0.194745
Si Si6 0.070895 0.564198 0.691021
Si Si7 0.178546 0.267873 0.963100
O O1 0.703825 0.386813 0.920984
O O2 0.766251 0.259518 0.847696
O O3 0.973031 0.282394 0.936118
O O4 0.656034 0.237268 0.965457
O O5 0.525236 0.041267 0.059283
O O6 0.313701 0.986354 0.141760
O O7 0.223147 0.969003 0.023743
O O8 0.338610 0.479472 0.413957
O O9 0.293095 0.649522 0.445322
O O10 0.391323 0.899866 0.345139
O O11 0.241377 0.820484 0.436219
O O12 0.029233 0.854623 0.345919
O O13 0.500000 0.270063 0.250000
O O14 0.213925 0.366558 0.215324
O O15 0.000000 0.516646 0.750000
#
# Coordination Sequence:
#
# PCOD9455062 Si02
#       7
#     8   8   8   8   8   8   8
#     4  10  21  36  58  89 125 157 197 258 303 365
#     4   9  18  34  59  88 116 154 202 245 300 361
#     4   9  17  34  60  88 122 153 192 248 306 364
#     4  10  21  40  62  88 125 155 198 259 303 359
#     4  11  23  40  59  88 120 162 211 244 300 365
#     4  11  22  39  65  82 113 168 209 244 302 361
#     4  10  20  35  58  90 122 157 197 249 314 362
#
# _framework density 21.879059999999999
#
# number of rings (size 3 to 8) (size 9 to 14) (size 15 to 20)
#    0.000    2.000    2.857    0.857    4.000    0.571 
#    2.571    2.143    0.000    1.714    0.000    0.000 
#    0.000    0.000    0.000    0.000    0.000    0.000 
#
# Total GULP energy -312602.496554 kJ/mol
# GULP energy per Si atom -5582.187438 kJ/mol
# Density = 2.182926 g / cm^3
# Si number density = 21.879060 Si / 1000 Ang^3
#
#
#
# Elastic Constant Matrix: (Units=GPa)
#
#
# Indices 1 2 3 4 5 6 
#
# 1 56.8216 -3.6637 -5.2462 0.0000 0.0000 0.0000
# 2 -3.6637 95.7939 23.2369 0.0000 0.0000 0.0000
# 3 -5.2462 23.2369 117.4734 0.0000 0.0000 0.0000
# 4 0.0000 0.0000 0.0000 25.5098 0.0000 0.0000
# 5 0.0000 0.0000 0.0000 0.0000 13.6111 0.0000
# 6 0.0000 0.0000 0.0000 0.0000 0.0000 -6.5781
#
#
#
# Elastic Compliance Matrix: (Units=1/GPa)
#
#
# Indices 1 2 3 4 5 6 
#
# 1 0.017695 0.000510 0.000689 0.000000 0.000000 0.000000
# 2 0.000510 0.010980 -0.002149 0.000000 0.000000 0.000000
# 3 0.000689 -0.002149 0.008968 0.000000 0.000000 0.000000
# 4 0.000000 0.000000 0.000000 0.039201 0.000000 0.000000
# 5 0.000000 0.000000 0.000000 0.000000 0.073469 0.000000
# 6 0.000000 0.000000 0.000000 0.000000 0.000000 -0.152019
#
#
# Mechanical properties :
#
#
# Convention : Reuss Voigt Hill
#
# Bulk Modulus (GPa) = 27.97709 33.19365 30.58537
# Shear Modulus (GPa) = 412.89530 23.55937 218.22734
#
# Velocity S-wave (km/s) = 13.75234 3.28502 9.99795
# Velocity P-wave (km/s) = 16.27833 5.43993 12.13624
#
# Compressibility (1/GPa) = 0.03574353
#
# Stress axis : x y z
#
# Youngs Moduli (GPa) = 56.51174 91.07567 111.50181
#
# Poissons Ratio (x) = -0.04641 -0.07688
# Poissons Ratio (y) = -0.02879 0.23963
# Poissons Ratio (z) = -0.03896 0.19573
#
# Static dielectric constant tensor:
#      x y z
#    x 1.854340 0.000000 0.000000 
#    y 0.000000 1.820690 0.000000 
#    z 0.000000 0.000000 1.677960 
# 
# From -- ./inp_files/22231.got.cif
#   From: 2010.05.17/outbox.cif.g08.bks.cpg/sg60_12_cif.got.tgz:22231.got - 2010.06.03 14:59:27.
