data_PCOD9455740
_publ_section_title
;
Structure prediction by ZEFSAII (Michael W. Deem and Ramdas Pophale) SiO2 
 PCOD9455740
Probable space group: P B C N
;
_chemical_formula_sum "Si O2"
_cell_formula_units_Z 48
_cell_length_a 13.758859
_cell_length_b 9.108566
_cell_length_c 15.410883
_cell_angle_alpha 90.000000
_cell_angle_beta 90.000000
_cell_angle_gamma 90.000000
_cell_volume 1931.345415
_symmetry_space_group_name_H-M "P B C N"
_symmetry_group_IT_number 60
_symmetry_cell_setting 'orthorhombic'
loop_
_space_group_symop_operation_xyz
x,y,z
1/2-x,1/2-y,1/2+z
1/2+x,1/2-y,-z
-x,y,1/2-z
-x,-y,-z
1/2+x,1/2+y,1/2-z
1/2-x,1/2+y,z
x,-y,1/2+z
loop_
_atom_site_type_symbol
_atom_site_label
_atom_site_fract_x
_atom_site_fract_y
_atom_site_fract_z
Si Si1 0.256459 0.074758 0.637508
Si Si2 0.053544 0.359243 0.836517
Si Si3 0.330658 0.949688 0.468064
Si Si4 0.141870 0.127085 0.410924
Si Si5 0.469779 0.443831 0.147029
Si Si6 0.245056 0.671577 0.250676
O O1 0.327846 0.019961 0.563592
O O2 0.143260 0.031997 0.626362
O O3 0.260027 0.244714 0.661089
O O4 0.281536 0.994863 0.727647
O O5 0.087955 0.476497 0.906836
O O6 0.151029 0.274977 0.802588
O O7 0.000000 0.417002 0.750000
O O8 0.989989 0.226963 0.874124
O O9 0.226180 0.008407 0.432105
O O10 0.341154 0.774418 0.466176
O O11 0.164032 0.179052 0.312716
O O12 0.038193 0.050705 0.408152
O O13 0.500000 0.459844 0.250000
#
# Coordination Sequence:
#
# PCOD9455740 Si02
#       6
#     8   8   8   8   8   8
#     4  12  24  42  67 106 138 176 235 300 367 411
#     4  10  20  43  73 100 133 187 240 284 344 428
#     4  11  25  41  67 100 147 184 230 298 369 412
#     4  11  22  43  68  99 136 192 237 280 353 443
#     4  11  21  43  75 105 128 180 247 295 342 426
#     4  11  20  39  70  94 134 184 235 281 348 439
#
# _framework density 24.853141000000001
#
# number of rings (size 3 to 8) (size 9 to 14) (size 15 to 20)
#    0.000    1.000    5.000    5.000    0.000    1.333 
#    3.000    0.833    0.000    0.000    0.000    0.000 
#    0.000    0.000    0.000    0.000    0.000    0.000 
#
# Total GULP energy -268594.839103 kJ/mol
# GULP energy per Si atom -5595.725815 kJ/mol
# Density = 2.479657 g / cm^3
# Si number density = 24.853141 Si / 1000 Ang^3
#
#
#
# Elastic Constant Matrix: (Units=GPa)
#
#
# Indices 1 2 3 4 5 6 
#
# 1 101.4950 37.5429 28.3983 0.0000 0.0000 0.0000
# 2 37.5429 79.8798 20.4306 0.0000 0.0000 0.0000
# 3 28.3983 20.4306 102.5508 0.0000 0.0000 0.0000
# 4 0.0000 0.0000 0.0000 32.5015 0.0000 0.0000
# 5 0.0000 0.0000 0.0000 0.0000 44.7015 0.0000
# 6 0.0000 0.0000 0.0000 0.0000 0.0000 38.9648
#
#
#
# Elastic Compliance Matrix: (Units=1/GPa)
#
#
# Indices 1 2 3 4 5 6 
#
# 1 0.012466 -0.005243 -0.002407 0.000000 0.000000 0.000000
# 2 -0.005243 0.015396 -0.001615 0.000000 0.000000 0.000000
# 3 -0.002407 -0.001615 0.010740 0.000000 0.000000 0.000000
# 4 0.000000 0.000000 0.000000 0.030768 0.000000 0.000000
# 5 0.000000 0.000000 0.000000 0.000000 0.022371 0.000000
# 6 0.000000 0.000000 0.000000 0.000000 0.000000 0.025664
#
#
# Mechanical properties :
#
#
# Convention : Reuss Voigt Hill
#
# Bulk Modulus (GPa) = 49.82594 50.74101 50.28348
# Shear Modulus (GPa) = 35.05672 36.40380 35.73026
#
# Velocity S-wave (km/s) = 3.75981 3.83137 3.79576
# Velocity P-wave (km/s) = 6.24018 6.32718 6.28383
#
# Compressibility (1/GPa) = 0.02006987
#
# Stress axis : x y z
#
# Youngs Moduli (GPa) = 80.22010 64.95125 93.11193
#
# Poissons Ratio (x) = 0.34054 0.22416
# Poissons Ratio (y) = 0.42060 0.15041
# Poissons Ratio (z) = 0.19313 0.10492
#
# Static dielectric constant tensor:
#      x y z
#    x 1.942070 0.000000 0.000000 
#    y 0.000000 1.909440 0.000000 
#    z 0.000000 0.000000 2.078990 
# 
# From -- ./inp_files/20512.got.cif
#   From: 2010.05.17/outbox.cif.g08.bks.cpg/sg60_11_cif.got.tgz:20512.got - 2010.06.03 14:59:27.
