data_PCOD9455288
_publ_section_title
;
Structure prediction by ZEFSAII (Michael W. Deem and Ramdas Pophale) SiO2 
 PCOD9455288
Probable space group: P B C N
;
_chemical_formula_sum "Si O2"
_cell_formula_units_Z 48
_cell_length_a 27.906724
_cell_length_b 9.363813
_cell_length_c 8.450401
_cell_angle_alpha 90.000000
_cell_angle_beta 90.000000
_cell_angle_gamma 90.000000
_cell_volume 2208.202552
_symmetry_space_group_name_H-M "P B C N"
_symmetry_group_IT_number 60
_symmetry_cell_setting 'orthorhombic'
loop_
_space_group_symop_operation_xyz
x,y,z
1/2-x,1/2-y,1/2+z
1/2+x,1/2-y,-z
-x,y,1/2-z
-x,-y,-z
1/2+x,1/2+y,1/2-z
1/2-x,1/2+y,z
x,-y,1/2+z
loop_
_atom_site_type_symbol
_atom_site_label
_atom_site_fract_x
_atom_site_fract_y
_atom_site_fract_z
Si Si1 0.253953 0.710009 0.571113
Si Si2 0.540736 0.702263 0.040437
Si Si3 0.500000 0.050935 0.750000
Si Si4 0.597188 0.113113 0.333580
Si Si5 0.000000 0.022655 0.750000
Si Si6 0.157354 0.602674 0.460361
Si Si7 0.745573 0.035798 0.218427
O O1 0.196059 0.703904 0.545931
O O2 0.268574 0.607020 0.716413
O O3 0.265327 0.866951 0.628524
O O4 0.272241 0.634953 0.410426
O O5 0.512121 0.840219 0.106346
O O6 0.540505 0.586103 0.181748
O O7 0.588944 0.765737 0.965584
O O8 0.515659 0.622194 0.894167
O O9 0.453835 0.953783 0.717476
O O10 0.623646 0.167274 0.175868
O O11 0.625997 0.986109 0.418190
O O12 0.194417 0.504067 0.360670
#
# Coordination Sequence:
#
# PCOD9455288 Si02
#       7
#     8   8   4   8   4   8   8
#     4  10  20  37  63  93 122 164 208 257 338 399
#     4  10  21  37  61  84 126 172 228 260 311 394
#     4  11  23  34  62 102 123 179 208 284 328 379
#     4  12  21  38  59 101 134 159 221 279 338 365
#     4   9  21  40  56  86 113 183 238 246 318 387
#     4  10  22  35  62  92 126 158 202 271 333 379
#     4  10  20  37  63  93 121 165 206 260 331 407
#
# _framework density 21.737136
#
# number of rings (size 3 to 8) (size 9 to 14) (size 15 to 20)
#    1.000    0.667    3.333    2.000    2.333    0.000 
#    0.000    0.000    3.667    0.000    0.000    0.000 
#    0.000    0.000    0.000    0.000    0.000    0.000 
#
# Total GULP energy -267445.114896 kJ/mol
# GULP energy per Si atom -5571.773227 kJ/mol
# Density = 2.168766 g / cm^3
# Si number density = 21.737136 Si / 1000 Ang^3
#
#
#
# Elastic Constant Matrix: (Units=GPa)
#
#
# Indices 1 2 3 4 5 6 
#
# 1 51.8863 13.9603 43.9538 0.0000 0.0000 0.0000
# 2 13.9603 69.5120 21.8820 0.0000 0.0000 0.0000
# 3 43.9538 21.8820 85.2849 0.0000 0.0000 0.0000
# 4 0.0000 0.0000 0.0000 48.9391 0.0000 0.0000
# 5 0.0000 0.0000 0.0000 0.0000 44.7761 0.0000
# 6 0.0000 0.0000 0.0000 0.0000 0.0000 2.4018
#
#
#
# Elastic Compliance Matrix: (Units=1/GPa)
#
#
# Indices 1 2 3 4 5 6 
#
# 1 0.034340 -0.001442 -0.017328 0.000000 0.000000 0.000000
# 2 -0.001442 0.015711 -0.003288 0.000000 0.000000 0.000000
# 3 -0.017328 -0.003288 0.021499 0.000000 0.000000 0.000000
# 4 0.000000 0.000000 0.000000 0.020434 0.000000 0.000000
# 5 0.000000 0.000000 0.000000 0.000000 0.022333 0.000000
# 6 0.000000 0.000000 0.000000 0.000000 0.000000 0.416359
#
#
# Mechanical properties :
#
#
# Convention : Reuss Voigt Hill
#
# Bulk Modulus (GPa) = 36.45058 40.69727 38.57392
# Shear Modulus (GPa) = 8.56259 27.68253 18.12256
#
# Velocity S-wave (km/s) = 1.98688 3.57250 2.89054
# Velocity P-wave (km/s) = 4.69775 5.98165 5.37815
#
# Compressibility (1/GPa) = 0.02743441
#
# Stress axis : x y z
#
# Youngs Moduli (GPa) = 29.12094 63.65140 46.51307
#
# Poissons Ratio (x) = 0.09177 0.80597
# Poissons Ratio (y) = 0.04199 0.15293
# Poissons Ratio (z) = 0.50460 0.20928
#
# Static dielectric constant tensor:
#      x y z
#    x 1.796190 0.000000 0.000000 
#    y 0.000000 1.654710 0.000000 
#    z 0.000000 0.000000 1.881620 
# 
# From -- ./inp_files/8433.got.cif
#   From: 2010.05.17/outbox.cif.g08.bks.cpg/sg60_5_cif.got.tgz:8433.got - 2010.06.03 14:59:27.
