data_PCOD9455069
_publ_section_title
;
Structure prediction by ZEFSAII (Michael W. Deem and Ramdas Pophale) SiO2 
 PCOD9455069
Probable space group: P B C N
;
_chemical_formula_sum "Si O2"
_cell_formula_units_Z 60
_cell_length_a 14.280705
_cell_length_b 19.730609
_cell_length_c 10.968846
_cell_angle_alpha 90.000000
_cell_angle_beta 90.000000
_cell_angle_gamma 90.000000
_cell_volume 3090.658903
_symmetry_space_group_name_H-M "P B C N"
_symmetry_group_IT_number 60
_symmetry_cell_setting 'orthorhombic'
loop_
_space_group_symop_operation_xyz
x,y,z
1/2-x,1/2-y,1/2+z
1/2+x,1/2-y,-z
-x,y,1/2-z
-x,-y,-z
1/2+x,1/2+y,1/2-z
1/2-x,1/2+y,z
x,-y,1/2+z
loop_
_atom_site_type_symbol
_atom_site_label
_atom_site_fract_x
_atom_site_fract_y
_atom_site_fract_z
Si Si1 0.059719 0.791230 0.874684
Si Si2 0.117987 0.830761 0.507885
Si Si3 0.000000 0.465096 0.250000
Si Si4 0.796608 0.506991 0.301882
Si Si5 0.760170 0.558479 0.546550
Si Si6 0.051636 0.637541 0.967796
Si Si7 0.421390 0.205494 0.341910
Si Si8 0.729746 0.345772 0.753583
O O1 0.066718 0.713816 0.918555
O O2 0.160548 0.823741 0.854438
O O3 0.000000 0.789487 0.750000
O O4 0.991796 0.834943 0.960623
O O5 0.164341 0.899864 0.463144
O O6 0.121215 0.766662 0.419891
O O7 0.179662 0.814506 0.627929
O O8 0.090649 0.509654 0.215505
O O9 0.015127 0.414757 0.365102
O O10 0.770858 0.497759 0.446052
O O11 0.772708 0.457332 0.189347
O O12 0.737878 0.574003 0.269735
O O13 0.846345 0.606942 0.502588
O O14 0.974477 0.649797 0.073382
O O15 0.500000 0.231973 0.250000
O O16 0.334930 0.176809 0.267489
#
# Coordination Sequence:
#
# PCOD9455069 Si02
#       8
#     8   8   4   8   8   8   8   8
#     4   9  17  35  61  84 110 151 204 242 311 365
#     4   9  20  39  58  82 119 157 198 261 300 354
#     4  10  22  36  58  88 124 170 196 248 302 388
#     4  10  23  36  57  84 123 161 208 241 309 359
#     4  10  21  40  58  86 124 162 205 254 297 369
#     4  10  20  35  59  87 124 156 197 252 313 369
#     4  11  22  35  60  94 122 150 198 250 316 367
#     4  10  21  36  58  87 121 161 200 252 300 372
#
# _framework density 19.413336000000001
#
# number of rings (size 3 to 8) (size 9 to 14) (size 15 to 20)
#    0.000    2.133    0.667    2.400    4.667    2.133 
#    0.000    3.333    0.000    2.400    0.000    0.000 
#    0.000    0.000    0.000    0.000    0.000    0.000 
#
# Total GULP energy -334109.577358 kJ/mol
# GULP energy per Si atom -5568.492956 kJ/mol
# Density = 1.936915 g / cm^3
# Si number density = 19.413336 Si / 1000 Ang^3
#
#
#
# Elastic Constant Matrix: (Units=GPa)
#
#
# Indices 1 2 3 4 5 6 
#
# 1 79.0936 33.0210 12.0276 0.0000 0.0000 0.0000
# 2 33.0210 38.3250 10.7747 0.0000 0.0000 0.0000
# 3 12.0276 10.7747 38.2077 0.0000 0.0000 0.0000
# 4 0.0000 0.0000 0.0000 22.0500 0.0000 0.0000
# 5 0.0000 0.0000 0.0000 0.0000 30.1714 0.0000
# 6 0.0000 0.0000 0.0000 0.0000 0.0000 21.2429
#
#
#
# Elastic Compliance Matrix: (Units=1/GPa)
#
#
# Indices 1 2 3 4 5 6 
#
# 1 0.019830 -0.016651 -0.001547 0.000000 0.000000 0.000000
# 2 -0.016651 0.042321 -0.006693 0.000000 0.000000 0.000000
# 3 -0.001547 -0.006693 0.028547 0.000000 0.000000 0.000000
# 4 0.000000 0.000000 0.000000 0.045352 0.000000 0.000000
# 5 0.000000 0.000000 0.000000 0.000000 0.033144 0.000000
# 6 0.000000 0.000000 0.000000 0.000000 0.000000 0.047075
#
#
# Mechanical properties :
#
#
# Convention : Reuss Voigt Hill
#
# Bulk Modulus (GPa) = 24.43990 29.69697 27.06844
# Shear Modulus (GPa) = 17.87706 21.34638 19.61172
#
# Velocity S-wave (km/s) = 3.03787 3.31958 3.18184
# Velocity P-wave (km/s) = 4.99214 5.47934 5.24140
#
# Compressibility (1/GPa) = 0.04091670
#
# Stress axis : x y z
#
# Youngs Moduli (GPa) = 50.42848 23.62911 35.02979
#
# Poissons Ratio (x) = 0.39344 0.05419
# Poissons Ratio (y) = 0.83967 0.23445
# Poissons Ratio (z) = 0.07801 0.15815
#
# Static dielectric constant tensor:
#      x y z
#    x 1.667510 0.000000 0.000000 
#    y 0.000000 1.662650 0.000000 
#    z 0.000000 0.000000 1.810840 
# 
# From -- ./inp_files/12113.got.cif
#   From: 2010.05.17/outbox.cif.g08.bks.cpg/sg60_7_cif.got.tgz:12113.got - 2010.06.03 14:59:27.
