data_PCOD9455719
_publ_section_title
;
Structure prediction by ZEFSAII (Michael W. Deem and Ramdas Pophale) SiO2 
 PCOD9455719
Probable space group: P B C N
;
_chemical_formula_sum "Si O2"
_cell_formula_units_Z 48
_cell_length_a 11.247061
_cell_length_b 21.037993
_cell_length_c 7.944396
_cell_angle_alpha 90.000000
_cell_angle_beta 90.000000
_cell_angle_gamma 90.000000
_cell_volume 1879.767951
_symmetry_space_group_name_H-M "P B C N"
_symmetry_group_IT_number 60
_symmetry_cell_setting 'orthorhombic'
loop_
_space_group_symop_operation_xyz
x,y,z
1/2-x,1/2-y,1/2+z
1/2+x,1/2-y,-z
-x,y,1/2-z
-x,-y,-z
1/2+x,1/2+y,1/2-z
1/2-x,1/2+y,z
x,-y,1/2+z
loop_
_atom_site_type_symbol
_atom_site_label
_atom_site_fract_x
_atom_site_fract_y
_atom_site_fract_z
Si Si1 0.187512 0.582898 0.181844
Si Si2 0.251166 0.704439 0.979359
Si Si3 0.638937 0.502342 0.481413
Si Si4 0.995928 0.734221 0.453848
Si Si5 0.249854 0.591761 0.732808
Si Si6 0.464735 0.087338 0.518983
O O1 0.119457 0.578743 0.356122
O O2 0.090019 0.558275 0.042500
O O3 0.219487 0.654302 0.127838
O O4 0.306764 0.542228 0.177108
O O5 0.383946 0.729705 0.005966
O O6 0.251224 0.663041 0.805740
O O7 0.137771 0.752191 0.984375
O O8 0.500000 0.500000 0.500000
O O9 0.691347 0.550950 0.619095
O O10 0.678350 0.430481 0.432851
O O11 0.010703 0.662752 0.523094
O O12 0.000000 0.733996 0.250000
O O13 0.115253 0.573028 0.681335
#
# Coordination Sequence:
#
# PCOD9455719 Si02
#       6
#     8   8   8   8   8   8
#     4   9  20  43  69  99 145 191 236 306 368 427
#     4  10  24  44  74 108 145 198 245 308 376 445
#     4  11  24  44  67 101 148 185 241 299 367 448
#     4  11  23  46  72 104 155 191 250 311 371 441
#     4  11  25  43  74 106 145 196 244 303 371 443
#     4  10  20  42  69 100 143 188 247 306 354 435
#
# _framework density 25.535064999999999
#
# number of rings (size 3 to 8) (size 9 to 14) (size 15 to 20)
#    0.000    1.667    3.333    1.500    2.333    9.333 
#    0.000    5.000    0.000    0.000    0.000    0.000 
#    0.000    0.000    0.000    0.000    0.000    0.000 
#
# Total GULP energy -267938.131217 kJ/mol
# GULP energy per Si atom -5582.044400 kJ/mol
# Density = 2.547695 g / cm^3
# Si number density = 25.535065 Si / 1000 Ang^3
#
#
#
# Elastic Constant Matrix: (Units=GPa)
#
#
# Indices 1 2 3 4 5 6 
#
# 1 245.9397 56.4853 24.6912 0.0000 0.0000 0.0000
# 2 56.4853 56.1991 7.6151 0.0000 0.0000 0.0000
# 3 24.6912 7.6151 62.4873 0.0000 0.0000 0.0000
# 4 0.0000 0.0000 0.0000 39.1925 0.0000 0.0000
# 5 0.0000 0.0000 0.0000 0.0000 30.5843 0.0000
# 6 0.0000 0.0000 0.0000 0.0000 0.0000 42.1978
#
#
#
# Elastic Compliance Matrix: (Units=1/GPa)
#
#
# Indices 1 2 3 4 5 6 
#
# 1 0.005422 -0.005246 -0.001503 0.000000 0.000000 0.000000
# 2 -0.005246 0.023168 -0.000751 0.000000 0.000000 0.000000
# 3 -0.001503 -0.000751 0.016689 0.000000 0.000000 0.000000
# 4 0.000000 0.000000 0.000000 0.025515 0.000000 0.000000
# 5 0.000000 0.000000 0.000000 0.000000 0.032696 0.000000
# 6 0.000000 0.000000 0.000000 0.000000 0.000000 0.023698
#
#
# Mechanical properties :
#
#
# Convention : Reuss Voigt Hill
#
# Bulk Modulus (GPa) = 33.02551 60.24547 46.63549
# Shear Modulus (GPa) = 32.83433 40.78390 36.80912
#
# Velocity S-wave (km/s) = 3.58977 4.00080 3.80084
# Velocity P-wave (km/s) = 5.49030 6.70718 6.12902
#
# Compressibility (1/GPa) = 0.03027962
#
# Stress axis : x y z
#
# Youngs Moduli (GPa) = 184.44361 43.16311 59.92095
#
# Poissons Ratio (x) = 0.22642 0.09006
# Poissons Ratio (y) = 0.96753 0.04498
# Poissons Ratio (z) = 0.27723 0.03240
#
# Static dielectric constant tensor:
#      x y z
#    x 2.044800 0.000000 0.000000 
#    y 0.000000 2.086040 0.000000 
#    z 0.000000 0.000000 2.249190 
# 
# From -- ./inp_files/5074.got.cif
#   From: 2010.05.17/outbox.cif.g08.bks.cpg/sg60_3_cif.got.tgz:5074.got - 2010.06.03 14:59:27.
