data_PCOD9455875
_publ_section_title
;
Structure prediction by ZEFSAII (Michael W. Deem and Ramdas Pophale) SiO2 
 PCOD9455875
Probable space group: P B C N
;
_chemical_formula_sum "Si O2"
_cell_formula_units_Z 64
_cell_length_a 30.262198
_cell_length_b 5.709569
_cell_length_c 16.843519
_cell_angle_alpha 90.000000
_cell_angle_beta 90.000000
_cell_angle_gamma 90.000000
_cell_volume 2910.292399
_symmetry_space_group_name_H-M "P B C N"
_symmetry_group_IT_number 60
_symmetry_cell_setting 'orthorhombic'
loop_
_space_group_symop_operation_xyz
x,y,z
1/2-x,1/2-y,1/2+z
1/2+x,1/2-y,-z
-x,y,1/2-z
-x,-y,-z
1/2+x,1/2+y,1/2-z
1/2-x,1/2+y,z
x,-y,1/2+z
loop_
_atom_site_type_symbol
_atom_site_label
_atom_site_fract_x
_atom_site_fract_y
_atom_site_fract_z
Si Si1 0.937324 0.533171 0.070209
Si Si2 0.133470 0.683195 0.705831
Si Si3 0.734458 0.053237 0.456402
Si Si4 0.049676 0.440795 0.766206
Si Si5 0.732098 0.981244 0.267992
Si Si6 0.084713 0.930558 0.145041
Si Si7 0.132746 0.406218 0.539573
Si Si8 0.488413 0.300129 0.562404
O O1 0.945939 0.685300 0.148091
O O2 0.965929 0.304755 0.093550
O O3 0.887714 0.500347 0.041882
O O4 0.960827 0.616232 0.989958
O O5 0.092045 0.610963 0.760259
O O6 0.180252 0.589203 0.736072
O O7 0.128393 0.575426 0.616625
O O8 0.126407 0.959000 0.691164
O O9 0.738985 0.783263 0.487384
O O10 0.743904 0.014980 0.362060
O O11 0.684252 0.136529 0.466975
O O12 0.060559 0.263054 0.696096
O O13 0.000000 0.526738 0.750000
O O14 0.757046 0.745051 0.236237
O O15 0.104059 0.819845 0.064637
O O16 0.046369 0.114083 0.126591
O O17 0.500000 0.500000 0.500000
#
# Coordination Sequence:
#
# PCOD9455875 Si02
#       8
#     8   8   8   8   8   8   8   8
#     4  11  23  39  61  88 122 160 211 263 308 378
#     4  10  22  38  60  86 127 161 205 268 320 387
#     4   9  19  32  56  91 128 158 201 264 329 386
#     4  11  25  40  58  87 129 169 212 264 325 382
#     4   9  19  33  60  92 122 162 211 270 331 388
#     4  11  22  38  59  88 123 165 212 261 320 376
#     4  10  21  36  60  90 118 159 205 261 314 379
#     4  11  21  37  62  85 119 163 214 254 307 370
#
# _framework density 21.990917
#
# number of rings (size 3 to 8) (size 9 to 14) (size 15 to 20)
#    0.000    1.750    2.500    1.500   14.000    2.500 
#    0.000    0.000    0.000    1.500    0.000    0.000 
#    0.000    0.000    0.000    0.000    0.000    0.000 
#
# Total GULP energy -356542.101858 kJ/mol
# GULP energy per Si atom -5570.970342 kJ/mol
# Density = 2.194086 g / cm^3
# Si number density = 21.990917 Si / 1000 Ang^3
#
#
#
# Elastic Constant Matrix: (Units=GPa)
#
#
# Indices 1 2 3 4 5 6 
#
# 1 103.0136 35.0019 24.7492 0.0000 0.0000 0.0000
# 2 35.0019 74.9979 -8.8723 0.0000 0.0000 0.0000
# 3 24.7492 -8.8723 37.8007 0.0000 0.0000 0.0000
# 4 0.0000 0.0000 0.0000 11.8727 0.0000 0.0000
# 5 0.0000 0.0000 0.0000 0.0000 21.2781 0.0000
# 6 0.0000 0.0000 0.0000 0.0000 0.0000 28.0556
#
#
#
# Elastic Compliance Matrix: (Units=1/GPa)
#
#
# Indices 1 2 3 4 5 6 
#
# 1 0.015633 -0.008750 -0.012289 0.000000 0.000000 0.000000
# 2 -0.008750 0.018612 0.010097 0.000000 0.000000 0.000000
# 3 -0.012289 0.010097 0.036870 0.000000 0.000000 0.000000
# 4 0.000000 0.000000 0.000000 0.084227 0.000000 0.000000
# 5 0.000000 0.000000 0.000000 0.000000 0.046997 0.000000
# 6 0.000000 0.000000 0.000000 0.000000 0.000000 0.035644
#
#
# Mechanical properties :
#
#
# Convention : Reuss Voigt Hill
#
# Bulk Modulus (GPa) = 20.31208 35.28554 27.79881
# Shear Modulus (GPa) = 18.09788 23.23685 20.66736
#
# Velocity S-wave (km/s) = 2.87186 3.25415 3.06896
# Velocity P-wave (km/s) = 4.50038 5.49542 5.02260
#
# Compressibility (1/GPa) = 0.04923178
#
# Stress axis : x y z
#
# Youngs Moduli (GPa) = 63.96785 53.72958 27.12208
#
# Poissons Ratio (x) = 0.47012 0.33330
# Poissons Ratio (y) = 0.55970 -0.27385
# Poissons Ratio (z) = 0.78610 -0.54251
#
# Static dielectric constant tensor:
#      x y z
#    x 1.817640 0.000000 0.000000 
#    y 0.000000 1.935640 0.000000 
#    z 0.000000 0.000000 1.896580 
# 
# From -- ./inp_files/21294.got.cif
#   From: 2010.05.17/outbox.cif.g08.bks.cpg/sg60_11_cif.got.tgz:21294.got - 2010.06.03 14:59:27.
