data_PCOD9455939
_publ_section_title
;
Structure prediction by ZEFSAII (Michael W. Deem and Ramdas Pophale) SiO2 
 PCOD9455939
Probable space group: P B C N
;
_chemical_formula_sum "Si O2"
_cell_formula_units_Z 64
_cell_length_a 18.921966
_cell_length_b 18.779871
_cell_length_c 8.881726
_cell_angle_alpha 90.000000
_cell_angle_beta 90.000000
_cell_angle_gamma 90.000000
_cell_volume 3156.139813
_symmetry_space_group_name_H-M "P B C N"
_symmetry_group_IT_number 60
_symmetry_cell_setting 'orthorhombic'
loop_
_space_group_symop_operation_xyz
x,y,z
1/2-x,1/2-y,1/2+z
1/2+x,1/2-y,-z
-x,y,1/2-z
-x,-y,-z
1/2+x,1/2+y,1/2-z
1/2-x,1/2+y,z
x,-y,1/2+z
loop_
_atom_site_type_symbol
_atom_site_label
_atom_site_fract_x
_atom_site_fract_y
_atom_site_fract_z
Si Si1 0.831376 0.765348 0.429350
Si Si2 0.383576 0.021297 0.979212
Si Si3 0.695910 0.691715 0.278585
Si Si4 0.799529 0.905890 0.280310
Si Si5 0.220288 0.050661 0.060788
Si Si6 0.559441 0.234479 0.852250
Si Si7 0.866882 0.405731 0.315397
Si Si8 0.463667 0.841919 0.590930
O O1 0.763003 0.729718 0.352995
O O2 0.815478 0.785657 0.604420
O O3 0.843547 0.838925 0.339172
O O4 0.894460 0.708992 0.412822
O O5 0.304845 0.041768 0.037739
O O6 0.381137 0.031083 0.801075
O O7 0.438913 0.080088 0.034794
O O8 0.391823 0.939804 0.028515
O O9 0.706703 0.608445 0.309416
O O10 0.626624 0.716214 0.370586
O O11 0.806977 0.923591 0.103089
O O12 0.715940 0.887890 0.308478
O O13 0.810650 0.975990 0.381697
O O14 0.500000 0.270270 0.750000
O O15 0.589955 0.163677 0.769973
O O16 0.520731 0.201882 0.994016
O O17 0.500000 0.851062 0.750000
#
# Coordination Sequence:
#
# PCOD9455939 Si02
#       8
#     8   8   8   8   8   8   8   8
#     4  12  24  42  66  96 126 168 220 267 318 379
#     4  10  21  39  57  88 126 167 213 253 302 377
#     4  12  24  40  69  93 126 171 218 266 320 378
#     4  10  21  39  64  96 127 162 213 270 316 376
#     4  10  21  39  66  95 128 163 212 266 321 372
#     4  12  24  44  61  88 132 173 205 257 325 375
#     4  10  21  37  60  86 124 171 211 251 308 372
#     4  12  28  42  61  93 132 168 215 263 317 383
#
# _framework density 20.277937000000001
#
# number of rings (size 3 to 8) (size 9 to 14) (size 15 to 20)
#    0.000    1.000    5.000    1.500    5.250    2.000 
#    0.000    0.000    0.000    1.500    0.000    0.000 
#    0.000    0.000    0.000    0.000    0.000    0.000 
#
# Total GULP energy -357564.070763 kJ/mol
# GULP energy per Si atom -5586.938606 kJ/mol
# Density = 2.023178 g / cm^3
# Si number density = 20.277937 Si / 1000 Ang^3
#
#
#
# Elastic Constant Matrix: (Units=GPa)
#
#
# Indices 1 2 3 4 5 6 
#
# 1 48.4758 10.0402 2.4180 0.0000 0.0000 0.0000
# 2 10.0402 64.1424 -14.1502 0.0000 0.0000 0.0000
# 3 2.4180 -14.1502 47.8488 0.0000 0.0000 0.0000
# 4 0.0000 0.0000 0.0000 28.0919 0.0000 0.0000
# 5 0.0000 0.0000 0.0000 0.0000 29.6125 0.0000
# 6 0.0000 0.0000 0.0000 0.0000 0.0000 23.3140
#
#
#
# Elastic Compliance Matrix: (Units=1/GPa)
#
#
# Indices 1 2 3 4 5 6 
#
# 1 0.021540 -0.003864 -0.002231 0.000000 0.000000 0.000000
# 2 -0.003864 0.017372 0.005332 0.000000 0.000000 0.000000
# 3 -0.002231 0.005332 0.022589 0.000000 0.000000 0.000000
# 4 0.000000 0.000000 0.000000 0.035597 0.000000 0.000000
# 5 0.000000 0.000000 0.000000 0.000000 0.033770 0.000000
# 6 0.000000 0.000000 0.000000 0.000000 0.000000 0.042893
#
#
# Mechanical properties :
#
#
# Convention : Reuss Voigt Hill
#
# Bulk Modulus (GPa) = 16.67348 17.45367 17.06358
# Shear Modulus (GPa) = 25.60458 27.01429 26.30943
#
# Velocity S-wave (km/s) = 3.55728 3.65389 3.60591
# Velocity P-wave (km/s) = 5.01125 5.14073 5.07641
#
# Compressibility (1/GPa) = 0.05997549
#
# Stress axis : x y z
#
# Youngs Moduli (GPa) = 46.42432 57.56555 44.26960
#
# Poissons Ratio (x) = 0.22243 0.09877
# Poissons Ratio (y) = 0.17938 -0.23607
# Poissons Ratio (z) = 0.10358 -0.30697
#
# Static dielectric constant tensor:
#      x y z
#    x 1.711910 0.000000 0.000000 
#    y 0.000000 1.712850 0.000000 
#    z 0.000000 0.000000 1.754280 
# 
# From -- ./inp_files/7559.got.cif
#   From: 2010.05.17/outbox.cif.g08.bks.cpg/sg60_4_cif.got.tgz:7559.got - 2010.06.03 14:59:27.
