data_PCOD9455773
_publ_section_title
;
Structure prediction by ZEFSAII (Michael W. Deem and Ramdas Pophale) SiO2 
 PCOD9455773
Probable space group: P B C N
;
_chemical_formula_sum "Si O2"
_cell_formula_units_Z 40
_cell_length_a 8.786415
_cell_length_b 14.877098
_cell_length_c 14.302894
_cell_angle_alpha 90.000000
_cell_angle_beta 90.000000
_cell_angle_gamma 90.000000
_cell_volume 1869.622199
_symmetry_space_group_name_H-M "P B C N"
_symmetry_group_IT_number 60
_symmetry_cell_setting 'orthorhombic'
loop_
_space_group_symop_operation_xyz
x,y,z
1/2-x,1/2-y,1/2+z
1/2+x,1/2-y,-z
-x,y,1/2-z
-x,-y,-z
1/2+x,1/2+y,1/2-z
1/2-x,1/2+y,z
x,-y,1/2+z
loop_
_atom_site_type_symbol
_atom_site_label
_atom_site_fract_x
_atom_site_fract_y
_atom_site_fract_z
Si Si1 0.500000 0.109848 0.750000
Si Si2 0.000000 0.888350 0.250000
Si Si3 0.247224 0.243944 0.707586
Si Si4 0.656476 0.831361 0.962389
Si Si5 0.251043 0.027306 0.882644
Si Si6 0.701741 0.176856 0.084674
O O1 0.392009 0.179800 0.695221
O O2 0.396824 0.049059 0.816618
O O3 0.106100 0.822339 0.189761
O O4 0.107348 0.942567 0.320347
O O5 0.238186 0.327089 0.638141
O O6 0.226738 0.277199 0.813779
O O7 0.475682 0.831407 0.944603
O O8 0.717921 0.911657 0.026565
O O9 0.708243 0.740210 0.013788
O O10 0.238492 0.924177 0.909553
#
# Coordination Sequence:
#
# PCOD9455773 Si02
#       6
#     4   4   8   8   8   8
#     4  10  22  42  72  98 140 186 236 288 348 438
#     4  10  20  48  68  98 144 182 236 292 348 426
#     4  11  22  44  73  97 143 191 226 298 365 412
#     4  12  23  46  71 103 143 187 239 294 348 432
#     4  11  25  45  71 107 139 184 246 287 359 426
#     4  12  26  46  70 106 143 187 239 292 366 417
#
# _framework density 21.394694999999999
#
# number of rings (size 3 to 8) (size 9 to 14) (size 15 to 20)
#    0.000    0.800    6.000    1.800    2.800    0.800 
#    3.600    2.000    0.000    0.000    0.000    0.000 
#    0.000    0.000    0.000    0.000    0.000    0.000 
#
# Total GULP energy -223716.537896 kJ/mol
# GULP energy per Si atom -5592.913447 kJ/mol
# Density = 2.134600 g / cm^3
# Si number density = 21.394695 Si / 1000 Ang^3
#
#
#
# Elastic Constant Matrix: (Units=GPa)
#
#
# Indices 1 2 3 4 5 6 
#
# 1 61.9326 18.4880 15.1638 0.0000 0.0000 0.0000
# 2 18.4880 98.4745 3.3236 0.0000 0.0000 0.0000
# 3 15.1638 3.3236 92.6713 0.0000 0.0000 0.0000
# 4 0.0000 0.0000 0.0000 -20.8102 0.0000 0.0000
# 5 0.0000 0.0000 0.0000 0.0000 12.6039 0.0000
# 6 0.0000 0.0000 0.0000 0.0000 0.0000 15.3164
#
#
#
# Elastic Compliance Matrix: (Units=1/GPa)
#
#
# Indices 1 2 3 4 5 6 
#
# 1 0.017801 -0.003248 -0.002796 0.000000 0.000000 0.000000
# 2 -0.003248 0.010760 0.000146 0.000000 0.000000 0.000000
# 3 -0.002796 0.000146 0.011243 0.000000 0.000000 0.000000
# 4 0.000000 0.000000 0.000000 -0.048053 0.000000 0.000000
# 5 0.000000 0.000000 0.000000 0.000000 0.079341 0.000000
# 6 0.000000 0.000000 0.000000 0.000000 0.000000 0.065290
#
#
# Mechanical properties :
#
#
# Convention : Reuss Voigt Hill
#
# Bulk Modulus (GPa) = 35.70548 36.33657 36.02102
# Shear Modulus (GPa) = 31.74349 15.82889 23.78619
#
# Velocity S-wave (km/s) = 3.85607 2.72297 3.33795
# Velocity P-wave (km/s) = 6.04573 5.18718 5.63284
#
# Compressibility (1/GPa) = 0.02800690
#
# Stress axis : x y z
#
# Youngs Moduli (GPa) = 56.17758 92.93920 88.94299
#
# Poissons Ratio (x) = 0.30183 0.24871
# Poissons Ratio (y) = 0.18244 -0.01294
# Poissons Ratio (z) = 0.15709 -0.01352
#
# Static dielectric constant tensor:
#      x y z
#    x 1.814200 0.000000 0.000000 
#    y 0.000000 1.725150 0.000000 
#    z 0.000000 0.000000 1.796780 
# 
# From -- ./inp_files/14727.got.cif
#   From: 2010.05.17/outbox.cif.g08.bks.cpg/sg60_8_cif.got.tgz:14727.got - 2010.06.03 14:59:27.
