data_PCOD9455428
_publ_section_title
;
Structure prediction by ZEFSAII (Michael W. Deem and Ramdas Pophale) SiO2 
 PCOD9455428
Probable space group: P B C N
;
_chemical_formula_sum "Si O2"
_cell_formula_units_Z 52
_cell_length_a 13.245040
_cell_length_b 9.082541
_cell_length_c 18.606371
_cell_angle_alpha 90.000000
_cell_angle_beta 90.000000
_cell_angle_gamma 90.000000
_cell_volume 2238.320733
_symmetry_space_group_name_H-M "P B C N"
_symmetry_group_IT_number 60
_symmetry_cell_setting 'orthorhombic'
loop_
_space_group_symop_operation_xyz
x,y,z
1/2-x,1/2-y,1/2+z
1/2+x,1/2-y,-z
-x,y,1/2-z
-x,-y,-z
1/2+x,1/2+y,1/2-z
1/2-x,1/2+y,z
x,-y,1/2+z
loop_
_atom_site_type_symbol
_atom_site_label
_atom_site_fract_x
_atom_site_fract_y
_atom_site_fract_z
Si Si1 0.856415 0.601088 0.140250
Si Si2 0.532279 0.883509 0.356735
Si Si3 0.672308 0.177119 0.984173
Si Si4 0.172183 0.029395 0.081727
Si Si5 0.000000 0.877737 0.750000
Si Si6 0.677606 0.138574 0.298069
Si Si7 0.992199 0.870317 0.344294
O O1 0.796003 0.626158 0.213887
O O2 0.920343 0.450607 0.145425
O O3 0.936101 0.736811 0.136398
O O4 0.809226 0.610779 0.062158
O O5 0.571443 0.865220 0.438704
O O6 0.539559 0.735798 0.309933
O O7 0.602580 0.004520 0.318247
O O8 0.675683 0.352206 0.981499
O O9 0.760246 0.110086 0.936005
O O10 0.227477 0.110420 0.149611
O O11 0.061449 0.967379 0.095303
O O12 0.947373 0.005214 0.701190
O O13 0.606685 0.283534 0.309860
#
# Coordination Sequence:
#
# PCOD9455428 Si02
#       7
#     8   8   8   8   4   8   8
#     4  11  22  42  63  94 126 165 214 265 318 379
#     4  10  20  38  65  93 120 160 209 259 312 383
#     4  11  24  41  63  88 131 170 205 259 329 386
#     4  11  23  42  62  88 125 177 206 249 330 387
#     4  12  18  34  66 102 112 152 226 264 302 374
#     4  10  20  41  66  86 124 165 208 254 314 382
#     4  11  21  38  66  92 124 161 216 267 304 377
#
# _framework density 23.231701999999999
#
# number of rings (size 3 to 8) (size 9 to 14) (size 15 to 20)
#    0.000    1.231    6.154    1.385    0.000    0.615 
#    2.769    0.000    0.000    0.000    0.000    0.000 
#    0.000    0.000    0.000    0.000    0.000    0.000 
#
# Total GULP energy -289741.805301 kJ/mol
# GULP energy per Si atom -5571.957794 kJ/mol
# Density = 2.317883 g / cm^3
# Si number density = 23.231702 Si / 1000 Ang^3
#
#
#
# Elastic Constant Matrix: (Units=GPa)
#
#
# Indices 1 2 3 4 5 6 
#
# 1 24.6805 7.6814 2.1640 0.0000 0.0000 0.0000
# 2 7.6814 124.2749 -0.8859 0.0000 0.0000 0.0000
# 3 2.1640 -0.8859 98.3577 0.0000 0.0000 0.0000
# 4 0.0000 0.0000 0.0000 32.2305 0.0000 0.0000
# 5 0.0000 0.0000 0.0000 0.0000 3.2339 0.0000
# 6 0.0000 0.0000 0.0000 0.0000 0.0000 14.7728
#
#
#
# Elastic Compliance Matrix: (Units=1/GPa)
#
#
# Indices 1 2 3 4 5 6 
#
# 1 0.041398 -0.002565 -0.000934 0.000000 0.000000 0.000000
# 2 -0.002565 0.008206 0.000130 0.000000 0.000000 0.000000
# 3 -0.000934 0.000130 0.010189 0.000000 0.000000 0.000000
# 4 0.000000 0.000000 0.000000 0.031027 0.000000 0.000000
# 5 0.000000 0.000000 0.000000 0.000000 0.309220 0.000000
# 6 0.000000 0.000000 0.000000 0.000000 0.000000 0.067692
#
#
# Mechanical properties :
#
#
# Convention : Reuss Voigt Hill
#
# Bulk Modulus (GPa) = 18.84836 29.47023 24.15929
# Shear Modulus (GPa) = 10.15941 25.93769 18.04855
#
# Velocity S-wave (km/s) = 2.09346 3.34500 2.79030
# Velocity P-wave (km/s) = 3.73822 5.25658 4.56102
#
# Compressibility (1/GPa) = 0.05305501
#
# Stress axis : x y z
#
# Youngs Moduli (GPa) = 24.15561 121.85939 98.14803
#
# Poissons Ratio (x) = 0.31263 0.09166
# Poissons Ratio (y) = 0.06197 -0.01279
# Poissons Ratio (z) = 0.02256 -0.01589
#
# Static dielectric constant tensor:
#      x y z
#    x 1.900000 0.000000 0.000000 
#    y 0.000000 1.838760 0.000000 
#    z 0.000000 0.000000 1.955190 
# 
# From -- ./inp_files/20857.got.cif
#   From: 2010.05.17/outbox.cif.g08.bks.cpg/sg60_11_cif.got.tgz:20857.got - 2010.06.03 14:59:27.
