data_PCOD9455660
_publ_section_title
;
Structure prediction by ZEFSAII (Michael W. Deem and Ramdas Pophale) SiO2 
 PCOD9455660
Probable space group: P B C N
;
_chemical_formula_sum "Si O2"
_cell_formula_units_Z 64
_cell_length_a 14.286104
_cell_length_b 10.860903
_cell_length_c 17.608653
_cell_angle_alpha 90.000000
_cell_angle_beta 90.000000
_cell_angle_gamma 90.000000
_cell_volume 2732.158420
_symmetry_space_group_name_H-M "P B C N"
_symmetry_group_IT_number 60
_symmetry_cell_setting 'orthorhombic'
loop_
_space_group_symop_operation_xyz
x,y,z
1/2-x,1/2-y,1/2+z
1/2+x,1/2-y,-z
-x,y,1/2-z
-x,-y,-z
1/2+x,1/2+y,1/2-z
1/2-x,1/2+y,z
x,-y,1/2+z
loop_
_atom_site_type_symbol
_atom_site_label
_atom_site_fract_x
_atom_site_fract_y
_atom_site_fract_z
Si Si1 0.397868 0.376569 0.261101
Si Si2 0.711340 0.167638 0.499326
Si Si3 0.782247 0.121917 0.203290
Si Si4 0.088902 0.780838 0.425727
Si Si5 0.113931 0.133549 0.593406
Si Si6 0.604162 0.140012 0.741741
Si Si7 0.872659 0.527458 0.105767
Si Si8 0.778184 0.522259 0.351815
O O1 0.500000 0.432766 0.250000
O O2 0.335569 0.492455 0.284103
O O3 0.392046 0.291519 0.334814
O O4 0.387014 0.311393 0.179464
O O5 0.820381 0.175618 0.526261
O O6 0.675843 0.299722 0.470339
O O7 0.652615 0.096939 0.562684
O O8 0.684417 0.084663 0.426470
O O9 0.836186 0.249946 0.204578
O O10 0.724094 0.097255 0.127510
O O11 0.728094 0.117231 0.282956
O O12 0.070688 0.634321 0.437198
O O13 0.993467 0.860274 0.435418
O O14 0.173194 0.013585 0.618381
O O15 0.500000 0.190914 0.750000
O O16 0.590392 0.022699 0.686108
O O17 0.660851 0.090563 0.816207
#
# Coordination Sequence:
#
# PCOD9455660 Si02
#       8
#     8   8   8   8   8   8   8   8
#     4   9  19  39  71 101 127 176 238 287 338 416
#     4  12  24  45  67 101 142 185 225 295 358 419
#     4  10  20  41  67  97 136 176 227 283 348 406
#     4  11  24  43  70 103 133 187 241 288 349 422
#     4  10  24  43  70 100 138 184 232 292 347 422
#     4  11  25  43  68 106 139 182 232 292 353 418
#     4  11  25  40  68  96 138 181 227 286 350 426
#     4  10  24  42  69  99 137 186 226 284 359 415
#
# _framework density 23.424704999999999
#
# number of rings (size 3 to 8) (size 9 to 14) (size 15 to 20)
#    0.000    1.500    1.250    2.625    8.750    1.500 
#    4.500    0.000    0.000    0.000    0.000    0.000 
#    0.000    0.000    0.000    0.000    0.000    0.000 
#
# Total GULP energy -356332.359536 kJ/mol
# GULP energy per Si atom -5567.693118 kJ/mol
# Density = 2.337139 g / cm^3
# Si number density = 23.424705 Si / 1000 Ang^3
#
#
#
# Elastic Constant Matrix: (Units=GPa)
#
#
# Indices 1 2 3 4 5 6 
#
# 1 57.8828 -5.4687 16.6726 0.0000 0.0000 0.0000
# 2 -5.4687 48.8019 5.1896 0.0000 0.0000 0.0000
# 3 16.6726 5.1896 93.0854 0.0000 0.0000 0.0000
# 4 0.0000 0.0000 0.0000 40.8475 0.0000 0.0000
# 5 0.0000 0.0000 0.0000 0.0000 24.8151 0.0000
# 6 0.0000 0.0000 0.0000 0.0000 0.0000 -22.0655
#
#
#
# Elastic Compliance Matrix: (Units=1/GPa)
#
#
# Indices 1 2 3 4 5 6 
#
# 1 0.018500 0.002440 -0.003450 0.000000 0.000000 0.000000
# 2 0.002440 0.020935 -0.001604 0.000000 0.000000 0.000000
# 3 -0.003450 -0.001604 0.011450 0.000000 0.000000 0.000000
# 4 0.000000 0.000000 0.000000 0.024481 0.000000 0.000000
# 5 0.000000 0.000000 0.000000 0.000000 0.040298 0.000000
# 6 0.000000 0.000000 0.000000 0.000000 0.000000 -0.045320
#
#
# Mechanical properties :
#
#
# Convention : Reuss Voigt Hill
#
# Bulk Modulus (GPa) = 21.90203 25.83970 23.87086
# Shear Modulus (GPa) = 55.07080 20.94454 38.00767
#
# Velocity S-wave (km/s) = 4.85394 2.99343 4.03245
# Velocity P-wave (km/s) = 6.38628 4.79608 5.64743
#
# Compressibility (1/GPa) = 0.04565786
#
# Stress axis : x y z
#
# Youngs Moduli (GPa) = 54.05269 47.76686 87.33524
#
# Poissons Ratio (x) = -0.11655 0.30128
# Poissons Ratio (y) = -0.13189 0.14010
# Poissons Ratio (z) = 0.18646 0.07663
#
# Static dielectric constant tensor:
#      x y z
#    x 2.030730 0.000000 0.000000 
#    y 0.000000 1.931550 0.000000 
#    z 0.000000 0.000000 1.933530 
# 
# From -- ./inp_files/20648.got.cif
#   From: 2010.05.17/outbox.cif.g08.bks.cpg/sg60_11_cif.got.tgz:20648.got - 2010.06.03 14:59:27.
