data_PCOD9455938
_publ_section_title
;
Structure prediction by ZEFSAII (Michael W. Deem and Ramdas Pophale) SiO2 
 PCOD9455938
Probable space group: P B C N
;
_chemical_formula_sum "Si O2"
_cell_formula_units_Z 60
_cell_length_a 23.727553
_cell_length_b 5.373172
_cell_length_c 24.634108
_cell_angle_alpha 90.000000
_cell_angle_beta 90.000000
_cell_angle_gamma 90.000000
_cell_volume 3140.657201
_symmetry_space_group_name_H-M "P B C N"
_symmetry_group_IT_number 60
_symmetry_cell_setting 'orthorhombic'
loop_
_space_group_symop_operation_xyz
x,y,z
1/2-x,1/2-y,1/2+z
1/2+x,1/2-y,-z
-x,y,1/2-z
-x,-y,-z
1/2+x,1/2+y,1/2-z
1/2-x,1/2+y,z
x,-y,1/2+z
loop_
_atom_site_type_symbol
_atom_site_label
_atom_site_fract_x
_atom_site_fract_y
_atom_site_fract_z
Si Si1 0.500000 0.481876 0.750000
Si Si2 0.280007 0.058300 0.663720
Si Si3 0.497524 0.827134 0.845580
Si Si4 0.605783 0.955339 0.896217
Si Si5 0.046744 0.041350 0.427525
Si Si6 0.218885 0.408922 0.294528
Si Si7 0.910508 0.306304 0.181560
Si Si8 0.080328 0.067362 0.042795
O O1 0.520662 0.626565 0.803532
O O2 0.555554 0.344979 0.727308
O O3 0.262214 0.336232 0.645831
O O4 0.280372 0.073256 0.729029
O O5 0.340327 0.974086 0.641835
O O6 0.549111 0.003441 0.860827
O O7 0.471926 0.718158 0.900586
O O8 0.443821 0.936093 0.815356
O O9 0.597013 0.679654 0.922493
O O10 0.611147 0.180631 0.939149
O O11 0.085523 0.004010 0.479668
O O12 0.073531 0.194064 0.377761
O O13 0.985987 0.137606 0.448190
O O14 0.241070 0.680059 0.312897
O O15 0.155371 0.341120 0.311254
#
# Coordination Sequence:
#
# PCOD9455938 Si02
#       8
#     4   8   8   8   8   8   8   8
#     4  10  24  34  54  94 126 160 192 250 314 370
#     4  10  22  40  60  84 115 158 204 249 298 357
#     4  10  22  35  56  92 124 162 190 247 312 362
#     4  11  22  37  62  88 120 153 201 250 305 366
#     4   9  21  36  58  88 126 157 197 243 306 373
#     4  10  25  42  62  86 117 167 212 245 290 361
#     4  11  22  39  61  88 126 164 204 252 310 364
#     4  10  21  37  59  92 124 155 197 245 311 372
#
# _framework density 19.104279999999999
#
# number of rings (size 3 to 8) (size 9 to 14) (size 15 to 20)
#    0.000    1.867    1.333    1.200    9.333    3.733 
#    0.000    0.000    0.000    4.800    0.000    0.000 
#    0.000    0.000    0.000    0.000    0.000    0.000 
#
# Total GULP energy -334265.889127 kJ/mol
# GULP energy per Si atom -5571.098152 kJ/mol
# Density = 1.906080 g / cm^3
# Si number density = 19.104280 Si / 1000 Ang^3
#
#
#
# Elastic Constant Matrix: (Units=GPa)
#
#
# Indices 1 2 3 4 5 6 
#
# 1 93.7693 27.1707 25.0220 0.0000 0.0000 0.0000
# 2 27.1707 70.8044 27.6179 0.0000 0.0000 0.0000
# 3 25.0220 27.6179 45.7873 0.0000 0.0000 0.0000
# 4 0.0000 0.0000 0.0000 13.7260 0.0000 0.0000
# 5 0.0000 0.0000 0.0000 0.0000 22.7974 0.0000
# 6 0.0000 0.0000 0.0000 0.0000 0.0000 71.6080
#
#
#
# Elastic Compliance Matrix: (Units=1/GPa)
#
#
# Indices 1 2 3 4 5 6 
#
# 1 0.012920 -0.002882 -0.005322 0.000000 0.000000 0.000000
# 2 -0.002882 0.019111 -0.009953 0.000000 0.000000 0.000000
# 3 -0.005322 -0.009953 0.030752 0.000000 0.000000 0.000000
# 4 0.000000 0.000000 0.000000 0.072855 0.000000 0.000000
# 5 0.000000 0.000000 0.000000 0.000000 0.043865 0.000000
# 6 0.000000 0.000000 0.000000 0.000000 0.000000 0.013965
#
#
# Mechanical properties :
#
#
# Convention : Reuss Voigt Hill
#
# Bulk Modulus (GPa) = 37.77924 41.10913 39.44418
# Shear Modulus (GPa) = 20.95525 30.32965 25.64245
#
# Velocity S-wave (km/s) = 3.31552 3.98877 3.66763
# Velocity P-wave (km/s) = 5.87155 6.54055 6.21506
#
# Compressibility (1/GPa) = 0.02646957
#
# Stress axis : x y z
#
# Youngs Moduli (GPa) = 77.40100 52.32463 32.51843
#
# Poissons Ratio (x) = 0.15080 0.17307
# Poissons Ratio (y) = 0.22306 0.32365
# Poissons Ratio (z) = 0.41194 0.52077
#
# Static dielectric constant tensor:
#      x y z
#    x 1.636760 0.000000 0.000000 
#    y 0.000000 1.764860 0.000000 
#    z 0.000000 0.000000 1.560920 
# 
# From -- ./inp_files/24597.got.cif
#   From: 2010.05.17/outbox.cif.g08.bks.cpg/sg60_13_cif.got.tgz:24597.got - 2010.06.03 14:59:27.
