data_PCOD9455298
_publ_section_title
;
Structure prediction by ZEFSAII (Michael W. Deem and Ramdas Pophale) SiO2 
 PCOD9455298
Probable space group: P B C N
;
_chemical_formula_sum "Si O2"
_cell_formula_units_Z 60
_cell_length_a 25.512727
_cell_length_b 20.784760
_cell_length_c 5.141552
_cell_angle_alpha 90.000000
_cell_angle_beta 90.000000
_cell_angle_gamma 90.000000
_cell_volume 2726.441153
_symmetry_space_group_name_H-M "P B C N"
_symmetry_group_IT_number 60
_symmetry_cell_setting 'orthorhombic'
loop_
_space_group_symop_operation_xyz
x,y,z
1/2-x,1/2-y,1/2+z
1/2+x,1/2-y,-z
-x,y,1/2-z
-x,-y,-z
1/2+x,1/2+y,1/2-z
1/2-x,1/2+y,z
x,-y,1/2+z
loop_
_atom_site_type_symbol
_atom_site_label
_atom_site_fract_x
_atom_site_fract_y
_atom_site_fract_z
Si Si1 0.420026 0.754886 0.375283
Si Si2 0.224510 0.166049 0.654949
Si Si3 0.297603 0.956076 0.074383
Si Si4 0.814275 0.225976 0.338942
Si Si5 0.500000 0.138097 0.750000
Si Si6 0.081868 0.457092 0.011601
Si Si7 0.941322 0.179357 0.634377
Si Si8 0.063908 0.963996 0.252880
O O1 0.364745 0.768045 0.237229
O O2 0.459317 0.814511 0.392835
O O3 0.413148 0.726993 0.663194
O O4 0.441671 0.703321 0.162338
O O5 0.257133 0.100337 0.642409
O O6 0.267182 0.223533 0.649731
O O7 0.191816 0.175578 0.394412
O O8 0.189212 0.182904 0.903432
O O9 0.358662 0.932805 0.066254
O O10 0.290789 0.010906 0.293550
O O11 0.463284 0.093980 0.570947
O O12 0.076392 0.514901 0.222033
O O13 0.920635 0.107190 0.662198
O O14 0.000000 0.179126 0.750000
O O15 0.000000 0.965230 0.250000
O O16 0.081546 0.015270 0.467893
#
# Coordination Sequence:
#
# PCOD9455298 Si02
#       8
#     8   8   8   8   4   8   8   8
#     4  12  24  38  58  87 121 163 202 251 304 357
#     4  10  20  40  63  89 118 152 199 250 312 368
#     4  10  20  37  64  96 125 160 201 248 305 379
#     4  10  22  38  62  87 117 156 201 254 304 361
#     4  12  24  40  62  86 126 172 214 248 296 364
#     4  10  23  40  60  90 128 165 207 252 297 351
#     4  11  21  38  54  81 118 149 195 249 294 355
#     4   9  17  30  53  76  95 132 182 230 282 336
#
# _framework density 22.006710999999999
#
# number of rings (size 3 to 8) (size 9 to 14) (size 15 to 20)
#    0.000    1.600    1.333    3.600    0.000    4.267 
#    0.000    5.333    0.000   16.000    0.000    0.000 
#    0.000    0.000    0.000    0.000    0.000    0.000 
#
# Total GULP energy -335117.393353 kJ/mol
# GULP energy per Si atom -5585.289889 kJ/mol
# Density = 2.195662 g / cm^3
# Si number density = 22.006711 Si / 1000 Ang^3
#
#
#
# Elastic Constant Matrix: (Units=GPa)
#
#
# Indices 1 2 3 4 5 6 
#
# 1 67.7798 20.2319 10.7709 0.0000 0.0000 0.0000
# 2 20.2319 67.7869 8.3006 0.0000 0.0000 0.0000
# 3 10.7709 8.3006 92.3447 0.0000 0.0000 0.0000
# 4 0.0000 0.0000 0.0000 5.6735 0.0000 0.0000
# 5 0.0000 0.0000 0.0000 0.0000 24.5989 0.0000
# 6 0.0000 0.0000 0.0000 0.0000 0.0000 26.0166
#
#
#
# Elastic Compliance Matrix: (Units=1/GPa)
#
#
# Indices 1 2 3 4 5 6 
#
# 1 0.016397 -0.004711 -0.001489 0.000000 0.000000 0.000000
# 2 -0.004711 0.016270 -0.000913 0.000000 0.000000 0.000000
# 3 -0.001489 -0.000913 0.011085 0.000000 0.000000 0.000000
# 4 0.000000 0.000000 0.000000 0.176259 0.000000 0.000000
# 5 0.000000 0.000000 0.000000 0.000000 0.040652 0.000000
# 6 0.000000 0.000000 0.000000 0.000000 0.000000 0.038437
#
#
# Mechanical properties :
#
#
# Convention : Reuss Voigt Hill
#
# Bulk Modulus (GPa) = 33.86993 34.05757 33.96375
# Shear Modulus (GPa) = 15.47181 23.83166 19.65173
#
# Velocity S-wave (km/s) = 2.65438 3.29436 2.99153
# Velocity P-wave (km/s) = 4.98182 5.47540 5.23443
#
# Compressibility (1/GPa) = 0.02952472
#
# Stress axis : x y z
#
# Youngs Moduli (GPa) = 60.98822 61.46240 90.21429
#
# Poissons Ratio (x) = 0.28958 0.13433
# Poissons Ratio (y) = 0.28734 0.08236
# Poissons Ratio (z) = 0.09081 0.05611
#
# Static dielectric constant tensor:
#      x y z
#    x 1.872440 0.000000 0.000000 
#    y 0.000000 1.775680 0.000000 
#    z 0.000000 0.000000 1.775410 
# 
# From -- ./inp_files/2604.got.cif
#   From: 2010.05.17/outbox.cif.g08.bks.cpg/sg60_2_cif.got.tgz:2604.got - 2010.06.03 14:59:27.
