data_PCOD9455858
_publ_section_title
;
Structure prediction by ZEFSAII (Michael W. Deem and Ramdas Pophale) SiO2 
 PCOD9455858
Probable space group: P B C N
;
_chemical_formula_sum "Si O2"
_cell_formula_units_Z 40
_cell_length_a 8.432390
_cell_length_b 25.208956
_cell_length_c 9.689879
_cell_angle_alpha 90.000000
_cell_angle_beta 90.000000
_cell_angle_gamma 90.000000
_cell_volume 2059.794522
_symmetry_space_group_name_H-M "P B C N"
_symmetry_group_IT_number 60
_symmetry_cell_setting 'orthorhombic'
loop_
_space_group_symop_operation_xyz
x,y,z
1/2-x,1/2-y,1/2+z
1/2+x,1/2-y,-z
-x,y,1/2-z
-x,-y,-z
1/2+x,1/2+y,1/2-z
1/2-x,1/2+y,z
x,-y,1/2+z
loop_
_atom_site_type_symbol
_atom_site_label
_atom_site_fract_x
_atom_site_fract_y
_atom_site_fract_z
Si Si1 0.913171 0.166059 0.605041
Si Si2 0.632587 0.619569 0.130553
Si Si3 0.068080 0.452531 0.903922
Si Si4 0.105175 0.710946 0.388454
Si Si5 0.938790 0.638943 0.595233
O O1 0.863322 0.227397 0.580007
O O2 0.748301 0.136251 0.604510
O O3 0.000000 0.165555 0.750000
O O4 0.031141 0.137325 0.501016
O O5 0.500000 0.612962 0.250000
O O6 0.746852 0.567595 0.110799
O O7 0.750097 0.670795 0.146311
O O8 0.000000 0.459539 0.750000
O O9 0.000000 0.500000 0.000000
O O10 0.993041 0.403112 0.982738
O O11 0.000000 0.708917 0.250000
O O12 0.012696 0.691271 0.525221
O O13 0.000000 0.630928 0.750000
#
# Coordination Sequence:
#
# PCOD9455858 Si02
#       5
#     8   8   8   8   8
#     4  11  22  35  56  90 126 163 211 258 301 363
#     4  11  22  39  63  91 125 165 211 265 316 374
#     4  11  24  45  68  90 118 160 207 260 332 394
#     4  10  21  36  56  85 126 172 209 249 309 375
#     4  11  22  39  60  86 122 164 205 252 314 382
#
# _framework density 19.419412999999999
#
# number of rings (size 3 to 8) (size 9 to 14) (size 15 to 20)
#    0.000    1.200    0.000    9.000    0.000    6.400 
#    0.000    5.000    0.000    0.000    0.000    0.000 
#    0.000    0.000    0.000    0.000    0.000    0.000 
#
# Total GULP energy -222849.679816 kJ/mol
# GULP energy per Si atom -5571.241995 kJ/mol
# Density = 1.937521 g / cm^3
# Si number density = 19.419413 Si / 1000 Ang^3
#
#
#
# Elastic Constant Matrix: (Units=GPa)
#
#
# Indices 1 2 3 4 5 6 
#
# 1 157.7891 47.8380 54.8075 0.0000 0.0000 0.0000
# 2 47.8380 49.8586 59.9682 0.0000 0.0000 0.0000
# 3 54.8075 59.9682 137.3326 0.0000 0.0000 0.0000
# 4 0.0000 0.0000 0.0000 -36.6093 0.0000 0.0000
# 5 0.0000 0.0000 0.0000 0.0000 42.7739 0.0000
# 6 0.0000 0.0000 0.0000 0.0000 0.0000 14.9406
#
#
#
# Elastic Compliance Matrix: (Units=1/GPa)
#
#
# Indices 1 2 3 4 5 6 
#
# 1 0.008947 -0.009035 0.000375 0.000000 0.000000 0.000000
# 2 -0.009035 0.051366 -0.018824 0.000000 0.000000 0.000000
# 3 0.000375 -0.018824 0.015352 0.000000 0.000000 0.000000
# 4 0.000000 0.000000 0.000000 -0.027315 0.000000 0.000000
# 5 0.000000 0.000000 0.000000 0.000000 0.023379 0.000000
# 6 0.000000 0.000000 0.000000 0.000000 0.000000 0.066932
#
#
# Mechanical properties :
#
#
# Convention : Reuss Voigt Hill
#
# Bulk Modulus (GPa) = 48.31743 74.46752 61.39248
# Shear Modulus (GPa) = 24.93429 16.37880 20.65655
#
# Velocity S-wave (km/s) = 3.58717 2.90733 3.26499
# Velocity P-wave (km/s) = 6.48784 7.04984 6.77467
#
# Compressibility (1/GPa) = 0.02069646
#
# Stress axis : x y z
#
# Youngs Moduli (GPa) = 111.77545 19.46798 65.13814
#
# Poissons Ratio (x) = 0.17588 -0.02440
# Poissons Ratio (y) = 1.00984 1.22618
# Poissons Ratio (z) = -0.04187 0.36647
#
# Static dielectric constant tensor:
#      x y z
#    x 1.713410 0.000000 0.000000 
#    y 0.000000 1.791390 0.000000 
#    z 0.000000 0.000000 1.667810 
# 
# From -- ./inp_files/4004.got.cif
#   From: 2010.05.17/outbox.cif.g08.bks.cpg/sg60_3_cif.got.tgz:4004.got - 2010.06.03 14:59:27.
