data_PCOD9455910
_publ_section_title
;
Structure prediction by ZEFSAII (Michael W. Deem and Ramdas Pophale) SiO2 
 PCOD9455910
Probable space group: P B C N
;
_chemical_formula_sum "Si O2"
_cell_formula_units_Z 56
_cell_length_a 15.685529
_cell_length_b 19.190380
_cell_length_c 8.968362
_cell_angle_alpha 90.000000
_cell_angle_beta 90.000000
_cell_angle_gamma 90.000000
_cell_volume 2699.577964
_symmetry_space_group_name_H-M "P B C N"
_symmetry_group_IT_number 60
_symmetry_cell_setting 'orthorhombic'
loop_
_space_group_symop_operation_xyz
x,y,z
1/2-x,1/2-y,1/2+z
1/2+x,1/2-y,-z
-x,y,1/2-z
-x,-y,-z
1/2+x,1/2+y,1/2-z
1/2-x,1/2+y,z
x,-y,1/2+z
loop_
_atom_site_type_symbol
_atom_site_label
_atom_site_fract_x
_atom_site_fract_y
_atom_site_fract_z
Si Si1 0.877517 0.715055 0.548256
Si Si2 0.744205 0.505443 0.557835
Si Si3 0.628248 0.006569 0.808117
Si Si4 0.500000 0.108596 0.250000
Si Si5 0.303811 0.643687 0.461744
Si Si6 0.000000 0.627637 0.750000
Si Si7 0.703770 0.651170 0.679903
Si Si8 0.864790 0.292908 0.689028
O O1 0.874834 0.798501 0.574778
O O2 0.793035 0.682633 0.623606
O O3 0.865860 0.704836 0.370187
O O4 0.954022 0.675993 0.628890
O O5 0.781950 0.501547 0.391932
O O6 0.836416 0.502834 0.640317
O O7 0.688905 0.436491 0.585775
O O8 0.697100 0.576276 0.602223
O O9 0.572436 0.076377 0.820222
O O10 0.564746 0.942531 0.835029
O O11 0.555651 0.159525 0.148179
O O12 0.293261 0.644368 0.641195
O O13 0.218315 0.671991 0.381869
O O14 0.635172 0.711720 0.644049
#
# Coordination Sequence:
#
# PCOD9455910 Si02
#       8
#     8   8   8   4   8   4   8   8
#     4  10  21  37  58  79 117 155 191 233 288 344
#     4  12  20  39  56  84 118 152 189 242 280 344
#     4  11  25  32  58  87 122 153 184 226 305 347
#     4  11  22  34  52  87 118 148 186 221 288 354
#     4  10  21  37  56  84 109 154 200 236 279 345
#     4  11  22  36  56  91 126 152 188 233 292 364
#     4  10  21  38  56  81 112 153 196 239 285 337
#     4  10  22  37  57  79 116 154 193 236 284 346
#
# _framework density 20.743983
#
# number of rings (size 3 to 8) (size 9 to 14) (size 15 to 20)
#    0.000    1.429    4.286    0.857    2.000    2.286 
#    0.000    0.000    0.000    0.857    0.000    4.000 
#    0.000    0.000    0.000    0.000    0.000    0.000 
#
# Total GULP energy -312441.094255 kJ/mol
# GULP energy per Si atom -5579.305255 kJ/mol
# Density = 2.069677 g / cm^3
# Si number density = 20.743983 Si / 1000 Ang^3
#
#
#
# Elastic Constant Matrix: (Units=GPa)
#
#
# Indices 1 2 3 4 5 6 
#
# 1 32.8934 45.1619 13.3863 0.0000 0.0000 0.0000
# 2 45.1619 226.3092 39.7920 0.0000 0.0000 0.0000
# 3 13.3863 39.7920 39.7052 0.0000 0.0000 0.0000
# 4 0.0000 0.0000 0.0000 25.0820 0.0000 0.0000
# 5 0.0000 0.0000 0.0000 0.0000 17.5812 0.0000
# 6 0.0000 0.0000 0.0000 0.0000 0.0000 43.2084
#
#
#
# Elastic Compliance Matrix: (Units=1/GPa)
#
#
# Indices 1 2 3 4 5 6 
#
# 1 0.043527 -0.007412 -0.007246 0.000000 0.000000 0.000000
# 2 -0.007412 0.006626 -0.004142 0.000000 0.000000 0.000000
# 3 -0.007246 -0.004142 0.031779 0.000000 0.000000 0.000000
# 4 0.000000 0.000000 0.000000 0.039869 0.000000 0.000000
# 5 0.000000 0.000000 0.000000 0.000000 0.056879 0.000000
# 6 0.000000 0.000000 0.000000 0.000000 0.000000 0.023144
#
#
# Mechanical properties :
#
#
# Convention : Reuss Voigt Hill
#
# Bulk Modulus (GPa) = 22.55706 55.06536 38.81121
# Shear Modulus (GPa) = 19.66941 30.54549 25.10745
#
# Velocity S-wave (km/s) = 3.08262 3.84148 3.48278
# Velocity P-wave (km/s) = 4.85466 6.80285 5.90959
#
# Compressibility (1/GPa) = 0.04433201
#
# Stress axis : x y z
#
# Youngs Moduli (GPa) = 22.97435 150.91843 31.46688
#
# Poissons Ratio (x) = 1.11861 0.22802
# Poissons Ratio (y) = 0.17029 0.13033
# Poissons Ratio (z) = 0.16648 0.62506
#
# Static dielectric constant tensor:
#      x y z
#    x 1.731570 0.000000 0.000000 
#    y 0.000000 1.801030 0.000000 
#    z 0.000000 0.000000 1.762180 
# 
# From -- ./inp_files/7547.got.cif
#   From: 2010.05.17/outbox.cif.g08.bks.cpg/sg60_4_cif.got.tgz:7547.got - 2010.06.03 14:59:27.
