data_PCOD9455741
_publ_section_title
;
Structure prediction by ZEFSAII (Michael W. Deem and Ramdas Pophale) SiO2 
 PCOD9455741
Probable space group: P B C N
;
_chemical_formula_sum "Si O2"
_cell_formula_units_Z 36
_cell_length_a 11.838988
_cell_length_b 12.024988
_cell_length_c 12.190680
_cell_angle_alpha 90.000000
_cell_angle_beta 90.000000
_cell_angle_gamma 90.000000
_cell_volume 1735.510172
_symmetry_space_group_name_H-M "P B C N"
_symmetry_group_IT_number 60
_symmetry_cell_setting 'orthorhombic'
loop_
_space_group_symop_operation_xyz
x,y,z
1/2-x,1/2-y,1/2+z
1/2+x,1/2-y,-z
-x,y,1/2-z
-x,-y,-z
1/2+x,1/2+y,1/2-z
1/2-x,1/2+y,z
x,-y,1/2+z
loop_
_atom_site_type_symbol
_atom_site_label
_atom_site_fract_x
_atom_site_fract_y
_atom_site_fract_z
Si Si1 0.971078 0.099826 0.080861
Si Si2 0.909750 0.469438 0.349817
Si Si3 0.159668 0.014957 0.225778
Si Si4 0.500000 0.688776 0.750000
Si Si5 0.986204 0.682118 0.035603
O O1 0.866188 0.058278 0.152564
O O2 0.949975 0.217167 0.024862
O O3 0.086286 0.101627 0.153407
O O4 0.000000 0.000000 0.000000
O O5 0.788515 0.496586 0.299967
O O6 0.943285 0.578501 0.419356
O O7 0.000000 0.450295 0.250000
O O8 0.908246 0.370296 0.439853
O O9 0.096684 0.896468 0.210924
O O10 0.551705 0.760528 0.650288
#
# Coordination Sequence:
#
# PCOD9455741 Si02
#       5
#     8   8   8   4   8
#     4  10  20  43  73 103 130 176 242 288 335 403
#     4  11  27  47  62 102 152 184 224 282 362 425
#     4  10  23  43  71 102 136 177 238 290 342 411
#     4  10  20  48  70 100 136 176 244 292 332 410
#     4  11  23  47  67  99 145 184 230 282 352 420
#
# _framework density 20.743179999999999
#
# number of rings (size 3 to 8) (size 9 to 14) (size 15 to 20)
#    0.000    1.778    5.556    0.000    3.111    5.333 
#    8.000    0.000    0.000    0.000    0.000    0.000 
#    0.000    0.000    0.000    0.000    0.000    0.000 
#
# Total GULP energy -200530.483843 kJ/mol
# GULP energy per Si atom -5570.291218 kJ/mol
# Density = 2.069597 g / cm^3
# Si number density = 20.743180 Si / 1000 Ang^3
#
#
#
# Elastic Constant Matrix: (Units=GPa)
#
#
# Indices 1 2 3 4 5 6 
#
# 1 102.5173 -7.0195 41.2909 0.0000 0.0000 0.0000
# 2 -7.0195 97.9519 42.4768 0.0000 0.0000 0.0000
# 3 41.2909 42.4768 131.2294 0.0000 0.0000 0.0000
# 4 0.0000 0.0000 0.0000 52.3174 0.0000 0.0000
# 5 0.0000 0.0000 0.0000 0.0000 22.9738 0.0000
# 6 0.0000 0.0000 0.0000 0.0000 0.0000 8.2109
#
#
#
# Elastic Compliance Matrix: (Units=1/GPa)
#
#
# Indices 1 2 3 4 5 6 
#
# 1 0.011822 0.002862 -0.004646 0.000000 0.000000 0.000000
# 2 0.002862 0.012569 -0.004969 0.000000 0.000000 0.000000
# 3 -0.004646 -0.004969 0.010690 0.000000 0.000000 0.000000
# 4 0.000000 0.000000 0.000000 0.019114 0.000000 0.000000
# 5 0.000000 0.000000 0.000000 0.000000 0.043528 0.000000
# 6 0.000000 0.000000 0.000000 0.000000 0.000000 0.121789
#
#
# Mechanical properties :
#
#
# Convention : Reuss Voigt Hill
#
# Bulk Modulus (GPa) = 46.34961 53.91055 50.13008
# Shear Modulus (GPa) = 20.81517 33.69712 27.25614
#
# Velocity S-wave (km/s) = 3.17120 4.03487 3.62882
# Velocity P-wave (km/s) = 5.98345 6.91034 6.46353
#
# Compressibility (1/GPa) = 0.02157516
#
# Stress axis : x y z
#
# Youngs Moduli (GPa) = 84.59026 79.56134 93.54159
#
# Poissons Ratio (x) = -0.22770 0.43460
# Poissons Ratio (y) = -0.24209 0.46479
# Poissons Ratio (z) = 0.39301 0.39533
#
# Static dielectric constant tensor:
#      x y z
#    x 1.713770 0.000000 0.000000 
#    y 0.000000 1.740440 0.000000 
#    z 0.000000 0.000000 1.877190 
# 
# From -- ./inp_files/10666.got.cif
#   From: 2010.05.17/outbox.cif.g08.bks.cpg/sg60_6_cif.got.tgz:10666.got - 2010.06.03 14:59:27.
