data_PCOD9455671
_publ_section_title
;
Structure prediction by ZEFSAII (Michael W. Deem and Ramdas Pophale) SiO2 
 PCOD9455671
Probable space group: P B C N
;
_chemical_formula_sum "Si O2"
_cell_formula_units_Z 32
_cell_length_a 5.060880
_cell_length_b 20.105062
_cell_length_c 13.408150
_cell_angle_alpha 90.000000
_cell_angle_beta 90.000000
_cell_angle_gamma 90.000000
_cell_volume 1364.269960
_symmetry_space_group_name_H-M "P B C N"
_symmetry_group_IT_number 60
_symmetry_cell_setting 'orthorhombic'
loop_
_space_group_symop_operation_xyz
x,y,z
1/2-x,1/2-y,1/2+z
1/2+x,1/2-y,-z
-x,y,1/2-z
-x,-y,-z
1/2+x,1/2+y,1/2-z
1/2-x,1/2+y,z
x,-y,1/2+z
loop_
_atom_site_type_symbol
_atom_site_label
_atom_site_fract_x
_atom_site_fract_y
_atom_site_fract_z
Si Si1 0.327285 0.333855 0.410103
Si Si2 0.000000 0.585179 0.750000
Si Si3 0.918628 0.122819 0.104325
Si Si4 0.500000 0.495521 0.750000
Si Si5 0.898851 0.708246 0.394214
O O1 0.990543 0.119999 0.512213
O O2 0.131519 0.371230 0.337227
O O3 0.156199 0.288697 0.486539
O O4 0.751643 0.539526 0.781002
O O5 0.473361 0.718326 0.639900
O O6 0.142332 0.172325 0.148937
O O7 0.638737 0.157411 0.117730
O O8 0.924906 0.052731 0.158784
#
# Coordination Sequence:
#
# PCOD9455671 Si02
#       5
#     8   4   8   4   8
#     4  10  23  44  70 103 132 175 224 296 363 417
#     4  12  30  41  68  97 146 178 244 272 346 408
#     4  10  22  42  71  89 140 170 235 273 351 401
#     4  12  28  47  58 105 136 196 238 272 318 442
#     4  10  20  41  72 101 124 171 220 293 364 419
#
# _framework density 23.455770000000001
#
# number of rings (size 3 to 8) (size 9 to 14) (size 15 to 20)
#    1.500    0.000    2.500    1.500    3.500    3.000 
#    0.000    0.000    0.000    0.000    0.000    0.000 
#    0.000    0.000    0.000    0.000    0.000    0.000 
#
# Total GULP energy -178891.648593 kJ/mol
# GULP energy per Si atom -5590.364019 kJ/mol
# Density = 2.340238 g / cm^3
# Si number density = 23.455770 Si / 1000 Ang^3
#
#
#
# Elastic Constant Matrix: (Units=GPa)
#
#
# Indices 1 2 3 4 5 6 
#
# 1 130.4471 20.8621 5.0505 0.0000 0.0000 0.0000
# 2 20.8621 83.1512 26.7769 0.0000 0.0000 0.0000
# 3 5.0505 26.7769 91.0436 0.0000 0.0000 0.0000
# 4 0.0000 0.0000 0.0000 21.7383 0.0000 0.0000
# 5 0.0000 0.0000 0.0000 0.0000 24.8890 0.0000
# 6 0.0000 0.0000 0.0000 0.0000 0.0000 119.4260
#
#
#
# Elastic Compliance Matrix: (Units=1/GPa)
#
#
# Indices 1 2 3 4 5 6 
#
# 1 0.007989 -0.002056 0.000162 0.000000 0.000000 0.000000
# 2 -0.002056 0.013814 -0.003949 0.000000 0.000000 0.000000
# 3 0.000162 -0.003949 0.012136 0.000000 0.000000 0.000000
# 4 0.000000 0.000000 0.000000 0.046002 0.000000 0.000000
# 5 0.000000 0.000000 0.000000 0.000000 0.040178 0.000000
# 6 0.000000 0.000000 0.000000 0.000000 0.000000 0.008373
#
#
# Mechanical properties :
#
#
# Convention : Reuss Voigt Hill
#
# Bulk Modulus (GPa) = 44.94045 45.55790 45.24918
# Shear Modulus (GPa) = 33.87624 50.00747 41.94186
#
# Velocity S-wave (km/s) = 3.80447 4.62236 4.23321
# Velocity P-wave (km/s) = 6.20483 6.92483 6.57469
#
# Compressibility (1/GPa) = 0.02225167
#
# Stress axis : x y z
#
# Youngs Moduli (GPa) = 125.17916 72.39138 82.39846
#
# Poissons Ratio (x) = 0.14886 -0.01332
# Poissons Ratio (y) = 0.25741 0.32537
# Poissons Ratio (z) = -0.02023 0.28585
#
# Static dielectric constant tensor:
#      x y z
#    x 1.882890 0.000000 0.000000 
#    y 0.000000 1.868210 0.000000 
#    z 0.000000 0.000000 1.970130 
# 
# From -- ./inp_files/21440.got.cif
#   From: 2010.05.17/outbox.cif.g08.bks.cpg/sg60_11_cif.got.tgz:21440.got - 2010.06.03 14:59:27.
