data_PCOD9455407
_publ_section_title
;
Structure prediction by ZEFSAII (Michael W. Deem and Ramdas Pophale) SiO2 
 PCOD9455407
Probable space group: P B C N
;
_chemical_formula_sum "Si O2"
_cell_formula_units_Z 52
_cell_length_a 15.125758
_cell_length_b 8.838652
_cell_length_c 20.120218
_cell_angle_alpha 90.000000
_cell_angle_beta 90.000000
_cell_angle_gamma 90.000000
_cell_volume 2689.898326
_symmetry_space_group_name_H-M "P B C N"
_symmetry_group_IT_number 60
_symmetry_cell_setting 'orthorhombic'
loop_
_space_group_symop_operation_xyz
x,y,z
1/2-x,1/2-y,1/2+z
1/2+x,1/2-y,-z
-x,y,1/2-z
-x,-y,-z
1/2+x,1/2+y,1/2-z
1/2-x,1/2+y,z
x,-y,1/2+z
loop_
_atom_site_type_symbol
_atom_site_label
_atom_site_fract_x
_atom_site_fract_y
_atom_site_fract_z
Si Si1 0.322751 0.787670 0.758100
Si Si2 0.748199 0.688278 0.099337
Si Si3 0.539896 0.544093 0.401913
Si Si4 0.650164 0.442749 0.769092
Si Si5 0.630504 0.419165 0.041214
Si Si6 0.924328 0.714288 0.657813
Si Si7 0.000000 0.457821 0.750000
O O1 0.299932 0.844118 0.832382
O O2 0.326012 0.606344 0.760465
O O3 0.240017 0.850293 0.715883
O O4 0.415294 0.855120 0.733862
O O5 0.695424 0.548042 0.069389
O O6 0.817009 0.764168 0.049688
O O7 0.669529 0.803842 0.121508
O O8 0.593926 0.523411 0.334602
O O9 0.459516 0.427492 0.415069
O O10 0.601190 0.545679 0.466455
O O11 0.491262 0.705352 0.392607
O O12 0.597626 0.337693 0.716389
O O13 0.967676 0.569230 0.691330
#
# Coordination Sequence:
#
# PCOD9455407 Si02
#       7
#     8   8   8   8   8   8   4
#     4  11  24  35  62  92 122 155 204 246 319 359
#     4  10  20  40  59  84 116 157 202 243 294 370
#     4  10  21  38  63  86 118 160 209 237 312 362
#     4  11  22  40  60  92 124 160 193 262 309 362
#     4  10  22  38  64  83 114 168 204 241 291 374
#     4  10  20  38  64  85 123 156 192 254 315 359
#     4  12  22  34  58  98 116 156 192 248 310 364
#
# _framework density 19.331586999999999
#
# number of rings (size 3 to 8) (size 9 to 14) (size 15 to 20)
#    0.000    1.538    1.538    5.538    4.308    1.231 
#    0.000    0.000    0.000    3.692    0.000    0.000 
#    0.000    0.000    0.000    0.000    0.000    0.000 
#
# Total GULP energy -290306.487338 kJ/mol
# GULP energy per Si atom -5582.817064 kJ/mol
# Density = 1.928759 g / cm^3
# Si number density = 19.331587 Si / 1000 Ang^3
#
#
#
# Elastic Constant Matrix: (Units=GPa)
#
#
# Indices 1 2 3 4 5 6 
#
# 1 119.3408 39.9838 46.1095 0.0000 0.0000 0.0000
# 2 39.9838 65.1553 11.0771 0.0000 0.0000 0.0000
# 3 46.1095 11.0771 74.2865 0.0000 0.0000 0.0000
# 4 0.0000 0.0000 0.0000 15.7269 0.0000 0.0000
# 5 0.0000 0.0000 0.0000 0.0000 39.7325 0.0000
# 6 0.0000 0.0000 0.0000 0.0000 0.0000 29.7106
#
#
#
# Elastic Compliance Matrix: (Units=1/GPa)
#
#
# Indices 1 2 3 4 5 6 
#
# 1 0.013613 -0.007097 -0.007391 0.000000 0.000000 0.000000
# 2 -0.007097 0.019447 0.001505 0.000000 0.000000 0.000000
# 3 -0.007391 0.001505 0.017825 0.000000 0.000000 0.000000
# 4 0.000000 0.000000 0.000000 0.063585 0.000000 0.000000
# 5 0.000000 0.000000 0.000000 0.000000 0.025168 0.000000
# 6 0.000000 0.000000 0.000000 0.000000 0.000000 0.033658
#
#
# Mechanical properties :
#
#
# Convention : Reuss Voigt Hill
#
# Bulk Modulus (GPa) = 40.13035 50.34702 45.23869
# Shear Modulus (GPa) = 24.08838 27.80816 25.94827
#
# Velocity S-wave (km/s) = 3.53379 3.79685 3.66768
# Velocity P-wave (km/s) = 6.11999 6.73215 6.43336
#
# Compressibility (1/GPa) = 0.02491880
#
# Stress axis : x y z
#
# Youngs Moduli (GPa) = 73.45934 51.42078 56.10203
#
# Poissons Ratio (x) = 0.36495 0.41466
# Poissons Ratio (y) = 0.52136 -0.08446
# Poissons Ratio (z) = 0.54296 -0.07741
#
# Static dielectric constant tensor:
#      x y z
#    x 1.705710 0.000000 0.000000 
#    y 0.000000 1.681880 0.000000 
#    z 0.000000 0.000000 1.663020 
# 
# From -- ./inp_files/22850.got.cif
#   From: 2010.05.17/outbox.cif.g08.bks.cpg/sg60_12_cif.got.tgz:22850.got - 2010.06.03 14:59:27.
