data_PCOD9455306
_publ_section_title
;
Structure prediction by ZEFSAII (Michael W. Deem and Ramdas Pophale) SiO2 
 PCOD9455306
Probable space group: P B C N
;
_chemical_formula_sum "Si O2"
_cell_formula_units_Z 40
_cell_length_a 5.029780
_cell_length_b 18.529517
_cell_length_c 17.075575
_cell_angle_alpha 90.000000
_cell_angle_beta 90.000000
_cell_angle_gamma 90.000000
_cell_volume 1591.433242
_symmetry_space_group_name_H-M "P B C N"
_symmetry_group_IT_number 60
_symmetry_cell_setting 'orthorhombic'
loop_
_space_group_symop_operation_xyz
x,y,z
1/2-x,1/2-y,1/2+z
1/2+x,1/2-y,-z
-x,y,1/2-z
-x,-y,-z
1/2+x,1/2+y,1/2-z
1/2-x,1/2+y,z
x,-y,1/2+z
loop_
_atom_site_type_symbol
_atom_site_label
_atom_site_fract_x
_atom_site_fract_y
_atom_site_fract_z
Si Si1 0.315334 0.586016 0.682586
Si Si2 0.130810 0.270130 0.143506
Si Si3 0.392475 0.675370 0.935685
Si Si4 0.971440 0.477562 0.592681
Si Si5 0.031083 0.122557 0.108739
O O1 0.500000 0.554323 0.750000
O O2 0.220923 0.667646 0.704428
O O3 0.695134 0.438004 0.610353
O O4 0.066987 0.541330 0.650741
O O5 0.409828 0.262742 0.096442
O O6 0.023553 0.191857 0.165184
O O7 0.907127 0.307338 0.088385
O O8 0.493117 0.603393 0.890935
O O9 0.466732 0.660672 0.024085
O O10 0.000000 0.500000 0.500000
O O11 0.191805 0.417888 0.612257
#
# Coordination Sequence:
#
# PCOD9455306 Si02
#       5
#     8   8   8   8   8
#     4  10  25  44  68 100 139 190 242 291 366 461
#     4  10  22  39  64 101 130 182 234 295 363 433
#     4  10  20  37  66  98 132 177 232 295 356 428
#     4  12  24  40  66 105 142 186 233 303 374 447
#     4  12  22  39  67 100 144 173 237 306 373 423
#
# _framework density 25.134577
#
# number of rings (size 3 to 8) (size 9 to 14) (size 15 to 20)
#    1.200    0.000    2.000    5.400    2.800    0.800 
#    0.000    0.000    4.400    0.000    0.000    0.000 
#    0.000    0.000    0.000    0.000    0.000    0.000 
#
# Total GULP energy -223443.563906 kJ/mol
# GULP energy per Si atom -5586.089098 kJ/mol
# Density = 2.507737 g / cm^3
# Si number density = 25.134577 Si / 1000 Ang^3
#
#
#
# Elastic Constant Matrix: (Units=GPa)
#
#
# Indices 1 2 3 4 5 6 
#
# 1 112.8102 25.0977 24.2144 0.0000 0.0000 0.0000
# 2 25.0977 148.5265 16.7809 0.0000 0.0000 0.0000
# 3 24.2144 16.7809 87.3252 0.0000 0.0000 0.0000
# 4 0.0000 0.0000 0.0000 -3.8710 0.0000 0.0000
# 5 0.0000 0.0000 0.0000 0.0000 30.7601 0.0000
# 6 0.0000 0.0000 0.0000 0.0000 0.0000 50.9247
#
#
#
# Elastic Compliance Matrix: (Units=1/GPa)
#
#
# Indices 1 2 3 4 5 6 
#
# 1 0.009688 -0.001363 -0.002424 0.000000 0.000000 0.000000
# 2 -0.001363 0.007074 -0.000981 0.000000 0.000000 0.000000
# 3 -0.002424 -0.000981 0.012312 0.000000 0.000000 0.000000
# 4 0.000000 0.000000 0.000000 -0.258329 0.000000 0.000000
# 5 0.000000 0.000000 0.000000 0.000000 0.032510 0.000000
# 6 0.000000 0.000000 0.000000 0.000000 0.000000 0.019637
#
#
# Mechanical properties :
#
#
# Convention : Reuss Voigt Hill
#
# Bulk Modulus (GPa) = 51.18643 53.42755 52.30699
# Shear Modulus (GPa) = -31.04466 34.40068 1.67801
#
# Velocity S-wave (km/s) = -3.51826 3.70355 0.81796
# Velocity P-wave (km/s) = 1.97608 6.29215 4.66348
#
# Compressibility (1/GPa) = 0.01953643
#
# Stress axis : x y z
#
# Youngs Moduli (GPa) = 103.21923 141.36215 81.21952
#
# Poissons Ratio (x) = 0.19270 0.19691
# Poissons Ratio (y) = 0.14070 0.07971
# Poissons Ratio (z) = 0.25025 0.13873
#
# Static dielectric constant tensor:
#      x y z
#    x 2.010620 0.000000 0.000000 
#    y 0.000000 2.163500 0.000000 
#    z 0.000000 0.000000 2.068820 
# 
# From -- ./inp_files/21529.got.cif
#   From: 2010.05.17/outbox.cif.g08.bks.cpg/sg60_11_cif.got.tgz:21529.got - 2010.06.03 14:59:27.
