data_PCOD9455803
_publ_section_title
;
Structure prediction by ZEFSAII (Michael W. Deem and Ramdas Pophale) SiO2 
 PCOD9455803
Probable space group: P B C N
;
_chemical_formula_sum "Si O2"
_cell_formula_units_Z 48
_cell_length_a 29.298464
_cell_length_b 7.523369
_cell_length_c 9.291729
_cell_angle_alpha 90.000000
_cell_angle_beta 90.000000
_cell_angle_gamma 90.000000
_cell_volume 2048.112229
_symmetry_space_group_name_H-M "P B C N"
_symmetry_group_IT_number 60
_symmetry_cell_setting 'orthorhombic'
loop_
_space_group_symop_operation_xyz
x,y,z
1/2-x,1/2-y,1/2+z
1/2+x,1/2-y,-z
-x,y,1/2-z
-x,-y,-z
1/2+x,1/2+y,1/2-z
1/2-x,1/2+y,z
x,-y,1/2+z
loop_
_atom_site_type_symbol
_atom_site_label
_atom_site_fract_x
_atom_site_fract_y
_atom_site_fract_z
Si Si1 0.540455 0.159501 0.854766
Si Si2 0.369663 0.045655 0.779477
Si Si3 0.886979 0.734359 0.441440
Si Si4 0.279238 0.742251 0.208212
Si Si5 0.515531 0.738874 0.898767
Si Si6 0.205411 0.076201 0.515206
O O1 0.500000 0.219855 0.750000
O O2 0.590893 0.169367 0.792329
O O3 0.529720 0.948126 0.876452
O O4 0.528058 0.258295 0.000036
O O5 0.319143 0.114938 0.742186
O O6 0.377965 0.850504 0.715241
O O7 0.380818 0.068645 0.947653
O O8 0.935896 0.827330 0.454448
O O9 0.846368 0.861352 0.485006
O O10 0.274617 0.630662 0.358133
O O11 0.294080 0.623907 0.071210
O O12 0.233330 0.826201 0.143561
O O13 0.500000 0.658326 0.750000
#
# Coordination Sequence:
#
# PCOD9455803 Si02
#       6
#     8   8   8   8   8   8
#     4   9  15  28  48  75 113 148 187 231 278 324
#     4  10  21  34  56  86 116 151 191 235 285 338
#     4  10  21  35  55  85 119 150 190 236 285 337
#     4  11  24  43  63  88 116 150 192 236 293 348
#     4   9  17  28  46  79 113 149 189 233 278 328
#     4  11  24  43  64  87 117 150 190 240 289 351
#
# _framework density 23.436214
#
# number of rings (size 3 to 8) (size 9 to 14) (size 15 to 20)
#    0.000    2.000    1.667    2.000    7.000    5.333 
#    0.000    0.000    0.000    2.000    0.000    0.000 
#    0.000    0.000    0.000    0.000    0.000    0.000 
#
# Total GULP energy -267892.537539 kJ/mol
# GULP energy per Si atom -5581.094532 kJ/mol
# Density = 2.338287 g / cm^3
# Si number density = 23.436214 Si / 1000 Ang^3
#
#
#
# Elastic Constant Matrix: (Units=GPa)
#
#
# Indices 1 2 3 4 5 6 
#
# 1 94.3328 -3.3242 21.0469 0.0000 0.0000 0.0000
# 2 -3.3242 29.7071 -1.4642 0.0000 0.0000 0.0000
# 3 21.0469 -1.4642 69.8083 0.0000 0.0000 0.0000
# 4 0.0000 0.0000 0.0000 10.2796 0.0000 0.0000
# 5 0.0000 0.0000 0.0000 0.0000 9.6668 0.0000
# 6 0.0000 0.0000 0.0000 0.0000 0.0000 8.5842
#
#
#
# Elastic Compliance Matrix: (Units=1/GPa)
#
#
# Indices 1 2 3 4 5 6 
#
# 1 0.011402 0.001108 -0.003414 0.000000 0.000000 0.000000
# 2 0.001108 0.033804 0.000375 0.000000 0.000000 0.000000
# 3 -0.003414 0.000375 0.015362 0.000000 0.000000 0.000000
# 4 0.000000 0.000000 0.000000 0.097280 0.000000 0.000000
# 5 0.000000 0.000000 0.000000 0.000000 0.103447 0.000000
# 6 0.000000 0.000000 0.000000 0.000000 0.000000 0.116493
#
#
# Mechanical properties :
#
#
# Convention : Reuss Voigt Hill
#
# Bulk Modulus (GPa) = 17.63516 25.15170 21.39343
# Shear Modulus (GPa) = 12.48272 17.54542 15.01407
#
# Velocity S-wave (km/s) = 2.31037 2.73911 2.53382
# Velocity P-wave (km/s) = 3.82860 4.55619 4.20815
#
# Compressibility (1/GPa) = 0.05670489
#
# Stress axis : x y z
#
# Youngs Moduli (GPa) = 87.70728 29.58193 65.09482
#
# Poissons Ratio (x) = -0.03276 0.22225
# Poissons Ratio (y) = -0.09714 -0.02442
# Poissons Ratio (z) = 0.29946 -0.01110
#
# Static dielectric constant tensor:
#      x y z
#    x 1.863290 0.000000 0.000000 
#    y 0.000000 1.946750 0.000000 
#    z 0.000000 0.000000 -2.271670 
# 
# From -- ./inp_files/8382.got.cif
#   From: 2010.05.17/outbox.cif.g08.bks.cpg/sg60_5_cif.got.tgz:8382.got - 2010.06.03 14:59:27.
