data_PCOD9456527
_publ_section_title
;
Structure prediction by ZEFSAII (Michael W. Deem and Ramdas Pophale) SiO2 
 PCOD9456527
Probable space group: P B C N
;
_chemical_formula_sum "Si O2"
_cell_formula_units_Z 40
_cell_length_a 6.350421
_cell_length_b 12.028504
_cell_length_c 20.261036
_cell_angle_alpha 90.000000
_cell_angle_beta 90.000000
_cell_angle_gamma 90.000000
_cell_volume 1547.660801
_symmetry_space_group_name_H-M "P B C N"
_symmetry_group_IT_number 60
_symmetry_cell_setting 'orthorhombic'
loop_
_space_group_symop_operation_xyz
x,y,z
1/2-x,1/2-y,1/2+z
1/2+x,1/2-y,-z
-x,y,1/2-z
-x,-y,-z
1/2+x,1/2+y,1/2-z
1/2-x,1/2+y,z
x,-y,1/2+z
loop_
_atom_site_type_symbol
_atom_site_label
_atom_site_fract_x
_atom_site_fract_y
_atom_site_fract_z
Si Si1 0.539403 0.301234 0.680096
Si Si2 0.878688 0.594809 0.038151
Si Si3 0.794579 0.217516 0.914588
Si Si4 0.319831 0.978567 0.828865
Si Si5 0.195358 0.962407 0.192625
O O1 0.500000 0.242007 0.750000
O O2 0.439848 0.246116 0.615644
O O3 0.775533 0.348071 0.687000
O O4 0.412335 0.418162 0.680931
O O5 0.047528 0.680274 0.071068
O O6 0.754825 0.526869 0.094852
O O7 0.000000 0.500000 0.000000
O O8 0.737887 0.658280 0.984815
O O9 0.625503 0.634306 0.857078
O O10 0.560429 0.013022 0.825520
O O11 0.204159 0.051228 0.772614
#
# Coordination Sequence:
#
# PCOD9456527 Si02
#       5
#     8   8   8   8   8
#     4  10  22  41  66  98 134 179 235 294 353 419
#     4  12  25  44  69 102 147 186 234 299 357 424
#     4  12  24  43  69 103 140 192 240 284 363 438
#     4  10  21  44  66  93 138 179 221 299 352 401
#     4  10  22  44  67  97 135 181 233 294 350 422
#
# _framework density 25.845458000000001
#
# number of rings (size 3 to 8) (size 9 to 14) (size 15 to 20)
#    0.000    1.200    4.000    1.200    2.800    1.600 
#    3.600   10.000    0.000    0.000    0.000    0.000 
#    0.000    0.000    0.000    0.000    0.000    0.000 
#
# Total GULP energy -223153.737016 kJ/mol
# GULP energy per Si atom -5578.843425 kJ/mol
# Density = 2.578663 g / cm^3
# Si number density = 25.845458 Si / 1000 Ang^3
#
#
#
# Elastic Constant Matrix: (Units=GPa)
#
#
# Indices 1 2 3 4 5 6 
#
# 1 56.9045 41.4905 44.5594 0.0000 0.0000 0.0000
# 2 41.4905 121.2202 70.8245 0.0000 0.0000 0.0000
# 3 44.5594 70.8245 230.0777 0.0000 0.0000 0.0000
# 4 0.0000 0.0000 0.0000 52.9497 0.0000 0.0000
# 5 0.0000 0.0000 0.0000 0.0000 55.4875 0.0000
# 6 0.0000 0.0000 0.0000 0.0000 0.0000 40.8356
#
#
#
# Elastic Compliance Matrix: (Units=1/GPa)
#
#
# Indices 1 2 3 4 5 6 
#
# 1 0.024682 -0.006895 -0.002658 0.000000 0.000000 0.000000
# 2 -0.006895 0.011985 -0.002354 0.000000 0.000000 0.000000
# 3 -0.002658 -0.002354 0.005586 0.000000 0.000000 0.000000
# 4 0.000000 0.000000 0.000000 0.018886 0.000000 0.000000
# 5 0.000000 0.000000 0.000000 0.000000 0.018022 0.000000
# 6 0.000000 0.000000 0.000000 0.000000 0.000000 0.024488
#
#
# Mechanical properties :
#
#
# Convention : Reuss Voigt Hill
#
# Bulk Modulus (GPa) = 54.23317 80.21679 67.22498
# Shear Modulus (GPa) = 37.42285 46.60976 42.01631
#
# Velocity S-wave (km/s) = 3.80932 4.25126 4.03634
# Velocity P-wave (km/s) = 6.35429 7.42981 6.91300
#
# Compressibility (1/GPa) = 0.01843890
#
# Stress axis : x y z
#
# Youngs Moduli (GPa) = 40.51566 83.43932 179.03041
#
# Poissons Ratio (x) = 0.57533 0.47579
# Poissons Ratio (y) = 0.27936 0.42141
# Poissons Ratio (z) = 0.10767 0.19640
#
# Static dielectric constant tensor:
#      x y z
#    x 2.363470 0.000000 0.000000 
#    y 0.000000 2.020620 0.000000 
#    z 0.000000 0.000000 2.150560 
# 
# From -- ./inp_files/21989.got.cif
#   From: 2010.05.17/outbox.cif.g08.bks.cpg/sg60_11_cif.got.tgz:21989.got - 2010.06.03 14:59:27.
