data_PCOD9456038
_publ_section_title
;
Structure prediction by ZEFSAII (Michael W. Deem and Ramdas Pophale) SiO2 
 PCOD9456038
Probable space group: P B C N
;
_chemical_formula_sum "Si O2"
_cell_formula_units_Z 32
_cell_length_a 6.324968
_cell_length_b 26.888975
_cell_length_c 6.971064
_cell_angle_alpha 90.000000
_cell_angle_beta 90.000000
_cell_angle_gamma 90.000000
_cell_volume 1185.582144
_symmetry_space_group_name_H-M "P B C N"
_symmetry_group_IT_number 60
_symmetry_cell_setting 'orthorhombic'
loop_
_space_group_symop_operation_xyz
x,y,z
1/2-x,1/2-y,1/2+z
1/2+x,1/2-y,-z
-x,y,1/2-z
-x,-y,-z
1/2+x,1/2+y,1/2-z
1/2-x,1/2+y,z
x,-y,1/2+z
loop_
_atom_site_type_symbol
_atom_site_label
_atom_site_fract_x
_atom_site_fract_y
_atom_site_fract_z
Si Si1 0.000000 0.477877 0.750000
Si Si2 0.000000 0.769550 0.250000
Si Si3 0.745802 0.313928 0.920443
Si Si4 0.253580 0.938554 0.081680
Si Si5 0.500000 0.400313 0.750000
Si Si6 0.000000 0.645858 0.750000
O O1 0.795536 0.512936 0.788943
O O2 0.949382 0.445390 0.566479
O O3 0.803594 0.733162 0.292027
O O4 0.053258 0.801514 0.436728
O O5 0.690631 0.362710 0.799737
O O6 0.942323 0.323456 0.062483
O O7 0.301878 0.890097 0.205354
O O8 0.056585 0.931059 0.941524
#
# Coordination Sequence:
#
# PCOD9456038 Si02
#       6
#     4   4   8   8   4   4
#     4   9  20  41  62  87 124 166 200 243 304 363
#     4  12  24  41  62  88 122 160 204 250 304 359
#     4  12  24  41  63  90 123 161 204 252 303 359
#     4  10  21  38  62  89 123 161 201 246 302 361
#     4  12  24  39  62  94 124 154 202 254 302 357
#     4  11  22  41  64  87 122 164 204 245 300 361
#
# _framework density 26.990960999999999
#
# number of rings (size 3 to 8) (size 9 to 14) (size 15 to 20)
#    0.000    1.000    0.000    7.500    0.000    1.000 
#    0.000    0.000    0.000    0.000    0.000    0.000 
#    0.000    0.000    0.000    0.000    0.000    0.000 
#
# Total GULP energy -179339.849550 kJ/mol
# GULP energy per Si atom -5604.370298 kJ/mol
# Density = 2.692953 g / cm^3
# Si number density = 26.990961 Si / 1000 Ang^3
#
#
#
# Elastic Constant Matrix: (Units=GPa)
#
#
# Indices 1 2 3 4 5 6 
#
# 1 63.1557 29.8729 18.9842 0.0000 0.0000 0.0000
# 2 29.8729 74.8238 25.6894 0.0000 0.0000 0.0000
# 3 18.9842 25.6894 92.4534 0.0000 0.0000 0.0000
# 4 0.0000 0.0000 0.0000 31.4907 0.0000 0.0000
# 5 0.0000 0.0000 0.0000 0.0000 72.4221 0.0000
# 6 0.0000 0.0000 0.0000 0.0000 0.0000 42.3610
#
#
#
# Elastic Compliance Matrix: (Units=1/GPa)
#
#
# Indices 1 2 3 4 5 6 
#
# 1 0.019873 -0.007222 -0.002074 0.000000 0.000000 0.000000
# 2 -0.007222 0.017399 -0.003351 0.000000 0.000000 0.000000
# 3 -0.002074 -0.003351 0.012173 0.000000 0.000000 0.000000
# 4 0.000000 0.000000 0.000000 0.031755 0.000000 0.000000
# 5 0.000000 0.000000 0.000000 0.000000 0.013808 0.000000
# 6 0.000000 0.000000 0.000000 0.000000 0.000000 0.023607
#
#
# Mechanical properties :
#
#
# Convention : Reuss Voigt Hill
#
# Bulk Modulus (GPa) = 41.40751 42.16954 41.78852
# Shear Modulus (GPa) = 32.90311 39.64717 36.27514
#
# Velocity S-wave (km/s) = 3.49527 3.83679 3.67000
# Velocity P-wave (km/s) = 5.62705 5.94015 5.78572
#
# Compressibility (1/GPa) = 0.02415021
#
# Stress axis : x y z
#
# Youngs Moduli (GPa) = 50.31834 57.47504 82.14642
#
# Poissons Ratio (x) = 0.41510 0.17037
# Poissons Ratio (y) = 0.36341 0.27531
# Poissons Ratio (z) = 0.10436 0.19263
#
# Static dielectric constant tensor:
#      x y z
#    x 2.130250 0.000000 0.000000 
#    y 0.000000 2.020810 0.000000 
#    z 0.000000 0.000000 1.972090 
# 
# From -- ./inp_files/3096.got.cif
#   From: 2010.05.17/outbox.cif.g08.bks.cpg/sg60_2_cif.got.tgz:3096.got - 2010.06.03 14:59:27.
