data_PCOD9456938
_publ_section_title
;
Structure prediction by ZEFSAII (Michael W. Deem and Ramdas Pophale) SiO2 
 PCOD9456938
Probable space group: P B C N
;
_chemical_formula_sum "Si O2"
_cell_formula_units_Z 60
_cell_length_a 8.063255
_cell_length_b 26.708459
_cell_length_c 11.881550
_cell_angle_alpha 90.000000
_cell_angle_beta 90.000000
_cell_angle_gamma 90.000000
_cell_volume 2558.776337
_symmetry_space_group_name_H-M "P B C N"
_symmetry_group_IT_number 60
_symmetry_cell_setting 'orthorhombic'
loop_
_space_group_symop_operation_xyz
x,y,z
1/2-x,1/2-y,1/2+z
1/2+x,1/2-y,-z
-x,y,1/2-z
-x,-y,-z
1/2+x,1/2+y,1/2-z
1/2-x,1/2+y,z
x,-y,1/2+z
loop_
_atom_site_type_symbol
_atom_site_label
_atom_site_fract_x
_atom_site_fract_y
_atom_site_fract_z
Si Si1 0.152068 0.535043 0.972802
Si Si2 0.781736 0.910452 0.821125
Si Si3 0.874501 0.945259 0.592578
Si Si4 0.000000 0.797808 0.250000
Si Si5 0.312909 0.351950 0.043398
Si Si6 0.273989 0.187702 0.058978
Si Si7 0.053016 0.369966 0.370772
Si Si8 0.143840 0.728451 0.416933
O O1 0.305842 0.498570 0.945989
O O2 0.115511 0.572834 0.870543
O O3 0.158465 0.569449 0.084443
O O4 0.000000 0.500000 0.000000
O O5 0.753719 0.922828 0.690884
O O6 0.796669 0.851568 0.850600
O O7 0.944119 0.942212 0.854545
O O8 0.889263 0.904152 0.494820
O O9 0.912406 0.828985 0.350787
O O10 0.858251 0.762532 0.194062
O O11 0.122566 0.365935 0.067525
O O12 0.288009 0.311734 0.941940
O O13 0.459949 0.204952 0.089502
O O14 0.307219 0.159138 0.940282
O O15 0.161582 0.234785 0.025421
O O16 0.000000 0.350146 0.250000
#
# Coordination Sequence:
#
# PCOD9456938 Si02
#       8
#     8   8   8   4   8   8   8   8
#     4  11  23  43  67  98 133 173 230 282 341 426
#     4  10  25  44  66 101 135 187 223 285 353 408
#     4  11  24  44  70  96 141 175 232 280 348 422
#     4  12  24  42  70  96 142 186 236 286 360 404
#     4  11  24  42  66 101 135 181 234 286 341 422
#     4  10  22  44  65  95 142 176 237 284 342 420
#     4  10  22  41  64  97 134 174 224 285 349 398
#     4  11  23  41  65  99 132 184 237 285 346 413
#
# _framework density 23.448706999999999
#
# number of rings (size 3 to 8) (size 9 to 14) (size 15 to 20)
#    0.000    1.333    2.667    2.000    3.733    1.067 
#    0.000    1.333    0.000    0.000    0.000    0.000 
#    0.000    0.000    0.000    0.000    0.000    0.000 
#
# Total GULP energy -334784.767746 kJ/mol
# GULP energy per Si atom -5579.746129 kJ/mol
# Density = 2.339534 g / cm^3
# Si number density = 23.448707 Si / 1000 Ang^3
#
#
#
# Elastic Constant Matrix: (Units=GPa)
#
#
# Indices 1 2 3 4 5 6 
#
# 1 63.5057 8.4377 -5.2621 0.0000 0.0000 0.0000
# 2 8.4377 85.4210 20.1680 0.0000 0.0000 0.0000
# 3 -5.2621 20.1680 86.5415 0.0000 0.0000 0.0000
# 4 0.0000 0.0000 0.0000 -1.7241 0.0000 0.0000
# 5 0.0000 0.0000 0.0000 0.0000 32.1842 0.0000
# 6 0.0000 0.0000 0.0000 0.0000 0.0000 39.7069
#
#
#
# Elastic Compliance Matrix: (Units=1/GPa)
#
#
# Indices 1 2 3 4 5 6 
#
# 1 0.016122 -0.001930 0.001430 0.000000 0.000000 0.000000
# 2 -0.001930 0.012619 -0.003058 0.000000 0.000000 0.000000
# 3 0.001430 -0.003058 0.012355 0.000000 0.000000 0.000000
# 4 0.000000 0.000000 0.000000 -0.580010 0.000000 0.000000
# 5 0.000000 0.000000 0.000000 0.000000 0.031071 0.000000
# 6 0.000000 0.000000 0.000000 0.000000 0.000000 0.025185
#
#
# Mechanical properties :
#
#
# Convention : Reuss Voigt Hill
#
# Bulk Modulus (GPa) = 29.42975 31.35062 30.39019
# Shear Modulus (GPa) = -10.77086 28.17502 8.70208
#
# Velocity S-wave (km/s) = -2.14554 3.47011 1.92852
# Velocity P-wave (km/s) = 2.53775 5.42720 4.23643
#
# Compressibility (1/GPa) = 0.03397922
#
# Stress axis : x y z
#
# Youngs Moduli (GPa) = 62.02878 79.24289 80.94012
#
# Poissons Ratio (x) = 0.15295 -0.11575
# Poissons Ratio (y) = 0.11972 0.24754
# Poissons Ratio (z) = -0.08870 0.24234
#
# Static dielectric constant tensor:
#      x y z
#    x 1.550950 0.000000 0.000000 
#    y 0.000000 1.953210 0.000000 
#    z 0.000000 0.000000 1.993740 
# 
# From -- ./inp_files/10290.got.cif
#   From: 2010.05.17/outbox.cif.g08.bks.cpg/sg60_6_cif.got.tgz:10290.got - 2010.06.03 14:59:27.
