data_PCOD9456612
_publ_section_title
;
Structure prediction by ZEFSAII (Michael W. Deem and Ramdas Pophale) SiO2 
 PCOD9456612
Probable space group: P B C N
;
_chemical_formula_sum "Si O2"
_cell_formula_units_Z 56
_cell_length_a 22.946764
_cell_length_b 13.756159
_cell_length_c 8.949471
_cell_angle_alpha 90.000000
_cell_angle_beta 90.000000
_cell_angle_gamma 90.000000
_cell_volume 2824.984057
_symmetry_space_group_name_H-M "P B C N"
_symmetry_group_IT_number 60
_symmetry_cell_setting 'orthorhombic'
loop_
_space_group_symop_operation_xyz
x,y,z
1/2-x,1/2-y,1/2+z
1/2+x,1/2-y,-z
-x,y,1/2-z
-x,-y,-z
1/2+x,1/2+y,1/2-z
1/2-x,1/2+y,z
x,-y,1/2+z
loop_
_atom_site_type_symbol
_atom_site_label
_atom_site_fract_x
_atom_site_fract_y
_atom_site_fract_z
Si Si1 0.282490 0.786926 0.006197
Si Si2 0.666852 0.099014 0.274070
Si Si3 0.086144 0.279177 0.507432
Si Si4 0.795733 0.078576 0.387052
Si Si5 0.164371 0.116564 0.450565
Si Si6 0.482285 0.101544 0.575048
Si Si7 0.634403 0.115602 0.783403
O O1 0.309586 0.840444 0.864686
O O2 0.213589 0.803942 0.996229
O O3 0.302314 0.676011 0.015720
O O4 0.306187 0.840481 0.153779
O O5 0.619797 0.161525 0.364286
O O6 0.725606 0.072171 0.366049
O O7 0.640313 0.995062 0.231140
O O8 0.103922 0.166247 0.500626
O O9 0.111910 0.320391 0.352023
O O10 0.018899 0.312397 0.502547
O O11 0.825955 0.096485 0.225789
O O12 0.820453 0.982789 0.464386
O O13 0.500000 0.096207 0.750000
O O14 0.413264 0.117662 0.583396
O O15 0.500000 0.000000 0.500000
#
# Coordination Sequence:
#
# PCOD9456612 Si02
#       7
#     8   8   8   8   8   8   8
#     4  11  23  37  57  89 123 158 196 241 301 358
#     4  11  22  33  60  88 124 159 192 247 292 368
#     4  11  22  38  56  86 120 159 200 242 304 355
#     4  11  24  38  57  87 121 164 202 244 296 360
#     4  11  24  38  60  84 122 160 200 248 298 355
#     4  10  22  36  59  86 119 154 195 243 300 358
#     4  11  21  39  58  88 120 159 195 241 302 357
#
# _framework density 19.823119999999999
#
# number of rings (size 3 to 8) (size 9 to 14) (size 15 to 20)
#    0.000    1.143    5.714    0.857    6.000    0.000 
#    0.000    0.000    0.000    0.857    0.000    0.000 
#    0.000    0.000    0.000    0.000    0.000    0.000 
#
# Total GULP energy -312929.255153 kJ/mol
# GULP energy per Si atom -5588.022413 kJ/mol
# Density = 1.977800 g / cm^3
# Si number density = 19.823120 Si / 1000 Ang^3
#
#
#
# Elastic Constant Matrix: (Units=GPa)
#
#
# Indices 1 2 3 4 5 6 
#
# 1 43.6311 12.9372 -6.2117 0.0000 0.0000 0.0000
# 2 12.9372 137.9945 15.8191 0.0000 0.0000 0.0000
# 3 -6.2117 15.8191 22.2067 0.0000 0.0000 0.0000
# 4 0.0000 0.0000 0.0000 21.6125 0.0000 0.0000
# 5 0.0000 0.0000 0.0000 0.0000 15.9163 0.0000
# 6 0.0000 0.0000 0.0000 0.0000 0.0000 24.3521
#
#
#
# Elastic Compliance Matrix: (Units=1/GPa)
#
#
# Indices 1 2 3 4 5 6 
#
# 1 0.025307 -0.003467 0.009549 0.000000 0.000000 0.000000
# 2 -0.003467 0.008366 -0.006929 0.000000 0.000000 0.000000
# 3 0.009549 -0.006929 0.052639 0.000000 0.000000 0.000000
# 4 0.000000 0.000000 0.000000 0.046269 0.000000 0.000000
# 5 0.000000 0.000000 0.000000 0.000000 0.062829 0.000000
# 6 0.000000 0.000000 0.000000 0.000000 0.000000 0.041064
#
#
# Mechanical properties :
#
#
# Convention : Reuss Voigt Hill
#
# Bulk Modulus (GPa) = 11.81809 27.65793 19.73801
# Shear Modulus (GPa) = 18.77051 24.46203 21.61627
#
# Velocity S-wave (km/s) = 3.08051 3.51667 3.30579
# Velocity P-wave (km/s) = 4.31595 5.52014 4.95476
#
# Compressibility (1/GPa) = 0.08461604
#
# Stress axis : x y z
#
# Youngs Moduli (GPa) = 39.51480 119.53019 18.99742
#
# Poissons Ratio (x) = 0.41444 -0.18140
# Poissons Ratio (y) = 0.13701 0.13164
# Poissons Ratio (z) = -0.37732 0.82828
#
# Static dielectric constant tensor:
#      x y z
#    x 1.767580 0.000000 0.000000 
#    y 0.000000 1.693040 0.000000 
#    z 0.000000 0.000000 1.710950 
# 
# From -- ./inp_files/7437.got.cif
#   From: 2010.05.17/outbox.cif.g08.bks.cpg/sg60_4_cif.got.tgz:7437.got - 2010.06.03 14:59:27.
