data_PCOD9456205
_publ_section_title
;
Structure prediction by ZEFSAII (Michael W. Deem and Ramdas Pophale) SiO2 
 PCOD9456205
Probable space group: P B C N
;
_chemical_formula_sum "Si O2"
_cell_formula_units_Z 56
_cell_length_a 5.603311
_cell_length_b 13.953270
_cell_length_c 31.512602
_cell_angle_alpha 90.000000
_cell_angle_beta 90.000000
_cell_angle_gamma 90.000000
_cell_volume 2463.797386
_symmetry_space_group_name_H-M "P B C N"
_symmetry_group_IT_number 60
_symmetry_cell_setting 'orthorhombic'
loop_
_space_group_symop_operation_xyz
x,y,z
1/2-x,1/2-y,1/2+z
1/2+x,1/2-y,-z
-x,y,1/2-z
-x,-y,-z
1/2+x,1/2+y,1/2-z
1/2-x,1/2+y,z
x,-y,1/2+z
loop_
_atom_site_type_symbol
_atom_site_label
_atom_site_fract_x
_atom_site_fract_y
_atom_site_fract_z
Si Si1 0.812536 0.306751 0.994044
Si Si2 0.680980 0.142792 0.581872
Si Si3 0.193279 0.988840 0.861589
Si Si4 0.482800 0.175957 0.404808
Si Si5 0.571699 0.971285 0.296314
Si Si6 0.290332 0.184370 0.651182
Si Si7 0.398810 0.360394 0.702189
O O1 0.843948 0.382437 0.032468
O O2 0.044297 0.236823 0.001903
O O3 0.850250 0.340162 0.945652
O O4 0.772009 0.252153 0.581555
O O5 0.446283 0.147678 0.611136
O O6 0.870053 0.072122 0.604929
O O7 0.378744 0.922026 0.887412
O O8 0.024127 0.916329 0.836890
O O9 0.339225 0.040401 0.824594
O O10 0.608920 0.239065 0.368510
O O11 0.500000 0.939205 0.250000
O O12 0.772853 0.908515 0.320529
O O13 0.648329 0.082508 0.295152
O O14 0.415447 0.251342 0.686849
O O15 0.500000 0.372020 0.750000
#
# Coordination Sequence:
#
# PCOD9456205 Si02
#       7
#     8   8   8   8   8   8   8
#     4  10  21  39  67  97 133 177 217 274 331 392
#     4  10  22  40  62  89 128 161 216 255 324 385
#     4  11  23  39  63  90 121 169 206 262 317 385
#     4  11  21  40  65  90 128 164 213 260 327 386
#     4  11  23  41  59  87 123 157 208 260 315 378
#     4  11  22  39  62  89 118 165 207 258 318 385
#     4  12  23  40  62  88 124 161 211 262 324 380
#
# _framework density 22.729142
#
# number of rings (size 3 to 8) (size 9 to 14) (size 15 to 20)
#    0.000    1.143    5.714    1.286    0.000    0.571 
#    0.000    0.714    0.000    5.143    0.000    0.000 
#    0.000    0.000    0.000    0.000    0.000    0.000 
#
# Total GULP energy -312000.227960 kJ/mol
# GULP energy per Si atom -5571.432642 kJ/mol
# Density = 2.267741 g / cm^3
# Si number density = 22.729142 Si / 1000 Ang^3
#
#
#
# Elastic Constant Matrix: (Units=GPa)
#
#
# Indices 1 2 3 4 5 6 
#
# 1 41.0039 -9.1643 2.0289 0.0000 0.0000 0.0000
# 2 -9.1643 72.9592 20.5361 0.0000 0.0000 0.0000
# 3 2.0289 20.5361 112.6684 0.0000 0.0000 0.0000
# 4 0.0000 0.0000 0.0000 23.9854 0.0000 0.0000
# 5 0.0000 0.0000 0.0000 0.0000 31.5040 0.0000
# 6 0.0000 0.0000 0.0000 0.0000 0.0000 24.4510
#
#
#
# Elastic Compliance Matrix: (Units=1/GPa)
#
#
# Indices 1 2 3 4 5 6 
#
# 1 0.025218 0.003474 -0.001087 0.000000 0.000000 0.000000
# 2 0.003474 0.014926 -0.002783 0.000000 0.000000 0.000000
# 3 -0.001087 -0.002783 0.009402 0.000000 0.000000 0.000000
# 4 0.000000 0.000000 0.000000 0.041692 0.000000 0.000000
# 5 0.000000 0.000000 0.000000 0.000000 0.031742 0.000000
# 6 0.000000 0.000000 0.000000 0.000000 0.000000 0.040898
#
#
# Mechanical properties :
#
#
# Convention : Reuss Voigt Hill
#
# Bulk Modulus (GPa) = 20.51155 28.15922 24.33538
# Shear Modulus (GPa) = 27.63604 30.20347 28.91975
#
# Velocity S-wave (km/s) = 3.49074 3.64928 3.57089
# Velocity P-wave (km/s) = 5.02901 5.49293 5.26608
#
# Compressibility (1/GPa) = 0.04875303
#
# Stress axis : x y z
#
# Youngs Moduli (GPa) = 39.65410 66.99730 106.35516
#
# Poissons Ratio (x) = -0.23272 0.11564
# Poissons Ratio (y) = -0.13774 0.29600
# Poissons Ratio (z) = 0.04311 0.18646
#
# Static dielectric constant tensor:
#      x y z
#    x 1.966280 0.000000 0.000000 
#    y 0.000000 1.874570 0.000000 
#    z 0.000000 0.000000 1.915610 
# 
# From -- ./inp_files/25685.got.cif
#   From: 2010.05.17/outbox.cif.g08.bks.cpg/sg60_13_cif.got.tgz:25685.got - 2010.06.03 14:59:27.
