data_PCOD9456818
_publ_section_title
;
Structure prediction by ZEFSAII (Michael W. Deem and Ramdas Pophale) SiO2 
 PCOD9456818
Probable space group: P B C N
;
_chemical_formula_sum "Si O2"
_cell_formula_units_Z 32
_cell_length_a 21.869347
_cell_length_b 5.020731
_cell_length_c 10.460452
_cell_angle_alpha 90.000000
_cell_angle_beta 90.000000
_cell_angle_gamma 90.000000
_cell_volume 1148.558764
_symmetry_space_group_name_H-M "P B C N"
_symmetry_group_IT_number 60
_symmetry_cell_setting 'orthorhombic'
loop_
_space_group_symop_operation_xyz
x,y,z
1/2-x,1/2-y,1/2+z
1/2+x,1/2-y,-z
-x,y,1/2-z
-x,-y,-z
1/2+x,1/2+y,1/2-z
1/2-x,1/2+y,z
x,-y,1/2+z
loop_
_atom_site_type_symbol
_atom_site_label
_atom_site_fract_x
_atom_site_fract_y
_atom_site_fract_z
Si Si1 0.618961 0.739996 0.845188
Si Si2 0.208944 0.005712 0.835020
Si Si3 0.500000 0.500000 0.500000
Si Si4 0.610453 0.878541 0.574084
Si Si5 0.000000 0.061480 0.250000
O O1 0.673775 0.552165 0.799496
O O2 0.613401 0.940432 0.724898
O O3 0.552211 0.589759 0.840573
O O4 0.659356 0.369097 0.068467
O O5 0.234399 0.710675 0.844950
O O6 0.127759 0.594958 0.029018
O O7 0.546849 0.741622 0.540659
O O8 0.529733 0.314290 0.626526
#
# Coordination Sequence:
#
# PCOD9456818 Si02
#       5
#     8   8   4   8   4
#     4   9  22  42  64 102 136 184 234 293 355 424
#     4  10  24  46  72 103 144 191 240 292 357 435
#     4  10  22  40  66 100 138 182 230 300 354 428
#     4   9  22  43  65 104 138 188 236 297 358 427
#     4  10  22  40  62 102 136 182 232 290 362 416
#
# _framework density 27.861006
#
# number of rings (size 3 to 8) (size 9 to 14) (size 15 to 20)
#    1.500    1.000    0.000    0.000    0.000   13.000 
#    4.500    0.000    0.000    0.000    0.000    0.000 
#    0.000    0.000    0.000    0.000    0.000    0.000 
#
# Total GULP energy -178204.241487 kJ/mol
# GULP energy per Si atom -5568.882546 kJ/mol
# Density = 2.779759 g / cm^3
# Si number density = 27.861006 Si / 1000 Ang^3
#
#
#
# Elastic Constant Matrix: (Units=GPa)
#
#
# Indices 1 2 3 4 5 6 
#
# 1 125.1107 34.5674 4.0868 0.0000 0.0000 0.0000
# 2 34.5674 98.4603 34.8564 0.0000 0.0000 0.0000
# 3 4.0868 34.8564 178.7439 0.0000 0.0000 0.0000
# 4 0.0000 0.0000 0.0000 36.5072 0.0000 0.0000
# 5 0.0000 0.0000 0.0000 0.0000 27.7513 0.0000
# 6 0.0000 0.0000 0.0000 0.0000 0.0000 51.0968
#
#
#
# Elastic Compliance Matrix: (Units=1/GPa)
#
#
# Indices 1 2 3 4 5 6 
#
# 1 0.008883 -0.003273 0.000435 0.000000 0.000000 0.000000
# 2 -0.003273 0.012115 -0.002288 0.000000 0.000000 0.000000
# 3 0.000435 -0.002288 0.006031 0.000000 0.000000 0.000000
# 4 0.000000 0.000000 0.000000 0.027392 0.000000 0.000000
# 5 0.000000 0.000000 0.000000 0.000000 0.036034 0.000000
# 6 0.000000 0.000000 0.000000 0.000000 0.000000 0.019571
#
#
# Mechanical properties :
#
#
# Convention : Reuss Voigt Hill
#
# Bulk Modulus (GPa) = 59.60061 61.03735 60.31898
# Shear Modulus (GPa) = 39.72380 44.99136 42.35758
#
# Velocity S-wave (km/s) = 3.78005 4.02288 3.90336
# Velocity P-wave (km/s) = 6.36320 6.59799 6.48166
#
# Compressibility (1/GPa) = 0.01677835
#
# Stress axis : x y z
#
# Youngs Moduli (GPa) = 112.57554 82.54075 165.81625
#
# Poissons Ratio (x) = 0.27013 -0.07214
# Poissons Ratio (y) = 0.36842 0.37934
# Poissons Ratio (z) = -0.04898 0.18883
#
# Static dielectric constant tensor:
#      x y z
#    x 1.161800 0.000000 0.000000 
#    y 0.000000 2.950250 0.000000 
#    z 0.000000 0.000000 -1.670230 
# 
# From -- ./inp_files/12977.got.cif
#   From: 2010.05.17/outbox.cif.g08.bks.cpg/sg60_7_cif.got.tgz:12977.got - 2010.06.03 14:59:27.
