data_PCOD9456457
_publ_section_title
;
Structure prediction by ZEFSAII (Michael W. Deem and Ramdas Pophale) SiO2 
 PCOD9456457
Probable space group: P B C N
;
_chemical_formula_sum "Si O2"
_cell_formula_units_Z 48
_cell_length_a 7.998903
_cell_length_b 22.370391
_cell_length_c 12.453509
_cell_angle_alpha 90.000000
_cell_angle_beta 90.000000
_cell_angle_gamma 90.000000
_cell_volume 2228.413312
_symmetry_space_group_name_H-M "P B C N"
_symmetry_group_IT_number 60
_symmetry_cell_setting 'orthorhombic'
loop_
_space_group_symop_operation_xyz
x,y,z
1/2-x,1/2-y,1/2+z
1/2+x,1/2-y,-z
-x,y,1/2-z
-x,-y,-z
1/2+x,1/2+y,1/2-z
1/2-x,1/2+y,z
x,-y,1/2+z
loop_
_atom_site_type_symbol
_atom_site_label
_atom_site_fract_x
_atom_site_fract_y
_atom_site_fract_z
Si Si1 0.452589 0.571334 0.626482
Si Si2 0.051289 0.209621 0.565101
Si Si3 0.160606 0.309364 0.824773
Si Si4 0.101961 0.761079 0.659744
Si Si5 0.456501 0.928610 0.874042
Si Si6 0.257083 0.021133 0.008231
O O1 0.500000 0.562042 0.750000
O O2 0.441585 0.641653 0.603005
O O3 0.296348 0.529387 0.594637
O O4 0.598032 0.549142 0.547719
O O5 0.230357 0.235178 0.604416
O O6 0.897994 0.247685 0.618769
O O7 0.016734 0.217710 0.437642
O O8 0.316391 0.308046 0.743997
O O9 0.153228 0.369040 0.895981
O O10 0.000000 0.319842 0.750000
O O11 0.000000 0.722172 0.750000
O O12 0.500000 0.937532 0.750000
O O13 0.360273 0.985833 0.918415
O O14 0.630081 0.927803 0.938478
#
# Coordination Sequence:
#
# PCOD9456457 Si02
#       6
#     8   8   8   8   8   8
#     4  11  24  44  64  94 136 173 226 275 337 394
#     4  11  25  43  68 101 138 173 225 276 346 406
#     4   9  21  41  66 100 129 175 217 276 340 397
#     4  11  24  43  67 103 133 175 219 272 344 408
#     4  10  21  42  67  95 134 168 230 274 332 395
#     4  10  24  41  65  96 126 187 220 278 327 396
#
# _framework density 21.539988000000001
#
# number of rings (size 3 to 8) (size 9 to 14) (size 15 to 20)
#    0.000    1.667    0.000    3.500   11.667    0.000 
#    0.000    0.833    0.000    0.000    0.000    0.000 
#    0.000    0.000    0.000    0.000    0.000    0.000 
#
# Total GULP energy -267587.455372 kJ/mol
# GULP energy per Si atom -5574.738654 kJ/mol
# Density = 2.149096 g / cm^3
# Si number density = 21.539988 Si / 1000 Ang^3
#
#
#
# Elastic Constant Matrix: (Units=GPa)
#
#
# Indices 1 2 3 4 5 6 
#
# 1 95.1021 22.9614 39.6292 0.0000 0.0000 0.0000
# 2 22.9614 88.1305 43.6772 0.0000 0.0000 0.0000
# 3 39.6292 43.6772 127.4566 0.0000 0.0000 0.0000
# 4 0.0000 0.0000 0.0000 24.6762 0.0000 0.0000
# 5 0.0000 0.0000 0.0000 0.0000 51.4010 0.0000
# 6 0.0000 0.0000 0.0000 0.0000 0.0000 10.6098
#
#
#
# Elastic Compliance Matrix: (Units=1/GPa)
#
#
# Indices 1 2 3 4 5 6 
#
# 1 0.012258 -0.001572 -0.003273 0.000000 0.000000 0.000000
# 2 -0.001572 0.013870 -0.004264 0.000000 0.000000 0.000000
# 3 -0.003273 -0.004264 0.010325 0.000000 0.000000 0.000000
# 4 0.000000 0.000000 0.000000 0.040525 0.000000 0.000000
# 5 0.000000 0.000000 0.000000 0.000000 0.019455 0.000000
# 6 0.000000 0.000000 0.000000 0.000000 0.000000 0.094253
#
#
# Mechanical properties :
#
#
# Convention : Reuss Voigt Hill
#
# Bulk Modulus (GPa) = 54.83925 58.13607 56.48766
# Shear Modulus (GPa) = 23.25788 30.96549 27.11168
#
# Velocity S-wave (km/s) = 3.28952 3.79566 3.55162
# Velocity P-wave (km/s) = 6.32001 6.80131 6.56507
#
# Compressibility (1/GPa) = 0.01823511
#
# Stress axis : x y z
#
# Youngs Moduli (GPa) = 81.57758 72.09993 96.85569
#
# Poissons Ratio (x) = 0.11333 0.31698
# Poissons Ratio (y) = 0.12822 0.41301
# Poissons Ratio (z) = 0.26698 0.30745
#
# Static dielectric constant tensor:
#      x y z
#    x 1.908600 0.000000 0.000000 
#    y 0.000000 1.815440 0.000000 
#    z 0.000000 0.000000 1.827560 
# 
# From -- ./inp_files/10092.got.cif
#   From: 2010.05.17/outbox.cif.g08.bks.cpg/sg60_6_cif.got.tgz:10092.got - 2010.06.03 14:59:27.
