data_PCOD9456027
_publ_section_title
;
Structure prediction by ZEFSAII (Michael W. Deem and Ramdas Pophale) SiO2 
 PCOD9456027
Probable space group: P B C N
;
_chemical_formula_sum "Si O2"
_cell_formula_units_Z 40
_cell_length_a 14.266834
_cell_length_b 9.825998
_cell_length_c 10.762517
_cell_angle_alpha 90.000000
_cell_angle_beta 90.000000
_cell_angle_gamma 90.000000
_cell_volume 1508.752942
_symmetry_space_group_name_H-M "P B C N"
_symmetry_group_IT_number 60
_symmetry_cell_setting 'orthorhombic'
loop_
_space_group_symop_operation_xyz
x,y,z
1/2-x,1/2-y,1/2+z
1/2+x,1/2-y,-z
-x,y,1/2-z
-x,-y,-z
1/2+x,1/2+y,1/2-z
1/2-x,1/2+y,z
x,-y,1/2+z
loop_
_atom_site_type_symbol
_atom_site_label
_atom_site_fract_x
_atom_site_fract_y
_atom_site_fract_z
Si Si1 0.701739 0.522339 0.513923
Si Si2 0.379396 0.922552 0.136659
Si Si3 0.539843 0.705249 0.540594
Si Si4 0.199678 0.757486 0.825996
Si Si5 0.115541 0.274292 0.688782
O O1 0.774144 0.456178 0.416224
O O2 0.601605 0.588128 0.475798
O O3 0.758121 0.651399 0.573711
O O4 0.686812 0.407352 0.619441
O O5 0.381351 0.825266 0.257087
O O6 0.415536 0.070611 0.171193
O O7 0.434130 0.843177 0.029942
O O8 0.579031 0.714069 0.681174
O O9 0.429164 0.698574 0.570231
O O10 0.274700 0.776253 0.714559
#
# Coordination Sequence:
#
# PCOD9456027 Si02
#       5
#     8   8   8   8   8
#     4  11  22  40  63  96 126 173 214 267 323 389
#     4  12  20  38  67  95 120 172 226 264 314 405
#     4  10  22  39  60  89 132 168 208 272 327 383
#     4  11  22  39  65  93 127 168 221 263 323 393
#     4  10  21  38  61  88 129 169 206 267 335 374
#
# _framework density 26.511960999999999
#
# number of rings (size 3 to 8) (size 9 to 14) (size 15 to 20)
#    0.000    1.200    6.000    1.800    0.000    0.000 
#    0.000    1.000    8.800    0.000    0.000    0.000 
#    0.000    0.000    0.000    0.000    0.000    0.000 
#
# Total GULP energy -223733.429498 kJ/mol
# GULP energy per Si atom -5593.335737 kJ/mol
# Density = 2.645162 g / cm^3
# Si number density = 26.511961 Si / 1000 Ang^3
#
#
#
# Elastic Constant Matrix: (Units=GPa)
#
#
# Indices 1 2 3 4 5 6 
#
# 1 89.2725 17.6587 19.0302 0.0000 0.0000 0.0000
# 2 17.6587 162.0603 24.8649 0.0000 0.0000 0.0000
# 3 19.0302 24.8649 40.3064 0.0000 0.0000 0.0000
# 4 0.0000 0.0000 0.0000 70.4060 0.0000 0.0000
# 5 0.0000 0.0000 0.0000 0.0000 39.0353 0.0000
# 6 0.0000 0.0000 0.0000 0.0000 0.0000 14.9521
#
#
#
# Elastic Compliance Matrix: (Units=1/GPa)
#
#
# Indices 1 2 3 4 5 6 
#
# 1 0.012492 -0.000504 -0.005587 0.000000 0.000000 0.000000
# 2 -0.000504 0.006836 -0.003979 0.000000 0.000000 0.000000
# 3 -0.005587 -0.003979 0.029903 0.000000 0.000000 0.000000
# 4 0.000000 0.000000 0.000000 0.014203 0.000000 0.000000
# 5 0.000000 0.000000 0.000000 0.000000 0.025618 0.000000
# 6 0.000000 0.000000 0.000000 0.000000 0.000000 0.066880
#
#
# Mechanical properties :
#
#
# Convention : Reuss Voigt Hill
#
# Bulk Modulus (GPa) = 34.37575 46.08297 40.22936
# Shear Modulus (GPa) = 26.91505 40.21772 33.56638
#
# Velocity S-wave (km/s) = 3.18968 3.89905 3.56207
# Velocity P-wave (km/s) = 5.15361 6.13920 5.66787
#
# Compressibility (1/GPa) = 0.02909027
#
# Stress axis : x y z
#
# Youngs Moduli (GPa) = 80.04882 146.28489 33.44190
#
# Poissons Ratio (x) = 0.07372 0.18685
# Poissons Ratio (y) = 0.04034 0.13307
# Poissons Ratio (z) = 0.44725 0.58209
#
# Static dielectric constant tensor:
#      x y z
#    x 2.311210 0.000000 0.000000 
#    y 0.000000 2.018510 0.000000 
#    z 0.000000 0.000000 1.999950 
# 
# From -- ./inp_files/12282.got.cif
#   From: 2010.05.17/outbox.cif.g08.bks.cpg/sg60_7_cif.got.tgz:12282.got - 2010.06.03 14:59:27.
