data_PCOD9456618
_publ_section_title
;
Structure prediction by ZEFSAII (Michael W. Deem and Ramdas Pophale) SiO2 
 PCOD9456618
Probable space group: P B C N
;
_chemical_formula_sum "Si O2"
_cell_formula_units_Z 40
_cell_length_a 19.941957
_cell_length_b 5.068815
_cell_length_c 19.239719
_cell_angle_alpha 90.000000
_cell_angle_beta 90.000000
_cell_angle_gamma 90.000000
_cell_volume 1944.791022
_symmetry_space_group_name_H-M "P B C N"
_symmetry_group_IT_number 60
_symmetry_cell_setting 'orthorhombic'
loop_
_space_group_symop_operation_xyz
x,y,z
1/2-x,1/2-y,1/2+z
1/2+x,1/2-y,-z
-x,y,1/2-z
-x,-y,-z
1/2+x,1/2+y,1/2-z
1/2-x,1/2+y,z
x,-y,1/2+z
loop_
_atom_site_type_symbol
_atom_site_label
_atom_site_fract_x
_atom_site_fract_y
_atom_site_fract_z
Si Si1 0.561209 0.209794 0.156955
Si Si2 0.906616 0.283449 0.813897
Si Si3 0.797826 0.458940 0.400156
Si Si4 0.092780 0.888875 0.559386
Si Si5 0.559473 0.269518 0.564988
O O1 0.563024 0.485781 0.117871
O O2 0.596151 0.248916 0.231226
O O3 0.483354 0.130055 0.171189
O O4 0.586553 0.984431 0.104880
O O5 0.849714 0.489542 0.836569
O O6 0.899896 0.027913 0.864702
O O7 0.759916 0.737565 0.401766
O O8 0.850311 0.327026 0.453618
O O9 0.094646 0.128833 0.504797
O O10 0.020432 0.751787 0.549367
#
# Coordination Sequence:
#
# PCOD9456618 Si02
#       5
#     8   8   8   8   8
#     4  10  22  36  61  94 125 154 190 259 318 364
#     4  10  22  38  62  90 125 155 206 249 307 358
#     4  12  24  38  61  88 118 163 208 249 283 356
#     4  10  22  39  62  91 125 157 207 249 307 362
#     4  10  22  36  62  93 126 155 191 258 321 366
#
# _framework density 20.567761999999998
#
# number of rings (size 3 to 8) (size 9 to 14) (size 15 to 20)
#    0.000    1.600    4.000    0.000    5.600    4.000 
#    0.000    0.000    0.000    7.200    0.000    0.000 
#    0.000    0.000    0.000    0.000    0.000    0.000 
#
# Total GULP energy -222933.217149 kJ/mol
# GULP energy per Si atom -5573.330429 kJ/mol
# Density = 2.052095 g / cm^3
# Si number density = 20.567762 Si / 1000 Ang^3
#
#
#
# Elastic Constant Matrix: (Units=GPa)
#
#
# Indices 1 2 3 4 5 6 
#
# 1 43.8317 25.4357 5.8055 0.0000 0.0000 0.0000
# 2 25.4357 77.5027 17.8964 0.0000 0.0000 0.0000
# 3 5.8055 17.8964 74.4445 0.0000 0.0000 0.0000
# 4 0.0000 0.0000 0.0000 18.7850 0.0000 0.0000
# 5 0.0000 0.0000 0.0000 0.0000 19.0685 0.0000
# 6 0.0000 0.0000 0.0000 0.0000 0.0000 28.1889
#
#
#
# Elastic Compliance Matrix: (Units=1/GPa)
#
#
# Indices 1 2 3 4 5 6 
#
# 1 0.028182 -0.009255 0.000027 0.000000 0.000000 0.000000
# 2 -0.009255 0.016701 -0.003293 0.000000 0.000000 0.000000
# 3 0.000027 -0.003293 0.014222 0.000000 0.000000 0.000000
# 4 0.000000 0.000000 0.000000 0.053234 0.000000 0.000000
# 5 0.000000 0.000000 0.000000 0.000000 0.052442 0.000000
# 6 0.000000 0.000000 0.000000 0.000000 0.000000 0.035475
#
#
# Mechanical properties :
#
#
# Convention : Reuss Voigt Hill
#
# Bulk Modulus (GPa) = 29.35774 32.67269 31.01522
# Shear Modulus (GPa) = 21.12799 22.98456 22.05628
#
# Velocity S-wave (km/s) = 3.20853 3.34654 3.27826
# Velocity P-wave (km/s) = 5.29442 5.55448 5.42601
#
# Compressibility (1/GPa) = 0.03406257
#
# Stress axis : x y z
#
# Youngs Moduli (GPa) = 35.48385 59.87775 70.31187
#
# Poissons Ratio (x) = 0.55419 -0.00191
# Poissons Ratio (y) = 0.32841 0.23154
# Poissons Ratio (z) = -0.00097 0.19718
#
# Static dielectric constant tensor:
#      x y z
#    x 1.781580 0.000000 0.000000 
#    y 0.000000 1.796940 0.000000 
#    z 0.000000 0.000000 1.757260 
# 
# From -- ./inp_files/20750.got.cif
#   From: 2010.05.17/outbox.cif.g08.bks.cpg/sg60_11_cif.got.tgz:20750.got - 2010.06.03 14:59:27.
