data_PCOD9456133
_publ_section_title
;
Structure prediction by ZEFSAII (Michael W. Deem and Ramdas Pophale) SiO2 
 PCOD9456133
Probable space group: P B C N
;
_chemical_formula_sum "Si O2"
_cell_formula_units_Z 48
_cell_length_a 23.615080
_cell_length_b 5.578792
_cell_length_c 17.605114
_cell_angle_alpha 90.000000
_cell_angle_beta 90.000000
_cell_angle_gamma 90.000000
_cell_volume 2319.361438
_symmetry_space_group_name_H-M "P B C N"
_symmetry_group_IT_number 60
_symmetry_cell_setting 'orthorhombic'
loop_
_space_group_symop_operation_xyz
x,y,z
1/2-x,1/2-y,1/2+z
1/2+x,1/2-y,-z
-x,y,1/2-z
-x,-y,-z
1/2+x,1/2+y,1/2-z
1/2-x,1/2+y,z
x,-y,1/2+z
loop_
_atom_site_type_symbol
_atom_site_label
_atom_site_fract_x
_atom_site_fract_y
_atom_site_fract_z
Si Si1 0.389921 0.245275 0.346547
Si Si2 0.398209 0.991916 0.195881
Si Si3 0.539275 0.629405 0.192717
Si Si4 0.218589 0.654362 0.444594
Si Si5 0.003877 0.499312 0.589843
Si Si6 0.217854 0.669342 0.627397
O O1 0.403999 0.524282 0.343251
O O2 0.340780 0.165790 0.401455
O O3 0.377992 0.179873 0.259032
O O4 0.449912 0.140131 0.376042
O O5 0.438918 0.826593 0.247549
O O6 0.437247 0.088438 0.127103
O O7 0.344151 0.853837 0.163782
O O8 0.500000 0.470710 0.250000
O O9 0.504201 0.732444 0.122580
O O10 0.248581 0.401817 0.424473
O O11 0.211763 0.661652 0.535798
O O12 0.000000 0.500000 0.500000
O O13 0.252400 0.423720 0.647684
#
# Coordination Sequence:
#
# PCOD9456133 Si02
#       6
#     8   8   8   8   8   8
#     4  11  22  38  63  89 124 165 208 262 321 382
#     4  10  22  38  61  90 125 161 208 265 316 382
#     4   9  20  38  58  88 126 158 204 259 323 383
#     4  10  24  43  65  91 128 168 215 264 315 375
#     4  10  21  39  61  91 124 160 210 259 321 380
#     4  10  23  44  64  91 126 169 213 261 314 373
#
# _framework density 20.695350999999999
#
# number of rings (size 3 to 8) (size 9 to 14) (size 15 to 20)
#    0.000    2.000    0.000    3.500    7.000    2.000 
#    3.000    0.000    0.000    0.000    0.000    0.000 
#    0.000    0.000    0.000    0.000    0.000    0.000 
#
# Total GULP energy -267406.633289 kJ/mol
# GULP energy per Si atom -5570.971527 kJ/mol
# Density = 2.064825 g / cm^3
# Si number density = 20.695351 Si / 1000 Ang^3
#
#
#
# Elastic Constant Matrix: (Units=GPa)
#
#
# Indices 1 2 3 4 5 6 
#
# 1 106.0536 26.3036 48.2336 0.0000 0.0000 0.0000
# 2 26.3036 68.0256 32.8186 0.0000 0.0000 0.0000
# 3 48.2336 32.8186 101.4541 0.0000 0.0000 0.0000
# 4 0.0000 0.0000 0.0000 18.2672 0.0000 0.0000
# 5 0.0000 0.0000 0.0000 0.0000 45.6124 0.0000
# 6 0.0000 0.0000 0.0000 0.0000 0.0000 30.3896
#
#
#
# Elastic Compliance Matrix: (Units=1/GPa)
#
#
# Indices 1 2 3 4 5 6 
#
# 1 0.012326 -0.002298 -0.005117 0.000000 0.000000 0.000000
# 2 -0.002298 0.017847 -0.004681 0.000000 0.000000 0.000000
# 3 -0.005117 -0.004681 0.013804 0.000000 0.000000 0.000000
# 4 0.000000 0.000000 0.000000 0.054743 0.000000 0.000000
# 5 0.000000 0.000000 0.000000 0.000000 0.021924 0.000000
# 6 0.000000 0.000000 0.000000 0.000000 0.000000 0.032906
#
#
# Mechanical properties :
#
#
# Convention : Reuss Voigt Hill
#
# Bulk Modulus (GPa) = 50.54068 54.47164 52.50616
# Shear Modulus (GPa) = 27.12443 30.06569 28.59506
#
# Velocity S-wave (km/s) = 3.62422 3.81566 3.72117
# Velocity P-wave (km/s) = 6.47978 6.76685 6.62487
#
# Compressibility (1/GPa) = 0.01978604
#
# Stress axis : x y z
#
# Youngs Moduli (GPa) = 81.12773 56.03177 72.44505
#
# Poissons Ratio (x) = 0.12874 0.37070
# Poissons Ratio (y) = 0.18640 0.33911
# Poissons Ratio (z) = 0.41513 0.26228
#
# Static dielectric constant tensor:
#      x y z
#    x 1.771690 0.000000 0.000000 
#    y 0.000000 1.933660 0.000000 
#    z 0.000000 0.000000 1.743670 
# 
# From -- ./inp_files/21122.got.cif
#   From: 2010.05.17/outbox.cif.g08.bks.cpg/sg60_11_cif.got.tgz:21122.got - 2010.06.03 14:59:27.
