data_PCOD9456221
_publ_section_title
;
Structure prediction by ZEFSAII (Michael W. Deem and Ramdas Pophale) SiO2 
 PCOD9456221
Probable space group: P B C N
;
_chemical_formula_sum "Si O2"
_cell_formula_units_Z 64
_cell_length_a 5.996499
_cell_length_b 30.308143
_cell_length_c 17.619946
_cell_angle_alpha 90.000000
_cell_angle_beta 90.000000
_cell_angle_gamma 90.000000
_cell_volume 3202.297427
_symmetry_space_group_name_H-M "P B C N"
_symmetry_group_IT_number 60
_symmetry_cell_setting 'orthorhombic'
loop_
_space_group_symop_operation_xyz
x,y,z
1/2-x,1/2-y,1/2+z
1/2+x,1/2-y,-z
-x,y,1/2-z
-x,-y,-z
1/2+x,1/2+y,1/2-z
1/2-x,1/2+y,z
x,-y,1/2+z
loop_
_atom_site_type_symbol
_atom_site_label
_atom_site_fract_x
_atom_site_fract_y
_atom_site_fract_z
Si Si1 0.629922 0.466183 0.320409
Si Si2 0.797254 0.649307 0.048363
Si Si3 0.384776 0.933390 0.046070
Si Si4 0.606439 0.203905 0.334215
Si Si5 0.353798 0.265746 0.031614
Si Si6 0.431058 0.375865 0.665042
Si Si7 0.600635 0.947924 0.822995
Si Si8 0.247684 0.003976 0.427905
O O1 0.500000 0.445541 0.250000
O O2 0.786541 0.433895 0.368869
O O3 0.772114 0.508554 0.293465
O O4 0.450258 0.488565 0.375551
O O5 0.954068 0.676188 0.106394
O O6 0.627205 0.625760 0.105158
O O7 0.909223 0.613066 0.994608
O O8 0.672663 0.683580 0.992856
O O9 0.612207 0.961245 0.046360
O O10 0.209997 0.964158 0.999014
O O11 0.500000 0.208636 0.250000
O O12 0.645874 0.249204 0.380863
O O13 0.823557 0.172787 0.327899
O O14 0.607632 0.253066 0.999931
O O15 0.500000 0.389619 0.750000
O O16 0.258175 0.412763 0.637751
O O17 0.500000 0.923824 0.750000
O O18 0.414971 0.966419 0.877895
#
# Coordination Sequence:
#
# PCOD9456221 Si02
#       8
#     8   8   8   8   8   8   8   8
#     4  11  21  38  59  79 109 164 214 264 312 371
#     4  11  23  41  61  91 132 167 213 260 329 394
#     4  10  23  36  57  86 121 164 212 259 317 380
#     4  11  22  40  64  96 129 166 204 263 329 406
#     4  10  22  43  68  96 130 174 219 260 328 407
#     4  12  23  34  57  96 130 160 201 260 325 399
#     4  11  22  33  55  85 122 158 206 253 328 383
#     4  10  21  40  56  84 121 167 211 265 313 384
#
# _framework density 19.98565
#
# number of rings (size 3 to 8) (size 9 to 14) (size 15 to 20)
#    0.000    1.250    3.750    2.625    1.750    3.000 
#    0.000    0.625    0.000    0.000   16.250    0.000 
#    0.000    0.000    0.000    0.000    0.000    0.000 
#
# Total GULP energy -356963.906087 kJ/mol
# GULP energy per Si atom -5577.561033 kJ/mol
# Density = 1.994016 g / cm^3
# Si number density = 19.985650 Si / 1000 Ang^3
#
#
#
# Elastic Constant Matrix: (Units=GPa)
#
#
# Indices 1 2 3 4 5 6 
#
# 1 50.6251 10.3800 12.8065 0.0000 0.0000 0.0000
# 2 10.3800 66.1581 33.3637 0.0000 0.0000 0.0000
# 3 12.8065 33.3637 94.4911 0.0000 0.0000 0.0000
# 4 0.0000 0.0000 0.0000 30.2747 0.0000 0.0000
# 5 0.0000 0.0000 0.0000 0.0000 31.7063 0.0000
# 6 0.0000 0.0000 0.0000 0.0000 0.0000 26.9290
#
#
#
# Elastic Compliance Matrix: (Units=1/GPa)
#
#
# Indices 1 2 3 4 5 6 
#
# 1 0.020722 -0.002232 -0.002020 0.000000 0.000000 0.000000
# 2 -0.002232 0.018630 -0.006276 0.000000 0.000000 0.000000
# 3 -0.002020 -0.006276 0.013073 0.000000 0.000000 0.000000
# 4 0.000000 0.000000 0.000000 0.033031 0.000000 0.000000
# 5 0.000000 0.000000 0.000000 0.000000 0.031539 0.000000
# 6 0.000000 0.000000 0.000000 0.000000 0.000000 0.037135
#
#
# Mechanical properties :
#
#
# Convention : Reuss Voigt Hill
#
# Bulk Modulus (GPa) = 31.87922 36.04164 33.96043
# Shear Modulus (GPa) = 26.93351 28.09696 27.51523
#
# Velocity S-wave (km/s) = 3.67501 3.75354 3.71448
# Velocity P-wave (km/s) = 5.83037 6.07111 5.95196
#
# Compressibility (1/GPa) = 0.03136840
#
# Stress axis : x y z
#
# Youngs Moduli (GPa) = 48.25830 53.67588 76.49562
#
# Poissons Ratio (x) = 0.11982 0.15454
# Poissons Ratio (y) = 0.10773 0.48006
# Poissons Ratio (z) = 0.09749 0.33685
#
# Static dielectric constant tensor:
#      x y z
#    x 1.796180 0.000000 0.000000 
#    y 0.000000 1.688440 0.000000 
#    z 0.000000 0.000000 1.750300 
# 
# From -- ./inp_files/18855.got.cif
#   From: 2010.05.17/outbox.cif.g08.bks.cpg/sg60_10_cif.got.tgz:18855.got - 2010.06.03 14:59:27.
