data_PCOD9456744
_publ_section_title
;
Structure prediction by ZEFSAII (Michael W. Deem and Ramdas Pophale) SiO2 
 PCOD9456744
Probable space group: P B C N
;
_chemical_formula_sum "Si O2"
_cell_formula_units_Z 64
_cell_length_a 8.680729
_cell_length_b 10.157434
_cell_length_c 31.629057
_cell_angle_alpha 90.000000
_cell_angle_beta 90.000000
_cell_angle_gamma 90.000000
_cell_volume 2788.858318
_symmetry_space_group_name_H-M "P B C N"
_symmetry_group_IT_number 60
_symmetry_cell_setting 'orthorhombic'
loop_
_space_group_symop_operation_xyz
x,y,z
1/2-x,1/2-y,1/2+z
1/2+x,1/2-y,-z
-x,y,1/2-z
-x,-y,-z
1/2+x,1/2+y,1/2-z
1/2-x,1/2+y,z
x,-y,1/2+z
loop_
_atom_site_type_symbol
_atom_site_label
_atom_site_fract_x
_atom_site_fract_y
_atom_site_fract_z
Si Si1 0.629931 0.053528 0.320295
Si Si2 0.745471 0.966682 0.409072
Si Si3 0.580711 0.999195 0.563790
Si Si4 0.794448 0.282132 0.284222
Si Si5 0.710949 0.965911 0.151703
Si Si6 0.624814 0.297463 0.688868
Si Si7 0.719933 0.375831 0.993063
Si Si8 0.446240 0.288754 0.048909
O O1 0.718770 0.035860 0.364672
O O2 0.700809 0.939800 0.289672
O O3 0.451963 0.018337 0.328894
O O4 0.652401 0.198813 0.302013
O O5 0.873664 0.854091 0.409633
O O6 0.573132 0.920499 0.422713
O O7 0.802865 0.058684 0.447467
O O8 0.521826 0.850212 0.560450
O O9 0.701917 0.011424 0.601671
O O10 0.654080 0.047207 0.520631
O O11 0.821276 0.236601 0.236329
O O12 0.943006 0.232487 0.310946
O O13 0.712306 0.810471 0.160297
O O14 0.838261 0.055959 0.173788
O O15 0.570949 0.365263 0.021696
O O16 0.800702 0.237393 0.981988
#
# Coordination Sequence:
#
# PCOD9456744 Si02
#       8
#     8   8   8   8   8   8   8   8
#     4  10  23  40  65  94 126 161 212 255 315 369
#     4  10  22  39  60  86 121 161 207 256 305 364
#     4  10  23  40  58  90 125 160 208 256 312 367
#     4  10  22  41  64  94 122 162 200 257 308 378
#     4  10  23  41  64  93 126 168 203 261 310 374
#     4  10  22  42  64  90 127 158 206 250 314 372
#     4  11  22  39  59  90 121 163 208 251 313 368
#     4  11  22  38  63  85 123 164 206 261 306 375
#
# _framework density 22.948461000000002
#
# number of rings (size 3 to 8) (size 9 to 14) (size 15 to 20)
#    0.000    1.750    0.000    4.125    7.000    3.500 
#    2.250    0.000    0.000    0.000    0.000    0.000 
#    0.000    0.000    0.000    0.000    0.000    0.000 
#
# Total GULP energy -357828.502531 kJ/mol
# GULP energy per Si atom -5591.070352 kJ/mol
# Density = 2.289623 g / cm^3
# Si number density = 22.948461 Si / 1000 Ang^3
#
#
#
# Elastic Constant Matrix: (Units=GPa)
#
#
# Indices 1 2 3 4 5 6 
#
# 1 32.2473 1.6997 -1.7823 0.0000 0.0000 0.0000
# 2 1.6997 36.1235 -7.9863 0.0000 0.0000 0.0000
# 3 -1.7823 -7.9863 43.5060 0.0000 0.0000 0.0000
# 4 0.0000 0.0000 0.0000 20.8260 0.0000 0.0000
# 5 0.0000 0.0000 0.0000 0.0000 23.7486 0.0000
# 6 0.0000 0.0000 0.0000 0.0000 0.0000 39.3790
#
#
#
# Elastic Compliance Matrix: (Units=1/GPa)
#
#
# Indices 1 2 3 4 5 6 
#
# 1 0.031133 -0.001233 0.001049 0.000000 0.000000 0.000000
# 2 -0.001233 0.028903 0.005255 0.000000 0.000000 0.000000
# 3 0.001049 0.005255 0.023993 0.000000 0.000000 0.000000
# 4 0.000000 0.000000 0.000000 0.048017 0.000000 0.000000
# 5 0.000000 0.000000 0.000000 0.000000 0.042108 0.000000
# 6 0.000000 0.000000 0.000000 0.000000 0.000000 0.025394
#
#
# Mechanical properties :
#
#
# Convention : Reuss Voigt Hill
#
# Bulk Modulus (GPa) = 10.61895 10.63767 10.62831
# Shear Modulus (GPa) = 22.64535 24.78710 23.71623
#
# Velocity S-wave (km/s) = 3.14473 3.29008 3.21823
# Velocity P-wave (km/s) = 4.22175 4.36788 4.29544
#
# Compressibility (1/GPa) = 0.09417130
#
# Stress axis : x y z
#
# Youngs Moduli (GPa) = 32.11996 34.59888 41.67886
#
# Poissons Ratio (x) = 0.04266 -0.04373
# Poissons Ratio (y) = 0.03960 -0.21903
# Poissons Ratio (z) = -0.03370 -0.18182
#
# Static dielectric constant tensor:
#      x y z
#    x 1.883990 0.000000 0.000000 
#    y 0.000000 1.913660 0.000000 
#    z 0.000000 0.000000 1.833760 
# 
# From -- ./inp_files/26017.got.cif
#   From: 2010.05.17/outbox.cif.g08.bks.cpg/sg60_14_cif.got.tgz:26017.got - 2010.06.03 14:59:27.
