data_PCOD9456051
_publ_section_title
;
Structure prediction by ZEFSAII (Michael W. Deem and Ramdas Pophale) SiO2 
 PCOD9456051
Probable space group: P B C N
;
_chemical_formula_sum "Si O2"
_cell_formula_units_Z 40
_cell_length_a 22.453975
_cell_length_b 5.439105
_cell_length_c 13.490070
_cell_angle_alpha 90.000000
_cell_angle_beta 90.000000
_cell_angle_gamma 90.000000
_cell_volume 1647.535878
_symmetry_space_group_name_H-M "P B C N"
_symmetry_group_IT_number 60
_symmetry_cell_setting 'orthorhombic'
loop_
_space_group_symop_operation_xyz
x,y,z
1/2-x,1/2-y,1/2+z
1/2+x,1/2-y,-z
-x,y,1/2-z
-x,-y,-z
1/2+x,1/2+y,1/2-z
1/2-x,1/2+y,z
x,-y,1/2+z
loop_
_atom_site_type_symbol
_atom_site_label
_atom_site_fract_x
_atom_site_fract_y
_atom_site_fract_z
Si Si1 0.783786 0.147157 0.785440
Si Si2 0.937400 0.557002 0.724907
Si Si3 0.846954 0.753205 0.088105
Si Si4 0.055819 0.861275 0.957236
Si Si5 0.871680 0.540876 0.409700
O O1 0.737073 0.369914 0.805357
O O2 0.798198 0.165558 0.667753
O O3 0.838791 0.237855 0.852575
O O4 0.893620 0.398054 0.656312
O O5 0.955213 0.782158 0.655309
O O6 0.899394 0.623589 0.821968
O O7 0.000000 0.427939 0.750000
O O8 0.884085 0.979841 0.045802
O O9 0.830710 0.588661 0.992633
O O10 0.071523 0.635378 0.028697
O O11 0.000000 0.000000 0.000000
#
# Coordination Sequence:
#
# PCOD9456051 Si02
#       5
#     8   8   8   8   8
#     4  11  28  47  73 102 137 184 243 297 359 414
#     4  10  21  38  62  96 139 177 225 280 349 432
#     4  10  24  42  67  96 139 175 232 295 351 423
#     4  11  23  40  69 103 139 184 230 283 361 432
#     4  10  24  43  67  97 137 180 231 295 356 424
#
# _framework density 24.278683000000001
#
# number of rings (size 3 to 8) (size 9 to 14) (size 15 to 20)
#    0.000    1.600    0.000    2.400   11.200   10.400 
#    0.000    0.000    0.000    0.000    0.000    0.000 
#    0.000    0.000    0.000    0.000    0.000    0.000 
#
# Total GULP energy -223628.976794 kJ/mol
# GULP energy per Si atom -5590.724420 kJ/mol
# Density = 2.422342 g / cm^3
# Si number density = 24.278683 Si / 1000 Ang^3
#
#
#
# Elastic Constant Matrix: (Units=GPa)
#
#
# Indices 1 2 3 4 5 6 
#
# 1 46.0253 1.5488 22.8308 0.0000 0.0000 0.0000
# 2 1.5488 38.2402 26.7127 0.0000 0.0000 0.0000
# 3 22.8308 26.7127 165.4583 0.0000 0.0000 0.0000
# 4 0.0000 0.0000 0.0000 1.0433 0.0000 0.0000
# 5 0.0000 0.0000 0.0000 0.0000 37.0080 0.0000
# 6 0.0000 0.0000 0.0000 0.0000 0.0000 31.5888
#
#
#
# Elastic Compliance Matrix: (Units=1/GPa)
#
#
# Indices 1 2 3 4 5 6 
#
# 1 0.023397 0.001474 -0.003466 0.000000 0.000000 0.000000
# 2 0.001474 0.029567 -0.004977 0.000000 0.000000 0.000000
# 3 -0.003466 -0.004977 0.007326 0.000000 0.000000 0.000000
# 4 0.000000 0.000000 0.000000 0.958483 0.000000 0.000000
# 5 0.000000 0.000000 0.000000 0.000000 0.027021 0.000000
# 6 0.000000 0.000000 0.000000 0.000000 0.000000 0.031657
#
#
# Mechanical properties :
#
#
# Convention : Reuss Voigt Hill
#
# Bulk Modulus (GPa) = 21.57447 39.10096 30.33772
# Shear Modulus (GPa) = 4.51736 27.17012 15.84374
#
# Velocity S-wave (km/s) = 1.36553 3.34891 2.55733
# Velocity P-wave (km/s) = 3.37516 5.57617 4.60898
#
# Compressibility (1/GPa) = 0.04635109
#
# Stress axis : x y z
#
# Youngs Moduli (GPa) = 42.74038 33.82101 136.50677
#
# Poissons Ratio (x) = -0.04985 0.47319
# Poissons Ratio (y) = -0.06299 0.67939
# Poissons Ratio (z) = 0.14816 0.16832
#
# Static dielectric constant tensor:
#      x y z
#    x 2.493810 0.000000 0.000000 
#    y 0.000000 2.039880 0.000000 
#    z 0.000000 0.000000 1.914360 
# 
# From -- ./inp_files/13196.got.cif
#   From: 2010.05.17/outbox.cif.g08.bks.cpg/sg60_7_cif.got.tgz:13196.got - 2010.06.03 14:59:27.
