data_PCOD9456850
_publ_section_title
;
Structure prediction by ZEFSAII (Michael W. Deem and Ramdas Pophale) SiO2 
 PCOD9456850
Probable space group: P B C N
;
_chemical_formula_sum "Si O2"
_cell_formula_units_Z 52
_cell_length_a 16.476251
_cell_length_b 7.812757
_cell_length_c 17.645161
_cell_angle_alpha 90.000000
_cell_angle_beta 90.000000
_cell_angle_gamma 90.000000
_cell_volume 2271.372385
_symmetry_space_group_name_H-M "P B C N"
_symmetry_group_IT_number 60
_symmetry_cell_setting 'orthorhombic'
loop_
_space_group_symop_operation_xyz
x,y,z
1/2-x,1/2-y,1/2+z
1/2+x,1/2-y,-z
-x,y,1/2-z
-x,-y,-z
1/2+x,1/2+y,1/2-z
1/2-x,1/2+y,z
x,-y,1/2+z
loop_
_atom_site_type_symbol
_atom_site_label
_atom_site_fract_x
_atom_site_fract_y
_atom_site_fract_z
Si Si1 0.000000 0.325388 0.250000
Si Si2 0.663889 0.955520 0.742555
Si Si3 0.298107 0.345325 0.160888
Si Si4 0.348480 0.039626 0.921895
Si Si5 0.063073 0.220780 0.953935
Si Si6 0.544943 0.644071 0.100008
Si Si7 0.212323 0.096459 0.043896
O O1 0.919128 0.439383 0.249156
O O2 0.999421 0.211977 0.174528
O O3 0.651471 0.772024 0.782264
O O4 0.735717 0.047004 0.788614
O O5 0.689253 0.960319 0.654668
O O6 0.245382 0.224439 0.106550
O O7 0.338048 0.461483 0.095621
O O8 0.373766 0.237665 0.906791
O O9 0.288918 0.033419 0.994050
O O10 0.429175 0.919058 0.930100
O O11 0.151951 0.182077 0.986333
O O12 0.001390 0.193577 0.022768
O O13 0.051549 0.061780 0.896823
#
# Coordination Sequence:
#
# PCOD9456850 Si02
#       7
#     4   8   8   8   8   8   8
#     4  10  22  46  68  94 140 180 216 280 338 402
#     4  10  24  43  66  98 136 174 225 274 345 396
#     4  10  22  40  65  96 130 177 214 279 333 402
#     4  11  24  42  69  98 132 177 223 280 330 399
#     4  11  23  43  66 101 127 176 222 272 334 395
#     4  10  24  44  66  96 137 171 222 276 331 401
#     4  11  21  40  67  96 129 170 224 274 330 393
#
# _framework density 22.893647999999999
#
# number of rings (size 3 to 8) (size 9 to 14) (size 15 to 20)
#    0.000    1.538    1.538    2.308    4.308    1.231 
#   19.385    0.769    0.000    0.000    0.000    0.000 
#    0.000    0.000    0.000    0.000    0.000    0.000 
#
# Total GULP energy -290230.437220 kJ/mol
# GULP energy per Si atom -5581.354562 kJ/mol
# Density = 2.284154 g / cm^3
# Si number density = 22.893648 Si / 1000 Ang^3
#
#
#
# Elastic Constant Matrix: (Units=GPa)
#
#
# Indices 1 2 3 4 5 6 
#
# 1 28.6098 2.2021 2.1750 0.0000 0.0000 0.0000
# 2 2.2021 65.6447 27.0621 0.0000 0.0000 0.0000
# 3 2.1750 27.0621 109.8890 0.0000 0.0000 0.0000
# 4 0.0000 0.0000 0.0000 70.9438 0.0000 0.0000
# 5 0.0000 0.0000 0.0000 0.0000 29.7003 0.0000
# 6 0.0000 0.0000 0.0000 0.0000 0.0000 28.5570
#
#
#
# Elastic Compliance Matrix: (Units=1/GPa)
#
#
# Indices 1 2 3 4 5 6 
#
# 1 0.035064 -0.000991 -0.000450 0.000000 0.000000 0.000000
# 2 -0.000991 0.016983 -0.004163 0.000000 0.000000 0.000000
# 3 -0.000450 -0.004163 0.010134 0.000000 0.000000 0.000000
# 4 0.000000 0.000000 0.000000 0.014096 0.000000 0.000000
# 5 0.000000 0.000000 0.000000 0.000000 0.033670 0.000000
# 6 0.000000 0.000000 0.000000 0.000000 0.000000 0.035018
#
#
# Mechanical properties :
#
#
# Convention : Reuss Voigt Hill
#
# Bulk Modulus (GPa) = 19.61801 29.66910 24.64356
# Shear Modulus (GPa) = 28.87477 37.35386 33.11432
#
# Velocity S-wave (km/s) = 3.55527 4.04372 3.80734
# Velocity P-wave (km/s) = 5.04391 5.89830 5.48776
#
# Compressibility (1/GPa) = 0.05097357
#
# Stress axis : x y z
#
# Youngs Moduli (GPa) = 28.51968 58.88298 98.67642
#
# Poissons Ratio (x) = 0.05834 0.04441
# Poissons Ratio (y) = 0.02826 0.41076
# Poissons Ratio (z) = 0.01283 0.24511
#
# Static dielectric constant tensor:
#      x y z
#    x 1.848130 0.000000 0.000000 
#    y 0.000000 1.997620 0.000000 
#    z 0.000000 0.000000 1.845070 
# 
# From -- ./inp_files/20851.got.cif
#   From: 2010.05.17/outbox.cif.g08.bks.cpg/sg60_11_cif.got.tgz:20851.got - 2010.06.03 14:59:27.
