data_PCOD9456269
_publ_section_title
;
Structure prediction by ZEFSAII (Michael W. Deem and Ramdas Pophale) SiO2 
 PCOD9456269
Probable space group: P B C N
;
_chemical_formula_sum "Si O2"
_cell_formula_units_Z 40
_cell_length_a 9.193587
_cell_length_b 12.443152
_cell_length_c 16.523084
_cell_angle_alpha 90.000000
_cell_angle_beta 90.000000
_cell_angle_gamma 90.000000
_cell_volume 1890.194553
_symmetry_space_group_name_H-M "P B C N"
_symmetry_group_IT_number 60
_symmetry_cell_setting 'orthorhombic'
loop_
_space_group_symop_operation_xyz
x,y,z
1/2-x,1/2-y,1/2+z
1/2+x,1/2-y,-z
-x,y,1/2-z
-x,-y,-z
1/2+x,1/2+y,1/2-z
1/2-x,1/2+y,z
x,-y,1/2+z
loop_
_atom_site_type_symbol
_atom_site_label
_atom_site_fract_x
_atom_site_fract_y
_atom_site_fract_z
Si Si1 0.862000 0.454151 0.092533
Si Si2 0.267864 0.190164 0.040444
Si Si3 0.343529 0.627778 0.774874
Si Si4 0.911368 0.287860 0.329573
Si Si5 0.582311 0.799069 0.597909
O O1 0.731313 0.442557 0.156012
O O2 0.920643 0.573161 0.100326
O O3 0.982327 0.365720 0.119111
O O4 0.803606 0.422022 0.003977
O O5 0.153891 0.195125 0.113791
O O6 0.420986 0.236555 0.071696
O O7 0.197788 0.261577 0.969249
O O8 0.500000 0.585007 0.750000
O O9 0.226165 0.644848 0.704421
O O10 0.373292 0.743013 0.818387
O O11 0.000000 0.251767 0.250000
#
# Coordination Sequence:
#
# PCOD9456269 Si02
#       5
#     8   8   8   8   8
#     4  10  23  42  65  93 126 169 222 254 326 391
#     4  11  21  39  67  91 125 163 215 267 315 379
#     4  10  21  40  64  92 132 164 210 271 316 377
#     4  10  21  40  64  90 132 164 204 265 324 384
#     4  11  23  42  67  93 122 174 213 265 319 382
#
# _framework density 21.161843999999999
#
# number of rings (size 3 to 8) (size 9 to 14) (size 15 to 20)
#    0.000    1.600    4.000    0.600    0.000    2.400 
#    0.000   11.000    0.000    0.000    0.000    0.000 
#    0.000    0.000    0.000    0.000    0.000    0.000 
#
# Total GULP energy -223431.674373 kJ/mol
# GULP energy per Si atom -5585.791859 kJ/mol
# Density = 2.111368 g / cm^3
# Si number density = 21.161844 Si / 1000 Ang^3
#
#
#
# Elastic Constant Matrix: (Units=GPa)
#
#
# Indices 1 2 3 4 5 6 
#
# 1 150.2530 24.8777 40.5588 0.0000 0.0000 0.0000
# 2 24.8777 39.4739 26.9277 0.0000 0.0000 0.0000
# 3 40.5588 26.9277 63.0829 0.0000 0.0000 0.0000
# 4 0.0000 0.0000 0.0000 -4.8228 0.0000 0.0000
# 5 0.0000 0.0000 0.0000 0.0000 39.2956 0.0000
# 6 0.0000 0.0000 0.0000 0.0000 0.0000 8.8822
#
#
#
# Elastic Compliance Matrix: (Units=1/GPa)
#
#
# Indices 1 2 3 4 5 6 
#
# 1 0.008188 -0.002214 -0.004319 0.000000 0.000000 0.000000
# 2 -0.002214 0.036339 -0.014088 0.000000 0.000000 0.000000
# 3 -0.004319 -0.014088 0.024643 0.000000 0.000000 0.000000
# 4 0.000000 0.000000 0.000000 -0.207348 0.000000 0.000000
# 5 0.000000 0.000000 0.000000 0.000000 0.025448 0.000000
# 6 0.000000 0.000000 0.000000 0.000000 0.000000 0.112585
#
#
# Mechanical properties :
#
#
# Convention : Reuss Voigt Hill
#
# Bulk Modulus (GPa) = 35.80779 48.61533 42.21156
# Shear Modulus (GPa) = 99.19078 19.36737 59.27907
#
# Velocity S-wave (km/s) = 6.85377 3.02851 5.29840
# Velocity P-wave (km/s) = 8.92132 5.93735 7.57767
#
# Compressibility (1/GPa) = 0.02792688
#
# Stress axis : x y z
#
# Youngs Moduli (GPa) = 122.13077 27.51862 40.57929
#
# Poissons Ratio (x) = 0.06092 0.17528
# Poissons Ratio (y) = 0.27037 0.57170
# Poissons Ratio (z) = 0.52753 0.38769
#
# Static dielectric constant tensor:
#      x y z
#    x 1.767360 0.000000 0.000000 
#    y 0.000000 1.712850 0.000000 
#    z 0.000000 0.000000 1.796130 
# 
# From -- ./inp_files/19016.got.cif
#   From: 2010.05.17/outbox.cif.g08.bks.cpg/sg60_10_cif.got.tgz:19016.got - 2010.06.03 14:59:27.
