data_PCOD9456879
_publ_section_title
;
Structure prediction by ZEFSAII (Michael W. Deem and Ramdas Pophale) SiO2 
 PCOD9456879
Probable space group: P B C N
;
_chemical_formula_sum "Si O2"
_cell_formula_units_Z 36
_cell_length_a 7.532935
_cell_length_b 13.468713
_cell_length_c 13.481194
_cell_angle_alpha 90.000000
_cell_angle_beta 90.000000
_cell_angle_gamma 90.000000
_cell_volume 1367.787647
_symmetry_space_group_name_H-M "P B C N"
_symmetry_group_IT_number 60
_symmetry_cell_setting 'orthorhombic'
loop_
_space_group_symop_operation_xyz
x,y,z
1/2-x,1/2-y,1/2+z
1/2+x,1/2-y,-z
-x,y,1/2-z
-x,-y,-z
1/2+x,1/2+y,1/2-z
1/2-x,1/2+y,z
x,-y,1/2+z
loop_
_atom_site_type_symbol
_atom_site_label
_atom_site_fract_x
_atom_site_fract_y
_atom_site_fract_z
Si Si1 0.368645 0.598904 0.843727
Si Si2 0.148869 0.218804 0.038039
Si Si3 0.550372 0.066385 0.403266
Si Si4 0.689262 0.376748 0.584745
Si Si5 0.500000 0.917787 0.250000
O O1 0.500000 0.602380 0.750000
O O2 0.408955 0.675565 0.931108
O O3 0.376051 0.490121 0.898320
O O4 0.165943 0.625203 0.810903
O O5 0.222707 0.328460 0.016126
O O6 0.307448 0.148574 0.072270
O O7 0.977906 0.194303 0.105081
O O8 0.373766 0.116102 0.355977
O O9 0.500000 0.000000 0.500000
O O10 0.611618 0.986098 0.325300
#
# Coordination Sequence:
#
# PCOD9456879 Si02
#       5
#     8   8   8   8   4
#     4  11  25  44  64  99 134 178 224 280 338 400
#     4  12  23  42  69  96 131 180 228 274 343 405
#     4  11  22  43  69  93 135 179 220 277 340 403
#     4  11  24  41  67  98 129 176 227 276 340 399
#     4  10  22  40  68  92 132 170 220 270 340 388
#
# _framework density 26.319876000000001
#
# number of rings (size 3 to 8) (size 9 to 14) (size 15 to 20)
#    0.000    0.889    6.667    2.000    3.111    0.000 
#   10.000    0.000    0.000    0.000    0.000    0.000 
#    0.000    0.000    0.000    0.000    0.000    0.000 
#
# Total GULP energy -200751.649761 kJ/mol
# GULP energy per Si atom -5576.434716 kJ/mol
# Density = 2.625997 g / cm^3
# Si number density = 26.319876 Si / 1000 Ang^3
#
#
#
# Elastic Constant Matrix: (Units=GPa)
#
#
# Indices 1 2 3 4 5 6 
#
# 1 171.1450 50.9376 32.1726 0.0000 0.0000 0.0000
# 2 50.9376 132.1360 61.8375 0.0000 0.0000 0.0000
# 3 32.1726 61.8375 88.8287 0.0000 0.0000 0.0000
# 4 0.0000 0.0000 0.0000 35.0097 0.0000 0.0000
# 5 0.0000 0.0000 0.0000 0.0000 34.3508 0.0000
# 6 0.0000 0.0000 0.0000 0.0000 0.0000 37.1849
#
#
#
# Elastic Compliance Matrix: (Units=1/GPa)
#
#
# Indices 1 2 3 4 5 6 
#
# 1 0.006651 -0.002131 -0.000926 0.000000 0.000000 0.000000
# 2 -0.002131 0.011907 -0.007518 0.000000 0.000000 0.000000
# 3 -0.000926 -0.007518 0.016826 0.000000 0.000000 0.000000
# 4 0.000000 0.000000 0.000000 0.028563 0.000000 0.000000
# 5 0.000000 0.000000 0.000000 0.000000 0.029111 0.000000
# 6 0.000000 0.000000 0.000000 0.000000 0.000000 0.026893
#
#
# Mechanical properties :
#
#
# Convention : Reuss Voigt Hill
#
# Bulk Modulus (GPa) = 70.24026 75.77834 73.00930
# Shear Modulus (GPa) = 34.28274 37.78654 36.03464
#
# Velocity S-wave (km/s) = 3.61299 3.79313 3.70415
# Velocity P-wave (km/s) = 6.64455 6.93091 6.78924
#
# Compressibility (1/GPa) = 0.01423685
#
# Stress axis : x y z
#
# Youngs Moduli (GPa) = 150.34893 83.98086 59.43124
#
# Poissons Ratio (x) = 0.17895 0.05501
# Poissons Ratio (y) = 0.32037 0.44678
# Poissons Ratio (z) = 0.13917 0.63133
#
# Static dielectric constant tensor:
#      x y z
#    x 2.103610 0.000000 0.000000 
#    y 0.000000 2.134120 0.000000 
#    z 0.000000 0.000000 2.070830 
# 
# From -- ./inp_files/14542.got.cif
#   From: 2010.05.17/outbox.cif.g08.bks.cpg/sg60_8_cif.got.tgz:14542.got - 2010.06.03 14:59:27.
