data_PCOD9456660
_publ_section_title
;
Structure prediction by ZEFSAII (Michael W. Deem and Ramdas Pophale) SiO2 
 PCOD9456660
Probable space group: P B C N
;
_chemical_formula_sum "Si O2"
_cell_formula_units_Z 52
_cell_length_a 16.343985
_cell_length_b 20.536091
_cell_length_c 7.463041
_cell_angle_alpha 90.000000
_cell_angle_beta 90.000000
_cell_angle_gamma 90.000000
_cell_volume 2504.906748
_symmetry_space_group_name_H-M "P B C N"
_symmetry_group_IT_number 60
_symmetry_cell_setting 'orthorhombic'
loop_
_space_group_symop_operation_xyz
x,y,z
1/2-x,1/2-y,1/2+z
1/2+x,1/2-y,-z
-x,y,1/2-z
-x,-y,-z
1/2+x,1/2+y,1/2-z
1/2-x,1/2+y,z
x,-y,1/2+z
loop_
_atom_site_type_symbol
_atom_site_label
_atom_site_fract_x
_atom_site_fract_y
_atom_site_fract_z
Si Si1 0.000000 0.602563 0.750000
Si Si2 0.198178 0.602669 0.358844
Si Si3 0.532040 0.341955 0.042226
Si Si4 0.556897 0.805491 0.575116
Si Si5 0.377763 0.411219 0.922662
Si Si6 0.347009 0.556138 0.835984
Si Si7 0.332426 0.967297 0.240624
O O1 0.920784 0.558990 0.700218
O O2 0.023388 0.647786 0.581354
O O3 0.144308 0.666915 0.362175
O O4 0.294243 0.615499 0.337329
O O5 0.183787 0.567679 0.551341
O O6 0.167264 0.545617 0.227635
O O7 0.500000 0.342704 0.250000
O O8 0.559296 0.268529 0.006607
O O9 0.605857 0.393799 0.036701
O O10 0.456902 0.366270 0.921050
O O11 0.500000 0.808242 0.750000
O O12 0.387288 0.484842 0.852453
O O13 0.359672 0.420317 0.133855
O O14 0.249141 0.549198 0.857113
#
# Coordination Sequence:
#
# PCOD9456660 Si02
#       7
#     4   8   8   8   8   8   8
#     4  10  22  38  54  82 116 148 182 240 278 328
#     4   9  19  33  54  81 111 139 183 233 279 335
#     4   9  18  35  56  76 109 152 182 227 284 341
#     4  10  22  38  56  80 113 152 190 222 280 346
#     4   9  17  33  55  81 110 140 181 235 282 334
#     4   9  17  33  54  81 109 138 184 232 283 330
#     4   9  19  32  54  79 109 140 180 234 281 324
#
# _framework density 20.759256000000001
#
# number of rings (size 3 to 8) (size 9 to 14) (size 15 to 20)
#    0.000    2.769    0.000    0.462    3.231    1.231 
#    5.538    0.000    0.000    0.000    0.000    0.000 
#    0.000    0.000    0.000    0.000    0.000    0.000 
#
# Total GULP energy -290219.330248 kJ/mol
# GULP energy per Si atom -5581.140966 kJ/mol
# Density = 2.071201 g / cm^3
# Si number density = 20.759256 Si / 1000 Ang^3
#
#
#
# Elastic Constant Matrix: (Units=GPa)
#
#
# Indices 1 2 3 4 5 6 
#
# 1 127.4539 99.1735 28.3907 0.0000 0.0000 0.0000
# 2 99.1735 138.0049 20.7242 0.0000 0.0000 0.0000
# 3 28.3907 20.7242 37.1111 0.0000 0.0000 0.0000
# 4 0.0000 0.0000 0.0000 0.1505 0.0000 0.0000
# 5 0.0000 0.0000 0.0000 0.0000 21.2130 0.0000
# 6 0.0000 0.0000 0.0000 0.0000 0.0000 402.4562
#
#
#
# Elastic Compliance Matrix: (Units=1/GPa)
#
#
# Indices 1 2 3 4 5 6 
#
# 1 0.019675 -0.012966 -0.007811 0.000000 0.000000 0.000000
# 2 -0.012966 0.016454 0.000731 0.000000 0.000000 0.000000
# 3 -0.007811 0.000731 0.032514 0.000000 0.000000 0.000000
# 4 0.000000 0.000000 0.000000 6.643193 0.000000 0.000000
# 5 0.000000 0.000000 0.000000 0.000000 0.047141 0.000000
# 6 0.000000 0.000000 0.000000 0.000000 0.000000 0.002485
#
#
# Mechanical properties :
#
#
# Convention : Reuss Voigt Hill
#
# Bulk Modulus (GPa) = 35.02625 66.57185 50.79905
# Shear Modulus (GPa) = 0.73410 95.04937 47.89173
#
# Velocity S-wave (km/s) = 0.59531 6.77391 4.80834
# Velocity P-wave (km/s) = 4.16914 9.66019 7.43979
#
# Compressibility (1/GPa) = 0.02855002
#
# Stress axis : x y z
#
# Youngs Moduli (GPa) = 50.82678 60.77598 30.75626
#
# Poissons Ratio (x) = 0.78800 0.24024
# Poissons Ratio (y) = 0.65900 -0.02247
# Poissons Ratio (z) = 0.39701 -0.04440
#
# Static dielectric constant tensor:
#      x y z
#    x 1.757460 0.000000 0.000000 
#    y 0.000000 1.715200 0.000000 
#    z 0.000000 0.000000 1.793250 
# 
# From -- ./inp_files/6105.got.cif
#   From: 2010.05.17/outbox.cif.g08.bks.cpg/sg60_4_cif.got.tgz:6105.got - 2010.06.03 14:59:27.
