data_PCOD9456871
_publ_section_title
;
Structure prediction by ZEFSAII (Michael W. Deem and Ramdas Pophale) SiO2 
 PCOD9456871
Probable space group: P B C N
;
_chemical_formula_sum "Si O2"
_cell_formula_units_Z 32
_cell_length_a 9.099926
_cell_length_b 10.641168
_cell_length_c 13.580027
_cell_angle_alpha 90.000000
_cell_angle_beta 90.000000
_cell_angle_gamma 90.000000
_cell_volume 1315.006180
_symmetry_space_group_name_H-M "P B C N"
_symmetry_group_IT_number 60
_symmetry_cell_setting 'orthorhombic'
loop_
_space_group_symop_operation_xyz
x,y,z
1/2-x,1/2-y,1/2+z
1/2+x,1/2-y,-z
-x,y,1/2-z
-x,-y,-z
1/2+x,1/2+y,1/2-z
1/2-x,1/2+y,z
x,-y,1/2+z
loop_
_atom_site_type_symbol
_atom_site_label
_atom_site_fract_x
_atom_site_fract_y
_atom_site_fract_z
Si Si1 0.352378 0.080262 0.012642
Si Si2 0.595904 0.533463 0.633466
Si Si3 0.215462 0.093535 0.653266
Si Si4 0.988457 0.749699 0.862190
O O1 0.402718 0.198946 0.946474
O O2 0.211497 0.031948 0.952784
O O3 0.500000 0.000000 0.000000
O O4 0.298177 0.036164 0.121521
O O5 0.679489 0.582943 0.730537
O O6 0.449862 0.613840 0.612656
O O7 0.527938 0.395319 0.647105
O O8 0.321800 0.204932 0.615320
O O9 0.000000 0.695673 0.750000
#
# Coordination Sequence:
#
# PCOD9456871 Si02
#       4
#     8   8   8   8
#     4  10  23  40  66 100 136 174 222 286 334 416
#     4  11  22  42  69  95 134 180 221 280 345 410
#     4  10  22  40  67  95 133 176 223 279 339 406
#     4  11  21  41  66  91 136 173 224 272 343 404
#
# _framework density 24.334485999999998
#
# number of rings (size 3 to 8) (size 9 to 14) (size 15 to 20)
#    0.000    1.500    5.000    0.750    0.000    4.000 
#    0.000    5.000   16.500    0.000    0.000    0.000 
#    0.000    0.000    0.000    0.000    0.000    0.000 
#
# Total GULP energy -178281.786385 kJ/mol
# GULP energy per Si atom -5571.305825 kJ/mol
# Density = 2.427910 g / cm^3
# Si number density = 24.334486 Si / 1000 Ang^3
#
#
#
# Elastic Constant Matrix: (Units=GPa)
#
#
# Indices 1 2 3 4 5 6 
#
# 1 143.4121 1.0884 24.0939 0.0000 0.0000 0.0000
# 2 1.0884 62.6126 -2.2577 0.0000 0.0000 0.0000
# 3 24.0939 -2.2577 91.9739 0.0000 0.0000 0.0000
# 4 0.0000 0.0000 0.0000 29.0495 0.0000 0.0000
# 5 0.0000 0.0000 0.0000 0.0000 65.1728 0.0000
# 6 0.0000 0.0000 0.0000 0.0000 0.0000 28.1490
#
#
#
# Elastic Compliance Matrix: (Units=1/GPa)
#
#
# Indices 1 2 3 4 5 6 
#
# 1 0.007296 -0.000196 -0.001916 0.000000 0.000000 0.000000
# 2 -0.000196 0.015991 0.000444 0.000000 0.000000 0.000000
# 3 -0.001916 0.000444 0.011386 0.000000 0.000000 0.000000
# 4 0.000000 0.000000 0.000000 0.034424 0.000000 0.000000
# 5 0.000000 0.000000 0.000000 0.000000 0.015344 0.000000
# 6 0.000000 0.000000 0.000000 0.000000 0.000000 0.035525
#
#
# Mechanical properties :
#
#
# Convention : Reuss Voigt Hill
#
# Bulk Modulus (GPa) = 31.91220 38.20529 35.05875
# Shear Modulus (GPa) = 37.38390 42.81252 40.09821
#
# Velocity S-wave (km/s) = 3.92376 4.19899 4.06371
# Velocity P-wave (km/s) = 5.80261 6.26441 6.03793
#
# Compressibility (1/GPa) = 0.03133597
#
# Stress axis : x y z
#
# Youngs Moduli (GPa) = 137.05529 62.53659 87.83090
#
# Poissons Ratio (x) = 0.01225 0.16830
# Poissons Ratio (y) = 0.02685 -0.03898
# Poissons Ratio (z) = 0.26262 -0.02776
#
# Static dielectric constant tensor:
#      x y z
#    x 1.975810 0.000000 0.000000 
#    y 0.000000 2.072130 0.000000 
#    z 0.000000 0.000000 2.104930 
# 
# From -- ./inp_files/14309.got.cif
#   From: 2010.05.17/outbox.cif.g08.bks.cpg/sg60_8_cif.got.tgz:14309.got - 2010.06.03 14:59:27.
