data_PCOD9456680
_publ_section_title
;
Structure prediction by ZEFSAII (Michael W. Deem and Ramdas Pophale) SiO2 
 PCOD9456680
Probable space group: P B C N
;
_chemical_formula_sum "Si O2"
_cell_formula_units_Z 44
_cell_length_a 25.704098
_cell_length_b 15.535711
_cell_length_c 4.982553
_cell_angle_alpha 90.000000
_cell_angle_beta 90.000000
_cell_angle_gamma 90.000000
_cell_volume 1989.690055
_symmetry_space_group_name_H-M "P B C N"
_symmetry_group_IT_number 60
_symmetry_cell_setting 'orthorhombic'
loop_
_space_group_symop_operation_xyz
x,y,z
1/2-x,1/2-y,1/2+z
1/2+x,1/2-y,-z
-x,y,1/2-z
-x,-y,-z
1/2+x,1/2+y,1/2-z
1/2-x,1/2+y,z
x,-y,1/2+z
loop_
_atom_site_type_symbol
_atom_site_label
_atom_site_fract_x
_atom_site_fract_y
_atom_site_fract_z
Si Si1 0.921608 0.942058 0.011439
Si Si2 0.666734 0.660363 0.773939
Si Si3 0.500000 0.303837 0.250000
Si Si4 0.740960 0.946355 0.518230
Si Si5 0.089861 0.719550 0.945671
Si Si6 0.856054 0.335717 0.564992
O O1 0.864392 0.906534 0.086696
O O2 0.961087 0.865816 0.085496
O O3 0.929728 0.021614 0.215779
O O4 0.715705 0.619370 0.915738
O O5 0.625389 0.695545 0.995469
O O6 0.677327 0.747674 0.608898
O O7 0.533577 0.245961 0.452097
O O8 0.683608 0.907995 0.476905
O O9 0.747015 0.970377 0.828892
O O10 0.115742 0.651083 0.150934
O O11 0.099744 0.687680 0.648883
#
# Coordination Sequence:
#
# PCOD9456680 Si02
#       6
#     8   8   4   8   8   8
#     4  11  23  36  54  85 130 164 193 245 293 348
#     4   9  24  37  63  83 127 162 213 232 295 364
#     4  10  22  38  60  90 120 162 214 244 302 356
#     4  12  26  39  63  93 124 159 204 255 317 365
#     4   9  22  37  63  86 119 158 212 250 287 353
#     4  10  23  41  61  86 121 164 203 253 301 354
#
# _framework density 22.113997000000001
#
# number of rings (size 3 to 8) (size 9 to 14) (size 15 to 20)
#    1.091    0.727    0.000    2.727   10.182    2.182 
#    0.000    0.000    0.000    0.000    0.000   12.727 
#    0.000    0.000    0.000    0.000    0.000    0.000 
#
# Total GULP energy -245983.465807 kJ/mol
# GULP energy per Si atom -5590.533314 kJ/mol
# Density = 2.206366 g / cm^3
# Si number density = 22.113997 Si / 1000 Ang^3
#
#
#
# Elastic Constant Matrix: (Units=GPa)
#
#
# Indices 1 2 3 4 5 6 
#
# 1 68.5783 17.6315 5.4423 0.0000 0.0000 0.0000
# 2 17.6315 14.9154 10.2021 0.0000 0.0000 0.0000
# 3 5.4423 10.2021 66.0999 0.0000 0.0000 0.0000
# 4 0.0000 0.0000 0.0000 15.9831 0.0000 0.0000
# 5 0.0000 0.0000 0.0000 0.0000 23.4939 0.0000
# 6 0.0000 0.0000 0.0000 0.0000 0.0000 27.2282
#
#
#
# Elastic Compliance Matrix: (Units=1/GPa)
#
#
# Indices 1 2 3 4 5 6 
#
# 1 0.021279 -0.026782 0.002382 0.000000 0.000000 0.000000
# 2 -0.026782 0.108668 -0.014567 0.000000 0.000000 0.000000
# 3 0.002382 -0.014567 0.017181 0.000000 0.000000 0.000000
# 4 0.000000 0.000000 0.000000 0.062566 0.000000 0.000000
# 5 0.000000 0.000000 0.000000 0.000000 0.042564 0.000000
# 6 0.000000 0.000000 0.000000 0.000000 0.000000 0.036727
#
#
# Mechanical properties :
#
#
# Convention : Reuss Voigt Hill
#
# Bulk Modulus (GPa) = 14.45259 24.01615 19.23437
# Shear Modulus (GPa) = 12.82105 21.09556 16.95830
#
# Velocity S-wave (km/s) = 2.41045 3.09195 2.77222
# Velocity P-wave (km/s) = 3.78110 4.86113 4.35473
#
# Compressibility (1/GPa) = 0.06919173
#
# Stress axis : x y z
#
# Youngs Moduli (GPa) = 46.99550 9.20235 58.20432
#
# Poissons Ratio (x) = 0.24646 -0.13863
# Poissons Ratio (y) = 1.25866 0.84787
# Poissons Ratio (z) = -0.11193 0.13405
#
# Static dielectric constant tensor:
#      x y z
#    x 1.807950 0.000000 0.000000 
#    y 0.000000 1.803520 0.000000 
#    z 0.000000 0.000000 1.814760 
# 
# From -- ./inp_files/2538.got.cif
#   From: 2010.05.17/outbox.cif.g08.bks.cpg/sg60_2_cif.got.tgz:2538.got - 2010.06.03 14:59:27.
