data_PCOD9456789
_publ_section_title
;
Structure prediction by ZEFSAII (Michael W. Deem and Ramdas Pophale) SiO2 
 PCOD9456789
Probable space group: P B C N
;
_chemical_formula_sum "Si O2"
_cell_formula_units_Z 44
_cell_length_a 17.191657
_cell_length_b 9.652400
_cell_length_c 10.215431
_cell_angle_alpha 90.000000
_cell_angle_beta 90.000000
_cell_angle_gamma 90.000000
_cell_volume 1695.156282
_symmetry_space_group_name_H-M "P B C N"
_symmetry_group_IT_number 60
_symmetry_cell_setting 'orthorhombic'
loop_
_space_group_symop_operation_xyz
x,y,z
1/2-x,1/2-y,1/2+z
1/2+x,1/2-y,-z
-x,y,1/2-z
-x,-y,-z
1/2+x,1/2+y,1/2-z
1/2-x,1/2+y,z
x,-y,1/2+z
loop_
_atom_site_type_symbol
_atom_site_label
_atom_site_fract_x
_atom_site_fract_y
_atom_site_fract_z
Si Si1 0.256819 0.713236 0.759589
Si Si2 0.000000 0.203122 0.250000
Si Si3 0.260548 0.031547 0.073799
Si Si4 0.928248 0.546354 0.910220
Si Si5 0.082543 0.737554 0.209700
Si Si6 0.134017 0.135481 0.433697
O O1 0.245756 0.561125 0.704952
O O2 0.345914 0.727286 0.802481
O O3 0.192641 0.758341 0.861718
O O4 0.252386 0.815071 0.632301
O O5 0.950223 0.306466 0.345755
O O6 0.937868 0.116351 0.165456
O O7 0.344433 0.979056 0.020652
O O8 0.189399 0.988788 0.981521
O O9 0.921611 0.428418 0.799130
O O10 0.000000 0.500000 0.000000
O O11 0.000000 0.792806 0.250000
O O12 0.100209 0.797122 0.065703
#
# Coordination Sequence:
#
# PCOD9456789 Si02
#       6
#     8   4   8   8   8   8
#     4  10  23  43  70 101 143 193 243 296 372 438
#     4  12  22  38  68 106 150 196 244 302 386 430
#     4  10  24  43  69 106 144 192 244 303 369 439
#     4  11  21  36  68 107 144 184 245 315 358 423
#     4  10  22  39  67 109 142 188 243 312 367 431
#     4  11  24  42  69  97 150 194 245 297 374 443
#
# _framework density 25.956308
#
# number of rings (size 3 to 8) (size 9 to 14) (size 15 to 20)
#    0.000    1.455    4.545    0.000    2.545    4.364 
#    0.000    0.909    8.000    0.000    0.000    0.000 
#    0.000    0.000    0.000    0.000    0.000    0.000 
#
# Total GULP energy -246390.949241 kJ/mol
# GULP energy per Si atom -5599.794301 kJ/mol
# Density = 2.589723 g / cm^3
# Si number density = 25.956308 Si / 1000 Ang^3
#
#
#
# Elastic Constant Matrix: (Units=GPa)
#
#
# Indices 1 2 3 4 5 6 
#
# 1 226.8901 26.5348 78.1168 0.0000 0.0000 0.0000
# 2 26.5348 55.6851 25.7199 0.0000 0.0000 0.0000
# 3 78.1168 25.7199 118.0182 0.0000 0.0000 0.0000
# 4 0.0000 0.0000 0.0000 23.0820 0.0000 0.0000
# 5 0.0000 0.0000 0.0000 0.0000 69.5209 0.0000
# 6 0.0000 0.0000 0.0000 0.0000 0.0000 32.0095
#
#
#
# Elastic Compliance Matrix: (Units=1/GPa)
#
#
# Indices 1 2 3 4 5 6 
#
# 1 0.005768 -0.001095 -0.003579 0.000000 0.000000 0.000000
# 2 -0.001095 0.020176 -0.003672 0.000000 0.000000 0.000000
# 3 -0.003579 -0.003672 0.011642 0.000000 0.000000 0.000000
# 4 0.000000 0.000000 0.000000 0.043324 0.000000 0.000000
# 5 0.000000 0.000000 0.000000 0.000000 0.014384 0.000000
# 6 0.000000 0.000000 0.000000 0.000000 0.000000 0.031241
#
#
# Mechanical properties :
#
#
# Convention : Reuss Voigt Hill
#
# Bulk Modulus (GPa) = 47.86147 73.48183 60.67165
# Shear Modulus (GPa) = 33.29067 42.93725 38.11396
#
# Velocity S-wave (km/s) = 3.58518 4.07161 3.83611
# Velocity P-wave (km/s) = 5.96802 7.10460 6.56097
#
# Compressibility (1/GPa) = 0.02089363
#
# Stress axis : x y z
#
# Youngs Moduli (GPa) = 173.37803 49.56360 85.89248
#
# Poissons Ratio (x) = 0.05429 0.30741
# Poissons Ratio (y) = 0.18991 0.31540
# Poissons Ratio (z) = 0.62052 0.18200
#
# Static dielectric constant tensor:
#      x y z
#    x 2.109870 0.000000 0.000000 
#    y 0.000000 2.015870 0.000000 
#    z 0.000000 0.000000 2.111610 
# 
# From -- ./inp_files/12390.got.cif
#   From: 2010.05.17/outbox.cif.g08.bks.cpg/sg60_7_cif.got.tgz:12390.got - 2010.06.03 14:59:27.
