data_PCOD9456822
_publ_section_title
;
Structure prediction by ZEFSAII (Michael W. Deem and Ramdas Pophale) SiO2 
 PCOD9456822
Probable space group: P B C N
;
_chemical_formula_sum "Si O2"
_cell_formula_units_Z 32
_cell_length_a 7.935293
_cell_length_b 11.655289
_cell_length_c 15.049021
_cell_angle_alpha 90.000000
_cell_angle_beta 90.000000
_cell_angle_gamma 90.000000
_cell_volume 1391.855859
_symmetry_space_group_name_H-M "P B C N"
_symmetry_group_IT_number 60
_symmetry_cell_setting 'orthorhombic'
loop_
_space_group_symop_operation_xyz
x,y,z
1/2-x,1/2-y,1/2+z
1/2+x,1/2-y,-z
-x,y,1/2-z
-x,-y,-z
1/2+x,1/2+y,1/2-z
1/2-x,1/2+y,z
x,-y,1/2+z
loop_
_atom_site_type_symbol
_atom_site_label
_atom_site_fract_x
_atom_site_fract_y
_atom_site_fract_z
Si Si1 0.700505 0.091502 0.484349
Si Si2 0.124495 0.961801 0.863460
Si Si3 0.052537 0.267070 0.098470
Si Si4 0.746856 0.541500 0.817911
O O1 0.792455 0.995015 0.543465
O O2 0.548909 0.142278 0.540087
O O3 0.829913 0.194686 0.467413
O O4 0.661536 0.044045 0.386591
O O5 0.244616 0.998412 0.782701
O O6 0.070140 0.828960 0.859727
O O7 0.949254 0.032491 0.849395
O O8 0.168302 0.335613 0.167953
#
# Coordination Sequence:
#
# PCOD9456822 Si02
#       4
#     8   8   8   8
#     4  11  22  39  63  95 129 171 219 264 322 391
#     4  10  23  41  62  94 129 166 218 270 320 388
#     4  11  22  41  66  93 133 176 211 273 330 378
#     4  10  22  40  62  89 125 168 216 265 322 390
#
# _framework density 22.990884999999999
#
# number of rings (size 3 to 8) (size 9 to 14) (size 15 to 20)
#    0.000    1.500    0.000    6.750    0.000    9.000 
#    0.000    0.000    0.000    0.000    0.000    0.000 
#    0.000    0.000    0.000    0.000    0.000    0.000 
#
# Total GULP energy -179077.008984 kJ/mol
# GULP energy per Si atom -5596.156531 kJ/mol
# Density = 2.293856 g / cm^3
# Si number density = 22.990885 Si / 1000 Ang^3
#
#
#
# Elastic Constant Matrix: (Units=GPa)
#
#
# Indices 1 2 3 4 5 6 
#
# 1 44.7240 53.9406 38.6692 0.0000 0.0000 0.0000
# 2 53.9406 111.5527 41.1838 0.0000 0.0000 0.0000
# 3 38.6692 41.1838 131.6492 0.0000 0.0000 0.0000
# 4 0.0000 0.0000 0.0000 15.4837 0.0000 0.0000
# 5 0.0000 0.0000 0.0000 0.0000 28.1833 0.0000
# 6 0.0000 0.0000 0.0000 0.0000 0.0000 58.5439
#
#
#
# Elastic Compliance Matrix: (Units=1/GPa)
#
#
# Indices 1 2 3 4 5 6 
#
# 1 0.064018 -0.027149 -0.010311 0.000000 0.000000 0.000000
# 2 -0.027149 0.021648 0.001202 0.000000 0.000000 0.000000
# 3 -0.010311 0.001202 0.010249 0.000000 0.000000 0.000000
# 4 0.000000 0.000000 0.000000 0.064584 0.000000 0.000000
# 5 0.000000 0.000000 0.000000 0.000000 0.035482 0.000000
# 6 0.000000 0.000000 0.000000 0.000000 0.000000 0.017081
#
#
# Mechanical properties :
#
#
# Convention : Reuss Voigt Hill
#
# Bulk Modulus (GPa) = 42.73598 61.72367 52.22983
# Shear Modulus (GPa) = 17.04291 30.71765 23.88028
#
# Velocity S-wave (km/s) = 2.72562 3.65921 3.22636
# Velocity P-wave (km/s) = 5.34171 6.69017 6.05361
#
# Compressibility (1/GPa) = 0.02339949
#
# Stress axis : x y z
#
# Youngs Moduli (GPa) = 15.62058 46.19327 97.57512
#
# Poissons Ratio (x) = 1.25409 1.00610
# Poissons Ratio (y) = 0.42408 -0.11731
# Poissons Ratio (z) = 0.16106 -0.05553
#
# Static dielectric constant tensor:
#      x y z
#    x 1.914590 0.000000 0.000000 
#    y 0.000000 1.845520 0.000000 
#    z 0.000000 0.000000 1.827170 
# 
# From -- ./inp_files/14437.got.cif
#   From: 2010.05.17/outbox.cif.g08.bks.cpg/sg60_8_cif.got.tgz:14437.got - 2010.06.03 14:59:27.
