data_PCOD9456707
_publ_section_title
;
Structure prediction by ZEFSAII (Michael W. Deem and Ramdas Pophale) SiO2 
 PCOD9456707
Probable space group: P B C N
;
_chemical_formula_sum "Si O2"
_cell_formula_units_Z 40
_cell_length_a 10.628156
_cell_length_b 16.857899
_cell_length_c 10.585930
_cell_angle_alpha 90.000000
_cell_angle_beta 90.000000
_cell_angle_gamma 90.000000
_cell_volume 1896.663933
_symmetry_space_group_name_H-M "P B C N"
_symmetry_group_IT_number 60
_symmetry_cell_setting 'orthorhombic'
loop_
_space_group_symop_operation_xyz
x,y,z
1/2-x,1/2-y,1/2+z
1/2+x,1/2-y,-z
-x,y,1/2-z
-x,-y,-z
1/2+x,1/2+y,1/2-z
1/2-x,1/2+y,z
x,-y,1/2+z
loop_
_atom_site_type_symbol
_atom_site_label
_atom_site_fract_x
_atom_site_fract_y
_atom_site_fract_z
Si Si1 0.848973 0.399697 0.842352
Si Si2 0.817922 0.417675 0.333746
Si Si3 0.470233 0.546889 0.623486
Si Si4 0.883574 0.668027 0.084786
Si Si5 0.292930 0.652787 0.911581
O O1 0.876234 0.494020 0.840706
O O2 0.813593 0.380066 0.697511
O O3 0.969734 0.345296 0.877935
O O4 0.749010 0.379516 0.951400
O O5 0.672783 0.427486 0.374952
O O6 0.876465 0.364744 0.443075
O O7 0.806712 0.378363 0.194561
O O8 0.500000 0.497628 0.750000
O O9 0.500000 0.500000 0.500000
O O10 0.572049 0.616730 0.626144
O O11 0.819345 0.753923 0.087180
#
# Coordination Sequence:
#
# PCOD9456707 Si02
#       5
#     8   8   8   8   8
#     4  11  24  43  65  95 128 173 218 259 328 390
#     4  11  23  43  67  93 129 173 217 262 323 392
#     4  10  22  38  65  93 126 163 216 263 316 379
#     4  11  26  41  67  94 133 167 213 276 326 381
#     4  11  24  42  67  95 130 170 215 270 328 380
#
# _framework density 21.089662000000001
#
# number of rings (size 3 to 8) (size 9 to 14) (size 15 to 20)
#    0.000    1.200    2.000    3.000   14.000    2.400 
#    0.000    0.000    0.000    0.000    0.000    0.000 
#    0.000    0.000    0.000    0.000    0.000    0.000 
#
# Total GULP energy -223161.133471 kJ/mol
# GULP energy per Si atom -5579.028337 kJ/mol
# Density = 2.104166 g / cm^3
# Si number density = 21.089662 Si / 1000 Ang^3
#
#
#
# Elastic Constant Matrix: (Units=GPa)
#
#
# Indices 1 2 3 4 5 6 
#
# 1 54.3999 -14.4125 7.5313 0.0000 0.0000 0.0000
# 2 -14.4125 125.5722 44.1259 0.0000 0.0000 0.0000
# 3 7.5313 44.1259 95.8234 0.0000 0.0000 0.0000
# 4 0.0000 0.0000 0.0000 21.7819 0.0000 0.0000
# 5 0.0000 0.0000 0.0000 0.0000 36.5253 0.0000
# 6 0.0000 0.0000 0.0000 0.0000 0.0000 13.9769
#
#
#
# Elastic Compliance Matrix: (Units=1/GPa)
#
#
# Indices 1 2 3 4 5 6 
#
# 1 0.019697 0.003346 -0.003089 0.000000 0.000000 0.000000
# 2 0.003346 0.010069 -0.004900 0.000000 0.000000 0.000000
# 3 -0.003089 -0.004900 0.012935 0.000000 0.000000 0.000000
# 4 0.000000 0.000000 0.000000 0.045910 0.000000 0.000000
# 5 0.000000 0.000000 0.000000 0.000000 0.027378 0.000000
# 6 0.000000 0.000000 0.000000 0.000000 0.000000 0.071546
#
#
# Mechanical properties :
#
#
# Convention : Reuss Voigt Hill
#
# Bulk Modulus (GPa) = 29.92617 38.92055 34.42336
# Shear Modulus (GPa) = 24.04319 30.36022 27.20171
#
# Velocity S-wave (km/s) = 3.38012 3.79829 3.59529
# Velocity P-wave (km/s) = 5.42719 6.14255 5.79592
#
# Compressibility (1/GPa) = 0.03341557
#
# Stress axis : x y z
#
# Youngs Moduli (GPa) = 50.77032 99.31073 77.30968
#
# Poissons Ratio (x) = -0.33231 0.23880
# Poissons Ratio (y) = -0.16988 0.37881
# Poissons Ratio (z) = 0.15683 0.48661
#
# Static dielectric constant tensor:
#      x y z
#    x 1.898780 0.000000 0.000000 
#    y 0.000000 1.756120 0.000000 
#    z 0.000000 0.000000 1.818290 
# 
# From -- ./inp_files/4773.got.cif
#   From: 2010.05.17/outbox.cif.g08.bks.cpg/sg60_3_cif.got.tgz:4773.got - 2010.06.03 14:59:27.
