data_PCOD9456814
_publ_section_title
;
Structure prediction by ZEFSAII (Michael W. Deem and Ramdas Pophale) SiO2 
 PCOD9456814
Probable space group: P B C N
;
_chemical_formula_sum "Si O2"
_cell_formula_units_Z 40
_cell_length_a 9.686570
_cell_length_b 13.953006
_cell_length_c 11.196150
_cell_angle_alpha 90.000000
_cell_angle_beta 90.000000
_cell_angle_gamma 90.000000
_cell_volume 1513.235463
_symmetry_space_group_name_H-M "P B C N"
_symmetry_group_IT_number 60
_symmetry_cell_setting 'orthorhombic'
loop_
_space_group_symop_operation_xyz
x,y,z
1/2-x,1/2-y,1/2+z
1/2+x,1/2-y,-z
-x,y,1/2-z
-x,-y,-z
1/2+x,1/2+y,1/2-z
1/2-x,1/2+y,z
x,-y,1/2+z
loop_
_atom_site_type_symbol
_atom_site_label
_atom_site_fract_x
_atom_site_fract_y
_atom_site_fract_z
Si Si1 0.902232 0.902594 0.134532
Si Si2 0.626363 0.740750 0.966249
Si Si3 0.366001 0.394074 0.827761
Si Si4 0.848567 0.644882 0.798433
Si Si5 0.118267 0.564658 0.151734
O O1 0.752416 0.878402 0.187114
O O2 0.000000 0.914746 0.250000
O O3 0.984913 0.819969 0.063741
O O4 0.885097 0.011521 0.088024
O O5 0.752566 0.714206 0.877078
O O6 0.602497 0.853519 0.947624
O O7 0.669253 0.696018 0.091642
O O8 0.500000 0.376532 0.750000
O O9 0.254004 0.415917 0.728376
O O10 0.873245 0.547786 0.877195
O O11 0.000000 0.671116 0.750000
O O12 0.000000 0.577810 0.250000
#
# Coordination Sequence:
#
# PCOD9456814 Si02
#       5
#     8   8   8   8   8
#     4   8  16  34  60  87 119 160 204 253 308 370
#     4  11  21  39  66  90 122 171 209 250 322 380
#     4  10  22  40  61  92 125 155 210 267 301 364
#     4   9  19  38  61  90 126 161 205 258 309 376
#     4  10  22  41  59  87 128 163 203 260 316 372
#
# _framework density 26.433427999999999
#
# number of rings (size 3 to 8) (size 9 to 14) (size 15 to 20)
#    0.000    2.400    0.000    3.600    0.000    2.400 
#    0.000   19.000    0.000    0.000    0.000    0.000 
#    0.000    0.000    0.000    0.000    0.000    0.000 
#
# Total GULP energy -223889.132079 kJ/mol
# GULP energy per Si atom -5597.228302 kJ/mol
# Density = 2.637326 g / cm^3
# Si number density = 26.433428 Si / 1000 Ang^3
#
#
#
# Elastic Constant Matrix: (Units=GPa)
#
#
# Indices 1 2 3 4 5 6 
#
# 1 187.6071 43.0875 18.7180 0.0000 0.0000 0.0000
# 2 43.0875 189.8545 28.6162 0.0000 0.0000 0.0000
# 3 18.7180 28.6162 41.2001 0.0000 0.0000 0.0000
# 4 0.0000 0.0000 0.0000 29.5000 0.0000 0.0000
# 5 0.0000 0.0000 0.0000 0.0000 33.9498 0.0000
# 6 0.0000 0.0000 0.0000 0.0000 0.0000 31.9598
#
#
#
# Elastic Compliance Matrix: (Units=1/GPa)
#
#
# Indices 1 2 3 4 5 6 
#
# 1 0.005754 -0.001019 -0.001907 0.000000 0.000000 0.000000
# 2 -0.001019 0.006063 -0.003749 0.000000 0.000000 0.000000
# 3 -0.001907 -0.003749 0.027742 0.000000 0.000000 0.000000
# 4 0.000000 0.000000 0.000000 0.033898 0.000000 0.000000
# 5 0.000000 0.000000 0.000000 0.000000 0.029455 0.000000
# 6 0.000000 0.000000 0.000000 0.000000 0.000000 0.031289
#
#
# Mechanical properties :
#
#
# Convention : Reuss Voigt Hill
#
# Bulk Modulus (GPa) = 38.15135 66.61169 52.38152
# Shear Modulus (GPa) = 31.99220 40.96456 36.47838
#
# Velocity S-wave (km/s) = 3.48270 3.94093 3.71888
# Velocity P-wave (km/s) = 5.53503 6.77955 6.18866
#
# Compressibility (1/GPa) = 0.02621139
#
# Stress axis : x y z
#
# Youngs Moduli (GPa) = 173.77772 164.92452 36.04667
#
# Poissons Ratio (x) = 0.16798 0.06874
# Poissons Ratio (y) = 0.17700 0.13513
# Poissons Ratio (z) = 0.33138 0.61825
#
# Static dielectric constant tensor:
#      x y z
#    x 1.980830 0.000000 0.000000 
#    y 0.000000 2.180580 0.000000 
#    z 0.000000 0.000000 2.094820 
# 
# From -- ./inp_files/14683.got.cif
#   From: 2010.05.17/outbox.cif.g08.bks.cpg/sg60_8_cif.got.tgz:14683.got - 2010.06.03 14:59:27.
