data_PCOD9456000
_publ_section_title
;
Structure prediction by ZEFSAII (Michael W. Deem and Ramdas Pophale) SiO2 
 PCOD9456000
Probable space group: P B C N
;
_chemical_formula_sum "Si O2"
_cell_formula_units_Z 64
_cell_length_a 11.203712
_cell_length_b 31.292984
_cell_length_c 10.039475
_cell_angle_alpha 90.000000
_cell_angle_beta 90.000000
_cell_angle_gamma 90.000000
_cell_volume 3519.815643
_symmetry_space_group_name_H-M "P B C N"
_symmetry_group_IT_number 60
_symmetry_cell_setting 'orthorhombic'
loop_
_space_group_symop_operation_xyz
x,y,z
1/2-x,1/2-y,1/2+z
1/2+x,1/2-y,-z
-x,y,1/2-z
-x,-y,-z
1/2+x,1/2+y,1/2-z
1/2-x,1/2+y,z
x,-y,1/2+z
loop_
_atom_site_type_symbol
_atom_site_label
_atom_site_fract_x
_atom_site_fract_y
_atom_site_fract_z
Si Si1 0.137777 0.916310 0.216578
Si Si2 0.525791 0.884473 0.095525
Si Si3 0.370896 0.674717 0.073691
Si Si4 0.814755 0.301300 0.142951
Si Si5 0.278963 0.843780 0.075487
Si Si6 0.743669 0.584475 0.488749
Si Si7 0.413965 0.509144 0.125128
Si Si8 0.866173 0.795213 0.630532
O O1 0.184312 0.879763 0.119700
O O2 0.207248 0.914689 0.355508
O O3 0.000000 0.908747 0.250000
O O4 0.146849 0.964006 0.159924
O O5 0.500000 0.899243 0.250000
O O6 0.599432 0.840166 0.102392
O O7 0.397241 0.870752 0.043493
O O8 0.612025 0.913068 0.002334
O O9 0.321123 0.626306 0.072261
O O10 0.513600 0.681686 0.076437
O O11 0.339351 0.695215 0.215520
O O12 0.304424 0.695773 0.947317
O O13 0.792371 0.312375 0.297305
O O14 0.875161 0.255755 0.119500
O O15 0.239180 0.814816 0.954965
O O16 0.683418 0.544287 0.416055
O O17 0.500000 0.521338 0.250000
O O18 0.500000 0.500000 0.000000
#
# Coordination Sequence:
#
# PCOD9456000 Si02
#       8
#     8   8   8   8   8   8   8   8
#     4  11  20  37  62  92 121 152 208 247 306 373
#     4   9  19  37  65  83 112 171 208 245 295 375
#     4  10  23  39  56  88 120 163 191 257 321 354
#     4  10  21  38  59  82 121 162 208 250 301 364
#     4  11  22  38  65  89 115 168 214 251 301 379
#     4  11  20  42  60  88 126 159 202 251 314 369
#     4  11  23  36  64  96 126 157 196 262 312 374
#     4  11  24  34  59  89 125 152 207 262 305 361
#
# _framework density 18.182770000000001
#
# number of rings (size 3 to 8) (size 9 to 14) (size 15 to 20)
#    0.000    1.500    6.250    1.500    8.750    0.000 
#    0.000    3.125    0.000    0.000    0.000    0.000 
#    0.000    0.000    0.000    0.000    0.000    0.000 
#
# Total GULP energy -356749.378986 kJ/mol
# GULP energy per Si atom -5574.209047 kJ/mol
# Density = 1.814139 g / cm^3
# Si number density = 18.182770 Si / 1000 Ang^3
#
#
#
# Elastic Constant Matrix: (Units=GPa)
#
#
# Indices 1 2 3 4 5 6 
#
# 1 88.2039 34.3229 30.4175 0.0000 0.0000 0.0000
# 2 34.3229 67.2297 14.3743 0.0000 0.0000 0.0000
# 3 30.4175 14.3743 58.2468 0.0000 0.0000 0.0000
# 4 0.0000 0.0000 0.0000 35.1265 0.0000 0.0000
# 5 0.0000 0.0000 0.0000 0.0000 24.7268 0.0000
# 6 0.0000 0.0000 0.0000 0.0000 0.0000 -32.7512
#
#
#
# Elastic Compliance Matrix: (Units=1/GPa)
#
#
# Indices 1 2 3 4 5 6 
#
# 1 0.016386 -0.006900 -0.006854 0.000000 0.000000 0.000000
# 2 -0.006900 0.018609 -0.000989 0.000000 0.000000 0.000000
# 3 -0.006854 -0.000989 0.020992 0.000000 0.000000 0.000000
# 4 0.000000 0.000000 0.000000 0.028469 0.000000 0.000000
# 5 0.000000 0.000000 0.000000 0.000000 0.040442 0.000000
# 6 0.000000 0.000000 0.000000 0.000000 0.000000 -0.030533
#
#
# Mechanical properties :
#
#
# Convention : Reuss Voigt Hill
#
# Bulk Modulus (GPa) = 37.73608 41.32331 39.52969
# Shear Modulus (GPa) = 37.68357 14.39145 26.03751
#
# Velocity S-wave (km/s) = 4.55740 2.81639 3.78827
# Velocity P-wave (km/s) = 6.96362 5.77512 6.39703
#
# Compressibility (1/GPa) = 0.02649984
#
# Stress axis : x y z
#
# Youngs Moduli (GPa) = 61.02707 53.73867 47.63762
#
# Poissons Ratio (x) = 0.37081 0.32652
# Poissons Ratio (y) = 0.42110 0.04711
# Poissons Ratio (z) = 0.41830 0.05314
#
# Static dielectric constant tensor:
#      x y z
#    x 1.731340 0.000000 0.000000 
#    y 0.000000 1.683140 0.000000 
#    z 0.000000 0.000000 1.631400 
# 
# From -- ./inp_files/5320.got.cif
#   From: 2010.05.17/outbox.cif.g08.bks.cpg/sg60_3_cif.got.tgz:5320.got - 2010.06.03 14:59:27.
