data_PCOD9456607
_publ_section_title
;
Structure prediction by ZEFSAII (Michael W. Deem and Ramdas Pophale) SiO2 
 PCOD9456607
Probable space group: P B C N
;
_chemical_formula_sum "Si O2"
_cell_formula_units_Z 48
_cell_length_a 7.379615
_cell_length_b 13.320279
_cell_length_c 20.847487
_cell_angle_alpha 90.000000
_cell_angle_beta 90.000000
_cell_angle_gamma 90.000000
_cell_volume 2049.277341
_symmetry_space_group_name_H-M "P B C N"
_symmetry_group_IT_number 60
_symmetry_cell_setting 'orthorhombic'
loop_
_space_group_symop_operation_xyz
x,y,z
1/2-x,1/2-y,1/2+z
1/2+x,1/2-y,-z
-x,y,1/2-z
-x,-y,-z
1/2+x,1/2+y,1/2-z
1/2-x,1/2+y,z
x,-y,1/2+z
loop_
_atom_site_type_symbol
_atom_site_label
_atom_site_fract_x
_atom_site_fract_y
_atom_site_fract_z
Si Si1 0.783247 0.226453 0.449408
Si Si2 0.625302 0.929239 0.042948
Si Si3 0.740223 0.358101 0.816992
Si Si4 0.828634 0.122410 0.043245
Si Si5 0.025374 0.542130 0.818528
Si Si6 0.693104 0.627245 0.180600
O O1 0.661749 0.165397 0.499569
O O2 0.721743 0.215744 0.376065
O O3 0.766945 0.336220 0.479574
O O4 0.969340 0.164536 0.455387
O O5 0.801964 0.002629 0.049823
O O6 0.548600 0.903037 0.113617
O O7 0.500000 0.000000 0.000000
O O8 0.868269 0.456299 0.825490
O O9 0.524437 0.381825 0.820282
O O10 0.760926 0.316392 0.744516
O O11 0.744669 0.164296 0.110503
O O12 0.000000 0.596907 0.750000
O O13 0.211581 0.480101 0.811106
#
# Coordination Sequence:
#
# PCOD9456607 Si02
#       6
#     8   8   8   8   8   8
#     4  11  21  35  58  82 114 146 186 239 285 333
#     4  11  20  35  57  84 113 144 187 229 281 338
#     4   9  16  31  53  80 105 145 181 229 278 333
#     4  10  22  36  56  83 112 147 188 233 283 341
#     4   9  17  31  54  80 106 145 181 226 275 336
#     4   8  17  31  52  78 109 138 189 224 273 334
#
# _framework density 23.422892000000001
#
# number of rings (size 3 to 8) (size 9 to 14) (size 15 to 20)
#    0.000    2.333    1.667    1.500    2.333    0.000 
#    0.000    0.000   11.000    0.000    0.000    0.000 
#    0.000    0.000    0.000    0.000    0.000    0.000 
#
# Total GULP energy -267515.984988 kJ/mol
# GULP energy per Si atom -5573.249687 kJ/mol
# Density = 2.336958 g / cm^3
# Si number density = 23.422892 Si / 1000 Ang^3
#
#
#
# Elastic Constant Matrix: (Units=GPa)
#
#
# Indices 1 2 3 4 5 6 
#
# 1 28.1240 -16.4595 -9.3118 0.0000 0.0000 0.0000
# 2 -16.4595 38.8579 13.0560 0.0000 0.0000 0.0000
# 3 -9.3118 13.0560 217.3279 0.0000 0.0000 0.0000
# 4 0.0000 0.0000 0.0000 14.5520 0.0000 0.0000
# 5 0.0000 0.0000 0.0000 0.0000 30.9035 0.0000
# 6 0.0000 0.0000 0.0000 0.0000 0.0000 24.4443
#
#
#
# Elastic Compliance Matrix: (Units=1/GPa)
#
#
# Indices 1 2 3 4 5 6 
#
# 1 0.047427 0.019806 0.000842 0.000000 0.000000 0.000000
# 2 0.019806 0.034536 -0.001226 0.000000 0.000000 0.000000
# 3 0.000842 -0.001226 0.004711 0.000000 0.000000 0.000000
# 4 0.000000 0.000000 0.000000 0.068719 0.000000 0.000000
# 5 0.000000 0.000000 0.000000 0.000000 0.032359 0.000000
# 6 0.000000 0.000000 0.000000 0.000000 0.000000 0.040909
#
#
# Mechanical properties :
#
#
# Convention : Reuss Voigt Hill
#
# Bulk Modulus (GPa) = 7.96685 28.76433 18.36559
# Shear Modulus (GPa) = 21.58363 33.78164 27.68263
#
# Velocity S-wave (km/s) = 3.03888 3.80182 3.44155
# Velocity P-wave (km/s) = 3.96506 5.61950 4.86315
#
# Compressibility (1/GPa) = 0.12552008
#
# Stress axis : x y z
#
# Youngs Moduli (GPa) = 21.08485 28.95491 212.26515
#
# Poissons Ratio (x) = -0.57349 -0.17878
# Poissons Ratio (y) = -0.41762 0.26026
# Poissons Ratio (z) = -0.01776 0.03550
#
# Static dielectric constant tensor:
#      x y z
#    x 1.969230 0.000000 0.000000 
#    y 0.000000 2.503740 0.000000 
#    z 0.000000 0.000000 1.985640 
# 
# From -- ./inp_files/19420.got.cif
#   From: 2010.05.17/outbox.cif.g08.bks.cpg/sg60_10_cif.got.tgz:19420.got - 2010.06.03 14:59:27.
