data_PCOD9456260
_publ_section_title
;
Structure prediction by ZEFSAII (Michael W. Deem and Ramdas Pophale) SiO2 
 PCOD9456260
Probable space group: P B C N
;
_chemical_formula_sum "Si O2"
_cell_formula_units_Z 40
_cell_length_a 7.477482
_cell_length_b 24.042035
_cell_length_c 9.515193
_cell_angle_alpha 90.000000
_cell_angle_beta 90.000000
_cell_angle_gamma 90.000000
_cell_volume 1710.583202
_symmetry_space_group_name_H-M "P B C N"
_symmetry_group_IT_number 60
_symmetry_cell_setting 'orthorhombic'
loop_
_space_group_symop_operation_xyz
x,y,z
1/2-x,1/2-y,1/2+z
1/2+x,1/2-y,-z
-x,y,1/2-z
-x,-y,-z
1/2+x,1/2+y,1/2-z
1/2-x,1/2+y,z
x,-y,1/2+z
loop_
_atom_site_type_symbol
_atom_site_label
_atom_site_fract_x
_atom_site_fract_y
_atom_site_fract_z
Si Si1 0.885088 0.883247 0.106759
Si Si2 0.283791 0.487527 0.254544
Si Si3 0.608344 0.186733 0.114195
Si Si4 0.126586 0.280737 0.378705
Si Si5 0.761331 0.075409 0.026602
O O1 0.755646 0.934925 0.142430
O O2 0.768948 0.828810 0.084098
O O3 0.000000 0.873171 0.250000
O O4 0.030261 0.905075 0.993598
O O5 0.500000 0.493230 0.250000
O O6 0.221075 0.543315 0.328979
O O7 0.223928 0.466911 0.101818
O O8 0.500000 0.169419 0.250000
O O9 0.778125 0.223024 0.158389
O O10 0.656038 0.132858 0.023569
O O11 0.490482 0.226789 0.017382
O O12 0.000000 0.297913 0.250000
#
# Coordination Sequence:
#
# PCOD9456260 Si02
#       5
#     8   8   8   8   8
#     4   9  18  37  66  97 125 167 218 265 318 385
#     4   9  18  35  63  92 123 169 217 260 313 383
#     4  12  27  43  64  99 131 169 218 272 328 386
#     4  12  24  45  69  94 130 171 212 267 331 395
#     4  10  21  40  63  94 131 170 220 266 312 379
#
# _framework density 23.383838999999998
#
# number of rings (size 3 to 8) (size 9 to 14) (size 15 to 20)
#    0.000    2.000    0.000    7.800    0.000    4.000 
#    0.000    5.000    0.000    0.000    0.000    0.000 
#    0.000    0.000    0.000    0.000    0.000    0.000 
#
# Total GULP energy -223562.029793 kJ/mol
# GULP energy per Si atom -5589.050745 kJ/mol
# Density = 2.333062 g / cm^3
# Si number density = 23.383839 Si / 1000 Ang^3
#
#
#
# Elastic Constant Matrix: (Units=GPa)
#
#
# Indices 1 2 3 4 5 6 
#
# 1 50.9633 35.4708 31.2403 0.0000 0.0000 0.0000
# 2 35.4708 109.7307 30.5840 0.0000 0.0000 0.0000
# 3 31.2403 30.5840 78.4963 0.0000 0.0000 0.0000
# 4 0.0000 0.0000 0.0000 62.7918 0.0000 0.0000
# 5 0.0000 0.0000 0.0000 0.0000 28.6255 0.0000
# 6 0.0000 0.0000 0.0000 0.0000 0.0000 -5.5865
#
#
#
# Elastic Compliance Matrix: (Units=1/GPa)
#
#
# Indices 1 2 3 4 5 6 
#
# 1 0.030321 -0.007222 -0.009253 0.000000 0.000000 0.000000
# 2 -0.007222 0.011944 -0.001779 0.000000 0.000000 0.000000
# 3 -0.009253 -0.001779 0.017115 0.000000 0.000000 0.000000
# 4 0.000000 0.000000 0.000000 0.015926 0.000000 0.000000
# 5 0.000000 0.000000 0.000000 0.000000 0.034934 0.000000
# 6 0.000000 0.000000 0.000000 0.000000 0.000000 -0.179001
#
#
# Mechanical properties :
#
#
# Convention : Reuss Voigt Hill
#
# Bulk Modulus (GPa) = 43.72451 48.19783 45.96117
# Shear Modulus (GPa) = -203.01528 26.62583 -88.19472
#
# Velocity S-wave (km/s) = -9.32776 3.37804 -6.14801
# Velocity P-wave (km/s) = 9.86257 5.98926 5.54072
#
# Compressibility (1/GPa) = 0.02287047
#
# Stress axis : x y z
#
# Youngs Moduli (GPa) = 32.98047 83.72590 58.42710
#
# Poissons Ratio (x) = 0.60469 0.54064
# Poissons Ratio (y) = 0.23819 0.10395
# Poissons Ratio (z) = 0.30518 0.14896
#
# Static dielectric constant tensor:
#      x y z
#    x 1.932150 0.000000 0.000000 
#    y 0.000000 1.854840 0.000000 
#    z 0.000000 0.000000 1.892850 
# 
# From -- ./inp_files/3870.got.cif
#   From: 2010.05.17/outbox.cif.g08.bks.cpg/sg60_2_cif.got.tgz:3870.got - 2010.06.03 14:59:27.
