data_PCOD9456804
_publ_section_title
;
Structure prediction by ZEFSAII (Michael W. Deem and Ramdas Pophale) SiO2 
 PCOD9456804
Probable space group: P B C N
;
_chemical_formula_sum "Si O2"
_cell_formula_units_Z 32
_cell_length_a 9.667411
_cell_length_b 15.637989
_cell_length_c 9.405534
_cell_angle_alpha 90.000000
_cell_angle_beta 90.000000
_cell_angle_gamma 90.000000
_cell_volume 1421.917972
_symmetry_space_group_name_H-M "P B C N"
_symmetry_group_IT_number 60
_symmetry_cell_setting 'orthorhombic'
loop_
_space_group_symop_operation_xyz
x,y,z
1/2-x,1/2-y,1/2+z
1/2+x,1/2-y,-z
-x,y,1/2-z
-x,-y,-z
1/2+x,1/2+y,1/2-z
1/2-x,1/2+y,z
x,-y,1/2+z
loop_
_atom_site_type_symbol
_atom_site_label
_atom_site_fract_x
_atom_site_fract_y
_atom_site_fract_z
Si Si1 0.864865 0.314670 0.158437
Si Si2 0.877268 0.235093 0.850720
Si Si3 0.146691 0.045486 0.531731
Si Si4 0.838105 0.514986 0.222282
O O1 0.751746 0.263088 0.246289
O O2 0.841703 0.416300 0.169080
O O3 0.000000 0.297238 0.250000
O O4 0.869463 0.287698 0.995286
O O5 0.890766 0.135811 0.896817
O O6 0.000000 0.262920 0.750000
O O7 0.242877 0.989625 0.637381
O O8 0.247571 0.062775 0.397147
O O9 0.000000 0.000000 0.500000
O O10 0.000000 0.538818 0.250000
#
# Coordination Sequence:
#
# PCOD9456804 Si02
#       4
#     8   8   8   8
#     4  10  22  40  61  89 124 163 207 255 306 368
#     4  11  23  41  63  92 125 160 206 258 310 372
#     4  11  22  39  63  92 125 162 206 259 313 371
#     4  10  22  40  60  87 124 163 208 256 307 371
#
# _framework density 22.504812000000001
#
# number of rings (size 3 to 8) (size 9 to 14) (size 15 to 20)
#    0.000    1.500    0.000    6.000    0.000    4.000 
#    0.000    2.500    0.000    0.000    0.000    0.000 
#    0.000    0.000    0.000    0.000    0.000    0.000 
#
# Total GULP energy -178949.584478 kJ/mol
# GULP energy per Si atom -5592.174515 kJ/mol
# Density = 2.245359 g / cm^3
# Si number density = 22.504812 Si / 1000 Ang^3
#
#
#
# Elastic Constant Matrix: (Units=GPa)
#
#
# Indices 1 2 3 4 5 6 
#
# 1 162.7579 50.4075 80.2082 0.0000 0.0000 0.0000
# 2 50.4075 53.0654 49.5896 0.0000 0.0000 0.0000
# 3 80.2082 49.5896 188.8178 0.0000 0.0000 0.0000
# 4 0.0000 0.0000 0.0000 35.3587 0.0000 0.0000
# 5 0.0000 0.0000 0.0000 0.0000 52.5706 0.0000
# 6 0.0000 0.0000 0.0000 0.0000 0.0000 21.8312
#
#
#
# Elastic Compliance Matrix: (Units=1/GPa)
#
#
# Indices 1 2 3 4 5 6 
#
# 1 0.009330 -0.006837 -0.002168 0.000000 0.000000 0.000000
# 2 -0.006837 0.029984 -0.004971 0.000000 0.000000 0.000000
# 3 -0.002168 -0.004971 0.007522 0.000000 0.000000 0.000000
# 4 0.000000 0.000000 0.000000 0.028282 0.000000 0.000000
# 5 0.000000 0.000000 0.000000 0.000000 0.019022 0.000000
# 6 0.000000 0.000000 0.000000 0.000000 0.000000 0.045806
#
#
# Mechanical properties :
#
#
# Convention : Reuss Voigt Hill
#
# Bulk Modulus (GPa) = 52.94888 85.00574 68.97731
# Shear Modulus (GPa) = 28.70411 36.91447 32.80929
#
# Velocity S-wave (km/s) = 3.57524 4.05445 3.82236
# Velocity P-wave (km/s) = 6.37354 7.73125 7.08499
#
# Compressibility (1/GPa) = 0.01888614
#
# Stress axis : x y z
#
# Youngs Moduli (GPa) = 107.18419 33.35108 132.93750
#
# Poissons Ratio (x) = 0.22801 0.28816
# Poissons Ratio (y) = 0.73280 0.66077
# Poissons Ratio (z) = 0.23234 0.16577
#
# Static dielectric constant tensor:
#      x y z
#    x 1.760800 0.000000 0.000000 
#    y 0.000000 1.852130 0.000000 
#    z 0.000000 0.000000 1.810520 
# 
# From -- ./inp_files/3573.got.cif
#   From: 2010.05.17/outbox.cif.g08.bks.cpg/sg60_2_cif.got.tgz:3573.got - 2010.06.03 14:59:27.
