data_PCOD9456310
_publ_section_title
;
Structure prediction by ZEFSAII (Michael W. Deem and Ramdas Pophale) SiO2 
 PCOD9456310
Probable space group: P B C N
;
_chemical_formula_sum "Si O2"
_cell_formula_units_Z 40
_cell_length_a 13.273772
_cell_length_b 10.593914
_cell_length_c 11.839794
_cell_angle_alpha 90.000000
_cell_angle_beta 90.000000
_cell_angle_gamma 90.000000
_cell_volume 1664.926028
_symmetry_space_group_name_H-M "P B C N"
_symmetry_group_IT_number 60
_symmetry_cell_setting 'orthorhombic'
loop_
_space_group_symop_operation_xyz
x,y,z
1/2-x,1/2-y,1/2+z
1/2+x,1/2-y,-z
-x,y,1/2-z
-x,-y,-z
1/2+x,1/2+y,1/2-z
1/2-x,1/2+y,z
x,-y,1/2+z
loop_
_atom_site_type_symbol
_atom_site_label
_atom_site_fract_x
_atom_site_fract_y
_atom_site_fract_z
Si Si1 0.800161 0.557639 0.864857
Si Si2 0.127743 0.771624 0.466705
Si Si3 0.603945 0.441736 0.814189
Si Si4 0.945841 0.628250 0.455073
Si Si5 0.673318 0.783831 0.162542
O O1 0.823168 0.652789 0.966420
O O2 0.681609 0.552202 0.842626
O O3 0.848578 0.421585 0.889137
O O4 0.854430 0.612451 0.755422
O O5 0.094684 0.869217 0.564964
O O6 0.216628 0.816043 0.385929
O O7 0.031324 0.715768 0.401800
O O8 0.500000 0.471814 0.750000
O O9 0.662661 0.347967 0.727552
O O10 0.904488 0.704999 0.561511
O O11 0.000000 0.500000 0.500000
#
# Coordination Sequence:
#
# PCOD9456310 Si02
#       5
#     8   8   8   8   8
#     4  10  24  41  64  97 127 166 220 264 318 396
#     4  10  22  43  65  95 128 170 217 268 328 378
#     4  11  22  41  64  93 133 170 210 262 328 391
#     4  10  21  40  68  91 123 167 221 266 318 380
#     4  11  23  42  63  95 130 168 211 276 321 379
#
# _framework density 24.025092999999998
#
# number of rings (size 3 to 8) (size 9 to 14) (size 15 to 20)
#    0.000    1.600    4.000    0.000    5.600    0.000 
#    3.600    2.000    0.000    0.000    0.000    0.000 
#    0.000    0.000    0.000    0.000    0.000    0.000 
#
# Total GULP energy -223622.382805 kJ/mol
# GULP energy per Si atom -5590.559570 kJ/mol
# Density = 2.397041 g / cm^3
# Si number density = 24.025093 Si / 1000 Ang^3
#
#
#
# Elastic Constant Matrix: (Units=GPa)
#
#
# Indices 1 2 3 4 5 6 
#
# 1 83.4742 -1.5916 15.7236 0.0000 0.0000 0.0000
# 2 -1.5916 20.1077 10.0172 0.0000 0.0000 0.0000
# 3 15.7236 10.0172 64.0117 0.0000 0.0000 0.0000
# 4 0.0000 0.0000 0.0000 2.1610 0.0000 0.0000
# 5 0.0000 0.0000 0.0000 0.0000 27.4658 0.0000
# 6 0.0000 0.0000 0.0000 0.0000 0.0000 39.7687
#
#
#
# Elastic Compliance Matrix: (Units=1/GPa)
#
#
# Indices 1 2 3 4 5 6 
#
# 1 0.012702 0.002776 -0.003555 0.000000 0.000000 0.000000
# 2 0.002776 0.054544 -0.009218 0.000000 0.000000 0.000000
# 3 -0.003555 -0.009218 0.017938 0.000000 0.000000 0.000000
# 4 0.000000 0.000000 0.000000 0.462749 0.000000 0.000000
# 5 0.000000 0.000000 0.000000 0.000000 0.036409 0.000000
# 6 0.000000 0.000000 0.000000 0.000000 0.000000 0.025145
#
#
# Mechanical properties :
#
#
# Convention : Reuss Voigt Hill
#
# Bulk Modulus (GPa) = 15.33930 23.98803 19.66366
# Shear Modulus (GPa) = 7.67802 23.44206 15.56004
#
# Velocity S-wave (km/s) = 1.78963 3.12706 2.54767
# Velocity P-wave (km/s) = 3.26633 4.80044 4.10568
#
# Compressibility (1/GPa) = 0.06519202
#
# Stress axis : x y z
#
# Youngs Moduli (GPa) = 78.72626 18.33388 55.74838
#
# Poissons Ratio (x) = -0.05090 0.19816
# Poissons Ratio (y) = -0.21856 0.51386
# Poissons Ratio (z) = 0.27984 0.16899
#
# Static dielectric constant tensor:
#      x y z
#    x 1.950310 0.000000 0.000000 
#    y 0.000000 1.996690 0.000000 
#    z 0.000000 0.000000 1.860590 
# 
# From -- ./inp_files/10812.got.cif
#   From: 2010.05.17/outbox.cif.g08.bks.cpg/sg60_6_cif.got.tgz:10812.got - 2010.06.03 14:59:27.
