data_PCOD9456835
_publ_section_title
;
Structure prediction by ZEFSAII (Michael W. Deem and Ramdas Pophale) SiO2 
 PCOD9456835
Probable space group: P B C N
;
_chemical_formula_sum "Si O2"
_cell_formula_units_Z 44
_cell_length_a 25.481470
_cell_length_b 5.749185
_cell_length_c 12.769672
_cell_angle_alpha 90.000000
_cell_angle_beta 90.000000
_cell_angle_gamma 90.000000
_cell_volume 1870.727388
_symmetry_space_group_name_H-M "P B C N"
_symmetry_group_IT_number 60
_symmetry_cell_setting 'orthorhombic'
loop_
_space_group_symop_operation_xyz
x,y,z
1/2-x,1/2-y,1/2+z
1/2+x,1/2-y,-z
-x,y,1/2-z
-x,-y,-z
1/2+x,1/2+y,1/2-z
1/2-x,1/2+y,z
x,-y,1/2+z
loop_
_atom_site_type_symbol
_atom_site_label
_atom_site_fract_x
_atom_site_fract_y
_atom_site_fract_z
Si Si1 0.592117 0.542171 0.259408
Si Si2 0.000000 0.294291 0.750000
Si Si3 0.775232 0.624679 0.181428
Si Si4 0.372601 0.900651 0.416305
Si Si5 0.333812 0.205912 0.131559
Si Si6 0.433156 0.086332 0.597366
O O1 0.549963 0.359029 0.218074
O O2 0.606109 0.723068 0.169131
O O3 0.644221 0.428343 0.307182
O O4 0.563706 0.653464 0.361807
O O5 0.978931 0.447379 0.846067
O O6 0.753316 0.880332 0.152727
O O7 0.833079 0.588753 0.132118
O O8 0.782188 0.627444 0.308273
O O9 0.338456 0.767345 0.506893
O O10 0.420435 0.021844 0.478744
O O11 0.378214 0.007322 0.147945
#
# Coordination Sequence:
#
# PCOD9456835 Si02
#       6
#     8   4   8   8   8   8
#     4  11  20  43  71  92 148 189 239 301 360 436
#     4  10  22  40  64 104 142 182 246 302 354 430
#     4  12  26  44  72 105 139 178 235 301 356 436
#     4  10  22  44  68 102 135 192 234 290 373 434
#     4   9  23  43  65  99 137 187 229 291 369 423
#     4   9  21  41  63  97 138 183 236 293 355 439
#
# _framework density 23.520261000000001
#
# number of rings (size 3 to 8) (size 9 to 14) (size 15 to 20)
#    1.091    0.727    1.818    1.636    0.000    5.091 
#    0.000    1.818    0.000    0.000    0.000    0.000 
#    0.000    0.000    0.000    0.000    0.000    0.000 
#
# Total GULP energy -245318.962775 kJ/mol
# GULP energy per Si atom -5575.430972 kJ/mol
# Density = 2.346673 g / cm^3
# Si number density = 23.520261 Si / 1000 Ang^3
#
#
#
# Elastic Constant Matrix: (Units=GPa)
#
#
# Indices 1 2 3 4 5 6 
#
# 1 61.6440 40.1948 25.7522 0.0000 0.0000 0.0000
# 2 40.1948 95.8205 35.9354 0.0000 0.0000 0.0000
# 3 25.7522 35.9354 112.0778 0.0000 0.0000 0.0000
# 4 0.0000 0.0000 0.0000 9.1334 0.0000 0.0000
# 5 0.0000 0.0000 0.0000 0.0000 46.5026 0.0000
# 6 0.0000 0.0000 0.0000 0.0000 0.0000 37.3494
#
#
#
# Elastic Compliance Matrix: (Units=1/GPa)
#
#
# Indices 1 2 3 4 5 6 
#
# 1 0.022922 -0.008684 -0.002482 0.000000 0.000000 0.000000
# 2 -0.008684 0.015153 -0.002863 0.000000 0.000000 0.000000
# 3 -0.002482 -0.002863 0.010411 0.000000 0.000000 0.000000
# 4 0.000000 0.000000 0.000000 0.109488 0.000000 0.000000
# 5 0.000000 0.000000 0.000000 0.000000 0.021504 0.000000
# 6 0.000000 0.000000 0.000000 0.000000 0.000000 0.026774
#
#
# Mechanical properties :
#
#
# Convention : Reuss Voigt Hill
#
# Bulk Modulus (GPa) = 48.95725 52.58968 50.77347
# Shear Modulus (GPa) = 20.73656 29.77441 25.25549
#
# Velocity S-wave (km/s) = 2.97248 3.56182 3.28041
# Velocity P-wave (km/s) = 5.71322 6.27082 5.99851
#
# Compressibility (1/GPa) = 0.02042599
#
# Stress axis : x y z
#
# Youngs Moduli (GPa) = 43.62670 65.99447 96.05501
#
# Poissons Ratio (x) = 0.57312 0.23844
# Poissons Ratio (y) = 0.37887 0.27501
# Poissons Ratio (z) = 0.10829 0.18894
#
# Static dielectric constant tensor:
#      x y z
#    x 1.927840 0.000000 0.000000 
#    y 0.000000 1.911110 0.000000 
#    z 0.000000 0.000000 1.906160 
# 
# From -- ./inp_files/18113.got.cif
#   From: 2010.05.17/outbox.cif.g08.bks.cpg/sg60_10_cif.got.tgz:18113.got - 2010.06.03 14:59:27.
