data_PCOD9456598
_publ_section_title
;
Structure prediction by ZEFSAII (Michael W. Deem and Ramdas Pophale) SiO2 
 PCOD9456598
Probable space group: P B C N
;
_chemical_formula_sum "Si O2"
_cell_formula_units_Z 40
_cell_length_a 10.264845
_cell_length_b 12.981597
_cell_length_c 13.627072
_cell_angle_alpha 90.000000
_cell_angle_beta 90.000000
_cell_angle_gamma 90.000000
_cell_volume 1815.862957
_symmetry_space_group_name_H-M "P B C N"
_symmetry_group_IT_number 60
_symmetry_cell_setting 'orthorhombic'
loop_
_space_group_symop_operation_xyz
x,y,z
1/2-x,1/2-y,1/2+z
1/2+x,1/2-y,-z
-x,y,1/2-z
-x,-y,-z
1/2+x,1/2+y,1/2-z
1/2-x,1/2+y,z
x,-y,1/2+z
loop_
_atom_site_type_symbol
_atom_site_label
_atom_site_fract_x
_atom_site_fract_y
_atom_site_fract_z
Si Si1 0.899962 0.906055 0.525727
Si Si2 0.443388 0.099219 0.355172
Si Si3 0.724657 0.949202 0.925617
Si Si4 0.805871 0.996580 0.706595
Si Si5 0.381902 0.314878 0.422296
O O1 0.884830 0.912410 0.642225
O O2 0.972456 0.816354 0.469347
O O3 0.766107 0.944538 0.478110
O O4 0.000000 0.000000 0.500000
O O5 0.500000 0.133490 0.250000
O O6 0.571087 0.066018 0.414463
O O7 0.343032 0.007325 0.332717
O O8 0.363878 0.198011 0.392485
O O9 0.792994 0.963195 0.818980
O O10 0.787077 0.858868 0.992521
O O11 0.864902 0.106049 0.670097
#
# Coordination Sequence:
#
# PCOD9456598 Si02
#       5
#     8   8   8   8   8
#     4   8  18  32  55  85 102 149 187 227 283 333
#     4  10  22  37  58  85 117 154 191 242 291 344
#     4   9  19  37  58  81 115 151 188 242 290 333
#     4   9  19  37  57  82 118 149 189 235 289 343
#     4  10  22  35  60  90 110 154 194 236 290 347
#
# _framework density 22.028095
#
# number of rings (size 3 to 8) (size 9 to 14) (size 15 to 20)
#    0.000    3.200    0.000    0.000    5.600    9.600 
#    0.000    0.000    0.000    0.000    0.000    0.000 
#    0.000    0.000    0.000    0.000    0.000    0.000 
#
# Total GULP energy -222740.020736 kJ/mol
# GULP energy per Si atom -5568.500518 kJ/mol
# Density = 2.197796 g / cm^3
# Si number density = 22.028095 Si / 1000 Ang^3
#
#
#
# Elastic Constant Matrix: (Units=GPa)
#
#
# Indices 1 2 3 4 5 6 
#
# 1 78.9670 35.2928 23.0131 0.0000 0.0000 0.0000
# 2 35.2928 68.2355 23.8621 0.0000 0.0000 0.0000
# 3 23.0131 23.8621 122.2866 0.0000 0.0000 0.0000
# 4 0.0000 0.0000 0.0000 16.1547 0.0000 0.0000
# 5 0.0000 0.0000 0.0000 0.0000 42.9524 0.0000
# 6 0.0000 0.0000 0.0000 0.0000 0.0000 32.6727
#
#
#
# Elastic Compliance Matrix: (Units=1/GPa)
#
#
# Indices 1 2 3 4 5 6 
#
# 1 0.016747 -0.008113 -0.001568 0.000000 0.000000 0.000000
# 2 -0.008113 0.019659 -0.002309 0.000000 0.000000 0.000000
# 3 -0.001568 -0.002309 0.008923 0.000000 0.000000 0.000000
# 4 0.000000 0.000000 0.000000 0.061901 0.000000 0.000000
# 5 0.000000 0.000000 0.000000 0.000000 0.023282 0.000000
# 6 0.000000 0.000000 0.000000 0.000000 0.000000 0.030607
#
#
# Mechanical properties :
#
#
# Convention : Reuss Voigt Hill
#
# Bulk Modulus (GPa) = 46.84472 48.20278 47.52375
# Shear Modulus (GPa) = 26.01240 30.84404 28.42822
#
# Velocity S-wave (km/s) = 3.44011 3.74600 3.59631
# Velocity P-wave (km/s) = 6.09026 6.37495 6.23423
#
# Compressibility (1/GPa) = 0.02134712
#
# Stress axis : x y z
#
# Youngs Moduli (GPa) = 59.71342 50.86723 112.06634
#
# Poissons Ratio (x) = 0.41270 0.17576
# Poissons Ratio (y) = 0.48447 0.25879
# Poissons Ratio (z) = 0.09365 0.11747
#
# Static dielectric constant tensor:
#      x y z
#    x 1.951160 0.000000 0.000000 
#    y 0.000000 1.805400 0.000000 
#    z 0.000000 0.000000 1.921250 
# 
# From -- ./inp_files/14820.got.cif
#   From: 2010.05.17/outbox.cif.g08.bks.cpg/sg60_8_cif.got.tgz:14820.got - 2010.06.03 14:59:27.
