data_PCOD9456292
_publ_section_title
;
Structure prediction by ZEFSAII (Michael W. Deem and Ramdas Pophale) SiO2 
 PCOD9456292
Probable space group: P B C N
;
_chemical_formula_sum "Si O2"
_cell_formula_units_Z 48
_cell_length_a 27.992297
_cell_length_b 8.594720
_cell_length_c 8.690283
_cell_angle_alpha 90.000000
_cell_angle_beta 90.000000
_cell_angle_gamma 90.000000
_cell_volume 2090.760034
_symmetry_space_group_name_H-M "P B C N"
_symmetry_group_IT_number 60
_symmetry_cell_setting 'orthorhombic'
loop_
_space_group_symop_operation_xyz
x,y,z
1/2-x,1/2-y,1/2+z
1/2+x,1/2-y,-z
-x,y,1/2-z
-x,-y,-z
1/2+x,1/2+y,1/2-z
1/2-x,1/2+y,z
x,-y,1/2+z
loop_
_atom_site_type_symbol
_atom_site_label
_atom_site_fract_x
_atom_site_fract_y
_atom_site_fract_z
Si Si1 0.597497 0.960505 0.115317
Si Si2 0.953729 0.208030 0.966682
Si Si3 0.000000 0.551402 0.250000
Si Si4 0.150913 0.649250 0.603928
Si Si5 0.237386 0.442291 0.495761
Si Si6 0.500000 0.471900 0.750000
Si Si7 0.708521 0.348752 0.710376
O O1 0.636039 0.952475 0.249086
O O2 0.547114 0.961958 0.202000
O O3 0.594388 0.804086 0.009939
O O4 0.608762 0.114295 0.016468
O O5 0.987122 0.342324 0.895815
O O6 0.975182 0.128891 0.117971
O O7 0.959236 0.077868 0.833372
O O8 0.198455 0.578109 0.525553
O O9 0.162415 0.814772 0.682338
O O10 0.217558 0.306247 0.388331
O O11 0.250592 0.376640 0.662499
O O12 0.283995 0.512498 0.410021
#
# Coordination Sequence:
#
# PCOD9456292 Si02
#       7
#     8   8   4   8   8   4   8
#     4  12  24  42  66 104 138 174 238 296 346 403
#     4  10  21  40  66  93 129 181 232 277 343 410
#     4  11  23  40  70 100 129 187 228 286 348 409
#     4  12  25  41  70 105 139 175 232 304 341 413
#     4  12  23  44  74 101 141 187 232 284 367 436
#     4   9  21  40  66  90 127 177 250 268 336 435
#     4  12  23  44  73 103 138 188 227 288 357 440
#
# _framework density 22.958158000000001
#
# number of rings (size 3 to 8) (size 9 to 14) (size 15 to 20)
#    0.000    0.667    6.667    1.000    2.333    0.000 
#    0.000    1.667    0.000    0.000    0.000    0.000 
#    0.000    0.000    0.000    0.000    0.000    0.000 
#
# Total GULP energy -267665.287639 kJ/mol
# GULP energy per Si atom -5576.360159 kJ/mol
# Density = 2.290590 g / cm^3
# Si number density = 22.958158 Si / 1000 Ang^3
#
#
#
# Elastic Constant Matrix: (Units=GPa)
#
#
# Indices 1 2 3 4 5 6 
#
# 1 45.5307 3.8819 29.2720 0.0000 0.0000 0.0000
# 2 3.8819 45.0302 23.0648 0.0000 0.0000 0.0000
# 3 29.2720 23.0648 123.9749 0.0000 0.0000 0.0000
# 4 0.0000 0.0000 0.0000 43.3637 0.0000 0.0000
# 5 0.0000 0.0000 0.0000 0.0000 37.9649 0.0000
# 6 0.0000 0.0000 0.0000 0.0000 0.0000 24.7834
#
#
#
# Elastic Compliance Matrix: (Units=1/GPa)
#
#
# Indices 1 2 3 4 5 6 
#
# 1 0.025934 0.000996 -0.006309 0.000000 0.000000 0.000000
# 2 0.000996 0.024585 -0.004809 0.000000 0.000000 0.000000
# 3 -0.006309 -0.004809 0.010450 0.000000 0.000000 0.000000
# 4 0.000000 0.000000 0.000000 0.023061 0.000000 0.000000
# 5 0.000000 0.000000 0.000000 0.000000 0.026340 0.000000
# 6 0.000000 0.000000 0.000000 0.000000 0.000000 0.040350
#
#
# Mechanical properties :
#
#
# Convention : Reuss Voigt Hill
#
# Bulk Modulus (GPa) = 24.55471 36.33035 30.44253
# Shear Modulus (GPa) = 27.09462 31.77689 29.43576
#
# Velocity S-wave (km/s) = 3.43909 3.72441 3.58459
# Velocity P-wave (km/s) = 5.14669 5.86123 5.51554
#
# Compressibility (1/GPa) = 0.04072539
#
# Stress axis : x y z
#
# Youngs Moduli (GPa) = 38.55922 40.67583 95.69057
#
# Poissons Ratio (x) = -0.04050 0.60367
# Poissons Ratio (y) = -0.03839 0.46017
# Poissons Ratio (z) = 0.24325 0.19561
#
# Static dielectric constant tensor:
#      x y z
#    x 1.913410 0.000000 0.000000 
#    y 0.000000 1.892110 0.000000 
#    z 0.000000 0.000000 1.882810 
# 
# From -- ./inp_files/8420.got.cif
#   From: 2010.05.17/outbox.cif.g08.bks.cpg/sg60_5_cif.got.tgz:8420.got - 2010.06.03 14:59:27.
