data_PCOD9456107
_publ_section_title
;
Structure prediction by ZEFSAII (Michael W. Deem and Ramdas Pophale) SiO2 
 PCOD9456107
Probable space group: P B C N
;
_chemical_formula_sum "Si O2"
_cell_formula_units_Z 60
_cell_length_a 19.154778
_cell_length_b 14.429530
_cell_length_c 8.833056
_cell_angle_alpha 90.000000
_cell_angle_beta 90.000000
_cell_angle_gamma 90.000000
_cell_volume 2441.407600
_symmetry_space_group_name_H-M "P B C N"
_symmetry_group_IT_number 60
_symmetry_cell_setting 'orthorhombic'
loop_
_space_group_symop_operation_xyz
x,y,z
1/2-x,1/2-y,1/2+z
1/2+x,1/2-y,-z
-x,y,1/2-z
-x,-y,-z
1/2+x,1/2+y,1/2-z
1/2-x,1/2+y,z
x,-y,1/2+z
loop_
_atom_site_type_symbol
_atom_site_label
_atom_site_fract_x
_atom_site_fract_y
_atom_site_fract_z
Si Si1 0.613919 0.197074 0.989762
Si Si2 0.500000 0.960312 0.250000
Si Si3 0.728657 0.126539 0.371278
Si Si4 0.113930 0.947426 0.997063
Si Si5 0.395730 0.625293 0.169516
Si Si6 0.717825 0.046913 0.046565
Si Si7 0.871534 0.226085 0.812299
Si Si8 0.465903 0.118443 0.041613
O O1 0.674993 0.124177 0.951854
O O2 0.635578 0.261473 0.132867
O O3 0.548371 0.138669 0.047205
O O4 0.584721 0.269614 0.867396
O O5 0.455130 0.027430 0.142395
O O6 0.453282 0.901637 0.365278
O O7 0.811394 0.128394 0.350349
O O8 0.701854 0.077408 0.217519
O O9 0.699314 0.230196 0.381782
O O10 0.702170 0.059135 0.503459
O O11 0.107515 0.874990 0.134324
O O12 0.083260 0.045710 0.049679
O O13 0.085875 0.907352 0.838754
O O14 0.198404 0.950801 0.975906
O O15 0.927463 0.296120 0.883908
#
# Coordination Sequence:
#
# PCOD9456107 Si02
#       8
#     8   4   8   8   8   8   8   8
#     4  11  22  37  58  86 119 152 193 238 283 340
#     4  10  24  42  60  82 126 158 188 232 276 336
#     4   9  20  34  55  85 118 152 190 233 287 341
#     4  10  21  39  59  83 113 152 194 241 290 338
#     4  10  21  39  59  83 113 152 194 241 290 338
#     4   9  20  34  55  85 118 152 190 233 287 341
#     4  11  22  37  58  86 119 152 193 238 283 340
#     4  11  24  40  61  88 120 154 194 228 284 335
#
# _framework density 24.575984999999999
#
# number of rings (size 3 to 8) (size 9 to 14) (size 15 to 20)
#    0.000    1.867    1.333    1.600    5.600    2.133 
#    0.000    0.667    0.000    0.000    0.000    0.000 
#    0.000    0.000    0.000    0.000    0.000    0.000 
#
# Total GULP energy -335420.813822 kJ/mol
# GULP energy per Si atom -5590.346897 kJ/mol
# Density = 2.452005 g / cm^3
# Si number density = 24.575985 Si / 1000 Ang^3
#
#
#
# Elastic Constant Matrix: (Units=GPa)
#
#
# Indices 1 2 3 4 5 6 
#
# 1 32.8704 -5.5106 0.6346 0.0000 0.0000 0.0000
# 2 -5.5106 61.7270 16.2008 0.0000 0.0000 0.0000
# 3 0.6346 16.2008 71.6834 0.0000 0.0000 0.0000
# 4 0.0000 0.0000 0.0000 47.3543 0.0000 0.0000
# 5 0.0000 0.0000 0.0000 0.0000 18.6334 0.0000
# 6 0.0000 0.0000 0.0000 0.0000 0.0000 13.8165
#
#
#
# Elastic Compliance Matrix: (Units=1/GPa)
#
#
# Indices 1 2 3 4 5 6 
#
# 1 0.030946 0.003013 -0.000955 0.000000 0.000000 0.000000
# 2 0.003013 0.017515 -0.003985 0.000000 0.000000 0.000000
# 3 -0.000955 -0.003985 0.014859 0.000000 0.000000 0.000000
# 4 0.000000 0.000000 0.000000 0.021117 0.000000 0.000000
# 5 0.000000 0.000000 0.000000 0.000000 0.053667 0.000000
# 6 0.000000 0.000000 0.000000 0.000000 0.000000 0.072377
#
#
# Mechanical properties :
#
#
# Convention : Reuss Voigt Hill
#
# Bulk Modulus (GPa) = 16.81604 20.99225 18.90414
# Shear Modulus (GPa) = 21.35303 26.29124 23.82213
#
# Velocity S-wave (km/s) = 2.95084 3.27432 3.11678
# Velocity P-wave (km/s) = 4.29735 4.78071 4.54546
#
# Compressibility (1/GPa) = 0.05946704
#
# Stress axis : x y z
#
# Youngs Moduli (GPa) = 32.31428 57.09286 67.29768
#
# Poissons Ratio (x) = -0.17204 0.06427
# Poissons Ratio (y) = -0.09737 0.26820
# Poissons Ratio (z) = 0.03086 0.22753
#
# Static dielectric constant tensor:
#      x y z
#    x 1.991030 0.000000 0.000000 
#    y 0.000000 1.934920 0.000000 
#    z 0.000000 0.000000 1.977340 
# 
# From -- ./inp_files/7936.got.cif
#   From: 2010.05.17/outbox.cif.g08.bks.cpg/sg60_4_cif.got.tgz:7936.got - 2010.06.03 14:59:27.
