data_PCOD9456674
_publ_section_title
;
Structure prediction by ZEFSAII (Michael W. Deem and Ramdas Pophale) SiO2 
 PCOD9456674
Probable space group: P B C N
;
_chemical_formula_sum "Si O2"
_cell_formula_units_Z 40
_cell_length_a 9.480425
_cell_length_b 8.407558
_cell_length_c 22.453785
_cell_angle_alpha 90.000000
_cell_angle_beta 90.000000
_cell_angle_gamma 90.000000
_cell_volume 1789.728849
_symmetry_space_group_name_H-M "P B C N"
_symmetry_group_IT_number 60
_symmetry_cell_setting 'orthorhombic'
loop_
_space_group_symop_operation_xyz
x,y,z
1/2-x,1/2-y,1/2+z
1/2+x,1/2-y,-z
-x,y,1/2-z
-x,-y,-z
1/2+x,1/2+y,1/2-z
1/2-x,1/2+y,z
x,-y,1/2+z
loop_
_atom_site_type_symbol
_atom_site_label
_atom_site_fract_x
_atom_site_fract_y
_atom_site_fract_z
Si Si1 0.946383 0.838543 0.469184
Si Si2 0.148994 0.867231 0.374825
Si Si3 0.788495 0.628496 0.865821
Si Si4 0.074679 0.673554 0.193947
Si Si5 0.923856 0.230274 0.097221
O O1 0.824601 0.872457 0.420485
O O2 0.903942 0.737229 0.526464
O O3 0.082228 0.777566 0.432908
O O4 0.000000 0.000000 0.500000
O O5 0.313633 0.841581 0.369174
O O6 0.056241 0.786158 0.324590
O O7 0.116687 0.051530 0.384471
O O8 0.705190 0.700901 0.808934
O O9 0.862697 0.461440 0.850005
O O10 0.916017 0.740466 0.885660
O O11 0.000000 0.589813 0.250000
#
# Coordination Sequence:
#
# PCOD9456674 Si02
#       5
#     8   8   8   8   8
#     4   9  19  37  60  91 128 166 203 254 317 381
#     4  10  22  38  59  90 125 160 208 255 304 376
#     4  11  23  42  67  94 127 167 216 263 315 389
#     4  11  25  45  65  89 122 167 215 267 318 363
#     4  11  21  38  62  94 130 164 202 255 318 381
#
# _framework density 22.349754000000001
#
# number of rings (size 3 to 8) (size 9 to 14) (size 15 to 20)
#    0.000    1.600    0.000    6.000    0.000    8.000 
#    0.000   12.000    0.000    0.000    0.000    0.000 
#    0.000    0.000    0.000    0.000    0.000    0.000 
#
# Total GULP energy -222914.794283 kJ/mol
# GULP energy per Si atom -5572.869857 kJ/mol
# Density = 2.229889 g / cm^3
# Si number density = 22.349754 Si / 1000 Ang^3
#
#
#
# Elastic Constant Matrix: (Units=GPa)
#
#
# Indices 1 2 3 4 5 6 
#
# 1 165.3971 17.5940 45.2166 0.0000 0.0000 0.0000
# 2 17.5940 55.2726 12.7229 0.0000 0.0000 0.0000
# 3 45.2166 12.7229 41.4528 0.0000 0.0000 0.0000
# 4 0.0000 0.0000 0.0000 16.4859 0.0000 0.0000
# 5 0.0000 0.0000 0.0000 0.0000 32.9928 0.0000
# 6 0.0000 0.0000 0.0000 0.0000 0.0000 39.3031
#
#
#
# Elastic Compliance Matrix: (Units=1/GPa)
#
#
# Indices 1 2 3 4 5 6 
#
# 1 0.008635 -0.000625 -0.009227 0.000000 0.000000 0.000000
# 2 -0.000625 0.019513 -0.005308 0.000000 0.000000 0.000000
# 3 -0.009227 -0.005308 0.035818 0.000000 0.000000 0.000000
# 4 0.000000 0.000000 0.000000 0.060658 0.000000 0.000000
# 5 0.000000 0.000000 0.000000 0.000000 0.030310 0.000000
# 6 0.000000 0.000000 0.000000 0.000000 0.000000 0.025443
#
#
# Mechanical properties :
#
#
# Convention : Reuss Voigt Hill
#
# Bulk Modulus (GPa) = 29.72064 45.90994 37.81529
# Shear Modulus (GPa) = 22.53147 30.19562 26.36354
#
# Velocity S-wave (km/s) = 3.17855 3.67965 3.43824
# Velocity P-wave (km/s) = 5.17666 6.21605 5.72001
#
# Compressibility (1/GPa) = 0.03364665
#
# Stress axis : x y z
#
# Youngs Moduli (GPa) = 115.80607 51.24870 27.91881
#
# Poissons Ratio (x) = 0.03201 0.25762
# Poissons Ratio (y) = 0.07234 0.14818
# Poissons Ratio (z) = 1.06860 0.27200
#
# Static dielectric constant tensor:
#      x y z
#    x 1.810940 0.000000 0.000000 
#    y 0.000000 1.908430 0.000000 
#    z 0.000000 0.000000 2.051840 
# 
# From -- ./inp_files/23841.got.cif
#   From: 2010.05.17/outbox.cif.g08.bks.cpg/sg60_12_cif.got.tgz:23841.got - 2010.06.03 14:59:27.
