data_PCOD9456895
_publ_section_title
;
Structure prediction by ZEFSAII (Michael W. Deem and Ramdas Pophale) SiO2 
 PCOD9456895
Probable space group: P B C N
;
_chemical_formula_sum "Si O2"
_cell_formula_units_Z 36
_cell_length_a 16.445808
_cell_length_b 9.694308
_cell_length_c 9.104570
_cell_angle_alpha 90.000000
_cell_angle_beta 90.000000
_cell_angle_gamma 90.000000
_cell_volume 1451.548224
_symmetry_space_group_name_H-M "P B C N"
_symmetry_group_IT_number 60
_symmetry_cell_setting 'orthorhombic'
loop_
_space_group_symop_operation_xyz
x,y,z
1/2-x,1/2-y,1/2+z
1/2+x,1/2-y,-z
-x,y,1/2-z
-x,-y,-z
1/2+x,1/2+y,1/2-z
1/2-x,1/2+y,z
x,-y,1/2+z
loop_
_atom_site_type_symbol
_atom_site_label
_atom_site_fract_x
_atom_site_fract_y
_atom_site_fract_z
Si Si1 0.292998 0.688883 0.172018
Si Si2 0.742817 0.061449 0.640270
Si Si3 0.455900 0.671290 0.039008
Si Si4 0.446231 0.087364 0.890663
Si Si5 0.500000 0.428562 0.250000
O O1 0.288202 0.574396 0.301176
O O2 0.245278 0.818870 0.237595
O O3 0.381320 0.744406 0.121172
O O4 0.264647 0.615683 0.021880
O O5 0.645484 0.039567 0.628830
O O6 0.540412 0.752487 0.061970
O O7 0.457301 0.528318 0.130819
O O8 0.444596 0.656473 0.863791
O O9 0.500000 0.069320 0.750000
O O10 0.500000 0.000000 0.000000
#
# Coordination Sequence:
#
# PCOD9456895 Si02
#       5
#     8   8   8   8   4
#     4  12  26  46  73 108 152 194 253 311 382 443
#     4  12  27  47  75 110 150 200 246 317 375 455
#     4  11  23  45  69 103 142 190 245 304 360 448
#     4  12  26  47  72 102 144 190 247 299 362 445
#     4  10  22  40  72 102 140 186 246 300 368 418
#
# _framework density 24.801106000000001
#
# number of rings (size 3 to 8) (size 9 to 14) (size 15 to 20)
#    0.000    0.444    3.333    4.000    4.667    7.111 
#    0.000    0.000    0.000    0.000    0.000    0.000 
#    0.000    0.000    0.000    0.000    0.000    0.000 
#
# Total GULP energy -201151.140472 kJ/mol
# GULP energy per Si atom -5587.531680 kJ/mol
# Density = 2.474466 g / cm^3
# Si number density = 24.801106 Si / 1000 Ang^3
#
#
#
# Elastic Constant Matrix: (Units=GPa)
#
#
# Indices 1 2 3 4 5 6 
#
# 1 96.8387 5.3245 34.6768 0.0000 0.0000 0.0000
# 2 5.3245 73.9620 33.1706 0.0000 0.0000 0.0000
# 3 34.6768 33.1706 174.5164 0.0000 0.0000 0.0000
# 4 0.0000 0.0000 0.0000 37.8210 0.0000 0.0000
# 5 0.0000 0.0000 0.0000 0.0000 41.4280 0.0000
# 6 0.0000 0.0000 0.0000 0.0000 0.0000 25.3300
#
#
#
# Elastic Compliance Matrix: (Units=1/GPa)
#
#
# Indices 1 2 3 4 5 6 
#
# 1 0.011120 0.000208 -0.002249 0.000000 0.000000 0.000000
# 2 0.000208 0.014784 -0.002851 0.000000 0.000000 0.000000
# 3 -0.002249 -0.002851 0.006719 0.000000 0.000000 0.000000
# 4 0.000000 0.000000 0.000000 0.026440 0.000000 0.000000
# 5 0.000000 0.000000 0.000000 0.000000 0.024138 0.000000
# 6 0.000000 0.000000 0.000000 0.000000 0.000000 0.039479
#
#
# Mechanical properties :
#
#
# Convention : Reuss Voigt Hill
#
# Bulk Modulus (GPa) = 43.78518 54.62900 49.20709
# Shear Modulus (GPa) = 35.69411 39.05881 37.37646
#
# Velocity S-wave (km/s) = 3.79781 3.97278 3.88628
# Velocity P-wave (km/s) = 6.07652 6.56648 6.32624
#
# Compressibility (1/GPa) = 0.02283878
#
# Stress axis : x y z
#
# Youngs Moduli (GPa) = 89.92457 67.63935 148.83114
#
# Poissons Ratio (x) = -0.01408 0.33475
# Poissons Ratio (y) = -0.01872 0.42438
# Poissons Ratio (z) = 0.20226 0.19287
#
# Static dielectric constant tensor:
#      x y z
#    x 1.926680 0.000000 0.000000 
#    y 0.000000 2.052980 0.000000 
#    z 0.000000 0.000000 2.060370 
# 
# From -- ./inp_files/7162.got.cif
#   From: 2010.05.17/outbox.cif.g08.bks.cpg/sg60_4_cif.got.tgz:7162.got - 2010.06.03 14:59:27.
