data_PCOD9456485
_publ_section_title
;
Structure prediction by ZEFSAII (Michael W. Deem and Ramdas Pophale) SiO2 
 PCOD9456485
Probable space group: P B C N
;
_chemical_formula_sum "Si O2"
_cell_formula_units_Z 48
_cell_length_a 28.838726
_cell_length_b 5.275244
_cell_length_c 13.788224
_cell_angle_alpha 90.000000
_cell_angle_beta 90.000000
_cell_angle_gamma 90.000000
_cell_volume 2097.620667
_symmetry_space_group_name_H-M "P B C N"
_symmetry_group_IT_number 60
_symmetry_cell_setting 'orthorhombic'
loop_
_space_group_symop_operation_xyz
x,y,z
1/2-x,1/2-y,1/2+z
1/2+x,1/2-y,-z
-x,y,1/2-z
-x,-y,-z
1/2+x,1/2+y,1/2-z
1/2-x,1/2+y,z
x,-y,1/2+z
loop_
_atom_site_type_symbol
_atom_site_label
_atom_site_fract_x
_atom_site_fract_y
_atom_site_fract_z
Si Si1 0.770050 0.247168 0.548522
Si Si2 0.026544 0.991875 0.664934
Si Si3 0.866694 0.448623 0.480330
Si Si4 0.273015 0.323962 0.223942
Si Si5 0.536323 0.797959 0.537941
Si Si6 0.371727 0.448598 0.145934
O O1 0.733493 0.457925 0.510391
O O2 0.819117 0.382960 0.533453
O O3 0.762821 0.204321 0.662349
O O4 0.077946 0.076492 0.696120
O O5 0.000000 0.836573 0.750000
O O6 0.986670 0.191560 0.635230
O O7 0.037440 0.885025 0.556750
O O8 0.911895 0.403258 0.546734
O O9 0.869793 0.730088 0.436650
O O10 0.868328 0.234235 0.395770
O O11 0.240499 0.548582 0.183827
O O12 0.326362 0.396527 0.209639
O O13 0.500000 0.000000 0.500000
#
# Coordination Sequence:
#
# PCOD9456485 Si02
#       6
#     8   8   8   8   8   8
#     4  10  22  40  60  89 121 160 208 250 311 383
#     4  10  23  41  64  94 127 171 215 262 323 391
#     4  11  23  39  64  90 121 162 206 256 315 371
#     4  10  22  40  59  86 124 159 198 258 310 365
#     4  10  21  43  62  91 133 164 210 275 317 376
#     4  11  23  40  61  93 122 157 212 253 310 380
#
# _framework density 22.883068000000002
#
# number of rings (size 3 to 8) (size 9 to 14) (size 15 to 20)
#    0.000    1.667    1.667    2.000    2.333    4.667 
#    0.000    1.667    0.000    0.000    0.000    0.000 
#    0.000    0.000    0.000    0.000    0.000    0.000 
#
# Total GULP energy -267616.886524 kJ/mol
# GULP energy per Si atom -5575.351803 kJ/mol
# Density = 2.283098 g / cm^3
# Si number density = 22.883068 Si / 1000 Ang^3
#
#
#
# Elastic Constant Matrix: (Units=GPa)
#
#
# Indices 1 2 3 4 5 6 
#
# 1 121.2617 29.3182 -16.5813 0.0000 0.0000 0.0000
# 2 29.3182 57.3555 2.3454 0.0000 0.0000 0.0000
# 3 -16.5813 2.3454 38.3088 0.0000 0.0000 0.0000
# 4 0.0000 0.0000 0.0000 12.1366 0.0000 0.0000
# 5 0.0000 0.0000 0.0000 0.0000 43.3691 0.0000
# 6 0.0000 0.0000 0.0000 0.0000 0.0000 31.0616
#
#
#
# Elastic Compliance Matrix: (Units=1/GPa)
#
#
# Indices 1 2 3 4 5 6 
#
# 1 0.010204 -0.005410 0.004748 0.000000 0.000000 0.000000
# 2 -0.005410 0.020347 -0.003587 0.000000 0.000000 0.000000
# 3 0.004748 -0.003587 0.028378 0.000000 0.000000 0.000000
# 4 0.000000 0.000000 0.000000 0.082395 0.000000 0.000000
# 5 0.000000 0.000000 0.000000 0.000000 0.023058 0.000000
# 6 0.000000 0.000000 0.000000 0.000000 0.000000 0.032194
#
#
# Mechanical properties :
#
#
# Convention : Reuss Voigt Hill
#
# Bulk Modulus (GPa) = 19.82939 27.45451 23.64195
# Shear Modulus (GPa) = 22.53411 30.76969 26.65190
#
# Velocity S-wave (km/s) = 3.14148 3.67092 3.41647
# Velocity P-wave (km/s) = 4.67363 5.47644 5.09088
#
# Compressibility (1/GPa) = 0.05043020
#
# Stress axis : x y z
#
# Youngs Moduli (GPa) = 98.00226 49.14677 35.23818
#
# Poissons Ratio (x) = 0.26588 -0.16730
# Poissons Ratio (y) = 0.53019 0.12641
# Poissons Ratio (z) = -0.46529 0.17631
#
# Static dielectric constant tensor:
#      x y z
#    x 1.871420 0.000000 0.000000 
#    y 0.000000 1.914160 0.000000 
#    z 0.000000 0.000000 1.647450 
# 
# From -- ./inp_files/18048.got.cif
#   From: 2010.05.17/outbox.cif.g08.bks.cpg/sg60_10_cif.got.tgz:18048.got - 2010.06.03 14:59:27.
