data_PCOD9456601
_publ_section_title
;
Structure prediction by ZEFSAII (Michael W. Deem and Ramdas Pophale) SiO2 
 PCOD9456601
Probable space group: P B C N
;
_chemical_formula_sum "Si O2"
_cell_formula_units_Z 64
_cell_length_a 9.572878
_cell_length_b 13.941490
_cell_length_c 23.640160
_cell_angle_alpha 90.000000
_cell_angle_beta 90.000000
_cell_angle_gamma 90.000000
_cell_volume 3155.020078
_symmetry_space_group_name_H-M "P B C N"
_symmetry_group_IT_number 60
_symmetry_cell_setting 'orthorhombic'
loop_
_space_group_symop_operation_xyz
x,y,z
1/2-x,1/2-y,1/2+z
1/2+x,1/2-y,-z
-x,y,1/2-z
-x,-y,-z
1/2+x,1/2+y,1/2-z
1/2-x,1/2+y,z
x,-y,1/2+z
loop_
_atom_site_type_symbol
_atom_site_label
_atom_site_fract_x
_atom_site_fract_y
_atom_site_fract_z
Si Si1 0.341043 0.136713 0.366756
Si Si2 0.531886 0.951028 0.184741
Si Si3 0.851785 0.552396 0.012743
Si Si4 0.544113 0.292641 0.377596
Si Si5 0.797665 0.861101 0.043124
Si Si6 0.089159 0.262394 0.373492
Si Si7 0.191834 0.827937 0.585845
Si Si8 0.249967 0.047774 0.611870
O O1 0.367843 0.125707 0.435013
O O2 0.443799 0.220045 0.343153
O O3 0.184744 0.172475 0.358013
O O4 0.371854 0.035788 0.338592
O O5 0.500000 0.964411 0.250000
O O6 0.595446 0.846811 0.172233
O O7 0.391331 0.956124 0.147543
O O8 0.746395 0.471630 0.036544
O O9 0.789876 0.584697 0.952027
O O10 0.000000 0.500000 0.000000
O O11 0.433180 0.342599 0.419374
O O12 0.659093 0.219805 0.402367
O O13 0.639984 0.381494 0.358166
O O14 0.664805 0.807746 0.071190
O O15 0.830248 0.824496 0.980933
O O16 0.932436 0.229158 0.384344
O O17 0.195511 0.939395 0.604093
#
# Coordination Sequence:
#
# PCOD9456601 Si02
#       8
#     8   8   8   8   8   8   8   8
#     4  11  24  44  66 100 129 174 214 276 330 395
#     4  12  25  50  71  90 128 179 223 280 338 390
#     4  11  20  38  66  90 144 174 212 258 339 402
#     4  11  23  37  62  94 135 166 224 256 323 396
#     4  10  22  35  61  98 139 179 207 263 326 400
#     4  11  24  41  67  97 134 172 227 265 330 406
#     4  11  22  37  63  99 137 174 212 261 327 398
#     4  11  24  40  63  97 130 172 213 272 322 396
#
# _framework density 20.285132000000001
#
# number of rings (size 3 to 8) (size 9 to 14) (size 15 to 20)
#    0.000    1.000    5.000    1.500    7.000    1.000 
#    4.500    0.000    0.000    3.000    0.000    0.000 
#    0.000    0.000    0.000    0.000    0.000    0.000 
#
# Total GULP energy -357485.135764 kJ/mol
# GULP energy per Si atom -5585.705246 kJ/mol
# Density = 2.023896 g / cm^3
# Si number density = 20.285132 Si / 1000 Ang^3
#
#
#
# Elastic Constant Matrix: (Units=GPa)
#
#
# Indices 1 2 3 4 5 6 
#
# 1 97.5763 27.0151 7.6146 0.0000 0.0000 0.0000
# 2 27.0151 84.1915 29.4010 0.0000 0.0000 0.0000
# 3 7.6146 29.4010 66.9781 0.0000 0.0000 0.0000
# 4 0.0000 0.0000 0.0000 3.2619 0.0000 0.0000
# 5 0.0000 0.0000 0.0000 0.0000 -11.4022 0.0000
# 6 0.0000 0.0000 0.0000 0.0000 0.0000 50.7497
#
#
#
# Elastic Compliance Matrix: (Units=1/GPa)
#
#
# Indices 1 2 3 4 5 6 
#
# 1 0.011255 -0.003738 0.000361 0.000000 0.000000 0.000000
# 2 -0.003738 0.015269 -0.006278 0.000000 0.000000 0.000000
# 3 0.000361 -0.006278 0.017645 0.000000 0.000000 0.000000
# 4 0.000000 0.000000 0.000000 0.306573 0.000000 0.000000
# 5 0.000000 0.000000 0.000000 0.000000 -0.087702 0.000000
# 6 0.000000 0.000000 0.000000 0.000000 0.000000 0.019705
#
#
# Mechanical properties :
#
#
# Convention : Reuss Voigt Hill
#
# Bulk Modulus (GPa) = 40.22406 41.86748 41.04577
# Shear Modulus (GPa) = 16.11137 20.83622 18.47380
#
# Velocity S-wave (km/s) = 2.82129 3.20842 3.02106
# Velocity P-wave (km/s) = 5.52135 5.86597 5.69627
#
# Compressibility (1/GPa) = 0.02486074
#
# Stress axis : x y z
#
# Youngs Moduli (GPa) = 88.84946 65.49097 56.67353
#
# Poissons Ratio (x) = 0.24478 -0.02046
# Poissons Ratio (y) = 0.33208 0.35578
# Poissons Ratio (z) = -0.03208 0.41114
#
# Static dielectric constant tensor:
#      x y z
#    x 1.714230 0.000000 0.000000 
#    y 0.000000 1.737970 0.000000 
#    z 0.000000 0.000000 1.700750 
# 
# From -- ./inp_files/24113.got.cif
#   From: 2010.05.17/outbox.cif.g08.bks.cpg/sg60_13_cif.got.tgz:24113.got - 2010.06.03 14:59:27.
