data_PCOD9456819
_publ_section_title
;
Structure prediction by ZEFSAII (Michael W. Deem and Ramdas Pophale) SiO2 
 PCOD9456819
Probable space group: P B C N
;
_chemical_formula_sum "Si O2"
_cell_formula_units_Z 28
_cell_length_a 4.971769
_cell_length_b 21.181785
_cell_length_c 11.239522
_cell_angle_alpha 90.000000
_cell_angle_beta 90.000000
_cell_angle_gamma 90.000000
_cell_volume 1183.644650
_symmetry_space_group_name_H-M "P B C N"
_symmetry_group_IT_number 60
_symmetry_cell_setting 'orthorhombic'
loop_
_space_group_symop_operation_xyz
x,y,z
1/2-x,1/2-y,1/2+z
1/2+x,1/2-y,-z
-x,y,1/2-z
-x,-y,-z
1/2+x,1/2+y,1/2-z
1/2-x,1/2+y,z
x,-y,1/2+z
loop_
_atom_site_type_symbol
_atom_site_label
_atom_site_fract_x
_atom_site_fract_y
_atom_site_fract_z
Si Si1 0.251332 0.289774 0.984312
Si Si2 0.500000 0.649989 0.250000
Si Si3 0.322629 0.424162 0.053586
Si Si4 0.322074 0.052141 0.103696
O O1 0.370114 0.310416 0.856722
O O2 0.447185 0.233734 0.026324
O O3 0.276587 0.350035 0.072569
O O4 0.724166 0.603981 0.305063
O O5 0.240700 0.480179 0.142736
O O6 0.625674 0.434799 0.009692
O O7 0.122333 0.439119 0.942572
#
# Coordination Sequence:
#
# PCOD9456819 Si02
#       4
#     8   4   8   8
#     4  11  23  38  60  88 126 165 201 247 299 373
#     4  10  22  40  62  88 118 166 212 248 312 364
#     4   9  18  35  56  83 113 147 192 248 302 340
#     4   9  18  33  59  84 108 143 197 253 293 352
#
# _framework density 23.655750999999999
#
# number of rings (size 3 to 8) (size 9 to 14) (size 15 to 20)
#    0.000    2.286    0.000    3.429    0.000   10.286 
#    0.000    2.857    0.000    0.000    0.000    0.000 
#    0.000    0.000    0.000    0.000    0.000    0.000 
#
# Total GULP energy -156470.230909 kJ/mol
# GULP energy per Si atom -5588.222532 kJ/mol
# Density = 2.360191 g / cm^3
# Si number density = 23.655751 Si / 1000 Ang^3
#
#
#
# Elastic Constant Matrix: (Units=GPa)
#
#
# Indices 1 2 3 4 5 6 
#
# 1 90.0349 3.0111 4.8028 0.0000 0.0000 0.0000
# 2 3.0111 120.8260 0.9025 0.0000 0.0000 0.0000
# 3 4.8028 0.9025 55.7220 0.0000 0.0000 0.0000
# 4 0.0000 0.0000 0.0000 12.4422 0.0000 0.0000
# 5 0.0000 0.0000 0.0000 0.0000 26.1473 0.0000
# 6 0.0000 0.0000 0.0000 0.0000 0.0000 29.6579
#
#
#
# Elastic Compliance Matrix: (Units=1/GPa)
#
#
# Indices 1 2 3 4 5 6 
#
# 1 0.011167 -0.000271 -0.000958 0.000000 0.000000 0.000000
# 2 -0.000271 0.008284 -0.000111 0.000000 0.000000 0.000000
# 3 -0.000958 -0.000111 0.018031 0.000000 0.000000 0.000000
# 4 0.000000 0.000000 0.000000 0.080372 0.000000 0.000000
# 5 0.000000 0.000000 0.000000 0.000000 0.038245 0.000000
# 6 0.000000 0.000000 0.000000 0.000000 0.000000 0.033718
#
#
# Mechanical properties :
#
#
# Convention : Reuss Voigt Hill
#
# Bulk Modulus (GPa) = 28.73446 31.55732 30.14589
# Shear Modulus (GPa) = 24.49819 30.84057 27.66938
#
# Velocity S-wave (km/s) = 3.22158 3.61463 3.42375
# Velocity P-wave (km/s) = 5.10014 5.54887 5.32923
#
# Compressibility (1/GPa) = 0.03480142
#
# Stress axis : x y z
#
# Youngs Moduli (GPa) = 89.54975 120.71541 55.46123
#
# Poissons Ratio (x) = 0.03273 0.05314
# Poissons Ratio (y) = 0.02428 0.00615
# Poissons Ratio (z) = 0.08580 0.01338
#
# Static dielectric constant tensor:
#      x y z
#    x 1.844380 0.000000 0.000000 
#    y 0.000000 1.993150 0.000000 
#    z 0.000000 0.000000 1.949530 
# 
# From -- ./inp_files/8747.got.cif
#   From: 2010.05.17/outbox.cif.g08.bks.cpg/sg60_5_cif.got.tgz:8747.got - 2010.06.03 14:59:27.
