data_PCOD9456808
_publ_section_title
;
Structure prediction by ZEFSAII (Michael W. Deem and Ramdas Pophale) SiO2 
 PCOD9456808
Probable space group: P B C N
;
_chemical_formula_sum "Si O2"
_cell_formula_units_Z 40
_cell_length_a 9.221851
_cell_length_b 10.281326
_cell_length_c 22.070161
_cell_angle_alpha 90.000000
_cell_angle_beta 90.000000
_cell_angle_gamma 90.000000
_cell_volume 2092.535007
_symmetry_space_group_name_H-M "P B C N"
_symmetry_group_IT_number 60
_symmetry_cell_setting 'orthorhombic'
loop_
_space_group_symop_operation_xyz
x,y,z
1/2-x,1/2-y,1/2+z
1/2+x,1/2-y,-z
-x,y,1/2-z
-x,-y,-z
1/2+x,1/2+y,1/2-z
1/2-x,1/2+y,z
x,-y,1/2+z
loop_
_atom_site_type_symbol
_atom_site_label
_atom_site_fract_x
_atom_site_fract_y
_atom_site_fract_z
Si Si1 0.536746 0.542705 0.569332
Si Si2 0.930913 0.326721 0.952980
Si Si3 0.375486 0.070053 0.922004
Si Si4 0.198793 0.903246 0.645351
Si Si5 0.589982 0.129632 0.811656
O O1 0.500000 0.500000 0.500000
O O2 0.480138 0.689685 0.571763
O O3 0.705979 0.544874 0.585010
O O4 0.449648 0.460299 0.618777
O O5 0.792773 0.370896 0.914506
O O6 0.054647 0.434248 0.943837
O O7 0.894249 0.326087 0.023862
O O8 0.471368 0.114455 0.865371
O O9 0.167887 0.769711 0.680974
O O10 0.292196 0.013309 0.680443
O O11 0.500000 0.120030 0.750000
#
# Coordination Sequence:
#
# PCOD9456808 Si02
#       5
#     8   8   8   8   8
#     4  12  23  35  68 100 135 174 217 269 347 407
#     4  10  22  40  61 100 136 167 223 276 340 405
#     4  10  24  39  65  97 137 177 216 280 339 399
#     4  11  23  46  70  96 133 179 219 283 335 392
#     4  11  26  49  69  95 137 179 233 273 329 403
#
# _framework density 19.115570000000002
#
# number of rings (size 3 to 8) (size 9 to 14) (size 15 to 20)
#    0.000    1.200    4.000    1.200    5.600    1.600 
#    3.600    1.000    0.000    0.000    0.000    0.000 
#    0.000    0.000    0.000    0.000    0.000    0.000 
#
# Total GULP energy -223487.492554 kJ/mol
# GULP energy per Si atom -5587.187314 kJ/mol
# Density = 1.907206 g / cm^3
# Si number density = 19.115570 Si / 1000 Ang^3
#
#
#
# Elastic Constant Matrix: (Units=GPa)
#
#
# Indices 1 2 3 4 5 6 
#
# 1 147.6355 51.7818 37.2601 0.0000 0.0000 0.0000
# 2 51.7818 115.0706 41.6680 0.0000 0.0000 0.0000
# 3 37.2601 41.6680 95.4519 0.0000 0.0000 0.0000
# 4 0.0000 0.0000 0.0000 13.5189 0.0000 0.0000
# 5 0.0000 0.0000 0.0000 0.0000 21.8653 0.0000
# 6 0.0000 0.0000 0.0000 0.0000 0.0000 19.3662
#
#
#
# Elastic Compliance Matrix: (Units=1/GPa)
#
#
# Indices 1 2 3 4 5 6 
#
# 1 0.008328 -0.003053 -0.001918 0.000000 0.000000 0.000000
# 2 -0.003053 0.011441 -0.003803 0.000000 0.000000 0.000000
# 3 -0.001918 -0.003803 0.012885 0.000000 0.000000 0.000000
# 4 0.000000 0.000000 0.000000 0.073970 0.000000 0.000000
# 5 0.000000 0.000000 0.000000 0.000000 0.045734 0.000000
# 6 0.000000 0.000000 0.000000 0.000000 0.000000 0.051636
#
#
# Mechanical properties :
#
#
# Convention : Reuss Voigt Hill
#
# Bulk Modulus (GPa) = 66.19546 68.84197 67.51872
# Shear Modulus (GPa) = 22.06729 26.11331 24.09030
#
# Velocity S-wave (km/s) = 3.40135 3.70006 3.55384
# Velocity P-wave (km/s) = 7.08024 7.37195 7.22757
#
# Compressibility (1/GPa) = 0.01510678
#
# Stress axis : x y z
#
# Youngs Moduli (GPa) = 120.07051 87.40321 77.60806
#
# Poissons Ratio (x) = 0.26686 0.14887
# Poissons Ratio (y) = 0.36660 0.29512
# Poissons Ratio (z) = 0.23032 0.33236
#
# Static dielectric constant tensor:
#      x y z
#    x 1.692140 0.000000 0.000000 
#    y 0.000000 1.670040 0.000000 
#    z 0.000000 0.000000 1.648670 
# 
# From -- ./inp_files/22003.got.cif
#   From: 2010.05.17/outbox.cif.g08.bks.cpg/sg60_12_cif.got.tgz:22003.got - 2010.06.03 14:59:27.
