data_PCOD9456630
_publ_section_title
;
Structure prediction by ZEFSAII (Michael W. Deem and Ramdas Pophale) SiO2 
 PCOD9456630
Probable space group: P B C N
;
_chemical_formula_sum "Si O2"
_cell_formula_units_Z 60
_cell_length_a 10.591702
_cell_length_b 16.245415
_cell_length_c 16.413543
_cell_angle_alpha 90.000000
_cell_angle_beta 90.000000
_cell_angle_gamma 90.000000
_cell_volume 2824.222448
_symmetry_space_group_name_H-M "P B C N"
_symmetry_group_IT_number 60
_symmetry_cell_setting 'orthorhombic'
loop_
_space_group_symop_operation_xyz
x,y,z
1/2-x,1/2-y,1/2+z
1/2+x,1/2-y,-z
-x,y,1/2-z
-x,-y,-z
1/2+x,1/2+y,1/2-z
1/2-x,1/2+y,z
x,-y,1/2+z
loop_
_atom_site_type_symbol
_atom_site_label
_atom_site_fract_x
_atom_site_fract_y
_atom_site_fract_z
Si Si1 0.978366 0.920875 0.942516
Si Si2 0.719926 0.107831 0.519518
Si Si3 0.000000 0.613390 0.750000
Si Si4 0.301489 0.858692 0.118390
Si Si5 0.314226 0.987938 0.839579
Si Si6 0.957223 0.374866 0.543448
Si Si7 0.115857 0.986096 0.206126
Si Si8 0.617298 0.268765 0.491660
O O1 0.958566 0.950719 0.851096
O O2 0.843372 0.883931 0.966711
O O3 0.081905 0.851947 0.962318
O O4 0.000000 0.000000 0.000000
O O5 0.595049 0.083054 0.467996
O O6 0.677985 0.198639 0.549542
O O7 0.746936 0.040690 0.587573
O O8 0.096985 0.660294 0.689701
O O9 0.082928 0.551711 0.804804
O O10 0.213331 0.787404 0.081608
O O11 0.204661 0.927079 0.152256
O O12 0.378937 0.888592 0.039235
O O13 0.382814 0.910431 0.880213
O O14 0.211746 0.972820 0.770109
O O15 0.994706 0.278313 0.544275
O O16 0.000000 0.938664 0.250000
#
# Coordination Sequence:
#
# PCOD9456630 Si02
#       8
#     8   8   4   8   8   8   8   8
#     4  12  23  44  72  99 137 191 239 295 348 438
#     4  10  23  40  71 104 132 176 250 285 354 425
#     4  10  22  36  66 100 140 172 228 274 368 418
#     4  11  21  43  67 103 132 189 225 297 346 427
#     4  11  22  38  69 101 134 182 230 302 349 430
#     4  10  23  40  71 102 131 178 251 291 352 424
#     4  11  26  41  69 101 141 181 238 288 371 435
#     4  10  24  39  75  96 141 175 251 296 352 415
#
# _framework density 21.244786999999999
#
# number of rings (size 3 to 8) (size 9 to 14) (size 15 to 20)
#    0.800    0.533    2.667    2.800    5.600    0.000 
#    0.000    0.000   26.400    0.000    0.000    0.000 
#    0.000    0.000    0.000    0.000    0.000    0.000 
#
# Total GULP energy -334706.541444 kJ/mol
# GULP energy per Si atom -5578.442357 kJ/mol
# Density = 2.119643 g / cm^3
# Si number density = 21.244787 Si / 1000 Ang^3
#
#
#
# Elastic Constant Matrix: (Units=GPa)
#
#
# Indices 1 2 3 4 5 6 
#
# 1 117.2177 30.3680 45.5234 0.0000 0.0000 0.0000
# 2 30.3680 97.6586 27.4404 0.0000 0.0000 0.0000
# 3 45.5234 27.4404 74.3324 0.0000 0.0000 0.0000
# 4 0.0000 0.0000 0.0000 -14.7702 0.0000 0.0000
# 5 0.0000 0.0000 0.0000 0.0000 43.2610 0.0000
# 6 0.0000 0.0000 0.0000 0.0000 0.0000 13.9348
#
#
#
# Elastic Compliance Matrix: (Units=1/GPa)
#
#
# Indices 1 2 3 4 5 6 
#
# 1 0.011463 -0.001776 -0.006365 0.000000 0.000000 0.000000
# 2 -0.001776 0.011700 -0.003231 0.000000 0.000000 0.000000
# 3 -0.006365 -0.003231 0.018544 0.000000 0.000000 0.000000
# 4 0.000000 0.000000 0.000000 -0.067704 0.000000 0.000000
# 5 0.000000 0.000000 0.000000 0.000000 0.023116 0.000000
# 6 0.000000 0.000000 0.000000 0.000000 0.000000 0.071763
#
#
# Mechanical properties :
#
#
# Convention : Reuss Voigt Hill
#
# Bulk Modulus (GPa) = 52.73546 55.09693 53.91620
# Shear Modulus (GPa) = 51.04807 20.87690 35.96249
#
# Velocity S-wave (km/s) = 4.90721 3.13818 4.11879
# Velocity P-wave (km/s) = 7.54879 6.25472 6.93202
#
# Compressibility (1/GPa) = 0.01896257
#
# Stress axis : x y z
#
# Youngs Moduli (GPa) = 87.23630 85.46972 53.92616
#
# Poissons Ratio (x) = 0.15181 0.34322
# Poissons Ratio (y) = 0.15495 0.17426
# Poissons Ratio (z) = 0.55523 0.27618
#
# Static dielectric constant tensor:
#      x y z
#    x 1.913180 0.000000 0.000000 
#    y 0.000000 1.791440 0.000000 
#    z 0.000000 0.000000 1.819410 
# 
# From -- ./inp_files/16361.got.cif
#   From: 2010.05.17/outbox.cif.g08.bks.cpg/sg60_9_cif.got.tgz:16361.got - 2010.06.03 14:59:27.
