data_PCOD9456515
_publ_section_title
;
Structure prediction by ZEFSAII (Michael W. Deem and Ramdas Pophale) SiO2 
 PCOD9456515
Probable space group: P B C N
;
_chemical_formula_sum "Si O2"
_cell_formula_units_Z 36
_cell_length_a 12.894805
_cell_length_b 8.683515
_cell_length_c 14.196661
_cell_angle_alpha 90.000000
_cell_angle_beta 90.000000
_cell_angle_gamma 90.000000
_cell_volume 1589.631828
_symmetry_space_group_name_H-M "P B C N"
_symmetry_group_IT_number 60
_symmetry_cell_setting 'orthorhombic'
loop_
_space_group_symop_operation_xyz
x,y,z
1/2-x,1/2-y,1/2+z
1/2+x,1/2-y,-z
-x,y,1/2-z
-x,-y,-z
1/2+x,1/2+y,1/2-z
1/2-x,1/2+y,z
x,-y,1/2+z
loop_
_atom_site_type_symbol
_atom_site_label
_atom_site_fract_x
_atom_site_fract_y
_atom_site_fract_z
Si Si1 0.047330 0.371358 0.896789
Si Si2 0.500000 0.607824 0.750000
Si Si3 0.244254 0.820677 0.010229
Si Si4 0.871259 0.086684 0.381544
Si Si5 0.063243 0.694691 0.920295
O O1 0.041698 0.544730 0.857262
O O2 0.040663 0.225505 0.829553
O O3 0.150158 0.370921 0.960329
O O4 0.954377 0.353007 0.970593
O O5 0.595585 0.502439 0.786599
O O6 0.283352 0.716798 0.099250
O O7 0.169610 0.955129 0.047641
O O8 0.181635 0.742637 0.924345
O O9 0.980344 0.170993 0.404086
#
# Coordination Sequence:
#
# PCOD9456515 Si02
#       5
#     8   4   8   8   8
#     4  10  23  41  71  99 136 183 237 285 354 413
#     4  12  26  46  64 112 152 178 218 324 366 400
#     4  11  21  44  71 100 130 190 244 274 333 455
#     4  11  25  42  71 103 145 179 236 292 360 415
#     4  10  21  43  72  94 133 196 240 279 333 444
#
# _framework density 22.646754000000001
#
# number of rings (size 3 to 8) (size 9 to 14) (size 15 to 20)
#    0.000    1.333    4.444    0.667    3.111    0.889 
#    8.000    0.000    0.000    0.000    0.000    0.000 
#    0.000    0.000    0.000    0.000    0.000    0.000 
#
# Total GULP energy -200539.884012 kJ/mol
# GULP energy per Si atom -5570.552334 kJ/mol
# Density = 2.259521 g / cm^3
# Si number density = 22.646754 Si / 1000 Ang^3
#
#
#
# Elastic Constant Matrix: (Units=GPa)
#
#
# Indices 1 2 3 4 5 6 
#
# 1 86.1190 45.0371 12.0804 0.0000 0.0000 0.0000
# 2 45.0371 132.3149 37.6503 0.0000 0.0000 0.0000
# 3 12.0804 37.6503 49.5840 0.0000 0.0000 0.0000
# 4 0.0000 0.0000 0.0000 17.1935 0.0000 0.0000
# 5 0.0000 0.0000 0.0000 0.0000 25.6196 0.0000
# 6 0.0000 0.0000 0.0000 0.0000 0.0000 3.4955
#
#
#
# Elastic Compliance Matrix: (Units=1/GPa)
#
#
# Indices 1 2 3 4 5 6 
#
# 1 0.014129 -0.004885 0.000267 0.000000 0.000000 0.000000
# 2 -0.004885 0.011330 -0.007413 0.000000 0.000000 0.000000
# 3 0.000267 -0.007413 0.025731 0.000000 0.000000 0.000000
# 4 0.000000 0.000000 0.000000 0.058161 0.000000 0.000000
# 5 0.000000 0.000000 0.000000 0.000000 0.039033 0.000000
# 6 0.000000 0.000000 0.000000 0.000000 0.000000 0.286084
#
#
# Mechanical properties :
#
#
# Convention : Reuss Voigt Hill
#
# Bulk Modulus (GPa) = 36.86150 50.83930 43.85040
# Shear Modulus (GPa) = 10.69351 20.81172 15.75262
#
# Velocity S-wave (km/s) = 2.17534 3.03474 2.64025
# Velocity P-wave (km/s) = 4.75621 5.89721 5.35718
#
# Compressibility (1/GPa) = 0.02712857
#
# Stress axis : x y z
#
# Youngs Moduli (GPa) = 70.77541 88.26198 38.86297
#
# Poissons Ratio (x) = 0.43119 -0.01038
# Poissons Ratio (y) = 0.34576 0.28808
# Poissons Ratio (z) = -0.01891 0.65427
#
# Static dielectric constant tensor:
#      x y z
#    x 1.834680 0.000000 0.000000 
#    y 0.000000 1.983360 0.000000 
#    z 0.000000 0.000000 1.853990 
# 
# From -- ./inp_files/16568.got.cif
#   From: 2010.05.17/outbox.cif.g08.bks.cpg/sg60_9_cif.got.tgz:16568.got - 2010.06.03 14:59:27.
