data_PCOD9456498
_publ_section_title
;
Structure prediction by ZEFSAII (Michael W. Deem and Ramdas Pophale) SiO2 
 PCOD9456498
Probable space group: P B C N
;
_chemical_formula_sum "Si O2"
_cell_formula_units_Z 28
_cell_length_a 13.251963
_cell_length_b 17.027661
_cell_length_c 5.065291
_cell_angle_alpha 90.000000
_cell_angle_beta 90.000000
_cell_angle_gamma 90.000000
_cell_volume 1142.982578
_symmetry_space_group_name_H-M "P B C N"
_symmetry_group_IT_number 60
_symmetry_cell_setting 'orthorhombic'
loop_
_space_group_symop_operation_xyz
x,y,z
1/2-x,1/2-y,1/2+z
1/2+x,1/2-y,-z
-x,y,1/2-z
-x,-y,-z
1/2+x,1/2+y,1/2-z
1/2-x,1/2+y,z
x,-y,1/2+z
loop_
_atom_site_type_symbol
_atom_site_label
_atom_site_fract_x
_atom_site_fract_y
_atom_site_fract_z
Si Si1 0.679302 0.770734 0.992015
Si Si2 0.647851 0.048270 0.434974
Si Si3 0.000000 0.173208 0.750000
Si Si4 0.890183 0.045145 0.413764
O O1 0.738968 0.743835 0.255436
O O2 0.635674 0.859900 0.999673
O O3 0.580629 0.720329 0.923487
O O4 0.769618 0.045998 0.421750
O O5 0.612589 0.013367 0.156424
O O6 0.930868 0.121938 0.554042
O O7 0.916307 0.027339 0.111040
#
# Coordination Sequence:
#
# PCOD9456498 Si02
#       4
#     8   8   4   8
#     4  12  27  46  69 103 143 180 230 286 344 411
#     4  10  21  43  68  96 134 184 225 279 337 406
#     4  12  26  44  70 102 142 180 228 282 352 404
#     4  10  22  39  65 102 135 172 215 280 353 424
#
# _framework density 24.497312000000001
#
# number of rings (size 3 to 8) (size 9 to 14) (size 15 to 20)
#    0.000    1.143    2.857    2.571    8.000    3.429 
#    0.000    1.429    0.000    0.000    0.000    0.000 
#    0.000    0.000    0.000    0.000    0.000    0.000 
#
# Total GULP energy -156736.112919 kJ/mol
# GULP energy per Si atom -5597.718319 kJ/mol
# Density = 2.444156 g / cm^3
# Si number density = 24.497312 Si / 1000 Ang^3
#
#
#
# Elastic Constant Matrix: (Units=GPa)
#
#
# Indices 1 2 3 4 5 6 
#
# 1 54.9013 -16.4210 11.1903 0.0000 0.0000 0.0000
# 2 -16.4210 110.6578 10.0283 0.0000 0.0000 0.0000
# 3 11.1903 10.0283 109.3903 0.0000 0.0000 0.0000
# 4 0.0000 0.0000 0.0000 13.2814 0.0000 0.0000
# 5 0.0000 0.0000 0.0000 0.0000 25.1498 0.0000
# 6 0.0000 0.0000 0.0000 0.0000 0.0000 42.7717
#
#
#
# Elastic Compliance Matrix: (Units=1/GPa)
#
#
# Indices 1 2 3 4 5 6 
#
# 1 0.019614 0.003118 -0.002292 0.000000 0.000000 0.000000
# 2 0.003118 0.009608 -0.001200 0.000000 0.000000 0.000000
# 3 -0.002292 -0.001200 0.009486 0.000000 0.000000 0.000000
# 4 0.000000 0.000000 0.000000 0.075293 0.000000 0.000000
# 5 0.000000 0.000000 0.000000 0.000000 0.039762 0.000000
# 6 0.000000 0.000000 0.000000 0.000000 0.000000 0.023380
#
#
# Mechanical properties :
#
#
# Convention : Reuss Voigt Hill
#
# Bulk Modulus (GPa) = 26.34260 31.61605 28.97932
# Shear Modulus (GPa) = 26.24048 34.25071 30.24560
#
# Velocity S-wave (km/s) = 3.27640 3.74323 3.51757
# Velocity P-wave (km/s) = 5.00896 5.62284 5.32475
#
# Compressibility (1/GPa) = 0.03796133
#
# Stress axis : x y z
#
# Youngs Moduli (GPa) = 50.98279 104.07605 105.41771
#
# Poissons Ratio (x) = -0.32455 0.24166
# Poissons Ratio (y) = -0.15899 0.12648
# Poissons Ratio (z) = 0.11687 0.12487
#
# Static dielectric constant tensor:
#      x y z
#    x 2.052480 0.000000 0.000000 
#    y 0.000000 1.968050 0.000000 
#    z 0.000000 0.000000 1.909830 
# 
# From -- ./inp_files/1003.got.cif
#   From: 2010.05.17/outbox.cif.g08.bks.cpg/sg60_1_cif.got.tgz:1003.got - 2010.06.03 14:59:27.
