data_PCOD9456990
_publ_section_title
;
Structure prediction by ZEFSAII (Michael W. Deem and Ramdas Pophale) SiO2 
 PCOD9456990
Probable space group: P B C N
;
_chemical_formula_sum "Si O2"
_cell_formula_units_Z 44
_cell_length_a 7.628911
_cell_length_b 14.334684
_cell_length_c 16.660932
_cell_angle_alpha 90.000000
_cell_angle_beta 90.000000
_cell_angle_gamma 90.000000
_cell_volume 1822.006676
_symmetry_space_group_name_H-M "P B C N"
_symmetry_group_IT_number 60
_symmetry_cell_setting 'orthorhombic'
loop_
_space_group_symop_operation_xyz
x,y,z
1/2-x,1/2-y,1/2+z
1/2+x,1/2-y,-z
-x,y,1/2-z
-x,-y,-z
1/2+x,1/2+y,1/2-z
1/2-x,1/2+y,z
x,-y,1/2+z
loop_
_atom_site_type_symbol
_atom_site_label
_atom_site_fract_x
_atom_site_fract_y
_atom_site_fract_z
Si Si1 0.400525 0.212913 0.976144
Si Si2 0.336024 0.081915 0.612424
Si Si3 0.500000 0.953157 0.750000
Si Si4 0.148072 0.698139 0.371391
Si Si5 0.190036 0.037610 0.978735
Si Si6 0.053334 0.897979 0.332623
O O1 0.529368 0.162347 0.912422
O O2 0.321590 0.302092 0.928803
O O3 0.229728 0.146840 0.991909
O O4 0.495915 0.207704 0.061439
O O5 0.136944 0.115918 0.626007
O O6 0.395397 0.020461 0.688382
O O7 0.324130 0.017380 0.533149
O O8 0.389813 0.882888 0.808039
O O9 0.143350 0.797052 0.323817
O O10 0.184272 0.037280 0.882719
O O11 0.000000 0.000000 0.000000
O O12 0.000000 0.943063 0.250000
#
# Coordination Sequence:
#
# PCOD9456990 Si02
#       6
#     8   8   4   8   8   8
#     4  11  23  44  69  93 132 186 227 274 354 431
#     4  11  24  41  69  99 135 179 231 282 355 419
#     4  12  26  40  70 100 140 168 232 302 344 406
#     4  11  24  44  68  98 136 180 232 287 348 426
#     4   9  20  39  63  96 125 172 226 275 334 421
#     4  10  22  41  69  94 138 176 223 287 352 409
#
# _framework density 24.149197999999998
#
# number of rings (size 3 to 8) (size 9 to 14) (size 15 to 20)
#    0.000    1.455    2.727    1.636    5.091    0.000 
#    0.000    0.000    0.000    0.000    0.000    0.000 
#    0.000    0.000    0.000    0.000    0.000    0.000 
#
# Total GULP energy -245521.015630 kJ/mol
# GULP energy per Si atom -5580.023083 kJ/mol
# Density = 2.409423 g / cm^3
# Si number density = 24.149198 Si / 1000 Ang^3
#
#
#
# Elastic Constant Matrix: (Units=GPa)
#
#
# Indices 1 2 3 4 5 6 
#
# 1 80.6812 23.3785 34.1855 0.0000 0.0000 0.0000
# 2 23.3785 83.8066 44.0616 0.0000 0.0000 0.0000
# 3 34.1855 44.0616 162.9035 0.0000 0.0000 0.0000
# 4 0.0000 0.0000 0.0000 38.8935 0.0000 0.0000
# 5 0.0000 0.0000 0.0000 0.0000 45.4251 0.0000
# 6 0.0000 0.0000 0.0000 0.0000 0.0000 41.9458
#
#
#
# Elastic Compliance Matrix: (Units=1/GPa)
#
#
# Indices 1 2 3 4 5 6 
#
# 1 0.014138 -0.002779 -0.002215 0.000000 0.000000 0.000000
# 2 -0.002779 0.014457 -0.003327 0.000000 0.000000 0.000000
# 3 -0.002215 -0.003327 0.007503 0.000000 0.000000 0.000000
# 4 0.000000 0.000000 0.000000 0.025711 0.000000 0.000000
# 5 0.000000 0.000000 0.000000 0.000000 0.022014 0.000000
# 6 0.000000 0.000000 0.000000 0.000000 0.000000 0.023840
#
#
# Mechanical properties :
#
#
# Convention : Reuss Voigt Hill
#
# Bulk Modulus (GPa) = 51.39959 58.96029 55.17994
# Shear Modulus (GPa) = 38.22849 40.30391 39.26620
#
# Velocity S-wave (km/s) = 3.98303 4.08972 4.03672
# Velocity P-wave (km/s) = 6.51790 6.83879 6.68027
#
# Compressibility (1/GPa) = 0.01945541
#
# Stress axis : x y z
#
# Youngs Moduli (GPa) = 70.72918 69.17198 133.27412
#
# Poissons Ratio (x) = 0.19225 0.29523
# Poissons Ratio (y) = 0.19658 0.44340
# Poissons Ratio (z) = 0.15668 0.23013
#
# Static dielectric constant tensor:
#      x y z
#    x 1.985490 0.000000 0.000000 
#    y 0.000000 1.952830 0.000000 
#    z 0.000000 0.000000 1.987670 
# 
# From -- ./inp_files/14913.got.cif
#   From: 2010.05.17/outbox.cif.g08.bks.cpg/sg60_8_cif.got.tgz:14913.got - 2010.06.03 14:59:27.
