data_PCOD9456940
_publ_section_title
;
Structure prediction by ZEFSAII (Michael W. Deem and Ramdas Pophale) SiO2 
 PCOD9456940
Probable space group: P B C N
;
_chemical_formula_sum "Si O2"
_cell_formula_units_Z 52
_cell_length_a 8.538223
_cell_length_b 19.706043
_cell_length_c 15.531847
_cell_angle_alpha 90.000000
_cell_angle_beta 90.000000
_cell_angle_gamma 90.000000
_cell_volume 2613.304542
_symmetry_space_group_name_H-M "P B C N"
_symmetry_group_IT_number 60
_symmetry_cell_setting 'orthorhombic'
loop_
_space_group_symop_operation_xyz
x,y,z
1/2-x,1/2-y,1/2+z
1/2+x,1/2-y,-z
-x,y,1/2-z
-x,-y,-z
1/2+x,1/2+y,1/2-z
1/2-x,1/2+y,z
x,-y,1/2+z
loop_
_atom_site_type_symbol
_atom_site_label
_atom_site_fract_x
_atom_site_fract_y
_atom_site_fract_z
Si Si1 0.436160 0.190658 0.573725
Si Si2 0.068043 0.949094 0.427427
Si Si3 0.095241 0.177667 0.498801
Si Si4 0.000000 0.004327 0.250000
Si Si5 0.500000 0.737480 0.250000
Si Si6 0.942843 0.461142 0.084344
Si Si7 0.000000 0.451205 0.750000
Si Si8 0.213088 0.124209 0.313122
O O1 0.252693 0.185993 0.553327
O O2 0.516942 0.249059 0.515821
O O3 0.471729 0.217027 0.668450
O O4 0.507799 0.116237 0.569013
O O5 0.252625 0.962502 0.412299
O O6 0.029005 0.873682 0.459421
O O7 0.000000 0.000000 0.500000
O O8 0.980274 0.961779 0.336693
O O9 0.152407 0.142113 0.408805
O O10 0.862960 0.056661 0.227550
O O11 0.648817 0.687705 0.240377
O O12 0.021134 0.495761 0.169309
O O13 0.000000 0.500000 0.000000
O O14 0.890349 0.396356 0.699680
#
# Coordination Sequence:
#
# PCOD9456940 Si02
#       8
#     8   8   8   4   4   8   4   8
#     4  11  24  44  65  95 135 179 232 279 345 409
#     4  12  24  42  67 101 135 178 232 281 348 410
#     4  11  24  45  68  98 138 188 228 280 347 417
#     4  11  22  40  65  99 137 170 220 276 339 400
#     4   9  23  42  68  90 132 182 220 272 340 408
#     4  12  27  41  67 100 135 177 227 292 340 406
#     4  12  23  40  65  99 139 168 226 288 339 398
#     4  10  22  41  65 100 131 180 222 272 340 411
#
# _framework density 19.898178999999999
#
# number of rings (size 3 to 8) (size 9 to 14) (size 15 to 20)
#    0.000    0.923    3.077    3.231    4.308    3.692 
#    0.000    0.000    0.000    0.923    0.000    0.000 
#    0.000    0.000    0.000    0.000    0.000    0.000 
#
# Total GULP energy -289975.745809 kJ/mol
# GULP energy per Si atom -5576.456650 kJ/mol
# Density = 1.985289 g / cm^3
# Si number density = 19.898179 Si / 1000 Ang^3
#
#
#
# Elastic Constant Matrix: (Units=GPa)
#
#
# Indices 1 2 3 4 5 6 
#
# 1 52.9641 29.9863 9.2365 0.0000 0.0000 0.0000
# 2 29.9863 162.9772 74.0491 0.0000 0.0000 0.0000
# 3 9.2365 74.0491 104.3539 0.0000 0.0000 0.0000
# 4 0.0000 0.0000 0.0000 17.0031 0.0000 0.0000
# 5 0.0000 0.0000 0.0000 0.0000 15.2003 0.0000
# 6 0.0000 0.0000 0.0000 0.0000 0.0000 -18.2437
#
#
#
# Elastic Compliance Matrix: (Units=1/GPa)
#
#
# Indices 1 2 3 4 5 6 
#
# 1 0.021198 -0.004498 0.001315 0.000000 0.000000 0.000000
# 2 -0.004498 0.010010 -0.006705 0.000000 0.000000 0.000000
# 3 0.001315 -0.006705 0.014224 0.000000 0.000000 0.000000
# 4 0.000000 0.000000 0.000000 0.058813 0.000000 0.000000
# 5 0.000000 0.000000 0.000000 0.000000 0.065788 0.000000
# 6 0.000000 0.000000 0.000000 0.000000 0.000000 -0.054813
#
#
# Mechanical properties :
#
#
# Convention : Reuss Voigt Hill
#
# Bulk Modulus (GPa) = 38.97545 60.75988 49.86767
# Shear Modulus (GPa) = 34.83204 16.59348 25.71276
#
# Velocity S-wave (km/s) = 4.18845 2.89090 3.59864
# Velocity P-wave (km/s) = 6.55903 6.46102 6.51021
#
# Compressibility (1/GPa) = 0.02565718
#
# Stress axis : x y z
#
# Youngs Moduli (GPa) = 47.17460 99.90306 70.30372
#
# Poissons Ratio (x) = 0.44935 -0.09248
# Poissons Ratio (y) = 0.21219 0.47137
# Poissons Ratio (z) = -0.06205 0.66982
#
# Static dielectric constant tensor:
#      x y z
#    x 0.895250 0.000000 0.000000 
#    y 0.000000 1.698510 0.000000 
#    z 0.000000 0.000000 1.671240 
# 
# From -- ./inp_files/15245.got.cif
#   From: 2010.05.17/outbox.cif.g08.bks.cpg/sg60_8_cif.got.tgz:15245.got - 2010.06.03 14:59:27.
