data_PCOD9456787
_publ_section_title
;
Structure prediction by ZEFSAII (Michael W. Deem and Ramdas Pophale) SiO2 
 PCOD9456787
Probable space group: P B C N
;
_chemical_formula_sum "Si O2"
_cell_formula_units_Z 64
_cell_length_a 18.579811
_cell_length_b 10.187990
_cell_length_c 14.399572
_cell_angle_alpha 90.000000
_cell_angle_beta 90.000000
_cell_angle_gamma 90.000000
_cell_volume 2725.708356
_symmetry_space_group_name_H-M "P B C N"
_symmetry_group_IT_number 60
_symmetry_cell_setting 'orthorhombic'
loop_
_space_group_symop_operation_xyz
x,y,z
1/2-x,1/2-y,1/2+z
1/2+x,1/2-y,-z
-x,y,1/2-z
-x,-y,-z
1/2+x,1/2+y,1/2-z
1/2-x,1/2+y,z
x,-y,1/2+z
loop_
_atom_site_type_symbol
_atom_site_label
_atom_site_fract_x
_atom_site_fract_y
_atom_site_fract_z
Si Si1 0.084138 0.945944 0.749058
Si Si2 0.765930 0.021965 0.030002
Si Si3 0.462672 0.066155 0.652725
Si Si4 0.824225 0.566568 0.369998
Si Si5 0.157410 0.829064 0.365747
Si Si6 0.028196 0.311413 0.955548
Si Si7 0.773151 0.833458 0.722405
Si Si8 0.609128 0.651290 0.914675
O O1 0.108911 0.051159 0.827594
O O2 0.098335 0.032539 0.657021
O O3 0.000000 0.912262 0.750000
O O4 0.140772 0.827238 0.765598
O O5 0.753340 0.083572 0.130471
O O6 0.797568 0.877123 0.045986
O O7 0.830039 0.105646 0.985886
O O8 0.696780 0.002109 0.966448
O O9 0.500000 0.098851 0.750000
O O10 0.461366 0.165294 0.565666
O O11 0.381939 0.024787 0.678588
O O12 0.497557 0.937973 0.600657
O O13 0.752844 0.586013 0.311300
O O14 0.859511 0.710118 0.377883
O O15 0.100588 0.723489 0.400352
O O16 0.218968 0.788239 0.291784
O O17 0.969502 0.194831 0.949514
#
# Coordination Sequence:
#
# PCOD9456787 Si02
#       8
#     8   8   8   8   8   8   8   8
#     4  11  22  41  70 104 133 180 234 284 347 418
#     4  11  25  42  63  99 136 176 228 291 349 420
#     4  10  22  39  66  98 135 180 235 293 348 414
#     4  11  22  39  68  95 135 181 230 293 341 424
#     4  11  22  41  69  96 134 185 230 284 350 431
#     4  10  22  40  66 101 137 182 231 290 357 424
#     4  11  23  41  67 100 134 183 238 288 345 419
#     4  11  22  41  67  99 136 179 233 279 352 426
#
# _framework density 23.480135000000001
#
# number of rings (size 3 to 8) (size 9 to 14) (size 15 to 20)
#    0.000    1.250    3.750    2.250    1.750    2.500 
#    0.000    2.500    0.000    0.000    0.000    3.500 
#    0.000    0.000    0.000    0.000    0.000    0.000 
#
# Total GULP energy -357404.293645 kJ/mol
# GULP energy per Si atom -5584.442088 kJ/mol
# Density = 2.342669 g / cm^3
# Si number density = 23.480135 Si / 1000 Ang^3
#
#
#
# Elastic Constant Matrix: (Units=GPa)
#
#
# Indices 1 2 3 4 5 6 
#
# 1 155.5152 34.5387 15.1736 0.0000 0.0000 0.0000
# 2 34.5387 59.7572 8.5012 0.0000 0.0000 0.0000
# 3 15.1736 8.5012 69.2083 0.0000 0.0000 0.0000
# 4 0.0000 0.0000 0.0000 -26.3390 0.0000 0.0000
# 5 0.0000 0.0000 0.0000 0.0000 29.1544 0.0000
# 6 0.0000 0.0000 0.0000 0.0000 0.0000 22.2895
#
#
#
# Elastic Compliance Matrix: (Units=1/GPa)
#
#
# Indices 1 2 3 4 5 6 
#
# 1 0.007462 -0.004153 -0.001126 0.000000 0.000000 0.000000
# 2 -0.004153 0.019343 -0.001465 0.000000 0.000000 0.000000
# 3 -0.001126 -0.001465 0.014876 0.000000 0.000000 0.000000
# 4 0.000000 0.000000 0.000000 -0.037966 0.000000 0.000000
# 5 0.000000 0.000000 0.000000 0.000000 0.034300 0.000000
# 6 0.000000 0.000000 0.000000 0.000000 0.000000 0.044864
#
#
# Mechanical properties :
#
#
# Convention : Reuss Voigt Hill
#
# Bulk Modulus (GPa) = 35.47008 44.54528 40.00768
# Shear Modulus (GPa) = 47.27409 20.10544 33.68976
#
# Velocity S-wave (km/s) = 4.49192 2.92939 3.79201
# Velocity P-wave (km/s) = 6.48401 5.51855 6.02066
#
# Compressibility (1/GPa) = 0.02819278
#
# Stress axis : x y z
#
# Youngs Moduli (GPa) = 134.00432 51.69764 67.22230
#
# Poissons Ratio (x) = 0.21470 0.07569
# Poissons Ratio (y) = 0.55652 0.09851
# Poissons Ratio (z) = 0.15089 0.07576
#
# Static dielectric constant tensor:
#      x y z
#    x 2.406280 0.000000 0.000000 
#    y 0.000000 1.951920 0.000000 
#    z 0.000000 0.000000 1.892530 
# 
# From -- ./inp_files/17499.got.cif
#   From: 2010.05.17/outbox.cif.g08.bks.cpg/sg60_9_cif.got.tgz:17499.got - 2010.06.03 14:59:27.
