data_PCOD9456643
_publ_section_title
;
Structure prediction by ZEFSAII (Michael W. Deem and Ramdas Pophale) SiO2 
 PCOD9456643
Probable space group: P B C N
;
_chemical_formula_sum "Si O2"
_cell_formula_units_Z 36
_cell_length_a 10.166085
_cell_length_b 24.348821
_cell_length_c 5.979365
_cell_angle_alpha 90.000000
_cell_angle_beta 90.000000
_cell_angle_gamma 90.000000
_cell_volume 1480.085277
_symmetry_space_group_name_H-M "P B C N"
_symmetry_group_IT_number 60
_symmetry_cell_setting 'orthorhombic'
loop_
_space_group_symop_operation_xyz
x,y,z
1/2-x,1/2-y,1/2+z
1/2+x,1/2-y,-z
-x,y,1/2-z
-x,-y,-z
1/2+x,1/2+y,1/2-z
1/2-x,1/2+y,z
x,-y,1/2+z
loop_
_atom_site_type_symbol
_atom_site_label
_atom_site_fract_x
_atom_site_fract_y
_atom_site_fract_z
Si Si1 0.000000 0.030086 0.750000
Si Si2 0.602681 0.719878 0.057377
Si Si3 0.683891 0.181370 0.333747
Si Si4 0.500000 0.913533 0.250000
Si Si5 0.202543 0.127431 0.766953
Si Si6 0.000000 0.584464 0.250000
O O1 0.871305 0.069354 0.742476
O O2 0.000000 0.000000 0.500000
O O3 0.500000 0.710535 0.250000
O O4 0.748418 0.722892 0.163959
O O5 0.578905 0.780011 0.956831
O O6 0.624745 0.667950 0.898114
O O7 0.796403 0.157694 0.495615
O O8 0.622049 0.126427 0.237982
O O9 0.639333 0.881128 0.262916
O O10 0.491357 0.941202 0.499725
#
# Coordination Sequence:
#
# PCOD9456643 Si02
#       6
#     4   8   8   4   8   4
#     4  12  32  55  82 111 152 205 282 339 404 470
#     4  12  25  38  67 104 157 204 260 301 387 488
#     4  11  24  38  62 104 149 201 247 305 380 478
#     4  10  22  42  74 106 134 187 240 307 388 460
#     4  11  25  48  73 108 152 205 254 334 397 464
#     4  10  22  37  60  93 146 184 238 282 354 440
#
# _framework density 24.322924
#
# number of rings (size 3 to 8) (size 9 to 14) (size 15 to 20)
#    0.000    0.889    4.444    1.333   14.000    0.889 
#    0.000    1.111    0.000    0.000    0.000    0.000 
#    0.000    0.000    0.000    0.000    0.000    0.000 
#
# Total GULP energy -200531.325671 kJ/mol
# GULP energy per Si atom -5570.314602 kJ/mol
# Density = 2.426756 g / cm^3
# Si number density = 24.322924 Si / 1000 Ang^3
#
#
#
# Elastic Constant Matrix: (Units=GPa)
#
#
# Indices 1 2 3 4 5 6 
#
# 1 115.6310 37.0969 33.2048 0.0000 0.0000 0.0000
# 2 37.0969 132.1117 68.2204 0.0000 0.0000 0.0000
# 3 33.2048 68.2204 191.8622 0.0000 0.0000 0.0000
# 4 0.0000 0.0000 0.0000 -35.1699 0.0000 0.0000
# 5 0.0000 0.0000 0.0000 0.0000 55.8166 0.0000
# 6 0.0000 0.0000 0.0000 0.0000 0.0000 -29.1712
#
#
#
# Elastic Compliance Matrix: (Units=1/GPa)
#
#
# Indices 1 2 3 4 5 6 
#
# 1 0.009620 -0.002256 -0.000863 0.000000 0.000000 0.000000
# 2 -0.002256 0.009801 -0.003094 0.000000 0.000000 0.000000
# 3 -0.000863 -0.003094 0.006462 0.000000 0.000000 0.000000
# 4 0.000000 0.000000 0.000000 -0.028433 0.000000 0.000000
# 5 0.000000 0.000000 0.000000 0.000000 0.017916 0.000000
# 6 0.000000 0.000000 0.000000 0.000000 0.000000 -0.034280
#
#
# Mechanical properties :
#
#
# Convention : Reuss Voigt Hill
#
# Bulk Modulus (GPa) = 74.31522 79.62771 76.97147
# Shear Modulus (GPa) = -2494.01578 18.36727 -1237.82425
#
# Velocity S-wave (km/s) = -32.05624 2.75097 -22.58356
# Velocity P-wave (km/s) = 36.59941 6.54975 25.46191
#
# Compressibility (1/GPa) = 0.01345619
#
# Stress axis : x y z
#
# Youngs Moduli (GPa) = 103.95416 102.03393 154.75846
#
# Poissons Ratio (x) = 0.23015 0.13352
# Poissons Ratio (y) = 0.23449 0.47889
# Poissons Ratio (z) = 0.08969 0.31574
#
# Static dielectric constant tensor:
#      x y z
#    x 2.053790 0.000000 0.000000 
#    y 0.000000 1.835500 0.000000 
#    z 0.000000 0.000000 2.226380 
# 
# From -- ./inp_files/769.got.cif
#   From: 2010.05.17/outbox.cif.g08.bks.cpg/sg60_1_cif.got.tgz:769.got - 2010.06.03 14:59:27.
