data_PCOD9456246
_publ_section_title
;
Structure prediction by ZEFSAII (Michael W. Deem and Ramdas Pophale) SiO2 
 PCOD9456246
Probable space group: P B C N
;
_chemical_formula_sum "Si O2"
_cell_formula_units_Z 28
_cell_length_a 6.849360
_cell_length_b 14.331541
_cell_length_c 12.548872
_cell_angle_alpha 90.000000
_cell_angle_beta 90.000000
_cell_angle_gamma 90.000000
_cell_volume 1231.820913
_symmetry_space_group_name_H-M "P B C N"
_symmetry_group_IT_number 60
_symmetry_cell_setting 'orthorhombic'
loop_
_space_group_symop_operation_xyz
x,y,z
1/2-x,1/2-y,1/2+z
1/2+x,1/2-y,-z
-x,y,1/2-z
-x,-y,-z
1/2+x,1/2+y,1/2-z
1/2-x,1/2+y,z
x,-y,1/2+z
loop_
_atom_site_type_symbol
_atom_site_label
_atom_site_fract_x
_atom_site_fract_y
_atom_site_fract_z
Si Si1 0.757560 0.318619 0.599018
Si Si2 0.000000 0.065479 0.250000
Si Si3 0.714653 0.546868 0.928036
Si Si4 0.099998 0.376088 0.456525
O O1 0.671546 0.368777 0.702749
O O2 0.639662 0.368149 0.500660
O O3 0.710892 0.209862 0.594881
O O4 0.979155 0.341881 0.563009
O O5 0.083896 0.997699 0.160510
O O6 0.921678 0.585742 0.884802
O O7 0.771985 0.463601 0.009098
#
# Coordination Sequence:
#
# PCOD9456246 Si02
#       4
#     8   4   8   8
#     4  10  21  40  62  89 127 161 209 257 315 380
#     4  12  22  38  64  98 120 166 216 256 316 380
#     4   9  22  42  61  89 127 166 205 264 314 375
#     4   9  20  44  63  83 128 173 201 262 325 367
#
# _framework density 22.730575999999999
#
# number of rings (size 3 to 8) (size 9 to 14) (size 15 to 20)
#    1.714    0.571    0.000    2.571    0.000    1.143 
#   10.286    0.000    0.000    0.000    0.000    0.000 
#    0.000    0.000    0.000    0.000    0.000    0.000 
#
# Total GULP energy -156118.748100 kJ/mol
# GULP energy per Si atom -5575.669575 kJ/mol
# Density = 2.267884 g / cm^3
# Si number density = 22.730576 Si / 1000 Ang^3
#
#
#
# Elastic Constant Matrix: (Units=GPa)
#
#
# Indices 1 2 3 4 5 6 
#
# 1 35.8089 2.6277 5.4534 0.0000 0.0000 0.0000
# 2 2.6277 125.4733 2.2899 0.0000 0.0000 0.0000
# 3 5.4534 2.2899 32.3773 0.0000 0.0000 0.0000
# 4 0.0000 0.0000 0.0000 17.8366 0.0000 0.0000
# 5 0.0000 0.0000 0.0000 0.0000 14.3076 0.0000
# 6 0.0000 0.0000 0.0000 0.0000 0.0000 38.9040
#
#
#
# Elastic Compliance Matrix: (Units=1/GPa)
#
#
# Indices 1 2 3 4 5 6 
#
# 1 0.028694 -0.000513 -0.004797 0.000000 0.000000 0.000000
# 2 -0.000513 0.007989 -0.000479 0.000000 0.000000 0.000000
# 3 -0.004797 -0.000479 0.031728 0.000000 0.000000 0.000000
# 4 0.000000 0.000000 0.000000 0.056065 0.000000 0.000000
# 5 0.000000 0.000000 0.000000 0.000000 0.069893 0.000000
# 6 0.000000 0.000000 0.000000 0.000000 0.000000 0.025704
#
#
# Mechanical properties :
#
#
# Convention : Reuss Voigt Hill
#
# Bulk Modulus (GPa) = 17.59519 23.82240 20.70880
# Shear Modulus (GPa) = 19.95250 26.42886 23.19068
#
# Velocity S-wave (km/s) = 2.96595 3.41354 3.19759
# Velocity P-wave (km/s) = 4.41438 5.10288 4.77107
#
# Compressibility (1/GPa) = 0.05683370
#
# Stress axis : x y z
#
# Youngs Moduli (GPa) = 34.85026 125.16728 31.51826
#
# Poissons Ratio (x) = 0.06426 0.15119
# Poissons Ratio (y) = 0.01789 0.01508
# Poissons Ratio (z) = 0.16717 0.05990
#
# Static dielectric constant tensor:
#      x y z
#    x 1.923490 0.000000 0.000000 
#    y 0.000000 1.792260 0.000000 
#    z 0.000000 0.000000 1.848180 
# 
# From -- ./inp_files/9403.got.cif
#   From: 2010.05.17/outbox.cif.g08.bks.cpg/sg60_5_cif.got.tgz:9403.got - 2010.06.03 14:59:27.
