data_PCOD9456134
_publ_section_title
;
Structure prediction by ZEFSAII (Michael W. Deem and Ramdas Pophale) SiO2 
 PCOD9456134
Probable space group: P B C N
;
_chemical_formula_sum "Si O2"
_cell_formula_units_Z 40
_cell_length_a 29.323146
_cell_length_b 6.759471
_cell_length_c 8.007558
_cell_angle_alpha 90.000000
_cell_angle_beta 90.000000
_cell_angle_gamma 90.000000
_cell_volume 1587.169703
_symmetry_space_group_name_H-M "P B C N"
_symmetry_group_IT_number 60
_symmetry_cell_setting 'orthorhombic'
loop_
_space_group_symop_operation_xyz
x,y,z
1/2-x,1/2-y,1/2+z
1/2+x,1/2-y,-z
-x,y,1/2-z
-x,-y,-z
1/2+x,1/2+y,1/2-z
1/2-x,1/2+y,z
x,-y,1/2+z
loop_
_atom_site_type_symbol
_atom_site_label
_atom_site_fract_x
_atom_site_fract_y
_atom_site_fract_z
Si Si1 0.294125 0.302611 0.078178
Si Si2 0.299813 0.919443 0.930474
Si Si3 0.599593 0.061427 0.069626
Si Si4 0.606577 0.679924 0.898310
Si Si5 0.967454 0.853880 0.894815
O O1 0.245056 0.392686 0.043696
O O2 0.293665 0.195592 0.258346
O O3 0.342747 0.411445 0.082385
O O4 0.300815 0.156010 0.920853
O O5 0.350176 0.880083 0.004018
O O6 0.557259 0.174869 0.988540
O O7 0.594786 0.823493 0.055144
O O8 0.604162 0.152752 0.254177
O O9 0.572622 0.507453 0.848274
O O10 0.000000 0.776500 0.750000
O O11 0.000000 0.000000 0.000000
#
# Coordination Sequence:
#
# PCOD9456134 Si02
#       5
#     8   8   8   8   8
#     4  10  21  39  61  93 128 167 211 259 319 387
#     4  10  21  39  61  93 127 168 211 257 321 384
#     4  10  24  44  67  95 132 172 215 269 327 387
#     4  10  24  44  67  96 131 171 218 268 327 387
#     4  12  26  46  66  99 129 168 224 270 326 387
#
# _framework density 25.202093999999999
#
# number of rings (size 3 to 8) (size 9 to 14) (size 15 to 20)
#    0.000    1.600    2.000    1.200    5.600    3.200 
#    0.000    0.000    0.000    0.000    0.000    0.000 
#    0.000    0.000    0.000    0.000    0.000    0.000 
#
# Total GULP energy -223273.932005 kJ/mol
# GULP energy per Si atom -5581.848300 kJ/mol
# Density = 2.514473 g / cm^3
# Si number density = 25.202094 Si / 1000 Ang^3
#
#
#
# Elastic Constant Matrix: (Units=GPa)
#
#
# Indices 1 2 3 4 5 6 
#
# 1 180.1409 29.8979 27.4614 0.0000 0.0000 0.0000
# 2 29.8979 60.5945 4.5910 0.0000 0.0000 0.0000
# 3 27.4614 4.5910 30.3946 0.0000 0.0000 0.0000
# 4 0.0000 0.0000 0.0000 31.4075 0.0000 0.0000
# 5 0.0000 0.0000 0.0000 0.0000 35.1235 0.0000
# 6 0.0000 0.0000 0.0000 0.0000 0.0000 44.9671
#
#
#
# Elastic Compliance Matrix: (Units=1/GPa)
#
#
# Indices 1 2 3 4 5 6 
#
# 1 0.006932 -0.002980 -0.005813 0.000000 0.000000 0.000000
# 2 -0.002980 0.017975 -0.000023 0.000000 0.000000 0.000000
# 3 -0.005813 -0.000023 0.038156 0.000000 0.000000 0.000000
# 4 0.000000 0.000000 0.000000 0.031840 0.000000 0.000000
# 5 0.000000 0.000000 0.000000 0.000000 0.028471 0.000000
# 6 0.000000 0.000000 0.000000 0.000000 0.000000 0.022238
#
#
# Mechanical properties :
#
#
# Convention : Reuss Voigt Hill
#
# Bulk Modulus (GPa) = 22.01097 43.89230 32.95163
# Shear Modulus (GPa) = 28.02896 36.24495 32.13695
#
# Velocity S-wave (km/s) = 3.33854 3.79644 3.57483
# Velocity P-wave (km/s) = 4.85941 6.05567 5.49022
#
# Compressibility (1/GPa) = 0.04543189
#
# Stress axis : x y z
#
# Youngs Moduli (GPa) = 144.26051 55.63238 26.20828
#
# Poissons Ratio (x) = 0.16578 0.15234
# Poissons Ratio (y) = 0.42987 0.00060
# Poissons Ratio (z) = 0.83856 0.00127
#
# Static dielectric constant tensor:
#      x y z
#    x 2.023050 0.000000 0.000000 
#    y 0.000000 2.037680 0.000000 
#    z 0.000000 0.000000 2.075680 
# 
# From -- ./inp_files/7728.got.cif
#   From: 2010.05.17/outbox.cif.g08.bks.cpg/sg60_4_cif.got.tgz:7728.got - 2010.06.03 14:59:27.
