data_PCOD9456752
_publ_section_title
;
Structure prediction by ZEFSAII (Michael W. Deem and Ramdas Pophale) SiO2 
 PCOD9456752
Probable space group: P B C N
;
_chemical_formula_sum "Si O2"
_cell_formula_units_Z 56
_cell_length_a 17.848501
_cell_length_b 13.387377
_cell_length_c 9.111207
_cell_angle_alpha 90.000000
_cell_angle_beta 90.000000
_cell_angle_gamma 90.000000
_cell_volume 2177.073819
_symmetry_space_group_name_H-M "P B C N"
_symmetry_group_IT_number 60
_symmetry_cell_setting 'orthorhombic'
loop_
_space_group_symop_operation_xyz
x,y,z
1/2-x,1/2-y,1/2+z
1/2+x,1/2-y,-z
-x,y,1/2-z
-x,-y,-z
1/2+x,1/2+y,1/2-z
1/2-x,1/2+y,z
x,-y,1/2+z
loop_
_atom_site_type_symbol
_atom_site_label
_atom_site_fract_x
_atom_site_fract_y
_atom_site_fract_z
Si Si1 0.152338 0.953193 0.065826
Si Si2 0.911202 0.506719 0.271354
Si Si3 0.397001 0.597985 0.864500
Si Si4 0.837857 0.300883 0.639864
Si Si5 0.474702 0.331721 0.918456
Si Si6 0.252465 0.265642 0.113056
Si Si7 0.616371 0.140459 0.543473
O O1 0.105789 0.966939 0.216226
O O2 0.220699 0.881749 0.108529
O O3 0.100719 0.892360 0.952675
O O4 0.166765 0.053487 0.973939
O O5 0.876334 0.596886 0.175513
O O6 0.875838 0.405710 0.205666
O O7 0.897007 0.546947 0.434744
O O8 0.000000 0.498292 0.250000
O O9 0.384969 0.708431 0.798175
O O10 0.466881 0.615147 0.971076
O O11 0.759876 0.287335 0.729535
O O12 0.824989 0.271503 0.472434
O O13 0.500000 0.335266 0.750000
O O14 0.453824 0.217113 0.958590
O O15 0.312736 0.200016 0.020306
#
# Coordination Sequence:
#
# PCOD9456752 Si02
#       7
#     8   8   8   8   8   8   8
#     4  10  22  39  61  88 122 157 202 259 308 382
#     4  11  22  40  63  94 127 167 214 261 319 379
#     4  11  22  39  61  89 119 161 203 252 317 368
#     4  10  23  40  64  87 124 169 208 266 316 384
#     4  11  22  38  60  90 123 159 200 251 309 370
#     4   9  22  42  59  88 121 161 213 255 321 377
#     4  10  23  40  62  90 126 164 206 260 308 378
#
# _framework density 25.7226
#
# number of rings (size 3 to 8) (size 9 to 14) (size 15 to 20)
#    0.000    1.714    0.000    4.286    0.000    6.857 
#    0.000    5.714    0.000    0.000    0.000    0.000 
#    0.000    0.000    0.000    0.000    0.000    0.000 
#
# Total GULP energy -312853.849395 kJ/mol
# GULP energy per Si atom -5586.675882 kJ/mol
# Density = 2.566405 g / cm^3
# Si number density = 25.722600 Si / 1000 Ang^3
#
#
#
# Elastic Constant Matrix: (Units=GPa)
#
#
# Indices 1 2 3 4 5 6 
#
# 1 21.4828 -2.3363 19.8596 0.0000 0.0000 0.0000
# 2 -2.3363 104.2441 52.0761 0.0000 0.0000 0.0000
# 3 19.8596 52.0761 150.8090 0.0000 0.0000 0.0000
# 4 0.0000 0.0000 0.0000 43.1498 0.0000 0.0000
# 5 0.0000 0.0000 0.0000 0.0000 32.0142 0.0000
# 6 0.0000 0.0000 0.0000 0.0000 0.0000 14.4096
#
#
#
# Elastic Compliance Matrix: (Units=1/GPa)
#
#
# Indices 1 2 3 4 5 6 
#
# 1 0.055904 0.005959 -0.009419 0.000000 0.000000 0.000000
# 2 0.005959 0.012228 -0.005007 0.000000 0.000000 0.000000
# 3 -0.009419 -0.005007 0.009600 0.000000 0.000000 0.000000
# 4 0.000000 0.000000 0.000000 0.023175 0.000000 0.000000
# 5 0.000000 0.000000 0.000000 0.000000 0.031236 0.000000
# 6 0.000000 0.000000 0.000000 0.000000 0.000000 0.069398
#
#
# Mechanical properties :
#
#
# Convention : Reuss Voigt Hill
#
# Bulk Modulus (GPa) = 16.44828 46.19272 31.32050
# Shear Modulus (GPa) = 20.94297 31.71048 26.32673
#
# Velocity S-wave (km/s) = 2.85649 3.51492 3.20267
# Velocity P-wave (km/s) = 4.15785 5.87110 5.08712
#
# Compressibility (1/GPa) = 0.06079662
#
# Stress axis : x y z
#
# Youngs Moduli (GPa) = 17.88765 81.78137 104.16339
#
# Poissons Ratio (x) = -0.48729 0.98116
# Poissons Ratio (y) = -0.10658 0.52155
# Poissons Ratio (z) = 0.16849 0.40948
#
# Static dielectric constant tensor:
#      x y z
#    x 2.051500 0.000000 0.000000 
#    y 0.000000 2.074800 0.000000 
#    z 0.000000 0.000000 2.121530 
# 
# From -- ./inp_files/7440.got.cif
#   From: 2010.05.17/outbox.cif.g08.bks.cpg/sg60_4_cif.got.tgz:7440.got - 2010.06.03 14:59:27.
