data_PCOD9456210
_publ_section_title
;
Structure prediction by ZEFSAII (Michael W. Deem and Ramdas Pophale) SiO2 
 PCOD9456210
Probable space group: P B C N
;
_chemical_formula_sum "Si O2"
_cell_formula_units_Z 40
_cell_length_a 15.016353
_cell_length_b 8.557253
_cell_length_c 15.816103
_cell_angle_alpha 90.000000
_cell_angle_beta 90.000000
_cell_angle_gamma 90.000000
_cell_volume 2032.349177
_symmetry_space_group_name_H-M "P B C N"
_symmetry_group_IT_number 60
_symmetry_cell_setting 'orthorhombic'
loop_
_space_group_symop_operation_xyz
x,y,z
1/2-x,1/2-y,1/2+z
1/2+x,1/2-y,-z
-x,y,1/2-z
-x,-y,-z
1/2+x,1/2+y,1/2-z
1/2-x,1/2+y,z
x,-y,1/2+z
loop_
_atom_site_type_symbol
_atom_site_label
_atom_site_fract_x
_atom_site_fract_y
_atom_site_fract_z
Si Si1 0.365407 0.248803 0.706003
Si Si2 0.965775 0.337409 0.960055
Si Si3 0.579642 0.692041 0.682960
Si Si4 0.180751 0.611733 0.178814
Si Si5 0.556555 0.345219 0.629926
O O1 0.285465 0.357543 0.674216
O O2 0.456263 0.315193 0.665039
O O3 0.380915 0.248232 0.806833
O O4 0.343528 0.070231 0.685411
O O5 0.876939 0.339026 0.902604
O O6 0.043543 0.291271 0.895073
O O7 0.947772 0.214678 0.034773
O O8 0.000000 0.500000 0.000000
O O9 0.500000 0.670700 0.750000
O O10 0.651032 0.785980 0.738986
O O11 0.593205 0.519864 0.644915
#
# Coordination Sequence:
#
# PCOD9456210 Si02
#       5
#     8   8   8   8   8
#     4  11  23  41  67  92 132 173 218 269 329 399
#     4  11  22  40  66  96 129 172 221 275 329 393
#     4  10  21  39  68  91 128 172 215 266 332 397
#     4  11  24  42  66  96 134 173 225 274 335 395
#     4  11  22  43  67  95 129 171 224 268 337 396
#
# _framework density 19.681659
#
# number of rings (size 3 to 8) (size 9 to 14) (size 15 to 20)
#    0.000    1.200    4.000    3.000    8.400    0.000 
#    3.600    0.000    0.000    0.000    0.000    0.000 
#    0.000    0.000    0.000    0.000    0.000    0.000 
#
# Total GULP energy -223109.211274 kJ/mol
# GULP energy per Si atom -5577.730282 kJ/mol
# Density = 1.963686 g / cm^3
# Si number density = 19.681659 Si / 1000 Ang^3
#
#
#
# Elastic Constant Matrix: (Units=GPa)
#
#
# Indices 1 2 3 4 5 6 
#
# 1 90.9918 18.3878 28.9265 0.0000 0.0000 0.0000
# 2 18.3878 92.3592 37.9573 0.0000 0.0000 0.0000
# 3 28.9265 37.9573 137.5960 0.0000 0.0000 0.0000
# 4 0.0000 0.0000 0.0000 42.7032 0.0000 0.0000
# 5 0.0000 0.0000 0.0000 0.0000 14.3050 0.0000
# 6 0.0000 0.0000 0.0000 0.0000 0.0000 25.5257
#
#
#
# Elastic Compliance Matrix: (Units=1/GPa)
#
#
# Indices 1 2 3 4 5 6 
#
# 1 0.011963 -0.001521 -0.002096 0.000000 0.000000 0.000000
# 2 -0.001521 0.012405 -0.003102 0.000000 0.000000 0.000000
# 3 -0.002096 -0.003102 0.008564 0.000000 0.000000 0.000000
# 4 0.000000 0.000000 0.000000 0.023417 0.000000 0.000000
# 5 0.000000 0.000000 0.000000 0.000000 0.069906 0.000000
# 6 0.000000 0.000000 0.000000 0.000000 0.000000 0.039176
#
#
# Mechanical properties :
#
#
# Convention : Reuss Voigt Hill
#
# Bulk Modulus (GPa) = 51.29409 54.61003 52.95206
# Shear Modulus (GPa) = 26.97344 32.21846 29.59595
#
# Velocity S-wave (km/s) = 3.70602 4.05035 3.88201
# Velocity P-wave (km/s) = 6.66568 7.04845 6.85973
#
# Compressibility (1/GPa) = 0.01949542
#
# Stress axis : x y z
#
# Youngs Moduli (GPa) = 83.58771 80.61251 116.76742
#
# Poissons Ratio (x) = 0.12258 0.24470
# Poissons Ratio (y) = 0.12710 0.36226
# Poissons Ratio (z) = 0.17517 0.25009
#
# Static dielectric constant tensor:
#      x y z
#    x 1.738030 0.000000 0.000000 
#    y 0.000000 1.748310 0.000000 
#    z 0.000000 0.000000 1.694390 
# 
# From -- ./inp_files/16610.got.cif
#   From: 2010.05.17/outbox.cif.g08.bks.cpg/sg60_9_cif.got.tgz:16610.got - 2010.06.03 14:59:27.
