data_PCOD9456763
_publ_section_title
;
Structure prediction by ZEFSAII (Michael W. Deem and Ramdas Pophale) SiO2 
 PCOD9456763
Probable space group: P B C N
;
_chemical_formula_sum "Si O2"
_cell_formula_units_Z 64
_cell_length_a 8.009858
_cell_length_b 14.839680
_cell_length_c 22.442571
_cell_angle_alpha 90.000000
_cell_angle_beta 90.000000
_cell_angle_gamma 90.000000
_cell_volume 2667.607690
_symmetry_space_group_name_H-M "P B C N"
_symmetry_group_IT_number 60
_symmetry_cell_setting 'orthorhombic'
loop_
_space_group_symop_operation_xyz
x,y,z
1/2-x,1/2-y,1/2+z
1/2+x,1/2-y,-z
-x,y,1/2-z
-x,-y,-z
1/2+x,1/2+y,1/2-z
1/2-x,1/2+y,z
x,-y,1/2+z
loop_
_atom_site_type_symbol
_atom_site_label
_atom_site_fract_x
_atom_site_fract_y
_atom_site_fract_z
Si Si1 0.022654 0.552557 0.383241
Si Si2 0.386594 0.744901 0.195420
Si Si3 0.808016 0.409957 0.732130
Si Si4 0.489851 0.768734 0.946723
Si Si5 0.417263 0.419236 0.080611
Si Si6 0.399730 0.714679 0.426142
Si Si7 0.249016 0.938675 0.188548
Si Si8 0.212794 0.017928 0.469587
O O1 0.169988 0.590647 0.338866
O O2 0.116560 0.502862 0.436275
O O3 0.946215 0.640708 0.414566
O O4 0.904143 0.487574 0.345474
O O5 0.500000 0.777674 0.250000
O O6 0.296282 0.658500 0.226182
O O7 0.496491 0.725694 0.135687
O O8 0.270248 0.832075 0.188242
O O9 0.746474 0.509750 0.749650
O O10 0.000000 0.393517 0.750000
O O11 0.600855 0.687019 0.923173
O O12 0.295864 0.755110 0.927256
O O13 0.508910 0.765730 0.018475
O O14 0.408897 0.456977 0.146635
O O15 0.589011 0.439845 0.048181
O O16 0.278836 0.467506 0.039867
O O17 0.377019 0.609921 0.445860
#
# Coordination Sequence:
#
# PCOD9456763 Si02
#       8
#     8   8   8   8   8   8   8   8
#     4  10  22  43  67  89 134 172 220 274 336 403
#     4  12  25  44  70  98 133 178 230 275 344 407
#     4  10  24  47  68  94 132 180 219 280 331 396
#     4  10  23  40  66 100 133 179 227 272 355 401
#     4  10  22  39  62  98 132 169 221 278 328 410
#     4  10  23  40  67  99 139 179 225 289 336 418
#     4  11  26  41  66  99 133 170 226 276 338 401
#     4   9  20  40  61  91 134 169 216 274 335 390
#
# _framework density 23.991533
#
# number of rings (size 3 to 8) (size 9 to 14) (size 15 to 20)
#    0.000    1.750    0.000    3.375   10.500    3.500 
#    2.250    0.625    0.000    0.000    0.000    0.000 
#    0.000    0.000    0.000    0.000    0.000    0.000 
#
# Total GULP energy -357161.612271 kJ/mol
# GULP energy per Si atom -5580.650192 kJ/mol
# Density = 2.393693 g / cm^3
# Si number density = 23.991533 Si / 1000 Ang^3
#
#
#
# Elastic Constant Matrix: (Units=GPa)
#
#
# Indices 1 2 3 4 5 6 
#
# 1 29.1838 -13.6610 -7.0021 0.0000 0.0000 0.0000
# 2 -13.6610 55.1861 -2.6495 0.0000 0.0000 0.0000
# 3 -7.0021 -2.6495 82.8082 0.0000 0.0000 0.0000
# 4 0.0000 0.0000 0.0000 22.0476 0.0000 0.0000
# 5 0.0000 0.0000 0.0000 0.0000 43.0159 0.0000
# 6 0.0000 0.0000 0.0000 0.0000 0.0000 18.3128
#
#
#
# Elastic Compliance Matrix: (Units=1/GPa)
#
#
# Indices 1 2 3 4 5 6 
#
# 1 0.039852 0.010042 0.003691 0.000000 0.000000 0.000000
# 2 0.010042 0.020679 0.001511 0.000000 0.000000 0.000000
# 3 0.003691 0.001511 0.012437 0.000000 0.000000 0.000000
# 4 0.000000 0.000000 0.000000 0.045356 0.000000 0.000000
# 5 0.000000 0.000000 0.000000 0.000000 0.023247 0.000000
# 6 0.000000 0.000000 0.000000 0.000000 0.000000 0.054607
#
#
# Mechanical properties :
#
#
# Convention : Reuss Voigt Hill
#
# Bulk Modulus (GPa) = 9.66592 13.39476 11.53034
# Shear Modulus (GPa) = 24.97818 29.37464 27.17641
#
# Velocity S-wave (km/s) = 3.23015 3.50290 3.36929
# Velocity P-wave (km/s) = 4.23668 4.68569 4.46683
#
# Compressibility (1/GPa) = 0.10345624
#
# Stress axis : x y z
#
# Youngs Moduli (GPa) = 25.09281 48.35825 80.40816
#
# Poissons Ratio (x) = -0.48563 -0.29680
# Poissons Ratio (y) = -0.25199 -0.12148
# Poissons Ratio (z) = -0.09262 -0.07306
#
# Static dielectric constant tensor:
#      x y z
#    x 1.996620 0.000000 0.000000 
#    y 0.000000 1.984270 0.000000 
#    z 0.000000 0.000000 2.006250 
# 
# From -- ./inp_files/24100.got.cif
#   From: 2010.05.17/outbox.cif.g08.bks.cpg/sg60_13_cif.got.tgz:24100.got - 2010.06.03 14:59:27.
