data_PCOD9456932
_publ_section_title
;
Structure prediction by ZEFSAII (Michael W. Deem and Ramdas Pophale) SiO2 
 PCOD9456932
Probable space group: P B C N
;
_chemical_formula_sum "Si O2"
_cell_formula_units_Z 28
_cell_length_a 7.753928
_cell_length_b 31.380681
_cell_length_c 5.308108
_cell_angle_alpha 90.000000
_cell_angle_beta 90.000000
_cell_angle_gamma 90.000000
_cell_volume 1291.587635
_symmetry_space_group_name_H-M "P B C N"
_symmetry_group_IT_number 60
_symmetry_cell_setting 'orthorhombic'
loop_
_space_group_symop_operation_xyz
x,y,z
1/2-x,1/2-y,1/2+z
1/2+x,1/2-y,-z
-x,y,1/2-z
-x,-y,-z
1/2+x,1/2+y,1/2-z
1/2-x,1/2+y,z
x,-y,1/2+z
loop_
_atom_site_type_symbol
_atom_site_label
_atom_site_fract_x
_atom_site_fract_y
_atom_site_fract_z
Si Si1 0.657781 0.192150 0.553689
Si Si2 0.608786 0.097514 0.489936
Si Si3 0.000000 0.769614 0.250000
Si Si4 0.297595 0.519849 0.810421
O O1 0.500000 0.188292 0.750000
O O2 0.661169 0.146104 0.421317
O O3 0.851329 0.200598 0.642096
O O4 0.606585 0.235882 0.416653
O O5 0.500000 0.098186 0.750000
O O6 0.762932 0.065852 0.566028
O O7 0.500000 0.082087 0.250000
O O8 0.500000 0.513687 0.750000
O O9 0.224719 0.511378 0.529687
#
# Coordination Sequence:
#
# PCOD9456932 Si02
#       4
#     8   8   4   8
#     4  11  24  40  64  96 130 169 225 274 332 400
#     4  11  24  41  64  96 131 165 217 276 325 393
#     4  12  22  42  66  90 128 180 214 280 338 400
#     4  10  22  41  64  92 129 170 215 265 327 403
#
# _framework density 21.678746
#
# number of rings (size 3 to 8) (size 9 to 14) (size 15 to 20)
#    0.000    1.143    4.286    1.714    2.000    3.429 
#    0.000    0.000    6.286    0.000    0.000    0.000 
#    0.000    0.000    0.000    0.000    0.000    0.000 
#
# Total GULP energy -155889.684760 kJ/mol
# GULP energy per Si atom -5567.488741 kJ/mol
# Density = 2.162940 g / cm^3
# Si number density = 21.678746 Si / 1000 Ang^3
#
#
#
# Elastic Constant Matrix: (Units=GPa)
#
#
# Indices 1 2 3 4 5 6 
#
# 1 107.9380 27.5134 48.1481 0.0000 0.0000 0.0000
# 2 27.5134 105.9225 35.6847 0.0000 0.0000 0.0000
# 3 48.1481 35.6847 122.8432 0.0000 0.0000 0.0000
# 4 0.0000 0.0000 0.0000 59.1660 0.0000 0.0000
# 5 0.0000 0.0000 0.0000 0.0000 32.6215 0.0000
# 6 0.0000 0.0000 0.0000 0.0000 0.0000 35.4640
#
#
#
# Elastic Compliance Matrix: (Units=1/GPa)
#
#
# Indices 1 2 3 4 5 6 
#
# 1 0.011474 -0.001624 -0.004025 0.000000 0.000000 0.000000
# 2 -0.001624 0.010695 -0.002470 0.000000 0.000000 0.000000
# 3 -0.004025 -0.002470 0.010436 0.000000 0.000000 0.000000
# 4 0.000000 0.000000 0.000000 0.016902 0.000000 0.000000
# 5 0.000000 0.000000 0.000000 0.000000 0.030655 0.000000
# 6 0.000000 0.000000 0.000000 0.000000 0.000000 0.028198
#
#
# Mechanical properties :
#
#
# Convention : Reuss Voigt Hill
#
# Bulk Modulus (GPa) = 61.10527 62.15512 61.63020
# Shear Modulus (GPa) = 38.44567 40.47414 39.45990
#
# Velocity S-wave (km/s) = 4.21578 4.32556 4.27102
# Velocity P-wave (km/s) = 7.20728 7.32670 7.26724
#
# Compressibility (1/GPa) = 0.01636520
#
# Stress axis : x y z
#
# Youngs Moduli (GPa) = 87.15165 93.50205 95.82415
#
# Poissons Ratio (x) = 0.15187 0.38574
# Poissons Ratio (y) = 0.14156 0.23670
# Poissons Ratio (z) = 0.35083 0.23096
#
# Static dielectric constant tensor:
#      x y z
#    x 1.544020 0.000000 0.000000 
#    y 0.000000 1.814830 0.000000 
#    z 0.000000 0.000000 1.496040 
# 
# From -- ./inp_files/295.got.cif
#   From: 2010.05.17/outbox.cif.g08.bks.cpg/sg60_1_cif.got.tgz:295.got - 2010.06.03 14:59:27.
