data_PCOD9456391
_publ_section_title
;
Structure prediction by ZEFSAII (Michael W. Deem and Ramdas Pophale) SiO2 
 PCOD9456391
Probable space group: P B C N
;
_chemical_formula_sum "Si O2"
_cell_formula_units_Z 48
_cell_length_a 10.110965
_cell_length_b 12.606869
_cell_length_c 16.963381
_cell_angle_alpha 90.000000
_cell_angle_beta 90.000000
_cell_angle_gamma 90.000000
_cell_volume 2162.281654
_symmetry_space_group_name_H-M "P B C N"
_symmetry_group_IT_number 60
_symmetry_cell_setting 'orthorhombic'
loop_
_space_group_symop_operation_xyz
x,y,z
1/2-x,1/2-y,1/2+z
1/2+x,1/2-y,-z
-x,y,1/2-z
-x,-y,-z
1/2+x,1/2+y,1/2-z
1/2-x,1/2+y,z
x,-y,1/2+z
loop_
_atom_site_type_symbol
_atom_site_label
_atom_site_fract_x
_atom_site_fract_y
_atom_site_fract_z
Si Si1 0.700578 0.509176 0.937967
Si Si2 0.848831 0.964736 0.759711
Si Si3 0.112988 0.367546 0.948512
Si Si4 0.024261 0.847312 0.505287
Si Si5 0.405677 0.042897 0.824777
Si Si6 0.637194 0.285842 0.647634
O O1 0.708733 0.483714 0.846329
O O2 0.667212 0.402619 0.987690
O O3 0.817631 0.574519 0.977914
O O4 0.570764 0.582392 0.951397
O O5 0.746404 0.019042 0.699670
O O6 0.000000 0.003899 0.750000
O O7 0.850957 0.841613 0.732510
O O8 0.057078 0.459193 0.892546
O O9 0.225612 0.306069 0.897837
O O10 0.020351 0.273360 0.977369
O O11 0.967335 0.850136 0.594215
O O12 0.500000 0.025934 0.750000
O O13 0.407620 0.165388 0.848327
#
# Coordination Sequence:
#
# PCOD9456391 Si02
#       6
#     8   8   8   8   8   8
#     4  10  22  40  69  98 125 176 236 280 327 418
#     4  11  23  43  68  98 128 175 234 273 333 414
#     4  10  23  42  64 100 133 177 227 292 342 406
#     4  10  21  41  67  92 130 172 231 273 339 405
#     4  11  26  45  63  98 143 177 216 288 358 402
#     4  10  22  42  66  92 134 181 219 278 345 410
#
# _framework density 22.198774
#
# number of rings (size 3 to 8) (size 9 to 14) (size 15 to 20)
#    0.000    1.667    1.667    1.500    7.000    0.667 
#   12.000    0.000    0.000    0.000    0.000    0.000 
#    0.000    0.000    0.000    0.000    0.000    0.000 
#
# Total GULP energy -268383.410485 kJ/mol
# GULP energy per Si atom -5591.321052 kJ/mol
# Density = 2.214825 g / cm^3
# Si number density = 22.198774 Si / 1000 Ang^3
#
#
#
# Elastic Constant Matrix: (Units=GPa)
#
#
# Indices 1 2 3 4 5 6 
#
# 1 51.8709 5.1251 5.0427 0.0000 0.0000 0.0000
# 2 5.1251 132.6908 58.8912 0.0000 0.0000 0.0000
# 3 5.0427 58.8912 125.8786 0.0000 0.0000 0.0000
# 4 0.0000 0.0000 0.0000 31.8642 0.0000 0.0000
# 5 0.0000 0.0000 0.0000 0.0000 32.0210 0.0000
# 6 0.0000 0.0000 0.0000 0.0000 0.0000 27.4774
#
#
#
# Elastic Compliance Matrix: (Units=1/GPa)
#
#
# Indices 1 2 3 4 5 6 
#
# 1 0.019381 -0.000510 -0.000538 0.000000 0.000000 0.000000
# 2 -0.000510 0.009525 -0.004436 0.000000 0.000000 0.000000
# 3 -0.000538 -0.004436 0.010041 0.000000 0.000000 0.000000
# 4 0.000000 0.000000 0.000000 0.031383 0.000000 0.000000
# 5 0.000000 0.000000 0.000000 0.000000 0.031229 0.000000
# 6 0.000000 0.000000 0.000000 0.000000 0.000000 0.036393
#
#
# Mechanical properties :
#
#
# Convention : Reuss Voigt Hill
#
# Bulk Modulus (GPa) = 35.73965 49.83980 42.78973
# Shear Modulus (GPa) = 31.59632 34.36463 32.98047
#
# Velocity S-wave (km/s) = 3.77681 3.93878 3.85865
# Velocity P-wave (km/s) = 5.92906 6.57158 6.25857
#
# Compressibility (1/GPa) = 0.02798013
#
# Stress axis : x y z
#
# Youngs Moduli (GPa) = 51.59612 104.99107 99.59313
#
# Poissons Ratio (x) = 0.05353 0.05357
# Poissons Ratio (y) = 0.02631 0.44175
# Poissons Ratio (z) = 0.02775 0.46570
#
# Static dielectric constant tensor:
#      x y z
#    x 1.872000 0.000000 0.000000 
#    y 0.000000 1.801750 0.000000 
#    z 0.000000 0.000000 1.818180 
# 
# From -- ./inp_files/19994.got.cif
#   From: 2010.05.17/outbox.cif.g08.bks.cpg/sg60_10_cif.got.tgz:19994.got - 2010.06.03 14:59:27.
