data_PCOD9456954
_publ_section_title
;
Structure prediction by ZEFSAII (Michael W. Deem and Ramdas Pophale) SiO2 
 PCOD9456954
Probable space group: P B C N
;
_chemical_formula_sum "Si O2"
_cell_formula_units_Z 64
_cell_length_a 11.695601
_cell_length_b 8.002466
_cell_length_c 30.592206
_cell_angle_alpha 90.000000
_cell_angle_beta 90.000000
_cell_angle_gamma 90.000000
_cell_volume 2863.236201
_symmetry_space_group_name_H-M "P B C N"
_symmetry_group_IT_number 60
_symmetry_cell_setting 'orthorhombic'
loop_
_space_group_symop_operation_xyz
x,y,z
1/2-x,1/2-y,1/2+z
1/2+x,1/2-y,-z
-x,y,1/2-z
-x,-y,-z
1/2+x,1/2+y,1/2-z
1/2-x,1/2+y,z
x,-y,1/2+z
loop_
_atom_site_type_symbol
_atom_site_label
_atom_site_fract_x
_atom_site_fract_y
_atom_site_fract_z
Si Si1 0.530323 0.714387 0.677069
Si Si2 0.684848 0.512275 0.116663
Si Si3 0.605323 0.852352 0.147786
Si Si4 0.378678 0.212354 0.602169
Si Si5 0.993587 0.973607 0.448669
Si Si6 0.354192 0.831714 0.737627
Si Si7 0.119708 0.296943 0.250837
Si Si8 0.876366 0.669825 0.401780
O O1 0.606130 0.571088 0.655052
O O2 0.421135 0.693639 0.709347
O O3 0.612523 0.805527 0.711703
O O4 0.467063 0.812542 0.637961
O O5 0.662612 0.706041 0.120043
O O6 0.819540 0.498682 0.126347
O O7 0.620330 0.453061 0.072786
O O8 0.470876 0.819461 0.140788
O O9 0.639142 0.834427 0.198080
O O10 0.433463 0.362334 0.573261
O O11 0.250776 0.273363 0.613423
O O12 0.371452 0.023185 0.582565
O O13 0.920676 0.808654 0.436033
O O14 0.000000 0.000000 0.500000
O O15 0.221375 0.808408 0.731872
O O16 0.388399 0.022059 0.727496
O O17 0.000000 0.205017 0.250000
#
# Coordination Sequence:
#
# PCOD9456954 Si02
#       8
#     8   8   8   8   8   8   8   8
#     4  10  22  41  66  87 133 179 223 280 338 394
#     4  10  23  43  68  96 127 178 217 281 336 409
#     4  11  24  41  66  96 133 171 234 270 338 411
#     4  11  24  43  70 105 134 182 227 271 338 409
#     4  10  24  49  70 105 139 168 227 281 339 416
#     4  11  24  41  60  89 131 171 225 288 338 386
#     4  12  25  40  59  93 127 175 221 285 335 389
#     4  11  23  43  73  96 139 186 224 278 342 400
#
# _framework density 22.352328
#
# number of rings (size 3 to 8) (size 9 to 14) (size 15 to 20)
#    0.000    1.250    3.750    1.500    5.250    1.500 
#    4.500    0.000    0.000    0.000    0.000    0.000 
#    0.000    0.000    0.000    0.000    0.000    0.000 
#
# Total GULP energy -356831.281025 kJ/mol
# GULP energy per Si atom -5575.488766 kJ/mol
# Density = 2.230145 g / cm^3
# Si number density = 22.352328 Si / 1000 Ang^3
#
#
#
# Elastic Constant Matrix: (Units=GPa)
#
#
# Indices 1 2 3 4 5 6 
#
# 1 161.1909 20.4349 26.0595 0.0000 0.0000 0.0000
# 2 20.4349 82.4136 9.6328 0.0000 0.0000 0.0000
# 3 26.0595 9.6328 81.3470 0.0000 0.0000 0.0000
# 4 0.0000 0.0000 0.0000 15.5005 0.0000 0.0000
# 5 0.0000 0.0000 0.0000 0.0000 13.9851 0.0000
# 6 0.0000 0.0000 0.0000 0.0000 0.0000 24.3991
#
#
#
# Elastic Compliance Matrix: (Units=1/GPa)
#
#
# Indices 1 2 3 4 5 6 
#
# 1 0.006705 -0.001431 -0.001978 0.000000 0.000000 0.000000
# 2 -0.001431 0.012610 -0.001035 0.000000 0.000000 0.000000
# 3 -0.001978 -0.001035 0.013049 0.000000 0.000000 0.000000
# 4 0.000000 0.000000 0.000000 0.064514 0.000000 0.000000
# 5 0.000000 0.000000 0.000000 0.000000 0.071505 0.000000
# 6 0.000000 0.000000 0.000000 0.000000 0.000000 0.040985
#
#
# Mechanical properties :
#
#
# Convention : Reuss Voigt Hill
#
# Bulk Modulus (GPa) = 42.59805 48.57842 45.58824
# Shear Modulus (GPa) = 22.11588 28.69857 25.40723
#
# Velocity S-wave (km/s) = 3.14892 3.58707 3.37511
# Velocity P-wave (km/s) = 5.68505 6.23990 5.96893
#
# Compressibility (1/GPa) = 0.02347525
#
# Stress axis : x y z
#
# Youngs Moduli (GPa) = 149.13930 79.30363 76.63220
#
# Poissons Ratio (x) = 0.11351 0.15162
# Poissons Ratio (y) = 0.21347 0.07929
# Poissons Ratio (z) = 0.29507 0.08205
#
# Static dielectric constant tensor:
#      x y z
#    x 2.034280 0.000000 0.000000 
#    y 0.000000 1.910880 0.000000 
#    z 0.000000 0.000000 1.808440 
# 
# From -- ./inp_files/26121.got.cif
#   From: 2010.05.17/outbox.cif.g08.bks.cpg/sg60_14_cif.got.tgz:26121.got - 2010.06.03 14:59:27.
