data_PCOD9456332
_publ_section_title
;
Structure prediction by ZEFSAII (Michael W. Deem and Ramdas Pophale) SiO2 
 PCOD9456332
Probable space group: P B C N
;
_chemical_formula_sum "Si O2"
_cell_formula_units_Z 40
_cell_length_a 5.000117
_cell_length_b 30.820844
_cell_length_c 11.593574
_cell_angle_alpha 90.000000
_cell_angle_beta 90.000000
_cell_angle_gamma 90.000000
_cell_volume 1786.660485
_symmetry_space_group_name_H-M "P B C N"
_symmetry_group_IT_number 60
_symmetry_cell_setting 'orthorhombic'
loop_
_space_group_symop_operation_xyz
x,y,z
1/2-x,1/2-y,1/2+z
1/2+x,1/2-y,-z
-x,y,1/2-z
-x,-y,-z
1/2+x,1/2+y,1/2-z
1/2-x,1/2+y,z
x,-y,1/2+z
loop_
_atom_site_type_symbol
_atom_site_label
_atom_site_fract_x
_atom_site_fract_y
_atom_site_fract_z
Si Si1 0.870066 0.924033 0.124632
Si Si2 0.921678 0.307474 0.526169
Si Si3 0.371195 0.098216 0.486845
Si Si4 0.248473 0.518729 0.326913
Si Si5 0.422235 0.715277 0.877193
O O1 0.575158 0.907601 0.093838
O O2 0.000000 0.916746 0.250000
O O3 0.071514 0.902326 0.035125
O O4 0.857047 0.976165 0.108125
O O5 0.945492 0.356226 0.571567
O O6 0.948767 0.267599 0.613815
O O7 0.632474 0.302821 0.468724
O O8 0.133583 0.298784 0.423262
O O9 0.375381 0.056679 0.404065
O O10 0.500000 0.534598 0.250000
O O11 0.000000 0.502272 0.250000
O O12 0.500000 0.700414 0.750000
#
# Coordination Sequence:
#
# PCOD9456332 Si02
#       5
#     8   8   8   8   8
#     4  11  23  39  59  87 121 160 201 242 297 356
#     4  10  23  38  59  92 115 147 202 236 285 364
#     4  12  23  39  62  89 122 155 197 256 298 340
#     4  11  23  41  61  86 120 161 204 241 293 357
#     4  10  21  41  62  82 119 157 185 237 298 349
#
# _framework density 22.388137
#
# number of rings (size 3 to 8) (size 9 to 14) (size 15 to 20)
#    0.000    1.200    0.000    7.200    0.000    5.600 
#    0.000    4.000    0.000    0.000    0.000    0.000 
#    0.000    0.000    0.000    0.000    0.000    0.000 
#
# Total GULP energy -223592.045371 kJ/mol
# GULP energy per Si atom -5589.801134 kJ/mol
# Density = 2.233718 g / cm^3
# Si number density = 22.388137 Si / 1000 Ang^3
#
#
#
# Elastic Constant Matrix: (Units=GPa)
#
#
# Indices 1 2 3 4 5 6 
#
# 1 81.5768 24.5232 0.2332 0.0000 0.0000 0.0000
# 2 24.5232 126.1646 14.2658 0.0000 0.0000 0.0000
# 3 0.2332 14.2658 20.7422 0.0000 0.0000 0.0000
# 4 0.0000 0.0000 0.0000 12.2239 0.0000 0.0000
# 5 0.0000 0.0000 0.0000 0.0000 22.4476 0.0000
# 6 0.0000 0.0000 0.0000 0.0000 0.0000 97.8245
#
#
#
# Elastic Compliance Matrix: (Units=1/GPa)
#
#
# Indices 1 2 3 4 5 6 
#
# 1 0.013077 -0.002738 0.001736 0.000000 0.000000 0.000000
# 2 -0.002738 0.009168 -0.006275 0.000000 0.000000 0.000000
# 3 0.001736 -0.006275 0.052507 0.000000 0.000000 0.000000
# 4 0.000000 0.000000 0.000000 0.081807 0.000000 0.000000
# 5 0.000000 0.000000 0.000000 0.000000 0.044548 0.000000
# 6 0.000000 0.000000 0.000000 0.000000 0.000000 0.010222
#
#
# Mechanical properties :
#
#
# Convention : Reuss Voigt Hill
#
# Bulk Modulus (GPa) = 16.61181 34.05868 25.33525
# Shear Modulus (GPa) = 20.32951 39.12994 29.72973
#
# Velocity S-wave (km/s) = 3.01665 4.18520 3.64802
# Velocity P-wave (km/s) = 4.42376 6.21292 5.39305
#
# Compressibility (1/GPa) = 0.06019813
#
# Stress axis : x y z
#
# Youngs Moduli (GPa) = 76.47289 109.07688 19.04517
#
# Poissons Ratio (x) = 0.29866 -0.03306
# Poissons Ratio (y) = 0.20939 0.11950
# Poissons Ratio (z) = -0.13277 0.68441
#
# Static dielectric constant tensor:
#      x y z
#    x 1.769810 0.000000 0.000000 
#    y 0.000000 1.883530 0.000000 
#    z 0.000000 0.000000 1.818630 
# 
# From -- ./inp_files/9096.got.cif
#   From: 2010.05.17/outbox.cif.g08.bks.cpg/sg60_5_cif.got.tgz:9096.got - 2010.06.03 14:59:27.
