data_PCOD9456982
_publ_section_title
;
Structure prediction by ZEFSAII (Michael W. Deem and Ramdas Pophale) SiO2 
 PCOD9456982
Probable space group: P B C N
;
_chemical_formula_sum "Si O2"
_cell_formula_units_Z 36
_cell_length_a 16.315951
_cell_length_b 9.405245
_cell_length_c 9.625782
_cell_angle_alpha 90.000000
_cell_angle_beta 90.000000
_cell_angle_gamma 90.000000
_cell_volume 1477.129349
_symmetry_space_group_name_H-M "P B C N"
_symmetry_group_IT_number 60
_symmetry_cell_setting 'orthorhombic'
loop_
_space_group_symop_operation_xyz
x,y,z
1/2-x,1/2-y,1/2+z
1/2+x,1/2-y,-z
-x,y,1/2-z
-x,-y,-z
1/2+x,1/2+y,1/2-z
1/2-x,1/2+y,z
x,-y,1/2+z
loop_
_atom_site_type_symbol
_atom_site_label
_atom_site_fract_x
_atom_site_fract_y
_atom_site_fract_z
Si Si1 0.875979 0.555712 0.557863
Si Si2 0.500000 0.220320 0.750000
Si Si3 0.876086 0.238451 0.465227
Si Si4 0.309050 0.519857 0.828545
Si Si5 0.310082 0.690790 0.562926
O O1 0.898959 0.398452 0.510773
O O2 0.786044 0.547637 0.629572
O O3 0.865195 0.668282 0.430837
O O4 0.939641 0.620546 0.663647
O O5 0.556717 0.308777 0.854495
O O6 0.866525 0.133318 0.593465
O O7 0.782842 0.257709 0.411057
O O8 0.321340 0.559646 0.668060
O O9 0.322844 0.370455 0.906794
#
# Coordination Sequence:
#
# PCOD9456982 Si02
#       5
#     8   4   8   8   8
#     4  10  23  38  65  93 130 168 210 261 319 378
#     4  12  22  40  60  98 132 168 196 276 322 390
#     4  10  23  38  65  93 130 168 210 261 319 378
#     4  10  22  41  68  95 123 169 221 262 305 375
#     4  10  22  41  68  95 123 169 221 262 305 375
#
# _framework density 24.371597000000001
#
# number of rings (size 3 to 8) (size 9 to 14) (size 15 to 20)
#    0.000    1.778    2.222    0.667    6.222    5.333 
#    0.000    1.111    0.000    0.000    0.000    0.000 
#    0.000    0.000    0.000    0.000    0.000    0.000 
#
# Total GULP energy -201387.455211 kJ/mol
# GULP energy per Si atom -5594.095978 kJ/mol
# Density = 2.431613 g / cm^3
# Si number density = 24.371597 Si / 1000 Ang^3
#
#
#
# Elastic Constant Matrix: (Units=GPa)
#
#
# Indices 1 2 3 4 5 6 
#
# 1 72.1804 17.9666 19.9545 0.0000 0.0000 0.0000
# 2 17.9666 85.7625 3.2185 0.0000 0.0000 0.0000
# 3 19.9545 3.2185 78.0861 0.0000 0.0000 0.0000
# 4 0.0000 0.0000 0.0000 23.8993 0.0000 0.0000
# 5 0.0000 0.0000 0.0000 0.0000 29.1012 0.0000
# 6 0.0000 0.0000 0.0000 0.0000 0.0000 6.2739
#
#
#
# Elastic Compliance Matrix: (Units=1/GPa)
#
#
# Indices 1 2 3 4 5 6 
#
# 1 0.015711 -0.003146 -0.003885 0.000000 0.000000 0.000000
# 2 -0.003146 0.012308 0.000297 0.000000 0.000000 0.000000
# 3 -0.003885 0.000297 0.013787 0.000000 0.000000 0.000000
# 4 0.000000 0.000000 0.000000 0.041842 0.000000 0.000000
# 5 0.000000 0.000000 0.000000 0.000000 0.034363 0.000000
# 6 0.000000 0.000000 0.000000 0.000000 0.000000 0.159391
#
#
# Mechanical properties :
#
#
# Convention : Reuss Voigt Hill
#
# Bulk Modulus (GPa) = 35.28883 35.36758 35.32821
# Shear Modulus (GPa) = 16.64909 24.84751 20.74830
#
# Velocity S-wave (km/s) = 2.61652 3.19647 2.92092
# Velocity P-wave (km/s) = 4.86201 5.30721 5.08948
#
# Compressibility (1/GPa) = 0.02833758
#
# Stress axis : x y z
#
# Youngs Moduli (GPa) = 63.64870 81.24826 72.53204
#
# Poissons Ratio (x) = 0.25557 0.28181
# Poissons Ratio (y) = 0.20021 -0.02151
# Poissons Ratio (z) = 0.24729 -0.02409
#
# Static dielectric constant tensor:
#      x y z
#    x 1.909300 0.000000 0.000000 
#    y 0.000000 1.938350 0.000000 
#    z 0.000000 0.000000 1.992620 
# 
# From -- ./inp_files/10781.got.cif
#   From: 2010.05.17/outbox.cif.g08.bks.cpg/sg60_6_cif.got.tgz:10781.got - 2010.06.03 14:59:27.
