data_PCOD9456431
_publ_section_title
;
Structure prediction by ZEFSAII (Michael W. Deem and Ramdas Pophale) SiO2 
 PCOD9456431
Probable space group: P B C N
;
_chemical_formula_sum "Si O2"
_cell_formula_units_Z 44
_cell_length_a 15.197312
_cell_length_b 9.261221
_cell_length_c 13.816002
_cell_angle_alpha 90.000000
_cell_angle_beta 90.000000
_cell_angle_gamma 90.000000
_cell_volume 1944.542390
_symmetry_space_group_name_H-M "P B C N"
_symmetry_group_IT_number 60
_symmetry_cell_setting 'orthorhombic'
loop_
_space_group_symop_operation_xyz
x,y,z
1/2-x,1/2-y,1/2+z
1/2+x,1/2-y,-z
-x,y,1/2-z
-x,-y,-z
1/2+x,1/2+y,1/2-z
1/2-x,1/2+y,z
x,-y,1/2+z
loop_
_atom_site_type_symbol
_atom_site_label
_atom_site_fract_x
_atom_site_fract_y
_atom_site_fract_z
Si Si1 0.675064 0.709334 0.009914
Si Si2 0.000000 0.190884 0.750000
Si Si3 0.127709 0.363512 0.003396
Si Si4 0.302906 0.056178 0.842697
Si Si5 0.123285 0.429480 0.652574
Si Si6 0.602867 0.444242 0.079043
O O1 0.678418 0.783406 0.116482
O O2 0.599432 0.588718 0.014775
O O3 0.767275 0.640694 0.976337
O O4 0.665555 0.840481 0.935609
O O5 0.070114 0.303442 0.705717
O O6 0.038615 0.088907 0.833121
O O7 0.077141 0.443208 0.089826
O O8 0.130775 0.451463 0.902685
O O9 0.100963 0.200043 0.985102
O O10 0.200920 0.039643 0.873331
O O11 0.318455 0.012218 0.732228
#
# Coordination Sequence:
#
# PCOD9456431 Si02
#       6
#     8   4   8   8   8   8
#     4   9  21  40  67  97 129 163 221 276 323 373
#     4  12  26  40  64  98 138 184 206 270 338 386
#     4   9  19  39  65  94 120 169 221 272 310 383
#     4   9  19  41  66  92 121 168 222 270 304 395
#     4  11  23  40  66  94 130 177 221 252 334 398
#     4  10  21  42  62  94 139 164 214 280 328 372
#
# _framework density 22.627431999999999
#
# number of rings (size 3 to 8) (size 9 to 14) (size 15 to 20)
#    0.000    2.182    1.818    1.091    2.545    1.455 
#    3.273    0.909    0.000    0.000    0.000    0.000 
#    0.000    0.000    0.000    0.000    0.000    0.000 
#
# Total GULP energy -245252.865335 kJ/mol
# GULP energy per Si atom -5573.928758 kJ/mol
# Density = 2.257593 g / cm^3
# Si number density = 22.627432 Si / 1000 Ang^3
#
#
#
# Elastic Constant Matrix: (Units=GPa)
#
#
# Indices 1 2 3 4 5 6 
#
# 1 38.3775 6.8918 9.0099 0.0000 0.0000 0.0000
# 2 6.8918 119.7082 27.4673 0.0000 0.0000 0.0000
# 3 9.0099 27.4673 93.2025 0.0000 0.0000 0.0000
# 4 0.0000 0.0000 0.0000 38.8454 0.0000 0.0000
# 5 0.0000 0.0000 0.0000 0.0000 19.2538 0.0000
# 6 0.0000 0.0000 0.0000 0.0000 0.0000 16.3260
#
#
#
# Elastic Compliance Matrix: (Units=1/GPa)
#
#
# Indices 1 2 3 4 5 6 
#
# 1 0.026777 -0.001016 -0.002289 0.000000 0.000000 0.000000
# 2 -0.001016 0.008998 -0.002554 0.000000 0.000000 0.000000
# 3 -0.002289 -0.002554 0.011703 0.000000 0.000000 0.000000
# 4 0.000000 0.000000 0.000000 0.025743 0.000000 0.000000
# 5 0.000000 0.000000 0.000000 0.000000 0.051938 0.000000
# 6 0.000000 0.000000 0.000000 0.000000 0.000000 0.061252
#
#
# Mechanical properties :
#
#
# Convention : Reuss Voigt Hill
#
# Bulk Modulus (GPa) = 27.96401 37.55847 32.76124
# Shear Modulus (GPa) = 23.80399 28.74632 26.27516
#
# Velocity S-wave (km/s) = 3.24697 3.56816 3.41135
# Velocity P-wave (km/s) = 5.14221 5.79745 5.47963
#
# Compressibility (1/GPa) = 0.03576025
#
# Stress axis : x y z
#
# Youngs Moduli (GPa) = 37.34576 111.13482 85.44713
#
# Poissons Ratio (x) = 0.11296 0.19559
# Poissons Ratio (y) = 0.03796 0.21819
# Poissons Ratio (z) = 0.08548 0.28379
#
# Static dielectric constant tensor:
#      x y z
#    x 1.873000 0.000000 0.000000 
#    y 0.000000 1.893890 0.000000 
#    z 0.000000 0.000000 1.880940 
# 
# From -- ./inp_files/17297.got.cif
#   From: 2010.05.17/outbox.cif.g08.bks.cpg/sg60_9_cif.got.tgz:17297.got - 2010.06.03 14:59:27.
