data_PCOD9456002
_publ_section_title
;
Structure prediction by ZEFSAII (Michael W. Deem and Ramdas Pophale) SiO2 
 PCOD9456002
Probable space group: P B C N
;
_chemical_formula_sum "Si O2"
_cell_formula_units_Z 56
_cell_length_a 16.529512
_cell_length_b 31.411856
_cell_length_c 5.068199
_cell_angle_alpha 90.000000
_cell_angle_beta 90.000000
_cell_angle_gamma 90.000000
_cell_volume 2631.523719
_symmetry_space_group_name_H-M "P B C N"
_symmetry_group_IT_number 60
_symmetry_cell_setting 'orthorhombic'
loop_
_space_group_symop_operation_xyz
x,y,z
1/2-x,1/2-y,1/2+z
1/2+x,1/2-y,-z
-x,y,1/2-z
-x,-y,-z
1/2+x,1/2+y,1/2-z
1/2-x,1/2+y,z
x,-y,1/2+z
loop_
_atom_site_type_symbol
_atom_site_label
_atom_site_fract_x
_atom_site_fract_y
_atom_site_fract_z
Si Si1 0.445657 0.741029 0.990923
Si Si2 0.254524 0.583236 0.161450
Si Si3 0.227477 0.223866 0.869797
Si Si4 0.276703 0.866752 0.142012
Si Si5 0.446586 0.159909 0.493414
Si Si6 0.907658 0.529271 0.211594
Si Si7 0.088865 0.971995 0.796342
O O1 0.500000 0.738272 0.250000
O O2 0.422905 0.790815 0.941082
O O3 0.500000 0.726158 0.750000
O O4 0.361205 0.717113 0.991074
O O5 0.264197 0.622891 0.363351
O O6 0.170236 0.558704 0.227687
O O7 0.332710 0.554650 0.217167
O O8 0.248244 0.599399 0.862591
O O9 0.223588 0.253943 0.608718
O O10 0.262622 0.179629 0.766026
O O11 0.370651 0.868187 0.065810
O O12 0.500000 0.161287 0.750000
O O13 0.500000 0.145196 0.250000
O O14 0.902003 0.489874 0.417990
O O15 0.000000 0.546695 0.250000
O O16 0.000000 0.951519 0.750000
O O17 0.091324 0.012444 0.597882
#
# Coordination Sequence:
#
# PCOD9456002 Si02
#       7
#     8   8   8   8   8   8   8
#     4  10  21  38  63  89 112 150 212 276 321 371
#     4  12  24  40  62  95 141 164 212 264 325 389
#     4  12  24  42  67  87 122 168 222 276 319 383
#     4  12  26  40  60  97 127 175 210 257 339 390
#     4  10  21  38  59  85 119 156 208 266 313 371
#     4  10  21  39  64  91 124 171 213 245 295 369
#     4  10  21  41  71 100 125 166 219 267 323 386
#
# _framework density 21.280449000000001
#
# number of rings (size 3 to 8) (size 9 to 14) (size 15 to 20)
#    0.000    1.143    1.429    5.143    4.000    1.714 
#    0.000    2.143    0.000    0.000    0.000    0.000 
#    0.000    0.000    0.000    0.000    0.000    0.000 
#
# Total GULP energy -312944.744382 kJ/mol
# GULP energy per Si atom -5588.299007 kJ/mol
# Density = 2.123201 g / cm^3
# Si number density = 21.280449 Si / 1000 Ang^3
#
#
#
# Elastic Constant Matrix: (Units=GPa)
#
#
# Indices 1 2 3 4 5 6 
#
# 1 131.7092 28.7377 19.4464 0.0000 0.0000 0.0000
# 2 28.7377 36.2609 5.6993 0.0000 0.0000 0.0000
# 3 19.4464 5.6993 101.8171 0.0000 0.0000 0.0000
# 4 0.0000 0.0000 0.0000 29.2217 0.0000 0.0000
# 5 0.0000 0.0000 0.0000 0.0000 24.6542 0.0000
# 6 0.0000 0.0000 0.0000 0.0000 0.0000 22.6738
#
#
#
# Elastic Compliance Matrix: (Units=1/GPa)
#
#
# Indices 1 2 3 4 5 6 
#
# 1 0.009370 -0.007208 -0.001386 0.000000 0.000000 0.000000
# 2 -0.007208 0.033368 -0.000491 0.000000 0.000000 0.000000
# 3 -0.001386 -0.000491 0.010114 0.000000 0.000000 0.000000
# 4 0.000000 0.000000 0.000000 0.034221 0.000000 0.000000
# 5 0.000000 0.000000 0.000000 0.000000 0.040561 0.000000
# 6 0.000000 0.000000 0.000000 0.000000 0.000000 0.044104
#
#
# Mechanical properties :
#
#
# Convention : Reuss Voigt Hill
#
# Bulk Modulus (GPa) = 28.83437 41.95046 35.39242
# Shear Modulus (GPa) = 24.81784 29.70351 27.26067
#
# Velocity S-wave (km/s) = 3.41871 3.74011 3.58302
# Velocity P-wave (km/s) = 5.40024 6.19735 5.81248
#
# Compressibility (1/GPa) = 0.03468083
#
# Stress axis : x y z
#
# Youngs Moduli (GPa) = 106.72523 29.96915 98.87515
#
# Poissons Ratio (x) = 0.21602 0.13705
# Poissons Ratio (y) = 0.76927 0.04856
# Poissons Ratio (z) = 0.14793 0.01472
#
# Static dielectric constant tensor:
#      x y z
#    x 1.761650 0.000000 0.000000 
#    y 0.000000 1.816530 0.000000 
#    z 0.000000 0.000000 1.734490 
# 
# From -- ./inp_files/1476.got.cif
#   From: 2010.05.17/outbox.cif.g08.bks.cpg/sg60_1_cif.got.tgz:1476.got - 2010.06.03 14:59:27.
