data_PCOD9456538
_publ_section_title
;
Structure prediction by ZEFSAII (Michael W. Deem and Ramdas Pophale) SiO2 
 PCOD9456538
Probable space group: P B C N
;
_chemical_formula_sum "Si O2"
_cell_formula_units_Z 40
_cell_length_a 8.933639
_cell_length_b 11.883338
_cell_length_c 14.825600
_cell_angle_alpha 90.000000
_cell_angle_beta 90.000000
_cell_angle_gamma 90.000000
_cell_volume 1573.907220
_symmetry_space_group_name_H-M "P B C N"
_symmetry_group_IT_number 60
_symmetry_cell_setting 'orthorhombic'
loop_
_space_group_symop_operation_xyz
x,y,z
1/2-x,1/2-y,1/2+z
1/2+x,1/2-y,-z
-x,y,1/2-z
-x,-y,-z
1/2+x,1/2+y,1/2-z
1/2-x,1/2+y,z
x,-y,1/2+z
loop_
_atom_site_type_symbol
_atom_site_label
_atom_site_fract_x
_atom_site_fract_y
_atom_site_fract_z
Si Si1 0.525766 0.243133 0.473034
Si Si2 0.686109 0.407249 0.985534
Si Si3 0.577637 0.158277 0.836169
Si Si4 0.637195 0.947688 0.629148
Si Si5 0.160532 0.985938 0.208392
O O1 0.692417 0.195562 0.482227
O O2 0.465509 0.369638 0.462688
O O3 0.458929 0.220137 0.572626
O O4 0.440984 0.167012 0.399743
O O5 0.658907 0.445839 0.884162
O O6 0.769812 0.503179 0.044129
O O7 0.500000 0.214682 0.750000
O O8 0.493120 0.038317 0.850572
O O9 0.747587 0.128632 0.813100
O O10 0.743557 0.947681 0.715587
O O11 0.000000 0.964002 0.250000
#
# Coordination Sequence:
#
# PCOD9456538 Si02
#       5
#     8   8   8   8   8
#     4  11  22  41  67  92 130 170 218 272 326 401
#     4  11  24  42  65 100 127 175 222 265 337 388
#     4   9  18  40  67  85 122 180 218 255 334 393
#     4  10  21  44  68  84 130 179 216 260 337 393
#     4  11  23  38  65  97 130 167 221 274 321 382
#
# _framework density 25.414459000000001
#
# number of rings (size 3 to 8) (size 9 to 14) (size 15 to 20)
#    0.000    1.600    4.000    1.200    2.800    3.200 
#    7.200    0.000    0.000    0.000    0.000    0.000 
#    0.000    0.000    0.000    0.000    0.000    0.000 
#
# Total GULP energy -224155.249345 kJ/mol
# GULP energy per Si atom -5603.881234 kJ/mol
# Density = 2.535661 g / cm^3
# Si number density = 25.414459 Si / 1000 Ang^3
#
#
#
# Elastic Constant Matrix: (Units=GPa)
#
#
# Indices 1 2 3 4 5 6 
#
# 1 158.6714 22.4978 50.5434 0.0000 0.0000 0.0000
# 2 22.4978 34.2022 15.5958 0.0000 0.0000 0.0000
# 3 50.5434 15.5958 137.6327 0.0000 0.0000 0.0000
# 4 0.0000 0.0000 0.0000 16.0115 0.0000 0.0000
# 5 0.0000 0.0000 0.0000 0.0000 41.4370 0.0000
# 6 0.0000 0.0000 0.0000 0.0000 0.0000 35.8133
#
#
#
# Elastic Compliance Matrix: (Units=1/GPa)
#
#
# Indices 1 2 3 4 5 6 
#
# 1 0.007608 -0.003934 -0.002348 0.000000 0.000000 0.000000
# 2 -0.003934 0.032865 -0.002279 0.000000 0.000000 0.000000
# 3 -0.002348 -0.002279 0.008386 0.000000 0.000000 0.000000
# 4 0.000000 0.000000 0.000000 0.062455 0.000000 0.000000
# 5 0.000000 0.000000 0.000000 0.000000 0.024133 0.000000
# 6 0.000000 0.000000 0.000000 0.000000 0.000000 0.027923
#
#
# Mechanical properties :
#
#
# Convention : Reuss Voigt Hill
#
# Bulk Modulus (GPa) = 31.50945 56.42002 43.96474
# Shear Modulus (GPa) = 26.16820 34.77699 30.47259
#
# Velocity S-wave (km/s) = 3.21231 3.70319 3.46645
# Velocity P-wave (km/s) = 5.11700 6.36655 5.77567
#
# Compressibility (1/GPa) = 0.03173651
#
# Stress axis : x y z
#
# Youngs Moduli (GPa) = 131.43893 30.42759 119.24143
#
# Poissons Ratio (x) = 0.11970 0.28000
# Poissons Ratio (y) = 0.51705 0.27181
# Poissons Ratio (z) = 0.30864 0.06936
#
# Static dielectric constant tensor:
#      x y z
#    x 2.045050 0.000000 0.000000 
#    y 0.000000 2.101160 0.000000 
#    z 0.000000 0.000000 1.962590 
# 
# From -- ./inp_files/14637.got.cif
#   From: 2010.05.17/outbox.cif.g08.bks.cpg/sg60_8_cif.got.tgz:14637.got - 2010.06.03 14:59:27.
