data_PCOD9456342
_publ_section_title
;
Structure prediction by ZEFSAII (Michael W. Deem and Ramdas Pophale) SiO2 
 PCOD9456342
Probable space group: P B C N
;
_chemical_formula_sum "Si O2"
_cell_formula_units_Z 48
_cell_length_a 15.385346
_cell_length_b 9.103616
_cell_length_c 14.001017
_cell_angle_alpha 90.000000
_cell_angle_beta 90.000000
_cell_angle_gamma 90.000000
_cell_volume 1961.014391
_symmetry_space_group_name_H-M "P B C N"
_symmetry_group_IT_number 60
_symmetry_cell_setting 'orthorhombic'
loop_
_space_group_symop_operation_xyz
x,y,z
1/2-x,1/2-y,1/2+z
1/2+x,1/2-y,-z
-x,y,1/2-z
-x,-y,-z
1/2+x,1/2+y,1/2-z
1/2-x,1/2+y,z
x,-y,1/2+z
loop_
_atom_site_type_symbol
_atom_site_label
_atom_site_fract_x
_atom_site_fract_y
_atom_site_fract_z
Si Si1 0.649390 0.875051 0.996537
Si Si2 0.339664 0.354405 0.277048
Si Si3 0.500000 0.000000 0.000000
Si Si4 0.093234 0.294323 0.145479
Si Si5 0.727336 0.378320 0.428620
Si Si6 0.500000 0.532089 0.250000
Si Si7 0.845275 0.505777 0.187959
O O1 0.610096 0.971770 0.084767
O O2 0.680298 0.711668 0.012131
O O3 0.565767 0.890725 0.931594
O O4 0.728222 0.972699 0.959711
O O5 0.332857 0.382666 0.163224
O O6 0.429197 0.432738 0.305397
O O7 0.251724 0.432701 0.317559
O O8 0.338896 0.179320 0.295787
O O9 0.540519 0.144775 0.943268
O O10 0.191723 0.281547 0.108903
O O11 0.104074 0.409786 0.233852
O O12 0.052918 0.145010 0.183388
#
# Coordination Sequence:
#
# PCOD9456342 Si02
#       7
#     8   8   4   8   8   4   8
#     4  11  22  38  62  90 120 162 211 259 315 383
#     4  11  23  41  65  95 129 172 217 268 326 388
#     4  10  22  38  62  90 120 160 208 260 322 374
#     4  10  22  42  66  94 129 171 213 266 328 388
#     4  10  21  41  63  86 124 168 209 255 322 392
#     4  12  24  38  66 100 130 168 220 274 324 378
#     4  11  23  42  66  92 129 173 218 263 324 395
#
# _framework density 24.477128
#
# number of rings (size 3 to 8) (size 9 to 14) (size 15 to 20)
#    0.000    1.333    0.000    8.000    0.000    4.667 
#    0.000    0.000    0.000   15.000    0.000    0.000 
#    0.000    0.000    0.000    0.000    0.000    0.000 
#
# Total GULP energy -267382.967871 kJ/mol
# GULP energy per Si atom -5570.478497 kJ/mol
# Density = 2.442142 g / cm^3
# Si number density = 24.477128 Si / 1000 Ang^3
#
#
#
# Elastic Constant Matrix: (Units=GPa)
#
#
# Indices 1 2 3 4 5 6 
#
# 1 66.3378 92.6940 2.4041 0.0000 0.0000 0.0000
# 2 92.6940 152.9563 23.9978 0.0000 0.0000 0.0000
# 3 2.4041 23.9978 69.4128 0.0000 0.0000 0.0000
# 4 0.0000 0.0000 0.0000 9.8132 0.0000 0.0000
# 5 0.0000 0.0000 0.0000 0.0000 24.5649 0.0000
# 6 0.0000 0.0000 0.0000 0.0000 0.0000 11.8670
#
#
#
# Elastic Compliance Matrix: (Units=1/GPa)
#
#
# Indices 1 2 3 4 5 6 
#
# 1 0.126277 -0.080189 0.023350 0.000000 0.000000 0.000000
# 2 -0.080189 0.057835 -0.017218 0.000000 0.000000 0.000000
# 3 0.023350 -0.017218 0.019550 0.000000 0.000000 0.000000
# 4 0.000000 0.000000 0.000000 0.101904 0.000000 0.000000
# 5 0.000000 0.000000 0.000000 0.000000 0.040708 0.000000
# 6 0.000000 0.000000 0.000000 0.000000 0.000000 0.084267
#
#
# Mechanical properties :
#
#
# Convention : Reuss Voigt Hill
#
# Bulk Modulus (GPa) = 18.00234 58.54430 38.27332
# Shear Modulus (GPa) = 8.37279 20.55643 14.46461
#
# Velocity S-wave (km/s) = 1.85151 2.90111 2.43357
# Velocity P-wave (km/s) = 3.45565 5.93227 4.85455
#
# Compressibility (1/GPa) = 0.05554833
#
# Stress axis : x y z
#
# Youngs Moduli (GPa) = 7.91910 17.29049 51.14962
#
# Poissons Ratio (x) = 1.38651 -1.19434
# Poissons Ratio (y) = 0.63503 0.88068
# Poissons Ratio (z) = -0.18491 0.29770
#
# Static dielectric constant tensor:
#      x y z
#    x 1.437330 0.000000 0.000000 
#    y 0.000000 1.918260 0.000000 
#    z 0.000000 0.000000 0.393250 
# 
# From -- ./inp_files/20565.got.cif
#   From: 2010.05.17/outbox.cif.g08.bks.cpg/sg60_11_cif.got.tgz:20565.got - 2010.06.03 14:59:27.
