data_PCOD9456646
_publ_section_title
;
Structure prediction by ZEFSAII (Michael W. Deem and Ramdas Pophale) SiO2 
 PCOD9456646
Probable space group: P B C N
;
_chemical_formula_sum "Si O2"
_cell_formula_units_Z 32
_cell_length_a 13.308987
_cell_length_b 20.474434
_cell_length_c 5.036251
_cell_angle_alpha 90.000000
_cell_angle_beta 90.000000
_cell_angle_gamma 90.000000
_cell_volume 1372.348059
_symmetry_space_group_name_H-M "P B C N"
_symmetry_group_IT_number 60
_symmetry_cell_setting 'orthorhombic'
loop_
_space_group_symop_operation_xyz
x,y,z
1/2-x,1/2-y,1/2+z
1/2+x,1/2-y,-z
-x,y,1/2-z
-x,-y,-z
1/2+x,1/2+y,1/2-z
1/2-x,1/2+y,z
x,-y,1/2+z
loop_
_atom_site_type_symbol
_atom_site_label
_atom_site_fract_x
_atom_site_fract_y
_atom_site_fract_z
Si Si1 0.802324 0.957158 0.954120
Si Si2 0.000000 0.049456 0.250000
Si Si3 0.103565 0.619156 0.161178
Si Si4 0.500000 0.780644 0.250000
Si Si5 0.812379 0.732122 0.010585
O O1 0.693068 0.925565 0.934315
O O2 0.894790 0.915226 0.825065
O O3 0.808838 0.019996 0.758216
O O4 0.000000 0.000000 0.500000
O O5 0.154512 0.660001 0.399153
O O6 0.000000 0.584741 0.250000
O O7 0.063619 0.673119 0.950298
O O8 0.581490 0.739629 0.411614
O O9 0.764403 0.765836 0.266760
#
# Coordination Sequence:
#
# PCOD9456646 Si02
#       5
#     8   4   8   4   8
#     4  10  22  37  62  89 123 166 208 254 302 367
#     4   8  16  36  57  78 108 158 200 243 302 344
#     4  10  23  39  62  92 130 164 207 254 318 373
#     4  10  22  42  63  90 128 170 198 263 330 378
#     4  11  22  40  66  89 117 165 210 255 318 382
#
# _framework density 23.317701
#
# number of rings (size 3 to 8) (size 9 to 14) (size 15 to 20)
#    0.000    2.000    2.500    0.000    7.000    1.000 
#    0.000    1.250    5.500    0.000    0.000    0.000 
#    0.000    0.000    0.000    0.000    0.000    0.000 
#
# Total GULP energy -178281.548196 kJ/mol
# GULP energy per Si atom -5571.298381 kJ/mol
# Density = 2.326463 g / cm^3
# Si number density = 23.317701 Si / 1000 Ang^3
#
#
#
# Elastic Constant Matrix: (Units=GPa)
#
#
# Indices 1 2 3 4 5 6 
#
# 1 192.9320 31.1760 51.1513 0.0000 0.0000 0.0000
# 2 31.1760 22.7056 9.1539 0.0000 0.0000 0.0000
# 3 51.1513 9.1539 144.9953 0.0000 0.0000 0.0000
# 4 0.0000 0.0000 0.0000 12.9774 0.0000 0.0000
# 5 0.0000 0.0000 0.0000 0.0000 52.8025 0.0000
# 6 0.0000 0.0000 0.0000 0.0000 0.0000 35.0581
#
#
#
# Elastic Compliance Matrix: (Units=1/GPa)
#
#
# Indices 1 2 3 4 5 6 
#
# 1 0.007164 -0.009048 -0.001956 0.000000 0.000000 0.000000
# 2 -0.009048 0.056619 -0.000383 0.000000 0.000000 0.000000
# 3 -0.001956 -0.000383 0.007611 0.000000 0.000000 0.000000
# 4 0.000000 0.000000 0.000000 0.077057 0.000000 0.000000
# 5 0.000000 0.000000 0.000000 0.000000 0.018938 0.000000
# 6 0.000000 0.000000 0.000000 0.000000 0.000000 0.028524
#
#
# Mechanical properties :
#
#
# Convention : Reuss Voigt Hill
#
# Bulk Modulus (GPa) = 20.56718 60.39949 40.48333
# Shear Modulus (GPa) = 21.28623 38.11105 29.69864
#
# Velocity S-wave (km/s) = 3.02467 4.04719 3.57270
# Velocity P-wave (km/s) = 4.58669 6.91366 5.86670
#
# Compressibility (1/GPa) = 0.04862116
#
# Stress axis : x y z
#
# Youngs Moduli (GPa) = 139.59091 17.66187 131.38909
#
# Poissons Ratio (x) = 0.15980 0.25700
# Poissons Ratio (y) = 1.26297 0.05028
# Poissons Ratio (z) = 0.27304 0.00676
#
# Static dielectric constant tensor:
#      x y z
#    x 2.083640 0.000000 0.000000 
#    y 0.000000 1.943960 0.000000 
#    z 0.000000 0.000000 1.916580 
# 
# From -- ./inp_files/727.got.cif
#   From: 2010.05.17/outbox.cif.g08.bks.cpg/sg60_1_cif.got.tgz:727.got - 2010.06.03 14:59:27.
