data_PCOD9456309
_publ_section_title
;
Structure prediction by ZEFSAII (Michael W. Deem and Ramdas Pophale) SiO2 
 PCOD9456309
Probable space group: P B C N
;
_chemical_formula_sum "Si O2"
_cell_formula_units_Z 40
_cell_length_a 12.218137
_cell_length_b 25.498452
_cell_length_c 5.235196
_cell_angle_alpha 90.000000
_cell_angle_beta 90.000000
_cell_angle_gamma 90.000000
_cell_volume 1630.991703
_symmetry_space_group_name_H-M "P B C N"
_symmetry_group_IT_number 60
_symmetry_cell_setting 'orthorhombic'
loop_
_space_group_symop_operation_xyz
x,y,z
1/2-x,1/2-y,1/2+z
1/2+x,1/2-y,-z
-x,y,1/2-z
-x,-y,-z
1/2+x,1/2+y,1/2-z
1/2-x,1/2+y,z
x,-y,1/2+z
loop_
_atom_site_type_symbol
_atom_site_label
_atom_site_fract_x
_atom_site_fract_y
_atom_site_fract_z
Si Si1 0.620858 0.162316 0.121663
Si Si2 0.687056 0.619493 0.924234
Si Si3 0.000000 0.849276 0.750000
Si Si4 0.879959 0.217332 0.626759
Si Si5 0.299753 0.965410 0.420060
Si Si6 0.500000 0.097664 0.750000
O O1 0.500000 0.155928 0.250000
O O2 0.654957 0.222594 0.136964
O O3 0.725374 0.124554 0.159983
O O4 0.588853 0.138978 0.848880
O O5 0.689864 0.676100 0.784098
O O6 0.717319 0.576909 0.709927
O O7 0.565260 0.616239 0.043413
O O8 0.092257 0.809623 0.641528
O O9 0.000000 0.218628 0.750000
O O10 0.422696 0.940832 0.412034
O O11 0.287956 0.988907 0.703129
#
# Coordination Sequence:
#
# PCOD9456309 Si02
#       6
#     8   8   4   8   8   4
#     4  10  22  38  64 102 143 180 228 283 357 449
#     4  10  24  40  66  99 134 186 234 300 352 427
#     4  10  21  40  68  84 136 176 230 287 354 416
#     4   9  20  39  60  95 133 183 231 279 353 423
#     4  11  26  45  71 103 138 188 247 303 367 424
#     4  10  23  40  68 100 142 182 230 299 364 438
#
# _framework density 24.524958000000002
#
# number of rings (size 3 to 8) (size 9 to 14) (size 15 to 20)
#    0.000    2.000    0.000    1.200   11.200    1.600 
#    3.600    1.000    0.000    0.000    0.000    0.000 
#    0.000    0.000    0.000    0.000    0.000    0.000 
#
# Total GULP energy -222714.223949 kJ/mol
# GULP energy per Si atom -5567.855599 kJ/mol
# Density = 2.446914 g / cm^3
# Si number density = 24.524958 Si / 1000 Ang^3
#
#
#
# Elastic Constant Matrix: (Units=GPa)
#
#
# Indices 1 2 3 4 5 6 
#
# 1 87.4784 39.3214 15.8392 0.0000 0.0000 0.0000
# 2 39.3214 149.1528 19.3663 0.0000 0.0000 0.0000
# 3 15.8392 19.3663 45.3390 0.0000 0.0000 0.0000
# 4 0.0000 0.0000 0.0000 -3.7511 0.0000 0.0000
# 5 0.0000 0.0000 0.0000 0.0000 37.1876 0.0000
# 6 0.0000 0.0000 0.0000 0.0000 0.0000 24.1568
#
#
#
# Elastic Compliance Matrix: (Units=1/GPa)
#
#
# Indices 1 2 3 4 5 6 
#
# 1 0.013437 -0.003105 -0.003368 0.000000 0.000000 0.000000
# 2 -0.003105 0.007816 -0.002254 0.000000 0.000000 0.000000
# 3 -0.003368 -0.002254 0.024195 0.000000 0.000000 0.000000
# 4 0.000000 0.000000 0.000000 -0.266588 0.000000 0.000000
# 5 0.000000 0.000000 0.000000 0.000000 0.026891 0.000000
# 6 0.000000 0.000000 0.000000 0.000000 0.000000 0.041396
#
#
# Mechanical properties :
#
#
# Convention : Reuss Voigt Hill
#
# Bulk Modulus (GPa) = 35.72110 47.89155 41.80632
# Shear Modulus (GPa) = -39.66104 25.34819 -7.15642
#
# Velocity S-wave (km/s) = -4.02577 3.21840 -1.71007
# Velocity P-wave (km/s) = 2.64807 5.77762 3.63102
#
# Compressibility (1/GPa) = 0.02799466
#
# Stress axis : x y z
#
# Youngs Moduli (GPa) = 74.42171 127.94654 41.33034
#
# Poissons Ratio (x) = 0.39729 0.13919
# Poissons Ratio (y) = 0.23109 0.09315
# Poissons Ratio (z) = 0.25064 0.28835
#
# Static dielectric constant tensor:
#      x y z
#    x 2.887740 0.000000 0.000000 
#    y 0.000000 1.934850 0.000000 
#    z 0.000000 0.000000 2.199140 
# 
# From -- ./inp_files/855.got.cif
#   From: 2010.05.17/outbox.cif.g08.bks.cpg/sg60_1_cif.got.tgz:855.got - 2010.06.03 14:59:27.
