data_PCOD9456422
_publ_section_title
;
Structure prediction by ZEFSAII (Michael W. Deem and Ramdas Pophale) SiO2 
 PCOD9456422
Probable space group: P B C N
;
_chemical_formula_sum "Si O2"
_cell_formula_units_Z 56
_cell_length_a 21.510571
_cell_length_b 14.140765
_cell_length_c 9.886313
_cell_angle_alpha 90.000000
_cell_angle_beta 90.000000
_cell_angle_gamma 90.000000
_cell_volume 3007.178446
_symmetry_space_group_name_H-M "P B C N"
_symmetry_group_IT_number 60
_symmetry_cell_setting 'orthorhombic'
loop_
_space_group_symop_operation_xyz
x,y,z
1/2-x,1/2-y,1/2+z
1/2+x,1/2-y,-z
-x,y,1/2-z
-x,-y,-z
1/2+x,1/2+y,1/2-z
1/2-x,1/2+y,z
x,-y,1/2+z
loop_
_atom_site_type_symbol
_atom_site_label
_atom_site_fract_x
_atom_site_fract_y
_atom_site_fract_z
Si Si1 0.212686 0.897303 0.949612
Si Si2 0.500000 0.889124 0.750000
Si Si3 0.120028 0.603396 0.094173
Si Si4 0.677917 0.229583 0.934912
Si Si5 0.373078 0.242805 0.854682
Si Si6 0.567283 0.096794 0.980894
Si Si7 0.500000 0.205841 0.750000
Si Si8 0.234884 0.076909 0.137490
O O1 0.267068 0.825805 0.992918
O O2 0.219725 0.982687 0.054141
O O3 0.152470 0.829837 0.941896
O O4 0.218677 0.933102 0.795492
O O5 0.435956 0.848325 0.681168
O O6 0.532419 0.933682 0.617524
O O7 0.102383 0.492980 0.081046
O O8 0.191914 0.605719 0.139550
O O9 0.120216 0.652516 0.949097
O O10 0.670673 0.214867 0.772219
O O11 0.616167 0.183240 0.999901
O O12 0.695021 0.340140 0.935066
O O13 0.439889 0.265207 0.790745
O O14 0.519673 0.139281 0.873470
#
# Coordination Sequence:
#
# PCOD9456422 Si02
#       8
#     8   4   8   8   8   8   4   8
#     4  11  23  42  62  93 123 167 208 262 316 375
#     4  12  25  36  54  97 132 160 211 246 306 385
#     4  12  23  36  60  92 128 170 197 256 312 382
#     4  10  22  40  63  89 122 165 211 254 315 376
#     4  10  23  39  64  89 123 169 209 257 313 380
#     4  11  23  36  60  87 130 162 206 251 307 381
#     4  10  21  42  58  85 124 174 203 248 316 375
#     4  11  25  40  64  91 129 162 209 262 320 371
#
# _framework density 18.622107
#
# number of rings (size 3 to 8) (size 9 to 14) (size 15 to 20)
#    0.000    1.143    4.286    1.714    6.000    0.000 
#    2.571    0.000    0.000    8.571    0.000    0.000 
#    0.000    0.000    0.000    0.000    0.000    0.000 
#
# Total GULP energy -311878.020619 kJ/mol
# GULP energy per Si atom -5569.250368 kJ/mol
# Density = 1.857972 g / cm^3
# Si number density = 18.622107 Si / 1000 Ang^3
#
#
#
# Elastic Constant Matrix: (Units=GPa)
#
#
# Indices 1 2 3 4 5 6 
#
# 1 90.6423 26.5425 20.7304 0.0000 0.0000 0.0000
# 2 26.5425 65.3285 32.9183 0.0000 0.0000 0.0000
# 3 20.7304 32.9183 68.3830 0.0000 0.0000 0.0000
# 4 0.0000 0.0000 0.0000 40.7252 0.0000 0.0000
# 5 0.0000 0.0000 0.0000 0.0000 38.6844 0.0000
# 6 0.0000 0.0000 0.0000 0.0000 0.0000 23.9027
#
#
#
# Elastic Compliance Matrix: (Units=1/GPa)
#
#
# Indices 1 2 3 4 5 6 
#
# 1 0.012688 -0.004247 -0.001802 0.000000 0.000000 0.000000
# 2 -0.004247 0.021631 -0.009125 0.000000 0.000000 0.000000
# 3 -0.001802 -0.009125 0.019562 0.000000 0.000000 0.000000
# 4 0.000000 0.000000 0.000000 0.024555 0.000000 0.000000
# 5 0.000000 0.000000 0.000000 0.000000 0.025850 0.000000
# 6 0.000000 0.000000 0.000000 0.000000 0.000000 0.041836
#
#
# Mechanical properties :
#
#
# Convention : Reuss Voigt Hill
#
# Bulk Modulus (GPa) = 42.49347 42.74845 42.62096
# Shear Modulus (GPa) = 27.12738 30.27332 28.70035
#
# Velocity S-wave (km/s) = 3.82085 4.03633 3.93007
# Velocity P-wave (km/s) = 6.50643 6.68791 6.59779
#
# Compressibility (1/GPa) = 0.02353303
#
# Stress axis : x y z
#
# Youngs Moduli (GPa) = 78.81364 46.23013 51.11830
#
# Poissons Ratio (x) = 0.19635 0.09211
# Poissons Ratio (y) = 0.33473 0.46646
# Poissons Ratio (z) = 0.14202 0.42186
#
# Static dielectric constant tensor:
#      x y z
#    x 1.699170 0.000000 0.000000 
#    y 0.000000 1.637820 0.000000 
#    z 0.000000 0.000000 1.665930 
# 
# From -- ./inp_files/7459.got.cif
#   From: 2010.05.17/outbox.cif.g08.bks.cpg/sg60_4_cif.got.tgz:7459.got - 2010.06.03 14:59:27.
