data_PCOD9456571
_publ_section_title
;
Structure prediction by ZEFSAII (Michael W. Deem and Ramdas Pophale) SiO2 
 PCOD9456571
Probable space group: P B C N
;
_chemical_formula_sum "Si O2"
_cell_formula_units_Z 64
_cell_length_a 22.265491
_cell_length_b 8.059956
_cell_length_c 14.144291
_cell_angle_alpha 90.000000
_cell_angle_beta 90.000000
_cell_angle_gamma 90.000000
_cell_volume 2538.318590
_symmetry_space_group_name_H-M "P B C N"
_symmetry_group_IT_number 60
_symmetry_cell_setting 'orthorhombic'
loop_
_space_group_symop_operation_xyz
x,y,z
1/2-x,1/2-y,1/2+z
1/2+x,1/2-y,-z
-x,y,1/2-z
-x,-y,-z
1/2+x,1/2+y,1/2-z
1/2-x,1/2+y,z
x,-y,1/2+z
loop_
_atom_site_type_symbol
_atom_site_label
_atom_site_fract_x
_atom_site_fract_y
_atom_site_fract_z
Si Si1 0.395349 0.880610 0.937195
Si Si2 0.869256 0.950817 0.310625
Si Si3 0.548054 0.729792 0.397019
Si Si4 0.890218 0.440900 0.250593
Si Si5 0.262973 0.212737 0.413867
Si Si6 0.645249 0.231176 0.474854
Si Si7 0.415063 0.608849 0.361005
Si Si8 0.744721 0.038506 0.729865
O O1 0.332359 0.781550 0.942256
O O2 0.410100 0.929997 0.829783
O O3 0.445861 0.783223 0.994578
O O4 0.381229 0.055680 0.990839
O O5 0.869938 0.780086 0.368055
O O6 0.800088 0.999613 0.296201
O O7 0.903473 0.092320 0.368590
O O8 0.899150 0.955792 0.206239
O O9 0.564705 0.891786 0.333910
O O10 0.484655 0.651830 0.370068
O O11 0.886089 0.266354 0.193098
O O12 0.820824 0.477742 0.274549
O O13 0.214894 0.255959 0.494051
O O14 0.255253 0.270077 0.303351
O O15 0.251824 0.020218 0.381201
O O16 0.614265 0.376505 0.537370
#
# Coordination Sequence:
#
# PCOD9456571 Si02
#       8
#     8   8   8   8   8   8   8   8
#     4  10  24  40  64 101 139 182 233 293 365 420
#     4  11  24  39  69 103 135 195 239 287 358 422
#     4  11  24  43  72 103 136 194 240 291 362 441
#     4   9  19  40  61  94 133 175 230 290 347 423
#     4  11  20  42  64  95 145 185 220 297 355 418
#     4  11  23  42  65 103 145 181 242 301 353 439
#     4  10  21  47  70  95 143 184 235 299 358 418
#     4  11  21  40  67  93 137 189 227 291 357 412
#
# _framework density 25.213540999999999
#
# number of rings (size 3 to 8) (size 9 to 14) (size 15 to 20)
#    0.000    1.500    5.000    2.250    3.500    4.500 
#    2.250    1.250    0.000    6.000    0.000    0.000 
#    0.000    0.000    0.000    0.000    0.000    0.000 
#
# Total GULP energy -357532.185525 kJ/mol
# GULP energy per Si atom -5586.440399 kJ/mol
# Density = 2.515615 g / cm^3
# Si number density = 25.213541 Si / 1000 Ang^3
#
#
#
# Elastic Constant Matrix: (Units=GPa)
#
#
# Indices 1 2 3 4 5 6 
#
# 1 72.6667 19.0463 31.7251 0.0000 0.0000 0.0000
# 2 19.0463 27.7193 28.7165 0.0000 0.0000 0.0000
# 3 31.7251 28.7165 58.3045 0.0000 0.0000 0.0000
# 4 0.0000 0.0000 0.0000 43.1849 0.0000 0.0000
# 5 0.0000 0.0000 0.0000 0.0000 9.6043 0.0000
# 6 0.0000 0.0000 0.0000 0.0000 0.0000 21.7696
#
#
#
# Elastic Compliance Matrix: (Units=1/GPa)
#
#
# Indices 1 2 3 4 5 6 
#
# 1 0.018334 -0.004620 -0.007701 0.000000 0.000000 0.000000
# 2 -0.004620 0.074826 -0.034340 0.000000 0.000000 0.000000
# 3 -0.007701 -0.034340 0.038255 0.000000 0.000000 0.000000
# 4 0.000000 0.000000 0.000000 0.023156 0.000000 0.000000
# 5 0.000000 0.000000 0.000000 0.000000 0.104120 0.000000
# 6 0.000000 0.000000 0.000000 0.000000 0.000000 0.045936
#
#
# Mechanical properties :
#
#
# Convention : Reuss Voigt Hill
#
# Bulk Modulus (GPa) = 26.25103 35.29626 30.77364
# Shear Modulus (GPa) = 12.17595 20.19194 16.18395
#
# Velocity S-wave (km/s) = 2.19991 2.83298 2.53627
# Velocity P-wave (km/s) = 4.10937 4.97296 4.56165
#
# Compressibility (1/GPa) = 0.03809374
#
# Stress axis : x y z
#
# Youngs Moduli (GPa) = 54.54222 13.36442 26.14057
#
# Poissons Ratio (x) = 0.06174 0.20130
# Poissons Ratio (y) = 0.25199 0.89766
# Poissons Ratio (z) = 0.42002 0.45893
#
# Static dielectric constant tensor:
#      x y z
#    x 1.996050 0.000000 0.000000 
#    y 0.000000 2.091450 0.000000 
#    z 0.000000 0.000000 2.028730 
# 
# From -- ./inp_files/17940.got.cif
#   From: 2010.05.17/outbox.cif.g08.bks.cpg/sg60_9_cif.got.tgz:17940.got - 2010.06.03 14:59:27.
