data_PCOD9456506
_publ_section_title
;
Structure prediction by ZEFSAII (Michael W. Deem and Ramdas Pophale) SiO2 
 PCOD9456506
Probable space group: P B C N
;
_chemical_formula_sum "Si O2"
_cell_formula_units_Z 52
_cell_length_a 11.352217
_cell_length_b 9.126174
_cell_length_c 25.652497
_cell_angle_alpha 90.000000
_cell_angle_beta 90.000000
_cell_angle_gamma 90.000000
_cell_volume 2657.657886
_symmetry_space_group_name_H-M "P B C N"
_symmetry_group_IT_number 60
_symmetry_cell_setting 'orthorhombic'
loop_
_space_group_symop_operation_xyz
x,y,z
1/2-x,1/2-y,1/2+z
1/2+x,1/2-y,-z
-x,y,1/2-z
-x,-y,-z
1/2+x,1/2+y,1/2-z
1/2-x,1/2+y,z
x,-y,1/2+z
loop_
_atom_site_type_symbol
_atom_site_label
_atom_site_fract_x
_atom_site_fract_y
_atom_site_fract_z
Si Si1 0.573012 0.385359 0.644556
Si Si2 0.622665 0.608045 0.845644
Si Si3 0.852514 0.813590 0.992587
Si Si4 0.752514 0.950968 0.558599
Si Si5 0.984818 0.631834 0.572047
Si Si6 0.686020 0.090402 0.397457
Si Si7 0.000000 0.003720 0.250000
O O1 0.484958 0.517675 0.628113
O O2 0.695082 0.409515 0.614753
O O3 0.522303 0.232540 0.623570
O O4 0.569189 0.400162 0.706978
O O5 0.738366 0.516178 0.860349
O O6 0.634672 0.771389 0.866414
O O7 0.588931 0.592773 0.784785
O O8 0.974432 0.742952 0.973352
O O9 0.773264 0.847469 0.941771
O O10 0.788497 0.690303 0.027030
O O11 0.850953 0.960737 0.026174
O O12 0.639127 0.055003 0.562937
O O13 0.084120 0.507807 0.577091
#
# Coordination Sequence:
#
# PCOD9456506 Si02
#       7
#     8   8   8   8   8   8   4
#     4  10  23  47  65  91 133 175 221 289 337 393
#     4  10  21  43  70  97 128 171 228 281 337 401
#     4  12  23  40  62 100 136 183 213 271 329 408
#     4  12  26  39  63  98 140 177 220 276 338 402
#     4  12  25  43  64 101 135 179 230 270 338 419
#     4  12  22  41  70  98 133 176 225 272 331 418
#     4   8  22  46  70  94 122 172 228 288 342 396
#
# _framework density 19.566099999999999
#
# number of rings (size 3 to 8) (size 9 to 14) (size 15 to 20)
#    0.923    0.000    6.154    0.462    2.154    0.615 
#    2.769    0.769    0.000    0.000    0.000    0.000 
#    0.000    0.000    0.000    0.000    0.000    0.000 
#
# Total GULP energy -290261.276797 kJ/mol
# GULP energy per Si atom -5581.947631 kJ/mol
# Density = 1.952157 g / cm^3
# Si number density = 19.566100 Si / 1000 Ang^3
#
#
#
# Elastic Constant Matrix: (Units=GPa)
#
#
# Indices 1 2 3 4 5 6 
#
# 1 77.7605 17.8610 24.1962 0.0000 0.0000 0.0000
# 2 17.8610 79.6754 19.7133 0.0000 0.0000 0.0000
# 3 24.1962 19.7133 106.2960 0.0000 0.0000 0.0000
# 4 0.0000 0.0000 0.0000 21.2857 0.0000 0.0000
# 5 0.0000 0.0000 0.0000 0.0000 34.2096 0.0000
# 6 0.0000 0.0000 0.0000 0.0000 0.0000 34.7083
#
#
#
# Elastic Compliance Matrix: (Units=1/GPa)
#
#
# Indices 1 2 3 4 5 6 
#
# 1 0.014306 -0.002517 -0.002790 0.000000 0.000000 0.000000
# 2 -0.002517 0.013597 -0.001949 0.000000 0.000000 0.000000
# 3 -0.002790 -0.001949 0.010404 0.000000 0.000000 0.000000
# 4 0.000000 0.000000 0.000000 0.046980 0.000000 0.000000
# 5 0.000000 0.000000 0.000000 0.000000 0.029232 0.000000
# 6 0.000000 0.000000 0.000000 0.000000 0.000000 0.028812
#
#
# Mechanical properties :
#
#
# Convention : Reuss Voigt Hill
#
# Bulk Modulus (GPa) = 42.02234 43.03033 42.52633
# Shear Modulus (GPa) = 30.16162 31.50481 30.83322
#
# Velocity S-wave (km/s) = 3.93048 4.01705 3.97400
# Velocity P-wave (km/s) = 6.49015 6.59967 6.54514
#
# Compressibility (1/GPa) = 0.02379686
#
# Stress axis : x y z
#
# Youngs Moduli (GPa) = 69.89990 73.54409 96.11558
#
# Poissons Ratio (x) = 0.18510 0.26814
# Poissons Ratio (y) = 0.17592 0.18731
# Poissons Ratio (z) = 0.19500 0.14332
#
# Static dielectric constant tensor:
#      x y z
#    x 1.704840 0.000000 0.000000 
#    y 0.000000 1.675910 0.000000 
#    z 0.000000 0.000000 1.682140 
# 
# From -- ./inp_files/25309.got.cif
#   From: 2010.05.17/outbox.cif.g08.bks.cpg/sg60_13_cif.got.tgz:25309.got - 2010.06.03 14:59:27.
