data_PCOD9456858
_publ_section_title
;
Structure prediction by ZEFSAII (Michael W. Deem and Ramdas Pophale) SiO2 
 PCOD9456858
Probable space group: P B C N
;
_chemical_formula_sum "Si O2"
_cell_formula_units_Z 64
_cell_length_a 5.793725
_cell_length_b 19.151288
_cell_length_c 25.292421
_cell_angle_alpha 90.000000
_cell_angle_beta 90.000000
_cell_angle_gamma 90.000000
_cell_volume 2806.378645
_symmetry_space_group_name_H-M "P B C N"
_symmetry_group_IT_number 60
_symmetry_cell_setting 'orthorhombic'
loop_
_space_group_symop_operation_xyz
x,y,z
1/2-x,1/2-y,1/2+z
1/2+x,1/2-y,-z
-x,y,1/2-z
-x,-y,-z
1/2+x,1/2+y,1/2-z
1/2-x,1/2+y,z
x,-y,1/2+z
loop_
_atom_site_type_symbol
_atom_site_label
_atom_site_fract_x
_atom_site_fract_y
_atom_site_fract_z
Si Si1 0.069464 0.584612 0.808186
Si Si2 0.238147 0.358784 0.530088
Si Si3 0.912756 0.675249 0.125914
Si Si4 0.596242 0.300052 0.191977
Si Si5 0.943040 0.744882 0.556835
Si Si6 0.775225 0.499162 0.436391
Si Si7 0.222465 0.974530 0.880385
Si Si8 0.770147 0.136572 0.892380
O O1 0.153123 0.665103 0.805878
O O2 0.249630 0.529866 0.832800
O O3 0.000000 0.562147 0.750000
O O4 0.862905 0.589058 0.849558
O O5 0.477967 0.318048 0.532158
O O6 0.239772 0.440885 0.518701
O O7 0.124082 0.348167 0.588322
O O8 0.106744 0.312109 0.487579
O O9 0.951562 0.719135 0.179154
O O10 0.770557 0.731796 0.091694
O O11 0.765390 0.605680 0.135839
O O12 0.500000 0.317657 0.250000
O O13 0.487229 0.340284 0.141588
O O14 0.137355 0.706689 0.591530
O O15 0.537132 0.519295 0.403710
O O16 0.725990 0.416491 0.442025
O O17 0.044255 0.509113 0.416164
#
# Coordination Sequence:
#
# PCOD9456858 Si02
#       8
#     8   8   8   8   8   8   8   8
#     4  11  22  39  64  92 126 173 222 275 336 408
#     4  11  23  39  65  95 130 177 229 272 340 408
#     4  11  23  40  63  94 133 175 218 281 337 402
#     4  12  23  38  66  95 129 170 225 280 343 406
#     4  12  22  38  67  94 131 176 227 274 342 410
#     4  10  22  41  65  94 131 173 218 272 330 395
#     4  10  22  40  66  92 130 175 219 267 334 399
#     4  11  23  39  64  93 130 174 218 276 344 400
#
# _framework density 22.805191000000001
#
# number of rings (size 3 to 8) (size 9 to 14) (size 15 to 20)
#    0.000    1.000    7.500    0.000    0.000    1.000 
#    0.000    0.000    0.000    6.750    0.000    0.000 
#    0.000    0.000    0.000    0.000    0.000    0.000 
#
# Total GULP energy -356443.437781 kJ/mol
# GULP energy per Si atom -5569.428715 kJ/mol
# Density = 2.275329 g / cm^3
# Si number density = 22.805191 Si / 1000 Ang^3
#
#
#
# Elastic Constant Matrix: (Units=GPa)
#
#
# Indices 1 2 3 4 5 6 
#
# 1 71.1632 20.3474 19.7030 0.0000 0.0000 0.0000
# 2 20.3474 134.6891 25.8787 0.0000 0.0000 0.0000
# 3 19.7030 25.8787 55.1763 0.0000 0.0000 0.0000
# 4 0.0000 0.0000 0.0000 26.6458 0.0000 0.0000
# 5 0.0000 0.0000 0.0000 0.0000 29.6632 0.0000
# 6 0.0000 0.0000 0.0000 0.0000 0.0000 15.7495
#
#
#
# Elastic Compliance Matrix: (Units=1/GPa)
#
#
# Indices 1 2 3 4 5 6 
#
# 1 0.015843 -0.001436 -0.004984 0.000000 0.000000 0.000000
# 2 -0.001436 0.008290 -0.003375 0.000000 0.000000 0.000000
# 3 -0.004984 -0.003375 0.021487 0.000000 0.000000 0.000000
# 4 0.000000 0.000000 0.000000 0.037529 0.000000 0.000000
# 5 0.000000 0.000000 0.000000 0.000000 0.033712 0.000000
# 6 0.000000 0.000000 0.000000 0.000000 0.000000 0.063494
#
#
# Mechanical properties :
#
#
# Convention : Reuss Voigt Hill
#
# Bulk Modulus (GPa) = 38.41868 43.65407 41.03638
# Shear Modulus (GPa) = 23.96696 27.41837 25.69266
#
# Velocity S-wave (km/s) = 3.24534 3.47116 3.36015
# Velocity P-wave (km/s) = 5.56112 5.93709 5.75218
#
# Compressibility (1/GPa) = 0.02602901
#
# Stress axis : x y z
#
# Youngs Moduli (GPa) = 63.12088 120.62808 46.54077
#
# Poissons Ratio (x) = 0.17319 0.23195
# Poissons Ratio (y) = 0.09063 0.15710
# Poissons Ratio (z) = 0.31459 0.40717
#
# Static dielectric constant tensor:
#      x y z
#    x 1.918550 0.000000 0.000000 
#    y 0.000000 1.918440 0.000000 
#    z 0.000000 0.000000 1.931710 
# 
# From -- ./inp_files/25810.got.cif
#   From: 2010.05.17/outbox.cif.g08.bks.cpg/sg60_13_cif.got.tgz:25810.got - 2010.06.03 14:59:27.
