data_PCOD9456211
_publ_section_title
;
Structure prediction by ZEFSAII (Michael W. Deem and Ramdas Pophale) SiO2 
 PCOD9456211
Probable space group: P B C N
;
_chemical_formula_sum "Si O2"
_cell_formula_units_Z 56
_cell_length_a 5.639583
_cell_length_b 13.673533
_cell_length_c 29.818949
_cell_angle_alpha 90.000000
_cell_angle_beta 90.000000
_cell_angle_gamma 90.000000
_cell_volume 2299.429338
_symmetry_space_group_name_H-M "P B C N"
_symmetry_group_IT_number 60
_symmetry_cell_setting 'orthorhombic'
loop_
_space_group_symop_operation_xyz
x,y,z
1/2-x,1/2-y,1/2+z
1/2+x,1/2-y,-z
-x,y,1/2-z
-x,-y,-z
1/2+x,1/2+y,1/2-z
1/2-x,1/2+y,z
x,-y,1/2+z
loop_
_atom_site_type_symbol
_atom_site_label
_atom_site_fract_x
_atom_site_fract_y
_atom_site_fract_z
Si Si1 0.516982 0.379672 0.403602
Si Si2 0.442326 0.390209 0.593914
Si Si3 0.642290 0.695128 0.502184
Si Si4 0.591144 0.108812 0.850946
Si Si5 0.564558 0.889871 0.639520
Si Si6 0.265343 0.452268 0.240375
Si Si7 0.709368 0.282902 0.185137
O O1 0.533302 0.494712 0.398796
O O2 0.394009 0.354606 0.449650
O O3 0.797542 0.356086 0.397662
O O4 0.400495 0.328744 0.360679
O O5 0.402226 0.369928 0.541661
O O6 0.705904 0.357376 0.609945
O O7 0.193604 0.363979 0.618919
O O8 0.413753 0.767968 0.500767
O O9 0.767702 0.072588 0.811890
O O10 0.483744 0.204661 0.827688
O O11 0.438563 0.008660 0.856463
O O12 0.607417 0.826234 0.684860
O O13 0.500000 0.515304 0.250000
O O14 0.296879 0.356357 0.272556
O O15 0.000000 0.488821 0.250000
#
# Coordination Sequence:
#
# PCOD9456211 Si02
#       7
#     8   8   8   8   8   8   8
#     4  11  23  41  72  92 138 185 227 284 355 409
#     4  11  24  46  63 103 136 177 235 286 345 414
#     4  12  27  43  65 100 136 181 232 289 343 414
#     4  10  23  44  68 105 137 185 230 285 350 406
#     4  11  25  41  72 101 142 177 237 282 339 422
#     4  10  21  39  68  95 135 175 219 275 333 405
#     4  11  22  41  70  99 139 187 226 281 351 407
#
# _framework density 24.353869
#
# number of rings (size 3 to 8) (size 9 to 14) (size 15 to 20)
#    0.000    1.143    2.857    3.000    6.000    0.000 
#    0.000    5.714    0.000    9.429    0.000    0.000 
#    0.000    0.000    0.000    0.000    0.000    0.000 
#
# Total GULP energy -311864.943667 kJ/mol
# GULP energy per Si atom -5569.016851 kJ/mol
# Density = 2.429844 g / cm^3
# Si number density = 24.353869 Si / 1000 Ang^3
#
#
#
# Elastic Constant Matrix: (Units=GPa)
#
#
# Indices 1 2 3 4 5 6 
#
# 1 138.5315 13.8652 27.7317 0.0000 0.0000 0.0000
# 2 13.8652 69.5304 6.0043 0.0000 0.0000 0.0000
# 3 27.7317 6.0043 85.5354 0.0000 0.0000 0.0000
# 4 0.0000 0.0000 0.0000 37.4757 0.0000 0.0000
# 5 0.0000 0.0000 0.0000 0.0000 33.7180 0.0000
# 6 0.0000 0.0000 0.0000 0.0000 0.0000 5.8957
#
#
#
# Elastic Compliance Matrix: (Units=1/GPa)
#
#
# Indices 1 2 3 4 5 6 
#
# 1 0.007844 -0.001353 -0.002448 0.000000 0.000000 0.000000
# 2 -0.001353 0.014703 -0.000594 0.000000 0.000000 0.000000
# 3 -0.002448 -0.000594 0.012526 0.000000 0.000000 0.000000
# 4 0.000000 0.000000 0.000000 0.026684 0.000000 0.000000
# 5 0.000000 0.000000 0.000000 0.000000 0.029658 0.000000
# 6 0.000000 0.000000 0.000000 0.000000 0.000000 0.169615
#
#
# Mechanical properties :
#
#
# Convention : Reuss Voigt Hill
#
# Bulk Modulus (GPa) = 38.04487 43.19995 40.62241
# Shear Modulus (GPa) = 17.94809 31.81761 24.88285
#
# Velocity S-wave (km/s) = 2.71767 3.61843 3.19990
# Velocity P-wave (km/s) = 5.05007 5.93585 5.51079
#
# Compressibility (1/GPa) = 0.02628475
#
# Stress axis : x y z
#
# Youngs Moduli (GPa) = 127.48503 68.01232 79.83102
#
# Poissons Ratio (x) = 0.09201 0.19544
# Poissons Ratio (y) = 0.17246 0.04738
# Poissons Ratio (z) = 0.31211 0.04037
#
# Static dielectric constant tensor:
#      x y z
#    x 2.333430 0.000000 0.000000 
#    y 0.000000 1.980760 0.000000 
#    z 0.000000 0.000000 1.983730 
# 
# From -- ./inp_files/25702.got.cif
#   From: 2010.05.17/outbox.cif.g08.bks.cpg/sg60_13_cif.got.tgz:25702.got - 2010.06.03 14:59:27.
