data_PCOD9456348
_publ_section_title
;
Structure prediction by ZEFSAII (Michael W. Deem and Ramdas Pophale) SiO2 
 PCOD9456348
Probable space group: P B C N
;
_chemical_formula_sum "Si O2"
_cell_formula_units_Z 32
_cell_length_a 8.375929
_cell_length_b 20.123616
_cell_length_c 9.942074
_cell_angle_alpha 90.000000
_cell_angle_beta 90.000000
_cell_angle_gamma 90.000000
_cell_volume 1675.776131
_symmetry_space_group_name_H-M "P B C N"
_symmetry_group_IT_number 60
_symmetry_cell_setting 'orthorhombic'
loop_
_space_group_symop_operation_xyz
x,y,z
1/2-x,1/2-y,1/2+z
1/2+x,1/2-y,-z
-x,y,1/2-z
-x,-y,-z
1/2+x,1/2+y,1/2-z
1/2-x,1/2+y,z
x,-y,1/2+z
loop_
_atom_site_type_symbol
_atom_site_label
_atom_site_fract_x
_atom_site_fract_y
_atom_site_fract_z
Si Si1 0.456919 0.222151 0.408155
Si Si2 0.387402 0.476268 0.378916
Si Si3 0.314709 0.100877 0.297044
Si Si4 0.279284 0.346141 0.517933
O O1 0.500000 0.236030 0.250000
O O2 0.324782 0.163534 0.397845
O O3 0.401784 0.288324 0.480850
O O4 0.607118 0.189230 0.481993
O O5 0.500000 0.467611 0.250000
O O6 0.500000 0.500000 0.500000
O O7 0.259078 0.534263 0.354352
O O8 0.302354 0.407610 0.418353
O O9 0.500000 0.090387 0.250000
O O10 0.212007 0.123761 0.168139
#
# Coordination Sequence:
#
# PCOD9456348 Si02
#       4
#     8   8   8   8
#     4   9  21  40  64  88 129 161 212 259 317 384
#     4  12  24  41  67  94 128 168 215 264 319 383
#     4   9  22  43  62  91 131 169 209 266 322 380
#     4  10  21  41  63  92 125 166 208 262 317 372
#
# _framework density 19.095628000000001
#
# number of rings (size 3 to 8) (size 9 to 14) (size 15 to 20)
#    0.000    2.500    2.500    0.750    3.500    4.000 
#    0.000    0.000    0.000    0.000    0.000    0.000 
#    0.000    0.000    0.000    0.000    0.000    0.000 
#
# Total GULP energy -178524.598792 kJ/mol
# GULP energy per Si atom -5578.893712 kJ/mol
# Density = 1.905217 g / cm^3
# Si number density = 19.095628 Si / 1000 Ang^3
#
#
#
# Elastic Constant Matrix: (Units=GPa)
#
#
# Indices 1 2 3 4 5 6 
#
# 1 67.7483 73.7532 54.9677 0.0000 0.0000 0.0000
# 2 73.7532 190.1784 61.4050 0.0000 0.0000 0.0000
# 3 54.9677 61.4050 84.6797 0.0000 0.0000 0.0000
# 4 0.0000 0.0000 0.0000 66.0510 0.0000 0.0000
# 5 0.0000 0.0000 0.0000 0.0000 27.8496 0.0000
# 6 0.0000 0.0000 0.0000 0.0000 0.0000 42.1027
#
#
#
# Elastic Compliance Matrix: (Units=1/GPa)
#
#
# Indices 1 2 3 4 5 6 
#
# 1 0.041356 -0.009624 -0.019867 0.000000 0.000000 0.000000
# 2 -0.009624 0.009105 -0.000356 0.000000 0.000000 0.000000
# 3 -0.019867 -0.000356 0.024963 0.000000 0.000000 0.000000
# 4 0.000000 0.000000 0.000000 0.015140 0.000000 0.000000
# 5 0.000000 0.000000 0.000000 0.000000 0.035907 0.000000
# 6 0.000000 0.000000 0.000000 0.000000 0.000000 0.023751
#
#
# Mechanical properties :
#
#
# Convention : Reuss Voigt Hill
#
# Bulk Modulus (GPa) = 63.56337 80.31757 71.94047
# Shear Modulus (GPa) = 23.23860 37.36604 30.30232
#
# Velocity S-wave (km/s) = 3.49228 4.42836 3.98788
# Velocity P-wave (km/s) = 7.04418 8.26433 7.67853
#
# Compressibility (1/GPa) = 0.01573233
#
# Stress axis : x y z
#
# Youngs Moduli (GPa) = 24.18011 109.82697 40.05920
#
# Poissons Ratio (x) = 1.05695 0.79585
# Poissons Ratio (y) = 0.23270 0.01424
# Poissons Ratio (z) = 0.48038 0.03905
#
# Static dielectric constant tensor:
#      x y z
#    x 1.673700 0.000000 0.000000 
#    y 0.000000 1.652340 0.000000 
#    z 0.000000 0.000000 1.684690 
# 
# From -- ./inp_files/3577.got.cif
#   From: 2010.05.17/outbox.cif.g08.bks.cpg/sg60_2_cif.got.tgz:3577.got - 2010.06.03 14:59:27.
