data_PCOD9456543
_publ_section_title
;
Structure prediction by ZEFSAII (Michael W. Deem and Ramdas Pophale) SiO2 
 PCOD9456543
Probable space group: P B C N
;
_chemical_formula_sum "Si O2"
_cell_formula_units_Z 48
_cell_length_a 18.606265
_cell_length_b 14.694961
_cell_length_c 8.225962
_cell_angle_alpha 90.000000
_cell_angle_beta 90.000000
_cell_angle_gamma 90.000000
_cell_volume 2249.128863
_symmetry_space_group_name_H-M "P B C N"
_symmetry_group_IT_number 60
_symmetry_cell_setting 'orthorhombic'
loop_
_space_group_symop_operation_xyz
x,y,z
1/2-x,1/2-y,1/2+z
1/2+x,1/2-y,-z
-x,y,1/2-z
-x,-y,-z
1/2+x,1/2+y,1/2-z
1/2-x,1/2+y,z
x,-y,1/2+z
loop_
_atom_site_type_symbol
_atom_site_label
_atom_site_fract_x
_atom_site_fract_y
_atom_site_fract_z
Si Si1 0.079726 0.073014 0.325878
Si Si2 0.826691 0.285713 0.638688
Si Si3 0.551237 0.868188 0.094669
Si Si4 0.665526 0.258573 0.760259
Si Si5 0.917721 0.123713 0.792869
Si Si6 0.061797 0.429956 0.868393
O O1 0.127194 0.144239 0.228022
O O2 0.083884 0.102064 0.514520
O O3 0.000000 0.078628 0.250000
O O4 0.102952 0.969223 0.300369
O O5 0.744481 0.275848 0.690527
O O6 0.831822 0.282637 0.441784
O O7 0.868470 0.204681 0.729498
O O8 0.867860 0.378418 0.689267
O O9 0.500000 0.857175 0.250000
O O10 0.617798 0.802931 0.135907
O O11 0.580676 0.970964 0.056805
O O12 0.488583 0.855580 0.960664
O O13 0.000000 0.144988 0.750000
O O14 0.000000 0.463834 0.750000
#
# Coordination Sequence:
#
# PCOD9456543 Si02
#       6
#     8   8   8   8   8   8
#     4  11  23  42  68  96 127 170 216 270 323 388
#     4  12  26  43  62  97 134 178 218 271 332 397
#     4  10  21  44  68  97 124 172 217 274 324 389
#     4  12  26  42  64  93 136 174 219 268 337 390
#     4  11  23  42  67  96 127 167 220 267 323 385
#     4  10  23  40  71  97 128 164 225 268 327 392
#
# _framework density 21.341597
#
# number of rings (size 3 to 8) (size 9 to 14) (size 15 to 20)
#    0.000    1.000    1.667    6.000    7.000    1.333 
#    0.000    3.333    0.000    0.000    0.000    0.000 
#    0.000    0.000    0.000    0.000    0.000    0.000 
#
# Total GULP energy -267681.667224 kJ/mol
# GULP energy per Si atom -5576.701401 kJ/mol
# Density = 2.129302 g / cm^3
# Si number density = 21.341597 Si / 1000 Ang^3
#
#
#
# Elastic Constant Matrix: (Units=GPa)
#
#
# Indices 1 2 3 4 5 6 
#
# 1 111.9030 70.4984 -5.6339 0.0000 0.0000 0.0000
# 2 70.4984 118.3823 1.5196 0.0000 0.0000 0.0000
# 3 -5.6339 1.5196 37.3094 0.0000 0.0000 0.0000
# 4 0.0000 0.0000 0.0000 27.4882 0.0000 0.0000
# 5 0.0000 0.0000 0.0000 0.0000 27.7655 0.0000
# 6 0.0000 0.0000 0.0000 0.0000 0.0000 -122.4942
#
#
#
# Elastic Compliance Matrix: (Units=1/GPa)
#
#
# Indices 1 2 3 4 5 6 
#
# 1 0.014540 -0.008692 0.002550 0.000000 0.000000 0.000000
# 2 -0.008692 0.013647 -0.001868 0.000000 0.000000 0.000000
# 3 0.002550 -0.001868 0.027264 0.000000 0.000000 0.000000
# 4 0.000000 0.000000 0.000000 0.036379 0.000000 0.000000
# 5 0.000000 0.000000 0.000000 0.000000 0.036016 0.000000
# 6 0.000000 0.000000 0.000000 0.000000 0.000000 -0.008164
#
#
# Mechanical properties :
#
#
# Convention : Reuss Voigt Hill
#
# Bulk Modulus (GPa) = 25.36086 44.48478 34.92282
# Shear Modulus (GPa) = 33.59137 -0.03407 16.77865
#
# Velocity S-wave (km/s) = 3.97165 -0.12648 2.80696
# Velocity P-wave (km/s) = 5.73944 4.56816 5.18697
#
# Compressibility (1/GPa) = 0.03943083
#
# Stress axis : x y z
#
# Youngs Moduli (GPa) = 68.77360 73.27475 36.67840
#
# Poissons Ratio (x) = 0.63689 -0.09352
# Poissons Ratio (y) = 0.59777 0.06853
# Poissons Ratio (z) = -0.17535 0.13690
#
# Static dielectric constant tensor:
#      x y z
#    x 1.306550 0.000000 0.000000 
#    y 0.000000 1.790900 0.000000 
#    z 0.000000 0.000000 1.920060 
# 
# From -- ./inp_files/6700.got.cif
#   From: 2010.05.17/outbox.cif.g08.bks.cpg/sg60_4_cif.got.tgz:6700.got - 2010.06.03 14:59:27.
