data_PCOD9456316
_publ_section_title
;
Structure prediction by ZEFSAII (Michael W. Deem and Ramdas Pophale) SiO2 
 PCOD9456316
Probable space group: P B C N
;
_chemical_formula_sum "Si O2"
_cell_formula_units_Z 60
_cell_length_a 16.849431
_cell_length_b 11.592935
_cell_length_c 14.980471
_cell_angle_alpha 90.000000
_cell_angle_beta 90.000000
_cell_angle_gamma 90.000000
_cell_volume 2926.200691
_symmetry_space_group_name_H-M "P B C N"
_symmetry_group_IT_number 60
_symmetry_cell_setting 'orthorhombic'
loop_
_space_group_symop_operation_xyz
x,y,z
1/2-x,1/2-y,1/2+z
1/2+x,1/2-y,-z
-x,y,1/2-z
-x,-y,-z
1/2+x,1/2+y,1/2-z
1/2-x,1/2+y,z
x,-y,1/2+z
loop_
_atom_site_type_symbol
_atom_site_label
_atom_site_fract_x
_atom_site_fract_y
_atom_site_fract_z
Si Si1 0.406061 0.218736 0.632291
Si Si2 0.044106 0.568642 0.924476
Si Si3 0.295884 0.942810 0.237525
Si Si4 0.322377 0.773125 0.407295
Si Si5 0.144513 0.981970 0.838207
Si Si6 0.500000 0.401235 0.750000
Si Si7 0.587956 0.129276 0.207317
Si Si8 0.649521 0.297274 0.057476
O O1 0.479583 0.130820 0.636841
O O2 0.328553 0.145123 0.661770
O O3 0.436596 0.321900 0.695998
O O4 0.398500 0.261532 0.530214
O O5 0.104779 0.666411 0.957983
O O6 0.083125 0.467766 0.868597
O O7 0.000000 0.500000 0.000000
O O8 0.311649 0.861454 0.324443
O O9 0.205310 0.981676 0.258556
O O10 0.347472 0.062227 0.230506
O O11 0.339344 0.647938 0.368949
O O12 0.240581 0.762975 0.459193
O O13 0.153288 0.067815 0.921094
O O14 0.053314 0.981806 0.810843
O O15 0.500000 0.146296 0.250000
O O16 0.620167 0.238161 0.150651
#
# Coordination Sequence:
#
# PCOD9456316 Si02
#       8
#     8   8   8   8   8   4   8   8
#     4  12  22  43  68 102 129 178 243 281 340 424
#     4  11  21  38  65  98 129 169 228 292 333 398
#     4  10  21  40  69  92 127 177 229 279 339 413
#     4  10  21  44  66  90 132 182 218 277 348 421
#     4  11  23  44  67  93 137 189 228 282 361 421
#     4  12  24  46  72  94 138 192 236 272 350 446
#     4  11  20  36  63  98 131 169 220 278 346 404
#     4  11  26  40  64 101 141 175 226 291 356 414
#
# _framework density 20.504403
#
# number of rings (size 3 to 8) (size 9 to 14) (size 15 to 20)
#    0.000    1.067    6.667    0.800    0.933    0.533 
#    4.800    2.667    0.000    0.000    0.000    0.000 
#    0.000    0.000    0.000    0.000    0.000    0.000 
#
# Total GULP energy -334156.580375 kJ/mol
# GULP energy per Si atom -5569.276340 kJ/mol
# Density = 2.045773 g / cm^3
# Si number density = 20.504403 Si / 1000 Ang^3
#
#
#
# Elastic Constant Matrix: (Units=GPa)
#
#
# Indices 1 2 3 4 5 6 
#
# 1 81.1768 44.9021 15.7319 0.0000 0.0000 0.0000
# 2 44.9021 66.9443 15.8412 0.0000 0.0000 0.0000
# 3 15.7319 15.8412 40.2280 0.0000 0.0000 0.0000
# 4 0.0000 0.0000 0.0000 15.8316 0.0000 0.0000
# 5 0.0000 0.0000 0.0000 0.0000 22.7525 0.0000
# 6 0.0000 0.0000 0.0000 0.0000 0.0000 -64.1403
#
#
#
# Elastic Compliance Matrix: (Units=1/GPa)
#
#
# Indices 1 2 3 4 5 6 
#
# 1 0.019863 -0.012665 -0.002781 0.000000 0.000000 0.000000
# 2 -0.012665 0.024548 -0.004714 0.000000 0.000000 0.000000
# 3 -0.002781 -0.004714 0.027802 0.000000 0.000000 0.000000
# 4 0.000000 0.000000 0.000000 0.063165 0.000000 0.000000
# 5 0.000000 0.000000 0.000000 0.000000 0.043951 0.000000
# 6 0.000000 0.000000 0.000000 0.000000 0.000000 -0.015591
#
#
# Mechanical properties :
#
#
# Convention : Reuss Voigt Hill
#
# Bulk Modulus (GPa) = 31.35339 37.92215 34.63777
# Shear Modulus (GPa) = 23.28948 2.34699 12.81824
#
# Velocity S-wave (km/s) = 3.37386 1.07103 2.50300
# Velocity P-wave (km/s) = 5.52282 4.47932 5.02821
#
# Compressibility (1/GPa) = 0.03189448
#
# Stress axis : x y z
#
# Youngs Moduli (GPa) = 50.34435 40.73620 35.96868
#
# Poissons Ratio (x) = 0.51593 0.10001
# Poissons Ratio (y) = 0.63761 0.16955
# Poissons Ratio (z) = 0.13998 0.19202
#
# Static dielectric constant tensor:
#      x y z
#    x 1.825820 0.000000 0.000000 
#    y 0.000000 1.735680 0.000000 
#    z 0.000000 0.000000 1.808330 
# 
# From -- ./inp_files/17458.got.cif
#   From: 2010.05.17/outbox.cif.g08.bks.cpg/sg60_9_cif.got.tgz:17458.got - 2010.06.03 14:59:27.
