data_PCOD9456712
_publ_section_title
;
Structure prediction by ZEFSAII (Michael W. Deem and Ramdas Pophale) SiO2 
 PCOD9456712
Probable space group: P B C N
;
_chemical_formula_sum "Si O2"
_cell_formula_units_Z 64
_cell_length_a 22.768831
_cell_length_b 13.966131
_cell_length_c 8.847843
_cell_angle_alpha 90.000000
_cell_angle_beta 90.000000
_cell_angle_gamma 90.000000
_cell_volume 2813.547507
_symmetry_space_group_name_H-M "P B C N"
_symmetry_group_IT_number 60
_symmetry_cell_setting 'orthorhombic'
loop_
_space_group_symop_operation_xyz
x,y,z
1/2-x,1/2-y,1/2+z
1/2+x,1/2-y,-z
-x,y,1/2-z
-x,-y,-z
1/2+x,1/2+y,1/2-z
1/2-x,1/2+y,z
x,-y,1/2+z
loop_
_atom_site_type_symbol
_atom_site_label
_atom_site_fract_x
_atom_site_fract_y
_atom_site_fract_z
Si Si1 0.562718 0.712029 0.164321
Si Si2 0.507881 0.220884 0.087971
Si Si3 0.849038 0.573728 0.341173
Si Si4 0.909002 0.622750 0.881769
Si Si5 0.808612 0.140177 0.135480
Si Si6 0.870948 0.743888 0.144609
Si Si7 0.761887 0.203013 0.809552
Si Si8 0.772427 0.532858 0.625469
O O1 0.500000 0.687366 0.250000
O O2 0.583446 0.815678 0.229814
O O3 0.621914 0.649092 0.170346
O O4 0.543048 0.722380 0.991923
O O5 0.500000 0.176072 0.250000
O O6 0.530580 0.140460 0.972733
O O7 0.434661 0.288981 0.385853
O O8 0.893685 0.487600 0.371527
O O9 0.875373 0.674422 0.291494
O O10 0.800868 0.575571 0.474251
O O11 0.817624 0.545205 0.186148
O O12 0.864330 0.683111 0.989597
O O13 0.773687 0.201140 0.264569
O O14 0.786720 0.030231 0.118570
O O15 0.788236 0.190237 0.976849
O O16 0.815064 0.804620 0.186569
O O17 0.725314 0.110619 0.759213
#
# Coordination Sequence:
#
# PCOD9456712 Si02
#       8
#     8   8   8   8   8   8   8   8
#     4  10  22  43  70  92 133 183 225 283 334 398
#     4   9  19  40  62  91 127 172 233 272 320 405
#     4  12  20  43  57  95 133 172 207 283 331 413
#     4   9  21  38  62  89 125 174 223 263 337 396
#     4  12  26  42  67 106 132 181 232 270 358 417
#     4  10  22  38  66  89 128 174 225 264 345 396
#     4  12  25  42  67 102 138 174 220 289 350 414
#     4  12  25  39  64  93 147 165 219 275 343 420
#
# _framework density 22.747083
#
# number of rings (size 3 to 8) (size 9 to 14) (size 15 to 20)
#    0.750    0.500    3.750    2.250    1.750    1.000 
#    0.000    3.125    0.000    3.750    0.000    0.000 
#    0.000    0.000    0.000    0.000    0.000    0.000 
#
# Total GULP energy -356552.690394 kJ/mol
# GULP energy per Si atom -5571.135787 kJ/mol
# Density = 2.269531 g / cm^3
# Si number density = 22.747083 Si / 1000 Ang^3
#
#
#
# Elastic Constant Matrix: (Units=GPa)
#
#
# Indices 1 2 3 4 5 6 
#
# 1 99.9559 18.4482 27.5609 0.0000 0.0000 0.0000
# 2 18.4482 28.7897 2.7308 0.0000 0.0000 0.0000
# 3 27.5609 2.7308 91.7409 0.0000 0.0000 0.0000
# 4 0.0000 0.0000 0.0000 17.1044 0.0000 0.0000
# 5 0.0000 0.0000 0.0000 0.0000 40.3335 0.0000
# 6 0.0000 0.0000 0.0000 0.0000 0.0000 27.7538
#
#
#
# Elastic Compliance Matrix: (Units=1/GPa)
#
#
# Indices 1 2 3 4 5 6 
#
# 1 0.012368 -0.007594 -0.003490 0.000000 0.000000 0.000000
# 2 -0.007594 0.039496 0.001106 0.000000 0.000000 0.000000
# 3 -0.003490 0.001106 0.011916 0.000000 0.000000 0.000000
# 4 0.000000 0.000000 0.000000 0.058465 0.000000 0.000000
# 5 0.000000 0.000000 0.000000 0.000000 0.024793 0.000000
# 6 0.000000 0.000000 0.000000 0.000000 0.000000 0.036031
#
#
# Mechanical properties :
#
#
# Convention : Reuss Voigt Hill
#
# Bulk Modulus (GPa) = 22.81869 35.32958 29.07414
# Shear Modulus (GPa) = 22.97441 28.48811 25.73126
#
# Velocity S-wave (km/s) = 3.18149 3.54274 3.36696
# Velocity P-wave (km/s) = 4.85274 5.68330 5.28436
#
# Compressibility (1/GPa) = 0.04382373
#
# Stress axis : x y z
#
# Youngs Moduli (GPa) = 80.85204 25.31890 83.92285
#
# Poissons Ratio (x) = 0.19228 0.29286
# Poissons Ratio (y) = 0.61403 -0.09281
# Poissons Ratio (z) = 0.28214 -0.02800
#
# Static dielectric constant tensor:
#      x y z
#    x 2.017290 0.000000 0.000000 
#    y 0.000000 1.834380 0.000000 
#    z 0.000000 0.000000 1.885520 
# 
# From -- ./inp_files/7991.got.cif
#   From: 2010.05.17/outbox.cif.g08.bks.cpg/sg60_4_cif.got.tgz:7991.got - 2010.06.03 14:59:27.
