data_PCOD9456337
_publ_section_title
;
Structure prediction by ZEFSAII (Michael W. Deem and Ramdas Pophale) SiO2 
 PCOD9456337
Probable space group: P B C N
;
_chemical_formula_sum "Si O2"
_cell_formula_units_Z 48
_cell_length_a 9.725212
_cell_length_b 26.324466
_cell_length_c 9.132163
_cell_angle_alpha 90.000000
_cell_angle_beta 90.000000
_cell_angle_gamma 90.000000
_cell_volume 2337.934297
_symmetry_space_group_name_H-M "P B C N"
_symmetry_group_IT_number 60
_symmetry_cell_setting 'orthorhombic'
loop_
_space_group_symop_operation_xyz
x,y,z
1/2-x,1/2-y,1/2+z
1/2+x,1/2-y,-z
-x,y,1/2-z
-x,-y,-z
1/2+x,1/2+y,1/2-z
1/2-x,1/2+y,z
x,-y,1/2+z
loop_
_atom_site_type_symbol
_atom_site_label
_atom_site_fract_x
_atom_site_fract_y
_atom_site_fract_z
Si Si1 0.500000 0.498807 0.250000
Si Si2 0.514323 0.204856 0.503243
Si Si3 0.930959 0.599738 0.397523
Si Si4 0.621207 0.942747 0.351967
Si Si5 0.500000 0.287173 0.250000
Si Si6 0.701295 0.169371 0.770314
Si Si7 0.312240 0.468624 0.509963
O O1 0.377334 0.471097 0.345632
O O2 0.562706 0.532622 0.377586
O O3 0.568480 0.160108 0.398702
O O4 0.502109 0.253422 0.399252
O O5 0.620780 0.198938 0.639728
O O6 0.368593 0.190918 0.580416
O O7 0.786413 0.577139 0.446605
O O8 0.000000 0.581025 0.250000
O O9 0.035829 0.581558 0.518568
O O10 0.500000 0.966954 0.250000
O O11 0.676789 0.891746 0.270744
O O12 0.725689 0.981536 0.433076
O O13 0.638772 0.319625 0.256083
#
# Coordination Sequence:
#
# PCOD9456337 Si02
#       7
#     4   8   8   8   4   8   8
#     4  10  24  39  52  84 128 172 200 253 312 386
#     4  10  21  41  62  90 124 158 204 267 307 371
#     4  11  20  36  62  91 117 152 211 267 305 356
#     4  11  20  38  63  90 119 158 214 265 299 376
#     4  12  22  39  68  92 122 164 200 259 332 378
#     4  10  22  40  62  91 126 160 205 254 325 377
#     4  11  22  38  61  86 124 171 209 252 318 370
#
# _framework density 20.530944999999999
#
# number of rings (size 3 to 8) (size 9 to 14) (size 15 to 20)
#    0.000    1.333    4.167    4.000    0.000    0.667 
#    3.000    0.000    0.000    0.000    0.000    0.000 
#    0.000    0.000    0.000    0.000    0.000    0.000 
#
# Total GULP energy -267301.171746 kJ/mol
# GULP energy per Si atom -5568.774411 kJ/mol
# Density = 2.048422 g / cm^3
# Si number density = 20.530945 Si / 1000 Ang^3
#
#
#
# Elastic Constant Matrix: (Units=GPa)
#
#
# Indices 1 2 3 4 5 6 
#
# 1 135.4278 38.6800 38.1709 0.0000 0.0000 0.0000
# 2 38.6800 56.1212 21.7075 0.0000 0.0000 0.0000
# 3 38.1709 21.7075 120.3727 0.0000 0.0000 0.0000
# 4 0.0000 0.0000 0.0000 25.7153 0.0000 0.0000
# 5 0.0000 0.0000 0.0000 0.0000 37.7415 0.0000
# 6 0.0000 0.0000 0.0000 0.0000 0.0000 12.3358
#
#
#
# Elastic Compliance Matrix: (Units=1/GPa)
#
#
# Indices 1 2 3 4 5 6 
#
# 1 0.009619 -0.005859 -0.001994 0.000000 0.000000 0.000000
# 2 -0.005859 0.022723 -0.002240 0.000000 0.000000 0.000000
# 3 -0.001994 -0.002240 0.009344 0.000000 0.000000 0.000000
# 4 0.000000 0.000000 0.000000 0.038887 0.000000 0.000000
# 5 0.000000 0.000000 0.000000 0.000000 0.026496 0.000000
# 6 0.000000 0.000000 0.000000 0.000000 0.000000 0.081065
#
#
# Mechanical properties :
#
#
# Convention : Reuss Voigt Hill
#
# Bulk Modulus (GPa) = 46.50920 56.55984 51.53452
# Shear Modulus (GPa) = 23.20335 29.38274 26.29305
#
# Velocity S-wave (km/s) = 3.36544 3.78715 3.58251
# Velocity P-wave (km/s) = 6.14849 6.83606 6.50137
#
# Compressibility (1/GPa) = 0.02150112
#
# Stress axis : x y z
#
# Youngs Moduli (GPa) = 103.95791 44.00850 107.02374
#
# Poissons Ratio (x) = 0.25783 0.21338
# Poissons Ratio (y) = 0.60905 0.23973
# Poissons Ratio (z) = 0.20727 0.09858
#
# Static dielectric constant tensor:
#      x y z
#    x 1.755000 0.000000 0.000000 
#    y 0.000000 1.739710 0.000000 
#    z 0.000000 0.000000 1.800710 
# 
# From -- ./inp_files/4282.got.cif
#   From: 2010.05.17/outbox.cif.g08.bks.cpg/sg60_3_cif.got.tgz:4282.got - 2010.06.03 14:59:27.
