data_PCOD9456562
_publ_section_title
;
Structure prediction by ZEFSAII (Michael W. Deem and Ramdas Pophale) SiO2 
 PCOD9456562
Probable space group: P B C N
;
_chemical_formula_sum "Si O2"
_cell_formula_units_Z 56
_cell_length_a 9.839293
_cell_length_b 11.774701
_cell_length_c 19.999113
_cell_angle_alpha 90.000000
_cell_angle_beta 90.000000
_cell_angle_gamma 90.000000
_cell_volume 2316.991899
_symmetry_space_group_name_H-M "P B C N"
_symmetry_group_IT_number 60
_symmetry_cell_setting 'orthorhombic'
loop_
_space_group_symop_operation_xyz
x,y,z
1/2-x,1/2-y,1/2+z
1/2+x,1/2-y,-z
-x,y,1/2-z
-x,-y,-z
1/2+x,1/2+y,1/2-z
1/2-x,1/2+y,z
x,-y,1/2+z
loop_
_atom_site_type_symbol
_atom_site_label
_atom_site_fract_x
_atom_site_fract_y
_atom_site_fract_z
Si Si1 0.959372 0.731914 0.641378
Si Si2 0.478951 0.465704 0.922576
Si Si3 0.785216 0.201491 0.720956
Si Si4 0.390018 0.097113 0.080193
Si Si5 0.825509 0.472765 0.062870
Si Si6 0.444376 0.311066 0.143811
Si Si7 0.126985 0.531694 0.709880
O O1 0.014890 0.838146 0.600149
O O2 0.849488 0.767814 0.698013
O O3 0.871859 0.647242 0.594366
O O4 0.070152 0.648445 0.675148
O O5 0.316690 0.480817 0.911559
O O6 0.555400 0.558538 0.877282
O O7 0.500000 0.500000 0.000000
O O8 0.855411 0.222109 0.792008
O O9 0.733068 0.072049 0.734540
O O10 0.901216 0.214334 0.665886
O O11 0.394703 0.232308 0.083707
O O12 0.546606 0.054746 0.075968
O O13 0.333043 0.047463 0.149244
O O14 0.315393 0.047307 0.016503
O O15 0.000000 0.479877 0.750000
#
# Coordination Sequence:
#
# PCOD9456562 Si02
#       7
#     8   8   8   8   8   8   8
#     4  10  21  46  63  91 128 173 214 267 333 389
#     4  12  26  41  65  96 137 171 213 276 345 392
#     4  10  22  42  62  92 129 167 211 260 319 391
#     4  10  22  41  68  92 120 164 225 266 311 389
#     4  10  22  42  66  90 122 172 215 265 326 392
#     4  11  24  41  60  99 129 164 213 264 331 393
#     4   9  21  40  66  92 122 168 221 262 319 389
#
# _framework density 24.169270999999998
#
# number of rings (size 3 to 8) (size 9 to 14) (size 15 to 20)
#    0.000    1.714    1.429    1.714    4.000    2.286 
#    7.714    0.000    0.000    0.000    0.000    0.000 
#    0.000    0.000    0.000    0.000    0.000    0.000 
#
# Total GULP energy -313119.679022 kJ/mol
# GULP energy per Si atom -5591.422840 kJ/mol
# Density = 2.411426 g / cm^3
# Si number density = 24.169271 Si / 1000 Ang^3
#
#
#
# Elastic Constant Matrix: (Units=GPa)
#
#
# Indices 1 2 3 4 5 6 
#
# 1 70.4150 6.8411 -5.8114 0.0000 0.0000 0.0000
# 2 6.8411 92.2177 19.3237 0.0000 0.0000 0.0000
# 3 -5.8114 19.3237 86.5307 0.0000 0.0000 0.0000
# 4 0.0000 0.0000 0.0000 36.5715 0.0000 0.0000
# 5 0.0000 0.0000 0.0000 0.0000 23.5093 0.0000
# 6 0.0000 0.0000 0.0000 0.0000 0.0000 10.9312
#
#
#
# Elastic Compliance Matrix: (Units=1/GPa)
#
#
# Indices 1 2 3 4 5 6 
#
# 1 0.014436 -0.001337 0.001268 0.000000 0.000000 0.000000
# 2 -0.001337 0.011500 -0.002658 0.000000 0.000000 0.000000
# 3 0.001268 -0.002658 0.012235 0.000000 0.000000 0.000000
# 4 0.000000 0.000000 0.000000 0.027344 0.000000 0.000000
# 5 0.000000 0.000000 0.000000 0.000000 0.042536 0.000000
# 6 0.000000 0.000000 0.000000 0.000000 0.000000 0.091481
#
#
# Mechanical properties :
#
#
# Convention : Reuss Voigt Hill
#
# Bulk Modulus (GPa) = 30.56394 32.20781 31.38587
# Shear Modulus (GPa) = 23.15974 29.45640 26.30807
#
# Velocity S-wave (km/s) = 3.09889 3.49485 3.30281
# Velocity P-wave (km/s) = 5.04751 5.44428 5.24965
#
# Compressibility (1/GPa) = 0.03271829
#
# Stress axis : x y z
#
# Youngs Moduli (GPa) = 69.27109 86.95646 81.73068
#
# Poissons Ratio (x) = 0.11623 -0.10364
# Poissons Ratio (y) = 0.09259 0.21723
# Poissons Ratio (z) = -0.08784 0.23112
#
# Static dielectric constant tensor:
#      x y z
#    x 1.946960 0.000000 0.000000 
#    y 0.000000 1.919080 0.000000 
#    z 0.000000 0.000000 1.945310 
# 
# From -- ./inp_files/24279.got.cif
#   From: 2010.05.17/outbox.cif.g08.bks.cpg/sg60_13_cif.got.tgz:24279.got - 2010.06.03 14:59:27.
