data_PCOD9456092
_publ_section_title
;
Structure prediction by ZEFSAII (Michael W. Deem and Ramdas Pophale) SiO2 
 PCOD9456092
Probable space group: P B C N
;
_chemical_formula_sum "Si O2"
_cell_formula_units_Z 48
_cell_length_a 9.940686
_cell_length_b 18.041302
_cell_length_c 11.351748
_cell_angle_alpha 90.000000
_cell_angle_beta 90.000000
_cell_angle_gamma 90.000000
_cell_volume 2035.855613
_symmetry_space_group_name_H-M "P B C N"
_symmetry_group_IT_number 60
_symmetry_cell_setting 'orthorhombic'
loop_
_space_group_symop_operation_xyz
x,y,z
1/2-x,1/2-y,1/2+z
1/2+x,1/2-y,-z
-x,y,1/2-z
-x,-y,-z
1/2+x,1/2+y,1/2-z
1/2-x,1/2+y,z
x,-y,1/2+z
loop_
_atom_site_type_symbol
_atom_site_label
_atom_site_fract_x
_atom_site_fract_y
_atom_site_fract_z
Si Si1 0.242408 0.779975 0.839818
Si Si2 0.810704 0.555780 0.815346
Si Si3 0.500000 0.175752 0.750000
Si Si4 0.214656 0.391414 0.659153
Si Si5 0.000000 0.065630 0.250000
Si Si6 0.825409 0.870176 0.086162
Si Si7 0.610036 0.586164 0.017782
O O1 0.324893 0.820312 0.735266
O O2 0.332414 0.718408 0.900731
O O3 0.184371 0.842278 0.927263
O O4 0.115924 0.730299 0.795664
O O5 0.928762 0.615549 0.837075
O O6 0.846906 0.469350 0.796862
O O7 0.729691 0.591035 0.704958
O O8 0.711387 0.550430 0.926234
O O9 0.374601 0.392161 0.693139
O O10 0.218214 0.384979 0.519029
O O11 0.069464 0.035845 0.369067
O O12 0.974694 0.892544 0.048844
#
# Coordination Sequence:
#
# PCOD9456092 Si02
#       7
#     8   8   4   8   4   8   8
#     4  10  22  41  69  88 132 186 222 275 350 424
#     4  11  25  40  68  95 138 176 228 289 351 420
#     4  10  23  48  62  94 141 190 222 272 365 432
#     4  10  22  40  65  98 129 174 230 277 350 411
#     4   8  19  36  62  92 127 168 212 276 343 398
#     4  10  23  39  62 100 133 165 233 287 338 411
#     4  10  21  38  66  97 130 173 232 282 345 407
#
# _framework density 23.577313
#
# number of rings (size 3 to 8) (size 9 to 14) (size 15 to 20)
#    0.000    2.000    0.000    3.500   14.000    1.333 
#    0.000    5.000    0.000    0.000    0.000    0.000 
#    0.000    0.000    0.000    0.000    0.000    0.000 
#
# Total GULP energy -267703.310286 kJ/mol
# GULP energy per Si atom -5577.152298 kJ/mol
# Density = 2.352365 g / cm^3
# Si number density = 23.577313 Si / 1000 Ang^3
#
#
#
# Elastic Constant Matrix: (Units=GPa)
#
#
# Indices 1 2 3 4 5 6 
#
# 1 55.3949 24.4286 23.6418 0.0000 0.0000 0.0000
# 2 24.4286 170.3679 49.5707 0.0000 0.0000 0.0000
# 3 23.6418 49.5707 130.9477 0.0000 0.0000 0.0000
# 4 0.0000 0.0000 0.0000 13.7384 0.0000 0.0000
# 5 0.0000 0.0000 0.0000 0.0000 16.9879 0.0000
# 6 0.0000 0.0000 0.0000 0.0000 0.0000 83.9173
#
#
#
# Elastic Compliance Matrix: (Units=1/GPa)
#
#
# Indices 1 2 3 4 5 6 
#
# 1 0.020183 -0.002061 -0.002864 0.000000 0.000000 0.000000
# 2 -0.002061 0.006807 -0.002205 0.000000 0.000000 0.000000
# 3 -0.002864 -0.002205 0.008988 0.000000 0.000000 0.000000
# 4 0.000000 0.000000 0.000000 0.072789 0.000000 0.000000
# 5 0.000000 0.000000 0.000000 0.000000 0.058866 0.000000
# 6 0.000000 0.000000 0.000000 0.000000 0.000000 0.011916
#
#
# Mechanical properties :
#
#
# Convention : Reuss Voigt Hill
#
# Bulk Modulus (GPa) = 46.04123 61.33251 53.68687
# Shear Modulus (GPa) = 24.86978 40.20001 32.53489
#
# Velocity S-wave (km/s) = 3.25132 4.13368 3.71876
# Velocity P-wave (km/s) = 5.80215 6.98949 6.42331
#
# Compressibility (1/GPa) = 0.02171966
#
# Stress axis : x y z
#
# Youngs Moduli (GPa) = 49.54611 146.91645 111.25635
#
# Poissons Ratio (x) = 0.30276 0.31862
# Poissons Ratio (y) = 0.10210 0.24528
# Poissons Ratio (z) = 0.14189 0.32389
#
# Static dielectric constant tensor:
#      x y z
#    x 1.900380 0.000000 0.000000 
#    y 0.000000 1.913690 0.000000 
#    z 0.000000 0.000000 1.965500 
# 
# From -- ./inp_files/11044.got.cif
#   From: 2010.05.17/outbox.cif.g08.bks.cpg/sg60_6_cif.got.tgz:11044.got - 2010.06.03 14:59:27.
