data_PCOD9456554
_publ_section_title
;
Structure prediction by ZEFSAII (Michael W. Deem and Ramdas Pophale) SiO2 
 PCOD9456554
Probable space group: P B C N
;
_chemical_formula_sum "Si O2"
_cell_formula_units_Z 40
_cell_length_a 7.360787
_cell_length_b 15.074368
_cell_length_c 14.112421
_cell_angle_alpha 90.000000
_cell_angle_beta 90.000000
_cell_angle_gamma 90.000000
_cell_volume 1565.903114
_symmetry_space_group_name_H-M "P B C N"
_symmetry_group_IT_number 60
_symmetry_cell_setting 'orthorhombic'
loop_
_space_group_symop_operation_xyz
x,y,z
1/2-x,1/2-y,1/2+z
1/2+x,1/2-y,-z
-x,y,1/2-z
-x,-y,-z
1/2+x,1/2+y,1/2-z
1/2-x,1/2+y,z
x,-y,1/2+z
loop_
_atom_site_type_symbol
_atom_site_label
_atom_site_fract_x
_atom_site_fract_y
_atom_site_fract_z
Si Si1 0.153653 0.077957 0.170297
Si Si2 0.291020 0.907031 0.254681
Si Si3 0.248261 0.048602 0.962045
Si Si4 0.118144 0.352713 0.971070
Si Si5 0.153619 0.756291 0.131280
O O1 0.231482 0.176183 0.175435
O O2 0.000000 0.069269 0.250000
O O3 0.294403 0.001237 0.200033
O O4 0.127393 0.062334 0.056588
O O5 0.500000 0.874651 0.250000
O O6 0.204395 0.917079 0.358101
O O7 0.169645 0.840213 0.196739
O O8 0.282027 0.943877 0.946114
O O9 0.433680 0.104568 0.983989
O O10 0.040026 0.287516 0.891182
O O11 0.245179 0.292358 0.036692
#
# Coordination Sequence:
#
# PCOD9456554 Si02
#       5
#     8   8   8   8   8
#     4  11  26  46  70 112 147 191 263 320 379 463
#     4  12  22  45  76  99 154 206 248 315 401 467
#     4  10  21  45  76  99 148 211 245 309 395 469
#     4  10  21  44  74 103 144 195 257 311 385 463
#     4  11  23  44  74 110 143 195 257 321 387 455
#
# _framework density 25.544363000000001
#
# number of rings (size 3 to 8) (size 9 to 14) (size 15 to 20)
#    0.000    1.200    4.000    3.000    0.000    2.400 
#   10.800    1.000    0.000    0.000    0.000    0.000 
#    0.000    0.000    0.000    0.000    0.000    0.000 
#
# Total GULP energy -223913.949953 kJ/mol
# GULP energy per Si atom -5597.848749 kJ/mol
# Density = 2.548622 g / cm^3
# Si number density = 25.544363 Si / 1000 Ang^3
#
#
#
# Elastic Constant Matrix: (Units=GPa)
#
#
# Indices 1 2 3 4 5 6 
#
# 1 104.1852 41.8771 57.9070 0.0000 0.0000 0.0000
# 2 41.8771 124.2545 24.7995 0.0000 0.0000 0.0000
# 3 57.9070 24.7995 166.6478 0.0000 0.0000 0.0000
# 4 0.0000 0.0000 0.0000 -87.0941 0.0000 0.0000
# 5 0.0000 0.0000 0.0000 0.0000 24.0838 0.0000
# 6 0.0000 0.0000 0.0000 0.0000 0.0000 15.4050
#
#
#
# Elastic Compliance Matrix: (Units=1/GPa)
#
#
# Indices 1 2 3 4 5 6 
#
# 1 0.013353 -0.003684 -0.004092 0.000000 0.000000 0.000000
# 2 -0.003684 0.009311 -0.000106 0.000000 0.000000 0.000000
# 3 -0.004092 -0.000106 0.007438 0.000000 0.000000 0.000000
# 4 0.000000 0.000000 0.000000 -0.011482 0.000000 0.000000
# 5 0.000000 0.000000 0.000000 0.000000 0.041522 0.000000
# 6 0.000000 0.000000 0.000000 0.000000 0.000000 0.064914
#
#
# Mechanical properties :
#
#
# Convention : Reuss Voigt Hill
#
# Bulk Modulus (GPa) = 69.73547 71.58385 70.65966
# Shear Modulus (GPa) = 34.34119 8.51255 21.42687
#
# Velocity S-wave (km/s) = 3.67055 1.82748 2.89936
# Velocity P-wave (km/s) = 6.73223 5.70413 6.23939
#
# Compressibility (1/GPa) = 0.01433991
#
# Stress axis : x y z
#
# Youngs Moduli (GPa) = 74.88833 107.40481 134.44102
#
# Poissons Ratio (x) = 0.39565 0.55011
# Poissons Ratio (y) = 0.27587 0.01419
# Poissons Ratio (z) = 0.30643 0.01133
#
# Static dielectric constant tensor:
#      x y z
#    x 2.061740 0.000000 0.000000 
#    y 0.000000 1.938730 0.000000 
#    z 0.000000 0.000000 2.223820 
# 
# From -- ./inp_files/14664.got.cif
#   From: 2010.05.17/outbox.cif.g08.bks.cpg/sg60_8_cif.got.tgz:14664.got - 2010.06.03 14:59:27.
