data_PCOD9456709
_publ_section_title
;
Structure prediction by ZEFSAII (Michael W. Deem and Ramdas Pophale) SiO2 
 PCOD9456709
Probable space group: P B C N
;
_chemical_formula_sum "Si O2"
_cell_formula_units_Z 60
_cell_length_a 9.974690
_cell_length_b 21.603102
_cell_length_c 12.206576
_cell_angle_alpha 90.000000
_cell_angle_beta 90.000000
_cell_angle_gamma 90.000000
_cell_volume 2630.324819
_symmetry_space_group_name_H-M "P B C N"
_symmetry_group_IT_number 60
_symmetry_cell_setting 'orthorhombic'
loop_
_space_group_symop_operation_xyz
x,y,z
1/2-x,1/2-y,1/2+z
1/2+x,1/2-y,-z
-x,y,1/2-z
-x,-y,-z
1/2+x,1/2+y,1/2-z
1/2-x,1/2+y,z
x,-y,1/2+z
loop_
_atom_site_type_symbol
_atom_site_label
_atom_site_fract_x
_atom_site_fract_y
_atom_site_fract_z
Si Si1 0.500000 0.489809 0.250000
Si Si2 0.779095 0.753550 0.411209
Si Si3 0.920937 0.295321 0.571944
Si Si4 0.109442 0.466550 0.656613
Si Si5 0.259302 0.647853 0.247973
Si Si6 0.109300 0.081987 0.426551
Si Si7 0.104593 0.126159 0.665497
Si Si8 0.094923 0.423774 0.019083
O O1 0.532229 0.529496 0.141632
O O2 0.380611 0.440939 0.224286
O O3 0.700304 0.754487 0.525553
O O4 0.711803 0.700790 0.338188
O O5 0.785937 0.821492 0.355249
O O6 0.935686 0.735995 0.422389
O O7 0.869820 0.327484 0.683561
O O8 0.927589 0.350928 0.484365
O O9 0.226439 0.418470 0.690025
O O10 0.121285 0.539309 0.630256
O O11 0.000000 0.459132 0.750000
O O12 0.038762 0.444813 0.544377
O O13 0.372241 0.636600 0.338702
O O14 0.055377 0.106350 0.542845
O O15 0.265045 0.063306 0.452703
O O16 0.000000 0.156708 0.750000
#
# Coordination Sequence:
#
# PCOD9456709 Si02
#       8
#     4   8   8   8   8   8   8   8
#     4  10  26  42  66 100 140 182 234 300 354 428
#     4  12  23  45  68 101 133 191 231 290 346 424
#     4  11  23  44  69  96 141 177 242 280 352 422
#     4  11  19  38  67  98 127 179 217 274 361 418
#     4  11  22  41  72  91 134 188 231 282 354 431
#     4  11  22  43  64  97 136 178 232 292 345 420
#     4  10  23  41  67  94 138 188 227 283 360 428
#     4  10  22  38  65  99 135 165 228 289 336 426
#
# _framework density 22.810870000000001
#
# number of rings (size 3 to 8) (size 9 to 14) (size 15 to 20)
#    0.400    0.800    6.667    1.600    1.867    1.067 
#    2.400    1.333    0.000    0.000    0.000    0.000 
#    0.000    0.000    0.000    0.000    0.000    0.000 
#
# Total GULP energy -334191.168433 kJ/mol
# GULP energy per Si atom -5569.852807 kJ/mol
# Density = 2.275895 g / cm^3
# Si number density = 22.810870 Si / 1000 Ang^3
#
#
#
# Elastic Constant Matrix: (Units=GPa)
#
#
# Indices 1 2 3 4 5 6 
#
# 1 38.4155 -5.8874 6.7708 0.0000 0.0000 0.0000
# 2 -5.8874 97.6489 35.7408 0.0000 0.0000 0.0000
# 3 6.7708 35.7408 94.5653 0.0000 0.0000 0.0000
# 4 0.0000 0.0000 0.0000 4.2585 0.0000 0.0000
# 5 0.0000 0.0000 0.0000 0.0000 36.6453 0.0000
# 6 0.0000 0.0000 0.0000 0.0000 0.0000 -2.8231
#
#
#
# Elastic Compliance Matrix: (Units=1/GPa)
#
#
# Indices 1 2 3 4 5 6 
#
# 1 0.026967 0.002707 -0.002954 0.000000 0.000000 0.000000
# 2 0.002707 0.012157 -0.004788 0.000000 0.000000 0.000000
# 3 -0.002954 -0.004788 0.012596 0.000000 0.000000 0.000000
# 4 0.000000 0.000000 0.000000 0.234822 0.000000 0.000000
# 5 0.000000 0.000000 0.000000 0.000000 0.027289 0.000000
# 6 0.000000 0.000000 0.000000 0.000000 0.000000 -0.354218
#
#
# Mechanical properties :
#
#
# Convention : Reuss Voigt Hill
#
# Bulk Modulus (GPa) = 24.01036 33.76423 28.88730
# Shear Modulus (GPa) = -304.22449 20.54983 -141.83733
#
# Velocity S-wave (km/s) = -11.56104 3.00472 -7.89397
# Velocity P-wave (km/s) = 12.94842 5.18380 8.39017
#
# Compressibility (1/GPa) = 0.04164869
#
# Stress axis : x y z
#
# Youngs Moduli (GPa) = 37.08281 82.25986 79.39053
#
# Poissons Ratio (x) = -0.22268 0.23451
# Poissons Ratio (y) = -0.10038 0.38015
# Poissons Ratio (z) = 0.10954 0.39389
#
# Static dielectric constant tensor:
#      x y z
#    x 1.987830 0.000000 0.000000 
#    y 0.000000 1.967240 0.000000 
#    z 0.000000 0.000000 1.861780 
# 
# From -- ./inp_files/11271.got.cif
#   From: 2010.05.17/outbox.cif.g08.bks.cpg/sg60_6_cif.got.tgz:11271.got - 2010.06.03 14:59:27.
