data_PCOD9456969
_publ_section_title
;
Structure prediction by ZEFSAII (Michael W. Deem and Ramdas Pophale) SiO2 
 PCOD9456969
Probable space group: P B C N
;
_chemical_formula_sum "Si O2"
_cell_formula_units_Z 60
_cell_length_a 13.448043
_cell_length_b 13.439088
_cell_length_c 13.685448
_cell_angle_alpha 90.000000
_cell_angle_beta 90.000000
_cell_angle_gamma 90.000000
_cell_volume 2473.363262
_symmetry_space_group_name_H-M "P B C N"
_symmetry_group_IT_number 60
_symmetry_cell_setting 'orthorhombic'
loop_
_space_group_symop_operation_xyz
x,y,z
1/2-x,1/2-y,1/2+z
1/2+x,1/2-y,-z
-x,y,1/2-z
-x,-y,-z
1/2+x,1/2+y,1/2-z
1/2-x,1/2+y,z
x,-y,1/2+z
loop_
_atom_site_type_symbol
_atom_site_label
_atom_site_fract_x
_atom_site_fract_y
_atom_site_fract_z
Si Si1 0.998585 0.885508 0.910892
Si Si2 0.371301 0.442518 0.311439
Si Si3 0.779054 0.310842 0.516516
Si Si4 0.000000 0.723759 0.750000
Si Si5 0.983178 0.762262 0.093238
Si Si6 0.189109 0.988457 0.099110
Si Si7 0.671431 0.148572 0.624609
Si Si8 0.834866 0.651168 0.406180
O O1 0.968458 0.799065 0.835872
O O2 0.927197 0.960561 0.645185
O O3 0.900308 0.945331 0.945327
O O4 0.036107 0.827049 0.006529
O O5 0.430663 0.344707 0.342227
O O6 0.361223 0.443574 0.194936
O O7 0.260316 0.425837 0.351419
O O8 0.894675 0.302105 0.543948
O O9 0.739143 0.414904 0.477811
O O10 0.720298 0.258965 0.607236
O O11 0.747973 0.235345 0.428794
O O12 0.088833 0.658488 0.793456
O O13 0.068460 0.696847 0.142543
O O14 0.276692 0.059917 0.138358
O O15 0.631103 0.121905 0.516953
#
# Coordination Sequence:
#
# PCOD9456969 Si02
#       8
#     8   8   8   4   8   8   8   8
#     4  12  22  41  70 106 139 187 244 303 359 431
#     4  11  24  40  68 108 140 182 252 301 348 434
#     4   9  22  43  65 100 144 192 231 305 361 441
#     4  12  22  40  70 102 136 188 238 290 364 438
#     4  11  22  44  72 101 145 197 236 296 381 430
#     4  12  23  41  69 107 146 186 246 305 364 435
#     4   9  23  42  64 103 140 188 237 295 370 431
#     4  10  22  41  67 102 142 190 239 299 372 436
#
# _framework density 24.258465999999999
#
# number of rings (size 3 to 8) (size 9 to 14) (size 15 to 20)
#    0.800    0.533    4.000    1.200    1.867    3.733 
#    0.000    0.000    0.000    0.000    3.467    0.000 
#    0.000    0.000    0.000    0.000    0.000    0.000 
#
# Total GULP energy -335697.115908 kJ/mol
# GULP energy per Si atom -5594.951932 kJ/mol
# Density = 2.420325 g / cm^3
# Si number density = 24.258466 Si / 1000 Ang^3
#
#
#
# Elastic Constant Matrix: (Units=GPa)
#
#
# Indices 1 2 3 4 5 6 
#
# 1 161.2276 63.2665 27.5449 0.0000 0.0000 0.0000
# 2 63.2665 72.7685 29.2395 0.0000 0.0000 0.0000
# 3 27.5449 29.2395 68.0956 0.0000 0.0000 0.0000
# 4 0.0000 0.0000 0.0000 29.1200 0.0000 0.0000
# 5 0.0000 0.0000 0.0000 0.0000 41.9930 0.0000
# 6 0.0000 0.0000 0.0000 0.0000 0.0000 47.3345
#
#
#
# Elastic Compliance Matrix: (Units=1/GPa)
#
#
# Indices 1 2 3 4 5 6 
#
# 1 0.009421 -0.008048 -0.000355 0.000000 0.000000 0.000000
# 2 -0.008048 0.023483 -0.006828 0.000000 0.000000 0.000000
# 3 -0.000355 -0.006828 0.017761 0.000000 0.000000 0.000000
# 4 0.000000 0.000000 0.000000 0.034341 0.000000 0.000000
# 5 0.000000 0.000000 0.000000 0.000000 0.023814 0.000000
# 6 0.000000 0.000000 0.000000 0.000000 0.000000 0.021126
#
#
# Mechanical properties :
#
#
# Convention : Reuss Voigt Hill
#
# Bulk Modulus (GPa) = 49.49862 60.24372 54.87117
# Shear Modulus (GPa) = 29.91462 35.82555 32.87008
#
# Velocity S-wave (km/s) = 3.51545 3.84712 3.68502
# Velocity P-wave (km/s) = 6.07674 6.67995 6.38548
#
# Compressibility (1/GPa) = 0.02020258
#
# Stress axis : x y z
#
# Youngs Moduli (GPa) = 106.14227 42.58361 56.30424
#
# Poissons Ratio (x) = 0.34273 0.01999
# Poissons Ratio (y) = 0.85428 0.38444
# Poissons Ratio (z) = 0.03769 0.29075
#
# Static dielectric constant tensor:
#      x y z
#    x 1.972270 0.000000 0.000000 
#    y 0.000000 1.955060 0.000000 
#    z 0.000000 0.000000 1.969370 
# 
# From -- ./inp_files/17023.got.cif
#   From: 2010.05.17/outbox.cif.g08.bks.cpg/sg60_9_cif.got.tgz:17023.got - 2010.06.03 14:59:27.
