data_PCOD9456044
_publ_section_title
;
Structure prediction by ZEFSAII (Michael W. Deem and Ramdas Pophale) SiO2 
 PCOD9456044
Probable space group: P B C N
;
_chemical_formula_sum "Si O2"
_cell_formula_units_Z 48
_cell_length_a 7.471089
_cell_length_b 24.554234
_cell_length_c 10.607316
_cell_angle_alpha 90.000000
_cell_angle_beta 90.000000
_cell_angle_gamma 90.000000
_cell_volume 1945.878893
_symmetry_space_group_name_H-M "P B C N"
_symmetry_group_IT_number 60
_symmetry_cell_setting 'orthorhombic'
loop_
_space_group_symop_operation_xyz
x,y,z
1/2-x,1/2-y,1/2+z
1/2+x,1/2-y,-z
-x,y,1/2-z
-x,-y,-z
1/2+x,1/2+y,1/2-z
1/2-x,1/2+y,z
x,-y,1/2+z
loop_
_atom_site_type_symbol
_atom_site_label
_atom_site_fract_x
_atom_site_fract_y
_atom_site_fract_z
Si Si1 0.290920 0.810351 0.035523
Si Si2 0.291597 0.633827 0.781389
Si Si3 0.375471 0.314743 0.534989
Si Si4 0.161616 0.531581 0.902798
Si Si5 0.435580 0.571310 0.111996
Si Si6 0.335149 0.080980 0.454665
O O1 0.315327 0.840726 0.167572
O O2 0.084329 0.810435 0.996884
O O3 0.330506 0.747508 0.060887
O O4 0.378049 0.854728 0.938245
O O5 0.500000 0.639978 0.750000
O O6 0.265889 0.665968 0.911767
O O7 0.248878 0.571215 0.802461
O O8 0.358862 0.366679 0.627896
O O9 0.142537 0.469484 0.858145
O O10 0.293222 0.538459 0.026636
O O11 0.971820 0.557305 0.941683
O O12 0.500000 0.551688 0.250000
O O13 0.618720 0.577968 0.028869
#
# Coordination Sequence:
#
# PCOD9456044 Si02
#       6
#     8   8   8   8   8   8
#     4  10  21  38  62  90 124 160 210 252 315 379
#     4   9  20  40  64  92 120 168 212 254 320 390
#     4   9  21  38  59  88 127 157 205 261 306 373
#     4  10  22  42  64  87 130 162 206 266 319 364
#     4  10  22  40  61  89 122 166 206 256 320 370
#     4  10  23  40  61  95 123 162 211 264 308 383
#
# _framework density 24.667518000000001
#
# number of rings (size 3 to 8) (size 9 to 14) (size 15 to 20)
#    0.000    2.333    0.000    1.500    4.667    6.000 
#    0.000    3.333    0.000    0.000    0.000    0.000 
#    0.000    0.000    0.000    0.000    0.000    0.000 
#
# Total GULP energy -267443.025407 kJ/mol
# GULP energy per Si atom -5571.729696 kJ/mol
# Density = 2.461137 g / cm^3
# Si number density = 24.667518 Si / 1000 Ang^3
#
#
#
# Elastic Constant Matrix: (Units=GPa)
#
#
# Indices 1 2 3 4 5 6 
#
# 1 91.5446 -4.1691 11.9791 0.0000 0.0000 0.0000
# 2 -4.1691 165.2139 3.3871 0.0000 0.0000 0.0000
# 3 11.9791 3.3871 67.6824 0.0000 0.0000 0.0000
# 4 0.0000 0.0000 0.0000 19.1715 0.0000 0.0000
# 5 0.0000 0.0000 0.0000 0.0000 27.3555 0.0000
# 6 0.0000 0.0000 0.0000 0.0000 0.0000 34.2087
#
#
#
# Elastic Compliance Matrix: (Units=1/GPa)
#
#
# Indices 1 2 3 4 5 6 
#
# 1 0.011200 0.000324 -0.001998 0.000000 0.000000 0.000000
# 2 0.000324 0.006068 -0.000361 0.000000 0.000000 0.000000
# 3 -0.001998 -0.000361 0.015147 0.000000 0.000000 0.000000
# 4 0.000000 0.000000 0.000000 0.052161 0.000000 0.000000
# 5 0.000000 0.000000 0.000000 0.000000 0.036556 0.000000
# 6 0.000000 0.000000 0.000000 0.000000 0.000000 0.029232
#
#
# Mechanical properties :
#
#
# Convention : Reuss Voigt Hill
#
# Bulk Modulus (GPa) = 35.28179 38.53724 36.90951
# Shear Modulus (GPa) = 30.50955 37.03005 33.76980
#
# Velocity S-wave (km/s) = 3.52068 3.87869 3.70401
# Velocity P-wave (km/s) = 5.55526 5.97625 5.76960
#
# Compressibility (1/GPa) = 0.02834323
#
# Stress axis : x y z
#
# Youngs Moduli (GPa) = 89.28666 164.79012 66.02112
#
# Poissons Ratio (x) = -0.05333 0.13194
# Poissons Ratio (y) = -0.02889 0.02383
# Poissons Ratio (z) = 0.17844 0.05948
#
# Static dielectric constant tensor:
#      x y z
#    x 1.983970 0.000000 0.000000 
#    y 0.000000 2.027880 0.000000 
#    z 0.000000 0.000000 2.030360 
# 
# From -- ./inp_files/10065.got.cif
#   From: 2010.05.17/outbox.cif.g08.bks.cpg/sg60_6_cif.got.tgz:10065.got - 2010.06.03 14:59:27.
