data_PCOD9456314
_publ_section_title
;
Structure prediction by ZEFSAII (Michael W. Deem and Ramdas Pophale) SiO2 
 PCOD9456314
Probable space group: P B C N
;
_chemical_formula_sum "Si O2"
_cell_formula_units_Z 64
_cell_length_a 22.310938
_cell_length_b 11.651241
_cell_length_c 12.054093
_cell_angle_alpha 90.000000
_cell_angle_beta 90.000000
_cell_angle_gamma 90.000000
_cell_volume 3133.462868
_symmetry_space_group_name_H-M "P B C N"
_symmetry_group_IT_number 60
_symmetry_cell_setting 'orthorhombic'
loop_
_space_group_symop_operation_xyz
x,y,z
1/2-x,1/2-y,1/2+z
1/2+x,1/2-y,-z
-x,y,1/2-z
-x,-y,-z
1/2+x,1/2+y,1/2-z
1/2-x,1/2+y,z
x,-y,1/2+z
loop_
_atom_site_type_symbol
_atom_site_label
_atom_site_fract_x
_atom_site_fract_y
_atom_site_fract_z
Si Si1 0.725136 0.542727 0.634033
Si Si2 0.646135 0.843256 0.134063
Si Si3 0.891306 0.908820 0.019771
Si Si4 0.061922 0.451312 0.951110
Si Si5 0.615736 0.332724 0.453279
Si Si6 0.992589 0.767415 0.130874
Si Si7 0.358364 0.198525 0.617767
Si Si8 0.768340 0.926431 0.383319
O O1 0.783698 0.623265 0.630275
O O2 0.657905 0.591193 0.618658
O O3 0.730748 0.500587 0.765480
O O4 0.729048 0.479217 0.510415
O O5 0.623592 0.813743 0.255808
O O6 0.605830 0.949438 0.091641
O O7 0.638546 0.730532 0.061886
O O8 0.862756 0.828029 0.925351
O O9 0.903289 0.037117 0.979129
O O10 0.952199 0.848397 0.055663
O O11 0.041289 0.354614 0.862700
O O12 0.098793 0.380137 0.042749
O O13 0.000000 0.500000 0.000000
O O14 0.559694 0.258633 0.413782
O O15 0.673021 0.346127 0.374384
O O16 0.000000 0.822693 0.250000
O O17 0.291604 0.148248 0.612679
#
# Coordination Sequence:
#
# PCOD9456314 Si02
#       8
#     8   8   8   8   8   8   8   8
#     4  10  21  41  67 100 134 175 221 280 337 399
#     4  11  23  40  69  98 132 173 222 277 340 402
#     4  10  23  43  63  91 133 173 224 271 324 390
#     4  11  23  42  64  94 133 163 219 267 336 400
#     4  11  23  41  64  93 128 177 227 267 324 397
#     4  11  24  41  63  91 126 171 213 270 328 391
#     4  10  23  42  65  98 135 175 218 282 339 397
#     4  10  21  40  68  99 135 176 224 278 341 394
#
# _framework density 20.424686999999999
#
# number of rings (size 3 to 8) (size 9 to 14) (size 15 to 20)
#    0.000    1.500    2.500    1.875    1.750    5.000 
#    0.000    1.250    0.000    0.000    0.000    0.000 
#    0.000    0.000    0.000    0.000    0.000    0.000 
#
# Total GULP energy -356392.351707 kJ/mol
# GULP energy per Si atom -5568.630495 kJ/mol
# Density = 2.037820 g / cm^3
# Si number density = 20.424687 Si / 1000 Ang^3
#
#
#
# Elastic Constant Matrix: (Units=GPa)
#
#
# Indices 1 2 3 4 5 6 
#
# 1 79.8395 -4.9003 4.2683 0.0000 0.0000 0.0000
# 2 -4.9003 65.4344 21.2734 0.0000 0.0000 0.0000
# 3 4.2683 21.2734 121.8243 0.0000 0.0000 0.0000
# 4 0.0000 0.0000 0.0000 23.9972 0.0000 0.0000
# 5 0.0000 0.0000 0.0000 0.0000 -7.0478 0.0000
# 6 0.0000 0.0000 0.0000 0.0000 0.0000 -23.2861
#
#
#
# Elastic Compliance Matrix: (Units=1/GPa)
#
#
# Indices 1 2 3 4 5 6 
#
# 1 0.012630 0.001155 -0.000644 0.000000 0.000000 0.000000
# 2 0.001155 0.016308 -0.002888 0.000000 0.000000 0.000000
# 3 -0.000644 -0.002888 0.008735 0.000000 0.000000 0.000000
# 4 0.000000 0.000000 0.000000 0.041672 0.000000 0.000000
# 5 0.000000 0.000000 0.000000 0.000000 -0.141889 0.000000
# 6 0.000000 0.000000 0.000000 0.000000 0.000000 -0.042944
#
#
# Mechanical properties :
#
#
# Convention : Reuss Voigt Hill
#
# Bulk Modulus (GPa) = 30.37705 34.26455 32.32080
# Shear Modulus (GPa) = -55.70410 15.16311 -20.27049
#
# Velocity S-wave (km/s) = -5.22801 2.72764 -3.15374
# Velocity P-wave (km/s) = 4.64089 5.17035 1.61162
#
# Compressibility (1/GPa) = 0.03291959
#
# Stress axis : x y z
#
# Youngs Moduli (GPa) = 79.17358 61.31961 114.47581
#
# Poissons Ratio (x) = -0.07084 0.07375
# Poissons Ratio (y) = -0.09147 0.33063
# Poissons Ratio (z) = 0.05101 0.17711
#
# Static dielectric constant tensor:
#      x y z
#    x 1.733580 0.000000 0.000000 
#    y 0.000000 1.732440 0.000000 
#    z 0.000000 0.000000 1.765800 
# 
# From -- ./inp_files/13154.got.cif
#   From: 2010.05.17/outbox.cif.g08.bks.cpg/sg60_7_cif.got.tgz:13154.got - 2010.06.03 14:59:27.
