data_PCOD9456510
_publ_section_title
;
Structure prediction by ZEFSAII (Michael W. Deem and Ramdas Pophale) SiO2 
 PCOD9456510
Probable space group: P B C N
;
_chemical_formula_sum "Si O2"
_cell_formula_units_Z 52
_cell_length_a 19.572333
_cell_length_b 12.974868
_cell_length_c 8.781293
_cell_angle_alpha 90.000000
_cell_angle_beta 90.000000
_cell_angle_gamma 90.000000
_cell_volume 2229.995633
_symmetry_space_group_name_H-M "P B C N"
_symmetry_group_IT_number 60
_symmetry_cell_setting 'orthorhombic'
loop_
_space_group_symop_operation_xyz
x,y,z
1/2-x,1/2-y,1/2+z
1/2+x,1/2-y,-z
-x,y,1/2-z
-x,-y,-z
1/2+x,1/2+y,1/2-z
1/2-x,1/2+y,z
x,-y,1/2+z
loop_
_atom_site_type_symbol
_atom_site_label
_atom_site_fract_x
_atom_site_fract_y
_atom_site_fract_z
Si Si1 0.634351 0.773367 0.488315
Si Si2 0.000000 0.954427 0.750000
Si Si3 0.305050 0.898818 0.755148
Si Si4 0.621946 0.228634 0.491622
Si Si5 0.157652 0.892976 0.768690
Si Si6 0.506675 0.654914 0.587250
Si Si7 0.921669 0.569712 0.752634
O O1 0.688535 0.824526 0.599123
O O2 0.661455 0.696832 0.359484
O O3 0.579487 0.707356 0.581709
O O4 0.593086 0.865044 0.404894
O O5 0.911069 0.956408 0.754109
O O6 0.998466 0.900717 0.575564
O O7 0.322629 0.829269 0.609198
O O8 0.230333 0.949459 0.756239
O O9 0.366301 0.980440 0.760949
O O10 0.651048 0.329711 0.574028
O O11 0.554662 0.264962 0.401219
O O12 0.592519 0.150269 0.617471
O O13 0.500000 0.588337 0.750000
O O14 0.000000 0.533799 0.750000
#
# Coordination Sequence:
#
# PCOD9456510 Si02
#       7
#     8   4   8   8   8   8   8
#     4  11  23  45  71  96 136 183 221 275 339 402
#     4  10  24  48  70 104 128 176 232 288 336 388
#     4  12  25  45  65 105 138 180 224 275 339 402
#     4  11  23  45  71  96 136 183 221 275 339 402
#     4  11  26  46  69  98 137 177 228 285 336 400
#     4  10  21  43  71 101 125 173 230 275 331 401
#     4  11  25  42  71 102 137 174 225 274 332 406
#
# _framework density 23.318432000000001
#
# number of rings (size 3 to 8) (size 9 to 14) (size 15 to 20)
#    0.462    0.615    3.077    2.769    4.308    3.692 
#   22.154    0.000    0.000    0.000    0.000    0.000 
#    0.000    0.000    0.000    0.000    0.000    0.000 
#
# Total GULP energy -290395.148969 kJ/mol
# GULP energy per Si atom -5584.522096 kJ/mol
# Density = 2.326536 g / cm^3
# Si number density = 23.318432 Si / 1000 Ang^3
#
#
#
# Elastic Constant Matrix: (Units=GPa)
#
#
# Indices 1 2 3 4 5 6 
#
# 1 190.2984 30.7718 5.0390 0.0000 0.0000 0.0000
# 2 30.7718 64.5940 6.4856 0.0000 0.0000 0.0000
# 3 5.0390 6.4856 88.0593 0.0000 0.0000 0.0000
# 4 0.0000 0.0000 0.0000 78.6142 0.0000 0.0000
# 5 0.0000 0.0000 0.0000 0.0000 14.4163 0.0000
# 6 0.0000 0.0000 0.0000 0.0000 0.0000 18.4730
#
#
#
# Elastic Compliance Matrix: (Units=1/GPa)
#
#
# Indices 1 2 3 4 5 6 
#
# 1 0.005695 -0.002700 -0.000127 0.000000 0.000000 0.000000
# 2 -0.002700 0.016877 -0.001088 0.000000 0.000000 0.000000
# 3 -0.000127 -0.001088 0.011443 0.000000 0.000000 0.000000
# 4 0.000000 0.000000 0.000000 0.012720 0.000000 0.000000
# 5 0.000000 0.000000 0.000000 0.000000 0.069366 0.000000
# 6 0.000000 0.000000 0.000000 0.000000 0.000000 0.054133
#
#
# Mechanical properties :
#
#
# Convention : Reuss Voigt Hill
#
# Bulk Modulus (GPa) = 38.19148 47.50494 42.84821
# Shear Modulus (GPa) = 26.76745 42.34439 34.55592
#
# Velocity S-wave (km/s) = 3.39176 4.26598 3.85374
# Velocity P-wave (km/s) = 5.63493 6.68441 6.18198
#
# Compressibility (1/GPa) = 0.02618385
#
# Stress axis : x y z
#
# Youngs Moduli (GPa) = 175.59563 59.25244 87.38652
#
# Poissons Ratio (x) = 0.15999 0.01110
# Poissons Ratio (y) = 0.47415 0.09512
# Poissons Ratio (z) = 0.02230 0.06449
#
# Static dielectric constant tensor:
#      x y z
#    x 1.830950 0.000000 0.000000 
#    y 0.000000 1.942540 0.000000 
#    z 0.000000 0.000000 1.922590 
# 
# From -- ./inp_files/6871.got.cif
#   From: 2010.05.17/outbox.cif.g08.bks.cpg/sg60_4_cif.got.tgz:6871.got - 2010.06.03 14:59:27.
