data_PCOD9456417
_publ_section_title
;
Structure prediction by ZEFSAII (Michael W. Deem and Ramdas Pophale) SiO2 
 PCOD9456417
Probable space group: P B C N
;
_chemical_formula_sum "Si O2"
_cell_formula_units_Z 56
_cell_length_a 20.163910
_cell_length_b 12.785489
_cell_length_c 9.190091
_cell_angle_alpha 90.000000
_cell_angle_beta 90.000000
_cell_angle_gamma 90.000000
_cell_volume 2369.255541
_symmetry_space_group_name_H-M "P B C N"
_symmetry_group_IT_number 60
_symmetry_cell_setting 'orthorhombic'
loop_
_space_group_symop_operation_xyz
x,y,z
1/2-x,1/2-y,1/2+z
1/2+x,1/2-y,-z
-x,y,1/2-z
-x,-y,-z
1/2+x,1/2+y,1/2-z
1/2-x,1/2+y,z
x,-y,1/2+z
loop_
_atom_site_type_symbol
_atom_site_label
_atom_site_fract_x
_atom_site_fract_y
_atom_site_fract_z
Si Si1 0.072049 0.455524 0.213989
Si Si2 0.663005 0.043043 0.029018
Si Si3 0.087612 0.050478 0.154969
Si Si4 0.295125 0.766946 0.792275
Si Si5 0.563005 0.196394 0.345452
Si Si6 0.771105 0.120270 0.451323
Si Si7 0.042790 0.131135 0.462819
O O1 0.118072 0.482370 0.352131
O O2 0.058604 0.571520 0.146547
O O3 0.000000 0.409942 0.250000
O O4 0.114604 0.401281 0.087681
O O5 0.707914 0.128860 0.108527
O O6 0.710200 0.960287 0.949507
O O7 0.161738 0.067803 0.103097
O O8 0.078047 0.078125 0.324111
O O9 0.035204 0.124129 0.069947
O O10 0.062476 0.936688 0.104337
O O11 0.370094 0.769724 0.734585
O O12 0.247069 0.785406 0.657139
O O13 0.279740 0.666304 0.887703
O O14 0.500000 0.230619 0.250000
O O15 0.562873 0.251592 0.501391
#
# Coordination Sequence:
#
# PCOD9456417 Si02
#       7
#     8   8   8   8   8   8   8
#     4  10  22  43  71  97 131 176 227 279 338 386
#     4  11  23  46  65 103 133 175 226 277 333 407
#     4  10  25  41  66 102 133 180 226 279 349 399
#     4  11  28  44  69 100 134 180 229 272 339 412
#     4  10  21  41  71  95 131 177 225 281 336 391
#     4  12  27  45  68  99 138 180 220 280 337 408
#     4  10  23  43  67  99 136 171 232 285 335 411
#
# _framework density 23.636116999999999
#
# number of rings (size 3 to 8) (size 9 to 14) (size 15 to 20)
#    0.000    1.429    2.857    1.286   12.000    0.000 
#    0.000    0.000    0.000    0.000    0.000    0.000 
#    0.000    0.000    0.000    0.000    0.000    0.000 
#
# Total GULP energy -313529.619251 kJ/mol
# GULP energy per Si atom -5598.743201 kJ/mol
# Density = 2.358232 g / cm^3
# Si number density = 23.636117 Si / 1000 Ang^3
#
#
#
# Elastic Constant Matrix: (Units=GPa)
#
#
# Indices 1 2 3 4 5 6 
#
# 1 87.3611 14.3534 14.4865 0.0000 0.0000 0.0000
# 2 14.3534 39.3369 24.6437 0.0000 0.0000 0.0000
# 3 14.4865 24.6437 78.2664 0.0000 0.0000 0.0000
# 4 0.0000 0.0000 0.0000 415.8986 0.0000 0.0000
# 5 0.0000 0.0000 0.0000 0.0000 21.2230 0.0000
# 6 0.0000 0.0000 0.0000 0.0000 0.0000 9.8885
#
#
#
# Elastic Compliance Matrix: (Units=1/GPa)
#
#
# Indices 1 2 3 4 5 6 
#
# 1 0.012248 -0.003798 -0.001071 0.000000 0.000000 0.000000
# 2 -0.003798 0.032846 -0.009639 0.000000 0.000000 0.000000
# 3 -0.001071 -0.009639 0.016010 0.000000 0.000000 0.000000
# 4 0.000000 0.000000 0.000000 0.002404 0.000000 0.000000
# 5 0.000000 0.000000 0.000000 0.000000 0.047119 0.000000
# 6 0.000000 0.000000 0.000000 0.000000 0.000000 0.101127
#
#
# Mechanical properties :
#
#
# Convention : Reuss Voigt Hill
#
# Bulk Modulus (GPa) = 31.16468 34.65907 32.91187
# Shear Modulus (GPa) = 19.88322 99.50075 59.69199
#
# Velocity S-wave (km/s) = 2.90353 6.49525 5.03084
# Velocity P-wave (km/s) = 4.94515 8.42297 6.90655
#
# Compressibility (1/GPa) = 0.03208761
#
# Stress axis : x y z
#
# Youngs Moduli (GPa) = 81.64326 30.44502 62.46000
#
# Poissons Ratio (x) = 0.11564 0.06690
# Poissons Ratio (y) = 0.31010 0.60207
# Poissons Ratio (z) = 0.08745 0.29347
#
# Static dielectric constant tensor:
#      x y z
#    x 1.857250 0.000000 0.000000 
#    y 0.000000 1.889950 0.000000 
#    z 0.000000 0.000000 1.923400 
# 
# From -- ./inp_files/7411.got.cif
#   From: 2010.05.17/outbox.cif.g08.bks.cpg/sg60_4_cif.got.tgz:7411.got - 2010.06.03 14:59:27.
