data_PCOD9456378
_publ_section_title
;
Structure prediction by ZEFSAII (Michael W. Deem and Ramdas Pophale) SiO2 
 PCOD9456378
Probable space group: P B C N
;
_chemical_formula_sum "Si O2"
_cell_formula_units_Z 40
_cell_length_a 7.349963
_cell_length_b 14.340377
_cell_length_c 14.257413
_cell_angle_alpha 90.000000
_cell_angle_beta 90.000000
_cell_angle_gamma 90.000000
_cell_volume 1502.749014
_symmetry_space_group_name_H-M "P B C N"
_symmetry_group_IT_number 60
_symmetry_cell_setting 'orthorhombic'
loop_
_space_group_symop_operation_xyz
x,y,z
1/2-x,1/2-y,1/2+z
1/2+x,1/2-y,-z
-x,y,1/2-z
-x,-y,-z
1/2+x,1/2+y,1/2-z
1/2-x,1/2+y,z
x,-y,1/2+z
loop_
_atom_site_type_symbol
_atom_site_label
_atom_site_fract_x
_atom_site_fract_y
_atom_site_fract_z
Si Si1 0.778686 0.860602 0.764401
Si Si2 0.217543 0.356573 0.235456
Si Si3 0.287832 0.002349 0.883268
Si Si4 0.120279 0.139782 0.530862
Si Si5 0.205701 0.644695 0.016773
O O1 0.744939 0.751559 0.743355
O O2 0.723527 0.877163 0.872878
O O3 0.000000 0.875240 0.750000
O O4 0.663396 0.921982 0.692096
O O5 0.305071 0.427942 0.307879
O O6 0.288353 0.374435 0.131400
O O7 0.000000 0.370219 0.250000
O O8 0.403710 0.073866 0.949361
O O9 0.190159 0.936848 0.958664
O O10 0.154880 0.247807 0.503280
O O11 0.905726 0.131830 0.524114
#
# Coordination Sequence:
#
# PCOD9456378 Si02
#       5
#     8   8   8   8   8
#     4  10  21  41  66  88 137 171 210 273 337 380
#     4  10  25  45  64  96 139 175 214 285 347 381
#     4  12  23  40  73  98 128 176 233 272 324 413
#     4  11  25  44  68  98 135 178 224 274 338 398
#     4  11  25  42  69 100 134 178 227 272 335 403
#
# _framework density 26.617884
#
# number of rings (size 3 to 8) (size 9 to 14) (size 15 to 20)
#    0.000    1.200    2.000    3.000    8.400    0.800 
#    7.200    0.000    0.000    0.000    0.000    0.000 
#    0.000    0.000    0.000    0.000    0.000    0.000 
#
# Total GULP energy -223776.724887 kJ/mol
# GULP energy per Si atom -5594.418122 kJ/mol
# Density = 2.655730 g / cm^3
# Si number density = 26.617884 Si / 1000 Ang^3
#
#
#
# Elastic Constant Matrix: (Units=GPa)
#
#
# Indices 1 2 3 4 5 6 
#
# 1 106.8719 41.9054 63.9868 0.0000 0.0000 0.0000
# 2 41.9054 198.8131 128.8072 0.0000 0.0000 0.0000
# 3 63.9868 128.8072 183.9314 0.0000 0.0000 0.0000
# 4 0.0000 0.0000 0.0000 84.2874 0.0000 0.0000
# 5 0.0000 0.0000 0.0000 0.0000 14.9312 0.0000
# 6 0.0000 0.0000 0.0000 0.0000 0.0000 15.1969
#
#
#
# Elastic Compliance Matrix: (Units=1/GPa)
#
#
# Indices 1 2 3 4 5 6 
#
# 1 0.011830 0.000316 -0.004337 0.000000 0.000000 0.000000
# 2 0.000316 0.009216 -0.006564 0.000000 0.000000 0.000000
# 3 -0.004337 -0.006564 0.011542 0.000000 0.000000 0.000000
# 4 0.000000 0.000000 0.000000 0.011864 0.000000 0.000000
# 5 0.000000 0.000000 0.000000 0.000000 0.066974 0.000000
# 6 0.000000 0.000000 0.000000 0.000000 0.000000 0.065803
#
#
# Mechanical properties :
#
#
# Convention : Reuss Voigt Hill
#
# Bulk Modulus (GPa) = 87.57491 106.55725 97.06608
# Shear Modulus (GPa) = 24.72761 39.87758 32.30260
#
# Velocity S-wave (km/s) = 3.05123 3.87479 3.48741
# Velocity P-wave (km/s) = 6.73688 7.75486 7.26372
#
# Compressibility (1/GPa) = 0.01141880
#
# Stress axis : x y z
#
# Youngs Moduli (GPa) = 84.53420 108.50966 86.63858
#
# Poissons Ratio (x) = -0.03433 0.37574
# Poissons Ratio (y) = -0.02674 0.56868
# Poissons Ratio (z) = 0.36661 0.71224
#
# Static dielectric constant tensor:
#      x y z
#    x 2.075260 0.000000 0.000000 
#    y 0.000000 2.168960 0.000000 
#    z 0.000000 0.000000 2.141270 
# 
# From -- ./inp_files/14669.got.cif
#   From: 2010.05.17/outbox.cif.g08.bks.cpg/sg60_8_cif.got.tgz:14669.got - 2010.06.03 14:59:27.
