data_PCOD9456399
_publ_section_title
;
Structure prediction by ZEFSAII (Michael W. Deem and Ramdas Pophale) SiO2 
 PCOD9456399
Probable space group: P B C N
;
_chemical_formula_sum "Si O2"
_cell_formula_units_Z 64
_cell_length_a 7.798591
_cell_length_b 14.823013
_cell_length_c 23.936010
_cell_angle_alpha 90.000000
_cell_angle_beta 90.000000
_cell_angle_gamma 90.000000
_cell_volume 2766.969623
_symmetry_space_group_name_H-M "P B C N"
_symmetry_group_IT_number 60
_symmetry_cell_setting 'orthorhombic'
loop_
_space_group_symop_operation_xyz
x,y,z
1/2-x,1/2-y,1/2+z
1/2+x,1/2-y,-z
-x,y,1/2-z
-x,-y,-z
1/2+x,1/2+y,1/2-z
1/2-x,1/2+y,z
x,-y,1/2+z
loop_
_atom_site_type_symbol
_atom_site_label
_atom_site_fract_x
_atom_site_fract_y
_atom_site_fract_z
Si Si1 0.450289 0.251470 0.926457
Si Si2 0.169061 0.974381 0.536707
Si Si3 0.684102 0.984857 0.844665
Si Si4 0.276786 0.926444 0.939857
Si Si5 0.227021 0.272094 0.652051
Si Si6 0.813304 0.583974 0.634670
Si Si7 0.792612 0.371356 0.256158
Si Si8 0.086607 0.685819 0.046056
O O1 0.353232 0.344782 0.934976
O O2 0.585249 0.263401 0.876275
O O3 0.332639 0.170175 0.904587
O O4 0.497437 0.221374 0.989569
O O5 0.300797 0.034797 0.501709
O O6 0.193263 0.998683 0.601419
O O7 0.239077 0.871126 0.533410
O O8 0.000000 0.000000 0.500000
O O9 0.684556 0.876687 0.834415
O O10 0.502582 0.037907 0.855205
O O11 0.746018 0.037130 0.789756
O O12 0.460719 0.886283 0.926282
O O13 0.219694 0.005348 0.898788
O O14 0.218999 0.209269 0.705960
O O15 0.118128 0.244595 0.596431
O O16 0.733500 0.615613 0.692783
O O17 0.000000 0.357013 0.250000
#
# Coordination Sequence:
#
# PCOD9456399 Si02
#       8
#     8   8   8   8   8   8   8   8
#     4  12  24  39  68 104 141 185 240 293 365 438
#     4  11  22  39  66 103 143 180 232 294 361 435
#     4  10  21  41  68 101 135 182 230 289 361 433
#     4  12  23  40  69 100 143 191 236 297 362 443
#     4  11  22  42  69 105 133 180 238 293 361 434
#     4  11  22  46  67  99 139 192 243 295 363 425
#     4  10  22  42  71  95 131 189 236 291 351 427
#     4  11  23  41  64 103 146 185 227 295 370 442
#
# _framework density 23.129999000000002
#
# number of rings (size 3 to 8) (size 9 to 14) (size 15 to 20)
#    0.000    1.000    6.250    3.375    1.750    1.000 
#    0.000    0.000    0.000    3.000    0.000    0.000 
#    0.000    0.000    0.000    0.000    0.000    0.000 
#
# Total GULP energy -357121.143216 kJ/mol
# GULP energy per Si atom -5580.017863 kJ/mol
# Density = 2.307735 g / cm^3
# Si number density = 23.129999 Si / 1000 Ang^3
#
#
#
# Elastic Constant Matrix: (Units=GPa)
#
#
# Indices 1 2 3 4 5 6 
#
# 1 44.4531 -2.5951 -1.5808 0.0000 0.0000 0.0000
# 2 -2.5951 129.6930 65.7059 0.0000 0.0000 0.0000
# 3 -1.5808 65.7059 167.4741 0.0000 0.0000 0.0000
# 4 0.0000 0.0000 0.0000 48.9432 0.0000 0.0000
# 5 0.0000 0.0000 0.0000 0.0000 20.0593 0.0000
# 6 0.0000 0.0000 0.0000 0.0000 0.0000 29.6595
#
#
#
# Elastic Compliance Matrix: (Units=1/GPa)
#
#
# Indices 1 2 3 4 5 6 
#
# 1 0.022522 0.000428 0.000045 0.000000 0.000000 0.000000
# 2 0.000428 0.009631 -0.003775 0.000000 0.000000 0.000000
# 3 0.000045 -0.003775 0.007452 0.000000 0.000000 0.000000
# 4 0.000000 0.000000 0.000000 0.020432 0.000000 0.000000
# 5 0.000000 0.000000 0.000000 0.000000 0.049852 0.000000
# 6 0.000000 0.000000 0.000000 0.000000 0.000000 0.033716
#
#
# Mechanical properties :
#
#
# Convention : Reuss Voigt Hill
#
# Bulk Modulus (GPa) = 30.30119 51.63116 40.96617
# Shear Modulus (GPa) = 31.01530 38.40509 34.71019
#
# Velocity S-wave (km/s) = 3.66582 4.07922 3.87803
# Velocity P-wave (km/s) = 5.57194 6.67513 6.14833
#
# Compressibility (1/GPa) = 0.03300201
#
# Stress axis : x y z
#
# Youngs Moduli (GPa) = 44.40069 103.82651 134.18419
#
# Poissons Ratio (x) = -0.04444 -0.00599
# Poissons Ratio (y) = -0.01900 0.50651
# Poissons Ratio (z) = -0.00198 0.39192
#
# Static dielectric constant tensor:
#      x y z
#    x 2.048060 0.000000 0.000000 
#    y 0.000000 1.858090 0.000000 
#    z 0.000000 0.000000 1.858630 
# 
# From -- ./inp_files/24103.got.cif
#   From: 2010.05.17/outbox.cif.g08.bks.cpg/sg60_13_cif.got.tgz:24103.got - 2010.06.03 14:59:27.
