data_PCOD9456533
_publ_section_title
;
Structure prediction by ZEFSAII (Michael W. Deem and Ramdas Pophale) SiO2 
 PCOD9456533
Probable space group: P B C N
;
_chemical_formula_sum "Si O2"
_cell_formula_units_Z 40
_cell_length_a 15.362997
_cell_length_b 10.777036
_cell_length_c 9.683514
_cell_angle_alpha 90.000000
_cell_angle_beta 90.000000
_cell_angle_gamma 90.000000
_cell_volume 1603.275899
_symmetry_space_group_name_H-M "P B C N"
_symmetry_group_IT_number 60
_symmetry_cell_setting 'orthorhombic'
loop_
_space_group_symop_operation_xyz
x,y,z
1/2-x,1/2-y,1/2+z
1/2+x,1/2-y,-z
-x,y,1/2-z
-x,-y,-z
1/2+x,1/2+y,1/2-z
1/2-x,1/2+y,z
x,-y,1/2+z
loop_
_atom_site_type_symbol
_atom_site_label
_atom_site_fract_x
_atom_site_fract_y
_atom_site_fract_z
Si Si1 0.083802 0.091228 0.151141
Si Si2 0.775423 0.634462 0.308477
Si Si3 0.585532 0.681518 0.837503
Si Si4 0.141249 0.460859 0.419682
Si Si5 0.986018 0.333776 0.461464
O O1 0.173212 0.132251 0.221860
O O2 0.000000 0.091633 0.250000
O O3 0.099238 0.952464 0.090764
O O4 0.061095 0.202518 0.049677
O O5 0.823251 0.766581 0.279689
O O6 0.815371 0.532561 0.206301
O O7 0.790957 0.598760 0.470897
O O8 0.500000 0.654356 0.750000
O O9 0.551593 0.805766 0.912003
O O10 0.084152 0.562788 0.504663
O O11 0.064069 0.372603 0.357849
#
# Coordination Sequence:
#
# PCOD9456533 Si02
#       5
#     8   8   8   8   8
#     4  11  27  43  67 101 144 194 239 293 356 437
#     4  11  25  46  71 108 141 194 239 302 355 438
#     4  10  21  44  67  96 142 182 235 295 366 417
#     4  10  24  43  78 104 143 182 246 296 363 428
#     4  10  22  42  70 102 138 184 237 296 362 429
#
# _framework density 24.948919
#
# number of rings (size 3 to 8) (size 9 to 14) (size 15 to 20)
#    0.000    1.600    2.000    0.600    5.600    4.800 
#    3.600    0.000    0.000    0.000    0.000    0.000 
#    0.000    0.000    0.000    0.000    0.000    0.000 
#
# Total GULP energy -222919.466026 kJ/mol
# GULP energy per Si atom -5572.986651 kJ/mol
# Density = 2.489213 g / cm^3
# Si number density = 24.948919 Si / 1000 Ang^3
#
#
#
# Elastic Constant Matrix: (Units=GPa)
#
#
# Indices 1 2 3 4 5 6 
#
# 1 164.9278 48.6360 27.3652 0.0000 0.0000 0.0000
# 2 48.6360 142.8046 11.6997 0.0000 0.0000 0.0000
# 3 27.3652 11.6997 43.8322 0.0000 0.0000 0.0000
# 4 0.0000 0.0000 0.0000 32.7153 0.0000 0.0000
# 5 0.0000 0.0000 0.0000 0.0000 22.6158 0.0000
# 6 0.0000 0.0000 0.0000 0.0000 0.0000 7.6456
#
#
#
# Elastic Compliance Matrix: (Units=1/GPa)
#
#
# Indices 1 2 3 4 5 6 
#
# 1 0.007374 -0.002182 -0.004021 0.000000 0.000000 0.000000
# 2 -0.002182 0.007805 -0.000721 0.000000 0.000000 0.000000
# 3 -0.004021 -0.000721 0.025517 0.000000 0.000000 0.000000
# 4 0.000000 0.000000 0.000000 0.030567 0.000000 0.000000
# 5 0.000000 0.000000 0.000000 0.000000 0.044217 0.000000
# 6 0.000000 0.000000 0.000000 0.000000 0.000000 0.130795
#
#
# Mechanical properties :
#
#
# Convention : Reuss Voigt Hill
#
# Bulk Modulus (GPa) = 37.24739 58.55181 47.89960
# Shear Modulus (GPa) = 18.58237 30.18624 24.38431
#
# Velocity S-wave (km/s) = 2.73209 3.48217 3.12968
# Velocity P-wave (km/s) = 4.99142 6.29976 5.68336
#
# Compressibility (1/GPa) = 0.02684752
#
# Stress axis : x y z
#
# Youngs Moduli (GPa) = 135.61331 128.12685 39.18912
#
# Poissons Ratio (x) = 0.27956 0.15759
# Poissons Ratio (y) = 0.29590 0.02826
# Poissons Ratio (z) = 0.54534 0.09238
#
# Static dielectric constant tensor:
#      x y z
#    x 2.080680 0.000000 0.000000 
#    y 0.000000 2.191560 0.000000 
#    z 0.000000 0.000000 2.053780 
# 
# From -- ./inp_files/11694.got.cif
#   From: 2010.05.17/outbox.cif.g08.bks.cpg/sg60_6_cif.got.tgz:11694.got - 2010.06.03 14:59:27.
