data_PCOD9456904
_publ_section_title
;
Structure prediction by ZEFSAII (Michael W. Deem and Ramdas Pophale) SiO2 
 PCOD9456904
Probable space group: P B C N
;
_chemical_formula_sum "Si O2"
_cell_formula_units_Z 32
_cell_length_a 6.116352
_cell_length_b 26.310219
_cell_length_c 8.051515
_cell_angle_alpha 90.000000
_cell_angle_beta 90.000000
_cell_angle_gamma 90.000000
_cell_volume 1295.670411
_symmetry_space_group_name_H-M "P B C N"
_symmetry_group_IT_number 60
_symmetry_cell_setting 'orthorhombic'
loop_
_space_group_symop_operation_xyz
x,y,z
1/2-x,1/2-y,1/2+z
1/2+x,1/2-y,-z
-x,y,1/2-z
-x,-y,-z
1/2+x,1/2+y,1/2-z
1/2-x,1/2+y,z
x,-y,1/2+z
loop_
_atom_site_type_symbol
_atom_site_label
_atom_site_fract_x
_atom_site_fract_y
_atom_site_fract_z
Si Si1 0.000000 0.128355 0.250000
Si Si2 0.278122 0.214807 0.159058
Si Si3 0.261084 0.177342 0.780061
Si Si4 0.181203 0.956646 0.516675
Si Si5 0.500000 0.019316 0.750000
O O1 0.813274 0.169703 0.221963
O O2 0.930345 0.091689 0.399436
O O3 0.500000 0.224200 0.250000
O O4 0.195458 0.272729 0.164129
O O5 0.260005 0.193732 0.973941
O O6 0.500000 0.149210 0.750000
O O7 0.000000 0.159610 0.750000
O O8 0.314114 0.949428 0.347236
O O9 0.363440 0.980832 0.635572
O O10 0.000000 0.000000 0.500000
#
# Coordination Sequence:
#
# PCOD9456904 Si02
#       5
#     4   8   8   8   4
#     4  12  26  42  70 105 142 182 253 298 358 432
#     4  11  26  42  73 100 142 189 242 309 363 446
#     4  11  23  45  74 102 143 198 248 298 388 442
#     4  11  22  44  70 100 140 187 231 296 363 439
#     4  10  22  40  76  97 130 200 229 280 380 444
#
# _framework density 24.697638000000001
#
# number of rings (size 3 to 8) (size 9 to 14) (size 15 to 20)
#    0.000    1.000    3.750    3.000    5.250    0.000 
#    2.250    2.500    0.000    0.000    0.000    0.000 
#    0.000    0.000    0.000    0.000    0.000    0.000 
#
# Total GULP energy -178241.212966 kJ/mol
# GULP energy per Si atom -5570.037905 kJ/mol
# Density = 2.464142 g / cm^3
# Si number density = 24.697638 Si / 1000 Ang^3
#
#
#
# Elastic Constant Matrix: (Units=GPa)
#
#
# Indices 1 2 3 4 5 6 
#
# 1 147.1307 26.1506 42.9780 0.0000 0.0000 0.0000
# 2 26.1506 117.2269 17.0746 0.0000 0.0000 0.0000
# 3 42.9780 17.0746 97.8758 0.0000 0.0000 0.0000
# 4 0.0000 0.0000 0.0000 -164.0478 0.0000 0.0000
# 5 0.0000 0.0000 0.0000 0.0000 52.9255 0.0000
# 6 0.0000 0.0000 0.0000 0.0000 0.0000 -42.0965
#
#
#
# Elastic Compliance Matrix: (Units=1/GPa)
#
#
# Indices 1 2 3 4 5 6 
#
# 1 0.007986 -0.001304 -0.003279 0.000000 0.000000 0.000000
# 2 -0.001304 0.008966 -0.000992 0.000000 0.000000 0.000000
# 3 -0.003279 -0.000992 0.011830 0.000000 0.000000 0.000000
# 4 0.000000 0.000000 0.000000 -0.006096 0.000000 0.000000
# 5 0.000000 0.000000 0.000000 0.000000 0.018894 0.000000
# 6 0.000000 0.000000 0.000000 0.000000 0.000000 -0.023755
#
#
# Mechanical properties :
#
#
# Convention : Reuss Voigt Hill
#
# Bulk Modulus (GPa) = 56.71366 59.40443 58.05905
# Shear Modulus (GPa) = 143.45933 -12.24174 65.60880
#
# Velocity S-wave (km/s) = 7.62970 -2.22877 5.15970
# Velocity P-wave (km/s) = 10.03143 4.18111 7.68476
#
# Compressibility (1/GPa) = 0.01763244
#
# Stress axis : x y z
#
# Youngs Moduli (GPa) = 125.21324 111.53549 84.53069
#
# Poissons Ratio (x) = 0.14543 0.27721
# Poissons Ratio (y) = 0.16327 0.08381
# Poissons Ratio (z) = 0.41063 0.11059
#
# Static dielectric constant tensor:
#      x y z
#    x 1.903940 0.000000 0.000000 
#    y 0.000000 1.914520 0.000000 
#    z 0.000000 0.000000 2.390290 
# 
# From -- ./inp_files/3141.got.cif
#   From: 2010.05.17/outbox.cif.g08.bks.cpg/sg60_2_cif.got.tgz:3141.got - 2010.06.03 14:59:27.
