data_PCOD9456419
_publ_section_title
;
Structure prediction by ZEFSAII (Michael W. Deem and Ramdas Pophale) SiO2 
 PCOD9456419
Probable space group: P B C N
;
_chemical_formula_sum "Si O2"
_cell_formula_units_Z 64
_cell_length_a 11.359912
_cell_length_b 10.024324
_cell_length_c 26.758941
_cell_angle_alpha 90.000000
_cell_angle_beta 90.000000
_cell_angle_gamma 90.000000
_cell_volume 3047.186140
_symmetry_space_group_name_H-M "P B C N"
_symmetry_group_IT_number 60
_symmetry_cell_setting 'orthorhombic'
loop_
_space_group_symop_operation_xyz
x,y,z
1/2-x,1/2-y,1/2+z
1/2+x,1/2-y,-z
-x,y,1/2-z
-x,-y,-z
1/2+x,1/2+y,1/2-z
1/2-x,1/2+y,z
x,-y,1/2+z
loop_
_atom_site_type_symbol
_atom_site_label
_atom_site_fract_x
_atom_site_fract_y
_atom_site_fract_z
Si Si1 0.105150 0.004313 0.208785
Si Si2 0.005778 0.748741 0.190255
Si Si3 0.843778 0.493925 0.827660
Si Si4 0.608719 0.650225 0.968731
Si Si5 0.546992 0.258885 0.862968
Si Si6 0.665281 0.665479 0.080679
Si Si7 0.730309 0.387062 0.929486
Si Si8 0.872800 0.141286 0.598697
O O1 0.244910 0.031375 0.215661
O O2 0.056928 0.110068 0.170188
O O3 0.000000 0.002138 0.250000
O O4 0.108027 0.858801 0.183051
O O5 0.046721 0.605123 0.174202
O O6 0.000000 0.739336 0.250000
O O7 0.903534 0.807988 0.155182
O O8 0.896182 0.640416 0.831671
O O9 0.781170 0.454645 0.879362
O O10 0.682428 0.512861 0.960546
O O11 0.675485 0.786472 0.953077
O O12 0.492006 0.639945 0.934688
O O13 0.596532 0.659916 0.028163
O O14 0.413445 0.249744 0.880511
O O15 0.626110 0.289913 0.911232
O O16 0.675834 0.510797 0.098191
O O17 0.785259 0.748499 0.075664
#
# Coordination Sequence:
#
# PCOD9456419 Si02
#       8
#     8   8   8   8   8   8   8   8
#     4  10  21  41  71  98 134 176 227 296 361 414
#     4  11  24  46  69  96 138 185 234 295 367 426
#     4  11  22  40  68 102 131 179 242 291 352 428
#     4  12  24  44  72 103 145 185 246 296 366 438
#     4  11  23  41  67 101 139 181 240 290 351 425
#     4  12  28  43  71 104 147 198 235 296 377 423
#     4  11  21  40  70  98 132 184 233 302 343 420
#     4  12  26  49  68 102 151 190 241 307 361 441
#
# _framework density 21.002983
#
# number of rings (size 3 to 8) (size 9 to 14) (size 15 to 20)
#    0.000    0.750    5.000    3.375    3.500    1.500 
#    0.000    1.875    0.000    0.000    0.000    0.000 
#    0.000    0.000    0.000    0.000    0.000    0.000 
#
# Total GULP energy -356776.635105 kJ/mol
# GULP energy per Si atom -5574.634924 kJ/mol
# Density = 2.095518 g / cm^3
# Si number density = 21.002983 Si / 1000 Ang^3
#
#
#
# Elastic Constant Matrix: (Units=GPa)
#
#
# Indices 1 2 3 4 5 6 
#
# 1 71.4855 46.3876 20.9108 0.0000 0.0000 0.0000
# 2 46.3876 84.5341 16.3286 0.0000 0.0000 0.0000
# 3 20.9108 16.3286 69.2004 0.0000 0.0000 0.0000
# 4 0.0000 0.0000 0.0000 14.1498 0.0000 0.0000
# 5 0.0000 0.0000 0.0000 0.0000 28.5188 0.0000
# 6 0.0000 0.0000 0.0000 0.0000 0.0000 23.9300
#
#
#
# Elastic Compliance Matrix: (Units=1/GPa)
#
#
# Indices 1 2 3 4 5 6 
#
# 1 0.022796 -0.011712 -0.004125 0.000000 0.000000 0.000000
# 2 -0.011712 0.018412 -0.000805 0.000000 0.000000 0.000000
# 3 -0.004125 -0.000805 0.015887 0.000000 0.000000 0.000000
# 4 0.000000 0.000000 0.000000 0.070672 0.000000 0.000000
# 5 0.000000 0.000000 0.000000 0.000000 0.035065 0.000000
# 6 0.000000 0.000000 0.000000 0.000000 0.000000 0.041789
#
#
# Mechanical properties :
#
#
# Convention : Reuss Voigt Hill
#
# Bulk Modulus (GPa) = 41.99853 43.60822 42.80338
# Shear Modulus (GPa) = 20.33830 22.75926 21.54878
#
# Velocity S-wave (km/s) = 3.11521 3.29541 3.20658
# Velocity P-wave (km/s) = 5.74276 5.94034 5.84238
#
# Compressibility (1/GPa) = 0.02381035
#
# Stress axis : x y z
#
# Youngs Moduli (GPa) = 43.86820 54.31199 62.94372
#
# Poissons Ratio (x) = 0.63611 0.25962
# Poissons Ratio (y) = 0.51379 0.05069
# Poissons Ratio (z) = 0.18094 0.04374
#
# Static dielectric constant tensor:
#      x y z
#    x 1.865800 0.000000 0.000000 
#    y 0.000000 1.751960 0.000000 
#    z 0.000000 0.000000 1.868910 
# 
# From -- ./inp_files/26120.got.cif
#   From: 2010.05.17/outbox.cif.g08.bks.cpg/sg60_14_cif.got.tgz:26120.got - 2010.06.03 14:59:27.
