data_PCOD9456915
_publ_section_title
;
Structure prediction by ZEFSAII (Michael W. Deem and Ramdas Pophale) SiO2 
 PCOD9456915
Probable space group: P B C N
;
_chemical_formula_sum "Si O2"
_cell_formula_units_Z 36
_cell_length_a 16.895776
_cell_length_b 6.364631
_cell_length_c 13.548591
_cell_angle_alpha 90.000000
_cell_angle_beta 90.000000
_cell_angle_gamma 90.000000
_cell_volume 1456.952878
_symmetry_space_group_name_H-M "P B C N"
_symmetry_group_IT_number 60
_symmetry_cell_setting 'orthorhombic'
loop_
_space_group_symop_operation_xyz
x,y,z
1/2-x,1/2-y,1/2+z
1/2+x,1/2-y,-z
-x,y,1/2-z
-x,-y,-z
1/2+x,1/2+y,1/2-z
1/2-x,1/2+y,z
x,-y,1/2+z
loop_
_atom_site_type_symbol
_atom_site_label
_atom_site_fract_x
_atom_site_fract_y
_atom_site_fract_z
Si Si1 0.352549 0.499818 0.945539
Si Si2 0.364432 0.636384 0.728581
Si Si3 0.000000 0.479751 0.750000
Si Si4 0.691452 0.880285 0.942472
Si Si5 0.072183 0.756214 0.595193
O O1 0.338658 0.537378 0.831268
O O2 0.272450 0.569696 0.002209
O O3 0.360359 0.262138 0.982575
O O4 0.425949 0.638093 0.986590
O O5 0.425511 0.824112 0.750912
O O6 0.299451 0.744123 0.657852
O O7 0.404921 0.451419 0.665446
O O8 0.004677 0.629410 0.653481
O O9 0.640908 0.082783 0.915379
#
# Coordination Sequence:
#
# PCOD9456915 Si02
#       5
#     8   8   4   8   8
#     4  11  22  41  65 102 133 175 222 271 343 409
#     4  10  24  42  70  96 133 182 224 282 337 396
#     4  10  22  46  70  96 132 184 228 276 338 390
#     4  10  22  41  62  98 138 169 214 272 337 408
#     4  10  22  44  65  95 139 172 224 281 325 405
#
# _framework density 24.709105999999998
#
# number of rings (size 3 to 8) (size 9 to 14) (size 15 to 20)
#    0.000    1.778    2.222    0.667    0.000    8.000 
#    0.000   15.556    0.000    0.000    0.000    0.000 
#    0.000    0.000    0.000    0.000    0.000    0.000 
#
# Total GULP energy -201290.849692 kJ/mol
# GULP energy per Si atom -5591.412491 kJ/mol
# Density = 2.465287 g / cm^3
# Si number density = 24.709106 Si / 1000 Ang^3
#
#
#
# Elastic Constant Matrix: (Units=GPa)
#
#
# Indices 1 2 3 4 5 6 
#
# 1 50.8672 19.2871 22.4492 0.0000 0.0000 0.0000
# 2 19.2871 107.2503 8.9445 0.0000 0.0000 0.0000
# 3 22.4492 8.9445 131.6015 0.0000 0.0000 0.0000
# 4 0.0000 0.0000 0.0000 19.8862 0.0000 0.0000
# 5 0.0000 0.0000 0.0000 0.0000 27.8640 0.0000
# 6 0.0000 0.0000 0.0000 0.0000 0.0000 39.2068
#
#
#
# Elastic Compliance Matrix: (Units=1/GPa)
#
#
# Indices 1 2 3 4 5 6 
#
# 1 0.022686 -0.003778 -0.003613 0.000000 0.000000 0.000000
# 2 -0.003778 0.010006 -0.000036 0.000000 0.000000 0.000000
# 3 -0.003613 -0.000036 0.008217 0.000000 0.000000 0.000000
# 4 0.000000 0.000000 0.000000 0.050286 0.000000 0.000000
# 5 0.000000 0.000000 0.000000 0.000000 0.035889 0.000000
# 6 0.000000 0.000000 0.000000 0.000000 0.000000 0.025506
#
#
# Mechanical properties :
#
#
# Convention : Reuss Voigt Hill
#
# Bulk Modulus (GPa) = 38.37895 43.45342 40.91618
# Shear Modulus (GPa) = 28.38808 33.32727 30.85767
#
# Velocity S-wave (km/s) = 3.39321 3.67656 3.53772
# Velocity P-wave (km/s) = 5.56038 5.97051 5.76909
#
# Compressibility (1/GPa) = 0.02605595
#
# Stress axis : x y z
#
# Youngs Moduli (GPa) = 44.07959 99.93579 121.69216
#
# Poissons Ratio (x) = 0.37760 0.43969
# Poissons Ratio (y) = 0.16655 0.00433
# Poissons Ratio (z) = 0.15927 0.00355
#
# Static dielectric constant tensor:
#      x y z
#    x 2.001300 0.000000 0.000000 
#    y 0.000000 2.004490 0.000000 
#    z 0.000000 0.000000 1.946770 
# 
# From -- ./inp_files/12997.got.cif
#   From: 2010.05.17/outbox.cif.g08.bks.cpg/sg60_7_cif.got.tgz:12997.got - 2010.06.03 14:59:27.
