data_PCOD9456176
_publ_section_title
;
Structure prediction by ZEFSAII (Michael W. Deem and Ramdas Pophale) SiO2 
 PCOD9456176
Probable space group: P B C N
;
_chemical_formula_sum "Si O2"
_cell_formula_units_Z 56
_cell_length_a 4.937282
_cell_length_b 34.811197
_cell_length_c 14.265554
_cell_angle_alpha 90.000000
_cell_angle_beta 90.000000
_cell_angle_gamma 90.000000
_cell_volume 2451.859231
_symmetry_space_group_name_H-M "P B C N"
_symmetry_group_IT_number 60
_symmetry_cell_setting 'orthorhombic'
loop_
_space_group_symop_operation_xyz
x,y,z
1/2-x,1/2-y,1/2+z
1/2+x,1/2-y,-z
-x,y,1/2-z
-x,-y,-z
1/2+x,1/2+y,1/2-z
1/2-x,1/2+y,z
x,-y,1/2+z
loop_
_atom_site_type_symbol
_atom_site_label
_atom_site_fract_x
_atom_site_fract_y
_atom_site_fract_z
Si Si1 0.459993 0.408190 0.429652
Si Si2 0.000000 0.046539 0.750000
Si Si3 0.000000 0.498041 0.750000
Si Si4 0.392593 0.891666 0.854657
Si Si5 0.486171 0.858586 0.037535
Si Si6 0.401303 0.036837 0.058896
Si Si7 0.942461 0.275041 0.505955
Si Si8 0.768434 0.183998 0.187942
O O1 0.588169 0.429297 0.340259
O O2 0.688180 0.377284 0.458963
O O3 0.330047 0.439699 0.502369
O O4 0.196641 0.382936 0.402124
O O5 0.255933 0.023252 0.789860
O O6 0.157484 0.477491 0.664248
O O7 0.500000 0.900742 0.750000
O O8 0.369922 0.931400 0.912026
O O9 0.159130 0.860330 0.838219
O O10 0.575482 0.866908 0.928459
O O11 0.488278 0.813356 0.055466
O O12 0.500000 0.000000 0.000000
O O13 0.726248 0.244479 0.468192
O O14 0.796106 0.291583 0.597731
O O15 0.500000 0.180975 0.250000
O O16 0.000000 0.201772 0.250000
#
# Coordination Sequence:
#
# PCOD9456176 Si02
#       8
#     8   4   4   8   8   8   8   8
#     4  11  24  44  68  90 134 173 234 277 339 388
#     4  12  26  44  68  90 122 189 226 289 332 394
#     4  12  26  44  64  98 132 169 234 281 360 398
#     4   9  20  38  61  94 126 166 215 268 329 391
#     4  10  23  42  68  99 130 174 215 276 325 405
#     4  11  23  44  64  98 133 177 219 294 341 410
#     4  11  22  40  70 101 135 171 209 261 333 409
#     4  10  21  39  64  95 131 169 213 267 326 392
#
# _framework density 22.839812999999999
#
# number of rings (size 3 to 8) (size 9 to 14) (size 15 to 20)
#    0.000    1.429    2.143    2.571    2.000   13.143 
#    1.286    0.000   15.714    0.000    0.000    0.000 
#    0.000    0.000    0.000    0.000    0.000    0.000 
#
# Total GULP energy -311959.230136 kJ/mol
# GULP energy per Si atom -5570.700538 kJ/mol
# Density = 2.278783 g / cm^3
# Si number density = 22.839813 Si / 1000 Ang^3
#
#
#
# Elastic Constant Matrix: (Units=GPa)
#
#
# Indices 1 2 3 4 5 6 
#
# 1 109.6257 33.8558 3.8902 0.0000 0.0000 0.0000
# 2 33.8558 122.9855 20.5613 0.0000 0.0000 0.0000
# 3 3.8902 20.5613 72.8487 0.0000 0.0000 0.0000
# 4 0.0000 0.0000 0.0000 -45.8046 0.0000 0.0000
# 5 0.0000 0.0000 0.0000 0.0000 31.8894 0.0000
# 6 0.0000 0.0000 0.0000 0.0000 0.0000 35.9873
#
#
#
# Elastic Compliance Matrix: (Units=1/GPa)
#
#
# Indices 1 2 3 4 5 6 
#
# 1 0.009974 -0.002788 0.000254 0.000000 0.000000 0.000000
# 2 -0.002788 0.009313 -0.002480 0.000000 0.000000 0.000000
# 3 0.000254 -0.002480 0.014413 0.000000 0.000000 0.000000
# 4 0.000000 0.000000 0.000000 -0.021832 0.000000 0.000000
# 5 0.000000 0.000000 0.000000 0.000000 0.031358 0.000000
# 6 0.000000 0.000000 0.000000 0.000000 0.000000 0.027788
#
#
# Mechanical properties :
#
#
# Convention : Reuss Voigt Hill
#
# Bulk Modulus (GPa) = 42.24150 46.89717 44.56933
# Shear Modulus (GPa) = 56.22218 20.89127 38.55673
#
# Velocity S-wave (km/s) = 4.96682 3.02766 4.11315
# Velocity P-wave (km/s) = 7.17128 5.72712 6.48950
#
# Compressibility (1/GPa) = 0.02367340
#
# Stress axis : x y z
#
# Youngs Moduli (GPa) = 100.26068 107.37509 69.37991
#
# Poissons Ratio (x) = 0.29938 -0.01765
# Poissons Ratio (y) = 0.27955 0.17204
# Poissons Ratio (z) = -0.02550 0.26626
#
# Static dielectric constant tensor:
#      x y z
#    x 1.892760 0.000000 0.000000 
#    y 0.000000 1.978990 0.000000 
#    z 0.000000 0.000000 1.889750 
# 
# From -- ./inp_files/14135.got.cif
#   From: 2010.05.17/outbox.cif.g08.bks.cpg/sg60_8_cif.got.tgz:14135.got - 2010.06.03 14:59:27.
