data_PCOD9456373
_publ_section_title
;
Structure prediction by ZEFSAII (Michael W. Deem and Ramdas Pophale) SiO2 
 PCOD9456373
Probable space group: P B C N
;
_chemical_formula_sum "Si O2"
_cell_formula_units_Z 48
_cell_length_a 7.401992
_cell_length_b 9.743105
_cell_length_c 25.168700
_cell_angle_alpha 90.000000
_cell_angle_beta 90.000000
_cell_angle_gamma 90.000000
_cell_volume 1815.126003
_symmetry_space_group_name_H-M "P B C N"
_symmetry_group_IT_number 60
_symmetry_cell_setting 'orthorhombic'
loop_
_space_group_symop_operation_xyz
x,y,z
1/2-x,1/2-y,1/2+z
1/2+x,1/2-y,-z
-x,y,1/2-z
-x,-y,-z
1/2+x,1/2+y,1/2-z
1/2-x,1/2+y,z
x,-y,1/2+z
loop_
_atom_site_type_symbol
_atom_site_label
_atom_site_fract_x
_atom_site_fract_y
_atom_site_fract_z
Si Si1 0.318036 0.576327 0.144645
Si Si2 0.684942 0.716743 0.588287
Si Si3 0.220733 0.783528 0.750920
Si Si4 0.796996 0.964179 0.183590
Si Si5 0.230422 0.821524 0.086422
Si Si6 0.296438 0.028300 0.479552
O O1 0.232737 0.659223 0.193139
O O2 0.507817 0.515187 0.163988
O O3 0.345330 0.685588 0.096897
O O4 0.207132 0.446531 0.123793
O O5 0.777870 0.636514 0.637354
O O6 0.472666 0.721973 0.600126
O O7 0.716817 0.616765 0.537964
O O8 0.729144 0.870561 0.570756
O O9 0.297700 0.636247 0.765662
O O10 0.000000 0.774021 0.750000
O O11 0.287120 0.894827 0.794512
O O12 0.216922 0.887913 0.028690
O O13 0.500000 0.000000 0.500000
#
# Coordination Sequence:
#
# PCOD9456373 Si02
#       6
#     8   8   8   8   8   8
#     4  10  22  41  68  97 131 173 221 276 335 400
#     4  11  24  43  66  96 132 178 225 279 339 406
#     4  10  21  41  65  96 131 172 216 269 330 400
#     4  10  22  41  66  98 133 171 220 275 335 402
#     4  11  23  43  66  96 133 178 225 278 339 404
#     4  12  25  41  65  97 134 176 227 283 342 406
#
# _framework density 26.444445999999999
#
# number of rings (size 3 to 8) (size 9 to 14) (size 15 to 20)
#    0.000    1.333    0.000    5.500    0.000    8.000 
#    0.000   14.167    0.000    0.000    0.000    0.000 
#    0.000    0.000    0.000    0.000    0.000    0.000 
#
# Total GULP energy -268744.424213 kJ/mol
# GULP energy per Si atom -5598.842171 kJ/mol
# Density = 2.638426 g / cm^3
# Si number density = 26.444446 Si / 1000 Ang^3
#
#
#
# Elastic Constant Matrix: (Units=GPa)
#
#
# Indices 1 2 3 4 5 6 
#
# 1 74.2213 12.6438 11.6164 0.0000 0.0000 0.0000
# 2 12.6438 176.3428 15.3720 0.0000 0.0000 0.0000
# 3 11.6164 15.3720 78.0314 0.0000 0.0000 0.0000
# 4 0.0000 0.0000 0.0000 61.3605 0.0000 0.0000
# 5 0.0000 0.0000 0.0000 0.0000 28.9441 0.0000
# 6 0.0000 0.0000 0.0000 0.0000 0.0000 23.0851
#
#
#
# Elastic Compliance Matrix: (Units=1/GPa)
#
#
# Indices 1 2 3 4 5 6 
#
# 1 0.013913 -0.000831 -0.001907 0.000000 0.000000 0.000000
# 2 -0.000831 0.005820 -0.001023 0.000000 0.000000 0.000000
# 3 -0.001907 -0.001023 0.013301 0.000000 0.000000 0.000000
# 4 0.000000 0.000000 0.000000 0.016297 0.000000 0.000000
# 5 0.000000 0.000000 0.000000 0.000000 0.034549 0.000000
# 6 0.000000 0.000000 0.000000 0.000000 0.000000 0.043318
#
#
# Mechanical properties :
#
#
# Convention : Reuss Voigt Hill
#
# Bulk Modulus (GPa) = 39.19922 45.31777 42.25850
# Shear Modulus (GPa) = 34.91015 41.94215 38.42615
#
# Velocity S-wave (km/s) = 3.63730 3.98684 3.81608
# Velocity P-wave (km/s) = 5.70047 6.19414 5.95243
#
# Compressibility (1/GPa) = 0.02551071
#
# Stress axis : x y z
#
# Youngs Moduli (GPa) = 71.87330 171.83531 75.18357
#
# Poissons Ratio (x) = 0.14285 0.14341
# Poissons Ratio (y) = 0.05975 0.07689
# Poissons Ratio (z) = 0.13710 0.17573
#
# Static dielectric constant tensor:
#      x y z
#    x 2.040400 0.000000 0.000000 
#    y 0.000000 2.024470 0.000000 
#    z 0.000000 0.000000 2.173370 
# 
# From -- ./inp_files/25921.got.cif
#   From: 2010.05.17/outbox.cif.g08.bks.cpg/sg60_13_cif.got.tgz:25921.got - 2010.06.03 14:59:27.
