data_PCOD9456199
_publ_section_title
;
Structure prediction by ZEFSAII (Michael W. Deem and Ramdas Pophale) SiO2 
 PCOD9456199
Probable space group: P B C N
;
_chemical_formula_sum "Si O2"
_cell_formula_units_Z 40
_cell_length_a 17.080959
_cell_length_b 9.501333
_cell_length_c 9.939204
_cell_angle_alpha 90.000000
_cell_angle_beta 90.000000
_cell_angle_gamma 90.000000
_cell_volume 1613.052097
_symmetry_space_group_name_H-M "P B C N"
_symmetry_group_IT_number 60
_symmetry_cell_setting 'orthorhombic'
loop_
_space_group_symop_operation_xyz
x,y,z
1/2-x,1/2-y,1/2+z
1/2+x,1/2-y,-z
-x,y,1/2-z
-x,-y,-z
1/2+x,1/2+y,1/2-z
1/2-x,1/2+y,z
x,-y,1/2+z
loop_
_atom_site_type_symbol
_atom_site_label
_atom_site_fract_x
_atom_site_fract_y
_atom_site_fract_z
Si Si1 0.411887 0.053051 0.477295
Si Si2 0.154006 0.782951 0.300177
Si Si3 0.699215 0.783639 0.003819
Si Si4 0.447229 0.318636 0.619547
Si Si5 0.404512 0.463893 0.949987
O O1 0.395402 0.143579 0.342238
O O2 0.405606 0.172553 0.592751
O O3 0.500000 0.000000 0.500000
O O4 0.351735 0.925545 0.484512
O O5 0.192531 0.761779 0.153781
O O6 0.221049 0.800571 0.414118
O O7 0.099290 0.918494 0.332513
O O8 0.659400 0.652459 0.079953
O O9 0.500000 0.315627 0.750000
O O10 0.518658 0.366991 0.519942
O O11 0.389258 0.444621 0.584150
#
# Coordination Sequence:
#
# PCOD9456199 Si02
#       5
#     8   8   8   8   8
#     4  11  25  45  71 111 142 187 243 316 369 434
#     4  11  28  46  71 106 148 202 248 303 375 449
#     4  12  26  47  73 103 150 196 253 302 370 450
#     4  10  21  39  66  99 136 176 224 291 368 427
#     4  10  22  43  65  96 139 186 237 291 361 435
#
# _framework density 24.797709000000001
#
# number of rings (size 3 to 8) (size 9 to 14) (size 15 to 20)
#    0.000    1.200    2.000    2.400    2.800    9.600 
#    0.000    0.000    0.000    0.000    0.000    0.000 
#    0.000    0.000    0.000    0.000    0.000    0.000 
#
# Total GULP energy -222995.123973 kJ/mol
# GULP energy per Si atom -5574.878099 kJ/mol
# Density = 2.474127 g / cm^3
# Si number density = 24.797709 Si / 1000 Ang^3
#
#
#
# Elastic Constant Matrix: (Units=GPa)
#
#
# Indices 1 2 3 4 5 6 
#
# 1 73.4824 26.9519 -11.3443 0.0000 0.0000 0.0000
# 2 26.9519 169.1926 28.0529 0.0000 0.0000 0.0000
# 3 -11.3443 28.0529 81.8392 0.0000 0.0000 0.0000
# 4 0.0000 0.0000 0.0000 18.7209 0.0000 0.0000
# 5 0.0000 0.0000 0.0000 0.0000 26.3085 0.0000
# 6 0.0000 0.0000 0.0000 0.0000 0.0000 34.9882
#
#
#
# Elastic Compliance Matrix: (Units=1/GPa)
#
#
# Indices 1 2 3 4 5 6 
#
# 1 0.015163 -0.002930 0.003106 0.000000 0.000000 0.000000
# 2 -0.002930 0.006833 -0.002748 0.000000 0.000000 0.000000
# 3 0.003106 -0.002748 0.013592 0.000000 0.000000 0.000000
# 4 0.000000 0.000000 0.000000 0.053416 0.000000 0.000000
# 5 0.000000 0.000000 0.000000 0.000000 0.038011 0.000000
# 6 0.000000 0.000000 0.000000 0.000000 0.000000 0.028581
#
#
# Mechanical properties :
#
#
# Convention : Reuss Voigt Hill
#
# Bulk Modulus (GPa) = 32.84850 45.75946 39.30398
# Shear Modulus (GPa) = 29.25887 34.72710 31.99299
#
# Velocity S-wave (km/s) = 3.43870 3.74627 3.59578
# Velocity P-wave (km/s) = 5.38902 6.09966 5.75532
#
# Compressibility (1/GPa) = 0.03044279
#
# Stress axis : x y z
#
# Youngs Moduli (GPa) = 65.94950 146.34984 73.57387
#
# Poissons Ratio (x) = 0.42888 -0.22855
# Poissons Ratio (y) = 0.19326 0.20221
# Poissons Ratio (z) = -0.20486 0.40223
#
# Static dielectric constant tensor:
#      x y z
#    x 1.429070 0.000000 0.000000 
#    y 0.000000 2.036110 0.000000 
#    z 0.000000 0.000000 2.115070 
# 
# From -- ./inp_files/12308.got.cif
#   From: 2010.05.17/outbox.cif.g08.bks.cpg/sg60_7_cif.got.tgz:12308.got - 2010.06.03 14:59:27.
