data_PCOD9456960
_publ_section_title
;
Structure prediction by ZEFSAII (Michael W. Deem and Ramdas Pophale) SiO2 
 PCOD9456960
Probable space group: P B C N
;
_chemical_formula_sum "Si O2"
_cell_formula_units_Z 40
_cell_length_a 6.087807
_cell_length_b 18.659658
_cell_length_c 18.330585
_cell_angle_alpha 90.000000
_cell_angle_beta 90.000000
_cell_angle_gamma 90.000000
_cell_volume 2082.288403
_symmetry_space_group_name_H-M "P B C N"
_symmetry_group_IT_number 60
_symmetry_cell_setting 'orthorhombic'
loop_
_space_group_symop_operation_xyz
x,y,z
1/2-x,1/2-y,1/2+z
1/2+x,1/2-y,-z
-x,y,1/2-z
-x,-y,-z
1/2+x,1/2+y,1/2-z
1/2-x,1/2+y,z
x,-y,1/2+z
loop_
_atom_site_type_symbol
_atom_site_label
_atom_site_fract_x
_atom_site_fract_y
_atom_site_fract_z
Si Si1 0.513129 0.211477 0.595201
Si Si2 0.000000 0.213449 0.250000
Si Si3 0.137876 0.841225 0.497846
Si Si4 0.444566 0.067633 0.095587
Si Si5 0.751920 0.428156 0.459774
Si Si6 0.000000 0.362747 0.750000
O O1 0.489766 0.240370 0.676138
O O2 0.756142 0.184875 0.576949
O O3 0.483154 0.276441 0.537785
O O4 0.356707 0.144746 0.574115
O O5 0.249417 0.175040 0.250773
O O6 0.314179 0.867785 0.556739
O O7 0.995810 0.909355 0.476670
O O8 0.503240 0.090881 0.176260
O O9 0.303693 0.995010 0.091451
O O10 0.643247 0.056184 0.039168
#
# Coordination Sequence:
#
# PCOD9456960 Si02
#       6
#     8   4   8   8   8   4
#     4  11  23  37  65  96 130 173 222 278 331 403
#     4  12  28  43  68 101 140 176 226 284 348 393
#     4  11  20  39  66  95 126 177 222 275 332 407
#     4  10  23  41  66  95 130 173 228 273 343 399
#     4  10  22  41  66  95 130 170 228 280 326 405
#     4  12  26  45  68  97 136 182 220 282 340 413
#
# _framework density 19.209634999999999
#
# number of rings (size 3 to 8) (size 9 to 14) (size 15 to 20)
#    0.000    1.200    4.000    1.800    5.600    0.800 
#    0.000    0.000    0.000    0.000    0.000    0.000 
#    0.000    0.000    0.000    0.000    0.000    0.000 
#
# Total GULP energy -222777.787410 kJ/mol
# GULP energy per Si atom -5569.444685 kJ/mol
# Density = 1.916591 g / cm^3
# Si number density = 19.209635 Si / 1000 Ang^3
#
#
#
# Elastic Constant Matrix: (Units=GPa)
#
#
# Indices 1 2 3 4 5 6 
#
# 1 66.4602 18.0429 35.4967 0.0000 0.0000 0.0000
# 2 18.0429 77.5873 46.9424 0.0000 0.0000 0.0000
# 3 35.4967 46.9424 159.1290 0.0000 0.0000 0.0000
# 4 0.0000 0.0000 0.0000 28.5591 0.0000 0.0000
# 5 0.0000 0.0000 0.0000 0.0000 17.2105 0.0000
# 6 0.0000 0.0000 0.0000 0.0000 0.0000 37.9696
#
#
#
# Elastic Compliance Matrix: (Units=1/GPa)
#
#
# Indices 1 2 3 4 5 6 
#
# 1 0.017348 -0.002061 -0.003262 0.000000 0.000000 0.000000
# 2 -0.002061 0.015934 -0.004241 0.000000 0.000000 0.000000
# 3 -0.003262 -0.004241 0.008263 0.000000 0.000000 0.000000
# 4 0.000000 0.000000 0.000000 0.035015 0.000000 0.000000
# 5 0.000000 0.000000 0.000000 0.000000 0.058104 0.000000
# 6 0.000000 0.000000 0.000000 0.000000 0.000000 0.026337
#
#
# Mechanical properties :
#
#
# Convention : Reuss Voigt Hill
#
# Bulk Modulus (GPa) = 44.60701 56.01561 50.31131
# Shear Modulus (GPa) = 26.65242 30.26081 28.45661
#
# Velocity S-wave (km/s) = 3.72889 3.97330 3.85303
# Velocity P-wave (km/s) = 6.46615 7.09034 6.78543
#
# Compressibility (1/GPa) = 0.02241800
#
# Stress axis : x y z
#
# Youngs Moduli (GPa) = 57.64264 62.76024 121.02394
#
# Poissons Ratio (x) = 0.12933 0.39477
# Poissons Ratio (y) = 0.11879 0.51322
# Poissons Ratio (z) = 0.18803 0.26615
#
# Static dielectric constant tensor:
#      x y z
#    x 1.787600 0.000000 0.000000 
#    y 0.000000 1.696140 0.000000 
#    z 0.000000 0.000000 1.610310 
# 
# From -- ./inp_files/18552.got.cif
#   From: 2010.05.17/outbox.cif.g08.bks.cpg/sg60_10_cif.got.tgz:18552.got - 2010.06.03 14:59:27.
