data_PCOD9456837
_publ_section_title
;
Structure prediction by ZEFSAII (Michael W. Deem and Ramdas Pophale) SiO2 
 PCOD9456837
Probable space group: P B C N
;
_chemical_formula_sum "Si O2"
_cell_formula_units_Z 40
_cell_length_a 7.314504
_cell_length_b 29.276108
_cell_length_c 9.686908
_cell_angle_alpha 90.000000
_cell_angle_beta 90.000000
_cell_angle_gamma 90.000000
_cell_volume 2074.356504
_symmetry_space_group_name_H-M "P B C N"
_symmetry_group_IT_number 60
_symmetry_cell_setting 'orthorhombic'
loop_
_space_group_symop_operation_xyz
x,y,z
1/2-x,1/2-y,1/2+z
1/2+x,1/2-y,-z
-x,y,1/2-z
-x,-y,-z
1/2+x,1/2+y,1/2-z
1/2-x,1/2+y,z
x,-y,1/2+z
loop_
_atom_site_type_symbol
_atom_site_label
_atom_site_fract_x
_atom_site_fract_y
_atom_site_fract_z
Si Si1 0.172354 0.387980 0.435389
Si Si2 0.468992 0.454511 0.414072
Si Si3 0.373540 0.219547 0.621875
Si Si4 0.129804 0.696158 0.122808
Si Si5 0.753120 0.875115 0.380032
O O1 0.269630 0.436013 0.458842
O O2 0.208486 0.348638 0.547419
O O3 0.259005 0.375785 0.286398
O O4 0.953233 0.389590 0.421374
O O5 0.500000 0.463780 0.250000
O O6 0.500000 0.500000 0.500000
O O7 0.606025 0.411531 0.441085
O O8 0.500000 0.203966 0.750000
O O9 0.504698 0.221982 0.490504
O O10 0.280724 0.266745 0.662094
O O11 0.232665 0.178561 0.585770
O O12 0.000000 0.683459 0.250000
#
# Coordination Sequence:
#
# PCOD9456837 Si02
#       5
#     8   8   8   8   8
#     4   9  19  40  58  84 118 155 194 236 293 358
#     4  10  22  40  64  90 111 150 199 246 306 357
#     4  11  21  39  58  86 120 162 203 236 296 358
#     4  11  23  35  57  90 121 156 201 245 294 344
#     4   9  18  38  64  80 113 159 199 231 285 365
#
# _framework density 19.283089
#
# number of rings (size 3 to 8) (size 9 to 14) (size 15 to 20)
#    0.000    2.000    4.000    1.200    2.800    1.600 
#    7.200    0.000    0.000    0.000    0.000    0.000 
#    0.000    0.000    0.000    0.000    0.000    0.000 
#
# Total GULP energy -222927.928880 kJ/mol
# GULP energy per Si atom -5573.198222 kJ/mol
# Density = 1.923920 g / cm^3
# Si number density = 19.283089 Si / 1000 Ang^3
#
#
#
# Elastic Constant Matrix: (Units=GPa)
#
#
# Indices 1 2 3 4 5 6 
#
# 1 35.9399 40.1310 25.2455 0.0000 0.0000 0.0000
# 2 40.1310 130.1874 45.7817 0.0000 0.0000 0.0000
# 3 25.2455 45.7817 50.6848 0.0000 0.0000 0.0000
# 4 0.0000 0.0000 0.0000 29.6139 0.0000 0.0000
# 5 0.0000 0.0000 0.0000 0.0000 22.0784 0.0000
# 6 0.0000 0.0000 0.0000 0.0000 0.0000 29.3328
#
#
#
# Elastic Compliance Matrix: (Units=1/GPa)
#
#
# Indices 1 2 3 4 5 6 
#
# 1 0.050036 -0.009760 -0.016107 0.000000 0.000000 0.000000
# 2 -0.009760 0.013161 -0.007026 0.000000 0.000000 0.000000
# 3 -0.016107 -0.007026 0.034099 0.000000 0.000000 0.000000
# 4 0.000000 0.000000 0.000000 0.033768 0.000000 0.000000
# 5 0.000000 0.000000 0.000000 0.000000 0.045293 0.000000
# 6 0.000000 0.000000 0.000000 0.000000 0.000000 0.034092
#
#
# Mechanical properties :
#
#
# Convention : Reuss Voigt Hill
#
# Bulk Modulus (GPa) = 31.73586 48.79205 40.26395
# Shear Modulus (GPa) = 17.43756 23.24861 20.34308
#
# Velocity S-wave (km/s) = 3.01041 3.47601 3.25155
# Velocity P-wave (km/s) = 5.34575 6.43958 5.91799
#
# Compressibility (1/GPa) = 0.03151010
#
# Stress axis : x y z
#
# Youngs Moduli (GPa) = 19.98551 75.98433 29.32647
#
# Poissons Ratio (x) = 0.74160 0.47235
# Poissons Ratio (y) = 0.19506 0.20605
# Poissons Ratio (z) = 0.32190 0.53388
#
# Static dielectric constant tensor:
#      x y z
#    x 1.752470 0.000000 0.000000 
#    y 0.000000 1.680720 0.000000 
#    z 0.000000 0.000000 1.708630 
# 
# From -- ./inp_files/3856.got.cif
#   From: 2010.05.17/outbox.cif.g08.bks.cpg/sg60_2_cif.got.tgz:3856.got - 2010.06.03 14:59:27.
