data_PCOD9456638
_publ_section_title
;
Structure prediction by ZEFSAII (Michael W. Deem and Ramdas Pophale) SiO2 
 PCOD9456638
Probable space group: P B C N
;
_chemical_formula_sum "Si O2"
_cell_formula_units_Z 56
_cell_length_a 21.231840
_cell_length_b 7.892116
_cell_length_c 14.663843
_cell_angle_alpha 90.000000
_cell_angle_beta 90.000000
_cell_angle_gamma 90.000000
_cell_volume 2457.134303
_symmetry_space_group_name_H-M "P B C N"
_symmetry_group_IT_number 60
_symmetry_cell_setting 'orthorhombic'
loop_
_space_group_symop_operation_xyz
x,y,z
1/2-x,1/2-y,1/2+z
1/2+x,1/2-y,-z
-x,y,1/2-z
-x,-y,-z
1/2+x,1/2+y,1/2-z
1/2-x,1/2+y,z
x,-y,1/2+z
loop_
_atom_site_type_symbol
_atom_site_label
_atom_site_fract_x
_atom_site_fract_y
_atom_site_fract_z
Si Si1 0.102504 0.128718 0.387672
Si Si2 0.970092 0.146346 0.434326
Si Si3 0.720141 0.897043 0.436043
Si Si4 0.128312 0.239637 0.196758
Si Si5 0.120064 0.730850 0.426143
Si Si6 0.426122 0.896262 0.736107
Si Si7 0.848639 0.753768 0.423925
O O1 0.140010 0.179601 0.298423
O O2 0.116005 0.227541 0.480617
O O3 0.029646 0.176685 0.369829
O O4 0.116086 0.930725 0.404067
O O5 0.911981 0.110893 0.366293
O O6 0.938222 0.286125 0.501108
O O7 0.000000 0.000000 0.500000
O O8 0.692017 0.789426 0.352947
O O9 0.685499 0.819622 0.525617
O O10 0.794865 0.896395 0.428019
O O11 0.692564 0.083577 0.427863
O O12 0.087517 0.413413 0.201973
O O13 0.107060 0.630463 0.333841
O O14 0.500000 0.863577 0.750000
O O15 0.394958 0.771515 0.661229
#
# Coordination Sequence:
#
# PCOD9456638 Si02
#       7
#     8   8   8   8   8   8   8
#     4  11  21  36  61  90 119 160 203 253 314 371
#     4   9  19  36  59  90 124 161 205 255 310 372
#     4  10  23  43  60  86 119 161 211 258 320 379
#     4  10  22  39  62  90 127 166 210 266 319 384
#     4  10  22  37  59  87 124 161 202 256 309 382
#     4  11  23  40  63  96 131 169 214 267 331 392
#     4  11  24  41  65  87 121 164 209 267 317 388
#
# _framework density 22.790776999999999
#
# number of rings (size 3 to 8) (size 9 to 14) (size 15 to 20)
#    0.000    1.714    0.000    3.857    0.000    8.000 
#    0.000    8.571    0.000    0.000    0.000    0.000 
#    0.000    0.000    0.000    0.000    0.000    0.000 
#
# Total GULP energy -312831.697518 kJ/mol
# GULP energy per Si atom -5586.280313 kJ/mol
# Density = 2.273890 g / cm^3
# Si number density = 22.790777 Si / 1000 Ang^3
#
#
#
# Elastic Constant Matrix: (Units=GPa)
#
#
# Indices 1 2 3 4 5 6 
#
# 1 110.4895 15.2876 27.3493 0.0000 0.0000 0.0000
# 2 15.2876 69.5000 13.3766 0.0000 0.0000 0.0000
# 3 27.3493 13.3766 132.4959 0.0000 0.0000 0.0000
# 4 0.0000 0.0000 0.0000 32.9744 0.0000 0.0000
# 5 0.0000 0.0000 0.0000 0.0000 18.8183 0.0000
# 6 0.0000 0.0000 0.0000 0.0000 0.0000 19.0294
#
#
#
# Elastic Compliance Matrix: (Units=1/GPa)
#
#
# Indices 1 2 3 4 5 6 
#
# 1 0.009752 -0.001793 -0.001832 0.000000 0.000000 0.000000
# 2 -0.001793 0.015003 -0.001145 0.000000 0.000000 0.000000
# 3 -0.001832 -0.001145 0.008041 0.000000 0.000000 0.000000
# 4 0.000000 0.000000 0.000000 0.030327 0.000000 0.000000
# 5 0.000000 0.000000 0.000000 0.000000 0.053140 0.000000
# 6 0.000000 0.000000 0.000000 0.000000 0.000000 0.052550
#
#
# Mechanical properties :
#
#
# Convention : Reuss Voigt Hill
#
# Bulk Modulus (GPa) = 42.99617 47.16804 45.08210
# Shear Modulus (GPa) = 26.86669 31.26255 29.06462
#
# Velocity S-wave (km/s) = 3.43715 3.70769 3.57498
# Velocity P-wave (km/s) = 5.88715 6.25063 6.07161
#
# Compressibility (1/GPa) = 0.02325789
#
# Stress axis : x y z
#
# Youngs Moduli (GPa) = 102.54168 66.65292 124.36063
#
# Poissons Ratio (x) = 0.11948 0.22783
# Poissons Ratio (y) = 0.18381 0.14235
# Poissons Ratio (z) = 0.18786 0.07630
#
# Static dielectric constant tensor:
#      x y z
#    x 1.890120 0.000000 0.000000 
#    y 0.000000 1.906940 0.000000 
#    z 0.000000 0.000000 1.843330 
# 
# From -- ./inp_files/17716.got.cif
#   From: 2010.05.17/outbox.cif.g08.bks.cpg/sg60_9_cif.got.tgz:17716.got - 2010.06.03 14:59:27.
