data_PCOD9456949
_publ_section_title
;
Structure prediction by ZEFSAII (Michael W. Deem and Ramdas Pophale) SiO2 
 PCOD9456949
Probable space group: P B C N
;
_chemical_formula_sum "Si O2"
_cell_formula_units_Z 56
_cell_length_a 11.967211
_cell_length_b 13.268900
_cell_length_c 16.890746
_cell_angle_alpha 90.000000
_cell_angle_beta 90.000000
_cell_angle_gamma 90.000000
_cell_volume 2682.110711
_symmetry_space_group_name_H-M "P B C N"
_symmetry_group_IT_number 60
_symmetry_cell_setting 'orthorhombic'
loop_
_space_group_symop_operation_xyz
x,y,z
1/2-x,1/2-y,1/2+z
1/2+x,1/2-y,-z
-x,y,1/2-z
-x,-y,-z
1/2+x,1/2+y,1/2-z
1/2-x,1/2+y,z
x,-y,1/2+z
loop_
_atom_site_type_symbol
_atom_site_label
_atom_site_fract_x
_atom_site_fract_y
_atom_site_fract_z
Si Si1 0.491652 0.163938 0.919092
Si Si2 0.156738 0.187969 0.145140
Si Si3 0.203222 0.753672 0.818746
Si Si4 0.095591 0.507805 0.690216
Si Si5 0.404453 0.814401 0.590163
Si Si6 0.556668 0.330526 0.168383
Si Si7 0.332737 0.469107 0.770447
O O1 0.560140 0.266914 0.907352
O O2 0.382316 0.183762 0.865485
O O3 0.575721 0.079681 0.885089
O O4 0.451430 0.146081 0.007482
O O5 0.184011 0.256376 0.223505
O O6 0.270134 0.186669 0.094940
O O7 0.120792 0.084484 0.189709
O O8 0.328481 0.729145 0.843552
O O9 0.183294 0.873531 0.828242
O O10 0.070117 0.395055 0.659217
O O11 0.213341 0.507750 0.736463
O O12 0.000000 0.539251 0.750000
O O13 0.464201 0.706877 0.606029
O O14 0.500000 0.298505 0.250000
O O15 0.597772 0.444280 0.186649
#
# Coordination Sequence:
#
# PCOD9456949 Si02
#       7
#     8   8   8   8   8   8   8
#     4  12  24  39  71  97 136 177 213 277 348 391
#     4   9  21  43  60  93 131 174 220 273 315 397
#     4  10  22  41  65  94 126 173 230 267 314 398
#     4  11  21  43  69  99 123 177 237 271 315 395
#     4  11  25  41  63 100 145 165 213 285 341 391
#     4  12  21  39  68  94 125 176 219 267 333 386
#     4   9  22  37  67  94 126 162 231 274 309 389
#
# _framework density 20.879079000000001
#
# number of rings (size 3 to 8) (size 9 to 14) (size 15 to 20)
#    0.857    0.571    1.429    4.714    4.000    0.000 
#    0.000    0.714    0.000    0.000    0.000    0.000 
#    0.000    0.000    0.000    0.000    0.000    0.000 
#
# Total GULP energy -312053.157651 kJ/mol
# GULP energy per Si atom -5572.377815 kJ/mol
# Density = 2.083156 g / cm^3
# Si number density = 20.879079 Si / 1000 Ang^3
#
#
#
# Elastic Constant Matrix: (Units=GPa)
#
#
# Indices 1 2 3 4 5 6 
#
# 1 61.6891 26.7059 -5.6966 0.0000 0.0000 0.0000
# 2 26.7059 106.3284 0.2714 0.0000 0.0000 0.0000
# 3 -5.6966 0.2714 23.5764 0.0000 0.0000 0.0000
# 4 0.0000 0.0000 0.0000 5.8249 0.0000 0.0000
# 5 0.0000 0.0000 0.0000 0.0000 21.3481 0.0000
# 6 0.0000 0.0000 0.0000 0.0000 0.0000 13.0570
#
#
#
# Elastic Compliance Matrix: (Units=1/GPa)
#
#
# Indices 1 2 3 4 5 6 
#
# 1 0.018667 -0.004700 0.004564 0.000000 0.000000 0.000000
# 2 -0.004700 0.010589 -0.001258 0.000000 0.000000 0.000000
# 3 0.004564 -0.001258 0.043533 0.000000 0.000000 0.000000
# 4 0.000000 0.000000 0.000000 0.171676 0.000000 0.000000
# 5 0.000000 0.000000 0.000000 0.000000 0.046843 0.000000
# 6 0.000000 0.000000 0.000000 0.000000 0.000000 0.076587
#
#
# Mechanical properties :
#
#
# Convention : Reuss Voigt Hill
#
# Bulk Modulus (GPa) = 14.28543 26.01726 20.15135
# Shear Modulus (GPa) = 12.68993 19.40023 16.04508
#
# Velocity S-wave (km/s) = 2.46800 3.05154 2.77515
# Velocity P-wave (km/s) = 3.87017 4.99037 4.46553
#
# Compressibility (1/GPa) = 0.07000138
#
# Stress axis : x y z
#
# Youngs Moduli (GPa) = 53.57190 94.44199 22.97124
#
# Poissons Ratio (x) = 0.44388 -0.10485
# Poissons Ratio (y) = 0.25179 0.02889
# Poissons Ratio (z) = -0.24452 0.11876
#
# Static dielectric constant tensor:
#      x y z
#    x 1.816440 0.000000 0.000000 
#    y 0.000000 1.827160 0.000000 
#    z 0.000000 0.000000 1.730660 
# 
# From -- ./inp_files/16156.got.cif
#   From: 2010.05.17/outbox.cif.g08.bks.cpg/sg60_9_cif.got.tgz:16156.got - 2010.06.03 14:59:27.
