data_PCOD9456687
_publ_section_title
;
Structure prediction by ZEFSAII (Michael W. Deem and Ramdas Pophale) SiO2 
 PCOD9456687
Probable space group: P B C N
;
_chemical_formula_sum "Si O2"
_cell_formula_units_Z 64
_cell_length_a 22.753342
_cell_length_b 5.149054
_cell_length_c 24.443116
_cell_angle_alpha 90.000000
_cell_angle_beta 90.000000
_cell_angle_gamma 90.000000
_cell_volume 2863.711146
_symmetry_space_group_name_H-M "P B C N"
_symmetry_group_IT_number 60
_symmetry_cell_setting 'orthorhombic'
loop_
_space_group_symop_operation_xyz
x,y,z
1/2-x,1/2-y,1/2+z
1/2+x,1/2-y,-z
-x,y,1/2-z
-x,-y,-z
1/2+x,1/2+y,1/2-z
1/2-x,1/2+y,z
x,-y,1/2+z
loop_
_atom_site_type_symbol
_atom_site_label
_atom_site_fract_x
_atom_site_fract_y
_atom_site_fract_z
Si Si1 0.949549 0.873295 0.128279
Si Si2 0.997751 0.257944 0.194974
Si Si3 0.382714 0.844906 0.539091
Si Si4 0.788046 0.507338 0.549423
Si Si5 0.289664 0.875278 0.330561
Si Si6 0.419954 0.859769 0.656638
Si Si7 0.560481 0.661031 0.504020
Si Si8 0.892862 0.368439 0.726407
O O1 0.901216 0.819531 0.174715
O O2 0.015631 0.759011 0.140704
O O3 0.964524 0.171639 0.139873
O O4 0.929057 0.803105 0.068528
O O5 0.952845 0.468361 0.219546
O O6 0.000000 0.075852 0.250000
O O7 0.060763 0.348668 0.173627
O O8 0.329183 0.939343 0.502008
O O9 0.395630 0.549594 0.521774
O O10 0.378840 0.848693 0.604449
O O11 0.433556 0.059386 0.524733
O O12 0.765937 0.211922 0.547991
O O13 0.815958 0.577679 0.608469
O O14 0.262485 0.589415 0.326221
O O15 0.337762 0.948751 0.285691
O O16 0.393182 0.751224 0.712912
O O17 0.500000 0.500000 0.500000
#
# Coordination Sequence:
#
# PCOD9456687 Si02
#       8
#     8   8   8   8   8   8   8   8
#     4  11  21  35  62  89 129 167 207 258 297 380
#     4   9  19  35  57  86 125 163 203 244 299 374
#     4  12  25  43  63  93 129 175 208 264 320 376
#     4  10  22  43  67  90 118 159 216 271 322 375
#     4  10  23  42  64  89 120 149 201 270 317 359
#     4  10  22  39  57  88 132 166 208 248 307 383
#     4  12  25  38  62  94 136 168 212 251 317 384
#     4  10  22  38  61  92 118 168 209 253 318 376
#
# _framework density 22.348623
#
# number of rings (size 3 to 8) (size 9 to 14) (size 15 to 20)
#    0.000    1.500    1.250    4.500    7.000    1.000 
#    0.000    1.250    0.000    0.000    0.000    0.000 
#    0.000    0.000    0.000    0.000    0.000    0.000 
#
# Total GULP energy -356905.852203 kJ/mol
# GULP energy per Si atom -5576.653941 kJ/mol
# Density = 2.229776 g / cm^3
# Si number density = 22.348623 Si / 1000 Ang^3
#
#
#
# Elastic Constant Matrix: (Units=GPa)
#
#
# Indices 1 2 3 4 5 6 
#
# 1 39.4138 -3.1520 19.8150 0.0000 0.0000 0.0000
# 2 -3.1520 52.7066 8.9818 0.0000 0.0000 0.0000
# 3 19.8150 8.9818 164.9390 0.0000 0.0000 0.0000
# 4 0.0000 0.0000 0.0000 24.8459 0.0000 0.0000
# 5 0.0000 0.0000 0.0000 0.0000 34.2673 0.0000
# 6 0.0000 0.0000 0.0000 0.0000 0.0000 17.9532
#
#
#
# Elastic Compliance Matrix: (Units=1/GPa)
#
#
# Indices 1 2 3 4 5 6 
#
# 1 0.027255 0.002208 -0.003395 0.000000 0.000000 0.000000
# 2 0.002208 0.019330 -0.001318 0.000000 0.000000 0.000000
# 3 -0.003395 -0.001318 0.006542 0.000000 0.000000 0.000000
# 4 0.000000 0.000000 0.000000 0.040248 0.000000 0.000000
# 5 0.000000 0.000000 0.000000 0.000000 0.029182 0.000000
# 6 0.000000 0.000000 0.000000 0.000000 0.000000 0.055700
#
#
# Mechanical properties :
#
#
# Convention : Reuss Voigt Hill
#
# Bulk Modulus (GPa) = 20.78185 34.26101 27.52143
# Shear Modulus (GPa) = 25.08710 30.84092 27.96401
#
# Velocity S-wave (km/s) = 3.35406 3.71885 3.54116
# Velocity P-wave (km/s) = 4.93140 5.81407 5.39083
#
# Compressibility (1/GPa) = 0.04811891
#
# Stress axis : x y z
#
# Youngs Moduli (GPa) = 36.69047 51.73413 152.84868
#
# Poissons Ratio (x) = -0.11425 0.51885
# Poissons Ratio (y) = -0.08103 0.20144
# Poissons Ratio (z) = 0.12455 0.06818
#
# Static dielectric constant tensor:
#      x y z
#    x 1.861860 0.000000 0.000000 
#    y 0.000000 2.026920 0.000000 
#    z 0.000000 0.000000 1.947930 
# 
# From -- ./inp_files/24633.got.cif
#   From: 2010.05.17/outbox.cif.g08.bks.cpg/sg60_13_cif.got.tgz:24633.got - 2010.06.03 14:59:27.
