data_PCOD9456359
_publ_section_title
;
Structure prediction by ZEFSAII (Michael W. Deem and Ramdas Pophale) SiO2 
 PCOD9456359
Probable space group: P B C N
;
_chemical_formula_sum "Si O2"
_cell_formula_units_Z 48
_cell_length_a 12.841477
_cell_length_b 20.022569
_cell_length_c 8.488645
_cell_angle_alpha 90.000000
_cell_angle_beta 90.000000
_cell_angle_gamma 90.000000
_cell_volume 2182.594964
_symmetry_space_group_name_H-M "P B C N"
_symmetry_group_IT_number 60
_symmetry_cell_setting 'orthorhombic'
loop_
_space_group_symop_operation_xyz
x,y,z
1/2-x,1/2-y,1/2+z
1/2+x,1/2-y,-z
-x,y,1/2-z
-x,-y,-z
1/2+x,1/2+y,1/2-z
1/2-x,1/2+y,z
x,-y,1/2+z
loop_
_atom_site_type_symbol
_atom_site_label
_atom_site_fract_x
_atom_site_fract_y
_atom_site_fract_z
Si Si1 0.054689 0.335900 0.911997
Si Si2 0.251699 0.286697 0.751421
Si Si3 0.160289 0.669657 0.918377
Si Si4 0.077623 0.542309 0.607296
Si Si5 0.738607 0.467715 0.025606
Si Si6 0.124325 0.918813 0.762755
O O1 0.142495 0.286092 0.848764
O O2 0.000000 0.362142 0.750000
O O3 0.959104 0.319183 0.027721
O O4 0.110681 0.394281 0.005672
O O5 0.221420 0.303679 0.572721
O O6 0.325089 0.347472 0.809395
O O7 0.309207 0.216931 0.774959
O O8 0.196756 0.592837 0.890122
O O9 0.180237 0.497276 0.604712
O O10 0.000000 0.558686 0.750000
O O11 0.000000 0.500000 0.500000
O O12 0.678738 0.523581 0.128653
O O13 0.655045 0.431963 0.917712
O O14 0.000000 0.918614 0.750000
#
# Coordination Sequence:
#
# PCOD9456359 Si02
#       6
#     8   8   8   8   8   8
#     4  10  21  41  64  93 130 164 205 267 330 380
#     4  10  23  42  63  93 128 173 214 271 318 391
#     4  10  23  39  64  89 133 166 213 263 333 386
#     4  12  22  34  64  99 131 158 199 258 332 392
#     4  11  23  40  63  97 128 164 216 273 321 386
#     4  11  24  43  66  89 129 175 222 269 323 386
#
# _framework density 21.992169000000001
#
# number of rings (size 3 to 8) (size 9 to 14) (size 15 to 20)
#    0.000    1.333    3.333    2.000    2.333    5.333 
#    0.000    2.500    0.000    0.000    0.000    0.000 
#    0.000    0.000    0.000    0.000    0.000    0.000 
#
# Total GULP energy -267642.856102 kJ/mol
# GULP energy per Si atom -5575.892835 kJ/mol
# Density = 2.194211 g / cm^3
# Si number density = 21.992169 Si / 1000 Ang^3
#
#
#
# Elastic Constant Matrix: (Units=GPa)
#
#
# Indices 1 2 3 4 5 6 
#
# 1 146.7322 33.0257 20.6344 0.0000 0.0000 0.0000
# 2 33.0257 95.7041 15.9293 0.0000 0.0000 0.0000
# 3 20.6344 15.9293 28.1415 0.0000 0.0000 0.0000
# 4 0.0000 0.0000 0.0000 41.5058 0.0000 0.0000
# 5 0.0000 0.0000 0.0000 0.0000 38.5487 0.0000
# 6 0.0000 0.0000 0.0000 0.0000 0.0000 21.9122
#
#
#
# Elastic Compliance Matrix: (Units=1/GPa)
#
#
# Indices 1 2 3 4 5 6 
#
# 1 0.007915 -0.001949 -0.004700 0.000000 0.000000 0.000000
# 2 -0.001949 0.012016 -0.005372 0.000000 0.000000 0.000000
# 3 -0.004700 -0.005372 0.042022 0.000000 0.000000 0.000000
# 4 0.000000 0.000000 0.000000 0.024093 0.000000 0.000000
# 5 0.000000 0.000000 0.000000 0.000000 0.025941 0.000000
# 6 0.000000 0.000000 0.000000 0.000000 0.000000 0.045637
#
#
# Mechanical properties :
#
#
# Convention : Reuss Voigt Hill
#
# Bulk Modulus (GPa) = 26.37863 45.52849 35.95356
# Shear Modulus (GPa) = 25.73303 33.79255 29.76279
#
# Velocity S-wave (km/s) = 3.42438 3.92417 3.68276
# Velocity P-wave (km/s) = 5.25888 6.42489 5.87090
#
# Compressibility (1/GPa) = 0.03790948
#
# Stress axis : x y z
#
# Youngs Moduli (GPa) = 126.34616 83.22516 23.79704
#
# Poissons Ratio (x) = 0.16220 0.11185
# Poissons Ratio (y) = 0.24624 0.12785
# Poissons Ratio (z) = 0.59386 0.44711
#
# Static dielectric constant tensor:
#      x y z
#    x 1.809060 0.000000 0.000000 
#    y 0.000000 1.664620 0.000000 
#    z 0.000000 0.000000 1.819760 
# 
# From -- ./inp_files/5076.got.cif
#   From: 2010.05.17/outbox.cif.g08.bks.cpg/sg60_3_cif.got.tgz:5076.got - 2010.06.03 14:59:27.
