data_PCOD9456985
_publ_section_title
;
Structure prediction by ZEFSAII (Michael W. Deem and Ramdas Pophale) SiO2 
 PCOD9456985
Probable space group: P B C N
;
_chemical_formula_sum "Si O2"
_cell_formula_units_Z 40
_cell_length_a 5.204287
_cell_length_b 16.583762
_cell_length_c 18.363673
_cell_angle_alpha 90.000000
_cell_angle_beta 90.000000
_cell_angle_gamma 90.000000
_cell_volume 1584.907227
_symmetry_space_group_name_H-M "P B C N"
_symmetry_group_IT_number 60
_symmetry_cell_setting 'orthorhombic'
loop_
_space_group_symop_operation_xyz
x,y,z
1/2-x,1/2-y,1/2+z
1/2+x,1/2-y,-z
-x,y,1/2-z
-x,-y,-z
1/2+x,1/2+y,1/2-z
1/2-x,1/2+y,z
x,-y,1/2+z
loop_
_atom_site_type_symbol
_atom_site_label
_atom_site_fract_x
_atom_site_fract_y
_atom_site_fract_z
Si Si1 0.360660 0.579023 0.444137
Si Si2 0.084422 0.198148 0.666541
Si Si3 0.741703 0.540507 0.899783
Si Si4 0.295339 0.702188 0.978282
Si Si5 0.035021 0.623844 0.164156
O O1 0.194124 0.563004 0.516628
O O2 0.451936 0.495559 0.408625
O O3 0.610743 0.624805 0.476018
O O4 0.225456 0.631680 0.382743
O O5 0.260124 0.121825 0.646406
O O6 0.857174 0.188862 0.606600
O O7 0.182348 0.290339 0.655278
O O8 0.000000 0.192113 0.750000
O O9 0.872163 0.463180 0.863884
O O10 0.012006 0.732734 0.995632
O O11 0.000000 0.616323 0.250000
#
# Coordination Sequence:
#
# PCOD9456985 Si02
#       5
#     8   8   8   8   8
#     4  10  22  41  68  98 131 186 231 298 347 437
#     4  10  23  44  66 102 145 180 241 296 364 431
#     4  10  23  43  67  96 137 180 237 292 356 428
#     4  11  22  43  73 105 141 190 243 296 358 431
#     4  11  23  42  68  99 137 180 233 294 369 424
#
# _framework density 25.238071999999999
#
# number of rings (size 3 to 8) (size 9 to 14) (size 15 to 20)
#    0.000    1.600    2.000    1.800    2.800    0.000 
#   10.800    1.000    0.000    0.000    0.000    0.000 
#    0.000    0.000    0.000    0.000    0.000    0.000 
#
# Total GULP energy -223479.557207 kJ/mol
# GULP energy per Si atom -5586.988930 kJ/mol
# Density = 2.518063 g / cm^3
# Si number density = 25.238072 Si / 1000 Ang^3
#
#
#
# Elastic Constant Matrix: (Units=GPa)
#
#
# Indices 1 2 3 4 5 6 
#
# 1 52.7944 60.6469 35.5146 0.0000 0.0000 0.0000
# 2 60.6469 192.7786 44.5437 0.0000 0.0000 0.0000
# 3 35.5146 44.5437 181.2623 0.0000 0.0000 0.0000
# 4 0.0000 0.0000 0.0000 44.1465 0.0000 0.0000
# 5 0.0000 0.0000 0.0000 0.0000 17.5304 0.0000
# 6 0.0000 0.0000 0.0000 0.0000 0.0000 47.3843
#
#
#
# Elastic Compliance Matrix: (Units=1/GPa)
#
#
# Indices 1 2 3 4 5 6 
#
# 1 0.032246 -0.009207 -0.004055 0.000000 0.000000 0.000000
# 2 -0.009207 0.008129 -0.000194 0.000000 0.000000 0.000000
# 3 -0.004055 -0.000194 0.006359 0.000000 0.000000 0.000000
# 4 0.000000 0.000000 0.000000 0.022652 0.000000 0.000000
# 5 0.000000 0.000000 0.000000 0.000000 0.057044 0.000000
# 6 0.000000 0.000000 0.000000 0.000000 0.000000 0.021104
#
#
# Mechanical properties :
#
#
# Convention : Reuss Voigt Hill
#
# Bulk Modulus (GPa) = 50.45078 78.69395 64.57236
# Shear Modulus (GPa) = 27.61615 40.88758 34.25186
#
# Velocity S-wave (km/s) = 3.31150 4.02938 3.68795
# Velocity P-wave (km/s) = 5.88682 7.27298 6.61630
#
# Compressibility (1/GPa) = 0.01982130
#
# Stress axis : x y z
#
# Youngs Moduli (GPa) = 31.01125 123.02211 157.25781
#
# Poissons Ratio (x) = 1.13272 0.63773
# Poissons Ratio (y) = 0.28553 0.03043
# Poissons Ratio (z) = 0.12576 0.02381
#
# Static dielectric constant tensor:
#      x y z
#    x 2.117450 0.000000 0.000000 
#    y 0.000000 2.075780 0.000000 
#    z 0.000000 0.000000 1.952900 
# 
# From -- ./inp_files/18514.got.cif
#   From: 2010.05.17/outbox.cif.g08.bks.cpg/sg60_10_cif.got.tgz:18514.got - 2010.06.03 14:59:27.
