data_PCOD9456410
_publ_section_title
;
Structure prediction by ZEFSAII (Michael W. Deem and Ramdas Pophale) SiO2 
 PCOD9456410
Probable space group: P B C N
;
_chemical_formula_sum "Si O2"
_cell_formula_units_Z 56
_cell_length_a 12.465795
_cell_length_b 11.817529
_cell_length_c 14.877657
_cell_angle_alpha 90.000000
_cell_angle_beta 90.000000
_cell_angle_gamma 90.000000
_cell_volume 2191.700463
_symmetry_space_group_name_H-M "P B C N"
_symmetry_group_IT_number 60
_symmetry_cell_setting 'orthorhombic'
loop_
_space_group_symop_operation_xyz
x,y,z
1/2-x,1/2-y,1/2+z
1/2+x,1/2-y,-z
-x,y,1/2-z
-x,-y,-z
1/2+x,1/2+y,1/2-z
1/2-x,1/2+y,z
x,-y,1/2+z
loop_
_atom_site_type_symbol
_atom_site_label
_atom_site_fract_x
_atom_site_fract_y
_atom_site_fract_z
Si Si1 0.122043 0.896609 0.538438
Si Si2 0.038461 0.462018 0.098416
Si Si3 0.156860 0.320870 0.982193
Si Si4 0.310914 0.534601 0.375988
Si Si5 0.451193 0.740705 0.347534
Si Si6 0.619513 0.564272 0.798176
Si Si7 0.955948 0.705030 0.349344
O O1 0.208162 0.801349 0.504809
O O2 0.023310 0.819932 0.575196
O O3 0.111499 0.974958 0.450036
O O4 0.143959 0.972846 0.625069
O O5 0.949446 0.376117 0.138055
O O6 0.080308 0.575200 0.143616
O O7 0.133862 0.375352 0.079321
O O8 0.000000 0.500000 0.000000
O O9 0.207787 0.426525 0.930373
O O10 0.055005 0.286969 0.919003
O O11 0.348445 0.660760 0.347343
O O12 0.305371 0.456110 0.288432
O O13 0.500000 0.724623 0.250000
O O14 0.500000 0.546776 0.750000
O O15 0.618942 0.684818 0.849496
O O16 0.000000 0.713061 0.250000
#
# Coordination Sequence:
#
# PCOD9456410 Si02
#       7
#     8   8   8   8   8   8   8
#     4  11  22  42  68 100 136 184 250 280 354 446
#     4   9  21  40  63  92 133 185 234 273 362 442
#     4  10  25  41  63  99 140 180 228 308 371 415
#     4  12  24  42  68 108 146 183 239 315 370 421
#     4  11  21  39  74 101 133 191 245 298 349 439
#     4  11  22  41  76 106 129 186 249 295 343 436
#     4  10  21  41  69  97 131 184 237 288 352 437
#
# _framework density 25.550937000000001
#
# number of rings (size 3 to 8) (size 9 to 14) (size 15 to 20)
#    0.000    1.429    2.857    2.571    6.000    2.286 
#    2.571    2.857    0.000    0.000    0.000    0.000 
#    0.000    0.000    0.000    0.000    0.000    0.000 
#
# Total GULP energy -312109.769512 kJ/mol
# GULP energy per Si atom -5573.388741 kJ/mol
# Density = 2.549278 g / cm^3
# Si number density = 25.550937 Si / 1000 Ang^3
#
#
#
# Elastic Constant Matrix: (Units=GPa)
#
#
# Indices 1 2 3 4 5 6 
#
# 1 25.7622 21.5976 -7.4594 0.0000 0.0000 0.0000
# 2 21.5976 200.3906 18.5686 0.0000 0.0000 0.0000
# 3 -7.4594 18.5686 80.1068 0.0000 0.0000 0.0000
# 4 0.0000 0.0000 0.0000 123.8552 0.0000 0.0000
# 5 0.0000 0.0000 0.0000 0.0000 23.3565 0.0000
# 6 0.0000 0.0000 0.0000 0.0000 0.0000 22.4011
#
#
#
# Elastic Compliance Matrix: (Units=1/GPa)
#
#
# Indices 1 2 3 4 5 6 
#
# 1 0.044858 -0.005336 0.005414 0.000000 0.000000 0.000000
# 2 -0.005336 0.005735 -0.001826 0.000000 0.000000 0.000000
# 3 0.005414 -0.001826 0.013411 0.000000 0.000000 0.000000
# 4 0.000000 0.000000 0.000000 0.008074 0.000000 0.000000
# 5 0.000000 0.000000 0.000000 0.000000 0.042815 0.000000
# 6 0.000000 0.000000 0.000000 0.000000 0.000000 0.044641
#
#
# Mechanical properties :
#
#
# Convention : Reuss Voigt Hill
#
# Bulk Modulus (GPa) = 16.52723 41.29705 28.91214
# Shear Modulus (GPa) = 27.29284 52.15941 39.72612
#
# Velocity S-wave (km/s) = 3.27184 4.52308 3.94735
# Velocity P-wave (km/s) = 4.55583 6.59358 5.66705
#
# Compressibility (1/GPa) = 0.06050621
#
# Stress axis : x y z
#
# Youngs Moduli (GPa) = 22.29264 174.37980 74.56690
#
# Poissons Ratio (x) = 0.93055 -0.40371
# Poissons Ratio (y) = 0.11896 0.13617
# Poissons Ratio (z) = -0.12069 0.31845
#
# Static dielectric constant tensor:
#      x y z
#    x 2.353850 0.000000 0.000000 
#    y 0.000000 2.251270 0.000000 
#    z 0.000000 0.000000 2.017930 
# 
# From -- ./inp_files/16846.got.cif
#   From: 2010.05.17/outbox.cif.g08.bks.cpg/sg60_9_cif.got.tgz:16846.got - 2010.06.03 14:59:27.
