data_PCOD9456394
_publ_section_title
;
Structure prediction by ZEFSAII (Michael W. Deem and Ramdas Pophale) SiO2 
 PCOD9456394
Probable space group: P B C N
;
_chemical_formula_sum "Si O2"
_cell_formula_units_Z 40
_cell_length_a 14.216408
_cell_length_b 12.538819
_cell_length_c 10.856490
_cell_angle_alpha 90.000000
_cell_angle_beta 90.000000
_cell_angle_gamma 90.000000
_cell_volume 1935.244977
_symmetry_space_group_name_H-M "P B C N"
_symmetry_group_IT_number 60
_symmetry_cell_setting 'orthorhombic'
loop_
_space_group_symop_operation_xyz
x,y,z
1/2-x,1/2-y,1/2+z
1/2+x,1/2-y,-z
-x,y,1/2-z
-x,-y,-z
1/2+x,1/2+y,1/2-z
1/2-x,1/2+y,z
x,-y,1/2+z
loop_
_atom_site_type_symbol
_atom_site_label
_atom_site_fract_x
_atom_site_fract_y
_atom_site_fract_z
Si Si1 0.229438 0.040070 0.766734
Si Si2 0.841254 0.518317 0.983365
Si Si3 0.068110 0.083469 0.159758
Si Si4 0.056943 0.131774 0.889031
Si Si5 0.489169 0.136920 0.111236
O O1 0.282676 0.008628 0.892668
O O2 0.150089 0.127476 0.804473
O O3 0.287379 0.060231 0.640054
O O4 0.163219 0.941058 0.729940
O O5 0.924023 0.597619 0.027449
O O6 0.893800 0.410007 0.942766
O O7 0.000000 0.148557 0.250000
O O8 0.090657 0.130618 0.029058
O O9 0.007698 0.974036 0.130869
O O10 0.994463 0.236375 0.878580
O O11 0.500000 0.092271 0.250000
#
# Coordination Sequence:
#
# PCOD9456394 Si02
#       5
#     8   8   8   8   8
#     4  11  20  43  66  94 125 171 219 276 319 392
#     4  11  24  42  69  89 134 176 218 269 338 389
#     4   9  19  38  66  92 130 166 207 274 338 387
#     4  10  21  41  67  95 130 172 215 271 340 393
#     4  11  23  44  64  92 133 178 216 268 334 402
#
# _framework density 20.669219999999999
#
# number of rings (size 3 to 8) (size 9 to 14) (size 15 to 20)
#    0.000    1.600    4.000    1.800    0.000    0.000 
#   14.400    0.000    0.000    0.000    0.000    0.000 
#    0.000    0.000    0.000    0.000    0.000    0.000 
#
# Total GULP energy -222758.353825 kJ/mol
# GULP energy per Si atom -5568.958846 kJ/mol
# Density = 2.062218 g / cm^3
# Si number density = 20.669220 Si / 1000 Ang^3
#
#
#
# Elastic Constant Matrix: (Units=GPa)
#
#
# Indices 1 2 3 4 5 6 
#
# 1 98.4286 12.5346 79.8786 0.0000 0.0000 0.0000
# 2 12.5346 41.2438 18.2706 0.0000 0.0000 0.0000
# 3 79.8786 18.2706 208.6108 0.0000 0.0000 0.0000
# 4 0.0000 0.0000 0.0000 9.1545 0.0000 0.0000
# 5 0.0000 0.0000 0.0000 0.0000 69.3258 0.0000
# 6 0.0000 0.0000 0.0000 0.0000 0.0000 16.5864
#
#
#
# Elastic Compliance Matrix: (Units=1/GPa)
#
#
# Indices 1 2 3 4 5 6 
#
# 1 0.014910 -0.002083 -0.005527 0.000000 0.000000 0.000000
# 2 -0.002083 0.025516 -0.001437 0.000000 0.000000 0.000000
# 3 -0.005527 -0.001437 0.007036 0.000000 0.000000 0.000000
# 4 0.000000 0.000000 0.000000 0.109236 0.000000 0.000000
# 5 0.000000 0.000000 0.000000 0.000000 0.014425 0.000000
# 6 0.000000 0.000000 0.000000 0.000000 0.000000 0.060291
#
#
# Mechanical properties :
#
#
# Convention : Reuss Voigt Hill
#
# Bulk Modulus (GPa) = 34.05102 63.29454 48.67278
# Shear Modulus (GPa) = 19.28298 34.85328 27.06813
#
# Velocity S-wave (km/s) = 3.05771 4.11084 3.62275
# Velocity P-wave (km/s) = 5.38295 7.29528 6.41082
#
# Compressibility (1/GPa) = 0.02936769
#
# Stress axis : x y z
#
# Youngs Moduli (GPa) = 67.06870 39.19145 142.13216
#
# Poissons Ratio (x) = 0.08164 0.78553
# Poissons Ratio (y) = 0.13971 0.20426
# Poissons Ratio (z) = 0.37067 0.05632
#
# Static dielectric constant tensor:
#      x y z
#    x 1.769710 0.000000 0.000000 
#    y 0.000000 1.746170 0.000000 
#    z 0.000000 0.000000 1.870990 
# 
# From -- ./inp_files/11671.got.cif
#   From: 2010.05.17/outbox.cif.g08.bks.cpg/sg60_6_cif.got.tgz:11671.got - 2010.06.03 14:59:27.
