data_PCOD9456551
_publ_section_title
;
Structure prediction by ZEFSAII (Michael W. Deem and Ramdas Pophale) SiO2 
 PCOD9456551
Probable space group: P B C N
;
_chemical_formula_sum "Si O2"
_cell_formula_units_Z 64
_cell_length_a 22.448515
_cell_length_b 8.510076
_cell_length_c 13.546710
_cell_angle_alpha 90.000000
_cell_angle_beta 90.000000
_cell_angle_gamma 90.000000
_cell_volume 2587.944089
_symmetry_space_group_name_H-M "P B C N"
_symmetry_group_IT_number 60
_symmetry_cell_setting 'orthorhombic'
loop_
_space_group_symop_operation_xyz
x,y,z
1/2-x,1/2-y,1/2+z
1/2+x,1/2-y,-z
-x,y,1/2-z
-x,-y,-z
1/2+x,1/2+y,1/2-z
1/2-x,1/2+y,z
x,-y,1/2+z
loop_
_atom_site_type_symbol
_atom_site_label
_atom_site_fract_x
_atom_site_fract_y
_atom_site_fract_z
Si Si1 0.171152 0.108944 0.383571
Si Si2 0.842803 0.967155 0.919356
Si Si3 0.432193 0.510820 0.257847
Si Si4 0.079764 0.358295 0.793598
Si Si5 0.741664 0.669537 0.719039
Si Si6 0.209819 0.555258 0.147348
Si Si7 0.639149 0.867299 0.501343
Si Si8 0.467278 0.005914 0.606616
O O1 0.223614 0.228308 0.360860
O O2 0.158661 0.101144 0.498814
O O3 0.107740 0.120305 0.328685
O O4 0.198901 0.950639 0.335896
O O5 0.838622 0.806082 0.980293
O O6 0.898090 0.985842 0.846514
O O7 0.781312 0.961621 0.861312
O O8 0.500000 0.566746 0.250000
O O9 0.434101 0.329510 0.297655
O O10 0.078653 0.399060 0.675889
O O11 0.027534 0.474419 0.832149
O O12 0.127506 0.385856 0.881851
O O13 0.797628 0.588548 0.776362
O O14 0.703896 0.781095 0.794316
O O15 0.180581 0.503957 0.044738
O O16 0.580823 0.866577 0.429292
O O17 0.500000 0.000000 0.500000
#
# Coordination Sequence:
#
# PCOD9456551 Si02
#       8
#     8   8   8   8   8   8   8   8
#     4  11  25  45  73 106 148 194 259 311 382 453
#     4  12  26  44  68 106 147 189 252 310 379 458
#     4  12  24  45  75  98 144 194 243 313 376 457
#     4  10  21  44  72 101 139 190 248 303 368 443
#     4  10  22  45  74  98 147 198 241 319 372 455
#     4  11  22  42  70 104 147 191 249 304 380 447
#     4  11  23  41  70 101 146 192 243 315 372 448
#     4   9  20  41  73 100 135 179 242 299 365 435
#
# _framework density 24.730055
#
# number of rings (size 3 to 8) (size 9 to 14) (size 15 to 20)
#    0.000    1.250    6.250    0.000    3.500    0.500 
#    4.500    0.000   11.000    0.000    0.000    0.000 
#    0.000    0.000    0.000    0.000    0.000    0.000 
#
# Total GULP energy -356426.275160 kJ/mol
# GULP energy per Si atom -5569.160549 kJ/mol
# Density = 2.467377 g / cm^3
# Si number density = 24.730055 Si / 1000 Ang^3
#
#
#
# Elastic Constant Matrix: (Units=GPa)
#
#
# Indices 1 2 3 4 5 6 
#
# 1 110.4343 10.4236 37.8571 0.0000 0.0000 0.0000
# 2 10.4236 49.3532 12.8687 0.0000 0.0000 0.0000
# 3 37.8571 12.8687 131.9977 0.0000 0.0000 0.0000
# 4 0.0000 0.0000 0.0000 9.7143 0.0000 0.0000
# 5 0.0000 0.0000 0.0000 0.0000 48.2368 0.0000
# 6 0.0000 0.0000 0.0000 0.0000 0.0000 1.9586
#
#
#
# Elastic Compliance Matrix: (Units=1/GPa)
#
#
# Indices 1 2 3 4 5 6 
#
# 1 0.010138 -0.001419 -0.002769 0.000000 0.000000 0.000000
# 2 -0.001419 0.020989 -0.001639 0.000000 0.000000 0.000000
# 3 -0.002769 -0.001639 0.008530 0.000000 0.000000 0.000000
# 4 0.000000 0.000000 0.000000 0.102941 0.000000 0.000000
# 5 0.000000 0.000000 0.000000 0.000000 0.020731 0.000000
# 6 0.000000 0.000000 0.000000 0.000000 0.000000 0.510574
#
#
# Mechanical properties :
#
#
# Convention : Reuss Voigt Hill
#
# Bulk Modulus (GPa) = 35.71165 46.00934 40.86050
# Shear Modulus (GPa) = 7.19535 27.35766 17.27651
#
# Velocity S-wave (km/s) = 1.70759 3.32964 2.64598
# Velocity P-wave (km/s) = 4.28483 5.78161 5.08856
#
# Compressibility (1/GPa) = 0.02800207
#
# Stress axis : x y z
#
# Youngs Moduli (GPa) = 98.63437 47.64341 117.23388
#
# Poissons Ratio (x) = 0.06762 0.32466
# Poissons Ratio (y) = 0.13998 0.19218
# Poissons Ratio (z) = 0.27315 0.07810
#
# Static dielectric constant tensor:
#      x y z
#    x 1.739120 0.000000 0.000000 
#    y 0.000000 2.045210 0.000000 
#    z 0.000000 0.000000 2.111950 
# 
# From -- ./inp_files/17927.got.cif
#   From: 2010.05.17/outbox.cif.g08.bks.cpg/sg60_9_cif.got.tgz:17927.got - 2010.06.03 14:59:27.
