data_PCOD9456648
_publ_section_title
;
Structure prediction by ZEFSAII (Michael W. Deem and Ramdas Pophale) SiO2 
 PCOD9456648
Probable space group: P B C N
;
_chemical_formula_sum "Si O2"
_cell_formula_units_Z 56
_cell_length_a 17.764628
_cell_length_b 21.518976
_cell_length_c 5.056772
_cell_angle_alpha 90.000000
_cell_angle_beta 90.000000
_cell_angle_gamma 90.000000
_cell_volume 1933.085625
_symmetry_space_group_name_H-M "P B C N"
_symmetry_group_IT_number 60
_symmetry_cell_setting 'orthorhombic'
loop_
_space_group_symop_operation_xyz
x,y,z
1/2-x,1/2-y,1/2+z
1/2+x,1/2-y,-z
-x,y,1/2-z
-x,-y,-z
1/2+x,1/2+y,1/2-z
1/2-x,1/2+y,z
x,-y,1/2+z
loop_
_atom_site_type_symbol
_atom_site_label
_atom_site_fract_x
_atom_site_fract_y
_atom_site_fract_z
Si Si1 0.049388 0.227544 0.000512
Si Si2 0.257473 0.058987 0.904611
Si Si3 0.905014 0.524990 0.117823
Si Si4 0.604358 0.535339 0.300862
Si Si5 0.127165 0.867058 0.099227
Si Si6 0.861757 0.647831 0.881280
Si Si7 0.759861 0.211400 0.201446
O O1 0.095184 0.286831 0.120223
O O2 0.000000 0.207120 0.250000
O O3 0.090800 0.169656 0.847328
O O4 0.000000 0.252525 0.750000
O O5 0.195459 0.044970 0.139147
O O6 0.317118 0.001438 0.860746
O O7 0.194824 0.087895 0.699876
O O8 0.318026 0.116470 0.867225
O O9 0.935651 0.476091 0.908910
O O10 0.910459 0.591426 0.987980
O O11 0.580344 0.520290 0.599064
O O12 0.581566 0.591732 0.111514
O O13 0.162967 0.814499 0.911158
O O14 0.800494 0.661522 0.109057
O O15 0.741987 0.269363 0.005241
#
# Coordination Sequence:
#
# PCOD9456648 Si02
#       7
#     8   8   8   8   8   8   8
#     4  12  31  55  79 106 152 231 304 340 384 468
#     4  10  23  41  73 116 160 196 244 323 442 510
#     4  10  22  37  63 105 151 189 226 299 404 498
#     4  12  24  39  70 117 161 198 240 311 424 519
#     4  11  27  46  76 109 162 205 265 339 414 494
#     4  10  24  46  72 109 157 204 262 337 407 492
#     4  11  25  38  65 106 153 187 240 319 420 491
#
# _framework density 28.969232000000002
#
# number of rings (size 3 to 8) (size 9 to 14) (size 15 to 20)
#    0.000    1.143    2.857    1.714   16.000    3.429 
#    0.000    0.000    0.000   12.857    0.000    0.000 
#    0.000    0.000    0.000    0.000    0.000    0.000 
#
# Total GULP energy -312180.721469 kJ/mol
# GULP energy per Si atom -5574.655741 kJ/mol
# Density = 2.890330 g / cm^3
# Si number density = 28.969232 Si / 1000 Ang^3
#
#
#
# Elastic Constant Matrix: (Units=GPa)
#
#
# Indices 1 2 3 4 5 6 
#
# 1 107.8312 41.0050 28.6259 0.0000 0.0000 0.0000
# 2 41.0050 150.5401 23.2292 0.0000 0.0000 0.0000
# 3 28.6259 23.2292 129.7953 0.0000 0.0000 0.0000
# 4 0.0000 0.0000 0.0000 43.5367 0.0000 0.0000
# 5 0.0000 0.0000 0.0000 0.0000 49.7937 0.0000
# 6 0.0000 0.0000 0.0000 0.0000 0.0000 39.8406
#
#
#
# Elastic Compliance Matrix: (Units=1/GPa)
#
#
# Indices 1 2 3 4 5 6 
#
# 1 0.010785 -0.002644 -0.001905 0.000000 0.000000 0.000000
# 2 -0.002644 0.007479 -0.000756 0.000000 0.000000 0.000000
# 3 -0.001905 -0.000756 0.008260 0.000000 0.000000 0.000000
# 4 0.000000 0.000000 0.000000 0.022969 0.000000 0.000000
# 5 0.000000 0.000000 0.000000 0.000000 0.020083 0.000000
# 6 0.000000 0.000000 0.000000 0.000000 0.000000 0.025100
#
#
# Mechanical properties :
#
#
# Convention : Reuss Voigt Hill
#
# Bulk Modulus (GPa) = 62.83387 63.76520 63.29954
# Shear Modulus (GPa) = 45.21186 46.32129 45.76657
#
# Velocity S-wave (km/s) = 3.95484 4.00307 3.97902
# Velocity P-wave (km/s) = 6.52620 6.58978 6.55807
#
# Compressibility (1/GPa) = 0.01591498
#
# Stress axis : x y z
#
# Youngs Moduli (GPa) = 92.72238 133.70023 121.06690
#
# Poissons Ratio (x) = 0.35345 0.23069
# Poissons Ratio (y) = 0.24512 0.09147
# Poissons Ratio (z) = 0.17668 0.10102
#
# Static dielectric constant tensor:
#      x y z
#    x 2.568960 0.000000 0.000000 
#    y 0.000000 2.341380 0.000000 
#    z 0.000000 0.000000 2.341770 
# 
# From -- ./inp_files/2139.got.cif
#   From: 2010.05.17/outbox.cif.g08.bks.cpg/sg60_2_cif.got.tgz:2139.got - 2010.06.03 14:59:27.
