data_PCOD9456183
_publ_section_title
;
Structure prediction by ZEFSAII (Michael W. Deem and Ramdas Pophale) SiO2 
 PCOD9456183
Probable space group: P B C N
;
_chemical_formula_sum "Si O2"
_cell_formula_units_Z 48
_cell_length_a 12.152670
_cell_length_b 16.842417
_cell_length_c 10.369652
_cell_angle_alpha 90.000000
_cell_angle_beta 90.000000
_cell_angle_gamma 90.000000
_cell_volume 2122.463854
_symmetry_space_group_name_H-M "P B C N"
_symmetry_group_IT_number 60
_symmetry_cell_setting 'orthorhombic'
loop_
_space_group_symop_operation_xyz
x,y,z
1/2-x,1/2-y,1/2+z
1/2+x,1/2-y,-z
-x,y,1/2-z
-x,-y,-z
1/2+x,1/2+y,1/2-z
1/2-x,1/2+y,z
x,-y,1/2+z
loop_
_atom_site_type_symbol
_atom_site_label
_atom_site_fract_x
_atom_site_fract_y
_atom_site_fract_z
Si Si1 0.288670 0.681370 0.552008
Si Si2 0.876004 0.715196 0.211424
Si Si3 0.433578 0.533446 0.623353
Si Si4 0.748720 0.672707 0.579439
Si Si5 0.729144 0.070716 0.322301
Si Si6 0.378916 0.906004 0.194165
O O1 0.317396 0.736752 0.673494
O O2 0.363089 0.604605 0.562580
O O3 0.311871 0.742607 0.435950
O O4 0.163712 0.648868 0.576167
O O5 0.869454 0.785095 0.102970
O O6 0.811793 0.630559 0.210711
O O7 0.000000 0.697160 0.250000
O O8 0.500000 0.561450 0.750000
O O9 0.500000 0.500000 0.500000
O O10 0.348699 0.469545 0.685296
O O11 0.762307 0.621178 0.452964
O O12 0.794562 0.618384 0.692211
O O13 0.643140 0.998171 0.336071
O O14 0.500000 0.892245 0.250000
#
# Coordination Sequence:
#
# PCOD9456183 Si02
#       6
#     8   8   8   8   8   8
#     4   9  22  41  61  96 131 172 227 275 345 419
#     4  10  21  39  65  90 129 176 226 283 351 406
#     4  11  26  43  71 101 137 186 227 286 350 417
#     4  10  23  42  64  93 137 173 224 290 339 424
#     4  10  24  41  63  98 128 177 229 287 343 418
#     4  10  22  42  66  94 133 169 228 290 347 412
#
# _framework density 22.615227000000001
#
# number of rings (size 3 to 8) (size 9 to 14) (size 15 to 20)
#    0.000    2.000    0.000    1.000   11.667    4.667 
#    6.000    0.000    0.000    0.000    0.000    0.000 
#    0.000    0.000    0.000    0.000    0.000    0.000 
#
# Total GULP energy -267298.584947 kJ/mol
# GULP energy per Si atom -5568.720520 kJ/mol
# Density = 2.256375 g / cm^3
# Si number density = 22.615227 Si / 1000 Ang^3
#
#
#
# Elastic Constant Matrix: (Units=GPa)
#
#
# Indices 1 2 3 4 5 6 
#
# 1 93.8396 41.5649 4.3584 0.0000 0.0000 0.0000
# 2 41.5649 142.2102 25.3099 0.0000 0.0000 0.0000
# 3 4.3584 25.3099 67.1286 0.0000 0.0000 0.0000
# 4 0.0000 0.0000 0.0000 37.0624 0.0000 0.0000
# 5 0.0000 0.0000 0.0000 0.0000 18.7139 0.0000
# 6 0.0000 0.0000 0.0000 0.0000 0.0000 -771.7355
#
#
#
# Elastic Compliance Matrix: (Units=1/GPa)
#
#
# Indices 1 2 3 4 5 6 
#
# 1 0.012263 -0.003690 0.000595 0.000000 0.000000 0.000000
# 2 -0.003690 0.008648 -0.003021 0.000000 0.000000 0.000000
# 3 0.000595 -0.003021 0.015997 0.000000 0.000000 0.000000
# 4 0.000000 0.000000 0.000000 0.026981 0.000000 0.000000
# 5 0.000000 0.000000 0.000000 0.000000 0.053436 0.000000
# 6 0.000000 0.000000 0.000000 0.000000 0.000000 -0.001296
#
#
# Mechanical properties :
#
#
# Convention : Reuss Voigt Hill
#
# Bulk Modulus (GPa) = 40.52462 49.51609 45.02036
# Shear Modulus (GPa) = 36.63319 -127.72881 -45.54781
#
# Velocity S-wave (km/s) = 4.02910 -7.52341 -4.49267
# Velocity P-wave (km/s) = 6.29308 7.31618 2.63851
#
# Compressibility (1/GPa) = 0.02467636
#
# Stress axis : x y z
#
# Youngs Moduli (GPa) = 81.54364 115.63249 62.51099
#
# Poissons Ratio (x) = 0.42671 -0.03720
# Poissons Ratio (y) = 0.30091 0.18885
# Poissons Ratio (z) = -0.04853 0.34933
#
# Static dielectric constant tensor:
#      x y z
#    x 1.992580 0.000000 0.000000 
#    y 0.000000 1.843690 0.000000 
#    z 0.000000 0.000000 2.054600 
# 
# From -- ./inp_files/11035.got.cif
#   From: 2010.05.17/outbox.cif.g08.bks.cpg/sg60_6_cif.got.tgz:11035.got - 2010.06.03 14:59:27.
