data_PCOD9456375
_publ_section_title
;
Structure prediction by ZEFSAII (Michael W. Deem and Ramdas Pophale) SiO2 
 PCOD9456375
Probable space group: P B C N
;
_chemical_formula_sum "Si O2"
_cell_formula_units_Z 56
_cell_length_a 9.571453
_cell_length_b 14.035885
_cell_length_c 19.833994
_cell_angle_alpha 90.000000
_cell_angle_beta 90.000000
_cell_angle_gamma 90.000000
_cell_volume 2664.574393
_symmetry_space_group_name_H-M "P B C N"
_symmetry_group_IT_number 60
_symmetry_cell_setting 'orthorhombic'
loop_
_space_group_symop_operation_xyz
x,y,z
1/2-x,1/2-y,1/2+z
1/2+x,1/2-y,-z
-x,y,1/2-z
-x,-y,-z
1/2+x,1/2+y,1/2-z
1/2-x,1/2+y,z
x,-y,1/2+z
loop_
_atom_site_type_symbol
_atom_site_label
_atom_site_fract_x
_atom_site_fract_y
_atom_site_fract_z
Si Si1 0.738325 0.644037 0.178453
Si Si2 0.278716 0.231252 0.939184
Si Si3 0.500000 0.770021 0.250000
Si Si4 0.453682 0.662539 0.026369
Si Si5 0.716339 0.026567 0.596744
Si Si6 0.500000 0.905639 0.750000
Si Si7 0.085768 0.437020 0.147231
Si Si8 0.659245 0.469397 0.449822
O O1 0.773069 0.680976 0.103525
O O2 0.614420 0.701666 0.213861
O O3 0.721114 0.532821 0.159242
O O4 0.880328 0.656698 0.217997
O O5 0.440558 0.256759 0.948694
O O6 0.248823 0.137593 0.896262
O O7 0.189426 0.213218 0.005561
O O8 0.559737 0.841341 0.308310
O O9 0.413367 0.570178 0.071313
O O10 0.542280 0.609949 0.966554
O O11 0.548160 0.032834 0.601660
O O12 0.769949 0.993820 0.522958
O O13 0.416721 0.976035 0.700084
O O14 0.224609 0.436182 0.102490
#
# Coordination Sequence:
#
# PCOD9456375 Si02
#       8
#     8   8   4   8   8   4   8   8
#     4  11  23  44  65  93 132 174 233 279 336 397
#     4  11  23  41  67  96 140 175 220 278 335 417
#     4  11  24  42  69  98 130 188 233 286 327 418
#     4  10  24  39  62 102 138 169 221 273 346 411
#     4  10  21  41  68  97 134 177 216 287 344 406
#     4   9  24  42  59  92 128 176 227 278 321 404
#     4  10  21  41  68  95 130 174 236 272 342 406
#     4  10  21  41  66 100 137 172 224 286 350 406
#
# _framework density 21.016490999999998
#
# number of rings (size 3 to 8) (size 9 to 14) (size 15 to 20)
#    0.000    1.714    2.857    0.429    2.000    6.857 
#    0.000    0.714    0.000    0.000    0.000    0.000 
#    0.000    0.000    0.000    0.000    0.000    0.000 
#
# Total GULP energy -311970.867897 kJ/mol
# GULP energy per Si atom -5570.908355 kJ/mol
# Density = 2.096866 g / cm^3
# Si number density = 21.016491 Si / 1000 Ang^3
#
#
#
# Elastic Constant Matrix: (Units=GPa)
#
#
# Indices 1 2 3 4 5 6 
#
# 1 90.6067 43.3517 32.1073 0.0000 0.0000 0.0000
# 2 43.3517 82.4330 17.6116 0.0000 0.0000 0.0000
# 3 32.1073 17.6116 37.5940 0.0000 0.0000 0.0000
# 4 0.0000 0.0000 0.0000 -7.3429 0.0000 0.0000
# 5 0.0000 0.0000 0.0000 0.0000 28.0046 0.0000
# 6 0.0000 0.0000 0.0000 0.0000 0.0000 33.1424
#
#
#
# Elastic Compliance Matrix: (Units=1/GPa)
#
#
# Indices 1 2 3 4 5 6 
#
# 1 0.019091 -0.007286 -0.012891 0.000000 0.000000 0.000000
# 2 -0.007286 0.016261 -0.001395 0.000000 0.000000 0.000000
# 3 -0.012891 -0.001395 0.038264 0.000000 0.000000 0.000000
# 4 0.000000 0.000000 0.000000 -0.136185 0.000000 0.000000
# 5 0.000000 0.000000 0.000000 0.000000 0.035708 0.000000
# 6 0.000000 0.000000 0.000000 0.000000 0.000000 0.030173
#
#
# Mechanical properties :
#
#
# Convention : Reuss Voigt Hill
#
# Bulk Modulus (GPa) = 32.81881 44.08609 38.45245
# Shear Modulus (GPa) = 88.31884 18.59835 53.45860
#
# Velocity S-wave (km/s) = 6.48959 2.97802 5.04893
# Velocity P-wave (km/s) = 8.47365 5.73125 7.23360
#
# Compressibility (1/GPa) = 0.03047033
#
# Stress axis : x y z
#
# Youngs Moduli (GPa) = 52.38119 61.49792 26.13444
#
# Poissons Ratio (x) = 0.44805 0.33691
# Poissons Ratio (y) = 0.38163 0.03647
# Poissons Ratio (z) = 0.67527 0.08581
#
# Static dielectric constant tensor:
#      x y z
#    x 1.776150 0.000000 0.000000 
#    y 0.000000 1.797270 0.000000 
#    z 0.000000 0.000000 1.820300 
# 
# From -- ./inp_files/22266.got.cif
#   From: 2010.05.17/outbox.cif.g08.bks.cpg/sg60_12_cif.got.tgz:22266.got - 2010.06.03 14:59:27.
