data_PCOD9456748
_publ_section_title
;
Structure prediction by ZEFSAII (Michael W. Deem and Ramdas Pophale) SiO2 
 PCOD9456748
Probable space group: P B C N
;
_chemical_formula_sum "Si O2"
_cell_formula_units_Z 40
_cell_length_a 19.609358
_cell_length_b 5.401472
_cell_length_c 14.661917
_cell_angle_alpha 90.000000
_cell_angle_beta 90.000000
_cell_angle_gamma 90.000000
_cell_volume 1552.981425
_symmetry_space_group_name_H-M "P B C N"
_symmetry_group_IT_number 60
_symmetry_cell_setting 'orthorhombic'
loop_
_space_group_symop_operation_xyz
x,y,z
1/2-x,1/2-y,1/2+z
1/2+x,1/2-y,-z
-x,y,1/2-z
-x,-y,-z
1/2+x,1/2+y,1/2-z
1/2-x,1/2+y,z
x,-y,1/2+z
loop_
_atom_site_type_symbol
_atom_site_label
_atom_site_fract_x
_atom_site_fract_y
_atom_site_fract_z
Si Si1 0.032923 0.431692 0.348970
Si Si2 0.521850 0.430110 0.101099
Si Si3 0.901470 0.384646 0.880964
Si Si4 0.289388 0.100020 0.750937
Si Si5 0.289627 0.894303 0.469422
O O1 0.066668 0.684198 0.381820
O O2 0.962835 0.432467 0.408719
O O3 0.000000 0.460977 0.250000
O O4 0.061423 0.160784 0.357387
O O5 0.448125 0.353891 0.146023
O O6 0.500000 0.500000 0.000000
O O7 0.856437 0.508282 0.802249
O O8 0.854897 0.339512 0.968116
O O9 0.235849 0.877536 0.726772
O O10 0.298654 0.103813 0.860139
O O11 0.261525 0.167839 0.492612
#
# Coordination Sequence:
#
# PCOD9456748 Si02
#       5
#     8   8   8   8   8
#     4  10  23  41  61  89 123 162 213 263 319 383
#     4  10  23  41  61  89 123 163 214 265 321 376
#     4  10  24  37  68  90 121 172 207 254 327 376
#     4  10  22  39  60  92 127 160 203 255 307 379
#     4  10  22  39  60  92 130 160 207 261 312 381
#
# _framework density 25.756907999999999
#
# number of rings (size 3 to 8) (size 9 to 14) (size 15 to 20)
#    1.200    0.800    0.000    2.400    5.600    1.600 
#    0.000    0.000    0.000    0.000    0.000    0.000 
#    0.000    0.000    0.000    0.000    0.000    0.000 
#
# Total GULP energy -223318.650129 kJ/mol
# GULP energy per Si atom -5582.966253 kJ/mol
# Density = 2.569828 g / cm^3
# Si number density = 25.756908 Si / 1000 Ang^3
#
#
#
# Elastic Constant Matrix: (Units=GPa)
#
#
# Indices 1 2 3 4 5 6 
#
# 1 86.5840 8.8948 -8.7121 0.0000 0.0000 0.0000
# 2 8.8948 211.0940 35.5366 0.0000 0.0000 0.0000
# 3 -8.7121 35.5366 63.2069 0.0000 0.0000 0.0000
# 4 0.0000 0.0000 0.0000 34.3014 0.0000 0.0000
# 5 0.0000 0.0000 0.0000 0.0000 35.1989 0.0000
# 6 0.0000 0.0000 0.0000 0.0000 0.0000 34.8712
#
#
#
# Elastic Compliance Matrix: (Units=1/GPa)
#
#
# Indices 1 2 3 4 5 6 
#
# 1 0.011850 -0.000855 0.002114 0.000000 0.000000 0.000000
# 2 -0.000855 0.005294 -0.003094 0.000000 0.000000 0.000000
# 3 0.002114 -0.003094 0.017852 0.000000 0.000000 0.000000
# 4 0.000000 0.000000 0.000000 0.029153 0.000000 0.000000
# 5 0.000000 0.000000 0.000000 0.000000 0.028410 0.000000
# 6 0.000000 0.000000 0.000000 0.000000 0.000000 0.028677
#
#
# Mechanical properties :
#
#
# Convention : Reuss Voigt Hill
#
# Bulk Modulus (GPa) = 31.92282 48.03594 39.97938
# Shear Modulus (GPa) = 36.94139 42.55200 39.74670
#
# Velocity S-wave (km/s) = 3.79123 4.06897 3.93255
# Velocity P-wave (km/s) = 5.62009 6.38479 6.01460
#
# Compressibility (1/GPa) = 0.03132556
#
# Stress axis : x y z
#
# Youngs Moduli (GPa) = 84.38771 188.88627 56.01541
#
# Poissons Ratio (x) = 0.16154 -0.11843
# Poissons Ratio (y) = 0.07217 0.17333
# Poissons Ratio (z) = -0.17841 0.58449
#
# Static dielectric constant tensor:
#      x y z
#    x 2.048300 0.000000 0.000000 
#    y 0.000000 2.111490 0.000000 
#    z 0.000000 0.000000 2.100530 
# 
# From -- ./inp_files/17827.got.cif
#   From: 2010.05.17/outbox.cif.g08.bks.cpg/sg60_9_cif.got.tgz:17827.got - 2010.06.03 14:59:27.
