data_PCOD9456303
_publ_section_title
;
Structure prediction by ZEFSAII (Michael W. Deem and Ramdas Pophale) SiO2 
 PCOD9456303
Probable space group: P B C N
;
_chemical_formula_sum "Si O2"
_cell_formula_units_Z 60
_cell_length_a 10.983716
_cell_length_b 18.701062
_cell_length_c 14.193848
_cell_angle_alpha 90.000000
_cell_angle_beta 90.000000
_cell_angle_gamma 90.000000
_cell_volume 2915.517921
_symmetry_space_group_name_H-M "P B C N"
_symmetry_group_IT_number 60
_symmetry_cell_setting 'orthorhombic'
loop_
_space_group_symop_operation_xyz
x,y,z
1/2-x,1/2-y,1/2+z
1/2+x,1/2-y,-z
-x,y,1/2-z
-x,-y,-z
1/2+x,1/2+y,1/2-z
1/2-x,1/2+y,z
x,-y,1/2+z
loop_
_atom_site_type_symbol
_atom_site_label
_atom_site_fract_x
_atom_site_fract_y
_atom_site_fract_z
Si Si1 0.500000 0.830727 0.750000
Si Si2 0.097567 0.316630 0.076237
Si Si3 0.969827 0.164003 0.491833
Si Si4 0.066308 0.556817 0.843812
Si Si5 0.656147 0.085726 0.099447
Si Si6 0.842045 0.104434 0.662653
Si Si7 0.062835 0.965272 0.906839
Si Si8 0.358802 0.296758 0.158801
O O1 0.399877 0.876908 0.807121
O O2 0.574236 0.778672 0.821767
O O3 0.215846 0.295136 0.136543
O O4 0.008833 0.374186 0.123754
O O5 0.035065 0.242986 0.048064
O O6 0.139136 0.357245 0.982365
O O7 0.857456 0.141503 0.559661
O O8 0.987008 0.108255 0.406253
O O9 0.077967 0.163990 0.569913
O O10 0.081051 0.488280 0.911434
O O11 0.203787 0.580467 0.823109
O O12 0.000000 0.530526 0.750000
O O13 0.797493 0.062332 0.094854
O O14 0.872297 0.158818 0.745110
O O15 0.926490 0.033654 0.660859
O O16 0.000000 0.000000 0.000000
#
# Coordination Sequence:
#
# PCOD9456303 Si02
#       8
#     4   8   8   8   8   8   8   8
#     4  12  24  40  70 102 134 176 232 276 344 406
#     4  12  25  39  65  98 133 174 221 276 333 409
#     4  11  22  40  67  94 130 170 221 276 331 399
#     4  11  23  41  62  93 133 170 219 275 337 393
#     4  11  22  42  67  95 135 175 225 288 331 412
#     4  10  21  40  67  91 128 173 219 274 332 402
#     4   9  21  41  68  96 127 172 223 276 337 401
#     4  12  22  39  65  99 127 177 222 267 338 404
#
# _framework density 20.579535
#
# number of rings (size 3 to 8) (size 9 to 14) (size 15 to 20)
#    0.000    1.067    6.000    0.400    1.867    1.067 
#    0.000    0.000   26.400    0.000    0.000    0.000 
#    0.000    0.000    0.000    0.000    0.000    0.000 
#
# Total GULP energy -334372.900930 kJ/mol
# GULP energy per Si atom -5572.881682 kJ/mol
# Density = 2.053269 g / cm^3
# Si number density = 20.579535 Si / 1000 Ang^3
#
#
#
# Elastic Constant Matrix: (Units=GPa)
#
#
# Indices 1 2 3 4 5 6 
#
# 1 86.5240 22.5225 27.6332 0.0000 0.0000 0.0000
# 2 22.5225 126.8699 16.7480 0.0000 0.0000 0.0000
# 3 27.6332 16.7480 46.7505 0.0000 0.0000 0.0000
# 4 0.0000 0.0000 0.0000 65.3408 0.0000 0.0000
# 5 0.0000 0.0000 0.0000 0.0000 26.3058 0.0000
# 6 0.0000 0.0000 0.0000 0.0000 0.0000 27.1660
#
#
#
# Elastic Compliance Matrix: (Units=1/GPa)
#
#
# Indices 1 2 3 4 5 6 
#
# 1 0.014520 -0.001516 -0.008039 0.000000 0.000000 0.000000
# 2 -0.001516 0.008432 -0.002124 0.000000 0.000000 0.000000
# 3 -0.008039 -0.002124 0.026903 0.000000 0.000000 0.000000
# 4 0.000000 0.000000 0.000000 0.015304 0.000000 0.000000
# 5 0.000000 0.000000 0.000000 0.000000 0.038014 0.000000
# 6 0.000000 0.000000 0.000000 0.000000 0.000000 0.036811
#
#
# Mechanical properties :
#
#
# Convention : Reuss Voigt Hill
#
# Bulk Modulus (GPa) = 37.74322 43.77244 40.75783
# Shear Modulus (GPa) = 29.04027 36.64524 32.84276
#
# Velocity S-wave (km/s) = 3.76057 4.22437 3.99920
# Velocity P-wave (km/s) = 6.10212 6.71638 6.41660
#
# Compressibility (1/GPa) = 0.02649482
#
# Stress axis : x y z
#
# Youngs Moduli (GPa) = 68.87230 118.59993 37.17074
#
# Poissons Ratio (x) = 0.17984 0.29882
# Poissons Ratio (y) = 0.10444 0.07896
# Poissons Ratio (z) = 0.55367 0.25194
#
# Static dielectric constant tensor:
#      x y z
#    x 1.723930 0.000000 0.000000 
#    y 0.000000 1.754360 0.000000 
#    z 0.000000 0.000000 1.745200 
# 
# From -- ./inp_files/16333.got.cif
#   From: 2010.05.17/outbox.cif.g08.bks.cpg/sg60_9_cif.got.tgz:16333.got - 2010.06.03 14:59:27.
