data_PCOD9456537
_publ_section_title
;
Structure prediction by ZEFSAII (Michael W. Deem and Ramdas Pophale) SiO2 
 PCOD9456537
Probable space group: P B C N
;
_chemical_formula_sum "Si O2"
_cell_formula_units_Z 40
_cell_length_a 10.110861
_cell_length_b 9.290580
_cell_length_c 17.830333
_cell_angle_alpha 90.000000
_cell_angle_beta 90.000000
_cell_angle_gamma 90.000000
_cell_volume 1674.905935
_symmetry_space_group_name_H-M "P B C N"
_symmetry_group_IT_number 60
_symmetry_cell_setting 'orthorhombic'
loop_
_space_group_symop_operation_xyz
x,y,z
1/2-x,1/2-y,1/2+z
1/2+x,1/2-y,-z
-x,y,1/2-z
-x,-y,-z
1/2+x,1/2+y,1/2-z
1/2-x,1/2+y,z
x,-y,1/2+z
loop_
_atom_site_type_symbol
_atom_site_label
_atom_site_fract_x
_atom_site_fract_y
_atom_site_fract_z
Si Si1 0.791402 0.454642 0.667613
Si Si2 0.186005 0.699758 0.485612
Si Si3 0.934421 0.760544 0.411596
Si Si4 0.803732 0.831697 0.267897
Si Si5 0.941248 0.571647 0.866598
O O1 0.770761 0.399287 0.583847
O O2 0.678031 0.540644 0.709252
O O3 0.821623 0.318215 0.722545
O O4 0.906566 0.577017 0.658132
O O5 0.318524 0.746697 0.526862
O O6 0.098573 0.627367 0.551363
O O7 0.075078 0.800582 0.447338
O O8 0.895509 0.853504 0.340215
O O9 0.932099 0.600868 0.375711
O O10 0.659532 0.855444 0.308292
#
# Coordination Sequence:
#
# PCOD9456537 Si02
#       5
#     8   8   8   8   8
#     4  11  23  41  73 101 134 192 237 290 359 431
#     4  10  24  40  77  99 140 187 248 286 365 422
#     4  10  21  44  68 104 134 193 230 301 349 428
#     4  11  23  39  71 101 142 180 237 291 356 425
#     4  10  22  45  72  96 142 193 237 292 364 422
#
# _framework density 23.881937000000001
#
# number of rings (size 3 to 8) (size 9 to 14) (size 15 to 20)
#    0.000    1.600    2.000    3.000    8.400    0.000 
#    0.000    4.000   26.400    0.000    0.000    0.000 
#    0.000    0.000    0.000    0.000    0.000    0.000 
#
# Total GULP energy -223148.510526 kJ/mol
# GULP energy per Si atom -5578.712763 kJ/mol
# Density = 2.382758 g / cm^3
# Si number density = 23.881937 Si / 1000 Ang^3
#
#
#
# Elastic Constant Matrix: (Units=GPa)
#
#
# Indices 1 2 3 4 5 6 
#
# 1 83.3259 18.8555 21.3164 0.0000 0.0000 0.0000
# 2 18.8555 16.2003 23.9471 0.0000 0.0000 0.0000
# 3 21.3164 23.9471 166.6126 0.0000 0.0000 0.0000
# 4 0.0000 0.0000 0.0000 30.4482 0.0000 0.0000
# 5 0.0000 0.0000 0.0000 0.0000 31.2254 0.0000
# 6 0.0000 0.0000 0.0000 0.0000 0.0000 28.9772
#
#
#
# Elastic Compliance Matrix: (Units=1/GPa)
#
#
# Indices 1 2 3 4 5 6 
#
# 1 0.016379 -0.020273 0.000818 0.000000 0.000000 0.000000
# 2 -0.020273 0.103473 -0.012278 0.000000 0.000000 0.000000
# 3 0.000818 -0.012278 0.007662 0.000000 0.000000 0.000000
# 4 0.000000 0.000000 0.000000 0.032843 0.000000 0.000000
# 5 0.000000 0.000000 0.000000 0.000000 0.032025 0.000000
# 6 0.000000 0.000000 0.000000 0.000000 0.000000 0.034510
#
#
# Mechanical properties :
#
#
# Convention : Reuss Voigt Hill
#
# Bulk Modulus (GPa) = 15.61347 43.81963 29.71655
# Shear Modulus (GPa) = 16.04068 31.59815 23.81942
#
# Velocity S-wave (km/s) = 2.59446 3.64139 3.16156
# Velocity P-wave (km/s) = 3.94043 6.00565 5.07912
#
# Compressibility (1/GPa) = 0.06404728
#
# Stress axis : x y z
#
# Youngs Moduli (GPa) = 61.05263 9.66439 130.51433
#
# Poissons Ratio (x) = 0.19593 -0.10680
# Poissons Ratio (y) = 1.23774 1.60249
# Poissons Ratio (z) = -0.04996 0.11866
#
# Static dielectric constant tensor:
#      x y z
#    x 2.003140 0.000000 0.000000 
#    y 0.000000 1.920330 0.000000 
#    z 0.000000 0.000000 1.916300 
# 
# From -- ./inp_files/19849.got.cif
#   From: 2010.05.17/outbox.cif.g08.bks.cpg/sg60_10_cif.got.tgz:19849.got - 2010.06.03 14:59:27.
