data_PCOD9456676
_publ_section_title
;
Structure prediction by ZEFSAII (Michael W. Deem and Ramdas Pophale) SiO2 
 PCOD9456676
Probable space group: P B C N
;
_chemical_formula_sum "Si O2"
_cell_formula_units_Z 40
_cell_length_a 9.153910
_cell_length_b 25.122113
_cell_length_c 8.744791
_cell_angle_alpha 90.000000
_cell_angle_beta 90.000000
_cell_angle_gamma 90.000000
_cell_volume 2011.000772
_symmetry_space_group_name_H-M "P B C N"
_symmetry_group_IT_number 60
_symmetry_cell_setting 'orthorhombic'
loop_
_space_group_symop_operation_xyz
x,y,z
1/2-x,1/2-y,1/2+z
1/2+x,1/2-y,-z
-x,y,1/2-z
-x,-y,-z
1/2+x,1/2+y,1/2-z
1/2-x,1/2+y,z
x,-y,1/2+z
loop_
_atom_site_type_symbol
_atom_site_label
_atom_site_fract_x
_atom_site_fract_y
_atom_site_fract_z
Si Si1 0.356507 0.938265 0.034963
Si Si2 0.983680 0.229923 0.071027
Si Si3 0.187146 0.453260 0.398164
Si Si4 0.696896 0.180367 0.937461
Si Si5 0.360028 0.646657 0.857201
O O1 0.532320 0.940735 0.020404
O O2 0.329758 0.948709 0.215050
O O3 0.304600 0.879092 0.995384
O O4 0.281593 0.986026 0.943218
O O5 0.044379 0.289331 0.043459
O O6 0.000000 0.219592 0.250000
O O7 0.087062 0.189889 0.977269
O O8 0.822583 0.216481 0.011643
O O9 0.301128 0.406877 0.434978
O O10 0.739636 0.171337 0.758967
O O11 0.500000 0.633790 0.750000
#
# Coordination Sequence:
#
# PCOD9456676 Si02
#       5
#     8   8   8   8   8
#     4   9  19  34  58  84 112 147 191 231 284 349
#     4  11  23  37  59  87 115 154 194 237 280 339
#     4   9  18  35  59  82 111 150 184 236 289 339
#     4  10  22  38  60  85 118 152 192 231 290 343
#     4   9  20  39  57  82 116 153 190 232 291 351
#
# _framework density 19.890595999999999
#
# number of rings (size 3 to 8) (size 9 to 14) (size 15 to 20)
#    0.000    2.400    0.000    1.200    8.400    1.600 
#    0.000   10.000   13.200    0.000    0.000    0.000 
#    0.000    0.000    0.000    0.000    0.000    0.000 
#
# Total GULP energy -223227.179252 kJ/mol
# GULP energy per Si atom -5580.679481 kJ/mol
# Density = 1.984532 g / cm^3
# Si number density = 19.890596 Si / 1000 Ang^3
#
#
#
# Elastic Constant Matrix: (Units=GPa)
#
#
# Indices 1 2 3 4 5 6 
#
# 1 49.3092 54.7721 6.1217 0.0000 0.0000 0.0000
# 2 54.7721 127.4632 27.7813 0.0000 0.0000 0.0000
# 3 6.1217 27.7813 29.9332 0.0000 0.0000 0.0000
# 4 0.0000 0.0000 0.0000 28.2012 0.0000 0.0000
# 5 0.0000 0.0000 0.0000 0.0000 20.9213 0.0000
# 6 0.0000 0.0000 0.0000 0.0000 0.0000 35.2144
#
#
#
# Elastic Compliance Matrix: (Units=1/GPa)
#
#
# Indices 1 2 3 4 5 6 
#
# 1 0.041057 -0.019822 0.010001 0.000000 0.000000 0.000000
# 2 -0.019822 0.019405 -0.013956 0.000000 0.000000 0.000000
# 3 0.010001 -0.013956 0.044315 0.000000 0.000000 0.000000
# 4 0.000000 0.000000 0.000000 0.035460 0.000000 0.000000
# 5 0.000000 0.000000 0.000000 0.000000 0.047798 0.000000
# 6 0.000000 0.000000 0.000000 0.000000 0.000000 0.028397
#
#
# Mechanical properties :
#
#
# Convention : Reuss Voigt Hill
#
# Bulk Modulus (GPa) = 17.47587 42.67287 30.07437
# Shear Modulus (GPa) = 17.66398 24.73607 21.20002
#
# Velocity S-wave (km/s) = 2.98326 3.53031 3.26825
# Velocity P-wave (km/s) = 4.54660 6.17396 5.42168
#
# Compressibility (1/GPa) = 0.05722176
#
# Stress axis : x y z
#
# Youngs Moduli (GPa) = 24.35640 51.53304 22.56558
#
# Poissons Ratio (x) = 1.02150 -0.22567
# Poissons Ratio (y) = 0.48280 0.31493
# Poissons Ratio (z) = -0.24358 0.71920
#
# Static dielectric constant tensor:
#      x y z
#    x 1.736820 0.000000 0.000000 
#    y 0.000000 1.713170 0.000000 
#    z 0.000000 0.000000 1.682950 
# 
# From -- ./inp_files/3996.got.cif
#   From: 2010.05.17/outbox.cif.g08.bks.cpg/sg60_2_cif.got.tgz:3996.got - 2010.06.03 14:59:27.
