data_PCOD9456040
_publ_section_title
;
Structure prediction by ZEFSAII (Michael W. Deem and Ramdas Pophale) SiO2 
 PCOD9456040
Probable space group: P B C N
;
_chemical_formula_sum "Si O2"
_cell_formula_units_Z 56
_cell_length_a 10.217169
_cell_length_b 13.687032
_cell_length_c 17.536119
_cell_angle_alpha 90.000000
_cell_angle_beta 90.000000
_cell_angle_gamma 90.000000
_cell_volume 2452.298563
_symmetry_space_group_name_H-M "P B C N"
_symmetry_group_IT_number 60
_symmetry_cell_setting 'orthorhombic'
loop_
_space_group_symop_operation_xyz
x,y,z
1/2-x,1/2-y,1/2+z
1/2+x,1/2-y,-z
-x,y,1/2-z
-x,-y,-z
1/2+x,1/2+y,1/2-z
1/2-x,1/2+y,z
x,-y,1/2+z
loop_
_atom_site_type_symbol
_atom_site_label
_atom_site_fract_x
_atom_site_fract_y
_atom_site_fract_z
Si Si1 0.856596 0.320498 0.222850
Si Si2 0.246469 0.341438 0.872748
Si Si3 0.889027 0.884778 0.484658
Si Si4 0.258021 0.572462 0.082628
Si Si5 0.664719 0.216292 0.888167
Si Si6 0.143157 0.461837 0.744592
Si Si7 0.498493 0.181172 0.019492
O O1 0.785646 0.266841 0.154244
O O2 0.785431 0.310027 0.304313
O O3 0.870352 0.435521 0.212162
O O4 0.000000 0.281191 0.250000
O O5 0.240204 0.397374 0.793331
O O6 0.111012 0.351651 0.920394
O O7 0.358590 0.384387 0.926128
O O8 0.771074 0.824390 0.446119
O O9 0.997181 0.800729 0.468794
O O10 0.858385 0.994487 0.455015
O O11 0.337410 0.667518 0.108155
O O12 0.191214 0.527102 0.158267
O O13 0.133829 0.618442 0.035274
O O14 0.536921 0.171149 0.929600
O O15 0.000000 0.413580 0.750000
#
# Coordination Sequence:
#
# PCOD9456040 Si02
#       7
#     8   8   8   8   8   8   8
#     4  11  23  39  64  94 132 164 219 266 330 391
#     4  11  23  41  67  95 134 174 219 278 329 403
#     4  10  23  40  63  93 126 171 217 273 329 394
#     4  11  21  40  66  91 133 169 223 274 329 402
#     4  10  21  38  62  89 126 169 206 272 327 386
#     4  11  22  39  66  97 124 175 222 272 329 395
#     4  10  23  41  65  96 129 173 224 267 344 397
#
# _framework density 22.835718
#
# number of rings (size 3 to 8) (size 9 to 14) (size 15 to 20)
#    0.000    1.429    4.286    0.857    0.000    8.571 
#    0.000    1.429    0.000    0.000    0.000    0.000 
#    0.000    0.000    0.000    0.000    0.000    0.000 
#
# Total GULP energy -311847.831985 kJ/mol
# GULP energy per Si atom -5568.711285 kJ/mol
# Density = 2.278374 g / cm^3
# Si number density = 22.835718 Si / 1000 Ang^3
#
#
#
# Elastic Constant Matrix: (Units=GPa)
#
#
# Indices 1 2 3 4 5 6 
#
# 1 37.2816 -13.8698 2.5713 0.0000 0.0000 0.0000
# 2 -13.8698 68.1239 -18.0041 0.0000 0.0000 0.0000
# 3 2.5713 -18.0041 51.9880 0.0000 0.0000 0.0000
# 4 0.0000 0.0000 0.0000 34.1288 0.0000 0.0000
# 5 0.0000 0.0000 0.0000 0.0000 23.8256 0.0000
# 6 0.0000 0.0000 0.0000 0.0000 0.0000 16.8544
#
#
#
# Elastic Compliance Matrix: (Units=1/GPa)
#
#
# Indices 1 2 3 4 5 6 
#
# 1 0.029042 0.006091 0.000673 0.000000 0.000000 0.000000
# 2 0.006091 0.017435 0.005737 0.000000 0.000000 0.000000
# 3 0.000673 0.005737 0.021189 0.000000 0.000000 0.000000
# 4 0.000000 0.000000 0.000000 0.029301 0.000000 0.000000
# 5 0.000000 0.000000 0.000000 0.000000 0.041972 0.000000
# 6 0.000000 0.000000 0.000000 0.000000 0.000000 0.059332
#
#
# Mechanical properties :
#
#
# Convention : Reuss Voigt Hill
#
# Bulk Modulus (GPa) = 10.79129 10.97649 10.88389
# Shear Modulus (GPa) = 24.49075 27.40818 25.94946
#
# Velocity S-wave (km/s) = 3.27842 3.46820 3.37464
# Velocity P-wave (km/s) = 4.36653 4.56673 4.46775
#
# Compressibility (1/GPa) = 0.09266730
#
# Stress axis : x y z
#
# Youngs Moduli (GPa) = 34.43243 57.35475 47.19507
#
# Poissons Ratio (x) = -0.34933 -0.03176
# Poissons Ratio (y) = -0.20972 -0.27075
# Poissons Ratio (z) = -0.02317 -0.32903
#
# Static dielectric constant tensor:
#      x y z
#    x 1.998850 0.000000 0.000000 
#    y 0.000000 1.905060 0.000000 
#    z 0.000000 0.000000 2.044040 
# 
# From -- ./inp_files/16173.got.cif
#   From: 2010.05.17/outbox.cif.g08.bks.cpg/sg60_9_cif.got.tgz:16173.got - 2010.06.03 14:59:27.
