data_PCOD9456583
_publ_section_title
;
Structure prediction by ZEFSAII (Michael W. Deem and Ramdas Pophale) SiO2 
 PCOD9456583
Probable space group: P B C N
;
_chemical_formula_sum "Si O2"
_cell_formula_units_Z 56
_cell_length_a 16.147731
_cell_length_b 8.583479
_cell_length_c 19.441801
_cell_angle_alpha 90.000000
_cell_angle_beta 90.000000
_cell_angle_gamma 90.000000
_cell_volume 2694.705746
_symmetry_space_group_name_H-M "P B C N"
_symmetry_group_IT_number 60
_symmetry_cell_setting 'orthorhombic'
loop_
_space_group_symop_operation_xyz
x,y,z
1/2-x,1/2-y,1/2+z
1/2+x,1/2-y,-z
-x,y,1/2-z
-x,-y,-z
1/2+x,1/2+y,1/2-z
1/2-x,1/2+y,z
x,-y,1/2+z
loop_
_atom_site_type_symbol
_atom_site_label
_atom_site_fract_x
_atom_site_fract_y
_atom_site_fract_z
Si Si1 0.700287 0.381061 0.917290
Si Si2 0.175282 0.307833 0.458437
Si Si3 0.944427 0.880999 0.456377
Si Si4 0.834814 0.575414 0.837056
Si Si5 0.795392 0.818564 0.236793
Si Si6 0.555342 0.214296 0.318164
Si Si7 0.240366 0.444695 0.862891
O O1 0.633388 0.511283 0.935079
O O2 0.763382 0.455963 0.862404
O O3 0.660491 0.220473 0.889587
O O4 0.757158 0.344317 0.982976
O O5 0.091338 0.256376 0.495216
O O6 0.210155 0.164514 0.414507
O O7 0.176237 0.452142 0.406132
O O8 0.978704 0.797656 0.387135
O O9 0.000000 0.000000 0.500000
O O10 0.795978 0.653019 0.768454
O O11 0.914316 0.463941 0.830978
O O12 0.862592 0.812015 0.296275
O O13 0.801860 0.658733 0.195386
O O14 0.804786 0.948127 0.178489
O O15 0.500000 0.220302 0.250000
#
# Coordination Sequence:
#
# PCOD9456583 Si02
#       7
#     8   8   8   8   8   8   8
#     4  12  20  41  75 101 124 178 249 285 332 429
#     4  11  20  39  66  99 136 175 233 284 342 424
#     4  12  27  46  67 104 144 190 234 301 369 423
#     4  12  20  42  75 100 124 181 246 285 334 428
#     4  11  20  40  66  98 132 175 237 282 342 415
#     4  12  27  45  68  99 147 183 232 299 367 416
#     4  10  22  33  65 105 129 167 225 298 333 398
#
# _framework density 20.781490999999999
#
# number of rings (size 3 to 8) (size 9 to 14) (size 15 to 20)
#    0.000    0.571    8.571    0.000    2.000    0.000 
#    2.571    1.429    0.000    0.000    0.000    0.000 
#    0.000    0.000    0.000    0.000    0.000    0.000 
#
# Total GULP energy -312664.713336 kJ/mol
# GULP energy per Si atom -5583.298452 kJ/mol
# Density = 2.073419 g / cm^3
# Si number density = 20.781491 Si / 1000 Ang^3
#
#
#
# Elastic Constant Matrix: (Units=GPa)
#
#
# Indices 1 2 3 4 5 6 
#
# 1 29.5987 11.9127 24.0145 0.0000 0.0000 0.0000
# 2 11.9127 99.3329 53.9123 0.0000 0.0000 0.0000
# 3 24.0145 53.9123 127.6883 0.0000 0.0000 0.0000
# 4 0.0000 0.0000 0.0000 55.5937 0.0000 0.0000
# 5 0.0000 0.0000 0.0000 0.0000 29.5126 0.0000
# 6 0.0000 0.0000 0.0000 0.0000 0.0000 24.8715
#
#
#
# Elastic Compliance Matrix: (Units=1/GPa)
#
#
# Indices 1 2 3 4 5 6 
#
# 1 0.039934 -0.000925 -0.007120 0.000000 0.000000 0.000000
# 2 -0.000925 0.013081 -0.005349 0.000000 0.000000 0.000000
# 3 -0.007120 -0.005349 0.011429 0.000000 0.000000 0.000000
# 4 0.000000 0.000000 0.000000 0.017988 0.000000 0.000000
# 5 0.000000 0.000000 0.000000 0.000000 0.033884 0.000000
# 6 0.000000 0.000000 0.000000 0.000000 0.000000 0.040207
#
#
# Mechanical properties :
#
#
# Convention : Reuss Voigt Hill
#
# Bulk Modulus (GPa) = 26.55580 48.47766 37.51673
# Shear Modulus (GPa) = 25.52802 33.11426 29.32114
#
# Velocity S-wave (km/s) = 3.50866 3.99613 3.76030
# Velocity P-wave (km/s) = 5.40561 6.68357 6.07827
#
# Compressibility (1/GPa) = 0.03765655
#
# Stress axis : x y z
#
# Youngs Moduli (GPa) = 25.04119 76.44478 87.49529
#
# Poissons Ratio (x) = 0.07070 0.62297
# Poissons Ratio (y) = 0.02316 0.46803
# Poissons Ratio (z) = 0.17829 0.40892
#
# Static dielectric constant tensor:
#      x y z
#    x 1.746900 0.000000 0.000000 
#    y 0.000000 1.790130 0.000000 
#    z 0.000000 0.000000 1.812270 
# 
# From -- ./inp_files/22932.got.cif
#   From: 2010.05.17/outbox.cif.g08.bks.cpg/sg60_12_cif.got.tgz:22932.got - 2010.06.03 14:59:27.
