data_PCOD9456285
_publ_section_title
;
Structure prediction by ZEFSAII (Michael W. Deem and Ramdas Pophale) SiO2 
 PCOD9456285
Probable space group: P B C N
;
_chemical_formula_sum "Si O2"
_cell_formula_units_Z 56
_cell_length_a 16.958120
_cell_length_b 25.550599
_cell_length_c 5.364686
_cell_angle_alpha 90.000000
_cell_angle_beta 90.000000
_cell_angle_gamma 90.000000
_cell_volume 2324.465462
_symmetry_space_group_name_H-M "P B C N"
_symmetry_group_IT_number 60
_symmetry_cell_setting 'orthorhombic'
loop_
_space_group_symop_operation_xyz
x,y,z
1/2-x,1/2-y,1/2+z
1/2+x,1/2-y,-z
-x,y,1/2-z
-x,-y,-z
1/2+x,1/2+y,1/2-z
1/2-x,1/2+y,z
x,-y,1/2+z
loop_
_atom_site_type_symbol
_atom_site_label
_atom_site_fract_x
_atom_site_fract_y
_atom_site_fract_z
Si Si1 0.511432 0.812062 0.499890
Si Si2 0.724795 0.967803 0.939427
Si Si3 0.313272 0.824449 0.017241
Si Si4 0.551232 0.351692 0.498522
Si Si5 0.322649 0.706517 0.191414
Si Si6 0.452016 0.924599 0.499334
Si Si7 0.317196 0.381471 0.306385
O O1 0.500000 0.780240 0.250000
O O2 0.596786 0.838485 0.518351
O O3 0.452459 0.860938 0.485780
O O4 0.500000 0.780572 0.750000
O O5 0.636448 0.945022 0.977261
O O6 0.792062 0.925095 0.997592
O O7 0.732481 0.010432 0.160556
O O8 0.264093 0.812829 0.769973
O O9 0.317584 0.768075 0.151479
O O10 0.262845 0.867003 0.161168
O O11 0.500000 0.364319 0.750000
O O12 0.385939 0.308267 0.903001
O O13 0.613280 0.394695 0.387477
O O14 0.500000 0.339923 0.250000
O O15 0.341807 0.671806 0.950605
O O16 0.500000 0.941423 0.250000
O O17 0.500000 0.938355 0.750000
#
# Coordination Sequence:
#
# PCOD9456285 Si02
#       7
#     8   8   8   8   8   8   8
#     4  10  23  40  61  94 135 191 234 288 339 410
#     4  12  29  46  73 105 141 188 252 309 360 440
#     4  11  24  42  68 105 146 191 255 292 356 434
#     4  11  24  47  74 108 143 184 231 294 379 454
#     4  11  24  42  73 107 145 198 241 302 362 447
#     4  10  21  40  65  95 136 186 235 287 355 405
#     4  11  25  47  77 101 147 194 238 309 377 438
#
# _framework density 24.091559
#
# number of rings (size 3 to 8) (size 9 to 14) (size 15 to 20)
#    0.000    1.143    2.857    2.571   10.000    2.286 
#    2.571    0.000    0.000    2.571    0.000    0.000 
#    0.000    0.000    0.000    0.000    0.000    0.000 
#
# Total GULP energy -313076.266910 kJ/mol
# GULP energy per Si atom -5590.647623 kJ/mol
# Density = 2.403673 g / cm^3
# Si number density = 24.091559 Si / 1000 Ang^3
#
#
#
# Elastic Constant Matrix: (Units=GPa)
#
#
# Indices 1 2 3 4 5 6 
#
# 1 112.2556 5.4092 52.2582 0.0000 0.0000 0.0000
# 2 5.4092 50.9228 5.2261 0.0000 0.0000 0.0000
# 3 52.2582 5.2261 173.2917 0.0000 0.0000 0.0000
# 4 0.0000 0.0000 0.0000 19.7755 0.0000 0.0000
# 5 0.0000 0.0000 0.0000 0.0000 51.2934 0.0000
# 6 0.0000 0.0000 0.0000 0.0000 0.0000 24.4861
#
#
#
# Elastic Compliance Matrix: (Units=1/GPa)
#
#
# Indices 1 2 3 4 5 6 
#
# 1 0.010394 -0.000785 -0.003111 0.000000 0.000000 0.000000
# 2 -0.000785 0.019758 -0.000359 0.000000 0.000000 0.000000
# 3 -0.003111 -0.000359 0.006720 0.000000 0.000000 0.000000
# 4 0.000000 0.000000 0.000000 0.050568 0.000000 0.000000
# 5 0.000000 0.000000 0.000000 0.000000 0.019496 0.000000
# 6 0.000000 0.000000 0.000000 0.000000 0.000000 0.040840
#
#
# Mechanical properties :
#
#
# Convention : Reuss Voigt Hill
#
# Bulk Modulus (GPa) = 35.25858 51.36190 43.31024
# Shear Modulus (GPa) = 30.16809 37.34945 33.75877
#
# Velocity S-wave (km/s) = 3.54252 3.94167 3.74741
# Velocity P-wave (km/s) = 5.60354 6.48702 6.06140
#
# Compressibility (1/GPa) = 0.02836189
#
# Stress axis : x y z
#
# Youngs Moduli (GPa) = 96.20712 50.61289 148.81932
#
# Poissons Ratio (x) = 0.03972 0.46295
# Poissons Ratio (y) = 0.07551 0.05345
# Poissons Ratio (z) = 0.29928 0.01818
#
# Static dielectric constant tensor:
#      x y z
#    x 1.950950 0.000000 0.000000 
#    y 0.000000 1.919730 0.000000 
#    z 0.000000 0.000000 2.042930 
# 
# From -- ./inp_files/1478.got.cif
#   From: 2010.05.17/outbox.cif.g08.bks.cpg/sg60_1_cif.got.tgz:1478.got - 2010.06.03 14:59:27.
