data_PCOD9456196
_publ_section_title
;
Structure prediction by ZEFSAII (Michael W. Deem and Ramdas Pophale) SiO2 
 PCOD9456196
Probable space group: P B C N
;
_chemical_formula_sum "Si O2"
_cell_formula_units_Z 56
_cell_length_a 7.826341
_cell_length_b 16.831262
_cell_length_c 19.127479
_cell_angle_alpha 90.000000
_cell_angle_beta 90.000000
_cell_angle_gamma 90.000000
_cell_volume 2519.609173
_symmetry_space_group_name_H-M "P B C N"
_symmetry_group_IT_number 60
_symmetry_cell_setting 'orthorhombic'
loop_
_space_group_symop_operation_xyz
x,y,z
1/2-x,1/2-y,1/2+z
1/2+x,1/2-y,-z
-x,y,1/2-z
-x,-y,-z
1/2+x,1/2+y,1/2-z
1/2-x,1/2+y,z
x,-y,1/2+z
loop_
_atom_site_type_symbol
_atom_site_label
_atom_site_fract_x
_atom_site_fract_y
_atom_site_fract_z
Si Si1 0.500000 0.457585 0.750000
Si Si2 0.255042 0.572226 0.664826
Si Si3 0.500000 0.182926 0.750000
Si Si4 0.648664 0.889594 0.545079
Si Si5 0.882806 0.813835 0.950712
Si Si6 0.290563 0.034170 0.030394
Si Si7 0.839125 0.183714 0.161352
Si Si8 0.387623 0.696715 0.569883
O O1 0.353751 0.513184 0.716693
O O2 0.583630 0.396015 0.695321
O O3 0.103469 0.624797 0.697979
O O4 0.188357 0.519640 0.599487
O O5 0.390217 0.636167 0.633424
O O6 0.640877 0.243390 0.715507
O O7 0.455717 0.909297 0.522406
O O8 0.672437 0.847148 0.619675
O O9 0.756570 0.843222 0.486329
O O10 0.728104 0.978724 0.537392
O O11 0.866557 0.908237 0.955924
O O12 0.713841 0.777270 0.916641
O O13 0.033972 0.788991 0.900212
O O14 0.936758 0.790131 0.029231
#
# Coordination Sequence:
#
# PCOD9456196 Si02
#       8
#     4   8   4   8   8   8   8   8
#     4  11  24  42  62  95 120 174 218 261 308 386
#     4  11  24  42  63  92 126 168 220 262 313 376
#     4  11  24  46  64  89 132 178 210 267 312 390
#     4   9  21  39  61  99 120 156 207 256 324 378
#     4  11  20  40  64  91 128 163 203 263 327 381
#     4  10  21  39  66  93 127 155 206 273 313 381
#     4  10  22  42  66  87 130 171 208 258 324 381
#     4  10  22  38  64  94 128 164 205 263 321 384
#
# _framework density 22.225669
#
# number of rings (size 3 to 8) (size 9 to 14) (size 15 to 20)
#    0.000    1.714    2.857    0.857    4.000    1.714 
#    7.714    0.000    0.000    0.000    0.000    0.000 
#    0.000    0.000    0.000    0.000    0.000    0.000 
#
# Total GULP energy -312116.899961 kJ/mol
# GULP energy per Si atom -5573.516071 kJ/mol
# Density = 2.217508 g / cm^3
# Si number density = 22.225669 Si / 1000 Ang^3
#
#
#
# Elastic Constant Matrix: (Units=GPa)
#
#
# Indices 1 2 3 4 5 6 
#
# 1 45.2580 26.6017 12.2839 0.0000 0.0000 0.0000
# 2 26.6017 77.2385 16.2690 0.0000 0.0000 0.0000
# 3 12.2839 16.2690 59.1126 0.0000 0.0000 0.0000
# 4 0.0000 0.0000 0.0000 33.9454 0.0000 0.0000
# 5 0.0000 0.0000 0.0000 0.0000 25.3456 0.0000
# 6 0.0000 0.0000 0.0000 0.0000 0.0000 38.6657
#
#
#
# Elastic Compliance Matrix: (Units=1/GPa)
#
#
# Indices 1 2 3 4 5 6 
#
# 1 0.028333 -0.009042 -0.003399 0.000000 0.000000 0.000000
# 2 -0.009042 0.016629 -0.002698 0.000000 0.000000 0.000000
# 3 -0.003399 -0.002698 0.018366 0.000000 0.000000 0.000000
# 4 0.000000 0.000000 0.000000 0.029459 0.000000 0.000000
# 5 0.000000 0.000000 0.000000 0.000000 0.039455 0.000000
# 6 0.000000 0.000000 0.000000 0.000000 0.000000 0.025863
#
#
# Mechanical properties :
#
#
# Convention : Reuss Voigt Hill
#
# Bulk Modulus (GPa) = 30.25725 32.43534 31.34630
# Shear Modulus (GPa) = 25.07537 28.02166 26.54852
#
# Velocity S-wave (km/s) = 3.36254 3.55460 3.45990
# Velocity P-wave (km/s) = 5.35899 5.61001 5.48593
#
# Compressibility (1/GPa) = 0.03304993
#
# Stress axis : x y z
#
# Youngs Moduli (GPa) = 35.29464 60.13465 54.44936
#
# Poissons Ratio (x) = 0.54375 0.18508
# Poissons Ratio (y) = 0.31914 0.14689
# Poissons Ratio (z) = 0.11997 0.16223
#
# Static dielectric constant tensor:
#      x y z
#    x 1.888380 0.000000 0.000000 
#    y 0.000000 1.903300 0.000000 
#    z 0.000000 0.000000 1.854340 
# 
# From -- ./inp_files/22256.got.cif
#   From: 2010.05.17/outbox.cif.g08.bks.cpg/sg60_12_cif.got.tgz:22256.got - 2010.06.03 14:59:27.
