data_PCOD9456807
_publ_section_title
;
Structure prediction by ZEFSAII (Michael W. Deem and Ramdas Pophale) SiO2 
 PCOD9456807
Probable space group: P B C N
;
_chemical_formula_sum "Si O2"
_cell_formula_units_Z 48
_cell_length_a 8.370850
_cell_length_b 23.977579
_cell_length_c 10.985329
_cell_angle_alpha 90.000000
_cell_angle_beta 90.000000
_cell_angle_gamma 90.000000
_cell_volume 2204.895233
_symmetry_space_group_name_H-M "P B C N"
_symmetry_group_IT_number 60
_symmetry_cell_setting 'orthorhombic'
loop_
_space_group_symop_operation_xyz
x,y,z
1/2-x,1/2-y,1/2+z
1/2+x,1/2-y,-z
-x,y,1/2-z
-x,-y,-z
1/2+x,1/2+y,1/2-z
1/2-x,1/2+y,z
x,-y,1/2+z
loop_
_atom_site_type_symbol
_atom_site_label
_atom_site_fract_x
_atom_site_fract_y
_atom_site_fract_z
Si Si1 0.174697 0.370670 0.710397
Si Si2 0.753224 0.412585 0.193341
Si Si3 0.911730 0.677849 0.546485
Si Si4 0.848048 0.971581 0.677736
Si Si5 0.745887 0.296394 0.565351
Si Si6 0.081507 0.102859 0.555790
O O1 0.162307 0.348893 0.575395
O O2 0.292717 0.421044 0.736568
O O3 0.217229 0.320454 0.801131
O O4 0.000000 0.391291 0.750000
O O5 0.778849 0.478385 0.168816
O O6 0.593605 0.399263 0.113808
O O7 0.707160 0.404367 0.334156
O O8 0.885534 0.369790 0.146527
O O9 0.814825 0.733844 0.574870
O O10 0.092908 0.695207 0.513723
O O11 0.890232 0.944320 0.547567
O O12 0.000000 0.996299 0.750000
O O13 0.614999 0.337573 0.506608
#
# Coordination Sequence:
#
# PCOD9456807 Si02
#       6
#     8   8   8   8   8   8
#     4   9  22  43  62  86 122 163 205 256 319 374
#     4  11  23  37  61  95 127 166 202 261 310 366
#     4  11  23  41  66  90 124 162 211 258 321 377
#     4  11  21  39  65  92 124 168 212 253 304 376
#     4  10  23  43  64  92 121 163 208 265 313 382
#     4  10  22  40  60  93 131 160 212 256 315 365
#
# _framework density 21.769741
#
# number of rings (size 3 to 8) (size 9 to 14) (size 15 to 20)
#    0.000    1.667    1.667    2.500    4.667    2.000 
#    3.000    2.500    0.000    0.000    0.000    0.000 
#    0.000    0.000    0.000    0.000    0.000    0.000 
#
# Total GULP energy -268441.646946 kJ/mol
# GULP energy per Si atom -5592.534311 kJ/mol
# Density = 2.172019 g / cm^3
# Si number density = 21.769741 Si / 1000 Ang^3
#
#
#
# Elastic Constant Matrix: (Units=GPa)
#
#
# Indices 1 2 3 4 5 6 
#
# 1 42.6841 35.3231 16.8348 0.0000 0.0000 0.0000
# 2 35.3231 129.5392 26.9461 0.0000 0.0000 0.0000
# 3 16.8348 26.9461 80.1458 0.0000 0.0000 0.0000
# 4 0.0000 0.0000 0.0000 27.3204 0.0000 0.0000
# 5 0.0000 0.0000 0.0000 0.0000 28.3358 0.0000
# 6 0.0000 0.0000 0.0000 0.0000 0.0000 22.4988
#
#
#
# Elastic Compliance Matrix: (Units=1/GPa)
#
#
# Indices 1 2 3 4 5 6 
#
# 1 0.031402 -0.007732 -0.003997 0.000000 0.000000 0.000000
# 2 -0.007732 0.010204 -0.001807 0.000000 0.000000 0.000000
# 3 -0.003997 -0.001807 0.013924 0.000000 0.000000 0.000000
# 4 0.000000 0.000000 0.000000 0.036603 0.000000 0.000000
# 5 0.000000 0.000000 0.000000 0.000000 0.035291 0.000000
# 6 0.000000 0.000000 0.000000 0.000000 0.000000 0.044447
#
#
# Mechanical properties :
#
#
# Convention : Reuss Voigt Hill
#
# Bulk Modulus (GPa) = 35.13619 45.61966 40.37792
# Shear Modulus (GPa) = 23.98916 27.18201 25.58558
#
# Velocity S-wave (km/s) = 3.32316 3.53741 3.43196
# Velocity P-wave (km/s) = 5.55873 6.13884 5.85597
#
# Compressibility (1/GPa) = 0.02846069
#
# Stress axis : x y z
#
# Youngs Moduli (GPa) = 31.84461 98.00339 71.81751
#
# Poissons Ratio (x) = 0.75772 0.28703
# Poissons Ratio (y) = 0.24621 0.12975
# Poissons Ratio (z) = 0.12727 0.17705
#
# Static dielectric constant tensor:
#      x y z
#    x 1.828080 0.000000 0.000000 
#    y 0.000000 1.768890 0.000000 
#    z 0.000000 0.000000 1.738700 
# 
# From -- ./inp_files/10114.got.cif
#   From: 2010.05.17/outbox.cif.g08.bks.cpg/sg60_6_cif.got.tgz:10114.got - 2010.06.03 14:59:27.
