data_PCOD9456555
_publ_section_title
;
Structure prediction by ZEFSAII (Michael W. Deem and Ramdas Pophale) SiO2 
 PCOD9456555
Probable space group: P B C N
;
_chemical_formula_sum "Si O2"
_cell_formula_units_Z 32
_cell_length_a 16.214185
_cell_length_b 13.348941
_cell_length_c 5.504342
_cell_angle_alpha 90.000000
_cell_angle_beta 90.000000
_cell_angle_gamma 90.000000
_cell_volume 1191.371886
_symmetry_space_group_name_H-M "P B C N"
_symmetry_group_IT_number 60
_symmetry_cell_setting 'orthorhombic'
loop_
_space_group_symop_operation_xyz
x,y,z
1/2-x,1/2-y,1/2+z
1/2+x,1/2-y,-z
-x,y,1/2-z
-x,-y,-z
1/2+x,1/2+y,1/2-z
1/2-x,1/2+y,z
x,-y,1/2+z
loop_
_atom_site_type_symbol
_atom_site_label
_atom_site_fract_x
_atom_site_fract_y
_atom_site_fract_z
Si Si1 0.633119 0.212666 0.096194
Si Si2 0.747516 0.450069 0.539790
Si Si3 0.500000 0.936579 0.750000
Si Si4 0.500000 0.741434 0.250000
Si Si5 0.579320 0.404148 0.360435
O O1 0.722379 0.163844 0.071897
O O2 0.578727 0.137852 0.261889
O O3 0.629317 0.327647 0.181321
O O4 0.580555 0.203288 0.848418
O O5 0.776870 0.491446 0.279523
O O6 0.648344 0.458345 0.520556
O O7 0.500000 0.000000 0.500000
O O8 0.468146 0.673834 0.467811
O O9 0.500000 0.461192 0.250000
#
# Coordination Sequence:
#
# PCOD9456555 Si02
#       5
#     8   8   4   4   8
#     4  11  24  44  71 106 145 191 246 295 364 451
#     4  12  31  48  71 112 154 192 240 312 378 432
#     4  12  23  38  66 101 144 182 216 288 365 432
#     4  10  21  44  76 105 132 188 256 294 347 430
#     4  10  25  47  78 103 140 199 259 300 360 442
#
# _framework density 26.859788999999999
#
# number of rings (size 3 to 8) (size 9 to 14) (size 15 to 20)
#    0.000    1.000    3.750    2.250   14.000    1.000 
#    0.000    0.000    0.000    0.000    0.000    0.000 
#    0.000    0.000    0.000    0.000    0.000    0.000 
#
# Total GULP energy -179102.052346 kJ/mol
# GULP energy per Si atom -5596.939136 kJ/mol
# Density = 2.679865 g / cm^3
# Si number density = 26.859789 Si / 1000 Ang^3
#
#
#
# Elastic Constant Matrix: (Units=GPa)
#
#
# Indices 1 2 3 4 5 6 
#
# 1 102.4318 28.5931 0.5969 0.0000 0.0000 0.0000
# 2 28.5931 110.8758 21.8366 0.0000 0.0000 0.0000
# 3 0.5969 21.8366 114.3345 0.0000 0.0000 0.0000
# 4 0.0000 0.0000 0.0000 44.7013 0.0000 0.0000
# 5 0.0000 0.0000 0.0000 0.0000 21.6742 0.0000
# 6 0.0000 0.0000 0.0000 0.0000 0.0000 44.3031
#
#
#
# Elastic Compliance Matrix: (Units=1/GPa)
#
#
# Indices 1 2 3 4 5 6 
#
# 1 0.010545 -0.002815 0.000482 0.000000 0.000000 0.000000
# 2 -0.002815 0.010123 -0.001919 0.000000 0.000000 0.000000
# 3 0.000482 -0.001919 0.009110 0.000000 0.000000 0.000000
# 4 0.000000 0.000000 0.000000 0.022371 0.000000 0.000000
# 5 0.000000 0.000000 0.000000 0.000000 0.046138 0.000000
# 6 0.000000 0.000000 0.000000 0.000000 0.000000 0.022572
#
#
# Mechanical properties :
#
#
# Convention : Reuss Voigt Hill
#
# Bulk Modulus (GPa) = 46.99901 47.74395 47.37148
# Shear Modulus (GPa) = 36.64280 40.57675 38.60977
#
# Velocity S-wave (km/s) = 3.69755 3.89097 3.79549
# Velocity P-wave (km/s) = 5.98039 6.16442 6.07310
#
# Compressibility (1/GPa) = 0.02127704
#
# Stress axis : x y z
#
# Youngs Moduli (GPa) = 94.82778 98.78696 109.76726
#
# Poissons Ratio (x) = 0.27804 -0.05296
# Poissons Ratio (y) = 0.26690 0.21060
# Poissons Ratio (z) = -0.04575 0.18954
#
# Static dielectric constant tensor:
#      x y z
#    x 2.108560 0.000000 0.000000 
#    y 0.000000 2.069870 0.000000 
#    z 0.000000 0.000000 2.314150 
# 
# From -- ./inp_files/1067.got.cif
#   From: 2010.05.17/outbox.cif.g08.bks.cpg/sg60_1_cif.got.tgz:1067.got - 2010.06.03 14:59:27.
