data_PCOD9456847
_publ_section_title
;
Structure prediction by ZEFSAII (Michael W. Deem and Ramdas Pophale) SiO2 
 PCOD9456847
Probable space group: P B C N
;
_chemical_formula_sum "Si O2"
_cell_formula_units_Z 64
_cell_length_a 31.417761
_cell_length_b 10.820375
_cell_length_c 9.169970
_cell_angle_alpha 90.000000
_cell_angle_beta 90.000000
_cell_angle_gamma 90.000000
_cell_volume 3117.349235
_symmetry_space_group_name_H-M "P B C N"
_symmetry_group_IT_number 60
_symmetry_cell_setting 'orthorhombic'
loop_
_space_group_symop_operation_xyz
x,y,z
1/2-x,1/2-y,1/2+z
1/2+x,1/2-y,-z
-x,y,1/2-z
-x,-y,-z
1/2+x,1/2+y,1/2-z
1/2-x,1/2+y,z
x,-y,1/2+z
loop_
_atom_site_type_symbol
_atom_site_label
_atom_site_fract_x
_atom_site_fract_y
_atom_site_fract_z
Si Si1 0.542145 0.133818 0.672421
Si Si2 0.690499 0.005660 0.750053
Si Si3 0.367013 0.227263 0.776631
Si Si4 0.337977 0.611659 0.046400
Si Si5 0.239377 0.645503 0.998039
Si Si6 0.326411 0.671149 0.540496
Si Si7 0.543806 0.862083 0.817888
Si Si8 0.132824 0.279242 0.810727
O O1 0.500000 0.185410 0.750000
O O2 0.583215 0.208192 0.724401
O O3 0.540323 0.129146 0.494895
O O4 0.546938 0.996869 0.741374
O O5 0.715880 0.930320 0.872695
O O6 0.658195 0.908485 0.672887
O O7 0.658933 0.116001 0.799243
O O8 0.724497 0.073762 0.646538
O O9 0.350006 0.354684 0.711048
O O10 0.353378 0.231006 0.945732
O O11 0.289347 0.648983 0.018424
O O12 0.339432 0.467986 0.012013
O O13 0.369411 0.700019 0.956583
O O14 0.221229 0.785710 0.002143
O O15 0.336764 0.698345 0.706922
O O16 0.500000 0.807281 0.750000
O O17 0.587185 0.796460 0.765800
#
# Coordination Sequence:
#
# PCOD9456847 Si02
#       8
#     8   8   8   8   8   8   8   8
#     4  11  23  40  69 104 140 169 210 273 341 411
#     4  10  22  40  65  90 130 168 217 272 338 394
#     4  11  23  41  67  94 131 176 216 278 333 398
#     4  12  27  38  66  93 126 182 233 271 330 399
#     4  10  25  40  63  91 131 172 227 288 327 382
#     4  10  24  44  59  90 130 177 223 277 326 393
#     4  11  23  40  69 104 140 169 210 273 341 411
#     4  11  23  41  67  94 131 176 216 278 333 398
#
# _framework density 20.530265
#
# number of rings (size 3 to 8) (size 9 to 14) (size 15 to 20)
#    0.000    1.250    2.500    3.000   10.500    2.000 
#    0.000    0.000    0.000    4.500    0.000    0.000 
#    0.000    0.000    0.000    0.000    0.000    0.000 
#
# Total GULP energy -357310.973681 kJ/mol
# GULP energy per Si atom -5582.983964 kJ/mol
# Density = 2.048354 g / cm^3
# Si number density = 20.530265 Si / 1000 Ang^3
#
#
#
# Elastic Constant Matrix: (Units=GPa)
#
#
# Indices 1 2 3 4 5 6 
#
# 1 126.4394 19.1013 32.5645 0.0000 0.0000 0.0000
# 2 19.1013 83.9462 23.1905 0.0000 0.0000 0.0000
# 3 32.5645 23.1905 94.2422 0.0000 0.0000 0.0000
# 4 0.0000 0.0000 0.0000 28.0502 0.0000 0.0000
# 5 0.0000 0.0000 0.0000 0.0000 21.0210 0.0000
# 6 0.0000 0.0000 0.0000 0.0000 0.0000 17.4876
#
#
#
# Elastic Compliance Matrix: (Units=1/GPa)
#
#
# Indices 1 2 3 4 5 6 
#
# 1 0.008802 -0.001247 -0.002734 0.000000 0.000000 0.000000
# 2 -0.001247 0.012958 -0.002758 0.000000 0.000000 0.000000
# 3 -0.002734 -0.002758 0.012234 0.000000 0.000000 0.000000
# 4 0.000000 0.000000 0.000000 0.035650 0.000000 0.000000
# 5 0.000000 0.000000 0.000000 0.000000 0.047571 0.000000
# 6 0.000000 0.000000 0.000000 0.000000 0.000000 0.057183
#
#
# Mechanical properties :
#
#
# Convention : Reuss Voigt Hill
#
# Bulk Modulus (GPa) = 48.74406 50.48226 49.61316
# Shear Modulus (GPa) = 25.67839 28.62986 27.15413
#
# Velocity S-wave (km/s) = 3.54044 3.73838 3.64076
# Velocity P-wave (km/s) = 6.36452 6.57849 6.47239
#
# Compressibility (1/GPa) = 0.02051532
#
# Stress axis : x y z
#
# Youngs Moduli (GPa) = 113.61565 77.17226 81.73701
#
# Poissons Ratio (x) = 0.09626 0.22350
# Poissons Ratio (y) = 0.14172 0.22540
# Poissons Ratio (z) = 0.31067 0.21281
#
# Static dielectric constant tensor:
#      x y z
#    x 1.739590 0.000000 0.000000 
#    y 0.000000 1.730290 0.000000 
#    z 0.000000 0.000000 1.760500 
# 
# From -- ./inp_files/8503.got.cif
#   From: 2010.05.17/outbox.cif.g08.bks.cpg/sg60_5_cif.got.tgz:8503.got - 2010.06.03 14:59:27.
