data_PCOD9456928
_publ_section_title
;
Structure prediction by ZEFSAII (Michael W. Deem and Ramdas Pophale) SiO2 
 PCOD9456928
Probable space group: P B C N
;
_chemical_formula_sum "Si O2"
_cell_formula_units_Z 64
_cell_length_a 12.166757
_cell_length_b 18.773439
_cell_length_c 14.166898
_cell_angle_alpha 90.000000
_cell_angle_beta 90.000000
_cell_angle_gamma 90.000000
_cell_volume 3235.887669
_symmetry_space_group_name_H-M "P B C N"
_symmetry_group_IT_number 60
_symmetry_cell_setting 'orthorhombic'
loop_
_space_group_symop_operation_xyz
x,y,z
1/2-x,1/2-y,1/2+z
1/2+x,1/2-y,-z
-x,y,1/2-z
-x,-y,-z
1/2+x,1/2+y,1/2-z
1/2-x,1/2+y,z
x,-y,1/2+z
loop_
_atom_site_type_symbol
_atom_site_label
_atom_site_fract_x
_atom_site_fract_y
_atom_site_fract_z
Si Si1 0.111348 0.512312 0.559317
Si Si2 0.872650 0.217383 0.433878
Si Si3 0.249898 0.715329 0.263819
Si Si4 0.748083 0.344145 0.110753
Si Si5 0.494423 0.149353 0.638866
Si Si6 0.372752 0.074978 0.234161
Si Si7 0.443035 0.625765 0.351470
Si Si8 0.278954 0.506143 0.391946
O O1 0.077901 0.578201 0.626731
O O2 0.146524 0.446464 0.625546
O O3 0.207417 0.525232 0.484361
O O4 0.000000 0.500000 0.500000
O O5 0.798606 0.216773 0.340530
O O6 0.799004 0.200649 0.523432
O O7 0.936744 0.291988 0.426846
O O8 0.966119 0.157648 0.420265
O O9 0.223460 0.793945 0.299680
O O10 0.154799 0.656256 0.261007
O O11 0.346397 0.683510 0.331301
O O12 0.697005 0.422546 0.111687
O O13 0.879322 0.358415 0.107120
O O14 0.500000 0.170893 0.750000
O O15 0.500000 0.059520 0.250000
O O16 0.296052 0.027674 0.301786
O O17 0.500000 0.613649 0.250000
O O18 0.385974 0.554795 0.387401
#
# Coordination Sequence:
#
# PCOD9456928 Si02
#       8
#     8   8   8   8   8   8   8   8
#     4  12  23  36  64 101 128 165 209 274 341 385
#     4  11  23  39  68  90 125 173 218 271 317 392
#     4  10  22  41  64  91 126 170 221 257 323 396
#     4  12  23  40  65 101 124 169 225 270 328 392
#     4  12  23  42  67  91 135 171 219 274 333 406
#     4  11  22  40  63  91 133 171 205 271 340 396
#     4   9  20  44  67  88 122 183 218 253 323 401
#     4  11  24  41  67  95 133 166 222 273 328 402
#
# _framework density 19.778189000000001
#
# number of rings (size 3 to 8) (size 9 to 14) (size 15 to 20)
#    0.000    1.000    5.000    2.250    3.500    0.500 
#    0.000    0.625    0.000    0.000    0.000    0.000 
#    0.000    0.000    0.000    0.000    0.000    0.000 
#
# Total GULP energy -357622.735647 kJ/mol
# GULP energy per Si atom -5587.855244 kJ/mol
# Density = 1.973317 g / cm^3
# Si number density = 19.778189 Si / 1000 Ang^3
#
#
#
# Elastic Constant Matrix: (Units=GPa)
#
#
# Indices 1 2 3 4 5 6 
#
# 1 53.4223 25.8479 29.0184 0.0000 0.0000 0.0000
# 2 25.8479 100.8240 3.5641 0.0000 0.0000 0.0000
# 3 29.0184 3.5641 41.9744 0.0000 0.0000 0.0000
# 4 0.0000 0.0000 0.0000 25.9776 0.0000 0.0000
# 5 0.0000 0.0000 0.0000 0.0000 25.7845 0.0000
# 6 0.0000 0.0000 0.0000 0.0000 0.0000 24.8473
#
#
#
# Elastic Compliance Matrix: (Units=1/GPa)
#
#
# Indices 1 2 3 4 5 6 
#
# 1 0.035815 -0.008332 -0.024053 0.000000 0.000000 0.000000
# 2 -0.008332 0.011886 0.004751 0.000000 0.000000 0.000000
# 3 -0.024053 0.004751 0.040049 0.000000 0.000000 0.000000
# 4 0.000000 0.000000 0.000000 0.038495 0.000000 0.000000
# 5 0.000000 0.000000 0.000000 0.000000 0.038783 0.000000
# 6 0.000000 0.000000 0.000000 0.000000 0.000000 0.040246
#
#
# Mechanical properties :
#
#
# Convention : Reuss Voigt Hill
#
# Bulk Modulus (GPa) = 30.78522 34.78683 32.78603
# Shear Modulus (GPa) = 18.42505 24.50792 21.46648
#
# Velocity S-wave (km/s) = 3.05550 3.52396 3.29806
# Velocity P-wave (km/s) = 5.29595 5.84674 5.57815
#
# Compressibility (1/GPa) = 0.03248312
#
# Stress axis : x y z
#
# Youngs Moduli (GPa) = 27.92106 84.13068 24.96921
#
# Poissons Ratio (x) = 0.70094 0.60058
# Poissons Ratio (y) = 0.23263 -0.11862
# Poissons Ratio (z) = 0.67158 -0.39968
#
# Static dielectric constant tensor:
#      x y z
#    x 1.674840 0.000000 0.000000 
#    y 0.000000 1.747750 0.000000 
#    z 0.000000 0.000000 1.705250 
# 
# From -- ./inp_files/16367.got.cif
#   From: 2010.05.17/outbox.cif.g08.bks.cpg/sg60_9_cif.got.tgz:16367.got - 2010.06.03 14:59:27.
