data_PCOD9456412
_publ_section_title
;
Structure prediction by ZEFSAII (Michael W. Deem and Ramdas Pophale) SiO2 
 PCOD9456412
Probable space group: P B C N
;
_chemical_formula_sum "Si O2"
_cell_formula_units_Z 32
_cell_length_a 5.565454
_cell_length_b 19.353615
_cell_length_c 10.923245
_cell_angle_alpha 90.000000
_cell_angle_beta 90.000000
_cell_angle_gamma 90.000000
_cell_volume 1176.560786
_symmetry_space_group_name_H-M "P B C N"
_symmetry_group_IT_number 60
_symmetry_cell_setting 'orthorhombic'
loop_
_space_group_symop_operation_xyz
x,y,z
1/2-x,1/2-y,1/2+z
1/2+x,1/2-y,-z
-x,y,1/2-z
-x,-y,-z
1/2+x,1/2+y,1/2-z
1/2-x,1/2+y,z
x,-y,1/2+z
loop_
_atom_site_type_symbol
_atom_site_label
_atom_site_fract_x
_atom_site_fract_y
_atom_site_fract_z
Si Si1 0.845863 0.334650 0.404029
Si Si2 0.743770 0.865728 0.821336
Si Si3 0.841589 0.786410 0.077009
Si Si4 0.846184 0.016427 0.876363
O O1 0.589008 0.306833 0.361715
O O2 0.838689 0.292769 0.534001
O O3 0.817274 0.416716 0.402789
O O4 0.103487 0.310537 0.354949
O O5 0.500000 0.843311 0.750000
O O6 0.000000 0.861091 0.750000
O O7 0.703287 0.946403 0.851145
O O8 0.811272 0.828539 0.948923
O O9 0.000000 0.029451 0.750000
O O10 0.000000 0.000000 0.000000
#
# Coordination Sequence:
#
# PCOD9456412 Si02
#       4
#     8   8   8   8
#     4  10  22  41  68 102 136 186 235 299 355 426
#     4  11  24  41  66 102 138 188 235 294 359 431
#     4  10  21  41  69  98 141 180 243 290 361 426
#     4  11  25  46  74 105 149 188 244 295 362 427
#
# _framework density 27.197913
#
# number of rings (size 3 to 8) (size 9 to 14) (size 15 to 20)
#    0.000    1.500    2.500    1.500    3.500    6.000 
#    0.000    1.250    0.000    0.000    0.000    0.000 
#    0.000    0.000    0.000    0.000    0.000    0.000 
#
# Total GULP energy -178865.499701 kJ/mol
# GULP energy per Si atom -5589.546866 kJ/mol
# Density = 2.713601 g / cm^3
# Si number density = 27.197913 Si / 1000 Ang^3
#
#
#
# Elastic Constant Matrix: (Units=GPa)
#
#
# Indices 1 2 3 4 5 6 
#
# 1 262.0257 16.9950 92.6249 0.0000 0.0000 0.0000
# 2 16.9950 140.0418 47.9357 0.0000 0.0000 0.0000
# 3 92.6249 47.9357 157.1598 0.0000 0.0000 0.0000
# 4 0.0000 0.0000 0.0000 39.3896 0.0000 0.0000
# 5 0.0000 0.0000 0.0000 0.0000 47.8450 0.0000
# 6 0.0000 0.0000 0.0000 0.0000 0.0000 16.7300
#
#
#
# Elastic Compliance Matrix: (Units=1/GPa)
#
#
# Indices 1 2 3 4 5 6 
#
# 1 0.004844 0.000435 -0.002988 0.000000 0.000000 0.000000
# 2 0.000435 0.008012 -0.002700 0.000000 0.000000 0.000000
# 3 -0.002988 -0.002700 0.008947 0.000000 0.000000 0.000000
# 4 0.000000 0.000000 0.000000 0.025387 0.000000 0.000000
# 5 0.000000 0.000000 0.000000 0.000000 0.020901 0.000000
# 6 0.000000 0.000000 0.000000 0.000000 0.000000 0.059773
#
#
# Mechanical properties :
#
#
# Convention : Reuss Voigt Hill
#
# Bulk Modulus (GPa) = 88.51193 97.14873 92.83033
# Shear Modulus (GPa) = 35.17730 47.57103 41.37417
#
# Velocity S-wave (km/s) = 3.60026 4.18672 3.90452
# Velocity P-wave (km/s) = 7.06377 7.69209 7.38462
#
# Compressibility (1/GPa) = 0.01129791
#
# Stress axis : x y z
#
# Youngs Moduli (GPa) = 206.42530 124.80993 111.76463
#
# Poissons Ratio (x) = -0.05427 0.33392
# Poissons Ratio (y) = -0.08975 0.30177
# Poissons Ratio (z) = 0.61674 0.33700
#
# Static dielectric constant tensor:
#      x y z
#    x 2.252010 0.000000 0.000000 
#    y 0.000000 2.081470 0.000000 
#    z 0.000000 0.000000 2.169090 
# 
# From -- ./inp_files/8800.got.cif
#   From: 2010.05.17/outbox.cif.g08.bks.cpg/sg60_5_cif.got.tgz:8800.got - 2010.06.03 14:59:27.
