data_PCOD9456591
_publ_section_title
;
Structure prediction by ZEFSAII (Michael W. Deem and Ramdas Pophale) SiO2 
 PCOD9456591
Probable space group: P B C N
;
_chemical_formula_sum "Si O2"
_cell_formula_units_Z 36
_cell_length_a 11.771431
_cell_length_b 26.590255
_cell_length_c 5.691234
_cell_angle_alpha 90.000000
_cell_angle_beta 90.000000
_cell_angle_gamma 90.000000
_cell_volume 1781.386702
_symmetry_space_group_name_H-M "P B C N"
_symmetry_group_IT_number 60
_symmetry_cell_setting 'orthorhombic'
loop_
_space_group_symop_operation_xyz
x,y,z
1/2-x,1/2-y,1/2+z
1/2+x,1/2-y,-z
-x,y,1/2-z
-x,-y,-z
1/2+x,1/2+y,1/2-z
1/2-x,1/2+y,z
x,-y,1/2+z
loop_
_atom_site_type_symbol
_atom_site_label
_atom_site_fract_x
_atom_site_fract_y
_atom_site_fract_z
Si Si1 0.806440 0.124585 0.438510
Si Si2 0.136919 0.026106 0.268080
Si Si3 0.673427 0.705665 0.070994
Si Si4 0.866766 0.682366 0.724930
Si Si5 0.500000 0.354821 0.250000
O O1 0.803404 0.080692 0.249477
O O2 0.839213 0.177287 0.316931
O O3 0.695381 0.137205 0.587792
O O4 0.912875 0.111552 0.604294
O O5 0.000000 0.031160 0.250000
O O6 0.167662 0.002092 0.521522
O O7 0.653342 0.764718 0.090257
O O8 0.796751 0.691829 0.965533
O O9 0.580381 0.680610 0.903745
O O10 0.000000 0.674335 0.750000
#
# Coordination Sequence:
#
# PCOD9456591 Si02
#       5
#     8   8   8   8   4
#     4  11  23  39  60  90 128 168 204 262 320 381
#     4  10  23  39  65  97 130 167 216 275 336 391
#     4  11  22  38  58  90 123 166 203 257 310 376
#     4  11  24  38  60  90 124 166 214 252 316 384
#     4  10  22  34  62  88 128 158 210 246 316 384
#
# _framework density 20.208973
#
# number of rings (size 3 to 8) (size 9 to 14) (size 15 to 20)
#    0.000    1.333    2.222    3.333   14.000    0.889 
#    0.000    0.000    0.000    1.333    0.000    0.000 
#    0.000    0.000    0.000    0.000    0.000    0.000 
#
# Total GULP energy -201099.704577 kJ/mol
# GULP energy per Si atom -5586.102905 kJ/mol
# Density = 2.016298 g / cm^3
# Si number density = 20.208973 Si / 1000 Ang^3
#
#
#
# Elastic Constant Matrix: (Units=GPa)
#
#
# Indices 1 2 3 4 5 6 
#
# 1 129.8362 15.5718 36.3089 0.0000 0.0000 0.0000
# 2 15.5718 78.3264 20.3893 0.0000 0.0000 0.0000
# 3 36.3089 20.3893 76.5259 0.0000 0.0000 0.0000
# 4 0.0000 0.0000 0.0000 24.9168 0.0000 0.0000
# 5 0.0000 0.0000 0.0000 0.0000 17.5092 0.0000
# 6 0.0000 0.0000 0.0000 0.0000 0.0000 10.1074
#
#
#
# Elastic Compliance Matrix: (Units=1/GPa)
#
#
# Indices 1 2 3 4 5 6 
#
# 1 0.008918 -0.000722 -0.004039 0.000000 0.000000 0.000000
# 2 -0.000722 0.013777 -0.003328 0.000000 0.000000 0.000000
# 3 -0.004039 -0.003328 0.015871 0.000000 0.000000 0.000000
# 4 0.000000 0.000000 0.000000 0.040134 0.000000 0.000000
# 5 0.000000 0.000000 0.000000 0.000000 0.057113 0.000000
# 6 0.000000 0.000000 0.000000 0.000000 0.000000 0.098937
#
#
# Mechanical properties :
#
#
# Convention : Reuss Voigt Hill
#
# Bulk Modulus (GPa) = 44.66725 47.69206 46.17965
# Shear Modulus (GPa) = 19.35062 24.66791 22.00926
#
# Velocity S-wave (km/s) = 3.09775 3.49756 3.30371
# Velocity P-wave (km/s) = 5.91146 6.32149 6.11991
#
# Compressibility (1/GPa) = 0.02238777
#
# Stress axis : x y z
#
# Youngs Moduli (GPa) = 112.13167 72.58501 63.00932
#
# Poissons Ratio (x) = 0.05237 0.25450
# Poissons Ratio (y) = 0.08091 0.20972
# Poissons Ratio (z) = 0.45291 0.24159
#
# Static dielectric constant tensor:
#      x y z
#    x 1.682130 0.000000 0.000000 
#    y 0.000000 1.730290 0.000000 
#    z 0.000000 0.000000 1.809760 
# 
# From -- ./inp_files/732.got.cif
#   From: 2010.05.17/outbox.cif.g08.bks.cpg/sg60_1_cif.got.tgz:732.got - 2010.06.03 14:59:27.
