data_PCOD9456724
_publ_section_title
;
Structure prediction by ZEFSAII (Michael W. Deem and Ramdas Pophale) SiO2 
 PCOD9456724
Probable space group: P B C N
;
_chemical_formula_sum "Si O2"
_cell_formula_units_Z 40
_cell_length_a 21.809089
_cell_length_b 9.090060
_cell_length_c 9.030149
_cell_angle_alpha 90.000000
_cell_angle_beta 90.000000
_cell_angle_gamma 90.000000
_cell_volume 1790.190264
_symmetry_space_group_name_H-M "P B C N"
_symmetry_group_IT_number 60
_symmetry_cell_setting 'orthorhombic'
loop_
_space_group_symop_operation_xyz
x,y,z
1/2-x,1/2-y,1/2+z
1/2+x,1/2-y,-z
-x,y,1/2-z
-x,-y,-z
1/2+x,1/2+y,1/2-z
1/2-x,1/2+y,z
x,-y,1/2+z
loop_
_atom_site_type_symbol
_atom_site_label
_atom_site_fract_x
_atom_site_fract_y
_atom_site_fract_z
Si Si1 0.500000 0.996511 0.250000
Si Si2 0.598389 0.243121 0.186184
Si Si3 0.072586 0.241669 0.127464
Si Si4 0.791694 0.144066 0.862455
Si Si5 0.812699 0.172668 0.211443
Si Si6 0.500000 0.491772 0.250000
O O1 0.529540 0.883949 0.367349
O O2 0.555716 0.101694 0.205812
O O3 0.654461 0.252276 0.297212
O O4 0.555642 0.385040 0.211153
O O5 0.616195 0.252461 0.014445
O O6 0.116614 0.223489 0.269103
O O7 0.026896 0.103113 0.127415
O O8 0.729934 0.206359 0.789799
O O9 0.804431 0.980972 0.799288
O O10 0.794445 0.149879 0.040184
#
# Coordination Sequence:
#
# PCOD9456724 Si02
#       6
#     4   8   8   8   8   4
#     4  10  26  42  66 104 146 182 236 278 350 402
#     4  11  23  43  69 101 140 182 230 283 344 411
#     4  11  23  43  69 101 140 182 230 283 344 411
#     4  12  27  48  74 103 138 181 232 289 350 414
#     4  12  27  48  74 103 138 181 232 289 350 414
#     4  10  22  38  70 100 138 174 234 276 350 406
#
# _framework density 22.343992
#
# number of rings (size 3 to 8) (size 9 to 14) (size 15 to 20)
#    0.000    0.800    2.000    4.800    2.800    8.000 
#    0.000    0.000    0.000    0.000    0.000    0.000 
#    0.000    0.000    0.000    0.000    0.000    0.000 
#
# Total GULP energy -223677.612034 kJ/mol
# GULP energy per Si atom -5591.940301 kJ/mol
# Density = 2.229314 g / cm^3
# Si number density = 22.343992 Si / 1000 Ang^3
#
#
#
# Elastic Constant Matrix: (Units=GPa)
#
#
# Indices 1 2 3 4 5 6 
#
# 1 91.3498 27.8767 -4.1392 0.0000 0.0000 0.0000
# 2 27.8767 125.2047 16.1652 0.0000 0.0000 0.0000
# 3 -4.1392 16.1652 90.2396 0.0000 0.0000 0.0000
# 4 0.0000 0.0000 0.0000 10.3925 0.0000 0.0000
# 5 0.0000 0.0000 0.0000 0.0000 33.1312 0.0000
# 6 0.0000 0.0000 0.0000 0.0000 0.0000 34.3791
#
#
#
# Elastic Compliance Matrix: (Units=1/GPa)
#
#
# Indices 1 2 3 4 5 6 
#
# 1 0.011839 -0.002770 0.001039 0.000000 0.000000 0.000000
# 2 -0.002770 0.008824 -0.001708 0.000000 0.000000 0.000000
# 3 0.001039 -0.001708 0.011435 0.000000 0.000000 0.000000
# 4 0.000000 0.000000 0.000000 0.096223 0.000000 0.000000
# 5 0.000000 0.000000 0.000000 0.000000 0.030183 0.000000
# 6 0.000000 0.000000 0.000000 0.000000 0.000000 0.029087
#
#
# Mechanical properties :
#
#
# Convention : Reuss Voigt Hill
#
# Bulk Modulus (GPa) = 39.64889 42.95549 41.30219
# Shear Modulus (GPa) = 24.64549 33.37332 29.00940
#
# Velocity S-wave (km/s) = 3.32475 3.86892 3.60711
# Velocity P-wave (km/s) = 5.70280 6.26294 5.98942
#
# Compressibility (1/GPa) = 0.02522139
#
# Stress axis : x y z
#
# Youngs Moduli (GPa) = 84.46382 113.32477 87.44920
#
# Poissons Ratio (x) = 0.31393 -0.09089
# Poissons Ratio (y) = 0.23398 0.14935
# Poissons Ratio (z) = -0.08778 0.19354
#
# Static dielectric constant tensor:
#      x y z
#    x 1.803210 0.000000 0.000000 
#    y 0.000000 1.796900 0.000000 
#    z 0.000000 0.000000 1.860660 
# 
# From -- ./inp_files/7763.got.cif
#   From: 2010.05.17/outbox.cif.g08.bks.cpg/sg60_4_cif.got.tgz:7763.got - 2010.06.03 14:59:27.
