data_PCOD9456829
_publ_section_title
;
Structure prediction by ZEFSAII (Michael W. Deem and Ramdas Pophale) SiO2 
 PCOD9456829
Probable space group: P B C N
;
_chemical_formula_sum "Si O2"
_cell_formula_units_Z 48
_cell_length_a 15.870924
_cell_length_b 27.273315
_cell_length_c 5.135227
_cell_angle_alpha 90.000000
_cell_angle_beta 90.000000
_cell_angle_gamma 90.000000
_cell_volume 2222.796921
_symmetry_space_group_name_H-M "P B C N"
_symmetry_group_IT_number 60
_symmetry_cell_setting 'orthorhombic'
loop_
_space_group_symop_operation_xyz
x,y,z
1/2-x,1/2-y,1/2+z
1/2+x,1/2-y,-z
-x,y,1/2-z
-x,-y,-z
1/2+x,1/2+y,1/2-z
1/2-x,1/2+y,z
x,-y,1/2+z
loop_
_atom_site_type_symbol
_atom_site_label
_atom_site_fract_x
_atom_site_fract_y
_atom_site_fract_z
Si Si1 0.889246 0.467938 0.570060
Si Si2 0.000000 0.771571 0.250000
Si Si3 0.901259 0.253053 0.340891
Si Si4 0.500000 0.107285 0.750000
Si Si5 0.258862 0.111701 0.467932
Si Si6 0.586326 0.653082 0.144230
Si Si7 0.162722 0.659868 0.962610
O O1 0.900372 0.511465 0.359841
O O2 0.798318 0.442084 0.559819
O O3 0.950891 0.426031 0.459622
O O4 0.945839 0.810586 0.417998
O O5 0.075073 0.736578 0.360167
O O6 0.877905 0.195615 0.337448
O O7 0.842131 0.285787 0.165216
O O8 0.000000 0.256430 0.250000
O O9 0.568979 0.138988 0.596171
O O10 0.159958 0.116661 0.421721
O O11 0.279226 0.130399 0.757103
O O12 0.305866 0.146044 0.250678
O O13 0.500000 0.630235 0.250000
#
# Coordination Sequence:
#
# PCOD9456829 Si02
#       7
#     8   4   8   4   8   8   8
#     4  11  23  43  66  92 126 165 206 263 319 382
#     4   8  18  36  64  87 110 176 221 252 306 372
#     4   9  19  35  58  85 126 169 210 247 300 359
#     4  10  22  40  62  97 128 172 213 240 306 382
#     4  11  26  40  61  96 123 155 214 264 319 370
#     4   9  21  40  63  86 120 166 212 258 316 382
#     4  11  24  37  59  92 132 167 203 260 296 358
#
# _framework density 21.594415000000001
#
# number of rings (size 3 to 8) (size 9 to 14) (size 15 to 20)
#    0.000    2.333    0.833    2.500    9.333    6.667 
#    0.000    0.000    0.000    1.000    0.000    0.000 
#    0.000    0.000    0.000    0.000    0.000    0.000 
#
# Total GULP energy -267379.068877 kJ/mol
# GULP energy per Si atom -5570.397268 kJ/mol
# Density = 2.154527 g / cm^3
# Si number density = 21.594415 Si / 1000 Ang^3
#
#
#
# Elastic Constant Matrix: (Units=GPa)
#
#
# Indices 1 2 3 4 5 6 
#
# 1 89.2643 27.9501 -5.8893 0.0000 0.0000 0.0000
# 2 27.9501 37.0317 0.6440 0.0000 0.0000 0.0000
# 3 -5.8893 0.6440 67.8354 0.0000 0.0000 0.0000
# 4 0.0000 0.0000 0.0000 14.7184 0.0000 0.0000
# 5 0.0000 0.0000 0.0000 0.0000 22.0945 0.0000
# 6 0.0000 0.0000 0.0000 0.0000 0.0000 28.9319
#
#
#
# Elastic Compliance Matrix: (Units=1/GPa)
#
#
# Indices 1 2 3 4 5 6 
#
# 1 0.014800 -0.011194 0.001391 0.000000 0.000000 0.000000
# 2 -0.011194 0.035476 -0.001309 0.000000 0.000000 0.000000
# 3 0.001391 -0.001309 0.014875 0.000000 0.000000 0.000000
# 4 0.000000 0.000000 0.000000 0.067942 0.000000 0.000000
# 5 0.000000 0.000000 0.000000 0.000000 0.045260 0.000000
# 6 0.000000 0.000000 0.000000 0.000000 0.000000 0.034564
#
#
# Mechanical properties :
#
#
# Convention : Reuss Voigt Hill
#
# Bulk Modulus (GPa) = 23.29573 26.61567 24.95570
# Shear Modulus (GPa) = 20.04417 24.57738 22.31078
#
# Velocity S-wave (km/s) = 3.04996 3.37729 3.21779
# Velocity P-wave (km/s) = 4.81812 5.24977 5.03857
#
# Compressibility (1/GPa) = 0.04292633
#
# Stress axis : x y z
#
# Youngs Moduli (GPa) = 67.56938 28.18826 67.22791
#
# Poissons Ratio (x) = 0.31555 -0.09352
# Poissons Ratio (y) = 0.75640 0.08798
# Poissons Ratio (z) = -0.09400 0.03689
#
# Static dielectric constant tensor:
#      x y z
#    x 1.799190 0.000000 0.000000 
#    y 0.000000 1.793870 0.000000 
#    z 0.000000 0.000000 2.784980 
# 
# From -- ./inp_files/1447.got.cif
#   From: 2010.05.17/outbox.cif.g08.bks.cpg/sg60_1_cif.got.tgz:1447.got - 2010.06.03 14:59:27.
