data_PCOD9456494
_publ_section_title
;
Structure prediction by ZEFSAII (Michael W. Deem and Ramdas Pophale) SiO2 
 PCOD9456494
Probable space group: P B C N
;
_chemical_formula_sum "Si O2"
_cell_formula_units_Z 40
_cell_length_a 9.055791
_cell_length_b 24.013816
_cell_length_c 8.198246
_cell_angle_alpha 90.000000
_cell_angle_beta 90.000000
_cell_angle_gamma 90.000000
_cell_volume 1782.824178
_symmetry_space_group_name_H-M "P B C N"
_symmetry_group_IT_number 60
_symmetry_cell_setting 'orthorhombic'
loop_
_space_group_symop_operation_xyz
x,y,z
1/2-x,1/2-y,1/2+z
1/2+x,1/2-y,-z
-x,y,1/2-z
-x,-y,-z
1/2+x,1/2+y,1/2-z
1/2-x,1/2+y,z
x,-y,1/2+z
loop_
_atom_site_type_symbol
_atom_site_label
_atom_site_fract_x
_atom_site_fract_y
_atom_site_fract_z
Si Si1 0.183222 0.425713 0.611605
Si Si2 0.615292 0.532790 0.884734
Si Si3 0.617555 0.102212 0.014642
Si Si4 0.619323 0.222325 0.106786
Si Si5 0.138962 0.179035 0.146993
O O1 0.268677 0.482597 0.645460
O O2 0.141154 0.405959 0.792563
O O3 0.286030 0.374265 0.560845
O O4 0.040715 0.429022 0.492238
O O5 0.500000 0.553644 0.750000
O O6 0.500000 0.500000 0.000000
O O7 0.730524 0.580427 0.937586
O O8 0.593174 0.167869 0.994000
O O9 0.500000 0.225207 0.250000
O O10 0.766667 0.209985 0.210923
O O11 0.613238 0.275850 0.993202
O O12 0.000000 0.157394 0.250000
#
# Coordination Sequence:
#
# PCOD9456494 Si02
#       5
#     8   8   8   8   8
#     4  10  21  43  67  91 131 182 220 268 343 409
#     4  12  24  42  66 100 131 169 228 283 338 402
#     4  10  21  43  68  89 134 183 220 268 344 413
#     4  11  22  45  66  99 138 179 224 279 345 418
#     4  11  23  39  70 101 134 181 228 279 344 405
#
# _framework density 22.436312999999998
#
# number of rings (size 3 to 8) (size 9 to 14) (size 15 to 20)
#    0.000    1.200    6.000    2.400    2.800    0.000 
#    3.600    0.000    0.000    0.000    0.000    0.000 
#    0.000    0.000    0.000    0.000    0.000    0.000 
#
# Total GULP energy -222899.256743 kJ/mol
# GULP energy per Si atom -5572.481419 kJ/mol
# Density = 2.238525 g / cm^3
# Si number density = 22.436313 Si / 1000 Ang^3
#
#
#
# Elastic Constant Matrix: (Units=GPa)
#
#
# Indices 1 2 3 4 5 6 
#
# 1 143.4697 29.9633 41.5388 0.0000 0.0000 0.0000
# 2 29.9633 98.7289 21.3594 0.0000 0.0000 0.0000
# 3 41.5388 21.3594 37.4341 0.0000 0.0000 0.0000
# 4 0.0000 0.0000 0.0000 39.2568 0.0000 0.0000
# 5 0.0000 0.0000 0.0000 0.0000 41.6873 0.0000
# 6 0.0000 0.0000 0.0000 0.0000 0.0000 -34.4273
#
#
#
# Elastic Compliance Matrix: (Units=1/GPa)
#
#
# Indices 1 2 3 4 5 6 
#
# 1 0.010317 -0.000747 -0.011023 0.000000 0.000000 0.000000
# 2 -0.000747 0.011609 -0.005796 0.000000 0.000000 0.000000
# 3 -0.011023 -0.005796 0.042252 0.000000 0.000000 0.000000
# 4 0.000000 0.000000 0.000000 0.025473 0.000000 0.000000
# 5 0.000000 0.000000 0.000000 0.000000 0.023988 0.000000
# 6 0.000000 0.000000 0.000000 0.000000 0.000000 -0.029047
#
#
# Mechanical properties :
#
#
# Convention : Reuss Voigt Hill
#
# Bulk Modulus (GPa) = 34.42502 51.70618 43.06560
# Shear Modulus (GPa) = 38.63800 21.75476 30.19638
#
# Velocity S-wave (km/s) = 4.15434 3.11725 3.67259
# Velocity P-wave (km/s) = 6.19582 6.00434 6.10083
#
# Compressibility (1/GPa) = 0.02904864
#
# Stress axis : x y z
#
# Youngs Moduli (GPa) = 96.92303 86.13884 23.66751
#
# Poissons Ratio (x) = 0.06431 0.26088
# Poissons Ratio (y) = 0.07236 0.13717
# Poissons Ratio (z) = 1.06837 0.49923
#
# Static dielectric constant tensor:
#      x y z
#    x 2.042990 0.000000 0.000000 
#    y 0.000000 1.898430 0.000000 
#    z 0.000000 0.000000 1.993000 
# 
# From -- ./inp_files/3799.got.cif
#   From: 2010.05.17/outbox.cif.g08.bks.cpg/sg60_2_cif.got.tgz:3799.got - 2010.06.03 14:59:27.
