data_PCOD9456064
_publ_section_title
;
Structure prediction by ZEFSAII (Michael W. Deem and Ramdas Pophale) SiO2 
 PCOD9456064
Probable space group: P B C N
;
_chemical_formula_sum "Si O2"
_cell_formula_units_Z 40
_cell_length_a 9.497232
_cell_length_b 17.584922
_cell_length_c 10.630385
_cell_angle_alpha 90.000000
_cell_angle_beta 90.000000
_cell_angle_gamma 90.000000
_cell_volume 1775.360230
_symmetry_space_group_name_H-M "P B C N"
_symmetry_group_IT_number 60
_symmetry_cell_setting 'orthorhombic'
loop_
_space_group_symop_operation_xyz
x,y,z
1/2-x,1/2-y,1/2+z
1/2+x,1/2-y,-z
-x,y,1/2-z
-x,-y,-z
1/2+x,1/2+y,1/2-z
1/2-x,1/2+y,z
x,-y,1/2+z
loop_
_atom_site_type_symbol
_atom_site_label
_atom_site_fract_x
_atom_site_fract_y
_atom_site_fract_z
Si Si1 0.477490 0.311472 0.551858
Si Si2 0.083112 0.975114 0.625484
Si Si3 0.509442 0.931364 0.097101
Si Si4 0.273897 0.624606 0.620443
Si Si5 0.783824 0.304129 0.117802
O O1 0.410551 0.383612 0.625890
O O2 0.593080 0.348653 0.458243
O O3 0.582730 0.253078 0.622379
O O4 0.344482 0.280579 0.472170
O O5 0.000000 0.997324 0.750000
O O6 0.213301 0.032541 0.635742
O O7 0.000000 0.000000 0.500000
O O8 0.500000 0.946103 0.250000
O O9 0.382228 0.873812 0.065168
O O10 0.653272 0.885320 0.074072
O O11 0.500000 0.000000 0.000000
O O12 0.273026 0.675980 0.744478
#
# Coordination Sequence:
#
# PCOD9456064 Si02
#       5
#     8   8   8   8   8
#     4  11  23  39  64  93 130 174 227 281 348 423
#     4  10  21  38  63  94 126 169 222 275 334 410
#     4  10  22  40  64  92 129 171 219 276 337 406
#     4  10  21  42  66  92 129 175 225 285 343 405
#     4  11  23  41  62  93 133 175 222 287 353 408
#
# _framework density 22.530638
#
# number of rings (size 3 to 8) (size 9 to 14) (size 15 to 20)
#    0.000    1.600    0.000    5.400    0.000    8.800 
#    0.000    4.000    0.000    0.000    0.000    0.000 
#    0.000    0.000    0.000    0.000    0.000    0.000 
#
# Total GULP energy -222885.129596 kJ/mol
# GULP energy per Si atom -5572.128240 kJ/mol
# Density = 2.247936 g / cm^3
# Si number density = 22.530638 Si / 1000 Ang^3
#
#
#
# Elastic Constant Matrix: (Units=GPa)
#
#
# Indices 1 2 3 4 5 6 
#
# 1 107.7969 24.8907 38.6638 0.0000 0.0000 0.0000
# 2 24.8907 120.4651 55.8794 0.0000 0.0000 0.0000
# 3 38.6638 55.8794 90.7246 0.0000 0.0000 0.0000
# 4 0.0000 0.0000 0.0000 19.4335 0.0000 0.0000
# 5 0.0000 0.0000 0.0000 0.0000 38.7092 0.0000
# 6 0.0000 0.0000 0.0000 0.0000 0.0000 47.9936
#
#
#
# Elastic Compliance Matrix: (Units=1/GPa)
#
#
# Indices 1 2 3 4 5 6 
#
# 1 0.010952 -0.000137 -0.004583 0.000000 0.000000 0.000000
# 2 -0.000137 0.011623 -0.007101 0.000000 0.000000 0.000000
# 3 -0.004583 -0.007101 0.017349 0.000000 0.000000 0.000000
# 4 0.000000 0.000000 0.000000 0.051458 0.000000 0.000000
# 5 0.000000 0.000000 0.000000 0.000000 0.025834 0.000000
# 6 0.000000 0.000000 0.000000 0.000000 0.000000 0.020836
#
#
# Mechanical properties :
#
#
# Convention : Reuss Voigt Hill
#
# Bulk Modulus (GPa) = 61.41400 61.98381 61.69890
# Shear Modulus (GPa) = 29.91853 34.53078 32.22466
#
# Velocity S-wave (km/s) = 3.64800 3.91911 3.78598
# Velocity P-wave (km/s) = 6.71275 6.93180 6.82315
#
# Compressibility (1/GPa) = 0.01628293
#
# Stress axis : x y z
#
# Youngs Moduli (GPa) = 91.30624 86.03507 57.64052
#
# Poissons Ratio (x) = 0.01179 0.26417
# Poissons Ratio (y) = 0.01251 0.40928
# Poissons Ratio (z) = 0.41846 0.61090
#
# Static dielectric constant tensor:
#      x y z
#    x 1.883380 0.000000 0.000000 
#    y 0.000000 2.019070 0.000000 
#    z 0.000000 0.000000 1.848490 
# 
# From -- ./inp_files/9732.got.cif
#   From: 2010.05.17/outbox.cif.g08.bks.cpg/sg60_5_cif.got.tgz:9732.got - 2010.06.03 14:59:27.
