data_PCOD9456861
_publ_section_title
;
Structure prediction by ZEFSAII (Michael W. Deem and Ramdas Pophale) SiO2 
 PCOD9456861
Probable space group: P B C N
;
_chemical_formula_sum "Si O2"
_cell_formula_units_Z 48
_cell_length_a 5.028011
_cell_length_b 28.032192
_cell_length_c 14.144150
_cell_angle_alpha 90.000000
_cell_angle_beta 90.000000
_cell_angle_gamma 90.000000
_cell_volume 1993.563767
_symmetry_space_group_name_H-M "P B C N"
_symmetry_group_IT_number 60
_symmetry_cell_setting 'orthorhombic'
loop_
_space_group_symop_operation_xyz
x,y,z
1/2-x,1/2-y,1/2+z
1/2+x,1/2-y,-z
-x,y,1/2-z
-x,-y,-z
1/2+x,1/2+y,1/2-z
1/2-x,1/2+y,z
x,-y,1/2+z
loop_
_atom_site_type_symbol
_atom_site_label
_atom_site_fract_x
_atom_site_fract_y
_atom_site_fract_z
Si Si1 0.000000 0.859990 0.250000
Si Si2 0.259135 0.567859 0.613398
Si Si3 0.500000 0.492311 0.750000
Si Si4 0.595590 0.842828 0.109496
Si Si5 0.500000 0.219158 0.750000
Si Si6 0.749130 0.141954 0.401931
Si Si7 0.252196 0.577743 0.398004
Si Si8 0.000000 0.286918 0.750000
O O1 0.953081 0.893106 0.340335
O O2 0.748143 0.833213 0.209315
O O3 0.305576 0.524066 0.683312
O O4 0.305605 0.557398 0.503876
O O5 0.000513 0.601888 0.617390
O O6 0.676411 0.460589 0.680429
O O7 0.392938 0.801105 0.137676
O O8 0.726457 0.838497 0.008833
O O9 0.745716 0.255636 0.720096
O O10 0.548922 0.096221 0.395453
O O11 0.624173 0.179012 0.330438
O O12 0.044861 0.122089 0.384848
#
# Coordination Sequence:
#
# PCOD9456861 Si02
#       8
#     4   8   4   8   4   8   8   4
#     4  11  17  40  64  97 126 172 221 276 328 385
#     4  10  22  40  66  96 131 175 223 273 333 392
#     4  11  24  42  66  96 142 168 224 288 334 388
#     4  11  23  41  71  97 133 180 224 278 336 415
#     4  12  26  41  70 102 138 165 225 273 350 394
#     4  11  25  47  72  92 135 180 231 265 342 406
#     4  11  23  46  67  98 128 185 227 274 330 411
#     4  12  27  45  66 103 136 175 214 287 334 415
#
# _framework density 24.077484999999999
#
# number of rings (size 3 to 8) (size 9 to 14) (size 15 to 20)
#    0.000    1.000    3.333    3.000    0.000    1.333 
#   12.000    2.500    0.000    0.000    0.000    0.000 
#    0.000    0.000    0.000    0.000    0.000    0.000 
#
# Total GULP energy -267472.397081 kJ/mol
# GULP energy per Si atom -5572.341606 kJ/mol
# Density = 2.402268 g / cm^3
# Si number density = 24.077485 Si / 1000 Ang^3
#
#
#
# Elastic Constant Matrix: (Units=GPa)
#
#
# Indices 1 2 3 4 5 6 
#
# 1 71.6046 -6.7869 5.9609 0.0000 0.0000 0.0000
# 2 -6.7869 82.4343 62.3032 0.0000 0.0000 0.0000
# 3 5.9609 62.3032 147.0863 0.0000 0.0000 0.0000
# 4 0.0000 0.0000 0.0000 135.0652 0.0000 0.0000
# 5 0.0000 0.0000 0.0000 0.0000 24.9990 0.0000
# 6 0.0000 0.0000 0.0000 0.0000 0.0000 6.6239
#
#
#
# Elastic Compliance Matrix: (Units=1/GPa)
#
#
# Indices 1 2 3 4 5 6 
#
# 1 0.014323 0.002380 -0.001589 0.000000 0.000000 0.000000
# 2 0.002380 0.018239 -0.007822 0.000000 0.000000 0.000000
# 3 -0.001589 -0.007822 0.010176 0.000000 0.000000 0.000000
# 4 0.000000 0.000000 0.000000 0.007404 0.000000 0.000000
# 5 0.000000 0.000000 0.000000 0.000000 0.040002 0.000000
# 6 0.000000 0.000000 0.000000 0.000000 0.000000 0.150969
#
#
# Mechanical properties :
#
#
# Convention : Reuss Voigt Hill
#
# Bulk Modulus (GPa) = 34.87113 47.11996 40.99554
# Shear Modulus (GPa) = 18.88695 49.31415 34.10055
#
# Velocity S-wave (km/s) = 2.80380 4.53055 3.76744
# Velocity P-wave (km/s) = 4.99960 6.85423 5.99902
#
# Compressibility (1/GPa) = 0.02867702
#
# Stress axis : x y z
#
# Youngs Moduli (GPa) = 69.81580 54.82869 98.26676
#
# Poissons Ratio (x) = -0.13049 0.15610
# Poissons Ratio (y) = -0.16615 0.76864
# Poissons Ratio (z) = 0.11091 0.42887
#
# Static dielectric constant tensor:
#      x y z
#    x 2.475320 0.000000 0.000000 
#    y 0.000000 1.940950 0.000000 
#    z 0.000000 0.000000 1.979780 
# 
# From -- ./inp_files/13999.got.cif
#   From: 2010.05.17/outbox.cif.g08.bks.cpg/sg60_7_cif.got.tgz:13999.got - 2010.06.03 14:59:27.
