data_PCOD9456981
_publ_section_title
;
Structure prediction by ZEFSAII (Michael W. Deem and Ramdas Pophale) SiO2 
 PCOD9456981
Probable space group: P B C N
;
_chemical_formula_sum "Si O2"
_cell_formula_units_Z 48
_cell_length_a 6.613851
_cell_length_b 27.543596
_cell_length_c 13.624863
_cell_angle_alpha 90.000000
_cell_angle_beta 90.000000
_cell_angle_gamma 90.000000
_cell_volume 2482.030937
_symmetry_space_group_name_H-M "P B C N"
_symmetry_group_IT_number 60
_symmetry_cell_setting 'orthorhombic'
loop_
_space_group_symop_operation_xyz
x,y,z
1/2-x,1/2-y,1/2+z
1/2+x,1/2-y,-z
-x,y,1/2-z
-x,-y,-z
1/2+x,1/2+y,1/2-z
1/2-x,1/2+y,z
x,-y,1/2+z
loop_
_atom_site_type_symbol
_atom_site_label
_atom_site_fract_x
_atom_site_fract_y
_atom_site_fract_z
Si Si1 0.933242 0.809894 0.563204
Si Si2 0.827258 0.636266 0.898439
Si Si3 0.283573 0.799414 0.418957
Si Si4 0.525937 0.463234 0.854156
Si Si5 0.500000 0.629769 0.250000
Si Si6 0.302036 0.968720 0.014439
Si Si7 0.000000 0.172052 0.750000
O O1 0.783763 0.836143 0.487852
O O2 0.883022 0.753026 0.567470
O O3 0.906089 0.834927 0.668895
O O4 0.158685 0.814639 0.516550
O O5 0.848238 0.580529 0.928064
O O6 0.673723 0.642162 0.807088
O O7 0.043108 0.662523 0.888374
O O8 0.117278 0.797357 0.332457
O O9 0.500000 0.489568 0.750000
O O10 0.612974 0.410596 0.819315
O O11 0.661016 0.495956 0.922337
O O12 0.317748 0.455797 0.913897
O O13 0.500000 0.000000 0.000000
#
# Coordination Sequence:
#
# PCOD9456981 Si02
#       7
#     8   8   8   8   4   8   4
#     4  11  23  42  69  95 135 170 215 275 332 398
#     4  11  23  44  63  96 128 174 216 267 334 394
#     4  11  24  42  66  98 133 171 217 269 334 398
#     4   9  22  45  62  92 129 164 217 278 324 382
#     4  10  22  41  68  92 130 170 215 274 328 382
#     4  11  24  41  69  92 127 172 218 272 335 393
#     4  10  26  41  62  90 132 168 221 262 314 398
#
# _framework density 19.339001
#
# number of rings (size 3 to 8) (size 9 to 14) (size 15 to 20)
#    0.500    1.000    3.333    0.500    5.833    2.000 
#    3.000    1.667    0.000    0.000    0.000    0.000 
#    0.000    0.000    0.000    0.000    0.000    0.000 
#
# Total GULP energy -267442.233531 kJ/mol
# GULP energy per Si atom -5571.713199 kJ/mol
# Density = 1.929498 g / cm^3
# Si number density = 19.339001 Si / 1000 Ang^3
#
#
#
# Elastic Constant Matrix: (Units=GPa)
#
#
# Indices 1 2 3 4 5 6 
#
# 1 100.4780 41.5050 34.5922 0.0000 0.0000 0.0000
# 2 41.5050 104.8929 22.2410 0.0000 0.0000 0.0000
# 3 34.5922 22.2410 105.9624 0.0000 0.0000 0.0000
# 4 0.0000 0.0000 0.0000 32.2103 0.0000 0.0000
# 5 0.0000 0.0000 0.0000 0.0000 19.9920 0.0000
# 6 0.0000 0.0000 0.0000 0.0000 0.0000 15.3839
#
#
#
# Elastic Compliance Matrix: (Units=1/GPa)
#
#
# Indices 1 2 3 4 5 6 
#
# 1 0.012906 -0.004410 -0.003288 0.000000 0.000000 0.000000
# 2 -0.004410 0.011484 -0.000971 0.000000 0.000000 0.000000
# 3 -0.003288 -0.000971 0.010714 0.000000 0.000000 0.000000
# 4 0.000000 0.000000 0.000000 0.031046 0.000000 0.000000
# 5 0.000000 0.000000 0.000000 0.000000 0.050020 0.000000
# 6 0.000000 0.000000 0.000000 0.000000 0.000000 0.065003
#
#
# Mechanical properties :
#
#
# Convention : Reuss Voigt Hill
#
# Bulk Modulus (GPa) = 56.28074 56.44550 56.36312
# Shear Modulus (GPa) = 24.45799 27.71692 26.08745
#
# Velocity S-wave (km/s) = 3.56012 3.78989 3.67680
# Velocity P-wave (km/s) = 6.78709 6.95714 6.87264
#
# Compressibility (1/GPa) = 0.01776807
#
# Stress axis : x y z
#
# Youngs Moduli (GPa) = 77.48470 87.07591 93.33254
#
# Poissons Ratio (x) = 0.38397 0.30684
# Poissons Ratio (y) = 0.34167 0.09062
# Poissons Ratio (z) = 0.25474 0.08455
#
# Static dielectric constant tensor:
#      x y z
#    x 1.686520 0.000000 0.000000 
#    y 0.000000 1.652240 0.000000 
#    z 0.000000 0.000000 1.713160 
# 
# From -- ./inp_files/14059.got.cif
#   From: 2010.05.17/outbox.cif.g08.bks.cpg/sg60_8_cif.got.tgz:14059.got - 2010.06.03 14:59:27.
