data_PCOD9456018
_publ_section_title
;
Structure prediction by ZEFSAII (Michael W. Deem and Ramdas Pophale) SiO2 
 PCOD9456018
Probable space group: P B C N
;
_chemical_formula_sum "Si O2"
_cell_formula_units_Z 40
_cell_length_a 27.656155
_cell_length_b 5.032450
_cell_length_c 14.025753
_cell_angle_alpha 90.000000
_cell_angle_beta 90.000000
_cell_angle_gamma 90.000000
_cell_volume 1952.079298
_symmetry_space_group_name_H-M "P B C N"
_symmetry_group_IT_number 60
_symmetry_cell_setting 'orthorhombic'
loop_
_space_group_symop_operation_xyz
x,y,z
1/2-x,1/2-y,1/2+z
1/2+x,1/2-y,-z
-x,y,1/2-z
-x,-y,-z
1/2+x,1/2+y,1/2-z
1/2-x,1/2+y,z
x,-y,1/2+z
loop_
_atom_site_type_symbol
_atom_site_label
_atom_site_fract_x
_atom_site_fract_y
_atom_site_fract_z
Si Si1 0.957975 0.821392 0.674764
Si Si2 0.538992 0.177019 0.055729
Si Si3 0.347746 0.361215 0.841026
Si Si4 0.214899 0.270568 0.156842
Si Si5 0.648690 0.148178 0.027397
O O1 0.955023 0.510457 0.648640
O O2 0.902601 0.892636 0.698390
O O3 0.000000 0.860344 0.750000
O O4 0.971590 0.024290 0.589087
O O5 0.591460 0.184881 0.006319
O O6 0.500000 0.000000 0.000000
O O7 0.314437 0.263971 0.755193
O O8 0.335672 0.640467 0.891259
O O9 0.346445 0.142678 0.925670
O O10 0.249765 0.521374 0.152115
O O11 0.178894 0.298074 0.067324
#
# Coordination Sequence:
#
# PCOD9456018 Si02
#       5
#     8   8   8   8   8
#     4  10  21  38  60  92 124 164 207 250 318 374
#     4  10  21  38  60  92 124 164 207 251 319 378
#     4  10  23  43  63  91 132 163 206 266 317 377
#     4  12  26  42  66  97 119 169 223 258 324 380
#     4  10  23  43  63  92 131 164 206 267 319 376
#
# _framework density 20.490970000000001
#
# number of rings (size 3 to 8) (size 9 to 14) (size 15 to 20)
#    0.000    1.600    0.000    3.600    2.800    4.800 
#    3.600    0.000    0.000    0.000    0.000    0.000 
#    0.000    0.000    0.000    0.000    0.000    0.000 
#
# Total GULP energy -223257.651153 kJ/mol
# GULP energy per Si atom -5581.441279 kJ/mol
# Density = 2.044433 g / cm^3
# Si number density = 20.490970 Si / 1000 Ang^3
#
#
#
# Elastic Constant Matrix: (Units=GPa)
#
#
# Indices 1 2 3 4 5 6 
#
# 1 98.6252 23.7351 64.6515 0.0000 0.0000 0.0000
# 2 23.7351 121.5309 4.9768 0.0000 0.0000 0.0000
# 3 64.6515 4.9768 64.9425 0.0000 0.0000 0.0000
# 4 0.0000 0.0000 0.0000 16.7004 0.0000 0.0000
# 5 0.0000 0.0000 0.0000 0.0000 105.6562 0.0000
# 6 0.0000 0.0000 0.0000 0.0000 0.0000 31.3170
#
#
#
# Elastic Compliance Matrix: (Units=1/GPa)
#
#
# Indices 1 2 3 4 5 6 
#
# 1 0.031896 -0.004944 -0.031374 0.000000 0.000000 0.000000
# 2 -0.004944 0.009021 0.004231 0.000000 0.000000 0.000000
# 3 -0.031374 0.004231 0.046307 0.000000 0.000000 0.000000
# 4 0.000000 0.000000 0.000000 0.059879 0.000000 0.000000
# 5 0.000000 0.000000 0.000000 0.000000 0.009465 0.000000
# 6 0.000000 0.000000 0.000000 0.000000 0.000000 0.031931
#
#
# Mechanical properties :
#
#
# Convention : Reuss Voigt Hill
#
# Bulk Modulus (GPa) = 43.38569 52.42505 47.90537
# Shear Modulus (GPa) = 19.20442 43.51706 31.36074
#
# Velocity S-wave (km/s) = 3.06472 4.61338 3.91636
# Velocity P-wave (km/s) = 5.80882 7.34968 6.62420
#
# Compressibility (1/GPa) = 0.02304908
#
# Stress axis : x y z
#
# Youngs Moduli (GPa) = 31.35209 110.85545 21.59486
#
# Poissons Ratio (x) = 0.54812 0.67752
# Poissons Ratio (y) = 0.15502 -0.09137
# Poissons Ratio (z) = 0.98364 -0.46903
#
# Static dielectric constant tensor:
#      x y z
#    x 1.611530 0.000000 0.000000 
#    y 0.000000 1.701800 0.000000 
#    z 0.000000 0.000000 1.707270 
# 
# From -- ./inp_files/13200.got.cif
#   From: 2010.05.17/outbox.cif.g08.bks.cpg/sg60_7_cif.got.tgz:13200.got - 2010.06.03 14:59:27.
