data_PCOD9456101
_publ_section_title
;
Structure prediction by ZEFSAII (Michael W. Deem and Ramdas Pophale) SiO2 
 PCOD9456101
Probable space group: P B C N
;
_chemical_formula_sum "Si O2"
_cell_formula_units_Z 52
_cell_length_a 8.377770
_cell_length_b 30.049948
_cell_length_c 10.806552
_cell_angle_alpha 90.000000
_cell_angle_beta 90.000000
_cell_angle_gamma 90.000000
_cell_volume 2720.566247
_symmetry_space_group_name_H-M "P B C N"
_symmetry_group_IT_number 60
_symmetry_cell_setting 'orthorhombic'
loop_
_space_group_symop_operation_xyz
x,y,z
1/2-x,1/2-y,1/2+z
1/2+x,1/2-y,-z
-x,y,1/2-z
-x,-y,-z
1/2+x,1/2+y,1/2-z
1/2-x,1/2+y,z
x,-y,1/2+z
loop_
_atom_site_type_symbol
_atom_site_label
_atom_site_fract_x
_atom_site_fract_y
_atom_site_fract_z
Si Si1 0.918175 0.699572 0.043558
Si Si2 0.000000 0.633662 0.250000
Si Si3 0.364229 0.756329 0.352324
Si Si4 0.000000 0.002375 0.250000
Si Si5 0.712156 0.566428 0.865047
Si Si6 0.000000 0.489668 0.250000
Si Si7 0.712277 0.939936 0.645052
Si Si8 0.821377 0.344930 0.288347
O O1 0.010381 0.664799 0.130038
O O2 0.849946 0.601208 0.226514
O O3 0.839328 0.675065 0.925867
O O4 0.041077 0.733961 0.979800
O O5 0.779053 0.722625 0.123369
O O6 0.500000 0.743613 0.250000
O O7 0.292054 0.803286 0.302384
O O8 0.138685 0.034178 0.297983
O O9 0.066384 0.967825 0.147908
O O10 0.703851 0.613306 0.793032
O O11 0.860821 0.540077 0.805796
O O12 0.749007 0.575492 0.007618
O O13 0.927666 0.523033 0.147353
O O14 0.000000 0.360968 0.250000
#
# Coordination Sequence:
#
# PCOD9456101 Si02
#       8
#     8   4   8   4   8   4   8   8
#     4  10  21  40  61  88 120 164 196 254 308 363
#     4  11  22  36  63  88 118 156 219 242 306 369
#     4   9  22  41  62  90 126 157 206 245 305 370
#     4  10  24  38  55  84 126 162 197 250 316 364
#     4  11  18  38  58  84 117 152 200 250 300 358
#     4   9  20  32  64  82 106 154 196 242 298 361
#     4  10  21  39  55  87 118 156 200 250 299 372
#     4   9  19  38  60  87 115 150 203 247 289 363
#
# _framework density 19.113668000000001
#
# number of rings (size 3 to 8) (size 9 to 14) (size 15 to 20)
#    0.000    2.462    2.308    0.923    4.308    0.000 
#    4.154    3.077    0.000    0.000    0.000    0.000 
#    0.000    0.000    0.000    0.000    0.000    0.000 
#
# Total GULP energy -289808.477777 kJ/mol
# GULP energy per Si atom -5573.239957 kJ/mol
# Density = 1.907016 g / cm^3
# Si number density = 19.113668 Si / 1000 Ang^3
#
#
#
# Elastic Constant Matrix: (Units=GPa)
#
#
# Indices 1 2 3 4 5 6 
#
# 1 56.4740 47.2656 34.9021 0.0000 0.0000 0.0000
# 2 47.2656 89.0618 42.8781 0.0000 0.0000 0.0000
# 3 34.9021 42.8781 71.2306 0.0000 0.0000 0.0000
# 4 0.0000 0.0000 0.0000 20.7233 0.0000 0.0000
# 5 0.0000 0.0000 0.0000 0.0000 17.5967 0.0000
# 6 0.0000 0.0000 0.0000 0.0000 0.0000 35.2825
#
#
#
# Elastic Compliance Matrix: (Units=1/GPa)
#
#
# Indices 1 2 3 4 5 6 
#
# 1 0.035120 -0.014579 -0.008433 0.000000 0.000000 0.000000
# 2 -0.014579 0.021862 -0.006017 0.000000 0.000000 0.000000
# 3 -0.008433 -0.006017 0.021793 0.000000 0.000000 0.000000
# 4 0.000000 0.000000 0.000000 0.048255 0.000000 0.000000
# 5 0.000000 0.000000 0.000000 0.000000 0.056829 0.000000
# 6 0.000000 0.000000 0.000000 0.000000 0.000000 0.028343
#
#
# Mechanical properties :
#
#
# Convention : Reuss Voigt Hill
#
# Bulk Modulus (GPa) = 48.26548 51.87313 50.06930
# Shear Modulus (GPa) = 18.03988 20.83520 19.43754
#
# Velocity S-wave (km/s) = 3.07550 3.30520 3.19242
# Velocity P-wave (km/s) = 6.15778 6.46251 6.31198
#
# Compressibility (1/GPa) = 0.02071874
#
# Stress axis : x y z
#
# Youngs Moduli (GPa) = 28.47342 45.74189 45.88707
#
# Poissons Ratio (x) = 0.66686 0.38696
# Poissons Ratio (y) = 0.41511 0.27608
# Poissons Ratio (z) = 0.24011 0.27521
#
# Static dielectric constant tensor:
#      x y z
#    x 1.671990 0.000000 0.000000 
#    y 0.000000 1.678490 0.000000 
#    z 0.000000 0.000000 1.658350 
# 
# From -- ./inp_files/10263.got.cif
#   From: 2010.05.17/outbox.cif.g08.bks.cpg/sg60_6_cif.got.tgz:10263.got - 2010.06.03 14:59:27.
