data_PCOD9456636
_publ_section_title
;
Structure prediction by ZEFSAII (Michael W. Deem and Ramdas Pophale) SiO2 
 PCOD9456636
Probable space group: P B C N
;
_chemical_formula_sum "Si O2"
_cell_formula_units_Z 48
_cell_length_a 16.053906
_cell_length_b 18.813423
_cell_length_c 7.744546
_cell_angle_alpha 90.000000
_cell_angle_beta 90.000000
_cell_angle_gamma 90.000000
_cell_volume 2339.076898
_symmetry_space_group_name_H-M "P B C N"
_symmetry_group_IT_number 60
_symmetry_cell_setting 'orthorhombic'
loop_
_space_group_symop_operation_xyz
x,y,z
1/2-x,1/2-y,1/2+z
1/2+x,1/2-y,-z
-x,y,1/2-z
-x,-y,-z
1/2+x,1/2+y,1/2-z
1/2-x,1/2+y,z
x,-y,1/2+z
loop_
_atom_site_type_symbol
_atom_site_label
_atom_site_fract_x
_atom_site_fract_y
_atom_site_fract_z
Si Si1 0.768835 0.099298 0.936149
Si Si2 0.000000 0.975557 0.750000
Si Si3 0.333639 0.542194 0.887487
Si Si4 0.166316 0.176729 0.117649
Si Si5 0.000000 0.745902 0.250000
Si Si6 0.561602 0.658714 0.054499
Si Si7 0.829262 0.697234 0.149551
O O1 0.687413 0.136176 0.008888
O O2 0.849118 0.150187 0.959331
O O3 0.795349 0.030794 0.045827
O O4 0.767333 0.077747 0.739202
O O5 0.979839 0.918554 0.595194
O O6 0.082007 0.025127 0.776045
O O7 0.344670 0.596938 0.044845
O O8 0.172349 0.229549 0.957264
O O9 0.092098 0.188661 0.258102
O O10 0.252594 0.187217 0.220193
O O11 0.991861 0.795249 0.421207
O O12 0.082194 0.698302 0.259545
#
# Coordination Sequence:
#
# PCOD9456636 Si02
#       7
#     8   4   8   8   4   8   8
#     4  10  22  38  58  86 119 160 201 245 309 381
#     4  10  22  37  58  96 134 161 200 248 312 391
#     4  11  22  38  64  91 126 168 204 253 314 384
#     4  11  22  41  63  87 125 167 206 249 312 388
#     4  12  24  39  64  92 128 169 214 268 310 353
#     4  10  22  37  57  90 128 162 196 242 307 382
#     4  11  23  40  61  87 121 163 214 263 311 369
#
# _framework density 20.520917000000001
#
# number of rings (size 3 to 8) (size 9 to 14) (size 15 to 20)
#    0.000    1.333    0.000    8.000    0.000   10.000 
#    0.000    0.000    0.000    4.000    0.000    0.000 
#    0.000    0.000    0.000    0.000    0.000    0.000 
#
# Total GULP energy -268110.801036 kJ/mol
# GULP energy per Si atom -5585.641688 kJ/mol
# Density = 2.047421 g / cm^3
# Si number density = 20.520917 Si / 1000 Ang^3
#
#
#
# Elastic Constant Matrix: (Units=GPa)
#
#
# Indices 1 2 3 4 5 6 
#
# 1 126.9176 53.5065 47.9693 0.0000 0.0000 0.0000
# 2 53.5065 78.0220 21.9502 0.0000 0.0000 0.0000
# 3 47.9693 21.9502 85.6124 0.0000 0.0000 0.0000
# 4 0.0000 0.0000 0.0000 42.3110 0.0000 0.0000
# 5 0.0000 0.0000 0.0000 0.0000 33.6148 0.0000
# 6 0.0000 0.0000 0.0000 0.0000 0.0000 17.8835
#
#
#
# Elastic Compliance Matrix: (Units=1/GPa)
#
#
# Indices 1 2 3 4 5 6 
#
# 1 0.013058 -0.007432 -0.005411 0.000000 0.000000 0.000000
# 2 -0.007432 0.018044 -0.000462 0.000000 0.000000 0.000000
# 3 -0.005411 -0.000462 0.014831 0.000000 0.000000 0.000000
# 4 0.000000 0.000000 0.000000 0.023635 0.000000 0.000000
# 5 0.000000 0.000000 0.000000 0.000000 0.029749 0.000000
# 6 0.000000 0.000000 0.000000 0.000000 0.000000 0.055917
#
#
# Mechanical properties :
#
#
# Convention : Reuss Voigt Hill
#
# Bulk Modulus (GPa) = 51.75396 59.71155 55.73275
# Shear Modulus (GPa) = 26.55573 29.90360 28.22966
#
# Velocity S-wave (km/s) = 3.60124 3.82150 3.71300
# Velocity P-wave (km/s) = 6.52432 6.97373 6.75276
#
# Compressibility (1/GPa) = 0.01932219
#
# Stress axis : x y z
#
# Youngs Moduli (GPa) = 76.58419 55.42036 67.42832
#
# Poissons Ratio (x) = 0.41191 0.36483
# Poissons Ratio (y) = 0.56921 0.03114
# Poissons Ratio (z) = 0.41437 0.02559
#
# Static dielectric constant tensor:
#      x y z
#    x 1.747640 0.000000 0.000000 
#    y 0.000000 1.732250 0.000000 
#    z 0.000000 0.000000 1.831710 
# 
# From -- ./inp_files/6062.got.cif
#   From: 2010.05.17/outbox.cif.g08.bks.cpg/sg60_4_cif.got.tgz:6062.got - 2010.06.03 14:59:27.
