data_PCOD9456770
_publ_section_title
;
Structure prediction by ZEFSAII (Michael W. Deem and Ramdas Pophale) SiO2 
 PCOD9456770
Probable space group: P B C N
;
_chemical_formula_sum "Si O2"
_cell_formula_units_Z 24
_cell_length_a 4.962509
_cell_length_b 22.839770
_cell_length_c 8.912273
_cell_angle_alpha 90.000000
_cell_angle_beta 90.000000
_cell_angle_gamma 90.000000
_cell_volume 1010.139875
_symmetry_space_group_name_H-M "P B C N"
_symmetry_group_IT_number 60
_symmetry_cell_setting 'orthorhombic'
loop_
_space_group_symop_operation_xyz
x,y,z
1/2-x,1/2-y,1/2+z
1/2+x,1/2-y,-z
-x,y,1/2-z
-x,-y,-z
1/2+x,1/2+y,1/2-z
1/2-x,1/2+y,z
x,-y,1/2+z
loop_
_atom_site_type_symbol
_atom_site_label
_atom_site_fract_x
_atom_site_fract_y
_atom_site_fract_z
Si Si1 0.398441 0.777149 0.423309
Si Si2 0.740297 0.530591 0.142256
Si Si3 0.100201 0.407359 0.418940
O O1 0.653877 0.764771 0.530227
O O2 0.500000 0.771126 0.250000
O O3 0.292598 0.843282 0.455150
O O4 0.500000 0.548170 0.250000
O O5 0.708506 0.464725 0.074852
O O6 0.000000 0.524685 0.250000
O O7 0.843925 0.575949 0.019946
O O8 0.000000 0.401909 0.250000
#
# Coordination Sequence:
#
# PCOD9456770 Si02
#       3
#     8   8   8
#     4  11  25  44  66  93 128 172 221 271 323 381
#     4  10  22  39  63  95 127 162 205 257 319 385
#     4   9  22  41  63  90 127 166 207 261 323 382
#
# _framework density 23.759086
#
# number of rings (size 3 to 8) (size 9 to 14) (size 15 to 20)
#    0.000    2.000    0.000    1.000    0.000   26.667 
#    0.000    0.000    0.000    0.000    0.000    0.000 
#    0.000    0.000    0.000    0.000    0.000    0.000 
#
# Total GULP energy -134224.324859 kJ/mol
# GULP energy per Si atom -5592.680202 kJ/mol
# Density = 2.370501 g / cm^3
# Si number density = 23.759086 Si / 1000 Ang^3
#
#
#
# Elastic Constant Matrix: (Units=GPa)
#
#
# Indices 1 2 3 4 5 6 
#
# 1 73.2080 -5.5709 18.0061 0.0000 0.0000 0.0000
# 2 -5.5709 105.2041 37.3607 0.0000 0.0000 0.0000
# 3 18.0061 37.3607 112.9289 0.0000 0.0000 0.0000
# 4 0.0000 0.0000 0.0000 72.9396 0.0000 0.0000
# 5 0.0000 0.0000 0.0000 0.0000 38.6800 0.0000
# 6 0.0000 0.0000 0.0000 0.0000 0.0000 27.0053
#
#
#
# Elastic Compliance Matrix: (Units=1/GPa)
#
#
# Indices 1 2 3 4 5 6 
#
# 1 0.014513 0.001802 -0.002910 0.000000 0.000000 0.000000
# 2 0.001802 0.010995 -0.003925 0.000000 0.000000 0.000000
# 3 -0.002910 -0.003925 0.010618 0.000000 0.000000 0.000000
# 4 0.000000 0.000000 0.000000 0.013710 0.000000 0.000000
# 5 0.000000 0.000000 0.000000 0.000000 0.025853 0.000000
# 6 0.000000 0.000000 0.000000 0.000000 0.000000 0.037030
#
#
# Mechanical properties :
#
#
# Convention : Reuss Voigt Hill
#
# Bulk Modulus (GPa) = 38.37449 43.43696 40.90573
# Shear Modulus (GPa) = 38.03161 43.82799 40.92980
#
# Velocity S-wave (km/s) = 4.00524 4.29964 4.15505
# Velocity P-wave (km/s) = 6.12991 6.55524 6.34614
#
# Compressibility (1/GPa) = 0.02605898
#
# Stress axis : x y z
#
# Youngs Moduli (GPa) = 68.90565 90.95453 94.18372
#
# Poissons Ratio (x) = -0.16390 0.27409
# Poissons Ratio (y) = -0.12416 0.36964
# Poissons Ratio (z) = 0.20052 0.35697
#
# Static dielectric constant tensor:
#      x y z
#    x 1.870340 0.000000 0.000000 
#    y 0.000000 1.905060 0.000000 
#    z 0.000000 0.000000 1.930550 
# 
# From -- ./inp_files/2876.got.cif
#   From: 2010.05.17/outbox.cif.g08.bks.cpg/sg60_2_cif.got.tgz:2876.got - 2010.06.03 14:59:27.
