data_PCOD9456357
_publ_section_title
;
Structure prediction by ZEFSAII (Michael W. Deem and Ramdas Pophale) SiO2 
 PCOD9456357
Probable space group: P B C N
;
_chemical_formula_sum "Si O2"
_cell_formula_units_Z 48
_cell_length_a 7.963358
_cell_length_b 21.088252
_cell_length_c 11.533075
_cell_angle_alpha 90.000000
_cell_angle_beta 90.000000
_cell_angle_gamma 90.000000
_cell_volume 1936.787347
_symmetry_space_group_name_H-M "P B C N"
_symmetry_group_IT_number 60
_symmetry_cell_setting 'orthorhombic'
loop_
_space_group_symop_operation_xyz
x,y,z
1/2-x,1/2-y,1/2+z
1/2+x,1/2-y,-z
-x,y,1/2-z
-x,-y,-z
1/2+x,1/2+y,1/2-z
1/2-x,1/2+y,z
x,-y,1/2+z
loop_
_atom_site_type_symbol
_atom_site_label
_atom_site_fract_x
_atom_site_fract_y
_atom_site_fract_z
Si Si1 0.697882 0.624132 0.395141
Si Si2 0.804383 0.514389 0.969425
Si Si3 0.171958 0.581375 0.324491
Si Si4 0.078350 0.179556 0.908658
Si Si5 0.731899 0.136980 0.806635
Si Si6 0.971133 0.316559 0.506158
O O1 0.729508 0.551253 0.426048
O O2 0.714822 0.623331 0.259098
O O3 0.542072 0.647008 0.466820
O O4 0.838035 0.671196 0.452038
O O5 0.781483 0.566312 0.864919
O O6 0.735463 0.527986 0.100467
O O7 0.000000 0.500000 0.000000
O O8 0.113398 0.624340 0.430282
O O9 0.000000 0.564855 0.250000
O O10 0.221682 0.143455 0.830663
O O11 0.100532 0.253598 0.934583
O O12 0.899066 0.171311 0.850039
O O13 0.580435 0.175029 0.871268
#
# Coordination Sequence:
#
# PCOD9456357 Si02
#       6
#     8   8   8   8   8   8
#     4  11  23  38  68  97 118 178 217 269 328 388
#     4  11  20  41  65  92 127 163 225 274 316 396
#     4   9  19  34  60  92 119 162 207 271 319 369
#     4  11  25  39  66  94 137 172 212 276 336 405
#     4  10  24  43  61  95 132 178 215 276 338 385
#     4  10  21  41  64  92 129 171 221 262 325 396
#
# _framework density 24.78331
#
# number of rings (size 3 to 8) (size 9 to 14) (size 15 to 20)
#    0.000    1.667    5.000    1.000   11.667    1.333 
#    0.000    3.333    0.000    0.000    0.000    0.000 
#    0.000    0.000    0.000    0.000    0.000    0.000 
#
# Total GULP energy -267251.282605 kJ/mol
# GULP energy per Si atom -5567.735054 kJ/mol
# Density = 2.472690 g / cm^3
# Si number density = 24.783310 Si / 1000 Ang^3
#
#
#
# Elastic Constant Matrix: (Units=GPa)
#
#
# Indices 1 2 3 4 5 6 
#
# 1 41.9161 2.3788 11.8202 0.0000 0.0000 0.0000
# 2 2.3788 106.2146 22.5972 0.0000 0.0000 0.0000
# 3 11.8202 22.5972 152.8294 0.0000 0.0000 0.0000
# 4 0.0000 0.0000 0.0000 29.1152 0.0000 0.0000
# 5 0.0000 0.0000 0.0000 0.0000 39.1607 0.0000
# 6 0.0000 0.0000 0.0000 0.0000 0.0000 -96.4773
#
#
#
# Elastic Compliance Matrix: (Units=1/GPa)
#
#
# Indices 1 2 3 4 5 6 
#
# 1 0.024391 -0.000150 -0.001864 0.000000 0.000000 0.000000
# 2 -0.000150 0.009722 -0.001426 0.000000 0.000000 0.000000
# 3 -0.001864 -0.001426 0.006898 0.000000 0.000000 0.000000
# 4 0.000000 0.000000 0.000000 0.034346 0.000000 0.000000
# 5 0.000000 0.000000 0.000000 0.000000 0.025536 0.000000
# 6 0.000000 0.000000 0.000000 0.000000 0.000000 -0.010365
#
#
# Mechanical properties :
#
#
# Convention : Reuss Voigt Hill
#
# Bulk Modulus (GPa) = 29.29837 41.61695 35.45766
# Shear Modulus (GPa) = 45.96216 11.97065 28.96640
#
# Velocity S-wave (km/s) = 4.31113 2.20014 3.42246
# Velocity P-wave (km/s) = 6.05216 4.82524 5.47319
#
# Compressibility (1/GPa) = 0.03413159
#
# Stress axis : x y z
#
# Youngs Moduli (GPa) = 40.99803 102.86368 144.96402
#
# Poissons Ratio (x) = 0.01539 0.27027
# Poissons Ratio (y) = 0.00613 0.20670
# Poissons Ratio (z) = 0.07644 0.14667
#
# Static dielectric constant tensor:
#      x y z
#    x 2.142940 0.000000 0.000000 
#    y 0.000000 2.093550 0.000000 
#    z 0.000000 0.000000 2.078330 
# 
# From -- ./inp_files/10111.got.cif
#   From: 2010.05.17/outbox.cif.g08.bks.cpg/sg60_6_cif.got.tgz:10111.got - 2010.06.03 14:59:27.
