data_PCOD9456151
_publ_section_title
;
Structure prediction by ZEFSAII (Michael W. Deem and Ramdas Pophale) SiO2 
 PCOD9456151
Probable space group: P B C N
;
_chemical_formula_sum "Si O2"
_cell_formula_units_Z 64
_cell_length_a 18.227604
_cell_length_b 19.311048
_cell_length_c 9.937457
_cell_angle_alpha 90.000000
_cell_angle_beta 90.000000
_cell_angle_gamma 90.000000
_cell_volume 3497.926588
_symmetry_space_group_name_H-M "P B C N"
_symmetry_group_IT_number 60
_symmetry_cell_setting 'orthorhombic'
loop_
_space_group_symop_operation_xyz
x,y,z
1/2-x,1/2-y,1/2+z
1/2+x,1/2-y,-z
-x,y,1/2-z
-x,-y,-z
1/2+x,1/2+y,1/2-z
1/2-x,1/2+y,z
x,-y,1/2+z
loop_
_atom_site_type_symbol
_atom_site_label
_atom_site_fract_x
_atom_site_fract_y
_atom_site_fract_z
Si Si1 0.775124 0.390815 0.678488
Si Si2 0.583683 0.182390 0.259831
Si Si3 0.572297 0.301743 0.038215
Si Si4 0.671015 0.497483 0.285113
Si Si5 0.285100 0.357021 0.103582
Si Si6 0.593002 0.261759 0.523873
Si Si7 0.820443 0.763650 0.794194
Si Si8 0.423347 0.534410 0.957929
O O1 0.858943 0.372760 0.705743
O O2 0.741971 0.459027 0.744489
O O3 0.759315 0.390437 0.520037
O O4 0.728473 0.327561 0.742671
O O5 0.500000 0.158615 0.250000
O O6 0.587095 0.252821 0.168187
O O7 0.601943 0.201323 0.413671
O O8 0.492392 0.281700 0.979308
O O9 0.633498 0.285071 0.925958
O O10 0.569454 0.383471 0.069245
O O11 0.691657 0.417244 0.296637
O O12 0.635248 0.523437 0.423054
O O13 0.609164 0.504385 0.171216
O O14 0.357461 0.323483 0.037173
O O15 0.234804 0.298360 0.170104
O O16 0.624829 0.245784 0.671008
O O17 0.500000 0.500000 0.000000
#
# Coordination Sequence:
#
# PCOD9456151 Si02
#       8
#     8   8   8   8   8   8   8   8
#     4  11  22  40  62  90 122 157 213 260 302 370
#     4  10  21  39  63  90 119 158 198 261 315 360
#     4  11  22  39  62  89 125 167 207 245 309 363
#     4  12  25  41  60  87 124 171 208 247 309 359
#     4  11  22  40  61  92 123 162 205 263 303 363
#     4  10  22  36  59  92 124 156 202 253 299 374
#     4  11  22  36  66  88 121 159 210 260 308 350
#     4  12  26  39  57  89 132 176 202 237 296 377
#
# _framework density 18.296554
#
# number of rings (size 3 to 8) (size 9 to 14) (size 15 to 20)
#    0.000    1.000    5.000    2.250    1.750    4.000 
#    0.000    0.000    0.000    2.250    0.000    0.000 
#    0.000    0.000    0.000    0.000    0.000    0.000 
#
# Total GULP energy -357694.286301 kJ/mol
# GULP energy per Si atom -5588.973223 kJ/mol
# Density = 1.825491 g / cm^3
# Si number density = 18.296554 Si / 1000 Ang^3
#
#
#
# Elastic Constant Matrix: (Units=GPa)
#
#
# Indices 1 2 3 4 5 6 
#
# 1 80.6695 26.2127 9.0096 0.0000 0.0000 0.0000
# 2 26.2127 60.0250 -3.3045 0.0000 0.0000 0.0000
# 3 9.0096 -3.3045 51.1725 0.0000 0.0000 0.0000
# 4 0.0000 0.0000 0.0000 17.7537 0.0000 0.0000
# 5 0.0000 0.0000 0.0000 0.0000 26.0857 0.0000
# 6 0.0000 0.0000 0.0000 0.0000 0.0000 24.3823
#
#
#
# Elastic Compliance Matrix: (Units=1/GPa)
#
#
# Indices 1 2 3 4 5 6 
#
# 1 0.014908 -0.006678 -0.003056 0.000000 0.000000 0.000000
# 2 -0.006678 0.019711 0.002449 0.000000 0.000000 0.000000
# 3 -0.003056 0.002449 0.020238 0.000000 0.000000 0.000000
# 4 0.000000 0.000000 0.000000 0.056326 0.000000 0.000000
# 5 0.000000 0.000000 0.000000 0.000000 0.038335 0.000000
# 6 0.000000 0.000000 0.000000 0.000000 0.000000 0.041013
#
#
# Mechanical properties :
#
#
# Convention : Reuss Voigt Hill
#
# Bulk Modulus (GPa) = 24.82302 28.41142 26.61722
# Shear Modulus (GPa) = 22.88005 24.30762 23.59384
#
# Velocity S-wave (km/s) = 3.54009 3.64886 3.59489
# Velocity P-wave (km/s) = 5.50511 5.77185 5.64005
#
# Compressibility (1/GPa) = 0.04028519
#
# Stress axis : x y z
#
# Youngs Moduli (GPa) = 67.07976 50.73324 49.41224
#
# Poissons Ratio (x) = 0.33881 0.15100
# Poissons Ratio (y) = 0.44798 -0.12099
# Poissons Ratio (z) = 0.20499 -0.12423
#
# Static dielectric constant tensor:
#      x y z
#    x 1.620890 0.000000 0.000000 
#    y 0.000000 1.609650 0.000000 
#    z 0.000000 0.000000 1.642450 
# 
# From -- ./inp_files/7010.got.cif
#   From: 2010.05.17/outbox.cif.g08.bks.cpg/sg60_4_cif.got.tgz:7010.got - 2010.06.03 14:59:27.
