data_PCOD9456616
_publ_section_title
;
Structure prediction by ZEFSAII (Michael W. Deem and Ramdas Pophale) SiO2 
 PCOD9456616
Probable space group: P B C N
;
_chemical_formula_sum "Si O2"
_cell_formula_units_Z 48
_cell_length_a 9.459356
_cell_length_b 18.539603
_cell_length_c 14.135553
_cell_angle_alpha 90.000000
_cell_angle_beta 90.000000
_cell_angle_gamma 90.000000
_cell_volume 2478.990165
_symmetry_space_group_name_H-M "P B C N"
_symmetry_group_IT_number 60
_symmetry_cell_setting 'orthorhombic'
loop_
_space_group_symop_operation_xyz
x,y,z
1/2-x,1/2-y,1/2+z
1/2+x,1/2-y,-z
-x,y,1/2-z
-x,-y,-z
1/2+x,1/2+y,1/2-z
1/2-x,1/2+y,z
x,-y,1/2+z
loop_
_atom_site_type_symbol
_atom_site_label
_atom_site_fract_x
_atom_site_fract_y
_atom_site_fract_z
Si Si1 0.867858 0.519301 0.064841
Si Si2 0.745639 0.181451 0.087473
Si Si3 0.500000 0.474551 0.750000
Si Si4 0.000000 0.562571 0.250000
Si Si5 0.233405 0.143526 0.195868
Si Si6 0.590337 0.446882 0.065079
Si Si7 0.061211 0.205480 0.020946
O O1 0.791865 0.598378 0.057720
O O2 0.913538 0.516782 0.174470
O O3 0.752073 0.460359 0.040614
O O4 0.000000 0.500000 0.000000
O O5 0.754363 0.182392 0.201849
O O6 0.899258 0.210304 0.055357
O O7 0.624707 0.229543 0.039716
O O8 0.378312 0.421987 0.709774
O O9 0.436955 0.524818 0.830388
O O10 0.890866 0.610315 0.312496
O O11 0.166599 0.189360 0.110233
O O12 0.500000 0.500000 0.000000
O O13 0.557080 0.365052 0.044802
#
# Coordination Sequence:
#
# PCOD9456616 Si02
#       7
#     8   8   4   4   8   8   8
#     4  11  23  41  66  97 131 167 227 273 324 404
#     4  11  25  44  65 101 128 179 225 263 351 406
#     4  12  20  42  73  93 126 174 226 288 330 412
#     4  10  22  36  61 101 122 166 216 266 330 394
#     4  11  20  44  69  87 130 181 216 264 340 410
#     4  12  22  42  69  98 125 176 229 279 339 395
#     4  12  25  43  69  95 135 175 223 284 334 414
#
# _framework density 19.362722999999999
#
# number of rings (size 3 to 8) (size 9 to 14) (size 15 to 20)
#    0.000    0.667    8.333    1.000    7.000    0.000 
#    3.000    0.000    0.000    0.000    0.000    0.000 
#    0.000    0.000    0.000    0.000    0.000    0.000 
#
# Total GULP energy -267917.558136 kJ/mol
# GULP energy per Si atom -5581.615795 kJ/mol
# Density = 1.931865 g / cm^3
# Si number density = 19.362723 Si / 1000 Ang^3
#
#
#
# Elastic Constant Matrix: (Units=GPa)
#
#
# Indices 1 2 3 4 5 6 
#
# 1 88.9301 -16.1789 7.1472 0.0000 0.0000 0.0000
# 2 -16.1789 41.6278 11.8593 0.0000 0.0000 0.0000
# 3 7.1472 11.8593 65.8979 0.0000 0.0000 0.0000
# 4 0.0000 0.0000 0.0000 30.4056 0.0000 0.0000
# 5 0.0000 0.0000 0.0000 0.0000 38.7848 0.0000
# 6 0.0000 0.0000 0.0000 0.0000 0.0000 34.6452
#
#
#
# Elastic Compliance Matrix: (Units=1/GPa)
#
#
# Indices 1 2 3 4 5 6 
#
# 1 0.012433 0.005498 -0.002338 0.000000 0.000000 0.000000
# 2 0.005498 0.027752 -0.005591 0.000000 0.000000 0.000000
# 3 -0.002338 -0.005591 0.016435 0.000000 0.000000 0.000000
# 4 0.000000 0.000000 0.000000 0.032889 0.000000 0.000000
# 5 0.000000 0.000000 0.000000 0.000000 0.025783 0.000000
# 6 0.000000 0.000000 0.000000 0.000000 0.000000 0.028864
#
#
# Mechanical properties :
#
#
# Convention : Reuss Voigt Hill
#
# Bulk Modulus (GPa) = 19.32038 22.45678 20.88858
# Shear Modulus (GPa) = 30.07165 33.67568 31.87367
#
# Velocity S-wave (km/s) = 3.94518 4.17490 4.06166
# Velocity P-wave (km/s) = 5.54548 5.90447 5.72779
#
# Compressibility (1/GPa) = 0.05175880
#
# Stress axis : x y z
#
# Youngs Moduli (GPa) = 80.43136 36.03336 60.84691
#
# Poissons Ratio (x) = -0.19812 0.14226
# Poissons Ratio (y) = -0.44223 0.34018
# Poissons Ratio (z) = 0.18804 0.20145
#
# Static dielectric constant tensor:
#      x y z
#    x 0.752250 0.000000 0.000000 
#    y 0.000000 1.662280 0.000000 
#    z 0.000000 0.000000 1.668010 
# 
# From -- ./inp_files/15063.got.cif
#   From: 2010.05.17/outbox.cif.g08.bks.cpg/sg60_8_cif.got.tgz:15063.got - 2010.06.03 14:59:27.
