data_PCOD9456258
_publ_section_title
;
Structure prediction by ZEFSAII (Michael W. Deem and Ramdas Pophale) SiO2 
 PCOD9456258
Probable space group: P B C N
;
_chemical_formula_sum "Si O2"
_cell_formula_units_Z 40
_cell_length_a 14.687041
_cell_length_b 11.673707
_cell_length_c 11.807512
_cell_angle_alpha 90.000000
_cell_angle_beta 90.000000
_cell_angle_gamma 90.000000
_cell_volume 2024.424066
_symmetry_space_group_name_H-M "P B C N"
_symmetry_group_IT_number 60
_symmetry_cell_setting 'orthorhombic'
loop_
_space_group_symop_operation_xyz
x,y,z
1/2-x,1/2-y,1/2+z
1/2+x,1/2-y,-z
-x,y,1/2-z
-x,-y,-z
1/2+x,1/2+y,1/2-z
1/2-x,1/2+y,z
x,-y,1/2+z
loop_
_atom_site_type_symbol
_atom_site_label
_atom_site_fract_x
_atom_site_fract_y
_atom_site_fract_z
Si Si1 0.400105 0.334929 0.704332
Si Si2 0.901395 0.453270 0.694027
Si Si3 0.761151 0.021934 0.837789
Si Si4 0.331723 0.806446 0.003991
Si Si5 0.796001 0.670256 0.640504
O O1 0.500000 0.355313 0.750000
O O2 0.350792 0.447135 0.657260
O O3 0.394121 0.238551 0.606254
O O4 0.340653 0.283833 0.807377
O O5 0.824235 0.446408 0.792017
O O6 0.886999 0.353100 0.603289
O O7 0.874263 0.573414 0.631650
O O8 0.000000 0.457701 0.750000
O O9 0.729461 0.089448 0.948293
O O10 0.768837 0.116287 0.737537
O O11 0.263417 0.705536 0.966133
#
# Coordination Sequence:
#
# PCOD9456258 Si02
#       5
#     8   8   8   8   8
#     4  11  22  41  62  93 127 167 210 255 309 377
#     4  10  21  40  63  93 124 157 211 262 305 374
#     4   9  22  39  64  89 129 163 202 263 306 372
#     4  11  21  40  67  91 125 171 206 254 326 358
#     4   9  19  40  63  87 125 164 204 257 304 381
#
# _framework density 19.758706
#
# number of rings (size 3 to 8) (size 9 to 14) (size 15 to 20)
#    1.200    0.800    2.000    1.800    0.000    0.800 
#    3.600    5.000    0.000    0.000    0.000    0.000 
#    0.000    0.000    0.000    0.000    0.000    0.000 
#
# Total GULP energy -222988.342748 kJ/mol
# GULP energy per Si atom -5574.708569 kJ/mol
# Density = 1.971373 g / cm^3
# Si number density = 19.758706 Si / 1000 Ang^3
#
#
#
# Elastic Constant Matrix: (Units=GPa)
#
#
# Indices 1 2 3 4 5 6 
#
# 1 118.9227 58.2392 51.2900 0.0000 0.0000 0.0000
# 2 58.2392 62.0194 16.5206 0.0000 0.0000 0.0000
# 3 51.2900 16.5206 68.7758 0.0000 0.0000 0.0000
# 4 0.0000 0.0000 0.0000 30.4325 0.0000 0.0000
# 5 0.0000 0.0000 0.0000 0.0000 19.4759 0.0000
# 6 0.0000 0.0000 0.0000 0.0000 0.0000 18.4112
#
#
#
# Elastic Compliance Matrix: (Units=1/GPa)
#
#
# Indices 1 2 3 4 5 6 
#
# 1 0.022548 -0.017835 -0.012531 0.000000 0.000000 0.000000
# 2 -0.017835 0.031334 0.005774 0.000000 0.000000 0.000000
# 3 -0.012531 0.005774 0.022498 0.000000 0.000000 0.000000
# 4 0.000000 0.000000 0.000000 0.032860 0.000000 0.000000
# 5 0.000000 0.000000 0.000000 0.000000 0.051345 0.000000
# 6 0.000000 0.000000 0.000000 0.000000 0.000000 0.054315
#
#
# Mechanical properties :
#
#
# Convention : Reuss Voigt Hill
#
# Bulk Modulus (GPa) = 36.77076 55.75747 46.26412
# Shear Modulus (GPa) = 18.30506 21.90849 20.10678
#
# Velocity S-wave (km/s) = 3.04703 3.33348 3.19347
# Velocity P-wave (km/s) = 5.57041 6.56480 6.08794
#
# Compressibility (1/GPa) = 0.02719553
#
# Stress axis : x y z
#
# Youngs Moduli (GPa) = 44.35072 31.91409 44.44857
#
# Poissons Ratio (x) = 0.56920 0.55697
# Poissons Ratio (y) = 0.79101 -0.25665
# Poissons Ratio (z) = 0.55575 -0.18427
#
# Static dielectric constant tensor:
#      x y z
#    x 1.665970 0.000000 0.000000 
#    y 0.000000 1.732040 0.000000 
#    z 0.000000 0.000000 1.690720 
# 
# From -- ./inp_files/11715.got.cif
#   From: 2010.05.17/outbox.cif.g08.bks.cpg/sg60_6_cif.got.tgz:11715.got - 2010.06.03 14:59:27.
