data_PCOD9456896
_publ_section_title
;
Structure prediction by ZEFSAII (Michael W. Deem and Ramdas Pophale) SiO2 
 PCOD9456896
Probable space group: P B C N
;
_chemical_formula_sum "Si O2"
_cell_formula_units_Z 36
_cell_length_a 9.514847
_cell_length_b 7.829497
_cell_length_c 18.628064
_cell_angle_alpha 90.000000
_cell_angle_beta 90.000000
_cell_angle_gamma 90.000000
_cell_volume 1387.724937
_symmetry_space_group_name_H-M "P B C N"
_symmetry_group_IT_number 60
_symmetry_cell_setting 'orthorhombic'
loop_
_space_group_symop_operation_xyz
x,y,z
1/2-x,1/2-y,1/2+z
1/2+x,1/2-y,-z
-x,y,1/2-z
-x,-y,-z
1/2+x,1/2+y,1/2-z
1/2-x,1/2+y,z
x,-y,1/2+z
loop_
_atom_site_type_symbol
_atom_site_label
_atom_site_fract_x
_atom_site_fract_y
_atom_site_fract_z
Si Si1 0.000000 0.791580 0.250000
Si Si2 0.944588 0.369483 0.559543
Si Si3 0.674700 0.062361 0.345179
Si Si4 0.667017 0.537140 0.613784
Si Si5 0.038190 0.198312 0.165922
O O1 0.879658 0.660513 0.275794
O O2 0.906346 0.891989 0.188728
O O3 0.828998 0.477351 0.606875
O O4 0.871478 0.181942 0.554760
O O5 0.000000 0.500000 0.500000
O O6 0.094153 0.327985 0.595775
O O7 0.611693 0.875694 0.351908
O O8 0.839587 0.059819 0.344896
O O9 0.584704 0.356773 0.612551
O O10 0.000000 0.210265 0.250000
#
# Coordination Sequence:
#
# PCOD9456896 Si02
#       5
#     4   8   8   8   8
#     4  10  22  40  72 108 142 184 238 314 390 448
#     4  11  27  49  74 105 148 202 256 306 366 451
#     4  11  25  41  68 103 144 184 243 300 376 450
#     4  11  25  44  75 105 145 191 253 310 381 444
#     4  12  26  42  68 107 147 186 234 306 387 456
#
# _framework density 25.941739999999999
#
# number of rings (size 3 to 8) (size 9 to 14) (size 15 to 20)
#    0.000    0.889    2.222    4.000    9.333    3.556 
#    0.000    3.333    0.000    0.000    0.000    0.000 
#    0.000    0.000    0.000    0.000    0.000    0.000 
#
# Total GULP energy -200728.655466 kJ/mol
# GULP energy per Si atom -5575.795985 kJ/mol
# Density = 2.588270 g / cm^3
# Si number density = 25.941740 Si / 1000 Ang^3
#
#
#
# Elastic Constant Matrix: (Units=GPa)
#
#
# Indices 1 2 3 4 5 6 
#
# 1 165.9749 -3.3472 36.5557 0.0000 0.0000 0.0000
# 2 -3.3472 91.1499 -7.2061 0.0000 0.0000 0.0000
# 3 36.5557 -7.2061 20.7017 0.0000 0.0000 0.0000
# 4 0.0000 0.0000 0.0000 10.1116 0.0000 0.0000
# 5 0.0000 0.0000 0.0000 0.0000 26.6361 0.0000
# 6 0.0000 0.0000 0.0000 0.0000 0.0000 34.9616
#
#
#
# Elastic Compliance Matrix: (Units=1/GPa)
#
#
# Indices 1 2 3 4 5 6 
#
# 1 0.009957 -0.001053 -0.017949 0.000000 0.000000 0.000000
# 2 -0.001053 0.011393 0.005826 0.000000 0.000000 0.000000
# 3 -0.017949 0.005826 0.082028 0.000000 0.000000 0.000000
# 4 0.000000 0.000000 0.000000 0.098896 0.000000 0.000000
# 5 0.000000 0.000000 0.000000 0.000000 0.037543 0.000000
# 6 0.000000 0.000000 0.000000 0.000000 0.000000 0.028603
#
#
# Mechanical properties :
#
#
# Convention : Reuss Voigt Hill
#
# Bulk Modulus (GPa) = 12.98289 36.64792 24.81540
# Shear Modulus (GPa) = 15.60317 31.13014 23.36665
#
# Velocity S-wave (km/s) = 2.45515 3.46786 3.00448
# Velocity P-wave (km/s) = 3.61282 5.49476 4.65000
#
# Compressibility (1/GPa) = 0.07702447
#
# Stress axis : x y z
#
# Youngs Moduli (GPa) = 100.43187 87.77451 12.19099
#
# Poissons Ratio (x) = 0.09246 0.21882
# Poissons Ratio (y) = 0.10579 -0.07102
# Poissons Ratio (z) = 1.80265 -0.51135
#
# Static dielectric constant tensor:
#      x y z
#    x 2.101370 0.000000 0.000000 
#    y 0.000000 2.315040 0.000000 
#    z 0.000000 0.000000 2.304850 
# 
# From -- ./inp_files/21916.got.cif
#   From: 2010.05.17/outbox.cif.g08.bks.cpg/sg60_11_cif.got.tgz:21916.got - 2010.06.03 14:59:27.
