data_PCOD9456992
_publ_section_title
;
Structure prediction by ZEFSAII (Michael W. Deem and Ramdas Pophale) SiO2 
 PCOD9456992
Probable space group: P B C N
;
_chemical_formula_sum "Si O2"
_cell_formula_units_Z 40
_cell_length_a 8.518260
_cell_length_b 9.297063
_cell_length_c 20.867649
_cell_angle_alpha 90.000000
_cell_angle_beta 90.000000
_cell_angle_gamma 90.000000
_cell_volume 1652.609286
_symmetry_space_group_name_H-M "P B C N"
_symmetry_group_IT_number 60
_symmetry_cell_setting 'orthorhombic'
loop_
_space_group_symop_operation_xyz
x,y,z
1/2-x,1/2-y,1/2+z
1/2+x,1/2-y,-z
-x,y,1/2-z
-x,-y,-z
1/2+x,1/2+y,1/2-z
1/2-x,1/2+y,z
x,-y,1/2+z
loop_
_atom_site_type_symbol
_atom_site_label
_atom_site_fract_x
_atom_site_fract_y
_atom_site_fract_z
Si Si1 0.783443 0.442345 0.078376
Si Si2 0.293479 0.812034 0.009853
Si Si3 0.082107 0.045549 0.087364
Si Si4 0.838060 0.558336 0.721529
Si Si5 0.664503 0.322435 0.777511
O O1 0.597749 0.488095 0.085253
O O2 0.851675 0.401212 0.147449
O O3 0.865337 0.577435 0.042765
O O4 0.796688 0.304328 0.033559
O O5 0.189543 0.918993 0.055025
O O6 0.395394 0.697215 0.049864
O O7 0.144780 0.093666 0.157211
O O8 0.725373 0.422643 0.722006
O O9 0.751064 0.670167 0.770074
O O10 0.000000 0.497984 0.750000
O O11 0.500000 0.265733 0.750000
#
# Coordination Sequence:
#
# PCOD9456992 Si02
#       5
#     8   8   8   8   8
#     4  11  23  46  70 103 150 187 231 302 360 422
#     4  10  22  41  70 106 135 193 233 285 353 424
#     4  11  23  46  69 104 148 186 239 296 361 421
#     4  11  25  45  71 106 136 188 241 292 359 428
#     4  11  23  45  72  99 144 184 235 294 357 424
#
# _framework density 24.204148
#
# number of rings (size 3 to 8) (size 9 to 14) (size 15 to 20)
#    0.000    1.200    2.000    4.800    2.800    0.800 
#   18.000    8.000    0.000    0.000    0.000    0.000 
#    0.000    0.000    0.000    0.000    0.000    0.000 
#
# Total GULP energy -222943.955087 kJ/mol
# GULP energy per Si atom -5573.598877 kJ/mol
# Density = 2.414906 g / cm^3
# Si number density = 24.204148 Si / 1000 Ang^3
#
#
#
# Elastic Constant Matrix: (Units=GPa)
#
#
# Indices 1 2 3 4 5 6 
#
# 1 40.6075 20.8619 23.4059 0.0000 0.0000 0.0000
# 2 20.8619 155.9215 53.2714 0.0000 0.0000 0.0000
# 3 23.4059 53.2714 147.7195 0.0000 0.0000 0.0000
# 4 0.0000 0.0000 0.0000 50.8915 0.0000 0.0000
# 5 0.0000 0.0000 0.0000 0.0000 31.6854 0.0000
# 6 0.0000 0.0000 0.0000 0.0000 0.0000 17.1077
#
#
#
# Elastic Compliance Matrix: (Units=1/GPa)
#
#
# Indices 1 2 3 4 5 6 
#
# 1 0.027956 -0.002540 -0.003514 0.000000 0.000000 0.000000
# 2 -0.002540 0.007546 -0.002319 0.000000 0.000000 0.000000
# 3 -0.003514 -0.002319 0.008162 0.000000 0.000000 0.000000
# 4 0.000000 0.000000 0.000000 0.019650 0.000000 0.000000
# 5 0.000000 0.000000 0.000000 0.000000 0.031560 0.000000
# 6 0.000000 0.000000 0.000000 0.000000 0.000000 0.058453
#
#
# Mechanical properties :
#
#
# Convention : Reuss Voigt Hill
#
# Bulk Modulus (GPa) = 37.14769 59.92522 48.53646
# Shear Modulus (GPa) = 27.92596 36.38423 32.15510
#
# Velocity S-wave (km/s) = 3.40040 3.88135 3.64881
# Velocity P-wave (km/s) = 5.54959 6.70063 6.15209
#
# Compressibility (1/GPa) = 0.02691957
#
# Stress axis : x y z
#
# Youngs Moduli (GPa) = 35.77037 132.52920 122.51192
#
# Poissons Ratio (x) = 0.33663 0.43046
# Poissons Ratio (y) = 0.09086 0.28406
# Poissons Ratio (z) = 0.12568 0.30729
#
# Static dielectric constant tensor:
#      x y z
#    x 2.016430 0.000000 0.000000 
#    y 0.000000 1.908970 0.000000 
#    z 0.000000 0.000000 2.373570 
# 
# From -- ./inp_files/23821.got.cif
#   From: 2010.05.17/outbox.cif.g08.bks.cpg/sg60_12_cif.got.tgz:23821.got - 2010.06.03 14:59:27.
