data_PCOD9456730
_publ_section_title
;
Structure prediction by ZEFSAII (Michael W. Deem and Ramdas Pophale) SiO2 
 PCOD9456730
Probable space group: P B C N
;
_chemical_formula_sum "Si O2"
_cell_formula_units_Z 40
_cell_length_a 10.968212
_cell_length_b 19.358427
_cell_length_c 7.858785
_cell_angle_alpha 90.000000
_cell_angle_beta 90.000000
_cell_angle_gamma 90.000000
_cell_volume 1668.634846
_symmetry_space_group_name_H-M "P B C N"
_symmetry_group_IT_number 60
_symmetry_cell_setting 'orthorhombic'
loop_
_space_group_symop_operation_xyz
x,y,z
1/2-x,1/2-y,1/2+z
1/2+x,1/2-y,-z
-x,y,1/2-z
-x,-y,-z
1/2+x,1/2+y,1/2-z
1/2-x,1/2+y,z
x,-y,1/2+z
loop_
_atom_site_type_symbol
_atom_site_label
_atom_site_fract_x
_atom_site_fract_y
_atom_site_fract_z
Si Si1 0.310490 0.200541 0.756105
Si Si2 0.000000 0.409243 0.250000
Si Si3 0.073616 0.790212 0.490684
Si Si4 0.000000 0.323679 0.750000
Si Si5 0.946567 0.929211 0.565736
Si Si6 0.676384 0.095080 0.031810
O O1 0.402826 0.143491 0.834439
O O2 0.194606 0.208993 0.873304
O O3 0.279994 0.160670 0.580615
O O4 0.390750 0.125692 0.304169
O O5 0.920073 0.442199 0.402136
O O6 0.122050 0.768391 0.680270
O O7 0.991159 0.729309 0.408757
O O8 0.999934 0.861284 0.472785
O O9 0.801529 0.941223 0.571766
O O10 0.000000 0.918316 0.750000
O O11 0.000000 0.000000 0.500000
#
# Coordination Sequence:
#
# PCOD9456730 Si02
#       6
#     8   4   8   4   8   8
#     4   9  22  36  69 107 147 187 229 313 384 426
#     4   8  20  38  62 102 150 172 240 290 384 426
#     4  11  24  39  72 109 153 187 245 305 375 444
#     4  10  22  38  72 112 146 182 236 314 394 414
#     4  12  31  51  73 104 149 207 254 292 360 456
#     4   9  22  44  70 109 143 190 244 306 366 446
#
# _framework density 23.971689999999999
#
# number of rings (size 3 to 8) (size 9 to 14) (size 15 to 20)
#    1.200    0.800    0.000    1.200   14.000    0.000 
#    0.000    0.000    0.000   10.800    0.000    0.000 
#    0.000    0.000    0.000    0.000    0.000    0.000 
#
# Total GULP energy -222970.222291 kJ/mol
# GULP energy per Si atom -5574.255557 kJ/mol
# Density = 2.391713 g / cm^3
# Si number density = 23.971690 Si / 1000 Ang^3
#
#
#
# Elastic Constant Matrix: (Units=GPa)
#
#
# Indices 1 2 3 4 5 6 
#
# 1 187.5922 50.4250 67.9585 0.0000 0.0000 0.0000
# 2 50.4250 64.9662 19.0483 0.0000 0.0000 0.0000
# 3 67.9585 19.0483 74.0549 0.0000 0.0000 0.0000
# 4 0.0000 0.0000 0.0000 72.0427 0.0000 0.0000
# 5 0.0000 0.0000 0.0000 0.0000 51.5292 0.0000
# 6 0.0000 0.0000 0.0000 0.0000 0.0000 54.8474
#
#
#
# Elastic Compliance Matrix: (Units=1/GPa)
#
#
# Indices 1 2 3 4 5 6 
#
# 1 0.009332 -0.005118 -0.007247 0.000000 0.000000 0.000000
# 2 -0.005118 0.019455 -0.000307 0.000000 0.000000 0.000000
# 3 -0.007247 -0.000307 0.020233 0.000000 0.000000 0.000000
# 4 0.000000 0.000000 0.000000 0.013881 0.000000 0.000000
# 5 0.000000 0.000000 0.000000 0.000000 0.019406 0.000000
# 6 0.000000 0.000000 0.000000 0.000000 0.000000 0.018232
#
#
# Mechanical properties :
#
#
# Convention : Reuss Voigt Hill
#
# Bulk Modulus (GPa) = 42.23899 66.83079 54.53489
# Shear Modulus (GPa) = 37.37555 48.29596 42.83575
#
# Velocity S-wave (km/s) = 3.95290 4.49342 4.23180
# Velocity P-wave (km/s) = 6.20423 7.40680 6.83202
#
# Compressibility (1/GPa) = 0.02367481
#
# Stress axis : x y z
#
# Youngs Moduli (GPa) = 107.15894 51.39952 49.42391
#
# Poissons Ratio (x) = 0.26308 0.35818
# Poissons Ratio (y) = 0.54847 0.01519
# Poissons Ratio (z) = 0.77660 0.01580
#
# Static dielectric constant tensor:
#      x y z
#    x 1.959150 0.000000 0.000000 
#    y 0.000000 1.287050 0.000000 
#    z 0.000000 0.000000 1.998010 
# 
# From -- ./inp_files/4786.got.cif
#   From: 2010.05.17/outbox.cif.g08.bks.cpg/sg60_3_cif.got.tgz:4786.got - 2010.06.03 14:59:27.
