data_PCOD9456505
_publ_section_title
;
Structure prediction by ZEFSAII (Michael W. Deem and Ramdas Pophale) SiO2 
 PCOD9456505
Probable space group: P B C N
;
_chemical_formula_sum "Si O2"
_cell_formula_units_Z 40
_cell_length_a 9.118369
_cell_length_b 10.360832
_cell_length_c 18.564415
_cell_angle_alpha 90.000000
_cell_angle_beta 90.000000
_cell_angle_gamma 90.000000
_cell_volume 1753.852488
_symmetry_space_group_name_H-M "P B C N"
_symmetry_group_IT_number 60
_symmetry_cell_setting 'orthorhombic'
loop_
_space_group_symop_operation_xyz
x,y,z
1/2-x,1/2-y,1/2+z
1/2+x,1/2-y,-z
-x,y,1/2-z
-x,-y,-z
1/2+x,1/2+y,1/2-z
1/2-x,1/2+y,z
x,-y,1/2+z
loop_
_atom_site_type_symbol
_atom_site_label
_atom_site_fract_x
_atom_site_fract_y
_atom_site_fract_z
Si Si1 0.313737 0.052371 0.310606
Si Si2 0.809382 0.243432 0.445627
Si Si3 0.078001 0.483842 0.580326
Si Si4 0.158718 0.714282 0.776793
Si Si5 0.628630 0.670677 0.079438
O O1 0.458360 0.052342 0.359140
O O2 0.284001 0.181480 0.264766
O O3 0.178819 0.054393 0.368545
O O4 0.309499 0.931403 0.258412
O O5 0.692856 0.134809 0.422439
O O6 0.844360 0.377330 0.403459
O O7 0.745848 0.301303 0.519053
O O8 0.965683 0.171002 0.450783
O O9 0.000000 0.500000 0.500000
O O10 0.143419 0.712369 0.863753
O O11 0.000000 0.758731 0.750000
#
# Coordination Sequence:
#
# PCOD9456505 Si02
#       5
#     8   8   8   8   8
#     4  10  21  43  69  92 137 170 228 286 330 396
#     4  12  22  38  67  97 145 177 222 267 347 415
#     4  12  21  40  57  99 136 180 217 271 335 408
#     4  10  22  45  68  92 131 175 225 280 337 391
#     4  10  22  38  68 100 134 180 219 275 340 405
#
# _framework density 22.806934999999999
#
# number of rings (size 3 to 8) (size 9 to 14) (size 15 to 20)
#    1.200    0.000    6.000    0.000    0.000    2.400 
#    3.600    1.000    0.000    0.000    0.000    0.000 
#    0.000    0.000    0.000    0.000    0.000    0.000 
#
# Total GULP energy -222936.929143 kJ/mol
# GULP energy per Si atom -5573.423229 kJ/mol
# Density = 2.275503 g / cm^3
# Si number density = 22.806935 Si / 1000 Ang^3
#
#
#
# Elastic Constant Matrix: (Units=GPa)
#
#
# Indices 1 2 3 4 5 6 
#
# 1 117.6618 78.2681 40.2284 0.0000 0.0000 0.0000
# 2 78.2681 132.4696 27.7764 0.0000 0.0000 0.0000
# 3 40.2284 27.7764 64.4168 0.0000 0.0000 0.0000
# 4 0.0000 0.0000 0.0000 -16.6583 0.0000 0.0000
# 5 0.0000 0.0000 0.0000 0.0000 41.4647 0.0000
# 6 0.0000 0.0000 0.0000 0.0000 0.0000 49.8398
#
#
#
# Elastic Compliance Matrix: (Units=1/GPa)
#
#
# Indices 1 2 3 4 5 6 
#
# 1 0.016198 -0.008190 -0.006584 0.000000 0.000000 0.000000
# 2 -0.008190 0.012440 -0.000250 0.000000 0.000000 0.000000
# 3 -0.006584 -0.000250 0.019743 0.000000 0.000000 0.000000
# 4 0.000000 0.000000 0.000000 -0.060030 0.000000 0.000000
# 5 0.000000 0.000000 0.000000 0.000000 0.024117 0.000000
# 6 0.000000 0.000000 0.000000 0.000000 0.000000 0.020064
#
#
# Mechanical properties :
#
#
# Convention : Reuss Voigt Hill
#
# Bulk Modulus (GPa) = 54.54290 67.45488 60.99889
# Shear Modulus (GPa) = 72.79024 26.14761 49.46893
#
# Velocity S-wave (km/s) = 5.65554 3.38964 4.66234
# Velocity P-wave (km/s) = 8.16173 6.70524 7.46907
#
# Compressibility (1/GPa) = 0.01833419
#
# Stress axis : x y z
#
# Youngs Moduli (GPa) = 61.73677 80.38566 50.64987
#
# Poissons Ratio (x) = 0.65833 0.33349
# Poissons Ratio (y) = 0.50561 0.01264
# Poissons Ratio (z) = 0.40649 0.02007
#
# Static dielectric constant tensor:
#      x y z
#    x 1.854830 0.000000 0.000000 
#    y 0.000000 1.936310 0.000000 
#    z 0.000000 0.000000 1.921350 
# 
# From -- ./inp_files/22006.got.cif
#   From: 2010.05.17/outbox.cif.g08.bks.cpg/sg60_12_cif.got.tgz:22006.got - 2010.06.03 14:59:27.
