data_PCOD9456402
_publ_section_title
;
Structure prediction by ZEFSAII (Michael W. Deem and Ramdas Pophale) SiO2 
 PCOD9456402
Probable space group: P B C N
;
_chemical_formula_sum "Si O2"
_cell_formula_units_Z 44
_cell_length_a 13.356050
_cell_length_b 10.398264
_cell_length_c 14.323848
_cell_angle_alpha 90.000000
_cell_angle_beta 90.000000
_cell_angle_gamma 90.000000
_cell_volume 1989.292199
_symmetry_space_group_name_H-M "P B C N"
_symmetry_group_IT_number 60
_symmetry_cell_setting 'orthorhombic'
loop_
_space_group_symop_operation_xyz
x,y,z
1/2-x,1/2-y,1/2+z
1/2+x,1/2-y,-z
-x,y,1/2-z
-x,-y,-z
1/2+x,1/2+y,1/2-z
1/2-x,1/2+y,z
x,-y,1/2+z
loop_
_atom_site_type_symbol
_atom_site_label
_atom_site_fract_x
_atom_site_fract_y
_atom_site_fract_z
Si Si1 0.229539 0.228756 0.549848
Si Si2 0.031007 0.856872 0.970634
Si Si3 0.790870 0.513831 0.338165
Si Si4 0.000000 0.404845 0.750000
Si Si5 0.879436 0.246542 0.593259
Si Si6 0.894860 0.016541 0.199996
O O1 0.114910 0.187491 0.541929
O O2 0.228162 0.376792 0.582636
O O3 0.275315 0.203354 0.446830
O O4 0.276314 0.129171 0.622701
O O5 0.071796 0.866168 0.866567
O O6 0.937897 0.768011 0.994589
O O7 0.000000 0.000000 0.000000
O O8 0.903153 0.526651 0.296844
O O9 0.699945 0.540918 0.265762
O O10 0.056199 0.325266 0.832298
O O11 0.864888 0.106315 0.637558
O O12 0.000000 0.980792 0.250000
#
# Coordination Sequence:
#
# PCOD9456402 Si02
#       6
#     8   8   8   4   8   8
#     4  12  25  47  71 103 143 187 242 291 353 439
#     4  10  21  41  68  97 133 184 235 280 345 424
#     4  12  26  46  71 107 146 188 239 295 362 430
#     4  12  24  44  66 100 154 192 222 298 374 424
#     4  11  22  43  70 101 143 186 233 291 366 425
#     4  11  21  42  75 106 136 187 247 297 345 433
#
# _framework density 22.118418999999999
#
# number of rings (size 3 to 8) (size 9 to 14) (size 15 to 20)
#    0.000    0.727    2.727    7.636    0.000    0.727 
#    8.182    0.000    0.000    0.000    0.000    0.000 
#    0.000    0.000    0.000    0.000    0.000    0.000 
#
# Total GULP energy -245536.490697 kJ/mol
# GULP energy per Si atom -5580.374789 kJ/mol
# Density = 2.206808 g / cm^3
# Si number density = 22.118419 Si / 1000 Ang^3
#
#
#
# Elastic Constant Matrix: (Units=GPa)
#
#
# Indices 1 2 3 4 5 6 
#
# 1 90.9620 6.5451 16.8341 0.0000 0.0000 0.0000
# 2 6.5451 23.1400 -4.1318 0.0000 0.0000 0.0000
# 3 16.8341 -4.1318 63.7257 0.0000 0.0000 0.0000
# 4 0.0000 0.0000 0.0000 21.8318 0.0000 0.0000
# 5 0.0000 0.0000 0.0000 0.0000 40.0583 0.0000
# 6 0.0000 0.0000 0.0000 0.0000 0.0000 13.1782
#
#
#
# Elastic Compliance Matrix: (Units=1/GPa)
#
#
# Indices 1 2 3 4 5 6 
#
# 1 0.011910 -0.003976 -0.003404 0.000000 0.000000 0.000000
# 2 -0.003976 0.045049 0.003971 0.000000 0.000000 0.000000
# 3 -0.003404 0.003971 0.016849 0.000000 0.000000 0.000000
# 4 0.000000 0.000000 0.000000 0.045805 0.000000 0.000000
# 5 0.000000 0.000000 0.000000 0.000000 0.024964 0.000000
# 6 0.000000 0.000000 0.000000 0.000000 0.000000 0.075883
#
#
# Mechanical properties :
#
#
# Convention : Reuss Voigt Hill
#
# Bulk Modulus (GPa) = 14.92770 24.03583 19.48176
# Shear Modulus (GPa) = 20.03150 25.58568 22.80859
#
# Velocity S-wave (km/s) = 3.01266 3.40481 3.21472
# Velocity P-wave (km/s) = 4.34340 5.13297 4.75461
#
# Compressibility (1/GPa) = 0.06698954
#
# Stress axis : x y z
#
# Youngs Moduli (GPa) = 83.96524 22.19803 59.35084
#
# Poissons Ratio (x) = 0.08827 0.20203
# Poissons Ratio (y) = 0.33388 -0.23570
# Poissons Ratio (z) = 0.28581 -0.08816
#
# Static dielectric constant tensor:
#      x y z
#    x 1.840550 0.000000 0.000000 
#    y 0.000000 1.767500 0.000000 
#    z 0.000000 0.000000 1.839900 
# 
# From -- ./inp_files/16718.got.cif
#   From: 2010.05.17/outbox.cif.g08.bks.cpg/sg60_9_cif.got.tgz:16718.got - 2010.06.03 14:59:27.
