data_PCOD9456573
_publ_section_title
;
Structure prediction by ZEFSAII (Michael W. Deem and Ramdas Pophale) SiO2 
 PCOD9456573
Probable space group: P B C N
;
_chemical_formula_sum "Si O2"
_cell_formula_units_Z 28
_cell_length_a 5.314320
_cell_length_b 21.317988
_cell_length_c 10.318154
_cell_angle_alpha 90.000000
_cell_angle_beta 90.000000
_cell_angle_gamma 90.000000
_cell_volume 1168.949961
_symmetry_space_group_name_H-M "P B C N"
_symmetry_group_IT_number 60
_symmetry_cell_setting 'orthorhombic'
loop_
_space_group_symop_operation_xyz
x,y,z
1/2-x,1/2-y,1/2+z
1/2+x,1/2-y,-z
-x,y,1/2-z
-x,-y,-z
1/2+x,1/2+y,1/2-z
1/2-x,1/2+y,z
x,-y,1/2+z
loop_
_atom_site_type_symbol
_atom_site_label
_atom_site_fract_x
_atom_site_fract_y
_atom_site_fract_z
Si Si1 0.500000 0.150887 0.750000
Si Si2 0.647226 0.413394 0.883926
Si Si3 0.246824 0.211645 0.975429
Si Si4 0.809107 0.047393 0.873465
O O1 0.298257 0.191193 0.827483
O O2 0.618579 0.103436 0.852094
O O3 0.500000 0.403292 0.750000
O O4 0.809143 0.477606 0.874070
O O5 0.768516 0.349182 0.931933
O O6 0.454408 0.434607 0.996422
O O7 0.471005 0.259416 0.008823
O O8 0.000000 0.047906 0.750000
#
# Coordination Sequence:
#
# PCOD9456573 Si02
#       4
#     4   8   8   8
#     4  12  26  50  78 106 150 206 256 320 388 456
#     4  10  23  48  77 115 151 191 255 322 380 455
#     4  12  29  52  76 110 157 210 258 310 374 469
#     4  10  21  47  79 111 148 193 249 324 396 444
#
# _framework density 23.953119999999998
#
# number of rings (size 3 to 8) (size 9 to 14) (size 15 to 20)
#    0.000    1.143    2.857    1.714    2.000    1.143 
#   15.429    0.000    0.000    0.000    0.000    0.000 
#    0.000    0.000    0.000    0.000    0.000    0.000 
#
# Total GULP energy -156749.376291 kJ/mol
# GULP energy per Si atom -5598.192010 kJ/mol
# Density = 2.389860 g / cm^3
# Si number density = 23.953120 Si / 1000 Ang^3
#
#
#
# Elastic Constant Matrix: (Units=GPa)
#
#
# Indices 1 2 3 4 5 6 
#
# 1 32.6154 17.2781 13.1242 0.0000 0.0000 0.0000
# 2 17.2781 120.8755 32.8329 0.0000 0.0000 0.0000
# 3 13.1242 32.8329 143.0891 0.0000 0.0000 0.0000
# 4 0.0000 0.0000 0.0000 36.9773 0.0000 0.0000
# 5 0.0000 0.0000 0.0000 0.0000 47.7241 0.0000
# 6 0.0000 0.0000 0.0000 0.0000 0.0000 34.0363
#
#
#
# Elastic Compliance Matrix: (Units=1/GPa)
#
#
# Indices 1 2 3 4 5 6 
#
# 1 0.033766 -0.004250 -0.002122 0.000000 0.000000 0.000000
# 2 -0.004250 0.009358 -0.001757 0.000000 0.000000 0.000000
# 3 -0.002122 -0.001757 0.007587 0.000000 0.000000 0.000000
# 4 0.000000 0.000000 0.000000 0.027044 0.000000 0.000000
# 5 0.000000 0.000000 0.000000 0.000000 0.020954 0.000000
# 6 0.000000 0.000000 0.000000 0.000000 0.000000 0.029380
#
#
# Mechanical properties :
#
#
# Convention : Reuss Voigt Hill
#
# Bulk Modulus (GPa) = 29.02646 47.00561 38.01604
# Shear Modulus (GPa) = 32.08618 39.30385 35.69502
#
# Velocity S-wave (km/s) = 3.66394 4.05515 3.86450
# Velocity P-wave (km/s) = 5.48121 6.44921 5.98481
#
# Compressibility (1/GPa) = 0.03445132
#
# Stress axis : x y z
#
# Youngs Moduli (GPa) = 29.61589 106.86209 131.81291
#
# Poissons Ratio (x) = 0.45418 0.27968
# Poissons Ratio (y) = 0.12587 0.23165
# Poissons Ratio (z) = 0.06284 0.18780
#
# Static dielectric constant tensor:
#      x y z
#    x 2.121720 0.000000 0.000000 
#    y 0.000000 1.959180 0.000000 
#    z 0.000000 0.000000 1.960820 
# 
# From -- ./inp_files/8739.got.cif
#   From: 2010.05.17/outbox.cif.g08.bks.cpg/sg60_5_cif.got.tgz:8739.got - 2010.06.03 14:59:27.
