data_PCOD9456797
_publ_section_title
;
Structure prediction by ZEFSAII (Michael W. Deem and Ramdas Pophale) SiO2 
 PCOD9456797
Probable space group: P B C N
;
_chemical_formula_sum "Si O2"
_cell_formula_units_Z 28
_cell_length_a 11.251011
_cell_length_b 14.694444
_cell_length_c 7.720829
_cell_angle_alpha 90.000000
_cell_angle_beta 90.000000
_cell_angle_gamma 90.000000
_cell_volume 1276.464207
_symmetry_space_group_name_H-M "P B C N"
_symmetry_group_IT_number 60
_symmetry_cell_setting 'orthorhombic'
loop_
_space_group_symop_operation_xyz
x,y,z
1/2-x,1/2-y,1/2+z
1/2+x,1/2-y,-z
-x,y,1/2-z
-x,-y,-z
1/2+x,1/2+y,1/2-z
1/2-x,1/2+y,z
x,-y,1/2+z
loop_
_atom_site_type_symbol
_atom_site_label
_atom_site_fract_x
_atom_site_fract_y
_atom_site_fract_z
Si Si1 0.599915 0.188499 0.441903
Si Si2 0.852494 0.597414 0.103745
Si Si3 0.741429 0.903278 0.226307
Si Si4 0.500000 0.353575 0.250000
O O1 0.490380 0.116476 0.443564
O O2 0.671247 0.163122 0.266926
O O3 0.680567 0.173092 0.607081
O O4 0.539870 0.285426 0.405095
O O5 0.821162 0.497093 0.170303
O O6 0.782432 0.614964 0.927677
O O7 0.882702 0.907984 0.198142
#
# Coordination Sequence:
#
# PCOD9456797 Si02
#       4
#     8   8   8   4
#     4  10  24  44  62  98 130 174 227 260 329 393
#     4  10  22  39  70  94 124 171 223 270 310 392
#     4  12  22  43  67  97 132 168 222 273 328 383
#     4  10  28  40  64 102 134 170 218 268 344 398
#
# _framework density 21.935593000000001
#
# number of rings (size 3 to 8) (size 9 to 14) (size 15 to 20)
#    0.000    1.714    2.857    1.714   12.000    1.143 
#    0.000    0.000    0.000    0.000    0.000    0.000 
#    0.000    0.000    0.000    0.000    0.000    0.000 
#
# Total GULP energy -156463.577556 kJ/mol
# GULP energy per Si atom -5587.984913 kJ/mol
# Density = 2.188567 g / cm^3
# Si number density = 21.935593 Si / 1000 Ang^3
#
#
#
# Elastic Constant Matrix: (Units=GPa)
#
#
# Indices 1 2 3 4 5 6 
#
# 1 120.5283 39.2114 21.4991 0.0000 0.0000 0.0000
# 2 39.2114 51.9025 14.2380 0.0000 0.0000 0.0000
# 3 21.4991 14.2380 111.0090 0.0000 0.0000 0.0000
# 4 0.0000 0.0000 0.0000 4.8692 0.0000 0.0000
# 5 0.0000 0.0000 0.0000 0.0000 19.3905 0.0000
# 6 0.0000 0.0000 0.0000 0.0000 0.0000 -5.2066
#
#
#
# Elastic Compliance Matrix: (Units=1/GPa)
#
#
# Indices 1 2 3 4 5 6 
#
# 1 0.011132 -0.008104 -0.001117 0.000000 0.000000 0.000000
# 2 -0.008104 0.025869 -0.001748 0.000000 0.000000 0.000000
# 3 -0.001117 -0.001748 0.009449 0.000000 0.000000 0.000000
# 4 0.000000 0.000000 0.000000 0.205374 0.000000 0.000000
# 5 0.000000 0.000000 0.000000 0.000000 0.051572 0.000000
# 6 0.000000 0.000000 0.000000 0.000000 0.000000 -0.192064
#
#
# Mechanical properties :
#
#
# Convention : Reuss Voigt Hill
#
# Bulk Modulus (GPa) = 40.79631 48.14856 44.47243
# Shear Modulus (GPa) = 35.35054 17.71003 26.53029
#
# Velocity S-wave (km/s) = 4.01878 2.84450 3.48151
# Velocity P-wave (km/s) = 6.33820 5.72589 6.03981
#
# Compressibility (1/GPa) = 0.02451202
#
# Stress axis : x y z
#
# Youngs Moduli (GPa) = 89.82727 38.65631 105.83370
#
# Poissons Ratio (x) = 0.31327 0.11817
# Poissons Ratio (y) = 0.72797 0.18504
# Poissons Ratio (z) = 0.10030 0.06759
#
# Static dielectric constant tensor:
#      x y z
#    x 1.805360 0.000000 0.000000 
#    y 0.000000 1.861760 0.000000 
#    z 0.000000 0.000000 1.795540 
# 
# From -- ./inp_files/3486.got.cif
#   From: 2010.05.17/outbox.cif.g08.bks.cpg/sg60_2_cif.got.tgz:3486.got - 2010.06.03 14:59:27.
