data_PCOD9456401
_publ_section_title
;
Structure prediction by ZEFSAII (Michael W. Deem and Ramdas Pophale) SiO2 
 PCOD9456401
Probable space group: P B C N
;
_chemical_formula_sum "Si O2"
_cell_formula_units_Z 60
_cell_length_a 22.253210
_cell_length_b 8.614001
_cell_length_c 14.036318
_cell_angle_alpha 90.000000
_cell_angle_beta 90.000000
_cell_angle_gamma 90.000000
_cell_volume 2690.610192
_symmetry_space_group_name_H-M "P B C N"
_symmetry_group_IT_number 60
_symmetry_cell_setting 'orthorhombic'
loop_
_space_group_symop_operation_xyz
x,y,z
1/2-x,1/2-y,1/2+z
1/2+x,1/2-y,-z
-x,y,1/2-z
-x,-y,-z
1/2+x,1/2+y,1/2-z
1/2-x,1/2+y,z
x,-y,1/2+z
loop_
_atom_site_type_symbol
_atom_site_label
_atom_site_fract_x
_atom_site_fract_y
_atom_site_fract_z
Si Si1 0.281308 0.274610 0.065534
Si Si2 0.682143 0.420163 0.030083
Si Si3 0.668993 0.974010 0.367147
Si Si4 0.896205 0.057851 0.702701
Si Si5 0.500000 0.802811 0.750000
Si Si6 0.023910 0.138808 0.434396
Si Si7 0.104096 0.190380 0.143350
Si Si8 0.552629 0.080498 0.443227
O O1 0.230604 0.382346 0.114695
O O2 0.313352 0.157577 0.141507
O O3 0.246015 0.158357 0.993963
O O4 0.316863 0.400268 0.002909
O O5 0.660359 0.397685 0.137836
O O6 0.635965 0.334966 0.958756
O O7 0.632512 0.843161 0.306068
O O8 0.616764 0.997146 0.447079
O O9 0.930912 0.928219 0.641813
O O10 0.882251 0.968439 0.800002
O O11 0.944896 0.194091 0.715135
O O12 0.470987 0.898558 0.664095
O O13 0.055902 0.254423 0.506227
O O14 0.966367 0.206301 0.378069
O O15 0.000000 0.000000 0.500000
O O16 0.500000 0.000000 0.500000
#
# Coordination Sequence:
#
# PCOD9456401 Si02
#       8
#     8   8   8   8   4   8   8   8
#     4   9  21  42  69  95 124 179 234 288 342 400
#     4  10  21  41  68  90 128 173 230 285 342 400
#     4  10  22  41  67  97 131 174 230 285 338 411
#     4  12  23  38  68  98 138 178 227 277 336 437
#     4  12  26  40  64 110 140 188 222 278 358 438
#     4  12  20  39  63  97 134 181 217 262 345 421
#     4  11  21  38  63  96 133 174 224 273 342 413
#     4  12  25  42  70 103 146 183 224 288 359 419
#
# _framework density 22.299773999999999
#
# number of rings (size 3 to 8) (size 9 to 14) (size 15 to 20)
#    0.000    1.067    5.333    0.800    3.733    1.067 
#    0.000    5.333    0.000    0.000    0.000    0.000 
#    0.000    0.000    0.000    0.000    0.000    0.000 
#
# Total GULP energy -334547.727171 kJ/mol
# GULP energy per Si atom -5575.795453 kJ/mol
# Density = 2.224902 g / cm^3
# Si number density = 22.299774 Si / 1000 Ang^3
#
#
#
# Elastic Constant Matrix: (Units=GPa)
#
#
# Indices 1 2 3 4 5 6 
#
# 1 56.0016 24.8199 4.8465 0.0000 0.0000 0.0000
# 2 24.8199 119.5911 10.8132 0.0000 0.0000 0.0000
# 3 4.8465 10.8132 68.7644 0.0000 0.0000 0.0000
# 4 0.0000 0.0000 0.0000 13.0431 0.0000 0.0000
# 5 0.0000 0.0000 0.0000 0.0000 19.3971 0.0000
# 6 0.0000 0.0000 0.0000 0.0000 0.0000 57.8441
#
#
#
# Elastic Compliance Matrix: (Units=1/GPa)
#
#
# Indices 1 2 3 4 5 6 
#
# 1 0.019704 -0.004021 -0.000756 0.000000 0.000000 0.000000
# 2 -0.004021 0.009303 -0.001179 0.000000 0.000000 0.000000
# 3 -0.000756 -0.001179 0.014781 0.000000 0.000000 0.000000
# 4 0.000000 0.000000 0.000000 0.076669 0.000000 0.000000
# 5 0.000000 0.000000 0.000000 0.000000 0.051554 0.000000
# 6 0.000000 0.000000 0.000000 0.000000 0.000000 0.017288
#
#
# Mechanical properties :
#
#
# Convention : Reuss Voigt Hill
#
# Bulk Modulus (GPa) = 31.37303 36.14627 33.75965
# Shear Modulus (GPa) = 23.60293 31.64868 27.62581
#
# Velocity S-wave (km/s) = 3.25689 3.77136 3.52353
# Velocity P-wave (km/s) = 5.31436 5.93369 5.63255
#
# Compressibility (1/GPa) = 0.03187451
#
# Stress axis : x y z
#
# Youngs Moduli (GPa) = 50.75052 107.49228 67.65347
#
# Poissons Ratio (x) = 0.43223 0.05118
# Poissons Ratio (y) = 0.20407 0.07980
# Poissons Ratio (z) = 0.03839 0.12679
#
# Static dielectric constant tensor:
#      x y z
#    x 1.851720 0.000000 0.000000 
#    y 0.000000 1.945380 0.000000 
#    z 0.000000 0.000000 1.794780 
# 
# From -- ./inp_files/17909.got.cif
#   From: 2010.05.17/outbox.cif.g08.bks.cpg/sg60_9_cif.got.tgz:17909.got - 2010.06.03 14:59:27.
