data_PCOD9456919
_publ_section_title
;
Structure prediction by ZEFSAII (Michael W. Deem and Ramdas Pophale) SiO2 
 PCOD9456919
Probable space group: P B C N
;
_chemical_formula_sum "Si O2"
_cell_formula_units_Z 32
_cell_length_a 8.732145
_cell_length_b 19.015228
_cell_length_c 7.967479
_cell_angle_alpha 90.000000
_cell_angle_beta 90.000000
_cell_angle_gamma 90.000000
_cell_volume 1322.949917
_symmetry_space_group_name_H-M "P B C N"
_symmetry_group_IT_number 60
_symmetry_cell_setting 'orthorhombic'
loop_
_space_group_symop_operation_xyz
x,y,z
1/2-x,1/2-y,1/2+z
1/2+x,1/2-y,-z
-x,y,1/2-z
-x,-y,-z
1/2+x,1/2+y,1/2-z
1/2-x,1/2+y,z
x,-y,1/2+z
loop_
_atom_site_type_symbol
_atom_site_label
_atom_site_fract_x
_atom_site_fract_y
_atom_site_fract_z
Si Si1 0.660254 0.766010 0.170131
Si Si2 0.824658 0.409191 0.313791
Si Si3 0.337603 0.853591 0.678965
Si Si4 0.677015 0.520124 0.504426
O O1 0.500000 0.742089 0.250000
O O2 0.714572 0.827602 0.297326
O O3 0.769194 0.699612 0.184046
O O4 0.643309 0.805740 0.991744
O O5 0.786505 0.452328 0.479157
O O6 0.000000 0.416252 0.250000
O O7 0.713819 0.447195 0.183367
O O8 0.500000 0.878466 0.750000
O O9 0.230185 0.918230 0.623864
O O10 0.500000 0.500000 0.500000
#
# Coordination Sequence:
#
# PCOD9456919 Si02
#       4
#     8   8   8   8
#     4  10  23  41  64  96 132 175 225 281 344 413
#     4  10  22  41  63  91 131 175 222 276 340 408
#     4  11  24  43  67  98 136 180 230 286 351 420
#     4  11  24  41  64  97 132 176 229 285 343 407
#
# _framework density 24.188371
#
# number of rings (size 3 to 8) (size 9 to 14) (size 15 to 20)
#    0.000    1.500    0.000    3.750    0.000   14.000 
#    0.000    0.000    0.000    0.000    0.000    0.000 
#    0.000    0.000    0.000    0.000    0.000    0.000 
#
# Total GULP energy -179089.206473 kJ/mol
# GULP energy per Si atom -5596.537702 kJ/mol
# Density = 2.413332 g / cm^3
# Si number density = 24.188371 Si / 1000 Ang^3
#
#
#
# Elastic Constant Matrix: (Units=GPa)
#
#
# Indices 1 2 3 4 5 6 
#
# 1 140.7634 82.6140 34.4920 0.0000 0.0000 0.0000
# 2 82.6140 120.0564 22.8782 0.0000 0.0000 0.0000
# 3 34.4920 22.8782 99.1968 0.0000 0.0000 0.0000
# 4 0.0000 0.0000 0.0000 45.6922 0.0000 0.0000
# 5 0.0000 0.0000 0.0000 0.0000 34.9833 0.0000
# 6 0.0000 0.0000 0.0000 0.0000 0.0000 47.6954
#
#
#
# Elastic Compliance Matrix: (Units=1/GPa)
#
#
# Indices 1 2 3 4 5 6 
#
# 1 0.012468 -0.008110 -0.002465 0.000000 0.000000 0.000000
# 2 -0.008110 0.013987 -0.000406 0.000000 0.000000 0.000000
# 3 -0.002465 -0.000406 0.011032 0.000000 0.000000 0.000000
# 4 0.000000 0.000000 0.000000 0.021886 0.000000 0.000000
# 5 0.000000 0.000000 0.000000 0.000000 0.028585 0.000000
# 6 0.000000 0.000000 0.000000 0.000000 0.000000 0.020966
#
#
# Mechanical properties :
#
#
# Convention : Reuss Voigt Hill
#
# Bulk Modulus (GPa) = 64.41021 71.10944 67.75982
# Shear Modulus (GPa) = 36.74856 40.34299 38.54578
#
# Velocity S-wave (km/s) = 3.90200 4.08838 3.99628
# Velocity P-wave (km/s) = 6.85472 7.19364 7.02623
#
# Compressibility (1/GPa) = 0.01552549
#
# Stress axis : x y z
#
# Youngs Moduli (GPa) = 80.20795 71.49377 90.64800
#
# Poissons Ratio (x) = 0.57978 0.22343
# Poissons Ratio (y) = 0.65045 0.03681
# Poissons Ratio (z) = 0.19770 0.02904
#
# Static dielectric constant tensor:
#      x y z
#    x 1.929570 0.000000 0.000000 
#    y 0.000000 1.904040 0.000000 
#    z 0.000000 0.000000 2.111720 
# 
# From -- ./inp_files/3595.got.cif
#   From: 2010.05.17/outbox.cif.g08.bks.cpg/sg60_2_cif.got.tgz:3595.got - 2010.06.03 14:59:27.
