data_PCOD9456330
_publ_section_title
;
Structure prediction by ZEFSAII (Michael W. Deem and Ramdas Pophale) SiO2 
 PCOD9456330
Probable space group: P B C N
;
_chemical_formula_sum "Si O2"
_cell_formula_units_Z 56
_cell_length_a 27.531650
_cell_length_b 5.782317
_cell_length_c 14.900453
_cell_angle_alpha 90.000000
_cell_angle_beta 90.000000
_cell_angle_gamma 90.000000
_cell_volume 2372.103361
_symmetry_space_group_name_H-M "P B C N"
_symmetry_group_IT_number 60
_symmetry_cell_setting 'orthorhombic'
loop_
_space_group_symop_operation_xyz
x,y,z
1/2-x,1/2-y,1/2+z
1/2+x,1/2-y,-z
-x,y,1/2-z
-x,-y,-z
1/2+x,1/2+y,1/2-z
1/2-x,1/2+y,z
x,-y,1/2+z
loop_
_atom_site_type_symbol
_atom_site_label
_atom_site_fract_x
_atom_site_fract_y
_atom_site_fract_z
Si Si1 0.085712 0.098376 0.447728
Si Si2 0.533022 0.714434 0.682999
Si Si3 0.264415 0.099361 0.586450
Si Si4 0.959618 0.461774 0.925265
Si Si5 0.623283 0.983366 0.165374
Si Si6 0.766456 0.566653 0.708564
Si Si7 0.367687 0.209546 0.529098
O O1 0.067372 0.241906 0.532237
O O2 0.098057 0.240595 0.357601
O O3 0.046339 0.918391 0.409143
O O4 0.131755 0.965790 0.488686
O O5 0.500000 0.561741 0.750000
O O6 0.491957 0.905152 0.659593
O O7 0.584467 0.836469 0.706977
O O8 0.244311 0.342294 0.546105
O O9 0.245994 0.079803 0.689313
O O10 0.321845 0.143829 0.586327
O O11 0.918233 0.655825 0.920365
O O12 0.000000 0.500000 0.000000
O O13 0.675251 0.959797 0.210335
O O14 0.632833 0.063973 0.062753
O O15 0.746829 0.321412 0.668666
#
# Coordination Sequence:
#
# PCOD9456330 Si02
#       7
#     8   8   8   8   8   8   8
#     4  10  21  41  61  89 128 167 216 257 322 383
#     4  11  24  39  60  97 130 165 216 266 318 384
#     4  10  24  45  66  96 130 164 215 271 324 390
#     4  11  20  41  63  87 131 171 205 259 321 392
#     4  10  23  41  63  91 130 160 216 266 317 386
#     4  10  24  45  68  92 130 174 210 262 337 389
#     4  10  23  38  65  94 120 166 214 264 318 382
#
# _framework density 23.607738999999999
#
# number of rings (size 3 to 8) (size 9 to 14) (size 15 to 20)
#    0.000    1.714    4.286    0.429   10.000    1.714 
#    2.571    0.000    0.000    0.000    0.000    0.000 
#    0.000    0.000    0.000    0.000    0.000    0.000 
#
# Total GULP energy -311904.692619 kJ/mol
# GULP energy per Si atom -5569.726654 kJ/mol
# Density = 2.355401 g / cm^3
# Si number density = 23.607739 Si / 1000 Ang^3
#
#
#
# Elastic Constant Matrix: (Units=GPa)
#
#
# Indices 1 2 3 4 5 6 
#
# 1 109.2596 35.5412 9.1823 0.0000 0.0000 0.0000
# 2 35.5412 128.1535 8.6125 0.0000 0.0000 0.0000
# 3 9.1823 8.6125 43.1008 0.0000 0.0000 0.0000
# 4 0.0000 0.0000 0.0000 8.9906 0.0000 0.0000
# 5 0.0000 0.0000 0.0000 0.0000 31.8135 0.0000
# 6 0.0000 0.0000 0.0000 0.0000 0.0000 23.8152
#
#
#
# Elastic Compliance Matrix: (Units=1/GPa)
#
#
# Indices 1 2 3 4 5 6 
#
# 1 0.010171 -0.002712 -0.001625 0.000000 0.000000 0.000000
# 2 -0.002712 0.008632 -0.001147 0.000000 0.000000 0.000000
# 3 -0.001625 -0.001147 0.023777 0.000000 0.000000 0.000000
# 4 0.000000 0.000000 0.000000 0.111228 0.000000 0.000000
# 5 0.000000 0.000000 0.000000 0.000000 0.031433 0.000000
# 6 0.000000 0.000000 0.000000 0.000000 0.000000 0.041990
#
#
# Mechanical properties :
#
#
# Convention : Reuss Voigt Hill
#
# Bulk Modulus (GPa) = 31.63303 43.02065 37.32684
# Shear Modulus (GPa) = 20.10161 28.06904 24.08533
#
# Velocity S-wave (km/s) = 2.92119 3.45189 3.19757
# Velocity P-wave (km/s) = 4.98059 5.84381 5.42938
#
# Compressibility (1/GPa) = 0.03161253
#
# Stress axis : x y z
#
# Youngs Moduli (GPa) = 98.31735 115.84461 42.05770
#
# Poissons Ratio (x) = 0.31412 0.06835
# Poissons Ratio (y) = 0.26660 0.04825
# Poissons Ratio (z) = 0.15977 0.13290
#
# Static dielectric constant tensor:
#      x y z
#    x 1.901550 0.000000 0.000000 
#    y 0.000000 2.050850 0.000000 
#    z 0.000000 0.000000 1.961040 
# 
# From -- ./inp_files/23288.got.cif
#   From: 2010.05.17/outbox.cif.g08.bks.cpg/sg60_12_cif.got.tgz:23288.got - 2010.06.03 14:59:27.
