data_PCOD9456091
_publ_section_title
;
Structure prediction by ZEFSAII (Michael W. Deem and Ramdas Pophale) SiO2 
 PCOD9456091
Probable space group: P B C N
;
_chemical_formula_sum "Si O2"
_cell_formula_units_Z 64
_cell_length_a 8.821896
_cell_length_b 22.713484
_cell_length_c 16.100495
_cell_angle_alpha 90.000000
_cell_angle_beta 90.000000
_cell_angle_gamma 90.000000
_cell_volume 3226.152684
_symmetry_space_group_name_H-M "P B C N"
_symmetry_group_IT_number 60
_symmetry_cell_setting 'orthorhombic'
loop_
_space_group_symop_operation_xyz
x,y,z
1/2-x,1/2-y,1/2+z
1/2+x,1/2-y,-z
-x,y,1/2-z
-x,-y,-z
1/2+x,1/2+y,1/2-z
1/2-x,1/2+y,z
x,-y,1/2+z
loop_
_atom_site_type_symbol
_atom_site_label
_atom_site_fract_x
_atom_site_fract_y
_atom_site_fract_z
Si Si1 0.085609 0.702366 0.836732
Si Si2 0.179561 0.402049 0.740970
Si Si3 0.165728 0.169609 0.383665
Si Si4 0.820607 0.462258 0.243219
Si Si5 0.294841 0.400380 0.404694
Si Si6 0.206716 0.287335 0.054869
Si Si7 0.599504 0.367870 0.328631
Si Si8 0.815206 0.150631 0.424098
O O1 0.150973 0.768289 0.834804
O O2 0.213043 0.655338 0.859845
O O3 0.000000 0.690107 0.750000
O O4 0.960665 0.701367 0.909662
O O5 0.260559 0.377512 0.822988
O O6 0.211373 0.471313 0.729414
O O7 0.238688 0.366619 0.661768
O O8 0.000000 0.394733 0.750000
O O9 0.261038 0.183053 0.466569
O O10 0.996394 0.151199 0.410322
O O11 0.772663 0.454451 0.146841
O O12 0.720737 0.415813 0.295816
O O13 0.000000 0.450601 0.250000
O O14 0.474082 0.397090 0.388038
O O15 0.268914 0.393234 0.502027
O O16 0.319115 0.315853 0.122406
O O17 0.227514 0.217176 0.049488
O O18 0.500000 0.347124 0.250000
#
# Coordination Sequence:
#
# PCOD9456091 Si02
#       8
#     8   8   8   8   8   8   8   8
#     4  11  22  38  63  95 134 177 208 259 326 379
#     4  11  27  46  67  90 125 173 219 266 322 385
#     4  11  23  42  64  94 137 168 213 260 321 389
#     4  10  23  47  65  91 125 167 219 266 319 381
#     4  11  21  38  66  98 126 163 213 266 310 380
#     4  11  22  39  63  99 134 170 208 258 319 387
#     4  10  21  38  66  96 126 164 211 260 313 375
#     4  11  24  42  64  97 136 167 209 264 324 382
#
# _framework density 19.837872000000001
#
# number of rings (size 3 to 8) (size 9 to 14) (size 15 to 20)
#    0.000    1.250    2.500    4.500    1.750    4.500 
#    2.250    2.500    0.000    0.000    0.000    0.000 
#    0.000    0.000    0.000    0.000    0.000    0.000 
#
# Total GULP energy -357762.922030 kJ/mol
# GULP energy per Si atom -5590.045657 kJ/mol
# Density = 1.979272 g / cm^3
# Si number density = 19.837872 Si / 1000 Ang^3
#
#
#
# Elastic Constant Matrix: (Units=GPa)
#
#
# Indices 1 2 3 4 5 6 
#
# 1 82.7923 25.3743 27.9474 0.0000 0.0000 0.0000
# 2 25.3743 22.3960 20.7492 0.0000 0.0000 0.0000
# 3 27.9474 20.7492 115.6199 0.0000 0.0000 0.0000
# 4 0.0000 0.0000 0.0000 23.7539 0.0000 0.0000
# 5 0.0000 0.0000 0.0000 0.0000 26.7431 0.0000
# 6 0.0000 0.0000 0.0000 0.0000 0.0000 14.8814
#
#
#
# Elastic Compliance Matrix: (Units=1/GPa)
#
#
# Indices 1 2 3 4 5 6 
#
# 1 0.018574 -0.020251 -0.000855 0.000000 0.000000 0.000000
# 2 -0.020251 0.075635 -0.008678 0.000000 0.000000 0.000000
# 3 -0.000855 -0.008678 0.010413 0.000000 0.000000 0.000000
# 4 0.000000 0.000000 0.000000 0.042098 0.000000 0.000000
# 5 0.000000 0.000000 0.000000 0.000000 0.037393 0.000000
# 6 0.000000 0.000000 0.000000 0.000000 0.000000 0.067198
#
#
# Mechanical properties :
#
#
# Convention : Reuss Voigt Hill
#
# Bulk Modulus (GPa) = 22.19645 40.99446 31.59545
# Shear Modulus (GPa) = 15.34218 22.85818 19.10018
#
# Velocity S-wave (km/s) = 2.78399 3.39816 3.10629
# Velocity P-wave (km/s) = 4.64191 6.00885 5.36906
#
# Compressibility (1/GPa) = 0.04505225
#
# Stress axis : x y z
#
# Youngs Moduli (GPa) = 53.83940 13.22133 96.03189
#
# Poissons Ratio (x) = 0.26775 0.08214
# Poissons Ratio (y) = 1.09032 0.83341
# Poissons Ratio (z) = 0.04605 0.11474
#
# Static dielectric constant tensor:
#      x y z
#    x 1.694880 0.000000 0.000000 
#    y 0.000000 1.676030 0.000000 
#    z 0.000000 0.000000 1.699380 
# 
# From -- ./inp_files/15401.got.cif
#   From: 2010.05.17/outbox.cif.g08.bks.cpg/sg60_8_cif.got.tgz:15401.got - 2010.06.03 14:59:27.
