data_PCOD9456118
_publ_section_title
;
Structure prediction by ZEFSAII (Michael W. Deem and Ramdas Pophale) SiO2 
 PCOD9456118
Probable space group: P B C N
;
_chemical_formula_sum "Si O2"
_cell_formula_units_Z 56
_cell_length_a 13.681506
_cell_length_b 15.408424
_cell_length_c 12.185981
_cell_angle_alpha 90.000000
_cell_angle_beta 90.000000
_cell_angle_gamma 90.000000
_cell_volume 2568.932082
_symmetry_space_group_name_H-M "P B C N"
_symmetry_group_IT_number 60
_symmetry_cell_setting 'orthorhombic'
loop_
_space_group_symop_operation_xyz
x,y,z
1/2-x,1/2-y,1/2+z
1/2+x,1/2-y,-z
-x,y,1/2-z
-x,-y,-z
1/2+x,1/2+y,1/2-z
1/2-x,1/2+y,z
x,-y,1/2+z
loop_
_atom_site_type_symbol
_atom_site_label
_atom_site_fract_x
_atom_site_fract_y
_atom_site_fract_z
Si Si1 0.686793 0.836224 0.626422
Si Si2 0.126851 0.930212 0.631145
Si Si3 0.000000 0.072160 0.750000
Si Si4 0.828208 0.358966 0.864402
Si Si5 0.500000 0.282902 0.750000
Si Si6 0.621563 0.732537 0.046546
Si Si7 0.018911 0.530814 0.372146
Si Si8 0.429161 0.673393 0.932506
O O1 0.688028 0.805424 0.753181
O O2 0.797182 0.836678 0.583733
O O3 0.626498 0.925840 0.625452
O O4 0.627396 0.763838 0.558857
O O5 0.243391 0.931396 0.645380
O O6 0.109873 0.904354 0.506498
O O7 0.079332 0.846599 0.693167
O O8 0.064030 0.010704 0.671551
O O9 0.072672 0.135342 0.812325
O O10 0.937214 0.394845 0.860661
O O11 0.823464 0.306241 0.977319
O O12 0.440221 0.235535 0.846874
O O13 0.540432 0.691314 0.968097
O O14 0.000000 0.483733 0.250000
O O15 0.000000 0.500000 0.500000
#
# Coordination Sequence:
#
# PCOD9456118 Si02
#       8
#     8   8   4   8   4   8   8   8
#     4  11  22  41  70  97 131 175 228 278 335 405
#     4  10  21  39  60  89 130 170 208 271 330 396
#     4  11  24  40  58  94 137 170 218 261 344 386
#     4  11  21  40  65  92 132 172 221 275 337 393
#     4   9  20  38  60  92 131 162 210 271 336 386
#     4  11  21  38  67  98 127 171 221 279 337 392
#     4  10  24  47  67  96 138 178 225 280 339 404
#     4  11  22  40  65  95 128 169 221 272 325 399
#
# _framework density 21.798940999999999
#
# number of rings (size 3 to 8) (size 9 to 14) (size 15 to 20)
#    0.000    1.429    4.286    1.286    1.000    1.143 
#    6.429    0.000    0.000    0.000    0.000    0.000 
#    0.000    0.000    0.000    0.000    0.000    0.000 
#
# Total GULP energy -311887.238888 kJ/mol
# GULP energy per Si atom -5569.414980 kJ/mol
# Density = 2.174933 g / cm^3
# Si number density = 21.798941 Si / 1000 Ang^3
#
#
#
# Elastic Constant Matrix: (Units=GPa)
#
#
# Indices 1 2 3 4 5 6 
#
# 1 97.6901 6.7669 -3.5419 0.0000 0.0000 0.0000
# 2 6.7669 22.8233 11.1551 0.0000 0.0000 0.0000
# 3 -3.5419 11.1551 97.4167 0.0000 0.0000 0.0000
# 4 0.0000 0.0000 0.0000 32.0512 0.0000 0.0000
# 5 0.0000 0.0000 0.0000 0.0000 37.2419 0.0000
# 6 0.0000 0.0000 0.0000 0.0000 0.0000 19.2923
#
#
#
# Elastic Compliance Matrix: (Units=1/GPa)
#
#
# Indices 1 2 3 4 5 6 
#
# 1 0.010507 -0.003498 0.000783 0.000000 0.000000 0.000000
# 2 -0.003498 0.047577 -0.005575 0.000000 0.000000 0.000000
# 3 0.000783 -0.005575 0.010932 0.000000 0.000000 0.000000
# 4 0.000000 0.000000 0.000000 0.031200 0.000000 0.000000
# 5 0.000000 0.000000 0.000000 0.000000 0.026851 0.000000
# 6 0.000000 0.000000 0.000000 0.000000 0.000000 0.051834
#
#
# Mechanical properties :
#
#
# Convention : Reuss Voigt Hill
#
# Bulk Modulus (GPa) = 19.07110 27.41001 23.24056
# Shear Modulus (GPa) = 23.47849 31.28707 27.38278
#
# Velocity S-wave (km/s) = 3.28540 3.79259 3.54807
# Velocity P-wave (km/s) = 4.81243 5.63734 5.24114
#
# Compressibility (1/GPa) = 0.05243535
#
# Stress axis : x y z
#
# Youngs Moduli (GPa) = 95.17363 21.01860 91.47421
#
# Poissons Ratio (x) = 0.07352 -0.07158
# Poissons Ratio (y) = 0.33289 0.50998
# Poissons Ratio (z) = -0.07448 0.11718
#
# Static dielectric constant tensor:
#      x y z
#    x 1.809140 0.000000 0.000000 
#    y 0.000000 1.782710 0.000000 
#    z 0.000000 0.000000 1.932670 
# 
# From -- ./inp_files/12025.got.cif
#   From: 2010.05.17/outbox.cif.g08.bks.cpg/sg60_7_cif.got.tgz:12025.got - 2010.06.03 14:59:27.
