data_PCOD9456125
_publ_section_title
;
Structure prediction by ZEFSAII (Michael W. Deem and Ramdas Pophale) SiO2 
 PCOD9456125
Probable space group: P B C N
;
_chemical_formula_sum "Si O2"
_cell_formula_units_Z 40
_cell_length_a 5.216187
_cell_length_b 13.715146
_cell_length_c 22.492224
_cell_angle_alpha 90.000000
_cell_angle_beta 90.000000
_cell_angle_gamma 90.000000
_cell_volume 1609.110940
_symmetry_space_group_name_H-M "P B C N"
_symmetry_group_IT_number 60
_symmetry_cell_setting 'orthorhombic'
loop_
_space_group_symop_operation_xyz
x,y,z
1/2-x,1/2-y,1/2+z
1/2+x,1/2-y,-z
-x,y,1/2-z
-x,-y,-z
1/2+x,1/2+y,1/2-z
1/2-x,1/2+y,z
x,-y,1/2+z
loop_
_atom_site_type_symbol
_atom_site_label
_atom_site_fract_x
_atom_site_fract_y
_atom_site_fract_z
Si Si1 0.766924 0.070297 0.545695
Si Si2 0.171040 0.920660 0.588447
Si Si3 0.942884 0.772041 0.389987
Si Si4 0.423544 0.921010 0.153495
Si Si5 0.241713 0.268149 0.286783
O O1 0.707969 0.058144 0.476956
O O2 0.534439 0.096912 0.587655
O O3 0.960301 0.162194 0.555304
O O4 0.900568 0.975213 0.576341
O O5 0.231704 0.807710 0.595695
O O6 0.307295 0.971976 0.645341
O O7 0.816207 0.848978 0.344192
O O8 0.182221 0.728214 0.352474
O O9 0.640585 0.879280 0.197326
O O10 0.500000 0.253420 0.250000
O O11 0.000000 0.225147 0.250000
#
# Coordination Sequence:
#
# PCOD9456125 Si02
#       5
#     8   8   8   8   8
#     4   9  21  37  61  94 139 184 216 276 339 397
#     4  10  21  39  60  99 140 175 228 273 331 415
#     4  10  22  38  65 100 131 185 229 280 339 416
#     4  10  21  40  64  93 132 173 226 273 341 401
#     4  11  22  44  72  92 131 180 227 290 351 397
#
# _framework density 24.858449
#
# number of rings (size 3 to 8) (size 9 to 14) (size 15 to 20)
#    0.000    2.000    2.000    0.600    2.800    3.200 
#    0.000    2.000    0.000    0.000    0.000    0.000 
#    0.000    0.000    0.000    0.000    0.000    0.000 
#
# Total GULP energy -222673.179792 kJ/mol
# GULP energy per Si atom -5566.829495 kJ/mol
# Density = 2.480187 g / cm^3
# Si number density = 24.858449 Si / 1000 Ang^3
#
#
#
# Elastic Constant Matrix: (Units=GPa)
#
#
# Indices 1 2 3 4 5 6 
#
# 1 93.0764 8.9054 32.2133 0.0000 0.0000 0.0000
# 2 8.9054 106.2885 9.7736 0.0000 0.0000 0.0000
# 3 32.2133 9.7736 50.1047 0.0000 0.0000 0.0000
# 4 0.0000 0.0000 0.0000 12.9791 0.0000 0.0000
# 5 0.0000 0.0000 0.0000 0.0000 40.6791 0.0000
# 6 0.0000 0.0000 0.0000 0.0000 0.0000 9.1027
#
#
#
# Elastic Compliance Matrix: (Units=1/GPa)
#
#
# Indices 1 2 3 4 5 6 
#
# 1 0.013831 -0.000347 -0.008825 0.000000 0.000000 0.000000
# 2 -0.000347 0.009589 -0.001647 0.000000 0.000000 0.000000
# 3 -0.008825 -0.001647 0.025953 0.000000 0.000000 0.000000
# 4 0.000000 0.000000 0.000000 0.077047 0.000000 0.000000
# 5 0.000000 0.000000 0.000000 0.000000 0.024583 0.000000
# 6 0.000000 0.000000 0.000000 0.000000 0.000000 0.109857
#
#
# Mechanical properties :
#
#
# Convention : Reuss Voigt Hill
#
# Bulk Modulus (GPa) = 36.05557 39.02824 37.54191
# Shear Modulus (GPa) = 17.13837 25.79067 21.46452
#
# Velocity S-wave (km/s) = 2.62856 3.22452 2.94167
# Velocity P-wave (km/s) = 4.87322 5.44037 5.16459
#
# Compressibility (1/GPa) = 0.02773496
#
# Stress axis : x y z
#
# Youngs Moduli (GPa) = 72.29998 104.28701 38.53116
#
# Poissons Ratio (x) = 0.03623 0.34002
# Poissons Ratio (y) = 0.02512 0.06346
# Poissons Ratio (z) = 0.63802 0.17177
#
# Static dielectric constant tensor:
#      x y z
#    x 2.089370 0.000000 0.000000 
#    y 0.000000 2.043090 0.000000 
#    z 0.000000 0.000000 2.069490 
# 
# From -- ./inp_files/23537.got.cif
#   From: 2010.05.17/outbox.cif.g08.bks.cpg/sg60_12_cif.got.tgz:23537.got - 2010.06.03 14:59:27.
