data_PCOD9456476
_publ_section_title
;
Structure prediction by ZEFSAII (Michael W. Deem and Ramdas Pophale) SiO2 
 PCOD9456476
Probable space group: P B C N
;
_chemical_formula_sum "Si O2"
_cell_formula_units_Z 32
_cell_length_a 7.021478
_cell_length_b 6.780985
_cell_length_c 22.929239
_cell_angle_alpha 90.000000
_cell_angle_beta 90.000000
_cell_angle_gamma 90.000000
_cell_volume 1091.719240
_symmetry_space_group_name_H-M "P B C N"
_symmetry_group_IT_number 60
_symmetry_cell_setting 'orthorhombic'
loop_
_space_group_symop_operation_xyz
x,y,z
1/2-x,1/2-y,1/2+z
1/2+x,1/2-y,-z
-x,y,1/2-z
-x,-y,-z
1/2+x,1/2+y,1/2-z
1/2-x,1/2+y,z
x,-y,1/2+z
loop_
_atom_site_type_symbol
_atom_site_label
_atom_site_fract_x
_atom_site_fract_y
_atom_site_fract_z
Si Si1 0.193674 0.277649 0.399059
Si Si2 0.993784 0.244429 0.814511
Si Si3 0.222737 0.440961 0.117600
Si Si4 0.274860 0.974072 0.988671
O O1 0.294677 0.283051 0.336237
O O2 0.264426 0.528480 0.414236
O O3 0.255660 0.275537 0.473211
O O4 0.966285 0.303279 0.389677
O O5 0.890184 0.353287 0.869120
O O6 0.000000 0.325142 0.750000
O O7 0.852846 0.060957 0.823435
O O8 0.318855 0.460770 0.053583
O O9 0.500000 0.000000 0.000000
#
# Coordination Sequence:
#
# PCOD9456476 Si02
#       4
#     8   8   8   8
#     4  11  23  45  72 106 143 182 228 299 358 421
#     4  12  29  47  71 101 142 195 242 284 350 424
#     4  11  27  48  71 108 139 185 239 296 354 428
#     4  10  21  42  71 106 141 174 233 289 363 417
#
# _framework density 29.311565000000002
#
# number of rings (size 3 to 8) (size 9 to 14) (size 15 to 20)
#    0.000    1.000    5.000    1.500   10.500    1.000 
#    0.000    0.000    0.000    0.000    0.000    0.000 
#    0.000    0.000    0.000    0.000    0.000    0.000 
#
# Total GULP energy -178374.937096 kJ/mol
# GULP energy per Si atom -5574.216784 kJ/mol
# Density = 2.924485 g / cm^3
# Si number density = 29.311565 Si / 1000 Ang^3
#
#
#
# Elastic Constant Matrix: (Units=GPa)
#
#
# Indices 1 2 3 4 5 6 
#
# 1 143.0237 26.7458 52.3443 0.0000 0.0000 0.0000
# 2 26.7458 107.8102 31.6503 0.0000 0.0000 0.0000
# 3 52.3443 31.6503 209.3013 0.0000 0.0000 0.0000
# 4 0.0000 0.0000 0.0000 20.0645 0.0000 0.0000
# 5 0.0000 0.0000 0.0000 0.0000 51.4224 0.0000
# 6 0.0000 0.0000 0.0000 0.0000 0.0000 -89.3665
#
#
#
# Elastic Compliance Matrix: (Units=1/GPa)
#
#
# Indices 1 2 3 4 5 6 
#
# 1 0.007906 -0.001445 -0.001759 0.000000 0.000000 0.000000
# 2 -0.001445 0.009971 -0.001146 0.000000 0.000000 0.000000
# 3 -0.001759 -0.001146 0.005391 0.000000 0.000000 0.000000
# 4 0.000000 0.000000 0.000000 0.049839 0.000000 0.000000
# 5 0.000000 0.000000 0.000000 0.000000 0.019447 0.000000
# 6 0.000000 0.000000 0.000000 0.000000 0.000000 -0.011190
#
#
# Mechanical properties :
#
#
# Convention : Reuss Voigt Hill
#
# Bulk Modulus (GPa) = 68.64692 75.73512 72.19102
# Shear Modulus (GPa) = 52.67637 19.71706 36.19671
#
# Velocity S-wave (km/s) = 4.24384 2.59641 3.51792
# Velocity P-wave (km/s) = 6.89088 5.90614 6.41742
#
# Compressibility (1/GPa) = 0.01456730
#
# Stress axis : x y z
#
# Youngs Moduli (GPa) = 126.49117 100.29515 185.49539
#
# Poissons Ratio (x) = 0.14492 0.32622
# Poissons Ratio (y) = 0.18278 0.21265
# Poissons Ratio (z) = 0.22245 0.11497
#
# Static dielectric constant tensor:
#      x y z
#    x 15.627310 0.000000 0.000000 
#    y 0.000000 3.534970 0.000000 
#    z 0.000000 0.000000 2.101790 
# 
# From -- ./inp_files/21393.got.cif
#   From: 2010.05.17/outbox.cif.g08.bks.cpg/sg60_11_cif.got.tgz:21393.got - 2010.06.03 14:59:27.
