data_PCOD9456774
_publ_section_title
;
Structure prediction by ZEFSAII (Michael W. Deem and Ramdas Pophale) SiO2 
 PCOD9456774
Probable space group: P B C N
;
_chemical_formula_sum "Si O2"
_cell_formula_units_Z 48
_cell_length_a 14.833174
_cell_length_b 25.233382
_cell_length_c 5.475338
_cell_angle_alpha 90.000000
_cell_angle_beta 90.000000
_cell_angle_gamma 90.000000
_cell_volume 2049.370534
_symmetry_space_group_name_H-M "P B C N"
_symmetry_group_IT_number 60
_symmetry_cell_setting 'orthorhombic'
loop_
_space_group_symop_operation_xyz
x,y,z
1/2-x,1/2-y,1/2+z
1/2+x,1/2-y,-z
-x,y,1/2-z
-x,-y,-z
1/2+x,1/2+y,1/2-z
1/2-x,1/2+y,z
x,-y,1/2+z
loop_
_atom_site_type_symbol
_atom_site_label
_atom_site_fract_x
_atom_site_fract_y
_atom_site_fract_z
Si Si1 0.500000 0.552651 0.750000
Si Si2 0.500000 0.102956 0.750000
Si Si3 0.200350 0.972732 0.355346
Si Si4 0.181183 0.827662 0.811356
Si Si5 0.500000 0.831840 0.750000
Si Si6 0.693222 0.880082 0.302977
Si Si7 0.500000 0.384922 0.750000
Si Si8 0.336442 0.780957 0.527377
O O1 0.408104 0.523651 0.828855
O O2 0.478829 0.585048 0.503302
O O3 0.501010 0.133663 0.492994
O O4 0.396309 0.082300 0.720340
O O5 0.233464 0.911905 0.357613
O O6 0.232392 0.001286 0.600836
O O7 0.251765 0.867131 0.948098
O O8 0.149210 0.780892 0.990373
O O9 0.092275 0.853654 0.705105
O O10 0.237171 0.793261 0.620248
O O11 0.409773 0.798244 0.726621
O O12 0.659499 0.823138 0.197788
#
# Coordination Sequence:
#
# PCOD9456774 Si02
#       8
#     4   4   8   8   4   8   4   8
#     4  12  24  50  72 104 143 193 236 293 365 430
#     4  10  22  41  72  97 121 187 218 287 349 424
#     4  12  27  46  75 106 139 184 240 300 361 430
#     4  12  24  42  66 102 145 191 240 292 360 430
#     4  10  22  39  64  93 135 173 244 267 339 418
#     4  11  24  46  69  99 141 180 241 293 362 423
#     4  12  28  42  74 106 149 193 236 297 351 426
#     4  11  24  41  68  98 140 194 234 296 351 433
#
# _framework density 23.421824999999998
#
# number of rings (size 3 to 8) (size 9 to 14) (size 15 to 20)
#    0.000    0.667    5.000    2.500    2.333    4.667 
#    0.000    0.833    0.000    0.000    0.000    0.000 
#    0.000    0.000    0.000    0.000    0.000    0.000 
#
# Total GULP energy -267635.477094 kJ/mol
# GULP energy per Si atom -5575.739106 kJ/mol
# Density = 2.336852 g / cm^3
# Si number density = 23.421825 Si / 1000 Ang^3
#
#
#
# Elastic Constant Matrix: (Units=GPa)
#
#
# Indices 1 2 3 4 5 6 
#
# 1 137.6297 18.1179 13.9636 0.0000 0.0000 0.0000
# 2 18.1179 50.6497 9.7038 0.0000 0.0000 0.0000
# 3 13.9636 9.7038 83.6475 0.0000 0.0000 0.0000
# 4 0.0000 0.0000 0.0000 -13.4239 0.0000 0.0000
# 5 0.0000 0.0000 0.0000 0.0000 31.6664 0.0000
# 6 0.0000 0.0000 0.0000 0.0000 0.0000 31.7302
#
#
#
# Elastic Compliance Matrix: (Units=1/GPa)
#
#
# Indices 1 2 3 4 5 6 
#
# 1 0.007704 -0.002566 -0.000988 0.000000 0.000000 0.000000
# 2 -0.002566 0.021047 -0.002013 0.000000 0.000000 0.000000
# 3 -0.000988 -0.002013 0.012353 0.000000 0.000000 0.000000
# 4 0.000000 0.000000 0.000000 -0.074494 0.000000 0.000000
# 5 0.000000 0.000000 0.000000 0.000000 0.031579 0.000000
# 6 0.000000 0.000000 0.000000 0.000000 0.000000 0.031516
#
#
# Mechanical properties :
#
#
# Convention : Reuss Voigt Hill
#
# Bulk Modulus (GPa) = 33.36820 39.49974 36.43397
# Shear Modulus (GPa) = 98.36488 25.33731 61.85109
#
# Velocity S-wave (km/s) = 6.48755 3.29261 5.14439
# Velocity P-wave (km/s) = 8.39019 5.59966 7.13272
#
# Compressibility (1/GPa) = 0.02996866
#
# Stress axis : x y z
#
# Youngs Moduli (GPa) = 129.80276 47.51227 80.94892
#
# Poissons Ratio (x) = 0.12194 0.08000
# Poissons Ratio (y) = 0.33313 0.16297
# Poissons Ratio (z) = 0.12829 0.09565
#
# Static dielectric constant tensor:
#      x y z
#    x 1.922920 0.000000 0.000000 
#    y 0.000000 1.946820 0.000000 
#    z 0.000000 0.000000 1.981090 
# 
# From -- ./inp_files/1372.got.cif
#   From: 2010.05.17/outbox.cif.g08.bks.cpg/sg60_1_cif.got.tgz:1372.got - 2010.06.03 14:59:27.
