data_PCOD9456517
_publ_section_title
;
Structure prediction by ZEFSAII (Michael W. Deem and Ramdas Pophale) SiO2 
 PCOD9456517
Probable space group: P B C N
;
_chemical_formula_sum "Si O2"
_cell_formula_units_Z 48
_cell_length_a 7.804244
_cell_length_b 18.858084
_cell_length_c 12.673494
_cell_angle_alpha 90.000000
_cell_angle_beta 90.000000
_cell_angle_gamma 90.000000
_cell_volume 1865.197259
_symmetry_space_group_name_H-M "P B C N"
_symmetry_group_IT_number 60
_symmetry_cell_setting 'orthorhombic'
loop_
_space_group_symop_operation_xyz
x,y,z
1/2-x,1/2-y,1/2+z
1/2+x,1/2-y,-z
-x,y,1/2-z
-x,-y,-z
1/2+x,1/2+y,1/2-z
1/2-x,1/2+y,z
x,-y,1/2+z
loop_
_atom_site_type_symbol
_atom_site_label
_atom_site_fract_x
_atom_site_fract_y
_atom_site_fract_z
Si Si1 0.831589 0.335702 0.189055
Si Si2 0.609530 0.455814 0.139259
Si Si3 0.033534 0.306982 0.985750
Si Si4 0.741239 0.716333 0.346274
Si Si5 0.934839 0.441427 0.633485
Si Si6 0.184576 0.056972 0.098919
O O1 0.669881 0.386068 0.201031
O O2 0.798806 0.259046 0.240374
O O3 0.000000 0.365031 0.250000
O O4 0.886312 0.332515 0.067391
O O5 0.776853 0.506428 0.146085
O O6 0.566790 0.498602 0.344918
O O7 0.602344 0.433152 0.015886
O O8 0.936768 0.275886 0.884649
O O9 0.124969 0.376180 0.939474
O O10 0.140233 0.255372 0.058758
O O11 0.689423 0.633833 0.344956
O O12 0.000000 0.418607 0.750000
O O13 0.117767 0.468533 0.587724
#
# Coordination Sequence:
#
# PCOD9456517 Si02
#       6
#     8   8   8   8   8   8
#     4  10  21  43  75 102 143 199 247 306 385 459
#     4  11  22  46  77 104 148 192 253 307 383 452
#     4  10  23  43  69 102 141 194 246 303 376 450
#     4  10  22  43  70 105 146 192 249 309 380 445
#     4  11  24  44  70 106 150 196 242 306 381 445
#     4  10  24  45  74 110 142 195 248 316 374 446
#
# _framework density 25.734545000000001
#
# number of rings (size 3 to 8) (size 9 to 14) (size 15 to 20)
#    0.000    1.667    3.333    1.000    2.333    3.333 
#   12.000    1.667    0.000    0.000    0.000    0.000 
#    0.000    0.000    0.000    0.000    0.000    0.000 
#
# Total GULP energy -268669.688953 kJ/mol
# GULP energy per Si atom -5597.285187 kJ/mol
# Density = 2.567597 g / cm^3
# Si number density = 25.734545 Si / 1000 Ang^3
#
#
#
# Elastic Constant Matrix: (Units=GPa)
#
#
# Indices 1 2 3 4 5 6 
#
# 1 120.7340 63.9349 1.3929 0.0000 0.0000 0.0000
# 2 63.9349 145.0991 28.2127 0.0000 0.0000 0.0000
# 3 1.3929 28.2127 84.4815 0.0000 0.0000 0.0000
# 4 0.0000 0.0000 0.0000 37.6979 0.0000 0.0000
# 5 0.0000 0.0000 0.0000 0.0000 47.8482 0.0000
# 6 0.0000 0.0000 0.0000 0.0000 0.0000 38.7300
#
#
#
# Elastic Compliance Matrix: (Units=1/GPa)
#
#
# Indices 1 2 3 4 5 6 
#
# 1 0.010987 -0.005140 0.001535 0.000000 0.000000 0.000000
# 2 -0.005140 0.009775 -0.003180 0.000000 0.000000 0.000000
# 3 0.001535 -0.003180 0.012873 0.000000 0.000000 0.000000
# 4 0.000000 0.000000 0.000000 0.026527 0.000000 0.000000
# 5 0.000000 0.000000 0.000000 0.000000 0.020899 0.000000
# 6 0.000000 0.000000 0.000000 0.000000 0.000000 0.025820
#
#
# Mechanical properties :
#
#
# Convention : Reuss Voigt Hill
#
# Bulk Modulus (GPa) = 49.83303 59.71061 54.77182
# Shear Modulus (GPa) = 39.32758 41.97349 40.65053
#
# Velocity S-wave (km/s) = 3.91346 4.04297 3.97874
# Velocity P-wave (km/s) = 6.31083 6.71171 6.51435
#
# Compressibility (1/GPa) = 0.02006701
#
# Stress axis : x y z
#
# Youngs Moduli (GPa) = 91.02000 102.30519 77.67950
#
# Poissons Ratio (x) = 0.52580 -0.11925
# Poissons Ratio (y) = 0.46780 0.24698
# Poissons Ratio (z) = -0.13973 0.32528
#
# Static dielectric constant tensor:
#      x y z
#    x 2.067290 0.000000 0.000000 
#    y 0.000000 2.027130 0.000000 
#    z 0.000000 0.000000 2.089900 
# 
# From -- ./inp_files/11006.got.cif
#   From: 2010.05.17/outbox.cif.g08.bks.cpg/sg60_6_cif.got.tgz:11006.got - 2010.06.03 14:59:27.
