data_PCOD9456136
_publ_section_title
;
Structure prediction by ZEFSAII (Michael W. Deem and Ramdas Pophale) SiO2 
 PCOD9456136
Probable space group: P B C N
;
_chemical_formula_sum "Si O2"
_cell_formula_units_Z 36
_cell_length_a 17.570274
_cell_length_b 5.759162
_cell_length_c 14.072248
_cell_angle_alpha 90.000000
_cell_angle_beta 90.000000
_cell_angle_gamma 90.000000
_cell_volume 1423.971540
_symmetry_space_group_name_H-M "P B C N"
_symmetry_group_IT_number 60
_symmetry_cell_setting 'orthorhombic'
loop_
_space_group_symop_operation_xyz
x,y,z
1/2-x,1/2-y,1/2+z
1/2+x,1/2-y,-z
-x,y,1/2-z
-x,-y,-z
1/2+x,1/2+y,1/2-z
1/2-x,1/2+y,z
x,-y,1/2+z
loop_
_atom_site_type_symbol
_atom_site_label
_atom_site_fract_x
_atom_site_fract_y
_atom_site_fract_z
Si Si1 0.286972 0.745971 0.570603
Si Si2 0.605074 0.985302 0.058172
Si Si3 0.500000 0.387132 0.250000
Si Si4 0.646973 0.917722 0.749219
Si Si5 0.445682 0.764542 0.109499
O O1 0.256296 0.490214 0.547256
O O2 0.366469 0.790779 0.516491
O O3 0.297448 0.768775 0.684817
O O4 0.522723 0.914210 0.098229
O O5 0.665651 0.997522 0.143857
O O6 0.593620 0.213703 0.993081
O O7 0.425586 0.242518 0.272196
O O8 0.475421 0.534583 0.158402
O O9 0.613869 0.123066 0.815794
#
# Coordination Sequence:
#
# PCOD9456136 Si02
#       5
#     8   8   4   8   8
#     4  11  29  49  68  98 141 190 246 293 337 420
#     4  10  21  43  68  96 141 181 230 292 352 432
#     4  12  20  36  72 104 142 180 218 298 374 434
#     4  11  23  43  68 104 140 182 227 296 371 421
#     4  10  21  39  62 108 143 162 228 286 365 426
#
# _framework density 25.281406
#
# number of rings (size 3 to 8) (size 9 to 14) (size 15 to 20)
#    0.000    1.333    4.444    0.000    6.222    4.444 
#    0.000    0.000    0.000    0.000    0.000    0.000 
#    0.000    0.000    0.000    0.000    0.000    0.000 
#
# Total GULP energy -201152.067771 kJ/mol
# GULP energy per Si atom -5587.557438 kJ/mol
# Density = 2.522386 g / cm^3
# Si number density = 25.281406 Si / 1000 Ang^3
#
#
#
# Elastic Constant Matrix: (Units=GPa)
#
#
# Indices 1 2 3 4 5 6 
#
# 1 62.5857 31.0615 8.7075 0.0000 0.0000 0.0000
# 2 31.0615 81.8461 1.7965 0.0000 0.0000 0.0000
# 3 8.7075 1.7965 145.4046 0.0000 0.0000 0.0000
# 4 0.0000 0.0000 0.0000 19.5014 0.0000 0.0000
# 5 0.0000 0.0000 0.0000 0.0000 30.4971 0.0000
# 6 0.0000 0.0000 0.0000 0.0000 0.0000 26.3198
#
#
#
# Elastic Compliance Matrix: (Units=1/GPa)
#
#
# Indices 1 2 3 4 5 6 
#
# 1 0.019859 -0.007513 -0.001096 0.000000 0.000000 0.000000
# 2 -0.007513 0.015063 0.000264 0.000000 0.000000 0.000000
# 3 -0.001096 0.000264 0.006940 0.000000 0.000000 0.000000
# 4 0.000000 0.000000 0.000000 0.051278 0.000000 0.000000
# 5 0.000000 0.000000 0.000000 0.000000 0.032790 0.000000
# 6 0.000000 0.000000 0.000000 0.000000 0.000000 0.037994
#
#
# Mechanical properties :
#
#
# Convention : Reuss Voigt Hill
#
# Bulk Modulus (GPa) = 39.72722 41.44081 40.58401
# Shear Modulus (GPa) = 26.45411 31.81504 29.13458
#
# Velocity S-wave (km/s) = 3.23830 3.55129 3.39840
# Velocity P-wave (km/s) = 5.45254 5.76567 5.61129
#
# Compressibility (1/GPa) = 0.02517166
#
# Stress axis : x y z
#
# Youngs Moduli (GPa) = 50.35435 66.38589 144.09718
#
# Poissons Ratio (x) = 0.49874 0.15799
# Poissons Ratio (y) = 0.37830 -0.03801
# Poissons Ratio (z) = 0.05521 -0.01751
#
# Static dielectric constant tensor:
#      x y z
#    x 2.040990 0.000000 0.000000 
#    y 0.000000 2.024450 0.000000 
#    z 0.000000 0.000000 2.227070 
# 
# From -- ./inp_files/17580.got.cif
#   From: 2010.05.17/outbox.cif.g08.bks.cpg/sg60_9_cif.got.tgz:17580.got - 2010.06.03 14:59:27.
