data_PCOD9456159
_publ_section_title
;
Structure prediction by ZEFSAII (Michael W. Deem and Ramdas Pophale) SiO2 
 PCOD9456159
Probable space group: P B C N
;
_chemical_formula_sum "Si O2"
_cell_formula_units_Z 60
_cell_length_a 16.333210
_cell_length_b 10.085611
_cell_length_c 13.684629
_cell_angle_alpha 90.000000
_cell_angle_beta 90.000000
_cell_angle_gamma 90.000000
_cell_volume 2254.274442
_symmetry_space_group_name_H-M "P B C N"
_symmetry_group_IT_number 60
_symmetry_cell_setting 'orthorhombic'
loop_
_space_group_symop_operation_xyz
x,y,z
1/2-x,1/2-y,1/2+z
1/2+x,1/2-y,-z
-x,y,1/2-z
-x,-y,-z
1/2+x,1/2+y,1/2-z
1/2-x,1/2+y,z
x,-y,1/2+z
loop_
_atom_site_type_symbol
_atom_site_label
_atom_site_fract_x
_atom_site_fract_y
_atom_site_fract_z
Si Si1 0.388005 0.881097 0.133700
Si Si2 0.396693 0.972242 0.913702
Si Si3 0.033723 0.772406 0.898166
Si Si4 0.284512 0.463568 0.441548
Si Si5 0.601529 0.362986 0.415227
Si Si6 0.134640 0.032083 0.259859
Si Si7 0.253833 0.202691 0.128384
Si Si8 0.500000 0.927557 0.750000
O O1 0.441982 0.748188 0.138782
O O2 0.295220 0.839306 0.146445
O O3 0.426039 0.981222 0.209450
O O4 0.405410 0.936389 0.026824
O O5 0.426365 0.125181 0.901155
O O6 0.299206 0.971448 0.901884
O O7 0.453195 0.876957 0.846277
O O8 0.086192 0.862462 0.826134
O O9 0.031651 0.827468 0.008247
O O10 0.334771 0.564485 0.510575
O O11 0.333574 0.430044 0.343409
O O12 0.264026 0.346880 0.517752
O O13 0.584024 0.456633 0.324019
O O14 0.650282 0.236560 0.371086
O O15 0.211755 0.102275 0.204430
#
# Coordination Sequence:
#
# PCOD9456159 Si02
#       8
#     8   8   8   8   8   8   8   4
#     4  11  23  41  64  93 126 170 214 264 327 391
#     4  11  21  39  63  93 130 163 211 266 329 388
#     4  10  21  42  62  90 130 171 204 267 326 384
#     4  10  22  39  59  92 129 163 207 271 325 378
#     4  10  21  39  63  93 125 166 218 264 324 384
#     4  10  24  38  62  95 124 169 221 260 321 387
#     4  11  21  39  63  92 122 169 217 265 320 385
#     4  10  22  34  58  88 126 160 200 254 322 376
#
# _framework density 26.616101
#
# number of rings (size 3 to 8) (size 9 to 14) (size 15 to 20)
#    0.000    1.600    2.667    3.200    3.733    0.000 
#    2.400    7.333    0.000    0.000    0.000    0.000 
#    0.000    0.000    0.000    0.000    0.000    0.000 
#
# Total GULP energy -335862.995820 kJ/mol
# GULP energy per Si atom -5597.716597 kJ/mol
# Density = 2.655552 g / cm^3
# Si number density = 26.616101 Si / 1000 Ang^3
#
#
#
# Elastic Constant Matrix: (Units=GPa)
#
#
# Indices 1 2 3 4 5 6 
#
# 1 47.6022 10.6422 15.2110 0.0000 0.0000 0.0000
# 2 10.6422 73.3189 49.3879 0.0000 0.0000 0.0000
# 3 15.2110 49.3879 183.4915 0.0000 0.0000 0.0000
# 4 0.0000 0.0000 0.0000 42.8058 0.0000 0.0000
# 5 0.0000 0.0000 0.0000 0.0000 43.1522 0.0000
# 6 0.0000 0.0000 0.0000 0.0000 0.0000 27.6018
#
#
#
# Elastic Compliance Matrix: (Units=1/GPa)
#
#
# Indices 1 2 3 4 5 6 
#
# 1 0.021917 -0.002391 -0.001173 0.000000 0.000000 0.000000
# 2 -0.002391 0.016920 -0.004356 0.000000 0.000000 0.000000
# 3 -0.001173 -0.004356 0.006720 0.000000 0.000000 0.000000
# 4 0.000000 0.000000 0.000000 0.023361 0.000000 0.000000
# 5 0.000000 0.000000 0.000000 0.000000 0.023174 0.000000
# 6 0.000000 0.000000 0.000000 0.000000 0.000000 0.036229
#
#
# Mechanical properties :
#
#
# Convention : Reuss Voigt Hill
#
# Bulk Modulus (GPa) = 33.65153 50.54386 42.09769
# Shear Modulus (GPa) = 32.45338 37.99007 35.22172
#
# Velocity S-wave (km/s) = 3.49566 3.78211 3.64170
# Velocity P-wave (km/s) = 5.38178 6.17281 5.79082
#
# Compressibility (1/GPa) = 0.02971633
#
# Stress axis : x y z
#
# Youngs Moduli (GPa) = 45.62689 59.10063 148.81929
#
# Poissons Ratio (x) = 0.14130 0.17462
# Poissons Ratio (y) = 0.10909 0.64826
# Poissons Ratio (z) = 0.05354 0.25744
#
# Static dielectric constant tensor:
#      x y z
#    x 2.113390 0.000000 0.000000 
#    y 0.000000 2.138420 0.000000 
#    z 0.000000 0.000000 2.048390 
# 
# From -- ./inp_files/12870.got.cif
#   From: 2010.05.17/outbox.cif.g08.bks.cpg/sg60_7_cif.got.tgz:12870.got - 2010.06.03 14:59:27.
