data_PCOD9456281
_publ_section_title
;
Structure prediction by ZEFSAII (Michael W. Deem and Ramdas Pophale) SiO2 
 PCOD9456281
Probable space group: P B C N
;
_chemical_formula_sum "Si O2"
_cell_formula_units_Z 64
_cell_length_a 13.917543
_cell_length_b 12.384094
_cell_length_c 17.623860
_cell_angle_alpha 90.000000
_cell_angle_beta 90.000000
_cell_angle_gamma 90.000000
_cell_volume 3037.580847
_symmetry_space_group_name_H-M "P B C N"
_symmetry_group_IT_number 60
_symmetry_cell_setting 'orthorhombic'
loop_
_space_group_symop_operation_xyz
x,y,z
1/2-x,1/2-y,1/2+z
1/2+x,1/2-y,-z
-x,y,1/2-z
-x,-y,-z
1/2+x,1/2+y,1/2-z
1/2-x,1/2+y,z
x,-y,1/2+z
loop_
_atom_site_type_symbol
_atom_site_label
_atom_site_fract_x
_atom_site_fract_y
_atom_site_fract_z
Si Si1 0.897382 0.586448 0.818487
Si Si2 0.065042 0.173012 0.010255
Si Si3 0.103365 0.657326 0.222375
Si Si4 0.316657 0.889197 0.023304
Si Si5 0.724369 0.222670 0.700042
Si Si6 0.366388 0.745304 0.555925
Si Si7 0.524231 0.709429 0.167419
Si Si8 0.254689 0.910939 0.446372
O O1 0.901040 0.472808 0.776345
O O2 0.865651 0.557883 0.903623
O O3 0.823601 0.664617 0.773398
O O4 0.990872 0.663590 0.829259
O O5 0.118331 0.288133 0.001159
O O6 0.034482 0.159136 0.098231
O O7 0.147691 0.091768 0.983093
O O8 0.965678 0.187540 0.966272
O O9 0.187706 0.704401 0.274309
O O10 0.123103 0.698275 0.137121
O O11 0.000000 0.698339 0.250000
O O12 0.216879 0.843195 0.054480
O O13 0.298669 0.971095 0.955680
O O14 0.638581 0.291382 0.661114
O O15 0.753106 0.134128 0.638052
O O16 0.326580 0.832808 0.494605
O O17 0.500000 0.662394 0.250000
#
# Coordination Sequence:
#
# PCOD9456281 Si02
#       8
#     8   8   8   8   8   8   8   8
#     4  10  21  40  65  93 118 167 210 255 314 371
#     4  10  22  39  62  92 126 164 211 257 315 372
#     4  12  24  39  66  93 127 163 208 254 319 377
#     4  10  22  40  65  90 121 168 212 256 311 378
#     4  11  22  40  61  93 130 161 204 267 308 369
#     4  11  22  41  62  91 127 162 203 258 317 369
#     4   9  19  36  62  88 127 161 206 256 307 366
#     4  11  23  39  64  92 123 165 211 258 315 360
#
# _framework density 21.069398
#
# number of rings (size 3 to 8) (size 9 to 14) (size 15 to 20)
#    0.000    1.500    3.750    1.875    1.750    5.000 
#    0.000    0.000    0.000    0.000    0.000    0.000 
#    0.000    0.000    0.000    0.000    0.000    0.000 
#
# Total GULP energy -357435.185040 kJ/mol
# GULP energy per Si atom -5584.924766 kJ/mol
# Density = 2.102144 g / cm^3
# Si number density = 21.069398 Si / 1000 Ang^3
#
#
#
# Elastic Constant Matrix: (Units=GPa)
#
#
# Indices 1 2 3 4 5 6 
#
# 1 104.1892 3.8387 15.9429 0.0000 0.0000 0.0000
# 2 3.8387 19.3744 -3.0918 0.0000 0.0000 0.0000
# 3 15.9429 -3.0918 48.5731 0.0000 0.0000 0.0000
# 4 0.0000 0.0000 0.0000 13.4896 0.0000 0.0000
# 5 0.0000 0.0000 0.0000 0.0000 29.6058 0.0000
# 6 0.0000 0.0000 0.0000 0.0000 0.0000 0.6815
#
#
#
# Elastic Compliance Matrix: (Units=1/GPa)
#
#
# Indices 1 2 3 4 5 6 
#
# 1 0.010232 -0.002590 -0.003523 0.000000 0.000000 0.000000
# 2 -0.002590 0.052800 0.004211 0.000000 0.000000 0.000000
# 3 -0.003523 0.004211 0.022012 0.000000 0.000000 0.000000
# 4 0.000000 0.000000 0.000000 0.074131 0.000000 0.000000
# 5 0.000000 0.000000 0.000000 0.000000 0.033777 0.000000
# 6 0.000000 0.000000 0.000000 0.000000 0.000000 1.467262
#
#
# Mechanical properties :
#
#
# Convention : Reuss Voigt Hill
#
# Bulk Modulus (GPa) = 12.30928 22.83516 17.57222
# Shear Modulus (GPa) = 2.95666 19.11850 11.03758
#
# Velocity S-wave (km/s) = 1.18589 3.01559 2.29130
# Velocity P-wave (km/s) = 2.78030 4.79444 3.91897
#
# Compressibility (1/GPa) = 0.08123954
#
# Stress axis : x y z
#
# Youngs Moduli (GPa) = 97.72797 18.93956 45.42969
#
# Poissons Ratio (x) = 0.04905 0.16007
# Poissons Ratio (y) = 0.25308 -0.19130
# Poissons Ratio (z) = 0.34434 -0.07975
#
# Static dielectric constant tensor:
#      x y z
#    x 1.780030 0.000000 0.000000 
#    y 0.000000 1.748880 0.000000 
#    z 0.000000 0.000000 1.776180 
# 
# From -- ./inp_files/20672.got.cif
#   From: 2010.05.17/outbox.cif.g08.bks.cpg/sg60_11_cif.got.tgz:20672.got - 2010.06.03 14:59:27.
