data_PCOD9456387
_publ_section_title
;
Structure prediction by ZEFSAII (Michael W. Deem and Ramdas Pophale) SiO2 
 PCOD9456387
Probable space group: P B C N
;
_chemical_formula_sum "Si O2"
_cell_formula_units_Z 60
_cell_length_a 8.020833
_cell_length_b 14.605269
_cell_length_c 23.668780
_cell_angle_alpha 90.000000
_cell_angle_beta 90.000000
_cell_angle_gamma 90.000000
_cell_volume 2772.712927
_symmetry_space_group_name_H-M "P B C N"
_symmetry_group_IT_number 60
_symmetry_cell_setting 'orthorhombic'
loop_
_space_group_symop_operation_xyz
x,y,z
1/2-x,1/2-y,1/2+z
1/2+x,1/2-y,-z
-x,y,1/2-z
-x,-y,-z
1/2+x,1/2+y,1/2-z
1/2-x,1/2+y,z
x,-y,1/2+z
loop_
_atom_site_type_symbol
_atom_site_label
_atom_site_fract_x
_atom_site_fract_y
_atom_site_fract_z
Si Si1 0.736170 0.348115 0.974505
Si Si2 0.901297 0.537542 0.666844
Si Si3 0.123039 0.988656 0.428745
Si Si4 0.202549 0.173390 0.206890
Si Si5 0.742309 0.517999 0.378240
Si Si6 0.110619 0.259532 0.322666
Si Si7 0.384705 0.299851 0.944560
Si Si8 0.000000 0.385666 0.750000
O O1 0.814221 0.411947 0.926065
O O2 0.583641 0.299145 0.943776
O O3 0.663248 0.415767 0.022631
O O4 0.835738 0.269187 0.006122
O O5 0.760993 0.523775 0.619647
O O6 0.860224 0.636111 0.693338
O O7 0.894870 0.456671 0.712374
O O8 0.092396 0.536849 0.641864
O O9 0.153094 0.092482 0.451050
O O10 0.930828 0.979482 0.405839
O O11 0.175519 0.076471 0.175792
O O12 0.163880 0.190415 0.273156
O O13 0.400942 0.178236 0.206915
O O14 0.088733 0.245620 0.175913
O O15 0.181330 0.234549 0.383887
#
# Coordination Sequence:
#
# PCOD9456387 Si02
#       8
#     8   8   8   8   8   8   8   4
#     4  11  24  43  65 100 134 175 227 276 335 407
#     4  11  24  42  67  97 133 169 228 273 337 399
#     4  11  23  45  67  96 137 176 221 277 337 401
#     4  10  21  41  67  89 132 170 223 271 339 394
#     4  10  23  44  66 100 129 179 221 275 337 398
#     4  11  21  41  66  94 131 174 218 280 331 399
#     4  11  23  41  66 100 131 176 222 274 340 398
#     4  10  22  40  64  98 124 174 220 276 338 410
#
# _framework density 21.639455999999999
#
# number of rings (size 3 to 8) (size 9 to 14) (size 15 to 20)
#    0.000    1.333    4.000    3.200    3.733    2.667 
#    2.400    0.000    0.000    0.000    0.000    0.000 
#    0.000    0.000    0.000    0.000    0.000    0.000 
#
# Total GULP energy -334116.319783 kJ/mol
# GULP energy per Si atom -5568.605330 kJ/mol
# Density = 2.159020 g / cm^3
# Si number density = 21.639456 Si / 1000 Ang^3
#
#
#
# Elastic Constant Matrix: (Units=GPa)
#
#
# Indices 1 2 3 4 5 6 
#
# 1 39.1480 27.6512 13.3284 0.0000 0.0000 0.0000
# 2 27.6512 55.5344 17.6023 0.0000 0.0000 0.0000
# 3 13.3284 17.6023 108.9089 0.0000 0.0000 0.0000
# 4 0.0000 0.0000 0.0000 18.1679 0.0000 0.0000
# 5 0.0000 0.0000 0.0000 0.0000 43.7216 0.0000
# 6 0.0000 0.0000 0.0000 0.0000 0.0000 7.6011
#
#
#
# Elastic Compliance Matrix: (Units=1/GPa)
#
#
# Indices 1 2 3 4 5 6 
#
# 1 0.039716 -0.019219 -0.001754 0.000000 0.000000 0.000000
# 2 -0.019219 0.028279 -0.002219 0.000000 0.000000 0.000000
# 3 -0.001754 -0.002219 0.009755 0.000000 0.000000 0.000000
# 4 0.000000 0.000000 0.000000 0.055042 0.000000 0.000000
# 5 0.000000 0.000000 0.000000 0.000000 0.022872 0.000000
# 6 0.000000 0.000000 0.000000 0.000000 0.000000 0.131559
#
#
# Mechanical properties :
#
#
# Convention : Reuss Voigt Hill
#
# Bulk Modulus (GPa) = 31.88057 35.63946 33.76002
# Shear Modulus (GPa) = 14.53217 23.56543 19.04880
#
# Velocity S-wave (km/s) = 2.59426 3.30358 2.97017
# Velocity P-wave (km/s) = 4.87218 5.57288 5.23427
#
# Compressibility (1/GPa) = 0.03136706
#
# Stress axis : x y z
#
# Youngs Moduli (GPa) = 25.17859 35.36134 102.50887
#
# Poissons Ratio (x) = 0.67961 0.17983
# Poissons Ratio (y) = 0.48391 0.22743
# Poissons Ratio (z) = 0.04417 0.07845
#
# Static dielectric constant tensor:
#      x y z
#    x 1.964810 0.000000 0.000000 
#    y 0.000000 1.785060 0.000000 
#    z 0.000000 0.000000 1.903430 
# 
# From -- ./inp_files/24035.got.cif
#   From: 2010.05.17/outbox.cif.g08.bks.cpg/sg60_13_cif.got.tgz:24035.got - 2010.06.03 14:59:27.
