data_PCOD9456775
_publ_section_title
;
Structure prediction by ZEFSAII (Michael W. Deem and Ramdas Pophale) SiO2 
 PCOD9456775
Probable space group: P B C N
;
_chemical_formula_sum "Si O2"
_cell_formula_units_Z 48
_cell_length_a 16.788817
_cell_length_b 12.395196
_cell_length_c 11.217115
_cell_angle_alpha 90.000000
_cell_angle_beta 90.000000
_cell_angle_gamma 90.000000
_cell_volume 2334.289229
_symmetry_space_group_name_H-M "P B C N"
_symmetry_group_IT_number 60
_symmetry_cell_setting 'orthorhombic'
loop_
_space_group_symop_operation_xyz
x,y,z
1/2-x,1/2-y,1/2+z
1/2+x,1/2-y,-z
-x,y,1/2-z
-x,-y,-z
1/2+x,1/2+y,1/2-z
1/2-x,1/2+y,z
x,-y,1/2+z
loop_
_atom_site_type_symbol
_atom_site_label
_atom_site_fract_x
_atom_site_fract_y
_atom_site_fract_z
Si Si1 0.657305 0.351508 0.327721
Si Si2 0.426086 0.431736 0.659515
Si Si3 0.593926 0.771444 0.222898
Si Si4 0.849073 0.185289 0.547878
Si Si5 0.668290 0.097123 0.928668
Si Si6 0.166367 0.350480 0.522344
O O1 0.599279 0.446983 0.366114
O O2 0.654870 0.349855 0.184559
O O3 0.739871 0.387843 0.389890
O O4 0.642523 0.230365 0.372013
O O5 0.500000 0.443538 0.750000
O O6 0.372225 0.346345 0.737111
O O7 0.418943 0.370742 0.531176
O O8 0.500000 0.765435 0.250000
O O9 0.624099 0.862770 0.310998
O O10 0.622169 0.801348 0.092510
O O11 0.853401 0.314462 0.529225
O O12 0.762203 0.154312 0.494888
O O13 0.647296 0.975601 0.960528
#
# Coordination Sequence:
#
# PCOD9456775 Si02
#       6
#     8   8   8   8   8   8
#     4  11  23  38  66 100 130 167 230 274 333 398
#     4  10  23  44  65  95 135 176 215 276 348 398
#     4  10  23  44  65  90 132 179 218 267 345 399
#     4  10  22  39  64  99 129 172 222 277 331 399
#     4  10  22  40  64  94 131 175 218 278 330 393
#     4  11  23  39  67  97 128 174 227 279 326 398
#
# _framework density 20.563006000000001
#
# number of rings (size 3 to 8) (size 9 to 14) (size 15 to 20)
#    0.000    1.667    3.333    0.000    4.667    1.333 
#    6.000    0.833    0.000    0.000    0.000    0.000 
#    0.000    0.000    0.000    0.000    0.000    0.000 
#
# Total GULP energy -267402.730849 kJ/mol
# GULP energy per Si atom -5570.890226 kJ/mol
# Density = 2.051620 g / cm^3
# Si number density = 20.563006 Si / 1000 Ang^3
#
#
#
# Elastic Constant Matrix: (Units=GPa)
#
#
# Indices 1 2 3 4 5 6 
#
# 1 36.7528 -6.8074 -9.3556 0.0000 0.0000 0.0000
# 2 -6.8074 132.5021 4.4627 0.0000 0.0000 0.0000
# 3 -9.3556 4.4627 55.8124 0.0000 0.0000 0.0000
# 4 0.0000 0.0000 0.0000 17.5436 0.0000 0.0000
# 5 0.0000 0.0000 0.0000 0.0000 19.4557 0.0000
# 6 0.0000 0.0000 0.0000 0.0000 0.0000 15.8889
#
#
#
# Elastic Compliance Matrix: (Units=1/GPa)
#
#
# Indices 1 2 3 4 5 6 
#
# 1 0.028648 0.001314 0.004697 0.000000 0.000000 0.000000
# 2 0.001314 0.007628 -0.000390 0.000000 0.000000 0.000000
# 3 0.004697 -0.000390 0.018736 0.000000 0.000000 0.000000
# 4 0.000000 0.000000 0.000000 0.057001 0.000000 0.000000
# 5 0.000000 0.000000 0.000000 0.000000 0.051399 0.000000
# 6 0.000000 0.000000 0.000000 0.000000 0.000000 0.062937
#
#
# Mechanical properties :
#
#
# Convention : Reuss Voigt Hill
#
# Bulk Modulus (GPa) = 15.09366 22.40743 18.75055
# Shear Modulus (GPa) = 21.08015 26.36217 23.72116
#
# Velocity S-wave (km/s) = 3.20527 3.58441 3.40013
# Velocity P-wave (km/s) = 4.58851 5.29635 4.95509
#
# Compressibility (1/GPa) = 0.06625298
#
# Stress axis : x y z
#
# Youngs Moduli (GPa) = 34.90676 131.10178 53.37415
#
# Poissons Ratio (x) = -0.17221 -0.25070
# Poissons Ratio (y) = -0.04585 0.02080
# Poissons Ratio (z) = -0.16396 0.05109
#
# Static dielectric constant tensor:
#      x y z
#    x 1.700960 0.000000 0.000000 
#    y 0.000000 1.754040 0.000000 
#    z 0.000000 0.000000 1.746570 
# 
# From -- ./inp_files/12422.got.cif
#   From: 2010.05.17/outbox.cif.g08.bks.cpg/sg60_7_cif.got.tgz:12422.got - 2010.06.03 14:59:27.
