data_PCOD9456753
_publ_section_title
;
Structure prediction by ZEFSAII (Michael W. Deem and Ramdas Pophale) SiO2 
 PCOD9456753
Probable space group: P B C N
;
_chemical_formula_sum "Si O2"
_cell_formula_units_Z 48
_cell_length_a 5.147365
_cell_length_b 26.122183
_cell_length_c 16.478470
_cell_angle_alpha 90.000000
_cell_angle_beta 90.000000
_cell_angle_gamma 90.000000
_cell_volume 2215.701841
_symmetry_space_group_name_H-M "P B C N"
_symmetry_group_IT_number 60
_symmetry_cell_setting 'orthorhombic'
loop_
_space_group_symop_operation_xyz
x,y,z
1/2-x,1/2-y,1/2+z
1/2+x,1/2-y,-z
-x,y,1/2-z
-x,-y,-z
1/2+x,1/2+y,1/2-z
1/2-x,1/2+y,z
x,-y,1/2+z
loop_
_atom_site_type_symbol
_atom_site_label
_atom_site_fract_x
_atom_site_fract_y
_atom_site_fract_z
Si Si1 0.933639 0.591823 0.654572
Si Si2 0.656343 0.773718 0.543726
Si Si3 0.315504 0.629237 0.530130
Si Si4 0.590949 0.546411 0.441193
Si Si5 0.388581 0.976497 0.841497
Si Si6 0.906266 0.191580 0.659171
O O1 0.799359 0.646585 0.643742
O O2 0.000000 0.593518 0.750000
O O3 0.147483 0.589947 0.583336
O O4 0.802369 0.536269 0.650033
O O5 0.389082 0.757462 0.500397
O O6 0.689897 0.834691 0.538287
O O7 0.664108 0.748554 0.632740
O O8 0.557926 0.598317 0.493700
O O9 0.374465 0.671915 0.598019
O O10 0.500000 0.500000 0.500000
O O11 0.872694 0.536487 0.402409
O O12 0.371109 0.551898 0.370788
O O13 0.500000 0.968753 0.750000
O O14 0.000000 0.188708 0.750000
#
# Coordination Sequence:
#
# PCOD9456753 Si02
#       6
#     8   8   8   8   8   8
#     4  11  21  36  61  94 127 166 207 270 339 389
#     4  10  22  39  61  89 126 167 205 258 324 388
#     4  11  23  38  62  92 131 166 218 270 327 392
#     4  12  24  41  65  99 129 175 224 276 329 396
#     4  11  26  43  65  90 135 176 220 270 334 397
#     4  11  22  38  63  95 131 166 213 272 338 400
#
# _framework density 21.663564000000001
#
# number of rings (size 3 to 8) (size 9 to 14) (size 15 to 20)
#    0.000    1.000    5.000    2.000    2.333    0.000 
#    0.000    0.833    0.000   10.000    0.000    0.000 
#    0.000    0.000    0.000    0.000    0.000    0.000 
#
# Total GULP energy -267540.627335 kJ/mol
# GULP energy per Si atom -5573.763069 kJ/mol
# Density = 2.161426 g / cm^3
# Si number density = 21.663564 Si / 1000 Ang^3
#
#
#
# Elastic Constant Matrix: (Units=GPa)
#
#
# Indices 1 2 3 4 5 6 
#
# 1 125.6042 26.8551 8.8203 0.0000 0.0000 0.0000
# 2 26.8551 89.3119 39.1527 0.0000 0.0000 0.0000
# 3 8.8203 39.1527 94.2984 0.0000 0.0000 0.0000
# 4 0.0000 0.0000 0.0000 83.0049 0.0000 0.0000
# 5 0.0000 0.0000 0.0000 0.0000 32.4566 0.0000
# 6 0.0000 0.0000 0.0000 0.0000 0.0000 26.4430
#
#
#
# Elastic Compliance Matrix: (Units=1/GPa)
#
#
# Indices 1 2 3 4 5 6 
#
# 1 0.008517 -0.002704 0.000326 0.000000 0.000000 0.000000
# 2 -0.002704 0.014547 -0.005787 0.000000 0.000000 0.000000
# 3 0.000326 -0.005787 0.012977 0.000000 0.000000 0.000000
# 4 0.000000 0.000000 0.000000 0.012047 0.000000 0.000000
# 5 0.000000 0.000000 0.000000 0.000000 0.030810 0.000000
# 6 0.000000 0.000000 0.000000 0.000000 0.000000 0.037817
#
#
# Mechanical properties :
#
#
# Convention : Reuss Voigt Hill
#
# Bulk Modulus (GPa) = 50.73347 50.98563 50.85955
# Shear Modulus (GPa) = 35.81286 44.00667 39.90977
#
# Velocity S-wave (km/s) = 4.07029 4.51196 4.29680
# Velocity P-wave (km/s) = 6.74977 7.12250 6.93864
#
# Compressibility (1/GPa) = 0.01971085
#
# Stress axis : x y z
#
# Youngs Moduli (GPa) = 117.41624 68.74486 77.06042
#
# Poissons Ratio (x) = 0.18587 -0.02512
# Poissons Ratio (y) = 0.31747 0.44593
# Poissons Ratio (z) = -0.03828 0.39781
#
# Static dielectric constant tensor:
#      x y z
#    x 1.899880 0.000000 0.000000 
#    y 0.000000 1.800940 0.000000 
#    z 0.000000 0.000000 1.905270 
# 
# From -- ./inp_files/13933.got.cif
#   From: 2010.05.17/outbox.cif.g08.bks.cpg/sg60_7_cif.got.tgz:13933.got - 2010.06.03 14:59:27.
