data_PCOD9456586
_publ_section_title
;
Structure prediction by ZEFSAII (Michael W. Deem and Ramdas Pophale) SiO2 
 PCOD9456586
Probable space group: P B C N
;
_chemical_formula_sum "Si O2"
_cell_formula_units_Z 60
_cell_length_a 19.955252
_cell_length_b 28.881648
_cell_length_c 5.274186
_cell_angle_alpha 90.000000
_cell_angle_beta 90.000000
_cell_angle_gamma 90.000000
_cell_volume 3039.727334
_symmetry_space_group_name_H-M "P B C N"
_symmetry_group_IT_number 60
_symmetry_cell_setting 'orthorhombic'
loop_
_space_group_symop_operation_xyz
x,y,z
1/2-x,1/2-y,1/2+z
1/2+x,1/2-y,-z
-x,y,1/2-z
-x,-y,-z
1/2+x,1/2+y,1/2-z
1/2-x,1/2+y,z
x,-y,1/2+z
loop_
_atom_site_type_symbol
_atom_site_label
_atom_site_fract_x
_atom_site_fract_y
_atom_site_fract_z
Si Si1 0.732816 0.722396 0.745980
Si Si2 0.919994 0.365655 0.712960
Si Si3 0.418177 0.473532 0.754729
Si Si4 0.633920 0.818664 0.211434
Si Si5 0.918381 0.527258 0.253995
Si Si6 0.895705 0.782393 0.920151
Si Si7 0.424546 0.629163 0.369376
Si Si8 0.000000 0.178058 0.750000
O O1 0.761668 0.756807 0.526497
O O2 0.785257 0.680344 0.735704
O O3 0.657828 0.716153 0.648615
O O4 0.899554 0.349098 0.432742
O O5 0.898893 0.419019 0.750738
O O6 0.000000 0.362713 0.750000
O O7 0.887380 0.334268 0.932303
O O8 0.500000 0.473180 0.750000
O O9 0.397235 0.492169 0.480688
O O10 0.396092 0.421417 0.821088
O O11 0.612065 0.765898 0.275794
O O12 0.896210 0.500389 0.505031
O O13 0.000000 0.526890 0.250000
O O14 0.885070 0.828057 0.750826
O O15 0.969425 0.789002 0.037202
O O16 0.500000 0.628373 0.250000
O O17 0.441422 0.643905 0.655680
#
# Coordination Sequence:
#
# PCOD9456586 Si02
#       8
#     8   8   8   8   8   8   8   4
#     4  10  22  41  60  78 108 154 208 244 271 332
#     4  11  23  36  55  89 123 150 190 241 293 352
#     4   9  18  29  48  71 102 139 174 221 279 327
#     4  11  23  38  56  83 118 155 192 239 286 340
#     4   9  17  32  54  78 112 152 187 227 283 342
#     4  10  23  37  57  79 114 155 194 230 289 337
#     4   9  20  33  49  79 110 141 183 225 272 348
#     4  10  22  34  54  82 118 144 192 228 284 352
#
# _framework density 19.738612
#
# number of rings (size 3 to 8) (size 9 to 14) (size 15 to 20)
#    0.000    2.133    0.000    2.800   13.067    4.267 
#    0.000    0.000    0.000    0.000    0.000    5.600 
#    0.000    0.000    0.000    0.000    0.000    0.000 
#
# Total GULP energy -334714.205075 kJ/mol
# GULP energy per Si atom -5578.570085 kJ/mol
# Density = 1.969369 g / cm^3
# Si number density = 19.738612 Si / 1000 Ang^3
#
#
#
# Elastic Constant Matrix: (Units=GPa)
#
#
# Indices 1 2 3 4 5 6 
#
# 1 19.0585 9.0335 -4.4902 0.0000 0.0000 0.0000
# 2 9.0335 115.9537 18.5729 0.0000 0.0000 0.0000
# 3 -4.4902 18.5729 65.2191 0.0000 0.0000 0.0000
# 4 0.0000 0.0000 0.0000 28.4840 0.0000 0.0000
# 5 0.0000 0.0000 0.0000 0.0000 29.3322 0.0000
# 6 0.0000 0.0000 0.0000 0.0000 0.0000 -3.0880
#
#
#
# Elastic Compliance Matrix: (Units=1/GPa)
#
#
# Indices 1 2 3 4 5 6 
#
# 1 0.056216 -0.005238 0.005362 0.000000 0.000000 0.000000
# 2 -0.005238 0.009524 -0.003073 0.000000 0.000000 0.000000
# 3 0.005362 -0.003073 0.016577 0.000000 0.000000 0.000000
# 4 0.000000 0.000000 0.000000 0.035107 0.000000 0.000000
# 5 0.000000 0.000000 0.000000 0.000000 0.034092 0.000000
# 6 0.000000 0.000000 0.000000 0.000000 0.000000 -0.323832
#
#
# Mechanical properties :
#
#
# Convention : Reuss Voigt Hill
#
# Bulk Modulus (GPa) = 13.08571 27.38487 20.23529
# Shear Modulus (GPa) = -35.47551 22.75329 -6.36111
#
# Velocity S-wave (km/s) = -4.24402 3.39887 -1.79713
# Velocity P-wave (km/s) = 4.16793 5.41359 2.44288
#
# Compressibility (1/GPa) = 0.07641922
#
# Stress axis : x y z
#
# Youngs Moduli (GPa) = 17.78846 104.99279 60.32377
#
# Poissons Ratio (x) = 0.55000 -0.32346
# Poissons Ratio (y) = 0.09318 0.18538
# Poissons Ratio (z) = -0.09538 0.32264
#
# Static dielectric constant tensor:
#      x y z
#    x 1.736270 0.000000 0.000000 
#    y 0.000000 1.688650 0.000000 
#    z 0.000000 0.000000 1.757950 
# 
# From -- ./inp_files/2181.got.cif
#   From: 2010.05.17/outbox.cif.g08.bks.cpg/sg60_2_cif.got.tgz:2181.got - 2010.06.03 14:59:27.
