data_PCOD9456347
_publ_section_title
;
Structure prediction by ZEFSAII (Michael W. Deem and Ramdas Pophale) SiO2 
 PCOD9456347
Probable space group: P B C N
;
_chemical_formula_sum "Si O2"
_cell_formula_units_Z 40
_cell_length_a 11.716368
_cell_length_b 29.369883
_cell_length_c 5.032473
_cell_angle_alpha 90.000000
_cell_angle_beta 90.000000
_cell_angle_gamma 90.000000
_cell_volume 1731.716017
_symmetry_space_group_name_H-M "P B C N"
_symmetry_group_IT_number 60
_symmetry_cell_setting 'orthorhombic'
loop_
_space_group_symop_operation_xyz
x,y,z
1/2-x,1/2-y,1/2+z
1/2+x,1/2-y,-z
-x,y,1/2-z
-x,-y,-z
1/2+x,1/2+y,1/2-z
1/2-x,1/2+y,z
x,-y,1/2+z
loop_
_atom_site_type_symbol
_atom_site_label
_atom_site_fract_x
_atom_site_fract_y
_atom_site_fract_z
Si Si1 0.500000 0.320816 0.250000
Si Si2 0.500000 0.389420 0.750000
Si Si3 0.686146 0.753111 0.566065
Si Si4 0.162575 0.971927 0.888562
Si Si5 0.917501 0.553896 0.996371
Si Si6 0.575225 0.846240 0.496663
O O1 0.504715 0.355255 0.499432
O O2 0.396575 0.285666 0.316701
O O3 0.606422 0.424700 0.710500
O O4 0.702458 0.748848 0.251195
O O5 0.649583 0.805048 0.597408
O O6 0.300313 0.969669 0.915096
O O7 0.127683 0.010967 0.679454
O O8 0.000000 0.554020 0.250000
O O9 0.874420 0.605082 0.915860
O O10 0.000000 0.539960 0.750000
O O11 0.500000 0.829831 0.250000
O O12 0.500000 0.856981 0.750000
#
# Coordination Sequence:
#
# PCOD9456347 Si02
#       6
#     4   4   8   8   8   8
#     4  12  28  47  72 110 146 190 236 303 342 414
#     4  12  28  51  72 104 146 188 254 295 360 432
#     4  12  26  42  69 103 141 190 235 286 346 414
#     4  12  26  47  76 101 137 186 240 307 370 436
#     4  10  23  41  67 105 140 181 228 292 367 438
#     4  10  21  41  63  91 140 183 220 275 340 421
#
# _framework density 23.098476000000002
#
# number of rings (size 3 to 8) (size 9 to 14) (size 15 to 20)
#    0.000    0.800    1.000    5.400    7.000    2.400 
#    0.000    0.000    0.000    0.000    0.000    0.000 
#    0.000    0.000    0.000    0.000    0.000    0.000 
#
# Total GULP energy -223187.778375 kJ/mol
# GULP energy per Si atom -5579.694459 kJ/mol
# Density = 2.304590 g / cm^3
# Si number density = 23.098476 Si / 1000 Ang^3
#
#
#
# Elastic Constant Matrix: (Units=GPa)
#
#
# Indices 1 2 3 4 5 6 
#
# 1 80.0259 17.2199 8.9850 0.0000 0.0000 0.0000
# 2 17.2199 134.5359 -6.4729 0.0000 0.0000 0.0000
# 3 8.9850 -6.4729 99.5897 0.0000 0.0000 0.0000
# 4 0.0000 0.0000 0.0000 75.8973 0.0000 0.0000
# 5 0.0000 0.0000 0.0000 0.0000 32.2417 0.0000
# 6 0.0000 0.0000 0.0000 0.0000 0.0000 -127.4281
#
#
#
# Elastic Compliance Matrix: (Units=1/GPa)
#
#
# Indices 1 2 3 4 5 6 
#
# 1 0.013012 -0.001727 -0.001286 0.000000 0.000000 0.000000
# 2 -0.001727 0.007686 0.000655 0.000000 0.000000 0.000000
# 3 -0.001286 0.000655 0.010200 0.000000 0.000000 0.000000
# 4 0.000000 0.000000 0.000000 0.013176 0.000000 0.000000
# 5 0.000000 0.000000 0.000000 0.000000 0.031016 0.000000
# 6 0.000000 0.000000 0.000000 0.000000 0.000000 -0.007848
#
#
# Mechanical properties :
#
#
# Convention : Reuss Voigt Hill
#
# Bulk Modulus (GPa) = 38.19554 39.29061 38.74307
# Shear Modulus (GPa) = 61.96953 15.77014 38.86984
#
# Velocity S-wave (km/s) = 5.18523 2.61575 4.10663
# Velocity P-wave (km/s) = 7.24022 5.11565 6.26860
#
# Compressibility (1/GPa) = 0.02618107
#
# Stress axis : x y z
#
# Youngs Moduli (GPa) = 76.85183 130.11371 98.04082
#
# Poissons Ratio (x) = 0.22475 0.12610
# Poissons Ratio (y) = 0.13275 -0.06425
# Poissons Ratio (z) = 0.09885 -0.08527
#
# Static dielectric constant tensor:
#      x y z
#    x 1.928760 0.000000 0.000000 
#    y 0.000000 1.958480 0.000000 
#    z 0.000000 0.000000 1.854240 
# 
# From -- ./inp_files/873.got.cif
#   From: 2010.05.17/outbox.cif.g08.bks.cpg/sg60_1_cif.got.tgz:873.got - 2010.06.03 14:59:27.
