data_PCOD9456488
_publ_section_title
;
Structure prediction by ZEFSAII (Michael W. Deem and Ramdas Pophale) SiO2 
 PCOD9456488
Probable space group: P B C N
;
_chemical_formula_sum "Si O2"
_cell_formula_units_Z 56
_cell_length_a 8.124605
_cell_length_b 13.677394
_cell_length_c 22.636659
_cell_angle_alpha 90.000000
_cell_angle_beta 90.000000
_cell_angle_gamma 90.000000
_cell_volume 2515.463049
_symmetry_space_group_name_H-M "P B C N"
_symmetry_group_IT_number 60
_symmetry_cell_setting 'orthorhombic'
loop_
_space_group_symop_operation_xyz
x,y,z
1/2-x,1/2-y,1/2+z
1/2+x,1/2-y,-z
-x,y,1/2-z
-x,-y,-z
1/2+x,1/2+y,1/2-z
1/2-x,1/2+y,z
x,-y,1/2+z
loop_
_atom_site_type_symbol
_atom_site_label
_atom_site_fract_x
_atom_site_fract_y
_atom_site_fract_z
Si Si1 0.807315 0.351369 0.642551
Si Si2 0.082981 0.147895 0.459707
Si Si3 0.226279 0.339835 0.129729
Si Si4 0.220308 0.998332 0.541674
Si Si5 0.580660 0.055945 0.684890
Si Si6 0.201253 0.727065 0.756166
Si Si7 0.907019 0.308981 0.944125
O O1 0.637179 0.337428 0.607261
O O2 0.857759 0.463100 0.650457
O O3 0.784730 0.313020 0.708638
O O4 0.943670 0.298454 0.602138
O O5 0.064648 0.247655 0.496273
O O6 0.926482 0.078616 0.467195
O O7 0.225116 0.079352 0.490092
O O8 0.312037 0.433611 0.099181
O O9 0.277969 0.298706 0.193404
O O10 0.253633 0.248409 0.086504
O O11 0.047495 0.384164 0.144507
O O12 0.371015 0.923340 0.546867
O O13 0.500000 0.031191 0.750000
O O14 0.720751 0.132123 0.702544
O O15 0.000000 0.742664 0.750000
#
# Coordination Sequence:
#
# PCOD9456488 Si02
#       7
#     8   8   8   8   8   8   8
#     4  12  24  41  70 100 126 180 222 276 337 408
#     4  10  25  41  60  99 134 168 225 280 338 398
#     4   9  20  41  65  93 128 176 213 274 336 394
#     4  10  21  43  64  90 134 173 221 275 337 404
#     4   9  21  42  62  94 132 166 216 270 326 395
#     4   9  23  42  63 100 135 165 216 277 330 394
#     4  11  23  39  69  95 128 178 225 273 332 406
#
# _framework density 22.262302999999999
#
# number of rings (size 3 to 8) (size 9 to 14) (size 15 to 20)
#    0.000    2.286    1.429    0.857    6.000    5.143 
#    0.000    1.429    0.000    0.000    0.000    0.000 
#    0.000    0.000    0.000    0.000    0.000    0.000 
#
# Total GULP energy -312363.592483 kJ/mol
# GULP energy per Si atom -5577.921294 kJ/mol
# Density = 2.221163 g / cm^3
# Si number density = 22.262303 Si / 1000 Ang^3
#
#
#
# Elastic Constant Matrix: (Units=GPa)
#
#
# Indices 1 2 3 4 5 6 
#
# 1 23.7399 1.0239 3.8269 0.0000 0.0000 0.0000
# 2 1.0239 85.5732 18.4503 0.0000 0.0000 0.0000
# 3 3.8269 18.4503 52.1603 0.0000 0.0000 0.0000
# 4 0.0000 0.0000 0.0000 23.7552 0.0000 0.0000
# 5 0.0000 0.0000 0.0000 0.0000 29.5890 0.0000
# 6 0.0000 0.0000 0.0000 0.0000 0.0000 20.6611
#
#
#
# Elastic Compliance Matrix: (Units=1/GPa)
#
#
# Indices 1 2 3 4 5 6 
#
# 1 0.042630 0.000178 -0.003191 0.000000 0.000000 0.000000
# 2 0.000178 0.012651 -0.004488 0.000000 0.000000 0.000000
# 3 -0.003191 -0.004488 0.020993 0.000000 0.000000 0.000000
# 4 0.000000 0.000000 0.000000 0.042096 0.000000 0.000000
# 5 0.000000 0.000000 0.000000 0.000000 0.033796 0.000000
# 6 0.000000 0.000000 0.000000 0.000000 0.000000 0.048400
#
#
# Mechanical properties :
#
#
# Convention : Reuss Voigt Hill
#
# Bulk Modulus (GPa) = 16.32042 23.11950 19.71996
# Shear Modulus (GPa) = 21.18703 24.01253 22.59978
#
# Velocity S-wave (km/s) = 3.08831 3.28780 3.18961
# Velocity P-wave (km/s) = 4.47926 4.98201 4.73731
#
# Compressibility (1/GPa) = 0.06127292
#
# Stress axis : x y z
#
# Youngs Moduli (GPa) = 23.45771 79.04221 47.63414
#
# Poissons Ratio (x) = -0.01406 0.15198
# Poissons Ratio (y) = -0.00417 0.21379
# Poissons Ratio (z) = 0.07484 0.35476
#
# Static dielectric constant tensor:
#      x y z
#    x 1.920670 0.000000 0.000000 
#    y 0.000000 1.793500 0.000000 
#    z 0.000000 0.000000 1.852950 
# 
# From -- ./inp_files/22207.got.cif
#   From: 2010.05.17/outbox.cif.g08.bks.cpg/sg60_12_cif.got.tgz:22207.got - 2010.06.03 14:59:27.
