data_PCOD9456398
_publ_section_title
;
Structure prediction by ZEFSAII (Michael W. Deem and Ramdas Pophale) SiO2 
 PCOD9456398
Probable space group: P B C N
;
_chemical_formula_sum "Si O2"
_cell_formula_units_Z 40
_cell_length_a 4.975008
_cell_length_b 15.333724
_cell_length_c 20.769552
_cell_angle_alpha 90.000000
_cell_angle_beta 90.000000
_cell_angle_gamma 90.000000
_cell_volume 1584.413573
_symmetry_space_group_name_H-M "P B C N"
_symmetry_group_IT_number 60
_symmetry_cell_setting 'orthorhombic'
loop_
_space_group_symop_operation_xyz
x,y,z
1/2-x,1/2-y,1/2+z
1/2+x,1/2-y,-z
-x,y,1/2-z
-x,-y,-z
1/2+x,1/2+y,1/2-z
1/2-x,1/2+y,z
x,-y,1/2+z
loop_
_atom_site_type_symbol
_atom_site_label
_atom_site_fract_x
_atom_site_fract_y
_atom_site_fract_z
Si Si1 0.000000 0.692906 0.750000
Si Si2 0.247995 0.725943 0.564397
Si Si3 0.636996 0.480248 0.612069
Si Si4 0.156213 0.897210 0.496681
Si Si5 0.772136 0.286024 0.637330
Si Si6 0.500000 0.568730 0.750000
O O1 0.840947 0.759842 0.705208
O O2 0.761556 0.625718 0.767953
O O3 0.309765 0.811669 0.521128
O O4 0.368754 0.642128 0.528548
O O5 0.448597 0.739930 0.624048
O O6 0.954614 0.741855 0.592249
O O7 0.398833 0.452481 0.561540
O O8 0.785244 0.388858 0.624813
O O9 0.564613 0.517237 0.682691
O O10 0.222946 0.449396 0.435873
#
# Coordination Sequence:
#
# PCOD9456398 Si02
#       6
#     4   8   8   8   8   4
#     4  12  25  46  71  92 132 184 230 276 341 418
#     4  11  23  41  68 100 136 179 229 275 340 417
#     4  10  23  42  67 100 137 173 224 286 344 398
#     4  10  21  41  68 100 137 178 222 281 342 402
#     4  11  24  43  68  99 135 179 229 285 341 410
#     4  12  27  46  69  98 134 182 234 284 343 420
#
# _framework density 25.245932
#
# number of rings (size 3 to 8) (size 9 to 14) (size 15 to 20)
#    0.000    1.200    0.000    6.600    0.000    4.000 
#    0.000   12.000    0.000    0.000    0.000    0.000 
#    0.000    0.000    0.000    0.000    0.000    0.000 
#
# Total GULP energy -223337.431869 kJ/mol
# GULP energy per Si atom -5583.435797 kJ/mol
# Density = 2.518847 g / cm^3
# Si number density = 25.245932 Si / 1000 Ang^3
#
#
#
# Elastic Constant Matrix: (Units=GPa)
#
#
# Indices 1 2 3 4 5 6 
#
# 1 37.4220 27.0808 -12.1317 0.0000 0.0000 0.0000
# 2 27.0808 134.1579 49.2550 0.0000 0.0000 0.0000
# 3 -12.1317 49.2550 145.3964 0.0000 0.0000 0.0000
# 4 0.0000 0.0000 0.0000 63.9870 0.0000 0.0000
# 5 0.0000 0.0000 0.0000 0.0000 28.4083 0.0000
# 6 0.0000 0.0000 0.0000 0.0000 0.0000 35.0045
#
#
#
# Elastic Compliance Matrix: (Units=1/GPa)
#
#
# Indices 1 2 3 4 5 6 
#
# 1 0.035552 -0.009439 0.006164 0.000000 0.000000 0.000000
# 2 -0.009439 0.011019 -0.004520 0.000000 0.000000 0.000000
# 3 0.006164 -0.004520 0.008923 0.000000 0.000000 0.000000
# 4 0.000000 0.000000 0.000000 0.015628 0.000000 0.000000
# 5 0.000000 0.000000 0.000000 0.000000 0.035201 0.000000
# 6 0.000000 0.000000 0.000000 0.000000 0.000000 0.028568
#
#
# Mechanical properties :
#
#
# Convention : Reuss Voigt Hill
#
# Bulk Modulus (GPa) = 25.06114 49.48717 37.27415
# Shear Modulus (GPa) = 30.52815 42.33144 36.42980
#
# Velocity S-wave (km/s) = 3.48117 4.09927 3.80280
# Velocity P-wave (km/s) = 5.10944 6.48459 5.83765
#
# Compressibility (1/GPa) = 0.03990241
#
# Stress axis : x y z
#
# Youngs Moduli (GPa) = 28.12814 90.75246 112.06448
#
# Poissons Ratio (x) = 0.85666 -0.69078
# Poissons Ratio (y) = 0.26552 0.50658
# Poissons Ratio (z) = -0.17339 0.41024
#
# Static dielectric constant tensor:
#      x y z
#    x 2.039850 0.000000 0.000000 
#    y 0.000000 2.044610 0.000000 
#    z 0.000000 0.000000 2.109270 
# 
# From -- ./inp_files/18571.got.cif
#   From: 2010.05.17/outbox.cif.g08.bks.cpg/sg60_10_cif.got.tgz:18571.got - 2010.06.03 14:59:27.
