data_PCOD9456254
_publ_section_title
;
Structure prediction by ZEFSAII (Michael W. Deem and Ramdas Pophale) SiO2 
 PCOD9456254
Probable space group: P B C N
;
_chemical_formula_sum "Si O2"
_cell_formula_units_Z 48
_cell_length_a 15.294130
_cell_length_b 8.574489
_cell_length_c 16.202360
_cell_angle_alpha 90.000000
_cell_angle_beta 90.000000
_cell_angle_gamma 90.000000
_cell_volume 2124.766950
_symmetry_space_group_name_H-M "P B C N"
_symmetry_group_IT_number 60
_symmetry_cell_setting 'orthorhombic'
loop_
_space_group_symop_operation_xyz
x,y,z
1/2-x,1/2-y,1/2+z
1/2+x,1/2-y,-z
-x,y,1/2-z
-x,-y,-z
1/2+x,1/2+y,1/2-z
1/2-x,1/2+y,z
x,-y,1/2+z
loop_
_atom_site_type_symbol
_atom_site_label
_atom_site_fract_x
_atom_site_fract_y
_atom_site_fract_z
Si Si1 0.307158 0.679075 0.058103
Si Si2 0.474572 0.939126 0.409134
Si Si3 0.853067 0.905281 0.130697
Si Si4 0.844482 0.488974 0.864239
Si Si5 0.191541 0.423795 0.818715
Si Si6 0.016059 0.929147 0.590994
O O1 0.325922 0.853588 0.085709
O O2 0.208937 0.638113 0.083614
O O3 0.379976 0.574139 0.106186
O O4 0.331579 0.654586 0.962501
O O5 0.551150 0.021051 0.356192
O O6 0.484842 0.751605 0.405906
O O7 0.500000 0.000000 0.500000
O O8 0.380998 0.993960 0.376505
O O9 0.830728 0.757915 0.186557
O O10 0.786798 0.046991 0.144378
O O11 0.951053 0.965548 0.143917
O O12 0.809194 0.495129 0.772107
O O13 0.000000 0.000000 0.500000
#
# Coordination Sequence:
#
# PCOD9456254 Si02
#       6
#     8   8   8   8   8   8
#     4  10  21  40  63  90 122 164 210 256 310 376
#     4  11  22  40  65  90 123 169 215 264 317 382
#     4  11  22  40  65  93 123 166 216 263 315 386
#     4  11  24  40  60  90 127 163 204 264 322 372
#     4  12  24  40  61  92 128 164 209 267 327 378
#     4   9  20  38  62  91 120 154 209 264 309 366
#
# _framework density 22.590712
#
# number of rings (size 3 to 8) (size 9 to 14) (size 15 to 20)
#    0.000    1.333    0.000    7.500    0.000    5.333 
#    0.000    4.167    0.000    0.000    0.000    0.000 
#    0.000    0.000    0.000    0.000    0.000    0.000 
#
# Total GULP energy -268272.619303 kJ/mol
# GULP energy per Si atom -5589.012902 kJ/mol
# Density = 2.253929 g / cm^3
# Si number density = 22.590712 Si / 1000 Ang^3
#
#
#
# Elastic Constant Matrix: (Units=GPa)
#
#
# Indices 1 2 3 4 5 6 
#
# 1 57.0590 1.1732 -12.5121 0.0000 0.0000 0.0000
# 2 1.1732 55.0140 -11.6936 0.0000 0.0000 0.0000
# 3 -12.5121 -11.6936 58.1385 0.0000 0.0000 0.0000
# 4 0.0000 0.0000 0.0000 -1.1208 0.0000 0.0000
# 5 0.0000 0.0000 0.0000 0.0000 20.5828 0.0000
# 6 0.0000 0.0000 0.0000 0.0000 0.0000 37.3895
#
#
#
# Elastic Compliance Matrix: (Units=1/GPa)
#
#
# Indices 1 2 3 4 5 6 
#
# 1 0.018405 0.000470 0.004055 0.000000 0.000000 0.000000
# 2 0.000470 0.019001 0.003923 0.000000 0.000000 0.000000
# 3 0.004055 0.003923 0.018862 0.000000 0.000000 0.000000
# 4 0.000000 0.000000 0.000000 -0.892236 0.000000 0.000000
# 5 0.000000 0.000000 0.000000 0.000000 0.048584 0.000000
# 6 0.000000 0.000000 0.000000 0.000000 0.000000 0.026745
#
#
# Mechanical properties :
#
#
# Convention : Reuss Voigt Hill
#
# Bulk Modulus (GPa) = 13.66791 13.79405 13.73098
# Shear Modulus (GPa) = -6.63883 24.25325 8.80721
#
# Velocity S-wave (km/s) = -1.71614 3.28013 1.97663
# Velocity P-wave (km/s) = 1.46169 4.52382 3.36166
#
# Compressibility (1/GPa) = 0.07316406
#
# Stress axis : x y z
#
# Youngs Moduli (GPa) = 54.33198 52.62884 53.01636
#
# Poissons Ratio (x) = -0.02471 -0.21501
# Poissons Ratio (y) = -0.02551 -0.20797
# Poissons Ratio (z) = -0.22034 -0.20645
#
# Static dielectric constant tensor:
#      x y z
#    x 1.857670 0.000000 0.000000 
#    y 0.000000 1.820560 0.000000 
#    z 0.000000 0.000000 1.713970 
# 
# From -- ./inp_files/20495.got.cif
#   From: 2010.05.17/outbox.cif.g08.bks.cpg/sg60_11_cif.got.tgz:20495.got - 2010.06.03 14:59:27.
