data_PCOD9456325
_publ_section_title
;
Structure prediction by ZEFSAII (Michael W. Deem and Ramdas Pophale) SiO2 
 PCOD9456325
Probable space group: P B C N
;
_chemical_formula_sum "Si O2"
_cell_formula_units_Z 60
_cell_length_a 15.945846
_cell_length_b 9.406010
_cell_length_c 16.384293
_cell_angle_alpha 90.000000
_cell_angle_beta 90.000000
_cell_angle_gamma 90.000000
_cell_volume 2457.427463
_symmetry_space_group_name_H-M "P B C N"
_symmetry_group_IT_number 60
_symmetry_cell_setting 'orthorhombic'
loop_
_space_group_symop_operation_xyz
x,y,z
1/2-x,1/2-y,1/2+z
1/2+x,1/2-y,-z
-x,y,1/2-z
-x,-y,-z
1/2+x,1/2+y,1/2-z
1/2-x,1/2+y,z
x,-y,1/2+z
loop_
_atom_site_type_symbol
_atom_site_label
_atom_site_fract_x
_atom_site_fract_y
_atom_site_fract_z
Si Si1 0.107813 0.241569 0.210817
Si Si2 0.364746 0.047692 0.249267
Si Si3 0.291967 0.299450 0.444919
Si Si4 0.309535 0.572289 0.342402
Si Si5 0.076942 0.884495 0.083898
Si Si6 0.000000 0.218289 0.750000
Si Si7 0.449791 0.709831 0.038984
Si Si8 0.721101 0.811888 0.890433
O O1 0.100435 0.391116 0.255432
O O2 0.116833 0.122008 0.281106
O O3 0.045294 0.250477 0.133835
O O4 0.197367 0.220997 0.164033
O O5 0.275548 0.045677 0.292472
O O6 0.425213 0.174282 0.277234
O O7 0.342482 0.085026 0.155885
O O8 0.326864 0.424389 0.387399
O O9 0.224016 0.198081 0.401463
O O10 0.372231 0.223785 0.487751
O O11 0.245303 0.368811 0.521772
O O12 0.030964 0.868106 0.171204
O O13 0.171205 0.834997 0.098529
O O14 0.072173 0.042302 0.049493
O O15 0.031922 0.784724 0.016771
#
# Coordination Sequence:
#
# PCOD9456325 Si02
#       8
#     8   8   8   8   8   4   8   8
#     4  10  22  39  60  93 123 169 207 266 317 380
#     4  10  21  41  58  90 121 168 206 253 318 385
#     4  11  22  38  62  98 121 164 209 272 315 382
#     4  11  22  37  62  91 129 157 213 265 315 372
#     4  10  21  43  61  96 119 172 207 262 320 392
#     4  10  22  42  66  82 128 168 210 256 318 388
#     4  10  23  38  64  88 130 158 215 256 324 385
#     4   9  22  36  65  83 125 159 209 257 319 374
#
# _framework density 24.415779000000001
#
# number of rings (size 3 to 8) (size 9 to 14) (size 15 to 20)
#    0.000    1.867    1.333    1.600    9.333    2.133 
#    2.400    3.333    0.000    0.000    0.000    0.000 
#    0.000    0.000    0.000    0.000    0.000    0.000 
#
# Total GULP energy -335404.367187 kJ/mol
# GULP energy per Si atom -5590.072786 kJ/mol
# Density = 2.436021 g / cm^3
# Si number density = 24.415779 Si / 1000 Ang^3
#
#
#
# Elastic Constant Matrix: (Units=GPa)
#
#
# Indices 1 2 3 4 5 6 
#
# 1 58.0796 8.1865 40.1792 0.0000 0.0000 0.0000
# 2 8.1865 35.9223 16.5879 0.0000 0.0000 0.0000
# 3 40.1792 16.5879 103.3840 0.0000 0.0000 0.0000
# 4 0.0000 0.0000 0.0000 11.1420 0.0000 0.0000
# 5 0.0000 0.0000 0.0000 0.0000 36.5934 0.0000
# 6 0.0000 0.0000 0.0000 0.0000 0.0000 25.1293
#
#
#
# Elastic Compliance Matrix: (Units=1/GPa)
#
#
# Indices 1 2 3 4 5 6 
#
# 1 0.023600 -0.001234 -0.008974 0.000000 0.000000 0.000000
# 2 -0.001234 0.030130 -0.004355 0.000000 0.000000 0.000000
# 3 -0.008974 -0.004355 0.013859 0.000000 0.000000 0.000000
# 4 0.000000 0.000000 0.000000 0.089750 0.000000 0.000000
# 5 0.000000 0.000000 0.000000 0.000000 0.027327 0.000000
# 6 0.000000 0.000000 0.000000 0.000000 0.000000 0.039794
#
#
# Mechanical properties :
#
#
# Convention : Reuss Voigt Hill
#
# Bulk Modulus (GPa) = 25.99892 36.36591 31.18242
# Shear Modulus (GPa) = 18.76827 23.40177 21.08502
#
# Velocity S-wave (km/s) = 2.77554 3.09927 2.94186
# Velocity P-wave (km/s) = 4.57636 5.26632 4.93341
#
# Compressibility (1/GPa) = 0.03846314
#
# Stress axis : x y z
#
# Youngs Moduli (GPa) = 42.37327 33.18954 72.15552
#
# Poissons Ratio (x) = 0.04097 0.64751
# Poissons Ratio (y) = 0.05231 0.31421
# Poissons Ratio (z) = 0.38025 0.14453
#
# Static dielectric constant tensor:
#      x y z
#    x 1.985480 0.000000 0.000000 
#    y 0.000000 1.969280 0.000000 
#    z 0.000000 0.000000 1.979180 
# 
# From -- ./inp_files/20903.got.cif
#   From: 2010.05.17/outbox.cif.g08.bks.cpg/sg60_11_cif.got.tgz:20903.got - 2010.06.03 14:59:27.
