data_PCOD9456350
_publ_section_title
;
Structure prediction by ZEFSAII (Michael W. Deem and Ramdas Pophale) SiO2 
 PCOD9456350
Probable space group: P B C N
;
_chemical_formula_sum "Si O2"
_cell_formula_units_Z 48
_cell_length_a 11.503887
_cell_length_b 23.114328
_cell_length_c 8.558534
_cell_angle_alpha 90.000000
_cell_angle_beta 90.000000
_cell_angle_gamma 90.000000
_cell_volume 2275.753709
_symmetry_space_group_name_H-M "P B C N"
_symmetry_group_IT_number 60
_symmetry_cell_setting 'orthorhombic'
loop_
_space_group_symop_operation_xyz
x,y,z
1/2-x,1/2-y,1/2+z
1/2+x,1/2-y,-z
-x,y,1/2-z
-x,-y,-z
1/2+x,1/2+y,1/2-z
1/2-x,1/2+y,z
x,-y,1/2+z
loop_
_atom_site_type_symbol
_atom_site_label
_atom_site_fract_x
_atom_site_fract_y
_atom_site_fract_z
Si Si1 0.674927 0.447080 0.619556
Si Si2 0.991261 0.870615 0.069086
Si Si3 0.725667 0.429383 0.984841
Si Si4 0.097187 0.772847 0.887196
Si Si5 0.668020 0.846761 0.622548
Si Si6 0.416977 0.152210 0.018640
O O1 0.562813 0.415523 0.542707
O O2 0.692396 0.441521 0.804994
O O3 0.686306 0.513429 0.574636
O O4 0.782197 0.408042 0.562307
O O5 0.000000 0.886581 0.250000
O O6 0.856827 0.875869 0.027375
O O7 0.039792 0.806969 0.033524
O O8 0.856172 0.408618 0.025993
O O9 0.220196 0.805322 0.869355
O O10 0.000000 0.779761 0.750000
O O11 0.126168 0.706539 0.919962
O O12 0.622570 0.845838 0.800311
O O13 0.555301 0.837432 0.517040
#
# Coordination Sequence:
#
# PCOD9456350 Si02
#       6
#     8   8   8   8   8   8
#     4  10  21  41  63  92 131 168 215 273 321 387
#     4  11  23  39  65  98 127 172 222 270 331 390
#     4  11  22  40  66  95 130 171 220 269 332 388
#     4  11  24  41  65  95 131 168 213 275 330 388
#     4   9  22  42  63  89 127 167 213 263 326 386
#     4  10  23  40  64  90 125 172 212 261 327 394
#
# _framework density 21.091915
#
# number of rings (size 3 to 8) (size 9 to 14) (size 15 to 20)
#    0.000    1.667    0.000    5.000    7.000    0.667 
#    6.000    0.000    0.000    0.000    0.000    0.000 
#    0.000    0.000    0.000    0.000    0.000    0.000 
#
# Total GULP energy -267468.548875 kJ/mol
# GULP energy per Si atom -5572.261435 kJ/mol
# Density = 2.104391 g / cm^3
# Si number density = 21.091915 Si / 1000 Ang^3
#
#
#
# Elastic Constant Matrix: (Units=GPa)
#
#
# Indices 1 2 3 4 5 6 
#
# 1 108.5420 23.1539 25.7733 0.0000 0.0000 0.0000
# 2 23.1539 63.9532 15.7366 0.0000 0.0000 0.0000
# 3 25.7733 15.7366 37.7871 0.0000 0.0000 0.0000
# 4 0.0000 0.0000 0.0000 8.0242 0.0000 0.0000
# 5 0.0000 0.0000 0.0000 0.0000 16.3948 0.0000
# 6 0.0000 0.0000 0.0000 0.0000 0.0000 -16.3936
#
#
#
# Elastic Compliance Matrix: (Units=1/GPa)
#
#
# Indices 1 2 3 4 5 6 
#
# 1 0.011328 -0.002451 -0.006706 0.000000 0.000000 0.000000
# 2 -0.002451 0.017952 -0.005804 0.000000 0.000000 0.000000
# 3 -0.006706 -0.005804 0.033455 0.000000 0.000000 0.000000
# 4 0.000000 0.000000 0.000000 0.124624 0.000000 0.000000
# 5 0.000000 0.000000 0.000000 0.000000 0.060995 0.000000
# 6 0.000000 0.000000 0.000000 0.000000 0.000000 -0.061000
#
#
# Mechanical properties :
#
#
# Convention : Reuss Voigt Hill
#
# Bulk Modulus (GPa) = 30.47596 37.73444 34.10520
# Shear Modulus (GPa) = 21.90918 11.31298 16.61108
#
# Velocity S-wave (km/s) = 3.22646 2.31847 2.80939
# Velocity P-wave (km/s) = 5.32546 5.00963 5.16996
#
# Compressibility (1/GPa) = 0.03281275
#
# Stress axis : x y z
#
# Youngs Moduli (GPa) = 88.27517 55.70371 29.89083
#
# Poissons Ratio (x) = 0.13654 0.20044
# Poissons Ratio (y) = 0.21639 0.17350
# Poissons Ratio (z) = 0.59195 0.32332
#
# Static dielectric constant tensor:
#      x y z
#    x 1.826860 0.000000 0.000000 
#    y 0.000000 1.744510 0.000000 
#    z 0.000000 0.000000 1.782380 
# 
# From -- ./inp_files/5090.got.cif
#   From: 2010.05.17/outbox.cif.g08.bks.cpg/sg60_3_cif.got.tgz:5090.got - 2010.06.03 14:59:27.
