data_PCOD9456076
_publ_section_title
;
Structure prediction by ZEFSAII (Michael W. Deem and Ramdas Pophale) SiO2 
 PCOD9456076
Probable space group: P B C N
;
_chemical_formula_sum "Si O2"
_cell_formula_units_Z 48
_cell_length_a 11.346782
_cell_length_b 16.518115
_cell_length_c 9.274387
_cell_angle_alpha 90.000000
_cell_angle_beta 90.000000
_cell_angle_gamma 90.000000
_cell_volume 1738.274705
_symmetry_space_group_name_H-M "P B C N"
_symmetry_group_IT_number 60
_symmetry_cell_setting 'orthorhombic'
loop_
_space_group_symop_operation_xyz
x,y,z
1/2-x,1/2-y,1/2+z
1/2+x,1/2-y,-z
-x,y,1/2-z
-x,-y,-z
1/2+x,1/2+y,1/2-z
1/2-x,1/2+y,z
x,-y,1/2+z
loop_
_atom_site_type_symbol
_atom_site_label
_atom_site_fract_x
_atom_site_fract_y
_atom_site_fract_z
Si Si1 0.399682 0.135039 0.555455
Si Si2 0.782837 0.240234 0.243587
Si Si3 0.414759 0.736657 0.545624
Si Si4 0.935419 0.902136 0.895303
Si Si5 0.745699 0.498426 0.064427
Si Si6 0.605265 0.973439 0.829898
O O1 0.354530 0.185609 0.689255
O O2 0.486956 0.194380 0.474373
O O3 0.289679 0.089815 0.475636
O O4 0.459148 0.053506 0.611952
O O5 0.650668 0.254626 0.301262
O O6 0.842196 0.160937 0.317852
O O7 0.189887 0.245061 0.425574
O O8 0.480836 0.654416 0.495042
O O9 0.122856 0.031409 0.998868
O O10 0.000000 0.935010 0.750000
O O11 0.786880 0.496632 0.228526
O O12 0.829405 0.439712 0.968330
O O13 0.500000 0.928106 0.750000
#
# Coordination Sequence:
#
# PCOD9456076 Si02
#       6
#     8   8   8   8   8   8
#     4   9  22  40  67  96 138 180 226 283 348 404
#     4  10  21  38  71  97 132 182 220 281 358 404
#     4  10  21  43  71  99 138 178 226 290 346 419
#     4   9  21  42  65  98 135 182 226 286 341 413
#     4  10  23  38  69  97 135 183 229 284 347 409
#     4  10  21  38  64  97 132 176 227 283 338 399
#
# _framework density 27.613586999999999
#
# number of rings (size 3 to 8) (size 9 to 14) (size 15 to 20)
#    1.000    1.333    0.000    3.000    4.667    2.667 
#    0.000    6.667    0.000    0.000    0.000    0.000 
#    0.000    0.000    0.000    0.000    0.000    0.000 
#
# Total GULP energy -268144.844172 kJ/mol
# GULP energy per Si atom -5586.350920 kJ/mol
# Density = 2.755074 g / cm^3
# Si number density = 27.613587 Si / 1000 Ang^3
#
#
#
# Elastic Constant Matrix: (Units=GPa)
#
#
# Indices 1 2 3 4 5 6 
#
# 1 140.2942 54.3954 62.7550 0.0000 0.0000 0.0000
# 2 54.3954 118.9997 51.9452 0.0000 0.0000 0.0000
# 3 62.7550 51.9452 121.4541 0.0000 0.0000 0.0000
# 4 0.0000 0.0000 0.0000 35.5057 0.0000 0.0000
# 5 0.0000 0.0000 0.0000 0.0000 67.2322 0.0000
# 6 0.0000 0.0000 0.0000 0.0000 0.0000 49.2443
#
#
#
# Elastic Compliance Matrix: (Units=1/GPa)
#
#
# Indices 1 2 3 4 5 6 
#
# 1 0.009998 -0.002846 -0.003948 0.000000 0.000000 0.000000
# 2 -0.002846 0.011143 -0.003295 0.000000 0.000000 0.000000
# 3 -0.003948 -0.003295 0.011683 0.000000 0.000000 0.000000
# 4 0.000000 0.000000 0.000000 0.028164 0.000000 0.000000
# 5 0.000000 0.000000 0.000000 0.000000 0.014874 0.000000
# 6 0.000000 0.000000 0.000000 0.000000 0.000000 0.020307
#
#
# Mechanical properties :
#
#
# Convention : Reuss Voigt Hill
#
# Bulk Modulus (GPa) = 79.08993 79.88213 79.48603
# Shear Modulus (GPa) = 41.47218 44.50660 42.98939
#
# Velocity S-wave (km/s) = 3.87961 4.01903 3.94994
# Velocity P-wave (km/s) = 6.98372 7.10832 7.04629
#
# Compressibility (1/GPa) = 0.01264383
#
# Stress axis : x y z
#
# Youngs Moduli (GPa) = 100.02346 89.74393 85.59529
#
# Poissons Ratio (x) = 0.25545 0.33796
# Poissons Ratio (y) = 0.28471 0.28203
# Poissons Ratio (z) = 0.39493 0.29570
#
# Static dielectric constant tensor:
#      x y z
#    x 2.284680 0.000000 0.000000 
#    y 0.000000 2.131500 0.000000 
#    z 0.000000 0.000000 2.293630 
# 
# From -- ./inp_files/10134.got.cif
#   From: 2010.05.17/outbox.cif.g08.bks.cpg/sg60_6_cif.got.tgz:10134.got - 2010.06.03 14:59:27.
