data_PCOD9456759
_publ_section_title
;
Structure prediction by ZEFSAII (Michael W. Deem and Ramdas Pophale) SiO2 
 PCOD9456759
Probable space group: P B C N
;
_chemical_formula_sum "Si O2"
_cell_formula_units_Z 40
_cell_length_a 16.574022
_cell_length_b 15.271976
_cell_length_c 8.532490
_cell_angle_alpha 90.000000
_cell_angle_beta 90.000000
_cell_angle_gamma 90.000000
_cell_volume 2159.727369
_symmetry_space_group_name_H-M "P B C N"
_symmetry_group_IT_number 60
_symmetry_cell_setting 'orthorhombic'
loop_
_space_group_symop_operation_xyz
x,y,z
1/2-x,1/2-y,1/2+z
1/2+x,1/2-y,-z
-x,y,1/2-z
-x,-y,-z
1/2+x,1/2+y,1/2-z
1/2-x,1/2+y,z
x,-y,1/2+z
loop_
_atom_site_type_symbol
_atom_site_label
_atom_site_fract_x
_atom_site_fract_y
_atom_site_fract_z
Si Si1 0.444496 0.064850 0.106102
Si Si2 0.811256 0.976847 0.001190
Si Si3 0.405312 0.400256 0.782706
Si Si4 0.413926 0.795646 0.337230
Si Si5 0.696316 0.932917 0.282449
O O1 0.500000 0.095465 0.250000
O O2 0.369967 0.009244 0.180465
O O3 0.418596 0.144359 0.992972
O O4 0.500000 0.000000 0.000000
O O5 0.742941 0.940316 0.117350
O O6 0.879824 0.020944 0.105088
O O7 0.850817 0.912341 0.873863
O O8 0.765350 0.053998 0.909237
O O9 0.500000 0.406520 0.750000
O O10 0.391289 0.305212 0.859128
O O11 0.500000 0.798981 0.250000
O O12 0.351412 0.842975 0.221407
#
# Coordination Sequence:
#
# PCOD9456759 Si02
#       5
#     8   8   8   8   8
#     4  12  19  34  61  90 129 171 191 236 304 377
#     4  10  22  39  62  86 114 168 199 255 318 348
#     4  10  23  43  63  83 116 158 216 262 303 363
#     4  11  22  37  60  93 126 163 203 249 299 373
#     4  11  19  35  60  90 126 155 199 239 311 376
#
# _framework density 18.520855999999998
#
# number of rings (size 3 to 8) (size 9 to 14) (size 15 to 20)
#    0.000    1.200    6.000    0.600    0.000    1.600 
#    0.000    9.000    0.000    0.000    0.000    0.000 
#    0.000    0.000    0.000    0.000    0.000    0.000 
#
# Total GULP energy -223020.637505 kJ/mol
# GULP energy per Si atom -5575.515938 kJ/mol
# Density = 1.847870 g / cm^3
# Si number density = 18.520856 Si / 1000 Ang^3
#
#
#
# Elastic Constant Matrix: (Units=GPa)
#
#
# Indices 1 2 3 4 5 6 
#
# 1 84.3752 25.1492 20.7421 0.0000 0.0000 0.0000
# 2 25.1492 80.2508 12.3791 0.0000 0.0000 0.0000
# 3 20.7421 12.3791 59.5359 0.0000 0.0000 0.0000
# 4 0.0000 0.0000 0.0000 25.5103 0.0000 0.0000
# 5 0.0000 0.0000 0.0000 0.0000 29.7156 0.0000
# 6 0.0000 0.0000 0.0000 0.0000 0.0000 6.2074
#
#
#
# Elastic Compliance Matrix: (Units=1/GPa)
#
#
# Indices 1 2 3 4 5 6 
#
# 1 0.013974 -0.003749 -0.004089 0.000000 0.000000 0.000000
# 2 -0.003749 0.013879 -0.001580 0.000000 0.000000 0.000000
# 3 -0.004089 -0.001580 0.018550 0.000000 0.000000 0.000000
# 4 0.000000 0.000000 0.000000 0.039200 0.000000 0.000000
# 5 0.000000 0.000000 0.000000 0.000000 0.033652 0.000000
# 6 0.000000 0.000000 0.000000 0.000000 0.000000 0.161098
#
#
# Mechanical properties :
#
#
# Convention : Reuss Voigt Hill
#
# Bulk Modulus (GPa) = 36.27367 37.85584 37.06476
# Shear Modulus (GPa) = 16.21387 23.34611 19.77999
#
# Velocity S-wave (km/s) = 2.96199 3.55425 3.27155
# Velocity P-wave (km/s) = 5.59693 6.10962 5.85889
#
# Compressibility (1/GPa) = 0.02756821
#
# Stress axis : x y z
#
# Youngs Moduli (GPa) = 71.55946 72.04936 53.90902
#
# Poissons Ratio (x) = 0.27008 0.22045
# Poissons Ratio (y) = 0.26824 0.08517
# Poissons Ratio (z) = 0.29262 0.11383
#
# Static dielectric constant tensor:
#      x y z
#    x 1.662380 0.000000 0.000000 
#    y 0.000000 1.605810 0.000000 
#    z 0.000000 0.000000 1.673040 
# 
# From -- ./inp_files/5650.got.cif
#   From: 2010.05.17/outbox.cif.g08.bks.cpg/sg60_3_cif.got.tgz:5650.got - 2010.06.03 14:59:27.
