data_PCOD9456606
_publ_section_title
;
Structure prediction by ZEFSAII (Michael W. Deem and Ramdas Pophale) SiO2 
 PCOD9456606
Probable space group: P B C N
;
_chemical_formula_sum "Si O2"
_cell_formula_units_Z 52
_cell_length_a 11.558020
_cell_length_b 19.667140
_cell_length_c 13.515798
_cell_angle_alpha 90.000000
_cell_angle_beta 90.000000
_cell_angle_gamma 90.000000
_cell_volume 3072.319260
_symmetry_space_group_name_H-M "P B C N"
_symmetry_group_IT_number 60
_symmetry_cell_setting 'orthorhombic'
loop_
_space_group_symop_operation_xyz
x,y,z
1/2-x,1/2-y,1/2+z
1/2+x,1/2-y,-z
-x,y,1/2-z
-x,-y,-z
1/2+x,1/2+y,1/2-z
1/2-x,1/2+y,z
x,-y,1/2+z
loop_
_atom_site_type_symbol
_atom_site_label
_atom_site_fract_x
_atom_site_fract_y
_atom_site_fract_z
Si Si1 0.691970 0.265093 0.104806
Si Si2 0.332865 0.630546 0.420000
Si Si3 0.368571 0.807930 0.232273
Si Si4 0.136492 0.047557 0.227972
Si Si5 0.313271 0.403967 0.140277
Si Si6 0.000000 0.810234 0.250000
Si Si7 0.900922 0.175194 0.401111
O O1 0.738640 0.190451 0.079276
O O2 0.795461 0.300465 0.166689
O O3 0.582673 0.266608 0.178986
O O4 0.653991 0.304199 0.005749
O O5 0.314086 0.580648 0.327788
O O6 0.330785 0.590890 0.523222
O O7 0.460150 0.665178 0.408785
O O8 0.500000 0.828356 0.250000
O O9 0.301183 0.861425 0.164837
O O10 0.372526 0.734911 0.177005
O O11 0.145525 0.104570 0.142899
O O12 0.000000 0.036842 0.250000
O O13 0.187650 0.976448 0.193444
O O14 0.418054 0.358553 0.184244
#
# Coordination Sequence:
#
# PCOD9456606 Si02
#       7
#     8   8   8   8   8   4   8
#     4  11  21  36  62  89 120 152 196 252 289 349
#     4  11  21  37  62  87 121 156 194 244 303 346
#     4  11  21  37  59  85 117 157 200 241 287 353
#     4  10  22  38  58  87 125 152 190 243 300 356
#     4  11  22  36  61  86 121 153 194 243 296 355
#     4  10  22  36  54  96 120 146 198 244 300 336
#     4  11  20  37  60  90 116 153 200 237 297 353
#
# _framework density 16.925324
#
# number of rings (size 3 to 8) (size 9 to 14) (size 15 to 20)
#    0.000    1.231    6.923    0.462    0.000    4.923 
#    0.000    0.000    1.692    1.846    0.000    0.000 
#    0.000    0.000    0.000    0.000    0.000    0.000 
#
# Total GULP energy -290279.709483 kJ/mol
# GULP energy per Si atom -5582.302105 kJ/mol
# Density = 1.688680 g / cm^3
# Si number density = 16.925324 Si / 1000 Ang^3
#
#
#
# Elastic Constant Matrix: (Units=GPa)
#
#
# Indices 1 2 3 4 5 6 
#
# 1 88.0196 34.5040 34.6237 0.0000 0.0000 0.0000
# 2 34.5040 98.9104 36.4605 0.0000 0.0000 0.0000
# 3 34.6237 36.4605 114.3714 0.0000 0.0000 0.0000
# 4 0.0000 0.0000 0.0000 29.9767 0.0000 0.0000
# 5 0.0000 0.0000 0.0000 0.0000 21.8556 0.0000
# 6 0.0000 0.0000 0.0000 0.0000 0.0000 13.8671
#
#
#
# Elastic Compliance Matrix: (Units=1/GPa)
#
#
# Indices 1 2 3 4 5 6 
#
# 1 0.014039 -0.003774 -0.003047 0.000000 0.000000 0.000000
# 2 -0.003774 0.012471 -0.002833 0.000000 0.000000 0.000000
# 3 -0.003047 -0.002833 0.010569 0.000000 0.000000 0.000000
# 4 0.000000 0.000000 0.000000 0.033359 0.000000 0.000000
# 5 0.000000 0.000000 0.000000 0.000000 0.045755 0.000000
# 6 0.000000 0.000000 0.000000 0.000000 0.000000 0.072113
#
#
# Mechanical properties :
#
#
# Convention : Reuss Voigt Hill
#
# Bulk Modulus (GPa) = 56.27215 56.94198 56.60707
# Shear Modulus (GPa) = 23.41499 26.18743 24.80121
#
# Velocity S-wave (km/s) = 3.72348 3.93776 3.83212
# Velocity P-wave (km/s) = 7.19759 7.37500 7.28683
#
# Compressibility (1/GPa) = 0.01777078
#
# Stress axis : x y z
#
# Youngs Moduli (GPa) = 71.22921 80.18521 94.61643
#
# Poissons Ratio (x) = 0.30264 0.28829
# Poissons Ratio (y) = 0.26884 0.26806
# Poissons Ratio (z) = 0.21703 0.22717
#
# Static dielectric constant tensor:
#      x y z
#    x 1.560140 0.000000 0.000000 
#    y 0.000000 1.543780 0.000000 
#    z 0.000000 0.000000 1.586190 
# 
# From -- ./inp_files/16312.got.cif
#   From: 2010.05.17/outbox.cif.g08.bks.cpg/sg60_9_cif.got.tgz:16312.got - 2010.06.03 14:59:27.
