data_PCOD9456031
_publ_section_title
;
Structure prediction by ZEFSAII (Michael W. Deem and Ramdas Pophale) SiO2 
 PCOD9456031
Probable space group: P B C N
;
_chemical_formula_sum "Si O2"
_cell_formula_units_Z 64
_cell_length_a 9.479701
_cell_length_b 26.947273
_cell_length_c 11.358862
_cell_angle_alpha 90.000000
_cell_angle_beta 90.000000
_cell_angle_gamma 90.000000
_cell_volume 2901.645047
_symmetry_space_group_name_H-M "P B C N"
_symmetry_group_IT_number 60
_symmetry_cell_setting 'orthorhombic'
loop_
_space_group_symop_operation_xyz
x,y,z
1/2-x,1/2-y,1/2+z
1/2+x,1/2-y,-z
-x,y,1/2-z
-x,-y,-z
1/2+x,1/2+y,1/2-z
1/2-x,1/2+y,z
x,-y,1/2+z
loop_
_atom_site_type_symbol
_atom_site_label
_atom_site_fract_x
_atom_site_fract_y
_atom_site_fract_z
Si Si1 0.525472 0.240700 0.381080
Si Si2 0.192821 0.340439 0.932304
Si Si3 0.329198 0.400018 0.396457
Si Si4 0.150455 0.569132 0.282982
Si Si5 0.467843 0.296895 0.872951
Si Si6 0.667127 0.400474 0.379637
Si Si7 0.334854 0.490920 0.964239
Si Si8 0.237992 0.348760 0.602271
O O1 0.500000 0.264616 0.250000
O O2 0.387641 0.210572 0.420675
O O3 0.559359 0.271006 0.500110
O O4 0.639559 0.197064 0.362152
O O5 0.111122 0.386602 0.875230
O O6 0.333955 0.332350 0.857355
O O7 0.242363 0.357641 0.059653
O O8 0.500324 0.393787 0.411765
O O9 0.312739 0.399951 0.257883
O O10 0.284522 0.453224 0.448386
O O11 0.233470 0.360148 0.462802
O O12 0.274449 0.537061 0.346148
O O13 0.208171 0.600903 0.173276
O O14 0.000000 0.543995 0.250000
O O15 0.500000 0.267572 0.750000
O O16 0.602931 0.330961 0.885801
O O17 0.713749 0.453418 0.433840
O O18 0.500000 0.500000 0.000000
#
# Coordination Sequence:
#
# PCOD9456031 Si02
#       8
#     8   8   8   8   8   8   8   8
#     4  12  25  45  65  94 139 183 227 287 370 439
#     4  11  20  42  65  88 127 176 223 277 352 424
#     4  10  21  38  61  98 132 168 229 285 344 416
#     4  11  21  42  72  93 137 183 228 281 360 439
#     4  12  25  40  66 101 129 170 241 300 346 427
#     4   9  20  38  60  91 134 168 217 282 359 402
#     4   9  21  39  63 100 131 180 223 291 348 416
#     4  12  23  41  68  98 129 178 239 284 350 432
#
# _framework density 22.056453000000001
#
# number of rings (size 3 to 8) (size 9 to 14) (size 15 to 20)
#    0.000    1.250    5.000    0.750    1.750    2.000 
#    2.250    1.875    0.000    0.000    0.000    0.000 
#    0.000    0.000    0.000    0.000    0.000    0.000 
#
# Total GULP energy -356547.582563 kJ/mol
# GULP energy per Si atom -5571.055978 kJ/mol
# Density = 2.200625 g / cm^3
# Si number density = 22.056453 Si / 1000 Ang^3
#
#
#
# Elastic Constant Matrix: (Units=GPa)
#
#
# Indices 1 2 3 4 5 6 
#
# 1 76.4523 22.0467 31.3659 0.0000 0.0000 0.0000
# 2 22.0467 33.3040 33.6833 0.0000 0.0000 0.0000
# 3 31.3659 33.6833 137.6796 0.0000 0.0000 0.0000
# 4 0.0000 0.0000 0.0000 26.8439 0.0000 0.0000
# 5 0.0000 0.0000 0.0000 0.0000 24.3451 0.0000
# 6 0.0000 0.0000 0.0000 0.0000 0.0000 15.7522
#
#
#
# Elastic Compliance Matrix: (Units=1/GPa)
#
#
# Indices 1 2 3 4 5 6 
#
# 1 0.016376 -0.009391 -0.001433 0.000000 0.000000 0.000000
# 2 -0.009391 0.045284 -0.008939 0.000000 0.000000 0.000000
# 3 -0.001433 -0.008939 0.009777 0.000000 0.000000 0.000000
# 4 0.000000 0.000000 0.000000 0.037252 0.000000 0.000000
# 5 0.000000 0.000000 0.000000 0.000000 0.041076 0.000000
# 6 0.000000 0.000000 0.000000 0.000000 0.000000 0.063483
#
#
# Mechanical properties :
#
#
# Convention : Reuss Voigt Hill
#
# Bulk Modulus (GPa) = 31.33831 46.84752 39.09292
# Shear Modulus (GPa) = 18.98158 24.07757 21.52957
#
# Velocity S-wave (km/s) = 2.93677 3.30757 3.12767
# Velocity P-wave (km/s) = 5.07332 5.98938 5.55028
#
# Compressibility (1/GPa) = 0.03190982
#
# Stress axis : x y z
#
# Youngs Moduli (GPa) = 61.06415 22.08261 102.28321
#
# Poissons Ratio (x) = 0.20738 0.14660
# Poissons Ratio (y) = 0.57347 0.91435
# Poissons Ratio (z) = 0.08752 0.19740
#
# Static dielectric constant tensor:
#      x y z
#    x 1.887620 0.000000 0.000000 
#    y 0.000000 1.881420 0.000000 
#    z 0.000000 0.000000 1.872750 
# 
# From -- ./inp_files/10415.got.cif
#   From: 2010.05.17/outbox.cif.g08.bks.cpg/sg60_6_cif.got.tgz:10415.got - 2010.06.03 14:59:27.
