data_PCOD9456052
_publ_section_title
;
Structure prediction by ZEFSAII (Michael W. Deem and Ramdas Pophale) SiO2 
 PCOD9456052
Probable space group: P B C N
;
_chemical_formula_sum "Si O2"
_cell_formula_units_Z 40
_cell_length_a 10.157191
_cell_length_b 24.837076
_cell_length_c 8.077807
_cell_angle_alpha 90.000000
_cell_angle_beta 90.000000
_cell_angle_gamma 90.000000
_cell_volume 2037.828154
_symmetry_space_group_name_H-M "P B C N"
_symmetry_group_IT_number 60
_symmetry_cell_setting 'orthorhombic'
loop_
_space_group_symop_operation_xyz
x,y,z
1/2-x,1/2-y,1/2+z
1/2+x,1/2-y,-z
-x,y,1/2-z
-x,-y,-z
1/2+x,1/2+y,1/2-z
1/2-x,1/2+y,z
x,-y,1/2+z
loop_
_atom_site_type_symbol
_atom_site_label
_atom_site_fract_x
_atom_site_fract_y
_atom_site_fract_z
Si Si1 0.127476 0.769324 0.866010
Si Si2 0.863478 0.313706 0.848422
Si Si3 0.157365 0.030580 0.715808
Si Si4 0.214938 0.080290 0.059956
Si Si5 0.447738 0.626684 0.560906
O O1 0.255820 0.780709 0.757360
O O2 0.000000 0.768650 0.750000
O O3 0.130439 0.715666 0.974627
O O4 0.113781 0.819706 0.990463
O O5 0.000000 0.312011 0.750000
O O6 0.814323 0.374461 0.879339
O O7 0.227159 0.057708 0.872600
O O8 0.151308 0.076033 0.572915
O O9 0.000000 0.021828 0.750000
O O10 0.214060 0.973363 0.668489
O O11 0.071169 0.108774 0.051271
O O12 0.500000 0.635629 0.750000
#
# Coordination Sequence:
#
# PCOD9456052 Si02
#       5
#     8   8   8   8   8
#     4  12  25  44  73  91 128 175 220 270 323 388
#     4  12  28  44  63 100 136 169 223 266 333 392
#     4   9  19  33  65  97 134 157 226 268 321 374
#     4  10  21  38  62  97 129 172 207 279 320 382
#     4   9  19  37  67 101 129 160 219 276 323 375
#
# _framework density 19.628740000000001
#
# number of rings (size 3 to 8) (size 9 to 14) (size 15 to 20)
#    0.000    2.000    2.000    4.200   11.200    0.000 
#    0.000    1.000    0.000    0.000    0.000    0.000 
#    0.000    0.000    0.000    0.000    0.000    0.000 
#
# Total GULP energy -223424.128850 kJ/mol
# GULP energy per Si atom -5585.603221 kJ/mol
# Density = 1.958406 g / cm^3
# Si number density = 19.628740 Si / 1000 Ang^3
#
#
#
# Elastic Constant Matrix: (Units=GPa)
#
#
# Indices 1 2 3 4 5 6 
#
# 1 97.2764 36.2415 50.9647 0.0000 0.0000 0.0000
# 2 36.2415 120.3826 40.3095 0.0000 0.0000 0.0000
# 3 50.9647 40.3095 78.7624 0.0000 0.0000 0.0000
# 4 0.0000 0.0000 0.0000 39.1678 0.0000 0.0000
# 5 0.0000 0.0000 0.0000 0.0000 8.5927 0.0000
# 6 0.0000 0.0000 0.0000 0.0000 0.0000 1391.4757
#
#
#
# Elastic Compliance Matrix: (Units=1/GPa)
#
#
# Indices 1 2 3 4 5 6 
#
# 1 0.015807 -0.001610 -0.009404 0.000000 0.000000 0.000000
# 2 -0.001610 0.010189 -0.004173 0.000000 0.000000 0.000000
# 3 -0.009404 -0.004173 0.020917 0.000000 0.000000 0.000000
# 4 0.000000 0.000000 0.000000 0.025531 0.000000 0.000000
# 5 0.000000 0.000000 0.000000 0.000000 0.116378 0.000000
# 6 0.000000 0.000000 0.000000 0.000000 0.000000 0.000719
#
#
# Mechanical properties :
#
#
# Convention : Reuss Voigt Hill
#
# Bulk Modulus (GPa) = 60.46282 61.27254 60.86768
# Shear Modulus (GPa) = 22.18010 299.10760 160.64385
#
# Velocity S-wave (km/s) = 3.36517 12.35772 9.05642
# Velocity P-wave (km/s) = 6.78006 15.32649 11.85054
#
# Compressibility (1/GPa) = 0.01653909
#
# Stress axis : x y z
#
# Youngs Moduli (GPa) = 63.26430 98.14776 47.80758
#
# Poissons Ratio (x) = 0.15799 0.44959
# Poissons Ratio (y) = 0.10184 0.19949
# Poissons Ratio (z) = 0.59495 0.40956
#
# Static dielectric constant tensor:
#      x y z
#    x 1.668290 0.000000 0.000000 
#    y 0.000000 1.690040 0.000000 
#    z 0.000000 0.000000 1.736960 
# 
# From -- ./inp_files/3874.got.cif
#   From: 2010.05.17/outbox.cif.g08.bks.cpg/sg60_2_cif.got.tgz:3874.got - 2010.06.03 14:59:27.
