data_PCOD9456240
_publ_section_title
;
Structure prediction by ZEFSAII (Michael W. Deem and Ramdas Pophale) SiO2 
 PCOD9456240
Probable space group: P B C N
;
_chemical_formula_sum "Si O2"
_cell_formula_units_Z 48
_cell_length_a 16.523484
_cell_length_b 15.032329
_cell_length_c 8.092953
_cell_angle_alpha 90.000000
_cell_angle_beta 90.000000
_cell_angle_gamma 90.000000
_cell_volume 2010.179847
_symmetry_space_group_name_H-M "P B C N"
_symmetry_group_IT_number 60
_symmetry_cell_setting 'orthorhombic'
loop_
_space_group_symop_operation_xyz
x,y,z
1/2-x,1/2-y,1/2+z
1/2+x,1/2-y,-z
-x,y,1/2-z
-x,-y,-z
1/2+x,1/2+y,1/2-z
1/2-x,1/2+y,z
x,-y,1/2+z
loop_
_atom_site_type_symbol
_atom_site_label
_atom_site_fract_x
_atom_site_fract_y
_atom_site_fract_z
Si Si1 0.335115 0.797404 0.009036
Si Si2 0.152142 0.383707 0.506699
Si Si3 0.841193 0.795919 0.629962
Si Si4 0.661636 0.615330 0.609832
Si Si5 0.909453 0.968094 0.788626
Si Si6 0.586457 0.947096 0.663623
O O1 0.244506 0.820912 0.951757
O O2 0.361987 0.718276 0.885102
O O3 0.394525 0.880349 0.987558
O O4 0.331191 0.753573 0.190949
O O5 0.121963 0.282815 0.481971
O O6 0.245004 0.385766 0.446455
O O7 0.101870 0.453887 0.399223
O O8 0.148567 0.417018 0.693893
O O9 0.889070 0.885626 0.666815
O O10 0.606829 0.570698 0.468718
O O11 0.648631 0.552458 0.764471
O O12 0.000000 0.996327 0.750000
O O13 0.500000 0.936996 0.750000
#
# Coordination Sequence:
#
# PCOD9456240 Si02
#       6
#     8   8   8   8   8   8
#     4  10  21  40  61  89 119 158 210 255 304 369
#     4  11  23  41  63  88 119 164 212 255 304 373
#     4  10  22  40  64  89 120 162 208 255 304 368
#     4  10  22  39  61  85 116 159 205 245 291 360
#     4  11  23  38  59  89 123 155 193 247 307 359
#     4  12  25  40  62  92 126 160 202 261 323 377
#
# _framework density 23.878457999999998
#
# number of rings (size 3 to 8) (size 9 to 14) (size 15 to 20)
#    0.000    1.333    0.000    7.000    0.000    9.333 
#    0.000    0.000    0.000    0.000    0.000    0.000 
#    0.000    0.000    0.000    0.000    0.000    0.000 
#
# Total GULP energy -268711.612714 kJ/mol
# GULP energy per Si atom -5598.158598 kJ/mol
# Density = 2.382411 g / cm^3
# Si number density = 23.878458 Si / 1000 Ang^3
#
#
#
# Elastic Constant Matrix: (Units=GPa)
#
#
# Indices 1 2 3 4 5 6 
#
# 1 54.4341 9.4261 -4.1956 0.0000 0.0000 0.0000
# 2 9.4261 93.1269 9.3502 0.0000 0.0000 0.0000
# 3 -4.1956 9.3502 60.7679 0.0000 0.0000 0.0000
# 4 0.0000 0.0000 0.0000 28.9177 0.0000 0.0000
# 5 0.0000 0.0000 0.0000 0.0000 20.2685 0.0000
# 6 0.0000 0.0000 0.0000 0.0000 0.0000 102.8736
#
#
#
# Elastic Compliance Matrix: (Units=1/GPa)
#
#
# Indices 1 2 3 4 5 6 
#
# 1 0.018854 -0.002071 0.001620 0.000000 0.000000 0.000000
# 2 -0.002071 0.011134 -0.001856 0.000000 0.000000 0.000000
# 3 0.001620 -0.001856 0.016854 0.000000 0.000000 0.000000
# 4 0.000000 0.000000 0.000000 0.034581 0.000000 0.000000
# 5 0.000000 0.000000 0.000000 0.000000 0.049338 0.000000
# 6 0.000000 0.000000 0.000000 0.000000 0.000000 0.009721
#
#
# Mechanical properties :
#
#
# Convention : Reuss Voigt Hill
#
# Bulk Modulus (GPa) = 23.68081 26.38783 25.03432
# Shear Modulus (GPa) = 31.41277 43.32851 37.37064
#
# Velocity S-wave (km/s) = 3.63095 4.26437 3.96034
# Velocity P-wave (km/s) = 5.24568 5.94317 5.60529
#
# Compressibility (1/GPa) = 0.04222829
#
# Stress axis : x y z
#
# Youngs Moduli (GPa) = 53.03811 89.81474 59.33473
#
# Poissons Ratio (x) = 0.18601 -0.09615
# Poissons Ratio (y) = 0.10985 0.11014
# Poissons Ratio (z) = -0.08594 0.16671
#
# Static dielectric constant tensor:
#      x y z
#    x 1.875330 0.000000 0.000000 
#    y 0.000000 1.892480 0.000000 
#    z 0.000000 0.000000 1.988860 
# 
# From -- ./inp_files/6723.got.cif
#   From: 2010.05.17/outbox.cif.g08.bks.cpg/sg60_4_cif.got.tgz:6723.got - 2010.06.03 14:59:27.
