data_PCOD9456034
_publ_section_title
;
Structure prediction by ZEFSAII (Michael W. Deem and Ramdas Pophale) SiO2 
 PCOD9456034
Probable space group: P B C N
;
_chemical_formula_sum "Si O2"
_cell_formula_units_Z 32
_cell_length_a 12.703634
_cell_length_b 13.441851
_cell_length_c 9.608806
_cell_angle_alpha 90.000000
_cell_angle_beta 90.000000
_cell_angle_gamma 90.000000
_cell_volume 1640.803127
_symmetry_space_group_name_H-M "P B C N"
_symmetry_group_IT_number 60
_symmetry_cell_setting 'orthorhombic'
loop_
_space_group_symop_operation_xyz
x,y,z
1/2-x,1/2-y,1/2+z
1/2+x,1/2-y,-z
-x,y,1/2-z
-x,-y,-z
1/2+x,1/2+y,1/2-z
1/2-x,1/2+y,z
x,-y,1/2+z
loop_
_atom_site_type_symbol
_atom_site_label
_atom_site_fract_x
_atom_site_fract_y
_atom_site_fract_z
Si Si1 0.592841 0.974577 0.847409
Si Si2 0.709746 0.903262 0.588295
Si Si3 0.527668 0.232657 0.098340
Si Si4 0.540478 0.591998 0.091705
O O1 0.500000 0.022014 0.750000
O O2 0.682927 0.949746 0.737523
O O3 0.539740 0.871200 0.901882
O O4 0.646333 0.036084 0.969622
O O5 0.650100 0.797477 0.591440
O O6 0.833622 0.902804 0.574297
O O7 0.500000 0.277647 0.250000
O O8 0.501605 0.306203 0.975512
O O9 0.500000 0.582285 0.250000
O O10 0.500000 0.500000 0.000000
#
# Coordination Sequence:
#
# PCOD9456034 Si02
#       4
#     8   8   8   8
#     4   9  18  37  62  92 119 150 197 244 294 357
#     4  10  21  38  62  87 121 157 189 246 300 343
#     4   9  21  40  60  87 117 150 196 244 291 353
#     4  12  26  41  58  86 119 157 201 242 295 361
#
# _framework density 19.502645000000001
#
# number of rings (size 3 to 8) (size 9 to 14) (size 15 to 20)
#    0.000    2.500    0.000    5.250    0.000    9.000 
#    0.000    0.000    0.000    0.000    0.000    0.000 
#    0.000    0.000    0.000    0.000    0.000    0.000 
#
# Total GULP energy -178433.080588 kJ/mol
# GULP energy per Si atom -5576.033768 kJ/mol
# Density = 1.945826 g / cm^3
# Si number density = 19.502645 Si / 1000 Ang^3
#
#
#
# Elastic Constant Matrix: (Units=GPa)
#
#
# Indices 1 2 3 4 5 6 
#
# 1 143.3647 49.7109 60.0245 0.0000 0.0000 0.0000
# 2 49.7109 45.9954 69.5681 0.0000 0.0000 0.0000
# 3 60.0245 69.5681 160.6824 0.0000 0.0000 0.0000
# 4 0.0000 0.0000 0.0000 24.7997 0.0000 0.0000
# 5 0.0000 0.0000 0.0000 0.0000 17.3939 0.0000
# 6 0.0000 0.0000 0.0000 0.0000 0.0000 6.8943
#
#
#
# Elastic Compliance Matrix: (Units=1/GPa)
#
#
# Indices 1 2 3 4 5 6 
#
# 1 0.011697 -0.017479 0.003198 0.000000 0.000000 0.000000
# 2 -0.017479 0.089108 -0.032050 0.000000 0.000000 0.000000
# 3 0.003198 -0.032050 0.018905 0.000000 0.000000 0.000000
# 4 0.000000 0.000000 0.000000 0.040323 0.000000 0.000000
# 5 0.000000 0.000000 0.000000 0.000000 0.057492 0.000000
# 6 0.000000 0.000000 0.000000 0.000000 0.000000 0.145047
#
#
# Mechanical properties :
#
#
# Convention : Reuss Voigt Hill
#
# Bulk Modulus (GPa) = 36.97132 78.73883 57.85508
# Shear Modulus (GPa) = 10.77004 21.20017 15.98511
#
# Velocity S-wave (km/s) = 2.35252 3.30061 2.86604
# Velocity P-wave (km/s) = 5.13589 7.41528 6.37823
#
# Compressibility (1/GPa) = 0.02704799
#
# Stress axis : x y z
#
# Youngs Moduli (GPa) = 85.49238 11.22228 52.89554
#
# Poissons Ratio (x) = 0.19615 -0.16916
# Poissons Ratio (y) = 1.49431 1.69533
# Poissons Ratio (z) = -0.27341 0.35968
#
# Static dielectric constant tensor:
#      x y z
#    x 1.720720 0.000000 0.000000 
#    y 0.000000 1.697300 0.000000 
#    z 0.000000 0.000000 1.683190 
# 
# From -- ./inp_files/4616.got.cif
#   From: 2010.05.17/outbox.cif.g08.bks.cpg/sg60_3_cif.got.tgz:4616.got - 2010.06.03 14:59:27.
