data_PCOD9456997
_publ_section_title
;
Structure prediction by ZEFSAII (Michael W. Deem and Ramdas Pophale) SiO2 
 PCOD9456997
Probable space group: P B C N
;
_chemical_formula_sum "Si O2"
_cell_formula_units_Z 52
_cell_length_a 6.454824
_cell_length_b 17.774668
_cell_length_c 24.091352
_cell_angle_alpha 90.000000
_cell_angle_beta 90.000000
_cell_angle_gamma 90.000000
_cell_volume 2764.057516
_symmetry_space_group_name_H-M "P B C N"
_symmetry_group_IT_number 60
_symmetry_cell_setting 'orthorhombic'
loop_
_space_group_symop_operation_xyz
x,y,z
1/2-x,1/2-y,1/2+z
1/2+x,1/2-y,-z
-x,y,1/2-z
-x,-y,-z
1/2+x,1/2+y,1/2-z
1/2-x,1/2+y,z
x,-y,1/2+z
loop_
_atom_site_type_symbol
_atom_site_label
_atom_site_fract_x
_atom_site_fract_y
_atom_site_fract_z
Si Si1 0.000000 0.040222 0.750000
Si Si2 0.904667 0.033122 0.443898
Si Si3 0.716465 0.925053 0.350910
Si Si4 0.056496 0.280777 0.086080
Si Si5 0.880190 0.541662 0.194625
Si Si6 0.385926 0.830955 0.528619
Si Si7 0.269842 0.349102 0.894286
O O1 0.140825 0.082374 0.704160
O O2 0.158971 0.990406 0.786119
O O3 0.834846 0.970453 0.399752
O O4 0.714480 0.087799 0.459686
O O5 0.000000 0.000000 0.500000
O O6 0.077106 0.086460 0.416623
O O7 0.648016 0.845505 0.375498
O O8 0.518032 0.976468 0.334244
O O9 0.234841 0.231227 0.055935
O O10 0.910321 0.222770 0.118943
O O11 0.921944 0.316969 0.036301
O O12 0.853143 0.613131 0.155641
O O13 0.000000 0.563681 0.250000
O O14 0.606967 0.827586 0.558408
#
# Coordination Sequence:
#
# PCOD9456997 Si02
#       7
#     4   8   8   8   8   8   8
#     4  10  22  44  70  90 126 162 222 280 330 366
#     4  11  24  36  65 100 128 170 221 260 330 395
#     4  11  23  41  68  98 127 173 221 274 325 390
#     4  11  25  38  65  94 137 175 208 261 336 394
#     4  10  22  41  73  94 118 166 224 277 317 378
#     4  11  23  41  58  96 135 174 211 261 325 399
#     4  11  22  42  62  92 131 171 212 265 323 392
#
# _framework density 18.812922
#
# number of rings (size 3 to 8) (size 9 to 14) (size 15 to 20)
#    0.000    1.231    4.615    0.923    4.308    2.462 
#    0.000    0.000   22.000    0.000    0.000    0.000 
#    0.000    0.000    0.000    0.000    0.000    0.000 
#
# Total GULP energy -290501.771304 kJ/mol
# GULP energy per Si atom -5586.572525 kJ/mol
# Density = 1.877010 g / cm^3
# Si number density = 18.812922 Si / 1000 Ang^3
#
#
#
# Elastic Constant Matrix: (Units=GPa)
#
#
# Indices 1 2 3 4 5 6 
#
# 1 78.2123 36.5966 25.7075 0.0000 0.0000 0.0000
# 2 36.5966 113.3104 62.8477 0.0000 0.0000 0.0000
# 3 25.7075 62.8477 102.5813 0.0000 0.0000 0.0000
# 4 0.0000 0.0000 0.0000 29.3793 0.0000 0.0000
# 5 0.0000 0.0000 0.0000 0.0000 30.4022 0.0000
# 6 0.0000 0.0000 0.0000 0.0000 0.0000 18.0296
#
#
#
# Elastic Compliance Matrix: (Units=1/GPa)
#
#
# Indices 1 2 3 4 5 6 
#
# 1 0.015161 -0.004225 -0.001211 0.000000 0.000000 0.000000
# 2 -0.004225 0.014545 -0.007853 0.000000 0.000000 0.000000
# 3 -0.001211 -0.007853 0.014863 0.000000 0.000000 0.000000
# 4 0.000000 0.000000 0.000000 0.034038 0.000000 0.000000
# 5 0.000000 0.000000 0.000000 0.000000 0.032892 0.000000
# 6 0.000000 0.000000 0.000000 0.000000 0.000000 0.055464
#
#
# Mechanical properties :
#
#
# Convention : Reuss Voigt Hill
#
# Bulk Modulus (GPa) = 55.58038 60.48973 58.03506
# Shear Modulus (GPa) = 25.05801 26.82570 25.94186
#
# Velocity S-wave (km/s) = 3.65356 3.78023 3.71743
# Velocity P-wave (km/s) = 6.88519 7.16077 7.02433
#
# Compressibility (1/GPa) = 0.01799196
#
# Stress axis : x y z
#
# Youngs Moduli (GPa) = 65.96047 68.75081 67.28202
#
# Poissons Ratio (x) = 0.29046 0.08147
# Poissons Ratio (y) = 0.27867 0.52834
# Poissons Ratio (z) = 0.07987 0.53987
#
# Static dielectric constant tensor:
#      x y z
#    x 1.672850 0.000000 0.000000 
#    y 0.000000 1.619800 0.000000 
#    z 0.000000 0.000000 1.658040 
# 
# From -- ./inp_files/24961.got.cif
#   From: 2010.05.17/outbox.cif.g08.bks.cpg/sg60_13_cif.got.tgz:24961.got - 2010.06.03 14:59:27.
