data_PCOD9456628
_publ_section_title
;
Structure prediction by ZEFSAII (Michael W. Deem and Ramdas Pophale) SiO2 
 PCOD9456628
Probable space group: P B C N
;
_chemical_formula_sum "Si O2"
_cell_formula_units_Z 48
_cell_length_a 9.829538
_cell_length_b 8.923358
_cell_length_c 25.575589
_cell_angle_alpha 90.000000
_cell_angle_beta 90.000000
_cell_angle_gamma 90.000000
_cell_volume 2243.298506
_symmetry_space_group_name_H-M "P B C N"
_symmetry_group_IT_number 60
_symmetry_cell_setting 'orthorhombic'
loop_
_space_group_symop_operation_xyz
x,y,z
1/2-x,1/2-y,1/2+z
1/2+x,1/2-y,-z
-x,y,1/2-z
-x,-y,-z
1/2+x,1/2+y,1/2-z
1/2-x,1/2+y,z
x,-y,1/2+z
loop_
_atom_site_type_symbol
_atom_site_label
_atom_site_fract_x
_atom_site_fract_y
_atom_site_fract_z
Si Si1 0.836722 0.278388 0.244645
Si Si2 0.123803 0.915768 0.972742
Si Si3 0.422433 0.367674 0.855363
Si Si4 0.673869 0.874016 0.968021
Si Si5 0.831101 0.010690 0.808465
Si Si6 0.641673 0.860600 0.400011
O O1 0.724932 0.400888 0.258263
O O2 0.000000 0.320299 0.250000
O O3 0.824364 0.202734 0.187996
O O4 0.806488 0.157938 0.289797
O O5 0.131992 0.925072 0.910488
O O6 0.107483 0.745811 0.993258
O O7 0.249125 0.004382 0.996955
O O8 0.000000 0.000000 0.000000
O O9 0.512895 0.496892 0.827155
O O10 0.521299 0.231269 0.873351
O O11 0.775232 0.765698 0.933809
O O12 0.593018 0.988826 0.930556
O O13 0.745176 0.069691 0.857394
#
# Coordination Sequence:
#
# PCOD9456628 Si02
#       6
#     8   8   8   8   8   8
#     4  10  22  38  62  90 120 157 209 268 316 372
#     4  11  22  42  63  96 137 172 215 265 323 382
#     4  11  22  38  66  88 127 171 210 267 326 378
#     4  10  22  36  64  97 130 169 215 263 308 388
#     4  11  19  38  65  87 121 161 213 261 313 384
#     4  11  17  36  63  91 117 169 210 253 313 382
#
# _framework density 21.397062999999999
#
# number of rings (size 3 to 8) (size 9 to 14) (size 15 to 20)
#    0.000    1.333    6.667    1.000    0.000    2.000 
#    0.000    2.500    3.667    0.000    0.000    0.000 
#    0.000    0.000    0.000    0.000    0.000    0.000 
#
# Total GULP energy -267347.045309 kJ/mol
# GULP energy per Si atom -5569.730111 kJ/mol
# Density = 2.134836 g / cm^3
# Si number density = 21.397063 Si / 1000 Ang^3
#
#
#
# Elastic Constant Matrix: (Units=GPa)
#
#
# Indices 1 2 3 4 5 6 
#
# 1 20.9602 30.5246 31.3604 0.0000 0.0000 0.0000
# 2 30.5246 105.9521 49.8216 0.0000 0.0000 0.0000
# 3 31.3604 49.8216 119.1994 0.0000 0.0000 0.0000
# 4 0.0000 0.0000 0.0000 49.0971 0.0000 0.0000
# 5 0.0000 0.0000 0.0000 0.0000 33.6006 0.0000
# 6 0.0000 0.0000 0.0000 0.0000 0.0000 28.1423
#
#
#
# Elastic Compliance Matrix: (Units=1/GPa)
#
#
# Indices 1 2 3 4 5 6 
#
# 1 0.109336 -0.022370 -0.019416 0.000000 0.000000 0.000000
# 2 -0.022370 0.016324 -0.000938 0.000000 0.000000 0.000000
# 3 -0.019416 -0.000938 0.013889 0.000000 0.000000 0.000000
# 4 0.000000 0.000000 0.000000 0.020368 0.000000 0.000000
# 5 0.000000 0.000000 0.000000 0.000000 0.029761 0.000000
# 6 0.000000 0.000000 0.000000 0.000000 0.000000 0.035534
#
#
# Mechanical properties :
#
#
# Convention : Reuss Voigt Hill
#
# Bulk Modulus (GPa) = 18.48318 52.16945 35.32631
# Shear Modulus (GPa) = 15.21182 31.12834 23.17008
#
# Velocity S-wave (km/s) = 2.66922 3.81832 3.29426
# Velocity P-wave (km/s) = 4.26105 6.62374 5.56913
#
# Compressibility (1/GPa) = 0.05410325
#
# Stress axis : x y z
#
# Youngs Moduli (GPa) = 9.14613 61.26046 71.99822
#
# Poissons Ratio (x) = 1.37038 1.39789
# Poissons Ratio (y) = 0.20460 0.06750
# Poissons Ratio (z) = 0.17758 0.05743
#
# Static dielectric constant tensor:
#      x y z
#    x 1.779420 0.000000 0.000000 
#    y 0.000000 1.649380 0.000000 
#    z 0.000000 0.000000 1.883360 
# 
# From -- ./inp_files/25273.got.cif
#   From: 2010.05.17/outbox.cif.g08.bks.cpg/sg60_13_cif.got.tgz:25273.got - 2010.06.03 14:59:27.
