data_PCOD9456082
_publ_section_title
;
Structure prediction by ZEFSAII (Michael W. Deem and Ramdas Pophale) SiO2 
 PCOD9456082
Probable space group: P B C N
;
_chemical_formula_sum "Si O2"
_cell_formula_units_Z 48
_cell_length_a 14.839303
_cell_length_b 9.505180
_cell_length_c 16.424545
_cell_angle_alpha 90.000000
_cell_angle_beta 90.000000
_cell_angle_gamma 90.000000
_cell_volume 2316.686114
_symmetry_space_group_name_H-M "P B C N"
_symmetry_group_IT_number 60
_symmetry_cell_setting 'orthorhombic'
loop_
_space_group_symop_operation_xyz
x,y,z
1/2-x,1/2-y,1/2+z
1/2+x,1/2-y,-z
-x,y,1/2-z
-x,-y,-z
1/2+x,1/2+y,1/2-z
1/2-x,1/2+y,z
x,-y,1/2+z
loop_
_atom_site_type_symbol
_atom_site_label
_atom_site_fract_x
_atom_site_fract_y
_atom_site_fract_z
Si Si1 0.098888 0.954401 0.223877
Si Si2 0.946096 0.224401 0.484365
Si Si3 0.414867 0.789978 0.197812
Si Si4 0.628864 0.592890 0.960321
Si Si5 0.766625 0.639243 0.681807
Si Si6 0.796454 0.614637 0.075166
O O1 0.127358 0.891451 0.136974
O O2 0.169127 0.916611 0.293085
O O3 0.000000 0.905565 0.250000
O O4 0.094945 0.122453 0.213005
O O5 0.932583 0.301213 0.397819
O O6 0.889826 0.313318 0.549662
O O7 0.050675 0.193393 0.503420
O O8 0.901041 0.068439 0.479453
O O9 0.500000 0.839881 0.250000
O O10 0.327916 0.860395 0.237854
O O11 0.726139 0.615992 0.000157
O O12 0.751671 0.792701 0.644857
O O13 0.807177 0.539951 0.612042
#
# Coordination Sequence:
#
# PCOD9456082 Si02
#       6
#     8   8   8   8   8   8
#     4  10  21  38  65  94 123 165 216 259 311 385
#     4  10  21  39  66  94 126 168 217 261 317 387
#     4  10  21  40  64  90 127 167 207 260 327 376
#     4  10  21  39  66  93 127 168 217 262 317 389
#     4  12  23  40  63  94 129 166 212 261 317 382
#     4  12  23  40  63  94 128 165 213 260 319 379
#
# _framework density 20.719249999999999
#
# number of rings (size 3 to 8) (size 9 to 14) (size 15 to 20)
#    0.000    1.333    3.333    3.000    4.667    0.000 
#    0.000    5.833    0.000    0.000    0.000    0.000 
#    0.000    0.000    0.000    0.000    0.000    0.000 
#
# Total GULP energy -268276.296465 kJ/mol
# GULP energy per Si atom -5589.089510 kJ/mol
# Density = 2.067209 g / cm^3
# Si number density = 20.719250 Si / 1000 Ang^3
#
#
#
# Elastic Constant Matrix: (Units=GPa)
#
#
# Indices 1 2 3 4 5 6 
#
# 1 82.6280 9.8303 18.6248 0.0000 0.0000 0.0000
# 2 9.8303 21.4994 0.8739 0.0000 0.0000 0.0000
# 3 18.6248 0.8739 76.1910 0.0000 0.0000 0.0000
# 4 0.0000 0.0000 0.0000 22.7013 0.0000 0.0000
# 5 0.0000 0.0000 0.0000 0.0000 35.6261 0.0000
# 6 0.0000 0.0000 0.0000 0.0000 0.0000 19.4372
#
#
#
# Elastic Compliance Matrix: (Units=1/GPa)
#
#
# Indices 1 2 3 4 5 6 
#
# 1 0.013555 -0.006066 -0.003244 0.000000 0.000000 0.000000
# 2 -0.006066 0.049249 0.000918 0.000000 0.000000 0.000000
# 3 -0.003244 0.000918 0.013907 0.000000 0.000000 0.000000
# 4 0.000000 0.000000 0.000000 0.044050 0.000000 0.000000
# 5 0.000000 0.000000 0.000000 0.000000 0.028069 0.000000
# 6 0.000000 0.000000 0.000000 0.000000 0.000000 0.051448
#
#
# Mechanical properties :
#
#
# Convention : Reuss Voigt Hill
#
# Bulk Modulus (GPa) = 16.68681 26.55295 21.61988
# Shear Modulus (GPa) = 21.09353 25.61887 23.35620
#
# Velocity S-wave (km/s) = 3.19417 3.52017 3.36113
# Velocity P-wave (km/s) = 4.65563 5.41900 5.05176
#
# Compressibility (1/GPa) = 0.05992758
#
# Stress axis : x y z
#
# Youngs Moduli (GPa) = 73.77164 20.30491 71.90425
#
# Poissons Ratio (x) = 0.12317 0.23326
# Poissons Ratio (y) = 0.44751 -0.06601
# Poissons Ratio (z) = 0.23932 -0.01864
#
# Static dielectric constant tensor:
#      x y z
#    x 1.726570 0.000000 0.000000 
#    y 0.000000 1.705500 0.000000 
#    z 0.000000 0.000000 1.731260 
# 
# From -- ./inp_files/19993.got.cif
#   From: 2010.05.17/outbox.cif.g08.bks.cpg/sg60_10_cif.got.tgz:19993.got - 2010.06.03 14:59:27.
