data_PCOD9456472
_publ_section_title
;
Structure prediction by ZEFSAII (Michael W. Deem and Ramdas Pophale) SiO2 
 PCOD9456472
Probable space group: P B C N
;
_chemical_formula_sum "Si O2"
_cell_formula_units_Z 32
_cell_length_a 11.073612
_cell_length_b 9.425457
_cell_length_c 13.889381
_cell_angle_alpha 90.000000
_cell_angle_beta 90.000000
_cell_angle_gamma 90.000000
_cell_volume 1449.688221
_symmetry_space_group_name_H-M "P B C N"
_symmetry_group_IT_number 60
_symmetry_cell_setting 'orthorhombic'
loop_
_space_group_symop_operation_xyz
x,y,z
1/2-x,1/2-y,1/2+z
1/2+x,1/2-y,-z
-x,y,1/2-z
-x,-y,-z
1/2+x,1/2+y,1/2-z
1/2-x,1/2+y,z
x,-y,1/2+z
loop_
_atom_site_type_symbol
_atom_site_label
_atom_site_fract_x
_atom_site_fract_y
_atom_site_fract_z
Si Si1 0.244302 0.850098 0.382585
Si Si2 0.991336 0.480843 0.636352
Si Si3 0.435958 0.233507 0.521102
Si Si4 0.094494 0.894501 0.833667
O O1 0.361300 0.949658 0.389318
O O2 0.188057 0.800117 0.483611
O O3 0.291793 0.712185 0.326631
O O4 0.141924 0.946125 0.334493
O O5 0.997144 0.340103 0.572410
O O6 0.000000 0.459933 0.750000
O O7 0.080285 0.604108 0.597071
O O8 0.024456 0.152338 0.430578
O O9 0.000000 0.867882 0.750000
#
# Coordination Sequence:
#
# PCOD9456472 Si02
#       4
#     8   8   8   8
#     4  11  21  45  66  96 142 182 228 286 348 407
#     4  10  22  44  69 101 143 180 229 289 348 416
#     4  10  21  42  70  96 138 181 231 286 339 419
#     4  11  25  47  68 107 145 180 240 289 341 430
#
# _framework density 22.073712
#
# number of rings (size 3 to 8) (size 9 to 14) (size 15 to 20)
#    0.000    1.500    2.500    3.750    0.000    1.000 
#   18.000    0.000    0.000    0.000    0.000    0.000 
#    0.000    0.000    0.000    0.000    0.000    0.000 
#
# Total GULP energy -178724.593136 kJ/mol
# GULP energy per Si atom -5585.143536 kJ/mol
# Density = 2.202347 g / cm^3
# Si number density = 22.073712 Si / 1000 Ang^3
#
#
#
# Elastic Constant Matrix: (Units=GPa)
#
#
# Indices 1 2 3 4 5 6 
#
# 1 85.3472 47.6024 50.4298 0.0000 0.0000 0.0000
# 2 47.6024 90.7708 54.2229 0.0000 0.0000 0.0000
# 3 50.4298 54.2229 150.6779 0.0000 0.0000 0.0000
# 4 0.0000 0.0000 0.0000 21.3189 0.0000 0.0000
# 5 0.0000 0.0000 0.0000 0.0000 29.7730 0.0000
# 6 0.0000 0.0000 0.0000 0.0000 0.0000 30.8301
#
#
#
# Elastic Compliance Matrix: (Units=1/GPa)
#
#
# Indices 1 2 3 4 5 6 
#
# 1 0.017764 -0.007343 -0.003303 0.000000 0.000000 0.000000
# 2 -0.007343 0.017069 -0.003685 0.000000 0.000000 0.000000
# 3 -0.003303 -0.003685 0.009068 0.000000 0.000000 0.000000
# 4 0.000000 0.000000 0.000000 0.046907 0.000000 0.000000
# 5 0.000000 0.000000 0.000000 0.000000 0.033587 0.000000
# 6 0.000000 0.000000 0.000000 0.000000 0.000000 0.032436
#
#
# Mechanical properties :
#
#
# Convention : Reuss Voigt Hill
#
# Bulk Modulus (GPa) = 65.61834 70.14513 67.88173
# Shear Modulus (GPa) = 26.23684 28.02045 27.12865
#
# Velocity S-wave (km/s) = 3.45135 3.56673 3.50952
# Velocity P-wave (km/s) = 6.75824 6.98633 6.87323
#
# Compressibility (1/GPa) = 0.01523964
#
# Stress axis : x y z
#
# Youngs Moduli (GPa) = 56.29384 58.58707 110.27618
#
# Poissons Ratio (x) = 0.43019 0.36424
# Poissons Ratio (y) = 0.41335 0.40634
# Poissons Ratio (z) = 0.18594 0.21588
#
# Static dielectric constant tensor:
#      x y z
#    x 1.838630 0.000000 0.000000 
#    y 0.000000 1.864000 0.000000 
#    z 0.000000 0.000000 1.798600 
# 
# From -- ./inp_files/15720.got.cif
#   From: 2010.05.17/outbox.cif.g08.bks.cpg/sg60_8_cif.got.tgz:15720.got - 2010.06.03 14:59:27.
