data_PCOD9456779
_publ_section_title
;
Structure prediction by ZEFSAII (Michael W. Deem and Ramdas Pophale) SiO2 
 PCOD9456779
Probable space group: P B C N
;
_chemical_formula_sum "Si O2"
_cell_formula_units_Z 64
_cell_length_a 8.465077
_cell_length_b 15.746888
_cell_length_c 21.301791
_cell_angle_alpha 90.000000
_cell_angle_beta 90.000000
_cell_angle_gamma 90.000000
_cell_volume 2839.499332
_symmetry_space_group_name_H-M "P B C N"
_symmetry_group_IT_number 60
_symmetry_cell_setting 'orthorhombic'
loop_
_space_group_symop_operation_xyz
x,y,z
1/2-x,1/2-y,1/2+z
1/2+x,1/2-y,-z
-x,y,1/2-z
-x,-y,-z
1/2+x,1/2+y,1/2-z
1/2-x,1/2+y,z
x,-y,1/2+z
loop_
_atom_site_type_symbol
_atom_site_label
_atom_site_fract_x
_atom_site_fract_y
_atom_site_fract_z
Si Si1 0.183994 0.055328 0.391611
Si Si2 0.813377 0.142070 0.888741
Si Si3 0.315777 0.301642 0.250411
Si Si4 0.309073 0.545702 0.142441
Si Si5 0.848853 0.881273 0.057847
Si Si6 0.663650 0.260380 0.626485
Si Si7 0.167666 0.203261 0.073336
Si Si8 0.818616 0.484455 0.230987
O O1 0.190065 0.981431 0.443675
O O2 0.299475 0.027000 0.335973
O O3 0.000051 0.052313 0.367043
O O4 0.226831 0.152541 0.404727
O O5 0.774665 0.188697 0.822966
O O6 0.753584 0.045143 0.886087
O O7 0.756657 0.209215 0.940080
O O8 0.999805 0.132019 0.897950
O O9 0.500000 0.278438 0.250000
O O10 0.219257 0.246253 0.300950
O O11 0.282449 0.398134 0.272505
O O12 0.238557 0.628991 0.109691
O O13 0.260668 0.540990 0.214789
O O14 0.716295 0.823428 0.089642
O O15 0.885680 0.843568 0.989917
O O16 0.478694 0.269424 0.616209
O O17 0.000000 0.466803 0.250000
#
# Coordination Sequence:
#
# PCOD9456779 Si02
#       8
#     8   8   8   8   8   8   8   8
#     4  10  22  41  65  91 125 176 219 265 329 398
#     4  10  22  39  65  91 126 175 207 271 337 386
#     4  11  21  41  66  90 131 168 213 266 336 402
#     4   9  22  41  61  91 128 173 216 263 333 396
#     4  11  22  44  65  90 133 174 223 268 330 400
#     4  11  24  39  67  98 121 172 223 274 324 389
#     4  11  25  40  64  97 130 171 227 274 320 398
#     4  11  22  37  64  97 133 163 212 278 333 392
#
# _framework density 22.539183999999999
#
# number of rings (size 3 to 8) (size 9 to 14) (size 15 to 20)
#    0.000    1.500    2.500    2.625    5.250    7.000 
#    0.000    0.000    0.000    3.750    0.000    0.000 
#    0.000    0.000    0.000    0.000    0.000    0.000 
#
# Total GULP energy -357176.184764 kJ/mol
# GULP energy per Si atom -5580.877887 kJ/mol
# Density = 2.248788 g / cm^3
# Si number density = 22.539184 Si / 1000 Ang^3
#
#
#
# Elastic Constant Matrix: (Units=GPa)
#
#
# Indices 1 2 3 4 5 6 
#
# 1 21.3909 12.3035 12.1236 0.0000 0.0000 0.0000
# 2 12.3035 88.3150 13.3394 0.0000 0.0000 0.0000
# 3 12.1236 13.3394 69.5487 0.0000 0.0000 0.0000
# 4 0.0000 0.0000 0.0000 36.6185 0.0000 0.0000
# 5 0.0000 0.0000 0.0000 0.0000 13.2061 0.0000
# 6 0.0000 0.0000 0.0000 0.0000 0.0000 21.8869
#
#
#
# Elastic Compliance Matrix: (Units=1/GPa)
#
#
# Indices 1 2 3 4 5 6 
#
# 1 0.055198 -0.006423 -0.008390 0.000000 0.000000 0.000000
# 2 -0.006423 0.012408 -0.001260 0.000000 0.000000 0.000000
# 3 -0.008390 -0.001260 0.016083 0.000000 0.000000 0.000000
# 4 0.000000 0.000000 0.000000 0.027309 0.000000 0.000000
# 5 0.000000 0.000000 0.000000 0.000000 0.075723 0.000000
# 6 0.000000 0.000000 0.000000 0.000000 0.000000 0.045690
#
#
# Mechanical properties :
#
#
# Convention : Reuss Voigt Hill
#
# Bulk Modulus (GPa) = 19.40130 28.30974 23.85552
# Shear Modulus (GPa) = 17.74704 23.77482 20.76093
#
# Velocity S-wave (km/s) = 2.80908 3.25133 3.03826
# Velocity P-wave (km/s) = 4.37582 5.16549 4.78697
#
# Compressibility (1/GPa) = 0.05154294
#
# Stress axis : x y z
#
# Youngs Moduli (GPa) = 18.11651 80.59168 62.17856
#
# Poissons Ratio (x) = 0.51761 0.52169
# Poissons Ratio (y) = 0.11636 0.07836
# Poissons Ratio (z) = 0.15200 0.10157
#
# Static dielectric constant tensor:
#      x y z
#    x 1.808930 0.000000 0.000000 
#    y 0.000000 1.907600 0.000000 
#    z 0.000000 0.000000 1.892540 
# 
# From -- ./inp_files/24093.got.cif
#   From: 2010.05.17/outbox.cif.g08.bks.cpg/sg60_13_cif.got.tgz:24093.got - 2010.06.03 14:59:27.
