data_PCOD9456466
_publ_section_title
;
Structure prediction by ZEFSAII (Michael W. Deem and Ramdas Pophale) SiO2 
 PCOD9456466
Probable space group: P B C N
;
_chemical_formula_sum "Si O2"
_cell_formula_units_Z 56
_cell_length_a 5.009482
_cell_length_b 29.242471
_cell_length_c 15.665115
_cell_angle_alpha 90.000000
_cell_angle_beta 90.000000
_cell_angle_gamma 90.000000
_cell_volume 2294.776933
_symmetry_space_group_name_H-M "P B C N"
_symmetry_group_IT_number 60
_symmetry_cell_setting 'orthorhombic'
loop_
_space_group_symop_operation_xyz
x,y,z
1/2-x,1/2-y,1/2+z
1/2+x,1/2-y,-z
-x,y,1/2-z
-x,-y,-z
1/2+x,1/2+y,1/2-z
1/2-x,1/2+y,z
x,-y,1/2+z
loop_
_atom_site_type_symbol
_atom_site_label
_atom_site_fract_x
_atom_site_fract_y
_atom_site_fract_z
Si Si1 0.242097 0.722036 0.192100
Si Si2 0.177049 0.974496 0.664265
Si Si3 0.069917 0.071304 0.655020
Si Si4 0.217773 0.624772 0.496746
Si Si5 0.940799 0.272601 0.468279
Si Si6 0.805300 0.542743 0.511085
Si Si7 0.848427 0.123296 0.340459
O O1 0.500000 0.717654 0.250000
O O2 0.314002 0.758427 0.121078
O O3 0.188590 0.670931 0.154388
O O4 0.000000 0.736386 0.250000
O O5 0.087664 0.966397 0.564820
O O6 0.316126 0.924587 0.670235
O O7 0.000000 0.974804 0.750000
O O8 0.269761 0.027402 0.663951
O O9 0.823048 0.048780 0.603557
O O10 0.000000 0.087162 0.750000
O O11 0.154259 0.109448 0.587521
O O12 0.104288 0.675200 0.508998
O O13 0.431825 0.624047 0.418225
O O14 0.977513 0.588170 0.490617
O O15 0.748278 0.242762 0.530344
O O16 0.000000 0.500000 0.500000
O O17 0.000000 0.124843 0.250000
#
# Coordination Sequence:
#
# PCOD9456466 Si02
#       7
#     8   8   8   8   8   8   8
#     4  11  25  48  74 108 149 192 253 322 384 460
#     4  10  21  42  69 101 151 191 240 307 378 454
#     4  11  25  48  70 103 157 196 250 317 376 463
#     4  12  26  46  76 108 146 197 252 319 380 469
#     4  12  28  49  78 110 148 201 257 320 397 466
#     4  12  24  43  78 107 142 201 256 308 385 463
#     4  10  22  42  69 107 143 188 238 305 386 447
#
# _framework density 24.403244999999998
#
# number of rings (size 3 to 8) (size 9 to 14) (size 15 to 20)
#    0.000    0.857    4.286    2.143    6.000    1.143 
#    2.571    6.429    0.000    0.000    0.000    0.000 
#    0.000    0.000    0.000    0.000    0.000    0.000 
#
# Total GULP energy -312222.158516 kJ/mol
# GULP energy per Si atom -5575.395688 kJ/mol
# Density = 2.434770 g / cm^3
# Si number density = 24.403245 Si / 1000 Ang^3
#
#
#
# Elastic Constant Matrix: (Units=GPa)
#
#
# Indices 1 2 3 4 5 6 
#
# 1 59.8948 -0.8148 31.3321 0.0000 0.0000 0.0000
# 2 -0.8148 138.9007 18.7320 0.0000 0.0000 0.0000
# 3 31.3321 18.7320 210.1491 0.0000 0.0000 0.0000
# 4 0.0000 0.0000 0.0000 36.0675 0.0000 0.0000
# 5 0.0000 0.0000 0.0000 0.0000 42.1730 0.0000
# 6 0.0000 0.0000 0.0000 0.0000 0.0000 -47.8740
#
#
#
# Elastic Compliance Matrix: (Units=1/GPa)
#
#
# Indices 1 2 3 4 5 6 
#
# 1 0.018139 0.000477 -0.002747 0.000000 0.000000 0.000000
# 2 0.000477 0.007300 -0.000722 0.000000 0.000000 0.000000
# 3 -0.002747 -0.000722 0.005232 0.000000 0.000000 0.000000
# 4 0.000000 0.000000 0.000000 0.027726 0.000000 0.000000
# 5 0.000000 0.000000 0.000000 0.000000 0.023712 0.000000
# 6 0.000000 0.000000 0.000000 0.000000 0.000000 -0.020888
#
#
# Mechanical properties :
#
#
# Convention : Reuss Voigt Hill
#
# Bulk Modulus (GPa) = 40.50617 56.38259 48.44438
# Shear Modulus (GPa) = 66.28326 30.05299 48.16813
#
# Velocity S-wave (km/s) = 5.21734 3.51310 4.44761
# Velocity P-wave (km/s) = 7.27522 6.29369 6.80219
#
# Compressibility (1/GPa) = 0.02468760
#
# Stress axis : x y z
#
# Youngs Moduli (GPa) = 55.12852 136.99534 191.11609
#
# Poissons Ratio (x) = -0.06533 0.52499
# Poissons Ratio (y) = -0.02629 0.13794
# Poissons Ratio (z) = 0.15144 0.09888
#
# Static dielectric constant tensor:
#      x y z
#    x 2.021720 0.000000 0.000000 
#    y 0.000000 1.953330 0.000000 
#    z 0.000000 0.000000 2.049840 
# 
# From -- ./inp_files/14095.got.cif
#   From: 2010.05.17/outbox.cif.g08.bks.cpg/sg60_8_cif.got.tgz:14095.got - 2010.06.03 14:59:27.
