data_PCOD9456983
_publ_section_title
;
Structure prediction by ZEFSAII (Michael W. Deem and Ramdas Pophale) SiO2 
 PCOD9456983
Probable space group: P B C N
;
_chemical_formula_sum "Si O2"
_cell_formula_units_Z 48
_cell_length_a 13.561476
_cell_length_b 10.308936
_cell_length_c 13.517065
_cell_angle_alpha 90.000000
_cell_angle_beta 90.000000
_cell_angle_gamma 90.000000
_cell_volume 1889.745002
_symmetry_space_group_name_H-M "P B C N"
_symmetry_group_IT_number 60
_symmetry_cell_setting 'orthorhombic'
loop_
_space_group_symop_operation_xyz
x,y,z
1/2-x,1/2-y,1/2+z
1/2+x,1/2-y,-z
-x,y,1/2-z
-x,-y,-z
1/2+x,1/2+y,1/2-z
1/2-x,1/2+y,z
x,-y,1/2+z
loop_
_atom_site_type_symbol
_atom_site_label
_atom_site_fract_x
_atom_site_fract_y
_atom_site_fract_z
Si Si1 0.441536 0.673688 0.063154
Si Si2 0.500000 0.504453 0.250000
Si Si3 0.352320 0.273630 0.247225
Si Si4 0.000000 0.562023 0.250000
Si Si5 0.644236 0.226209 0.491141
Si Si6 0.825420 0.382505 0.323190
Si Si7 0.720725 0.502848 0.996805
O O1 0.480720 0.594440 0.156665
O O2 0.360195 0.773603 0.100661
O O3 0.382251 0.572997 0.995209
O O4 0.531300 0.752143 0.018278
O O5 0.409407 0.406878 0.265025
O O6 0.419223 0.162199 0.298609
O O7 0.355944 0.236101 0.129426
O O8 0.236808 0.307368 0.261013
O O9 0.922886 0.463543 0.300176
O O10 0.691487 0.092201 0.528495
O O11 0.702643 0.351934 0.533863
O O12 0.748673 0.475224 0.380627
#
# Coordination Sequence:
#
# PCOD9456983 Si02
#       7
#     8   4   8   4   8   8   8
#     4  12  23  41  71  98 131 176 224 271 336 405
#     4  11  23  40  64 100 131 173 222 270 338 410
#     4  10  22  41  68  95 130 183 221 275 340 403
#     4  11  21  40  68  98 131 179 230 268 340 416
#     4  11  23  43  73  94 127 181 227 273 332 402
#     4  11  21  41  69  94 135 179 221 274 347 399
#     4  11  21  44  69  96 130 178 219 279 337 389
#
# _framework density 25.400251000000001
#
# number of rings (size 3 to 8) (size 9 to 14) (size 15 to 20)
#    0.000    1.000    8.333    1.000    0.000    0.667 
#    0.000    5.000    0.000    0.000    0.000    0.000 
#    0.000    0.000    0.000    0.000    0.000    0.000 
#
# Total GULP energy -268147.636300 kJ/mol
# GULP energy per Si atom -5586.409090 kJ/mol
# Density = 2.534244 g / cm^3
# Si number density = 25.400251 Si / 1000 Ang^3
#
#
#
# Elastic Constant Matrix: (Units=GPa)
#
#
# Indices 1 2 3 4 5 6 
#
# 1 152.5233 54.7487 29.0009 0.0000 0.0000 0.0000
# 2 54.7487 115.6638 13.2000 0.0000 0.0000 0.0000
# 3 29.0009 13.2000 60.7686 0.0000 0.0000 0.0000
# 4 0.0000 0.0000 0.0000 10.7455 0.0000 0.0000
# 5 0.0000 0.0000 0.0000 0.0000 38.1690 0.0000
# 6 0.0000 0.0000 0.0000 0.0000 0.0000 51.4875
#
#
#
# Elastic Compliance Matrix: (Units=1/GPa)
#
#
# Indices 1 2 3 4 5 6 
#
# 1 0.008484 -0.003644 -0.003257 0.000000 0.000000 0.000000
# 2 -0.003644 0.010431 -0.000527 0.000000 0.000000 0.000000
# 3 -0.003257 -0.000527 0.018125 0.000000 0.000000 0.000000
# 4 0.000000 0.000000 0.000000 0.093063 0.000000 0.000000
# 5 0.000000 0.000000 0.000000 0.000000 0.026199 0.000000
# 6 0.000000 0.000000 0.000000 0.000000 0.000000 0.019422
#
#
# Mechanical properties :
#
#
# Convention : Reuss Voigt Hill
#
# Bulk Modulus (GPa) = 45.07873 58.09498 51.58685
# Shear Modulus (GPa) = 25.25591 35.54745 30.40168
#
# Velocity S-wave (km/s) = 3.15670 3.74504 3.46338
# Velocity P-wave (km/s) = 5.57425 6.45150 6.02885
#
# Compressibility (1/GPa) = 0.02218341
#
# Stress axis : x y z
#
# Youngs Moduli (GPa) = 117.87281 95.87072 55.17322
#
# Poissons Ratio (x) = 0.34935 0.17971
# Poissons Ratio (y) = 0.42953 0.02906
# Poissons Ratio (z) = 0.38393 0.05050
#
# Static dielectric constant tensor:
#      x y z
#    x 2.018570 0.000000 0.000000 
#    y 0.000000 2.013560 0.000000 
#    z 0.000000 0.000000 2.051890 
# 
# From -- ./inp_files/20041.got.cif
#   From: 2010.05.17/outbox.cif.g08.bks.cpg/sg60_11_cif.got.tgz:20041.got - 2010.06.03 14:59:27.
