data_PCOD9456385
_publ_section_title
;
Structure prediction by ZEFSAII (Michael W. Deem and Ramdas Pophale) SiO2 
 PCOD9456385
Probable space group: P B C N
;
_chemical_formula_sum "Si O2"
_cell_formula_units_Z 48
_cell_length_a 10.650795
_cell_length_b 13.546179
_cell_length_c 15.953876
_cell_angle_alpha 90.000000
_cell_angle_beta 90.000000
_cell_angle_gamma 90.000000
_cell_volume 2301.786550
_symmetry_space_group_name_H-M "P B C N"
_symmetry_group_IT_number 60
_symmetry_cell_setting 'orthorhombic'
loop_
_space_group_symop_operation_xyz
x,y,z
1/2-x,1/2-y,1/2+z
1/2+x,1/2-y,-z
-x,y,1/2-z
-x,-y,-z
1/2+x,1/2+y,1/2-z
1/2-x,1/2+y,z
x,-y,1/2+z
loop_
_atom_site_type_symbol
_atom_site_label
_atom_site_fract_x
_atom_site_fract_y
_atom_site_fract_z
Si Si1 0.164796 0.816025 0.181979
Si Si2 0.500000 0.843972 0.750000
Si Si3 0.502081 0.335220 0.022682
Si Si4 0.370954 0.473681 0.906053
Si Si5 0.906573 0.640785 0.932432
Si Si6 0.000000 0.982918 0.250000
Si Si7 0.405988 0.980543 0.894401
O O1 0.296094 0.839869 0.135613
O O2 0.127218 0.722622 0.239937
O O3 0.117311 0.911282 0.232412
O O4 0.062318 0.801796 0.108072
O O5 0.484885 0.910833 0.832758
O O6 0.390573 0.383938 0.968934
O O7 0.564054 0.245644 0.974322
O O8 0.596109 0.424851 0.045223
O O9 0.473817 0.458355 0.833801
O O10 0.236528 0.482148 0.864833
O O11 0.028467 0.587435 0.892843
O O12 0.887324 0.564661 0.011233
#
# Coordination Sequence:
#
# PCOD9456385 Si02
#       7
#     8   4   8   8   8   4   8
#     4  10  21  43  66  91 130 172 225 268 333 402
#     4  11  24  44  67  98 136 184 213 290 355 382
#     4  10  21  41  66  96 121 177 221 271 325 395
#     4  10  22  40  66  93 132 165 221 271 325 400
#     4  11  24  41  66  97 129 176 226 271 331 409
#     4   9  22  40  63  92 128 172 207 270 341 380
#     4  11  25  40  65  99 135 172 220 278 341 395
#
# _framework density 20.853366999999999
#
# number of rings (size 3 to 8) (size 9 to 14) (size 15 to 20)
#    0.000    1.667    3.333    0.000    4.667    1.333 
#    0.000    0.833    0.000    0.000    0.000    0.000 
#    0.000    0.000    0.000    0.000    0.000    0.000 
#
# Total GULP energy -267499.839214 kJ/mol
# GULP energy per Si atom -5572.913317 kJ/mol
# Density = 2.080590 g / cm^3
# Si number density = 20.853367 Si / 1000 Ang^3
#
#
#
# Elastic Constant Matrix: (Units=GPa)
#
#
# Indices 1 2 3 4 5 6 
#
# 1 53.2197 7.4281 -9.0049 0.0000 0.0000 0.0000
# 2 7.4281 49.1505 7.2212 0.0000 0.0000 0.0000
# 3 -9.0049 7.2212 51.5967 0.0000 0.0000 0.0000
# 4 0.0000 0.0000 0.0000 3.2591 0.0000 0.0000
# 5 0.0000 0.0000 0.0000 0.0000 41.0394 0.0000
# 6 0.0000 0.0000 0.0000 0.0000 0.0000 10.5737
#
#
#
# Elastic Compliance Matrix: (Units=1/GPa)
#
#
# Indices 1 2 3 4 5 6 
#
# 1 0.019968 -0.003604 0.003989 0.000000 0.000000 0.000000
# 2 -0.003604 0.021423 -0.003627 0.000000 0.000000 0.000000
# 3 0.003989 -0.003627 0.020585 0.000000 0.000000 0.000000
# 4 0.000000 0.000000 0.000000 0.306837 0.000000 0.000000
# 5 0.000000 0.000000 0.000000 0.000000 0.024367 0.000000
# 6 0.000000 0.000000 0.000000 0.000000 0.000000 0.094574
#
#
# Mechanical properties :
#
#
# Convention : Reuss Voigt Hill
#
# Bulk Modulus (GPa) = 18.02042 18.36175 18.19109
# Shear Modulus (GPa) = 9.75161 20.86260 15.30710
#
# Velocity S-wave (km/s) = 2.16482 3.16641 2.71225
# Velocity P-wave (km/s) = 3.86119 4.71089 4.30705
#
# Compressibility (1/GPa) = 0.05549259
#
# Stress axis : x y z
#
# Youngs Moduli (GPa) = 50.08002 46.67826 48.57914
#
# Poissons Ratio (x) = 0.16822 -0.19380
# Poissons Ratio (y) = 0.18048 0.17621
# Poissons Ratio (z) = -0.19979 0.16931
#
# Static dielectric constant tensor:
#      x y z
#    x 1.791420 0.000000 0.000000 
#    y 0.000000 1.717420 0.000000 
#    z 0.000000 0.000000 1.862120 
# 
# From -- ./inp_files/16097.got.cif
#   From: 2010.05.17/outbox.cif.g08.bks.cpg/sg60_9_cif.got.tgz:16097.got - 2010.06.03 14:59:27.
