data_PCOD9456058
_publ_section_title
;
Structure prediction by ZEFSAII (Michael W. Deem and Ramdas Pophale) SiO2 
 PCOD9456058
Probable space group: P B C N
;
_chemical_formula_sum "Si O2"
_cell_formula_units_Z 32
_cell_length_a 12.042317
_cell_length_b 14.630022
_cell_length_c 9.213237
_cell_angle_alpha 90.000000
_cell_angle_beta 90.000000
_cell_angle_gamma 90.000000
_cell_volume 1623.182223
_symmetry_space_group_name_H-M "P B C N"
_symmetry_group_IT_number 60
_symmetry_cell_setting 'orthorhombic'
loop_
_space_group_symop_operation_xyz
x,y,z
1/2-x,1/2-y,1/2+z
1/2+x,1/2-y,-z
-x,y,1/2-z
-x,-y,-z
1/2+x,1/2+y,1/2-z
1/2-x,1/2+y,z
x,-y,1/2+z
loop_
_atom_site_type_symbol
_atom_site_label
_atom_site_fract_x
_atom_site_fract_y
_atom_site_fract_z
Si Si1 0.890498 0.563524 0.962940
Si Si2 0.973501 0.268735 0.079539
Si Si3 0.467274 0.408760 0.414945
Si Si4 0.788812 0.583958 0.638910
O O1 0.838904 0.566174 0.800640
O O2 0.930260 0.666438 0.987403
O O3 0.802253 0.514885 0.063710
O O4 0.000000 0.500000 0.000000
O O5 0.865887 0.334232 0.077038
O O6 0.000000 0.251391 0.250000
O O7 0.970816 0.175819 0.991363
O O8 0.500000 0.421374 0.250000
O O9 0.500000 0.500000 0.500000
O O10 0.336151 0.389335 0.399182
#
# Coordination Sequence:
#
# PCOD9456058 Si02
#       4
#     8   8   8   8
#     4   9  18  37  64  93 119 151 201 252 302 364
#     4   9  21  40  61  88 118 154 204 252 297 362
#     4  12  26  41  58  87 123 161 204 248 307 375
#     4  10  21  38  63  90 123 160 196 254 311 357
#
# _framework density 19.714362999999999
#
# number of rings (size 3 to 8) (size 9 to 14) (size 15 to 20)
#    0.000    2.000    0.000    4.500    0.000   10.000 
#    0.000    0.000    0.000    0.000    0.000    0.000 
#    0.000    0.000    0.000    0.000    0.000    0.000 
#
# Total GULP energy -178156.857214 kJ/mol
# GULP energy per Si atom -5567.401788 kJ/mol
# Density = 1.966949 g / cm^3
# Si number density = 19.714363 Si / 1000 Ang^3
#
#
#
# Elastic Constant Matrix: (Units=GPa)
#
#
# Indices 1 2 3 4 5 6 
#
# 1 90.6187 22.3452 31.1396 0.0000 0.0000 0.0000
# 2 22.3452 153.5806 82.5424 0.0000 0.0000 0.0000
# 3 31.1396 82.5424 88.6906 0.0000 0.0000 0.0000
# 4 0.0000 0.0000 0.0000 34.5305 0.0000 0.0000
# 5 0.0000 0.0000 0.0000 0.0000 13.0475 0.0000
# 6 0.0000 0.0000 0.0000 0.0000 0.0000 22.1293
#
#
#
# Elastic Compliance Matrix: (Units=1/GPa)
#
#
# Indices 1 2 3 4 5 6 
#
# 1 0.012640 0.001093 -0.005455 0.000000 0.000000 0.000000
# 2 0.001093 0.013122 -0.012596 0.000000 0.000000 0.000000
# 3 -0.005455 -0.012596 0.024913 0.000000 0.000000 0.000000
# 4 0.000000 0.000000 0.000000 0.028960 0.000000 0.000000
# 5 0.000000 0.000000 0.000000 0.000000 0.076643 0.000000
# 6 0.000000 0.000000 0.000000 0.000000 0.000000 0.045189
#
#
# Mechanical properties :
#
#
# Convention : Reuss Voigt Hill
#
# Bulk Modulus (GPa) = 59.66966 67.21604 63.44285
# Shear Modulus (GPa) = 20.74943 27.06564 23.90753
#
# Velocity S-wave (km/s) = 3.24775 3.70927 3.48616
# Velocity P-wave (km/s) = 6.66308 7.24665 6.96098
#
# Compressibility (1/GPa) = 0.01675894
#
# Stress axis : x y z
#
# Youngs Moduli (GPa) = 79.11179 76.20764 40.13916
#
# Poissons Ratio (x) = -0.08327 0.21896
# Poissons Ratio (y) = -0.08645 0.50560
# Poissons Ratio (z) = 0.43156 0.95992
#
# Static dielectric constant tensor:
#      x y z
#    x 2.814000 0.000000 0.000000 
#    y 0.000000 1.664350 0.000000 
#    z 0.000000 0.000000 1.659620 
# 
# From -- ./inp_files/4510.got.cif
#   From: 2010.05.17/outbox.cif.g08.bks.cpg/sg60_3_cif.got.tgz:4510.got - 2010.06.03 14:59:27.
