data_PCOD9456001
_publ_section_title
;
Structure prediction by ZEFSAII (Michael W. Deem and Ramdas Pophale) SiO2 
 PCOD9456001
Probable space group: P B C N
;
_chemical_formula_sum "Si O2"
_cell_formula_units_Z 40
_cell_length_a 12.999825
_cell_length_b 30.903009
_cell_length_c 4.994304
_cell_angle_alpha 90.000000
_cell_angle_beta 90.000000
_cell_angle_gamma 90.000000
_cell_volume 2006.380270
_symmetry_space_group_name_H-M "P B C N"
_symmetry_group_IT_number 60
_symmetry_cell_setting 'orthorhombic'
loop_
_space_group_symop_operation_xyz
x,y,z
1/2-x,1/2-y,1/2+z
1/2+x,1/2-y,-z
-x,y,1/2-z
-x,-y,-z
1/2+x,1/2+y,1/2-z
1/2-x,1/2+y,z
x,-y,1/2+z
loop_
_atom_site_type_symbol
_atom_site_label
_atom_site_fract_x
_atom_site_fract_y
_atom_site_fract_z
Si Si1 0.072813 0.246705 0.494328
Si Si2 0.214465 0.379253 0.204246
Si Si3 0.124198 0.333273 0.713081
Si Si4 0.572993 0.649793 0.004136
Si Si5 0.376477 0.972742 0.253130
O O1 0.145303 0.285538 0.590599
O O2 0.112858 0.198723 0.425216
O O3 0.000000 0.241012 0.750000
O O4 0.000000 0.261296 0.250000
O O5 0.182036 0.365073 0.504619
O O6 0.331787 0.377922 0.103274
O O7 0.170986 0.427295 0.170343
O O8 0.162746 0.344372 0.007349
O O9 0.000000 0.338525 0.750000
O O10 0.500000 0.652996 0.750000
O O11 0.500000 0.635274 0.250000
O O12 0.500000 0.967685 0.250000
O O13 0.347686 0.989426 0.546286
#
# Coordination Sequence:
#
# PCOD9456001 Si02
#       5
#     8   8   8   8   8
#     4   9  18  34  53  76 114 157 188 229 284 330
#     4  12  23  36  61  87 111 152 197 237 287 346
#     4  11  21  34  54  87 123 148 184 238 290 349
#     4  10  22  40  58  79 113 156 202 244 279 325
#     4  10  21  38  59  84 116 147 176 223 292 366
#
# _framework density 19.936402000000001
#
# number of rings (size 3 to 8) (size 9 to 14) (size 15 to 20)
#    0.000    1.600    0.000    6.600    0.000    3.200 
#    0.000    0.000    0.000    3.600    0.000    0.000 
#    0.000    0.000    0.000    0.000    0.000    0.000 
#
# Total GULP energy -222982.992545 kJ/mol
# GULP energy per Si atom -5574.574814 kJ/mol
# Density = 1.989103 g / cm^3
# Si number density = 19.936402 Si / 1000 Ang^3
#
#
#
# Elastic Constant Matrix: (Units=GPa)
#
#
# Indices 1 2 3 4 5 6 
#
# 1 67.4983 19.4060 19.2258 0.0000 0.0000 0.0000
# 2 19.4060 73.0416 6.7474 0.0000 0.0000 0.0000
# 3 19.2258 6.7474 101.8198 0.0000 0.0000 0.0000
# 4 0.0000 0.0000 0.0000 116.6829 0.0000 0.0000
# 5 0.0000 0.0000 0.0000 0.0000 29.1203 0.0000
# 6 0.0000 0.0000 0.0000 0.0000 0.0000 -20.1148
#
#
#
# Elastic Compliance Matrix: (Units=1/GPa)
#
#
# Indices 1 2 3 4 5 6 
#
# 1 0.016852 -0.004209 -0.002903 0.000000 0.000000 0.000000
# 2 -0.004209 0.014826 -0.000188 0.000000 0.000000 0.000000
# 3 -0.002903 -0.000188 0.010382 0.000000 0.000000 0.000000
# 4 0.000000 0.000000 0.000000 0.008570 0.000000 0.000000
# 5 0.000000 0.000000 0.000000 0.000000 0.034340 0.000000
# 6 0.000000 0.000000 0.000000 0.000000 0.000000 -0.049715
#
#
# Mechanical properties :
#
#
# Convention : Reuss Voigt Hill
#
# Bulk Modulus (GPa) = 36.41594 37.01312 36.71453
# Shear Modulus (GPa) = 84.73101 38.26969 61.50035
#
# Velocity S-wave (km/s) = 6.52632 4.38606 5.56015
# Velocity P-wave (km/s) = 8.66581 6.65252 7.72503
#
# Compressibility (1/GPa) = 0.02746050
#
# Stress axis : x y z
#
# Youngs Moduli (GPa) = 59.33918 67.44682 96.32153
#
# Poissons Ratio (x) = 0.28390 0.27964
# Poissons Ratio (y) = 0.24977 0.01808
# Poissons Ratio (z) = 0.17227 0.01266
#
# Static dielectric constant tensor:
#      x y z
#    x 1.718560 0.000000 0.000000 
#    y 0.000000 1.722280 0.000000 
#    z 0.000000 0.000000 0.952740 
# 
# From -- ./inp_files/839.got.cif
#   From: 2010.05.17/outbox.cif.g08.bks.cpg/sg60_1_cif.got.tgz:839.got - 2010.06.03 14:59:27.
