data_PCOD9456534
_publ_section_title
;
Structure prediction by ZEFSAII (Michael W. Deem and Ramdas Pophale) SiO2 
 PCOD9456534
Probable space group: P B C N
;
_chemical_formula_sum "Si O2"
_cell_formula_units_Z 28
_cell_length_a 5.033233
_cell_length_b 21.744210
_cell_length_c 9.669602
_cell_angle_alpha 90.000000
_cell_angle_beta 90.000000
_cell_angle_gamma 90.000000
_cell_volume 1058.276782
_symmetry_space_group_name_H-M "P B C N"
_symmetry_group_IT_number 60
_symmetry_cell_setting 'orthorhombic'
loop_
_space_group_symop_operation_xyz
x,y,z
1/2-x,1/2-y,1/2+z
1/2+x,1/2-y,-z
-x,y,1/2-z
-x,-y,-z
1/2+x,1/2+y,1/2-z
1/2-x,1/2+y,z
x,-y,1/2+z
loop_
_atom_site_type_symbol
_atom_site_label
_atom_site_fract_x
_atom_site_fract_y
_atom_site_fract_z
Si Si1 0.500000 0.150707 0.250000
Si Si2 0.655188 0.288828 0.533562
Si Si3 0.241338 0.464354 0.654967
Si Si4 0.750390 0.907588 0.349393
O O1 0.723654 0.191477 0.180167
O O2 0.367111 0.104990 0.132603
O O3 0.363142 0.261110 0.525939
O O4 0.681395 0.350278 0.443755
O O5 0.500000 0.455390 0.750000
O O6 0.256465 0.526972 0.564120
O O7 0.000000 0.487723 0.750000
O O8 0.500000 0.892846 0.250000
O O9 0.000000 0.916676 0.250000
#
# Coordination Sequence:
#
# PCOD9456534 Si02
#       4
#     4   8   8   8
#     4  10  26  46  66 100 140 170 242 282 350 402
#     4  12  29  43  69  98 141 194 223 286 334 421
#     4   8  18  38  67  95 128 171 213 294 337 397
#     4  10  21  44  68 100 133 174 232 275 348 406
#
# _framework density 26.458103999999999
#
# number of rings (size 3 to 8) (size 9 to 14) (size 15 to 20)
#    0.857    1.143    0.000    1.714   10.000    1.143 
#    0.000    2.857    0.000    0.000    0.000    0.000 
#    0.000    0.000    0.000    0.000    0.000    0.000 
#
# Total GULP energy -156299.396673 kJ/mol
# GULP energy per Si atom -5582.121310 kJ/mol
# Density = 2.639788 g / cm^3
# Si number density = 26.458104 Si / 1000 Ang^3
#
#
#
# Elastic Constant Matrix: (Units=GPa)
#
#
# Indices 1 2 3 4 5 6 
#
# 1 119.1019 -5.0192 2.0485 0.0000 0.0000 0.0000
# 2 -5.0192 141.9769 37.3215 0.0000 0.0000 0.0000
# 3 2.0485 37.3215 61.1605 0.0000 0.0000 0.0000
# 4 0.0000 0.0000 0.0000 47.1066 0.0000 0.0000
# 5 0.0000 0.0000 0.0000 0.0000 34.3943 0.0000
# 6 0.0000 0.0000 0.0000 0.0000 0.0000 14.9533
#
#
#
# Elastic Compliance Matrix: (Units=1/GPa)
#
#
# Indices 1 2 3 4 5 6 
#
# 1 0.008424 0.000443 -0.000553 0.000000 0.000000 0.000000
# 2 0.000443 0.008412 -0.005148 0.000000 0.000000 0.000000
# 3 -0.000553 -0.005148 0.019511 0.000000 0.000000 0.000000
# 4 0.000000 0.000000 0.000000 0.021228 0.000000 0.000000
# 5 0.000000 0.000000 0.000000 0.000000 0.029075 0.000000
# 6 0.000000 0.000000 0.000000 0.000000 0.000000 0.066875
#
#
# Mechanical properties :
#
#
# Convention : Reuss Voigt Hill
#
# Bulk Modulus (GPa) = 38.71203 43.43791 41.07497
# Shear Modulus (GPa) = 28.96013 38.48341 33.72177
#
# Velocity S-wave (km/s) = 3.31201 3.81793 3.57394
# Velocity P-wave (km/s) = 5.41194 5.99072 5.70867
#
# Compressibility (1/GPa) = 0.02583176
#
# Stress axis : x y z
#
# Youngs Moduli (GPa) = 118.70358 118.87223 51.25439
#
# Poissons Ratio (x) = -0.05267 0.02832
# Poissons Ratio (y) = -0.05259 0.26387
# Poissons Ratio (z) = 0.06559 0.61199
#
# Static dielectric constant tensor:
#      x y z
#    x 2.051440 0.000000 0.000000 
#    y 0.000000 2.180200 0.000000 
#    z 0.000000 0.000000 2.159700 
# 
# From -- ./inp_files/8782.got.cif
#   From: 2010.05.17/outbox.cif.g08.bks.cpg/sg60_5_cif.got.tgz:8782.got - 2010.06.03 14:59:27.
