data_PCOD9456693
_publ_section_title
;
Structure prediction by ZEFSAII (Michael W. Deem and Ramdas Pophale) SiO2 
 PCOD9456693
Probable space group: P B C N
;
_chemical_formula_sum "Si O2"
_cell_formula_units_Z 40
_cell_length_a 13.374053
_cell_length_b 24.746201
_cell_length_c 5.760247
_cell_angle_alpha 90.000000
_cell_angle_beta 90.000000
_cell_angle_gamma 90.000000
_cell_volume 1906.394088
_symmetry_space_group_name_H-M "P B C N"
_symmetry_group_IT_number 60
_symmetry_cell_setting 'orthorhombic'
loop_
_space_group_symop_operation_xyz
x,y,z
1/2-x,1/2-y,1/2+z
1/2+x,1/2-y,-z
-x,y,1/2-z
-x,-y,-z
1/2+x,1/2+y,1/2-z
1/2-x,1/2+y,z
x,-y,1/2+z
loop_
_atom_site_type_symbol
_atom_site_label
_atom_site_fract_x
_atom_site_fract_y
_atom_site_fract_z
Si Si1 0.500000 0.389801 0.250000
Si Si2 0.809048 0.617120 0.992217
Si Si3 0.500000 0.148396 0.750000
Si Si4 0.327510 0.691352 0.808305
Si Si5 0.135139 0.694180 0.125297
Si Si6 0.361275 0.469151 0.999981
O O1 0.586152 0.352019 0.142544
O O2 0.450480 0.426696 0.050570
O O3 0.856080 0.639620 0.227021
O O4 0.734720 0.665034 0.905452
O O5 0.742461 0.564099 0.999773
O O6 0.903752 0.613880 0.822552
O O7 0.543488 0.186445 0.548859
O O8 0.373396 0.749534 0.758304
O O9 0.242555 0.697709 0.999938
O O10 0.366472 0.503692 0.243530
#
# Coordination Sequence:
#
# PCOD9456693 Si02
#       6
#     4   8   4   8   8   8
#     4  10  24  42  66 103 141 176 242 280 354 424
#     4  10  23  43  65  94 134 178 226 288 344 413
#     4  10  24  38  66  95 135 172 228 280 346 408
#     4  10  22  38  62  97 138 183 223 269 340 425
#     4  11  21  40  63  95 141 184 222 276 345 418
#     4  11  26  49  74 101 137 183 236 304 359 410
#
# _framework density 20.982022000000001
#
# number of rings (size 3 to 8) (size 9 to 14) (size 15 to 20)
#    0.000    1.600    2.000    1.200   11.200    0.000 
#    3.600    1.000    0.000    0.000    0.000    0.000 
#    0.000    0.000    0.000    0.000    0.000    0.000 
#
# Total GULP energy -223247.653534 kJ/mol
# GULP energy per Si atom -5581.191338 kJ/mol
# Density = 2.093427 g / cm^3
# Si number density = 20.982022 Si / 1000 Ang^3
#
#
#
# Elastic Constant Matrix: (Units=GPa)
#
#
# Indices 1 2 3 4 5 6 
#
# 1 138.2426 55.7214 34.4544 0.0000 0.0000 0.0000
# 2 55.7214 98.4677 49.1893 0.0000 0.0000 0.0000
# 3 34.4544 49.1893 85.1971 0.0000 0.0000 0.0000
# 4 0.0000 0.0000 0.0000 16.9392 0.0000 0.0000
# 5 0.0000 0.0000 0.0000 0.0000 33.5738 0.0000
# 6 0.0000 0.0000 0.0000 0.0000 0.0000 24.0005
#
#
#
# Elastic Compliance Matrix: (Units=1/GPa)
#
#
# Indices 1 2 3 4 5 6 
#
# 1 0.009435 -0.004825 -0.001030 0.000000 0.000000 0.000000
# 2 -0.004825 0.016739 -0.007713 0.000000 0.000000 0.000000
# 3 -0.001030 -0.007713 0.016607 0.000000 0.000000 0.000000
# 4 0.000000 0.000000 0.000000 0.059035 0.000000 0.000000
# 5 0.000000 0.000000 0.000000 0.000000 0.029785 0.000000
# 6 0.000000 0.000000 0.000000 0.000000 0.000000 0.041666
#
#
# Mechanical properties :
#
#
# Convention : Reuss Voigt Hill
#
# Bulk Modulus (GPa) = 63.91622 66.73750 65.32686
# Shear Modulus (GPa) = 24.31693 27.07217 25.69455
#
# Velocity S-wave (km/s) = 3.40802 3.59591 3.50322
# Velocity P-wave (km/s) = 6.78341 7.00834 6.89679
#
# Compressibility (1/GPa) = 0.01564548
#
# Stress axis : x y z
#
# Youngs Moduli (GPa) = 105.98806 59.74105 60.21411
#
# Poissons Ratio (x) = 0.28822 0.06203
# Poissons Ratio (y) = 0.51135 0.46445
# Poissons Ratio (z) = 0.10918 0.46080
#
# Static dielectric constant tensor:
#      x y z
#    x 1.749050 0.000000 0.000000 
#    y 0.000000 1.731360 0.000000 
#    z 0.000000 0.000000 1.823020 
# 
# From -- ./inp_files/863.got.cif
#   From: 2010.05.17/outbox.cif.g08.bks.cpg/sg60_1_cif.got.tgz:863.got - 2010.06.03 14:59:27.
