data_PCOD9456247
_publ_section_title
;
Structure prediction by ZEFSAII (Michael W. Deem and Ramdas Pophale) SiO2 
 PCOD9456247
Probable space group: P B C N
;
_chemical_formula_sum "Si O2"
_cell_formula_units_Z 56
_cell_length_a 5.361019
_cell_length_b 13.865796
_cell_length_c 29.339461
_cell_angle_alpha 90.000000
_cell_angle_beta 90.000000
_cell_angle_gamma 90.000000
_cell_volume 2180.942842
_symmetry_space_group_name_H-M "P B C N"
_symmetry_group_IT_number 60
_symmetry_cell_setting 'orthorhombic'
loop_
_space_group_symop_operation_xyz
x,y,z
1/2-x,1/2-y,1/2+z
1/2+x,1/2-y,-z
-x,y,1/2-z
-x,-y,-z
1/2+x,1/2+y,1/2-z
1/2-x,1/2+y,z
x,-y,1/2+z
loop_
_atom_site_type_symbol
_atom_site_label
_atom_site_fract_x
_atom_site_fract_y
_atom_site_fract_z
Si Si1 0.178879 0.689930 0.603155
Si Si2 0.246828 0.442322 0.279066
Si Si3 0.825042 0.306203 0.624438
Si Si4 0.342530 0.978677 0.384498
Si Si5 0.755291 0.788013 0.724798
Si Si6 0.168452 0.120125 0.976822
Si Si7 0.825301 0.656834 0.004869
O O1 0.429538 0.738662 0.621949
O O2 0.195926 0.682189 0.549013
O O3 0.937008 0.755258 0.613240
O O4 0.101485 0.582464 0.619155
O O5 0.500000 0.460932 0.250000
O O6 0.265913 0.468952 0.333092
O O7 0.216056 0.326469 0.281496
O O8 0.000000 0.476325 0.250000
O O9 0.868794 0.409509 0.600938
O O10 0.783390 0.333844 0.676461
O O11 0.195634 0.927265 0.426884
O O12 0.500000 0.803966 0.750000
O O13 0.000000 0.823812 0.750000
O O14 0.415207 0.102392 0.006654
O O15 0.931232 0.100024 0.008848
O O16 0.172965 0.238888 0.971222
#
# Coordination Sequence:
#
# PCOD9456247 Si02
#       7
#     8   8   8   8   8   8   8
#     4  11  24  43  65  96 136 172 213 273 320 381
#     4  10  23  38  64  94 123 169 213 257 324 382
#     4  12  26  41  67 100 126 173 223 257 333 394
#     4  11  25  44  70  97 134 172 216 274 322 387
#     4  10  21  40  62  90 124 167 211 266 313 380
#     4   9  19  36  62  97 123 168 222 258 316 389
#     4   9  18  36  64  90 128 173 211 260 326 374
#
# _framework density 25.676967999999999
#
# number of rings (size 3 to 8) (size 9 to 14) (size 15 to 20)
#    0.000    1.714    1.429    2.571    4.000    6.857 
#    0.000    1.429    0.000    0.000    0.000    0.000 
#    0.000    0.000    0.000    0.000    0.000    0.000 
#
# Total GULP energy -313133.649271 kJ/mol
# GULP energy per Si atom -5591.672308 kJ/mol
# Density = 2.561853 g / cm^3
# Si number density = 25.676968 Si / 1000 Ang^3
#
#
#
# Elastic Constant Matrix: (Units=GPa)
#
#
# Indices 1 2 3 4 5 6 
#
# 1 187.8942 20.4921 26.1557 0.0000 0.0000 0.0000
# 2 20.4921 135.3947 -40.1174 0.0000 0.0000 0.0000
# 3 26.1557 -40.1174 89.0431 0.0000 0.0000 0.0000
# 4 0.0000 0.0000 0.0000 19.8905 0.0000 0.0000
# 5 0.0000 0.0000 0.0000 0.0000 35.3403 0.0000
# 6 0.0000 0.0000 0.0000 0.0000 0.0000 -10.3152
#
#
#
# Elastic Compliance Matrix: (Units=1/GPa)
#
#
# Indices 1 2 3 4 5 6 
#
# 1 0.005837 -0.001606 -0.002438 0.000000 0.000000 0.000000
# 2 -0.001606 0.008965 0.004511 0.000000 0.000000 0.000000
# 3 -0.002438 0.004511 0.013979 0.000000 0.000000 0.000000
# 4 0.000000 0.000000 0.000000 0.050275 0.000000 0.000000
# 5 0.000000 0.000000 0.000000 0.000000 0.028296 0.000000
# 6 0.000000 0.000000 0.000000 0.000000 0.000000 -0.096945
#
#
# Mechanical properties :
#
#
# Convention : Reuss Voigt Hill
#
# Bulk Modulus (GPa) = 33.65225 47.26584 40.45905
# Shear Modulus (GPa) = 258.01896 36.03658 147.02777
#
# Velocity S-wave (km/s) = 10.03517 3.75034 7.57528
# Velocity P-wave (km/s) = 12.14114 6.09928 9.60751
#
# Compressibility (1/GPa) = 0.02971569
#
# Stress axis : x y z
#
# Youngs Moduli (GPa) = 171.33163 111.53948 71.53592
#
# Poissons Ratio (x) = 0.17910 0.17440
# Poissons Ratio (y) = 0.27511 -0.32270
# Poissons Ratio (z) = 0.41769 -0.50315
#
# Static dielectric constant tensor:
#      x y z
#    x 2.089810 0.000000 0.000000 
#    y 0.000000 2.096380 0.000000 
#    z 0.000000 0.000000 2.026410 
# 
# From -- ./inp_files/25709.got.cif
#   From: 2010.05.17/outbox.cif.g08.bks.cpg/sg60_13_cif.got.tgz:25709.got - 2010.06.03 14:59:27.
