data_PCOD9456596
_publ_section_title
;
Structure prediction by ZEFSAII (Michael W. Deem and Ramdas Pophale) SiO2 
 PCOD9456596
Probable space group: P B C N
;
_chemical_formula_sum "Si O2"
_cell_formula_units_Z 60
_cell_length_a 18.727767
_cell_length_b 14.437097
_cell_length_c 8.974673
_cell_angle_alpha 90.000000
_cell_angle_beta 90.000000
_cell_angle_gamma 90.000000
_cell_volume 2426.523522
_symmetry_space_group_name_H-M "P B C N"
_symmetry_group_IT_number 60
_symmetry_cell_setting 'orthorhombic'
loop_
_space_group_symop_operation_xyz
x,y,z
1/2-x,1/2-y,1/2+z
1/2+x,1/2-y,-z
-x,y,1/2-z
-x,-y,-z
1/2+x,1/2+y,1/2-z
1/2-x,1/2+y,z
x,-y,1/2+z
loop_
_atom_site_type_symbol
_atom_site_label
_atom_site_fract_x
_atom_site_fract_y
_atom_site_fract_z
Si Si1 0.500000 0.005867 0.250000
Si Si2 0.299163 0.406779 0.600136
Si Si3 0.247926 0.693412 0.591952
Si Si4 0.915742 0.135647 0.872331
Si Si5 0.363514 0.102876 0.819567
Si Si6 0.387414 0.512316 0.358738
Si Si7 0.566855 0.834158 0.893596
Si Si8 0.315417 0.086012 0.320901
O O1 0.489407 0.081438 0.115764
O O2 0.567456 0.938105 0.264509
O O3 0.273195 0.301730 0.578519
O O4 0.324952 0.461537 0.455272
O O5 0.232810 0.451093 0.685845
O O6 0.360307 0.420681 0.725954
O O7 0.330645 0.667488 0.625179
O O8 0.195082 0.651572 0.717696
O O9 0.227819 0.649266 0.433109
O O10 0.924204 0.072251 0.727050
O O11 0.959529 0.230052 0.879067
O O12 0.927732 0.073026 0.018633
O O13 0.339128 0.007772 0.898849
O O14 0.391125 0.166330 0.951573
O O15 0.620770 0.858650 0.758083
#
# Coordination Sequence:
#
# PCOD9456596 Si02
#       8
#     4   8   8   8   8   8   8   8
#     4  10  24  46  64  98 126 164 224 270 324 376
#     4  11  22  34  53  81 125 166 208 257 309 386
#     4  12  24  35  57  91 131 168 217 258 323 394
#     4  11  22  38  58  90 128 170 211 264 324 392
#     4  11  24  40  66  89 127 172 213 265 318 389
#     4  10  22  35  53  79 121 164 204 256 321 378
#     4  11  23  39  66  87 121 166 217 270 318 380
#     4  11  22  35  52  86 123 166 206 256 315 380
#
# _framework density 24.726734
#
# number of rings (size 3 to 8) (size 9 to 14) (size 15 to 20)
#    0.000    1.067    2.667    5.200    3.733    1.067 
#    0.000    0.000    0.000    0.800    0.000    3.733 
#    0.000    0.000    0.000    0.000    0.000    0.000 
#
# Total GULP energy -335528.097718 kJ/mol
# GULP energy per Si atom -5592.134962 kJ/mol
# Density = 2.467045 g / cm^3
# Si number density = 24.726734 Si / 1000 Ang^3
#
#
#
# Elastic Constant Matrix: (Units=GPa)
#
#
# Indices 1 2 3 4 5 6 
#
# 1 52.2515 4.3660 13.1907 0.0000 0.0000 0.0000
# 2 4.3660 137.1064 30.9893 0.0000 0.0000 0.0000
# 3 13.1907 30.9893 113.6940 0.0000 0.0000 0.0000
# 4 0.0000 0.0000 0.0000 38.9622 0.0000 0.0000
# 5 0.0000 0.0000 0.0000 0.0000 21.8751 0.0000
# 6 0.0000 0.0000 0.0000 0.0000 0.0000 25.2703
#
#
#
# Elastic Compliance Matrix: (Units=1/GPa)
#
#
# Indices 1 2 3 4 5 6 
#
# 1 0.019717 -0.000118 -0.002255 0.000000 0.000000 0.000000
# 2 -0.000118 0.007773 -0.002105 0.000000 0.000000 0.000000
# 3 -0.002255 -0.002105 0.009631 0.000000 0.000000 0.000000
# 4 0.000000 0.000000 0.000000 0.025666 0.000000 0.000000
# 5 0.000000 0.000000 0.000000 0.000000 0.045714 0.000000
# 6 0.000000 0.000000 0.000000 0.000000 0.000000 0.039572
#
#
# Mechanical properties :
#
#
# Convention : Reuss Voigt Hill
#
# Bulk Modulus (GPa) = 35.50567 44.46044 39.98306
# Shear Modulus (GPa) = 30.04464 34.18856 32.11660
#
# Velocity S-wave (km/s) = 3.48956 3.72244 3.60788
# Velocity P-wave (km/s) = 5.53412 6.04112 5.79317
#
# Compressibility (1/GPa) = 0.02816451
#
# Stress axis : x y z
#
# Youngs Moduli (GPa) = 50.71649 128.64802 103.83175
#
# Poissons Ratio (x) = 0.01519 0.23418
# Poissons Ratio (y) = 0.00599 0.21857
# Poissons Ratio (z) = 0.11439 0.27080
#
# Static dielectric constant tensor:
#      x y z
#    x 2.062810 0.000000 0.000000 
#    y 0.000000 1.947770 0.000000 
#    z 0.000000 0.000000 1.942050 
# 
# From -- ./inp_files/7952.got.cif
#   From: 2010.05.17/outbox.cif.g08.bks.cpg/sg60_4_cif.got.tgz:7952.got - 2010.06.03 14:59:27.
