data_PCOD9456953
_publ_section_title
;
Structure prediction by ZEFSAII (Michael W. Deem and Ramdas Pophale) SiO2 
 PCOD9456953
Probable space group: P B C N
;
_chemical_formula_sum "Si O2"
_cell_formula_units_Z 64
_cell_length_a 18.722090
_cell_length_b 10.093656
_cell_length_c 14.842488
_cell_angle_alpha 90.000000
_cell_angle_beta 90.000000
_cell_angle_gamma 90.000000
_cell_volume 2804.849315
_symmetry_space_group_name_H-M "P B C N"
_symmetry_group_IT_number 60
_symmetry_cell_setting 'orthorhombic'
loop_
_space_group_symop_operation_xyz
x,y,z
1/2-x,1/2-y,1/2+z
1/2+x,1/2-y,-z
-x,y,1/2-z
-x,-y,-z
1/2+x,1/2+y,1/2-z
1/2-x,1/2+y,z
x,-y,1/2+z
loop_
_atom_site_type_symbol
_atom_site_label
_atom_site_fract_x
_atom_site_fract_y
_atom_site_fract_z
Si Si1 0.519023 0.217334 0.494190
Si Si2 0.989058 0.491977 0.357908
Si Si3 0.354490 0.632461 0.467007
Si Si4 0.272380 0.746414 0.858575
Si Si5 0.225418 0.989693 0.743008
Si Si6 0.344159 0.862102 0.152587
Si Si7 0.371085 0.665501 0.999320
Si Si8 0.084558 0.142004 0.269988
O O1 0.526039 0.127301 0.585171
O O2 0.593898 0.283621 0.469896
O O3 0.456089 0.322814 0.511280
O O4 0.493813 0.123590 0.412966
O O5 0.905580 0.463267 0.375641
O O6 0.000000 0.496306 0.250000
O O7 0.284969 0.709721 0.433614
O O8 0.343642 0.483793 0.499227
O O9 0.401486 0.620270 0.375128
O O10 0.262933 0.598326 0.821700
O O11 0.347949 0.738871 0.907593
O O12 0.260643 0.852885 0.778872
O O13 0.272076 0.057603 0.666538
O O14 0.141341 0.963378 0.727140
O O15 0.381217 0.781968 0.236403
O O16 0.336276 0.749159 0.078957
O O17 0.000000 0.133863 0.250000
#
# Coordination Sequence:
#
# PCOD9456953 Si02
#       8
#     8   8   8   8   8   8   8   8
#     4  10  23  41  69 103 143 184 243 305 353 435
#     4  10  22  41  66 104 141 192 236 293 369 434
#     4  11  22  45  72  98 137 191 239 286 365 435
#     4  11  23  44  72  97 139 187 234 289 360 428
#     4  11  23  45  72 104 136 188 240 292 348 443
#     4  11  23  43  69 103 146 184 239 297 356 431
#     4  11  24  44  66 104 141 182 234 298 358 426
#     4  11  22  43  75 103 138 189 236 292 364 435
#
# _framework density 22.817627000000002
#
# number of rings (size 3 to 8) (size 9 to 14) (size 15 to 20)
#    0.000    1.250    5.000    3.000    1.750    3.000 
#    2.250    4.375    0.000    0.750    0.000    0.000 
#    0.000    0.000    0.000    0.000    0.000    0.000 
#
# Total GULP energy -357286.820476 kJ/mol
# GULP energy per Si atom -5582.606570 kJ/mol
# Density = 2.276569 g / cm^3
# Si number density = 22.817627 Si / 1000 Ang^3
#
#
#
# Elastic Constant Matrix: (Units=GPa)
#
#
# Indices 1 2 3 4 5 6 
#
# 1 119.7128 51.0125 -2.8490 0.0000 0.0000 0.0000
# 2 51.0125 84.7194 3.3217 0.0000 0.0000 0.0000
# 3 -2.8490 3.3217 58.9619 0.0000 0.0000 0.0000
# 4 0.0000 0.0000 0.0000 24.3240 0.0000 0.0000
# 5 0.0000 0.0000 0.0000 0.0000 37.6917 0.0000
# 6 0.0000 0.0000 0.0000 0.0000 0.0000 30.4323
#
#
#
# Elastic Compliance Matrix: (Units=1/GPa)
#
#
# Indices 1 2 3 4 5 6 
#
# 1 0.011287 -0.006833 0.000930 0.000000 0.000000 0.000000
# 2 -0.006833 0.015966 -0.001230 0.000000 0.000000 0.000000
# 3 0.000930 -0.001230 0.017074 0.000000 0.000000 0.000000
# 4 0.000000 0.000000 0.000000 0.041112 0.000000 0.000000
# 5 0.000000 0.000000 0.000000 0.000000 0.026531 0.000000
# 6 0.000000 0.000000 0.000000 0.000000 0.000000 0.032860
#
#
# Mechanical properties :
#
#
# Convention : Reuss Voigt Hill
#
# Bulk Modulus (GPa) = 33.26315 40.70717 36.98516
# Shear Modulus (GPa) = 29.56561 32.61688 31.09124
#
# Velocity S-wave (km/s) = 3.60354 3.78492 3.69534
# Velocity P-wave (km/s) = 5.65008 6.08110 5.86955
#
# Compressibility (1/GPa) = 0.03006330
#
# Stress axis : x y z
#
# Youngs Moduli (GPa) = 88.59678 62.63245 58.56747
#
# Poissons Ratio (x) = 0.42796 -0.05449
# Poissons Ratio (y) = 0.60537 0.07202
# Poissons Ratio (z) = -0.08242 0.07702
#
# Static dielectric constant tensor:
#      x y z
#    x 1.911130 0.000000 0.000000 
#    y 0.000000 1.859140 0.000000 
#    z 0.000000 0.000000 1.950630 
# 
# From -- ./inp_files/17491.got.cif
#   From: 2010.05.17/outbox.cif.g08.bks.cpg/sg60_9_cif.got.tgz:17491.got - 2010.06.03 14:59:27.
