data_PCOD9456418
_publ_section_title
;
Structure prediction by ZEFSAII (Michael W. Deem and Ramdas Pophale) SiO2 
 PCOD9456418
Probable space group: P B C N
;
_chemical_formula_sum "Si O2"
_cell_formula_units_Z 48
_cell_length_a 11.816586
_cell_length_b 15.116698
_cell_length_c 13.900108
_cell_angle_alpha 90.000000
_cell_angle_beta 90.000000
_cell_angle_gamma 90.000000
_cell_volume 2482.945183
_symmetry_space_group_name_H-M "P B C N"
_symmetry_group_IT_number 60
_symmetry_cell_setting 'orthorhombic'
loop_
_space_group_symop_operation_xyz
x,y,z
1/2-x,1/2-y,1/2+z
1/2+x,1/2-y,-z
-x,y,1/2-z
-x,-y,-z
1/2+x,1/2+y,1/2-z
1/2-x,1/2+y,z
x,-y,1/2+z
loop_
_atom_site_type_symbol
_atom_site_label
_atom_site_fract_x
_atom_site_fract_y
_atom_site_fract_z
Si Si1 0.500000 0.475087 0.750000
Si Si2 0.727351 0.867525 0.573359
Si Si3 0.500000 0.173592 0.750000
Si Si4 0.732540 0.813634 0.984938
Si Si5 0.501788 0.900901 0.462904
Si Si6 0.181922 0.825508 0.726439
Si Si7 0.608737 0.533985 0.559915
O O1 0.594896 0.407273 0.790685
O O2 0.562143 0.531944 0.668908
O O3 0.787925 0.782138 0.530144
O O4 0.606743 0.861246 0.521799
O O5 0.734422 0.854456 0.688131
O O6 0.794145 0.958204 0.550897
O O7 0.487453 0.117100 0.651855
O O8 0.607271 0.240266 0.743223
O O9 0.757088 0.805231 0.872467
O O10 0.617456 0.863475 0.005164
O O11 0.835413 0.872871 0.029456
O O12 0.500000 0.000000 0.500000
O O13 0.500000 0.500000 0.500000
#
# Coordination Sequence:
#
# PCOD9456418 Si02
#       7
#     4   8   4   8   8   8   8
#     4   9  20  40  68  91 132 172 224 275 330 399
#     4  11  25  44  66 100 139 177 231 278 343 413
#     4  11  22  44  72  93 138 188 226 273 366 413
#     4  12  24  43  71  99 137 177 229 284 343 407
#     4  12  26  46  67 103 142 182 224 293 350 417
#     4  10  21  41  71  97 127 185 226 276 342 413
#     4  11  23  44  68 100 131 177 228 280 335 404
#
# _framework density 19.331880999999999
#
# number of rings (size 3 to 8) (size 9 to 14) (size 15 to 20)
#    0.000    1.000    6.667    0.000    2.333    2.000 
#    6.000    0.000    0.000    0.000    0.000    0.000 
#    0.000    0.000    0.000    0.000    0.000    0.000 
#
# Total GULP energy -267831.047841 kJ/mol
# GULP energy per Si atom -5579.813497 kJ/mol
# Density = 1.928788 g / cm^3
# Si number density = 19.331881 Si / 1000 Ang^3
#
#
#
# Elastic Constant Matrix: (Units=GPa)
#
#
# Indices 1 2 3 4 5 6 
#
# 1 72.7169 -8.3871 34.2604 0.0000 0.0000 0.0000
# 2 -8.3871 57.1814 23.2735 0.0000 0.0000 0.0000
# 3 34.2604 23.2735 129.3591 0.0000 0.0000 0.0000
# 4 0.0000 0.0000 0.0000 52.1421 0.0000 0.0000
# 5 0.0000 0.0000 0.0000 0.0000 36.6678 0.0000
# 6 0.0000 0.0000 0.0000 0.0000 0.0000 25.3051
#
#
#
# Elastic Compliance Matrix: (Units=1/GPa)
#
#
# Indices 1 2 3 4 5 6 
#
# 1 0.016765 0.004603 -0.005268 0.000000 0.000000 0.000000
# 2 0.004603 0.020134 -0.004842 0.000000 0.000000 0.000000
# 3 -0.005268 -0.004842 0.009997 0.000000 0.000000 0.000000
# 4 0.000000 0.000000 0.000000 0.019178 0.000000 0.000000
# 5 0.000000 0.000000 0.000000 0.000000 0.027272 0.000000
# 6 0.000000 0.000000 0.000000 0.000000 0.000000 0.039518
#
#
# Mechanical properties :
#
#
# Convention : Reuss Voigt Hill
#
# Bulk Modulus (GPa) = 27.86863 39.72788 33.79826
# Shear Modulus (GPa) = 32.08460 36.83037 34.45749
#
# Velocity S-wave (km/s) = 4.07833 4.36955 4.22645
# Velocity P-wave (km/s) = 6.05179 6.78619 6.42949
#
# Compressibility (1/GPa) = 0.03588263
#
# Stress axis : x y z
#
# Youngs Moduli (GPa) = 59.64773 49.66727 100.03196
#
# Poissons Ratio (x) = -0.22863 0.52701
# Poissons Ratio (y) = -0.27458 0.48431
# Poissons Ratio (z) = 0.31425 0.24047
#
# Static dielectric constant tensor:
#      x y z
#    x 1.579820 0.000000 0.000000 
#    y 0.000000 2.359560 0.000000 
#    z 0.000000 0.000000 1.666660 
# 
# From -- ./inp_files/11039.got.cif
#   From: 2010.05.17/outbox.cif.g08.bks.cpg/sg60_6_cif.got.tgz:11039.got - 2010.06.03 14:59:27.
