data_PCOD9456793
_publ_section_title
;
Structure prediction by ZEFSAII (Michael W. Deem and Ramdas Pophale) SiO2 
 PCOD9456793
Probable space group: P B C N
;
_chemical_formula_sum "Si O2"
_cell_formula_units_Z 40
_cell_length_a 5.536632
_cell_length_b 22.074060
_cell_length_c 12.746030
_cell_angle_alpha 90.000000
_cell_angle_beta 90.000000
_cell_angle_gamma 90.000000
_cell_volume 1557.768127
_symmetry_space_group_name_H-M "P B C N"
_symmetry_group_IT_number 60
_symmetry_cell_setting 'orthorhombic'
loop_
_space_group_symop_operation_xyz
x,y,z
1/2-x,1/2-y,1/2+z
1/2+x,1/2-y,-z
-x,y,1/2-z
-x,-y,-z
1/2+x,1/2+y,1/2-z
1/2-x,1/2+y,z
x,-y,1/2+z
loop_
_atom_site_type_symbol
_atom_site_label
_atom_site_fract_x
_atom_site_fract_y
_atom_site_fract_z
Si Si1 0.699725 0.655388 0.513022
Si Si2 0.248211 0.122723 0.227770
Si Si3 0.077074 0.460652 0.401904
Si Si4 0.575021 0.428677 0.358004
Si Si5 0.249747 0.253902 0.309739
O O1 0.739426 0.650174 0.389660
O O2 0.890906 0.609811 0.566474
O O3 0.453146 0.620499 0.549157
O O4 0.730794 0.718308 0.573770
O O5 0.500000 0.089518 0.250000
O O6 0.244763 0.180852 0.305267
O O7 0.000000 0.088848 0.250000
O O8 0.355882 0.475778 0.377893
O O9 0.000000 0.500000 0.500000
O O10 0.830729 0.458876 0.337133
O O11 0.500000 0.396980 0.250000
O O12 0.500000 0.268901 0.250000
O O13 0.000000 0.273476 0.250000
#
# Coordination Sequence:
#
# PCOD9456793 Si02
#       5
#     8   8   8   8   8
#     4  10  25  37  71  86 137 168 212 274 320 376
#     4  10  24  42  59  90 128 169 222 259 323 389
#     4  10  23  41  65  92 133 162 216 264 324 379
#     4  10  22  39  68  99 127 167 217 266 319 386
#     4  10  23  38  61  94 127 162 222 256 318 383
#
# _framework density 25.677761
#
# number of rings (size 3 to 8) (size 9 to 14) (size 15 to 20)
#    1.200    0.800    0.000    1.800    8.400    6.400 
#    0.000    3.000    0.000    0.000    0.000    0.000 
#    0.000    0.000    0.000    0.000    0.000    0.000 
#
# Total GULP energy -223028.058950 kJ/mol
# GULP energy per Si atom -5575.701474 kJ/mol
# Density = 2.561932 g / cm^3
# Si number density = 25.677761 Si / 1000 Ang^3
#
#
#
# Elastic Constant Matrix: (Units=GPa)
#
#
# Indices 1 2 3 4 5 6 
#
# 1 262.2118 20.5141 40.6681 0.0000 0.0000 0.0000
# 2 20.5141 66.7431 7.7196 0.0000 0.0000 0.0000
# 3 40.6681 7.7196 84.4160 0.0000 0.0000 0.0000
# 4 0.0000 0.0000 0.0000 14.8547 0.0000 0.0000
# 5 0.0000 0.0000 0.0000 0.0000 33.7767 0.0000
# 6 0.0000 0.0000 0.0000 0.0000 0.0000 2.9750
#
#
#
# Elastic Compliance Matrix: (Units=1/GPa)
#
#
# Indices 1 2 3 4 5 6 
#
# 1 0.004196 -0.001067 -0.001924 0.000000 0.000000 0.000000
# 2 -0.001067 0.015414 -0.000896 0.000000 0.000000 0.000000
# 3 -0.001924 -0.000896 0.012855 0.000000 0.000000 0.000000
# 4 0.000000 0.000000 0.000000 0.067319 0.000000 0.000000
# 5 0.000000 0.000000 0.000000 0.000000 0.029606 0.000000
# 6 0.000000 0.000000 0.000000 0.000000 0.000000 0.336134
#
#
# Mechanical properties :
#
#
# Convention : Reuss Voigt Hill
#
# Bulk Modulus (GPa) = 40.49869 61.24161 50.87015
# Shear Modulus (GPa) = 10.38364 33.28588 21.83476
#
# Velocity S-wave (km/s) = 2.01311 3.60431 2.91922
# Velocity P-wave (km/s) = 4.60539 6.42053 5.58717
#
# Compressibility (1/GPa) = 0.02469216
#
# Stress axis : x y z
#
# Youngs Moduli (GPa) = 238.34817 64.87451 77.79234
#
# Poissons Ratio (x) = 0.06922 0.14965
# Poissons Ratio (y) = 0.25433 0.06967
# Poissons Ratio (z) = 0.45850 0.05810
#
# Static dielectric constant tensor:
#      x y z
#    x 2.164710 0.000000 0.000000 
#    y 0.000000 1.976480 0.000000 
#    z 0.000000 0.000000 2.236500 
# 
# From -- ./inp_files/9058.got.cif
#   From: 2010.05.17/outbox.cif.g08.bks.cpg/sg60_5_cif.got.tgz:9058.got - 2010.06.03 14:59:27.
