data_PCOD9456173
_publ_section_title
;
Structure prediction by ZEFSAII (Michael W. Deem and Ramdas Pophale) SiO2 
 PCOD9456173
Probable space group: P B C N
;
_chemical_formula_sum "Si O2"
_cell_formula_units_Z 56
_cell_length_a 22.567598
_cell_length_b 12.627871
_cell_length_c 9.183905
_cell_angle_alpha 90.000000
_cell_angle_beta 90.000000
_cell_angle_gamma 90.000000
_cell_volume 2617.235826
_symmetry_space_group_name_H-M "P B C N"
_symmetry_group_IT_number 60
_symmetry_cell_setting 'orthorhombic'
loop_
_space_group_symop_operation_xyz
x,y,z
1/2-x,1/2-y,1/2+z
1/2+x,1/2-y,-z
-x,y,1/2-z
-x,-y,-z
1/2+x,1/2+y,1/2-z
1/2-x,1/2+y,z
x,-y,1/2+z
loop_
_atom_site_type_symbol
_atom_site_label
_atom_site_fract_x
_atom_site_fract_y
_atom_site_fract_z
Si Si1 0.467892 0.909022 0.100138
Si Si2 0.933499 0.100816 0.776738
Si Si3 0.198281 0.144873 0.224761
Si Si4 0.667234 0.114926 0.826773
Si Si5 0.812507 0.581114 0.151050
Si Si6 0.356685 0.496715 0.473919
Si Si7 0.443695 0.169885 0.318029
O O1 0.500000 0.882920 0.250000
O O2 0.399434 0.927407 0.143153
O O3 0.462140 0.811667 0.985660
O O4 0.500000 0.000000 0.000000
O O5 0.893156 0.075360 0.637737
O O6 0.937387 0.227132 0.779557
O O7 0.000000 0.059049 0.750000
O O8 0.902450 0.054861 0.918523
O O9 0.170119 0.261432 0.212560
O O10 0.268694 0.150880 0.250784
O O11 0.182834 0.076184 0.081091
O O12 0.119310 0.386287 0.824097
O O13 0.694470 0.039909 0.703069
O O14 0.699796 0.098274 0.980900
O O15 0.675439 0.580526 0.132863
O O16 0.500000 0.109175 0.250000
#
# Coordination Sequence:
#
# PCOD9456173 Si02
#       7
#     8   8   8   8   8   8   8
#     4  11  21  38  63  91 128 165 205 266 333 401
#     4  10  21  39  64  92 125 167 212 266 329 388
#     4  11  25  44  66  96 131 175 225 277 337 404
#     4  11  25  42  65  98 130 171 223 272 336 408
#     4  11  24  42  64  90 128 169 212 268 327 393
#     4  10  22  42  65  93 129 168 219 276 327 397
#     4  10  22  39  61  92 125 163 211 265 327 395
#
# _framework density 21.396619000000001
#
# number of rings (size 3 to 8) (size 9 to 14) (size 15 to 20)
#    0.000    1.429    0.000    6.000    0.000    9.143 
#    0.000    3.571    0.000    0.000    0.000    0.000 
#    0.000    0.000    0.000    0.000    0.000    0.000 
#
# Total GULP energy -312460.321558 kJ/mol
# GULP energy per Si atom -5579.648599 kJ/mol
# Density = 2.134792 g / cm^3
# Si number density = 21.396619 Si / 1000 Ang^3
#
#
#
# Elastic Constant Matrix: (Units=GPa)
#
#
# Indices 1 2 3 4 5 6 
#
# 1 104.7318 26.0269 52.0805 0.0000 0.0000 0.0000
# 2 26.0269 84.2046 28.4657 0.0000 0.0000 0.0000
# 3 52.0805 28.4657 123.7958 0.0000 0.0000 0.0000
# 4 0.0000 0.0000 0.0000 21.5797 0.0000 0.0000
# 5 0.0000 0.0000 0.0000 0.0000 35.2363 0.0000
# 6 0.0000 0.0000 0.0000 0.0000 0.0000 26.1265
#
#
#
# Elastic Compliance Matrix: (Units=1/GPa)
#
#
# Indices 1 2 3 4 5 6 
#
# 1 0.012457 -0.002254 -0.004722 0.000000 0.000000 0.000000
# 2 -0.002254 0.013285 -0.002106 0.000000 0.000000 0.000000
# 3 -0.004722 -0.002106 0.010549 0.000000 0.000000 0.000000
# 4 0.000000 0.000000 0.000000 0.046340 0.000000 0.000000
# 5 0.000000 0.000000 0.000000 0.000000 0.028380 0.000000
# 6 0.000000 0.000000 0.000000 0.000000 0.000000 0.038275
#
#
# Mechanical properties :
#
#
# Convention : Reuss Voigt Hill
#
# Bulk Modulus (GPa) = 55.17273 58.43094 56.80183
# Shear Modulus (GPa) = 28.81984 30.33243 29.57613
#
# Velocity S-wave (km/s) = 3.67404 3.76922 3.72194
# Velocity P-wave (km/s) = 6.62116 6.80518 6.71380
#
# Compressibility (1/GPa) = 0.01812490
#
# Stress axis : x y z
#
# Youngs Moduli (GPa) = 80.27926 75.27520 94.79766
#
# Poissons Ratio (x) = 0.16966 0.44765
# Poissons Ratio (y) = 0.18094 0.19969
# Poissons Ratio (z) = 0.37909 0.15857
#
# Static dielectric constant tensor:
#      x y z
#    x 1.842810 0.000000 0.000000 
#    y 0.000000 1.763540 0.000000 
#    z 0.000000 0.000000 1.785950 
# 
# From -- ./inp_files/7416.got.cif
#   From: 2010.05.17/outbox.cif.g08.bks.cpg/sg60_4_cif.got.tgz:7416.got - 2010.06.03 14:59:27.
