data_PCOD9456021
_publ_section_title
;
Structure prediction by ZEFSAII (Michael W. Deem and Ramdas Pophale) SiO2 
 PCOD9456021
Probable space group: P B C N
;
_chemical_formula_sum "Si O2"
_cell_formula_units_Z 60
_cell_length_a 10.706545
_cell_length_b 29.198951
_cell_length_c 9.051670
_cell_angle_alpha 90.000000
_cell_angle_beta 90.000000
_cell_angle_gamma 90.000000
_cell_volume 2829.732015
_symmetry_space_group_name_H-M "P B C N"
_symmetry_group_IT_number 60
_symmetry_cell_setting 'orthorhombic'
loop_
_space_group_symop_operation_xyz
x,y,z
1/2-x,1/2-y,1/2+z
1/2+x,1/2-y,-z
-x,y,1/2-z
-x,-y,-z
1/2+x,1/2+y,1/2-z
1/2-x,1/2+y,z
x,-y,1/2+z
loop_
_atom_site_type_symbol
_atom_site_label
_atom_site_fract_x
_atom_site_fract_y
_atom_site_fract_z
Si Si1 0.620960 0.341098 0.047641
Si Si2 0.130132 0.944860 0.552350
Si Si3 0.597768 0.165160 0.059782
Si Si4 0.111653 0.437492 0.997462
Si Si5 0.156955 0.032592 0.377911
Si Si6 0.000000 0.504868 0.750000
Si Si7 0.152581 0.186652 0.620574
Si Si8 0.346354 0.205356 0.120115
O O1 0.474941 0.326594 0.032965
O O2 0.647841 0.338656 0.222267
O O3 0.643178 0.392396 0.989832
O O4 0.720045 0.308847 0.963486
O O5 0.191374 0.957631 0.708790
O O6 0.985210 0.955384 0.585814
O O7 0.175435 0.980053 0.427337
O O8 0.559289 0.112606 0.032051
O O9 0.472848 0.194336 0.029067
O O10 0.638141 0.176446 0.228455
O O11 0.719103 0.176153 0.962996
O O12 0.259701 0.435007 0.978666
O O13 0.065869 0.472005 0.869135
O O14 0.082434 0.461005 0.151756
O O15 0.150722 0.240899 0.653876
#
# Coordination Sequence:
#
# PCOD9456021 Si02
#       8
#     8   8   8   8   8   4   8   8
#     4  11  24  41  66  92 129 165 214 257 312 384
#     4  10  22  38  60  94 121 165 207 256 310 371
#     4  11  24  41  67  93 128 164 214 258 313 384
#     4  11  22  40  59  87 119 165 202 253 305 361
#     4  10  21  38  61  86 126 160 208 257 312 367
#     4  10  24  38  58  84 122 158 208 248 302 366
#     4  11  24  43  65  95 127 165 206 265 321 378
#     4  11  23  44  67  94 125 164 207 265 324 380
#
# _framework density 21.203419
#
# number of rings (size 3 to 8) (size 9 to 14) (size 15 to 20)
#    0.000    1.333    0.000    6.400    0.000   11.733 
#    0.000    2.667    0.000    0.000    0.000    0.000 
#    0.000    0.000    0.000    0.000    0.000    0.000 
#
# Total GULP energy -335350.532287 kJ/mol
# GULP energy per Si atom -5589.175538 kJ/mol
# Density = 2.115516 g / cm^3
# Si number density = 21.203419 Si / 1000 Ang^3
#
#
#
# Elastic Constant Matrix: (Units=GPa)
#
#
# Indices 1 2 3 4 5 6 
#
# 1 70.2078 15.3590 40.9489 0.0000 0.0000 0.0000
# 2 15.3590 120.3523 50.1186 0.0000 0.0000 0.0000
# 3 40.9489 50.1186 97.5664 0.0000 0.0000 0.0000
# 4 0.0000 0.0000 0.0000 39.5222 0.0000 0.0000
# 5 0.0000 0.0000 0.0000 0.0000 35.2636 0.0000
# 6 0.0000 0.0000 0.0000 0.0000 0.0000 85.3491
#
#
#
# Elastic Compliance Matrix: (Units=1/GPa)
#
#
# Indices 1 2 3 4 5 6 
#
# 1 0.018982 0.001139 -0.008552 0.000000 0.000000 0.000000
# 2 0.001139 0.010638 -0.005943 0.000000 0.000000 0.000000
# 3 -0.008552 -0.005943 0.016891 0.000000 0.000000 0.000000
# 4 0.000000 0.000000 0.000000 0.025302 0.000000 0.000000
# 5 0.000000 0.000000 0.000000 0.000000 0.028358 0.000000
# 6 0.000000 0.000000 0.000000 0.000000 0.000000 0.011717
#
#
# Mechanical properties :
#
#
# Convention : Reuss Voigt Hill
#
# Bulk Modulus (GPa) = 50.50416 55.66437 53.08427
# Shear Modulus (GPa) = 34.43515 44.14031 39.28773
#
# Velocity S-wave (km/s) = 4.03431 4.56757 4.30920
# Velocity P-wave (km/s) = 6.75066 7.35707 7.06038
#
# Compressibility (1/GPa) = 0.01980035
#
# Stress axis : x y z
#
# Youngs Moduli (GPa) = 52.68084 93.99937 59.20167
#
# Poissons Ratio (x) = -0.10705 0.50629
# Poissons Ratio (y) = -0.06000 0.35182
# Poissons Ratio (z) = 0.45052 0.55862
#
# Static dielectric constant tensor:
#      x y z
#    x 1.800190 0.000000 0.000000 
#    y 0.000000 1.744790 0.000000 
#    z 0.000000 0.000000 1.782330 
# 
# From -- ./inp_files/5237.got.cif
#   From: 2010.05.17/outbox.cif.g08.bks.cpg/sg60_3_cif.got.tgz:5237.got - 2010.06.03 14:59:27.
