data_PCOD9456355
_publ_section_title
;
Structure prediction by ZEFSAII (Michael W. Deem and Ramdas Pophale) SiO2 
 PCOD9456355
Probable space group: P B C N
;
_chemical_formula_sum "Si O2"
_cell_formula_units_Z 32
_cell_length_a 8.047551
_cell_length_b 13.475970
_cell_length_c 14.406796
_cell_angle_alpha 90.000000
_cell_angle_beta 90.000000
_cell_angle_gamma 90.000000
_cell_volume 1562.396221
_symmetry_space_group_name_H-M "P B C N"
_symmetry_group_IT_number 60
_symmetry_cell_setting 'orthorhombic'
loop_
_space_group_symop_operation_xyz
x,y,z
1/2-x,1/2-y,1/2+z
1/2+x,1/2-y,-z
-x,y,1/2-z
-x,-y,-z
1/2+x,1/2+y,1/2-z
1/2-x,1/2+y,z
x,-y,1/2+z
loop_
_atom_site_type_symbol
_atom_site_label
_atom_site_fract_x
_atom_site_fract_y
_atom_site_fract_z
Si Si1 0.199633 0.641968 0.681787
Si Si2 0.316215 0.509701 0.537862
Si Si3 0.351672 0.978259 0.344371
Si Si4 0.686497 0.375071 0.784051
O O1 0.303332 0.614308 0.591309
O O2 0.261585 0.592354 0.778041
O O3 0.186423 0.757657 0.699608
O O4 0.026556 0.581554 0.659809
O O5 0.500000 0.500000 0.500000
O O6 0.198480 0.494073 0.449859
O O7 0.282515 0.429410 0.618317
O O8 0.319483 0.082751 0.290778
O O9 0.500000 0.401044 0.750000
#
# Coordination Sequence:
#
# PCOD9456355 Si02
#       4
#     8   8   8   8
#     4  10  23  41  65  92 126 174 214 266 327 387
#     4  11  23  38  63  96 129 166 214 271 323 391
#     4  10  21  41  64  90 126 171 214 263 321 388
#     4  11  21  40  66  89 129 171 212 270 325 378
#
# _framework density 20.481359999999999
#
# number of rings (size 3 to 8) (size 9 to 14) (size 15 to 20)
#    0.000    1.500    5.000    0.750    0.000    4.000 
#    0.000   10.000    0.000    0.000    0.000    0.000 
#    0.000    0.000    0.000    0.000    0.000    0.000 
#
# Total GULP energy -178273.304290 kJ/mol
# GULP energy per Si atom -5571.040759 kJ/mol
# Density = 2.043474 g / cm^3
# Si number density = 20.481360 Si / 1000 Ang^3
#
#
#
# Elastic Constant Matrix: (Units=GPa)
#
#
# Indices 1 2 3 4 5 6 
#
# 1 58.7505 45.0818 29.3473 0.0000 0.0000 0.0000
# 2 45.0818 156.8780 62.7234 0.0000 0.0000 0.0000
# 3 29.3473 62.7234 179.0630 0.0000 0.0000 0.0000
# 4 0.0000 0.0000 0.0000 23.3519 0.0000 0.0000
# 5 0.0000 0.0000 0.0000 0.0000 29.0596 0.0000
# 6 0.0000 0.0000 0.0000 0.0000 0.0000 20.8485
#
#
#
# Elastic Compliance Matrix: (Units=1/GPa)
#
#
# Indices 1 2 3 4 5 6 
#
# 1 0.022241 -0.005737 -0.001635 0.000000 0.000000 0.000000
# 2 -0.005737 0.008893 -0.002175 0.000000 0.000000 0.000000
# 3 -0.001635 -0.002175 0.006614 0.000000 0.000000 0.000000
# 4 0.000000 0.000000 0.000000 0.042823 0.000000 0.000000
# 5 0.000000 0.000000 0.000000 0.000000 0.034412 0.000000
# 6 0.000000 0.000000 0.000000 0.000000 0.000000 0.047965
#
#
# Mechanical properties :
#
#
# Convention : Reuss Voigt Hill
#
# Bulk Modulus (GPa) = 53.61123 74.33294 63.97208
# Shear Modulus (GPa) = 26.55900 31.82127 29.19013
#
# Velocity S-wave (km/s) = 3.60493 3.94594 3.77928
# Velocity P-wave (km/s) = 6.59999 7.55859 7.09550
#
# Compressibility (1/GPa) = 0.01865281
#
# Stress axis : x y z
#
# Youngs Moduli (GPa) = 44.96284 112.45314 151.18536
#
# Poissons Ratio (x) = 0.64519 0.24724
# Poissons Ratio (y) = 0.25797 0.32877
# Poissons Ratio (z) = 0.07353 0.24454
#
# Static dielectric constant tensor:
#      x y z
#    x 1.876530 0.000000 0.000000 
#    y 0.000000 1.741430 0.000000 
#    z 0.000000 0.000000 1.782370 
# 
# From -- ./inp_files/14330.got.cif
#   From: 2010.05.17/outbox.cif.g08.bks.cpg/sg60_8_cif.got.tgz:14330.got - 2010.06.03 14:59:27.
