data_PCOD9456640
_publ_section_title
;
Structure prediction by ZEFSAII (Michael W. Deem and Ramdas Pophale) SiO2 
 PCOD9456640
Probable space group: P B C N
;
_chemical_formula_sum "Si O2"
_cell_formula_units_Z 56
_cell_length_a 14.422922
_cell_length_b 17.154849
_cell_length_c 10.911720
_cell_angle_alpha 90.000000
_cell_angle_beta 90.000000
_cell_angle_gamma 90.000000
_cell_volume 2699.811033
_symmetry_space_group_name_H-M "P B C N"
_symmetry_group_IT_number 60
_symmetry_cell_setting 'orthorhombic'
loop_
_space_group_symop_operation_xyz
x,y,z
1/2-x,1/2-y,1/2+z
1/2+x,1/2-y,-z
-x,y,1/2-z
-x,-y,-z
1/2+x,1/2+y,1/2-z
1/2-x,1/2+y,z
x,-y,1/2+z
loop_
_atom_site_type_symbol
_atom_site_label
_atom_site_fract_x
_atom_site_fract_y
_atom_site_fract_z
Si Si1 0.355938 0.687418 0.971627
Si Si2 0.648204 0.861093 0.460083
Si Si3 0.041587 0.568057 0.914682
Si Si4 0.174634 0.460084 0.804763
Si Si5 0.799586 0.905766 0.271545
Si Si6 0.170616 0.338779 0.594349
Si Si7 0.450503 0.316268 0.120184
O O1 0.320678 0.642339 0.851410
O O2 0.466459 0.672540 0.976650
O O3 0.347729 0.780701 0.966040
O O4 0.281311 0.665772 0.075542
O O5 0.544566 0.873315 0.408464
O O6 0.678133 0.927905 0.556884
O O7 0.718058 0.864789 0.347696
O O8 0.091365 0.523213 0.803879
O O9 0.123977 0.612679 0.984495
O O10 0.000000 0.500000 0.000000
O O11 0.264652 0.507909 0.761416
O O12 0.151832 0.388910 0.715741
O O13 0.890719 0.893892 0.354856
O O14 0.119703 0.255035 0.594185
O O15 0.500000 0.296276 0.250000
#
# Coordination Sequence:
#
# PCOD9456640 Si02
#       7
#     8   8   8   8   8   8   8
#     4  11  23  43  66  94 126 173 221 267 325 398
#     4  11  23  39  65  96 132 169 216 270 335 389
#     4  10  22  37  60 100 130 164 207 273 334 392
#     4  11  23  39  64  97 135 167 213 274 343 392
#     4  11  23  40  63  92 130 171 216 273 320 394
#     4  12  22  41  67  94 129 172 215 271 335 397
#     4  10  22  41  67  90 123 174 224 264 319 399
#
# _framework density 20.742191999999999
#
# number of rings (size 3 to 8) (size 9 to 14) (size 15 to 20)
#    0.000    1.143    4.286    3.429    2.000    2.857 
#    0.000    0.714    3.143    0.000    0.000    0.000 
#    0.000    0.000    0.000    0.000    0.000    0.000 
#
# Total GULP energy -312460.943158 kJ/mol
# GULP energy per Si atom -5579.659699 kJ/mol
# Density = 2.069498 g / cm^3
# Si number density = 20.742192 Si / 1000 Ang^3
#
#
#
# Elastic Constant Matrix: (Units=GPa)
#
#
# Indices 1 2 3 4 5 6 
#
# 1 115.1136 35.4741 25.1426 0.0000 0.0000 0.0000
# 2 35.4741 65.7572 7.8492 0.0000 0.0000 0.0000
# 3 25.1426 7.8492 33.1406 0.0000 0.0000 0.0000
# 4 0.0000 0.0000 0.0000 6.8595 0.0000 0.0000
# 5 0.0000 0.0000 0.0000 0.0000 39.6120 0.0000
# 6 0.0000 0.0000 0.0000 0.0000 0.0000 33.9839
#
#
#
# Elastic Compliance Matrix: (Units=1/GPa)
#
#
# Indices 1 2 3 4 5 6 
#
# 1 0.012136 -0.005606 -0.007879 0.000000 0.000000 0.000000
# 2 -0.005606 0.018240 -0.000067 0.000000 0.000000 0.000000
# 3 -0.007879 -0.000067 0.036168 0.000000 0.000000 0.000000
# 4 0.000000 0.000000 0.000000 0.145784 0.000000 0.000000
# 5 0.000000 0.000000 0.000000 0.000000 0.025245 0.000000
# 6 0.000000 0.000000 0.000000 0.000000 0.000000 0.029426
#
#
# Mechanical properties :
#
#
# Convention : Reuss Voigt Hill
#
# Bulk Modulus (GPa) = 25.35552 38.99367 32.17459
# Shear Modulus (GPa) = 16.27346 25.79411 21.03378
#
# Velocity S-wave (km/s) = 2.80404 3.53024 3.18788
# Velocity P-wave (km/s) = 4.76803 5.95456 5.39402
#
# Compressibility (1/GPa) = 0.03943915
#
# Stress axis : x y z
#
# Youngs Moduli (GPa) = 82.40186 54.82490 27.64890
#
# Poissons Ratio (x) = 0.30737 0.21785
# Poissons Ratio (y) = 0.46197 0.00184
# Poissons Ratio (z) = 0.64925 0.00366
#
# Static dielectric constant tensor:
#      x y z
#    x 1.799140 0.000000 0.000000 
#    y 0.000000 1.735890 0.000000 
#    z 0.000000 0.000000 1.789050 
# 
# From -- ./inp_files/11957.got.cif
#   From: 2010.05.17/outbox.cif.g08.bks.cpg/sg60_6_cif.got.tgz:11957.got - 2010.06.03 14:59:27.
