data_PCOD9456478
_publ_section_title
;
Structure prediction by ZEFSAII (Michael W. Deem and Ramdas Pophale) SiO2 
 PCOD9456478
Probable space group: P B C N
;
_chemical_formula_sum "Si O2"
_cell_formula_units_Z 44
_cell_length_a 14.930110
_cell_length_b 8.720228
_cell_length_c 13.520632
_cell_angle_alpha 90.000000
_cell_angle_beta 90.000000
_cell_angle_gamma 90.000000
_cell_volume 1760.304666
_symmetry_space_group_name_H-M "P B C N"
_symmetry_group_IT_number 60
_symmetry_cell_setting 'orthorhombic'
loop_
_space_group_symop_operation_xyz
x,y,z
1/2-x,1/2-y,1/2+z
1/2+x,1/2-y,-z
-x,y,1/2-z
-x,-y,-z
1/2+x,1/2+y,1/2-z
1/2-x,1/2+y,z
x,-y,1/2+z
loop_
_atom_site_type_symbol
_atom_site_label
_atom_site_fract_x
_atom_site_fract_y
_atom_site_fract_z
Si Si1 0.150108 0.078120 0.209908
Si Si2 0.000000 0.488224 0.750000
Si Si3 0.987235 0.716274 0.911788
Si Si4 0.646556 0.591834 0.050720
Si Si5 0.159155 0.723582 0.218338
Si Si6 0.165482 0.263008 0.956535
O O1 0.070577 0.173489 0.160684
O O2 0.143654 0.088310 0.329049
O O3 0.246606 0.151960 0.185418
O O4 0.147140 0.898250 0.184229
O O5 0.964815 0.596412 0.661306
O O6 0.075737 0.386145 0.698616
O O7 0.057924 0.813864 0.974542
O O8 0.912291 0.648484 0.985170
O O9 0.651396 0.416063 0.018522
O O10 0.736329 0.677239 0.018519
O O11 0.158809 0.725636 0.338491
#
# Coordination Sequence:
#
# PCOD9456478 Si02
#       6
#     8   4   8   8   8   8
#     4  10  21  42  71  94 133 178 224 280 332 402
#     4  12  26  40  70 104 132 176 232 280 332 406
#     4  12  24  44  71 102 135 179 230 283 340 405
#     4  10  22  44  67  94 137 174 223 276 344 399
#     4  10  24  43  66  99 138 179 226 279 342 403
#     4  10  25  43  67  96 136 179 219 280 348 400
#
# _framework density 24.995674000000001
#
# number of rings (size 3 to 8) (size 9 to 14) (size 15 to 20)
#    0.000    1.455    1.818    1.636   12.727    3.636 
#    3.273    0.000    0.000    0.000    0.000    0.000 
#    0.000    0.000    0.000    0.000    0.000    0.000 
#
# Total GULP energy -246638.927761 kJ/mol
# GULP energy per Si atom -5605.430176 kJ/mol
# Density = 2.493878 g / cm^3
# Si number density = 24.995674 Si / 1000 Ang^3
#
#
#
# Elastic Constant Matrix: (Units=GPa)
#
#
# Indices 1 2 3 4 5 6 
#
# 1 100.2342 27.3422 -2.6975 0.0000 0.0000 0.0000
# 2 27.3422 117.4237 19.3816 0.0000 0.0000 0.0000
# 3 -2.6975 19.3816 90.0975 0.0000 0.0000 0.0000
# 4 0.0000 0.0000 0.0000 38.1144 0.0000 0.0000
# 5 0.0000 0.0000 0.0000 0.0000 47.5722 0.0000
# 6 0.0000 0.0000 0.0000 0.0000 0.0000 40.7069
#
#
#
# Elastic Compliance Matrix: (Units=1/GPa)
#
#
# Indices 1 2 3 4 5 6 
#
# 1 0.010722 -0.002643 0.000890 0.000000 0.000000 0.000000
# 2 -0.002643 0.009481 -0.002119 0.000000 0.000000 0.000000
# 3 0.000890 -0.002119 0.011582 0.000000 0.000000 0.000000
# 4 0.000000 0.000000 0.000000 0.026237 0.000000 0.000000
# 5 0.000000 0.000000 0.000000 0.000000 0.021021 0.000000
# 6 0.000000 0.000000 0.000000 0.000000 0.000000 0.024566
#
#
# Mechanical properties :
#
#
# Convention : Reuss Voigt Hill
#
# Bulk Modulus (GPa) = 41.59815 43.97868 42.78841
# Shear Modulus (GPa) = 41.88795 42.86065 42.37430
#
# Velocity S-wave (km/s) = 4.09810 4.14541 4.12183
# Velocity P-wave (km/s) = 6.25067 6.36752 6.30937
#
# Compressibility (1/GPa) = 0.02403953
#
# Stress axis : x y z
#
# Youngs Moduli (GPa) = 93.26931 105.46965 86.34457
#
# Poissons Ratio (x) = 0.27880 -0.07682
# Poissons Ratio (y) = 0.24655 0.18294
# Poissons Ratio (z) = -0.08298 0.22347
#
# Static dielectric constant tensor:
#      x y z
#    x 1.907180 0.000000 0.000000 
#    y 0.000000 1.936730 0.000000 
#    z 0.000000 0.000000 2.010000 
# 
# From -- ./inp_files/20432.got.cif
#   From: 2010.05.17/outbox.cif.g08.bks.cpg/sg60_11_cif.got.tgz:20432.got - 2010.06.03 14:59:27.
