data_PCOD9456742
_publ_section_title
;
Structure prediction by ZEFSAII (Michael W. Deem and Ramdas Pophale) SiO2 
 PCOD9456742
Probable space group: P B C N
;
_chemical_formula_sum "Si O2"
_cell_formula_units_Z 64
_cell_length_a 17.095532
_cell_length_b 20.488089
_cell_length_c 8.805559
_cell_angle_alpha 90.000000
_cell_angle_beta 90.000000
_cell_angle_gamma 90.000000
_cell_volume 3084.189140
_symmetry_space_group_name_H-M "P B C N"
_symmetry_group_IT_number 60
_symmetry_cell_setting 'orthorhombic'
loop_
_space_group_symop_operation_xyz
x,y,z
1/2-x,1/2-y,1/2+z
1/2+x,1/2-y,-z
-x,y,1/2-z
-x,-y,-z
1/2+x,1/2+y,1/2-z
1/2-x,1/2+y,z
x,-y,1/2+z
loop_
_atom_site_type_symbol
_atom_site_label
_atom_site_fract_x
_atom_site_fract_y
_atom_site_fract_z
Si Si1 0.347573 0.637837 0.445298
Si Si2 0.351110 0.343929 0.443921
Si Si3 0.417348 0.267837 0.698280
Si Si4 0.714526 0.439489 0.815160
Si Si5 0.555786 0.969883 0.626646
Si Si6 0.159117 0.452995 0.145398
Si Si7 0.261449 0.181869 0.695551
Si Si8 0.413701 0.448864 0.204113
O O1 0.397987 0.677224 0.323792
O O2 0.288429 0.590831 0.352903
O O3 0.295085 0.685118 0.549654
O O4 0.402722 0.594046 0.552295
O O5 0.415940 0.302487 0.533516
O O6 0.299614 0.380445 0.570314
O O7 0.293451 0.302130 0.338421
O O8 0.386116 0.400354 0.337913
O O9 0.500000 0.237644 0.750000
O O10 0.341813 0.221166 0.693461
O O11 0.788939 0.481477 0.864088
O O12 0.641816 0.489232 0.816365
O O13 0.500000 0.933450 0.750000
O O14 0.619542 0.935919 0.516911
O O15 0.500000 0.000000 0.500000
O O16 0.596754 0.026878 0.725323
O O17 0.213391 0.394322 0.201468
O O18 0.500000 0.470016 0.250000
#
# Coordination Sequence:
#
# PCOD9456742 Si02
#       8
#     8   8   8   8   8   8   8   8
#     4  10  22  39  60  86 124 157 207 250 310 359
#     4  10  22  39  60  85 122 157 204 244 308 356
#     4  11  24  41  61  86 117 161 212 262 304 349
#     4  11  21  35  59  93 120 160 194 242 305 379
#     4   9  20  34  52  81 114 153 189 247 306 350
#     4  11  19  34  60  84 119 150 200 243 300 370
#     4  11  22  39  63  87 115 162 207 254 297 365
#     4  11  22  35  58  90 127 160 195 243 307 374
#
# _framework density 20.750997000000002
#
# number of rings (size 3 to 8) (size 9 to 14) (size 15 to 20)
#    0.000    1.500    2.500    3.750    0.000    5.500 
#    0.000    0.000    0.000    5.250    0.000    0.000 
#    0.000    0.000    0.000    0.000    0.000    0.000 
#
# Total GULP energy -357201.049972 kJ/mol
# GULP energy per Si atom -5581.266406 kJ/mol
# Density = 2.070377 g / cm^3
# Si number density = 20.750997 Si / 1000 Ang^3
#
#
#
# Elastic Constant Matrix: (Units=GPa)
#
#
# Indices 1 2 3 4 5 6 
#
# 1 81.2458 -9.2609 22.9170 0.0000 0.0000 0.0000
# 2 -9.2609 16.3673 5.6582 0.0000 0.0000 0.0000
# 3 22.9170 5.6582 111.4207 0.0000 0.0000 0.0000
# 4 0.0000 0.0000 0.0000 826.5933 0.0000 0.0000
# 5 0.0000 0.0000 0.0000 0.0000 25.9803 0.0000
# 6 0.0000 0.0000 0.0000 0.0000 0.0000 20.9009
#
#
#
# Elastic Compliance Matrix: (Units=1/GPa)
#
#
# Indices 1 2 3 4 5 6 
#
# 1 0.014332 0.009291 -0.003420 0.000000 0.000000 0.000000
# 2 0.009291 0.068213 -0.005375 0.000000 0.000000 0.000000
# 3 -0.003420 -0.005375 0.009951 0.000000 0.000000 0.000000
# 4 0.000000 0.000000 0.000000 0.001210 0.000000 0.000000
# 5 0.000000 0.000000 0.000000 0.000000 0.038491 0.000000
# 6 0.000000 0.000000 0.000000 0.000000 0.000000 0.047845
#
#
# Mechanical properties :
#
#
# Convention : Reuss Voigt Hill
#
# Bulk Modulus (GPa) = 10.69636 27.51805 19.10720
# Shear Modulus (GPa) = 23.78560 187.34287 105.56424
#
# Velocity S-wave (km/s) = 3.38929 9.51196 7.14019
# Velocity P-wave (km/s) = 4.52572 11.57266 8.78660
#
# Compressibility (1/GPa) = 0.09348974
#
# Stress axis : x y z
#
# Youngs Moduli (GPa) = 69.77391 14.65998 100.48930
#
# Poissons Ratio (x) = -0.13621 0.34364
# Poissons Ratio (y) = -0.64830 0.54014
# Poissons Ratio (z) = 0.23860 0.07880
#
# Static dielectric constant tensor:
#      x y z
#    x 1.796580 0.000000 0.000000 
#    y 0.000000 1.185630 0.000000 
#    z 0.000000 0.000000 1.773960 
# 
# From -- ./inp_files/7018.got.cif
#   From: 2010.05.17/outbox.cif.g08.bks.cpg/sg60_4_cif.got.tgz:7018.got - 2010.06.03 14:59:27.
