data_PCOD9456718
_publ_section_title
;
Structure prediction by ZEFSAII (Michael W. Deem and Ramdas Pophale) SiO2 
 PCOD9456718
Probable space group: P B C N
;
_chemical_formula_sum "Si O2"
_cell_formula_units_Z 48
_cell_length_a 16.209768
_cell_length_b 9.538925
_cell_length_c 12.435852
_cell_angle_alpha 90.000000
_cell_angle_beta 90.000000
_cell_angle_gamma 90.000000
_cell_volume 1922.878210
_symmetry_space_group_name_H-M "P B C N"
_symmetry_group_IT_number 60
_symmetry_cell_setting 'orthorhombic'
loop_
_space_group_symop_operation_xyz
x,y,z
1/2-x,1/2-y,1/2+z
1/2+x,1/2-y,-z
-x,y,1/2-z
-x,-y,-z
1/2+x,1/2+y,1/2-z
1/2-x,1/2+y,z
x,-y,1/2+z
loop_
_atom_site_type_symbol
_atom_site_label
_atom_site_fract_x
_atom_site_fract_y
_atom_site_fract_z
Si Si1 0.664623 0.008744 0.334116
Si Si2 0.942877 0.898466 0.340678
Si Si3 0.023974 0.482927 0.373075
Si Si4 0.279272 0.703119 0.760979
Si Si5 0.499764 0.689643 0.067298
Si Si6 0.655340 0.167606 0.038063
O O1 0.714551 0.257936 0.113231
O O2 0.601339 0.084708 0.126259
O O3 0.709667 0.154041 0.307559
O O4 0.685948 0.948265 0.453588
O O5 0.986357 0.046607 0.368605
O O6 0.000000 0.827299 0.250000
O O7 0.946548 0.826426 0.457921
O O8 0.853802 0.894555 0.285180
O O9 0.064919 0.518017 0.178120
O O10 0.000000 0.500000 0.500000
O O11 0.036372 0.316496 0.364168
O O12 0.198134 0.616331 0.738934
O O13 0.408196 0.733701 0.026619
#
# Coordination Sequence:
#
# PCOD9456718 Si02
#       6
#     8   8   8   8   8   8
#     4  11  27  44  71 104 147 189 242 298 372 441
#     4  11  22  42  69 100 143 186 237 292 359 427
#     4  11  21  43  76 106 137 183 252 294 351 442
#     4  12  26  47  72 102 147 193 233 303 374 434
#     4  10  22  38  67 109 132 179 237 305 340 420
#     4  11  23  46  76 101 143 187 248 295 365 441
#
# _framework density 24.962581
#
# number of rings (size 3 to 8) (size 9 to 14) (size 15 to 20)
#    0.000    1.000    3.333    4.500    4.667    1.333 
#    3.000    0.000    0.000    0.000    0.000    0.000 
#    0.000    0.000    0.000    0.000    0.000    0.000 
#
# Total GULP energy -268297.816828 kJ/mol
# GULP energy per Si atom -5589.537851 kJ/mol
# Density = 2.490577 g / cm^3
# Si number density = 24.962581 Si / 1000 Ang^3
#
#
#
# Elastic Constant Matrix: (Units=GPa)
#
#
# Indices 1 2 3 4 5 6 
#
# 1 82.5019 33.2490 27.8985 0.0000 0.0000 0.0000
# 2 33.2490 100.2497 5.3159 0.0000 0.0000 0.0000
# 3 27.8985 5.3159 83.5665 0.0000 0.0000 0.0000
# 4 0.0000 0.0000 0.0000 37.8184 0.0000 0.0000
# 5 0.0000 0.0000 0.0000 0.0000 43.7131 0.0000
# 6 0.0000 0.0000 0.0000 0.0000 0.0000 37.9030
#
#
#
# Elastic Compliance Matrix: (Units=1/GPa)
#
#
# Indices 1 2 3 4 5 6 
#
# 1 0.015805 -0.004979 -0.004960 0.000000 0.000000 0.000000
# 2 -0.004979 0.011577 0.000926 0.000000 0.000000 0.000000
# 3 -0.004960 0.000926 0.013563 0.000000 0.000000 0.000000
# 4 0.000000 0.000000 0.000000 0.026442 0.000000 0.000000
# 5 0.000000 0.000000 0.000000 0.000000 0.022876 0.000000
# 6 0.000000 0.000000 0.000000 0.000000 0.000000 0.026383
#
#
# Mechanical properties :
#
#
# Convention : Reuss Voigt Hill
#
# Bulk Modulus (GPa) = 43.63033 44.36054 43.99544
# Shear Modulus (GPa) = 35.13403 37.21055 36.17229
#
# Velocity S-wave (km/s) = 3.75569 3.86509 3.81078
# Velocity P-wave (km/s) = 6.02687 6.14231 6.08486
#
# Compressibility (1/GPa) = 0.02291984
#
# Stress axis : x y z
#
# Youngs Moduli (GPa) = 63.27301 86.37614 73.72796
#
# Poissons Ratio (x) = 0.43005 0.36566
# Poissons Ratio (y) = 0.31502 -0.06825
# Poissons Ratio (z) = 0.31381 -0.07996
#
# Static dielectric constant tensor:
#      x y z
#    x 1.999010 0.000000 0.000000 
#    y 0.000000 1.912090 0.000000 
#    z 0.000000 0.000000 2.286760 
# 
# From -- ./inp_files/13063.got.cif
#   From: 2010.05.17/outbox.cif.g08.bks.cpg/sg60_7_cif.got.tgz:13063.got - 2010.06.03 14:59:27.
