data_PCOD9456558
_publ_section_title
;
Structure prediction by ZEFSAII (Michael W. Deem and Ramdas Pophale) SiO2 
 PCOD9456558
Probable space group: P B C N
;
_chemical_formula_sum "Si O2"
_cell_formula_units_Z 32
_cell_length_a 13.625422
_cell_length_b 7.902296
_cell_length_c 12.088288
_cell_angle_alpha 90.000000
_cell_angle_beta 90.000000
_cell_angle_gamma 90.000000
_cell_volume 1301.571569
_symmetry_space_group_name_H-M "P B C N"
_symmetry_group_IT_number 60
_symmetry_cell_setting 'orthorhombic'
loop_
_space_group_symop_operation_xyz
x,y,z
1/2-x,1/2-y,1/2+z
1/2+x,1/2-y,-z
-x,y,1/2-z
-x,-y,-z
1/2+x,1/2+y,1/2-z
1/2-x,1/2+y,z
x,-y,1/2+z
loop_
_atom_site_type_symbol
_atom_site_label
_atom_site_fract_x
_atom_site_fract_y
_atom_site_fract_z
Si Si1 0.078464 0.374659 0.061944
Si Si2 0.603299 0.193294 0.314587
Si Si3 0.203689 0.838209 0.388793
Si Si4 0.102448 0.809937 0.940681
O O1 0.126107 0.500624 0.149547
O O2 0.004493 0.231580 0.107045
O O3 0.153945 0.284830 0.980317
O O4 0.000000 0.500000 0.000000
O O5 0.500000 0.193960 0.250000
O O6 0.682787 0.264137 0.231404
O O7 0.594298 0.304326 0.425782
O O8 0.319179 0.835901 0.410839
O O9 0.150384 0.017026 0.401116
#
# Coordination Sequence:
#
# PCOD9456558 Si02
#       4
#     8   8   8   8
#     4  10  21  45  70 101 142 181 235 298 351 428
#     4  11  24  46  75 100 142 191 242 289 373 424
#     4  12  25  46  72 108 150 186 245 300 364 429
#     4  11  25  45  74 108 149 188 240 307 354 437
#
# _framework density 24.585661999999999
#
# number of rings (size 3 to 8) (size 9 to 14) (size 15 to 20)
#    0.000    1.000    5.000    3.750    0.000    4.000 
#    4.500    0.000    0.000    0.000    0.000    0.000 
#    0.000    0.000    0.000    0.000    0.000    0.000 
#
# Total GULP energy -179320.391305 kJ/mol
# GULP energy per Si atom -5603.762228 kJ/mol
# Density = 2.452970 g / cm^3
# Si number density = 24.585662 Si / 1000 Ang^3
#
#
#
# Elastic Constant Matrix: (Units=GPa)
#
#
# Indices 1 2 3 4 5 6 
#
# 1 56.9216 13.5503 12.1817 0.0000 0.0000 0.0000
# 2 13.5503 130.1372 37.1900 0.0000 0.0000 0.0000
# 3 12.1817 37.1900 106.8374 0.0000 0.0000 0.0000
# 4 0.0000 0.0000 0.0000 26.1288 0.0000 0.0000
# 5 0.0000 0.0000 0.0000 0.0000 34.1268 0.0000
# 6 0.0000 0.0000 0.0000 0.0000 0.0000 31.5800
#
#
#
# Elastic Compliance Matrix: (Units=1/GPa)
#
#
# Indices 1 2 3 4 5 6 
#
# 1 0.018251 -0.001450 -0.001576 0.000000 0.000000 0.000000
# 2 -0.001450 0.008648 -0.002845 0.000000 0.000000 0.000000
# 3 -0.001576 -0.002845 0.010530 0.000000 0.000000 0.000000
# 4 0.000000 0.000000 0.000000 0.038272 0.000000 0.000000
# 5 0.000000 0.000000 0.000000 0.000000 0.029302 0.000000
# 6 0.000000 0.000000 0.000000 0.000000 0.000000 0.031666
#
#
# Mechanical properties :
#
#
# Convention : Reuss Voigt Hill
#
# Bulk Modulus (GPa) = 38.93109 46.63781 42.78445
# Shear Modulus (GPa) = 31.85251 33.76539 32.80895
#
# Velocity S-wave (km/s) = 3.60331 3.70993 3.65701
# Velocity P-wave (km/s) = 5.76030 6.11246 5.93899
#
# Compressibility (1/GPa) = 0.02568641
#
# Stress axis : x y z
#
# Youngs Moduli (GPa) = 54.79300 115.63064 94.96561
#
# Poissons Ratio (x) = 0.16765 0.14969
# Poissons Ratio (y) = 0.07944 0.27019
# Poissons Ratio (z) = 0.08637 0.32898
#
# Static dielectric constant tensor:
#      x y z
#    x 1.977780 0.000000 0.000000 
#    y 0.000000 2.025410 0.000000 
#    z 0.000000 0.000000 1.955940 
# 
# From -- ./inp_files/11511.got.cif
#   From: 2010.05.17/outbox.cif.g08.bks.cpg/sg60_6_cif.got.tgz:11511.got - 2010.06.03 14:59:27.
