data_PCOD9456057
_publ_section_title
;
Structure prediction by ZEFSAII (Michael W. Deem and Ramdas Pophale) SiO2 
 PCOD9456057
Probable space group: P B C N
;
_chemical_formula_sum "Si O2"
_cell_formula_units_Z 52
_cell_length_a 26.309331
_cell_length_b 8.882564
_cell_length_c 11.468513
_cell_angle_alpha 90.000000
_cell_angle_beta 90.000000
_cell_angle_gamma 90.000000
_cell_volume 2680.126306
_symmetry_space_group_name_H-M "P B C N"
_symmetry_group_IT_number 60
_symmetry_cell_setting 'orthorhombic'
loop_
_space_group_symop_operation_xyz
x,y,z
1/2-x,1/2-y,1/2+z
1/2+x,1/2-y,-z
-x,y,1/2-z
-x,-y,-z
1/2+x,1/2+y,1/2-z
1/2-x,1/2+y,z
x,-y,1/2+z
loop_
_atom_site_type_symbol
_atom_site_label
_atom_site_fract_x
_atom_site_fract_y
_atom_site_fract_z
Si Si1 0.572775 0.247686 0.651975
Si Si2 0.988738 0.238699 0.915095
Si Si3 0.000000 0.484093 0.250000
Si Si4 0.753699 0.477616 0.651173
Si Si5 0.423549 0.408360 0.290452
Si Si6 0.818222 0.730424 0.537608
Si Si7 0.684096 0.285780 0.266140
O O1 0.533935 0.259175 0.543045
O O2 0.548972 0.121832 0.735501
O O3 0.576050 0.411820 0.709541
O O4 0.628217 0.208495 0.602464
O O5 0.950331 0.154118 0.826445
O O6 0.995351 0.405048 0.860638
O O7 0.042027 0.152726 0.897043
O O8 0.782319 0.587248 0.561456
O O9 0.711160 0.374284 0.590593
O O10 0.793847 0.365482 0.709716
O O11 0.726291 0.585354 0.744900
O O12 0.367301 0.341933 0.294829
O O13 0.826387 0.758506 0.401556
#
# Coordination Sequence:
#
# PCOD9456057 Si02
#       7
#     8   8   4   8   8   8   8
#     4  12  22  40  65  92 125 163 208 249 312 369
#     4  10  23  42  61  87 129 161 202 256 303 367
#     4  10  24  40  60  94 124 158 208 252 306 372
#     4  10  24  41  62  93 124 161 206 260 304 368
#     4  10  21  38  63  90 120 162 199 252 304 364
#     4  11  23  39  67  90 124 163 206 253 312 367
#     4  11  21  43  64  90 126 160 206 255 311 362
#
# _framework density 19.402073000000001
#
# number of rings (size 3 to 8) (size 9 to 14) (size 15 to 20)
#    0.000    1.538    3.077    2.769    4.308    0.000 
#    0.000    0.000    3.385    0.000    0.000    0.000 
#    0.000    0.000    0.000    0.000    0.000    0.000 
#
# Total GULP energy -290617.153712 kJ/mol
# GULP energy per Si atom -5588.791418 kJ/mol
# Density = 1.935791 g / cm^3
# Si number density = 19.402073 Si / 1000 Ang^3
#
#
#
# Elastic Constant Matrix: (Units=GPa)
#
#
# Indices 1 2 3 4 5 6 
#
# 1 108.2999 48.6171 10.1345 0.0000 0.0000 0.0000
# 2 48.6171 108.2589 10.5586 0.0000 0.0000 0.0000
# 3 10.1345 10.5586 19.6281 0.0000 0.0000 0.0000
# 4 0.0000 0.0000 0.0000 8.5702 0.0000 0.0000
# 5 0.0000 0.0000 0.0000 0.0000 29.1493 0.0000
# 6 0.0000 0.0000 0.0000 0.0000 0.0000 142.6065
#
#
#
# Elastic Compliance Matrix: (Units=1/GPa)
#
#
# Indices 1 2 3 4 5 6 
#
# 1 0.011778 -0.004956 -0.003415 0.000000 0.000000 0.000000
# 2 -0.004956 0.011834 -0.003807 0.000000 0.000000 0.000000
# 3 -0.003415 -0.003807 0.054758 0.000000 0.000000 0.000000
# 4 0.000000 0.000000 0.000000 0.116684 0.000000 0.000000
# 5 0.000000 0.000000 0.000000 0.000000 0.034306 0.000000
# 6 0.000000 0.000000 0.000000 0.000000 0.000000 0.007012
#
#
# Mechanical properties :
#
#
# Convention : Reuss Voigt Hill
#
# Bulk Modulus (GPa) = 18.51373 41.64525 30.07949
# Shear Modulus (GPa) = 17.93823 47.19030 32.56427
#
# Velocity S-wave (km/s) = 3.04394 4.93711 4.10126
# Velocity P-wave (km/s) = 4.68156 7.34922 6.16149
#
# Compressibility (1/GPa) = 0.05401397
#
# Stress axis : x y z
#
# Youngs Moduli (GPa) = 84.90319 84.50102 18.26201
#
# Poissons Ratio (x) = 0.41881 0.06237
# Poissons Ratio (y) = 0.42080 0.06952
# Poissons Ratio (z) = 0.28996 0.32169
#
# Static dielectric constant tensor:
#      x y z
#    x 1.670000 0.000000 0.000000 
#    y 0.000000 1.664070 0.000000 
#    z 0.000000 0.000000 1.652620 
# 
# From -- ./inp_files/13257.got.cif
#   From: 2010.05.17/outbox.cif.g08.bks.cpg/sg60_7_cif.got.tgz:13257.got - 2010.06.03 14:59:27.
