data_PCOD9456734
_publ_section_title
;
Structure prediction by ZEFSAII (Michael W. Deem and Ramdas Pophale) SiO2 
 PCOD9456734
Probable space group: P B C N
;
_chemical_formula_sum "Si O2"
_cell_formula_units_Z 64
_cell_length_a 25.384233
_cell_length_b 13.678165
_cell_length_c 9.864639
_cell_angle_alpha 90.000000
_cell_angle_beta 90.000000
_cell_angle_gamma 90.000000
_cell_volume 3425.098618
_symmetry_space_group_name_H-M "P B C N"
_symmetry_group_IT_number 60
_symmetry_cell_setting 'orthorhombic'
loop_
_space_group_symop_operation_xyz
x,y,z
1/2-x,1/2-y,1/2+z
1/2+x,1/2-y,-z
-x,y,1/2-z
-x,-y,-z
1/2+x,1/2+y,1/2-z
1/2-x,1/2+y,z
x,-y,1/2+z
loop_
_atom_site_type_symbol
_atom_site_label
_atom_site_fract_x
_atom_site_fract_y
_atom_site_fract_z
Si Si1 0.168849 0.757417 0.089493
Si Si2 0.850024 0.919192 0.909443
Si Si3 0.232106 0.437351 0.516899
Si Si4 0.541850 0.684712 0.133245
Si Si5 0.093816 0.027422 0.814211
Si Si6 0.263384 0.885820 0.211537
Si Si7 0.047628 0.210108 0.672752
Si Si8 0.643916 0.255884 0.703879
O O1 0.212578 0.818157 0.174753
O O2 0.109485 0.755222 0.152672
O O3 0.190645 0.647469 0.058796
O O4 0.166198 0.804202 0.936364
O O5 0.869011 0.824828 0.829811
O O6 0.864904 0.006170 0.806982
O O7 0.788371 0.905769 0.924746
O O8 0.877343 0.936412 0.051592
O O9 0.223122 0.540883 0.589213
O O10 0.241115 0.443056 0.354902
O O11 0.500000 0.696568 0.250000
O O12 0.565396 0.574788 0.150993
O O13 0.585783 0.769818 0.153019
O O14 0.525744 0.691215 0.977779
O O15 0.056148 0.110190 0.756290
O O16 0.313584 0.818500 0.242819
O O17 0.000000 0.266312 0.750000
#
# Coordination Sequence:
#
# PCOD9456734 Si02
#       8
#     8   8   8   8   8   8   8   8
#     4  10  22  43  57  87 123 157 196 253 297 355
#     4  11  20  36  54  86 114 163 188 236 295 355
#     4  11  23  36  63  85 122 156 195 245 304 359
#     4  10  22  39  56  80 120 164 200 242 295 353
#     4  11  22  34  56  81 123 151 202 238 288 356
#     4  11  23  40  61  90 118 157 198 248 304 365
#     4  11  23  37  56  81 114 157 202 250 292 346
#     4   9  22  39  58  80 120 156 198 241 293 359
#
# _framework density 18.685593000000001
#
# number of rings (size 3 to 8) (size 9 to 14) (size 15 to 20)
#    0.000    1.500    2.500    2.625    8.750    1.000 
#    2.250    0.000    0.000    0.750    0.000    5.250 
#    0.000    0.000    0.000    0.000    0.000    0.000 
#
# Total GULP energy -356352.809461 kJ/mol
# GULP energy per Si atom -5568.012648 kJ/mol
# Density = 1.864306 g / cm^3
# Si number density = 18.685593 Si / 1000 Ang^3
#
#
#
# Elastic Constant Matrix: (Units=GPa)
#
#
# Indices 1 2 3 4 5 6 
#
# 1 107.8938 33.5136 62.0986 0.0000 0.0000 0.0000
# 2 33.5136 29.8834 31.6281 0.0000 0.0000 0.0000
# 3 62.0986 31.6281 139.3195 0.0000 0.0000 0.0000
# 4 0.0000 0.0000 0.0000 7.1172 0.0000 0.0000
# 5 0.0000 0.0000 0.0000 0.0000 32.9566 0.0000
# 6 0.0000 0.0000 0.0000 0.0000 0.0000 16.3758
#
#
#
# Elastic Compliance Matrix: (Units=1/GPa)
#
#
# Indices 1 2 3 4 5 6 
#
# 1 0.015721 -0.013445 -0.003955 0.000000 0.000000 0.000000
# 2 -0.013445 0.055545 -0.006617 0.000000 0.000000 0.000000
# 3 -0.003955 -0.006617 0.010443 0.000000 0.000000 0.000000
# 4 0.000000 0.000000 0.000000 0.140504 0.000000 0.000000
# 5 0.000000 0.000000 0.000000 0.000000 0.030343 0.000000
# 6 0.000000 0.000000 0.000000 0.000000 0.000000 0.061066
#
#
# Mechanical properties :
#
#
# Convention : Reuss Voigt Hill
#
# Bulk Modulus (GPa) = 29.69570 59.06414 44.37992
# Shear Modulus (GPa) = 13.40918 21.28036 17.34477
#
# Velocity S-wave (km/s) = 2.68175 3.37837 3.05001
# Velocity P-wave (km/s) = 5.05132 6.84806 6.01713
#
# Compressibility (1/GPa) = 0.03367491
#
# Stress axis : x y z
#
# Youngs Moduli (GPa) = 63.60990 18.00356 95.75980
#
# Poissons Ratio (x) = 0.24205 0.37873
# Poissons Ratio (y) = 0.85521 0.63364
# Poissons Ratio (z) = 0.25158 0.11913
#
# Static dielectric constant tensor:
#      x y z
#    x 1.737640 0.000000 0.000000 
#    y 0.000000 1.701820 0.000000 
#    z 0.000000 0.000000 1.686590 
# 
# From -- ./inp_files/7964.got.cif
#   From: 2010.05.17/outbox.cif.g08.bks.cpg/sg60_4_cif.got.tgz:7964.got - 2010.06.03 14:59:27.
