data_PCOD9456799
_publ_section_title
;
Structure prediction by ZEFSAII (Michael W. Deem and Ramdas Pophale) SiO2 
 PCOD9456799
Probable space group: P B C N
;
_chemical_formula_sum "Si O2"
_cell_formula_units_Z 48
_cell_length_a 16.035130
_cell_length_b 16.177078
_cell_length_c 8.768304
_cell_angle_alpha 90.000000
_cell_angle_beta 90.000000
_cell_angle_gamma 90.000000
_cell_volume 2274.511638
_symmetry_space_group_name_H-M "P B C N"
_symmetry_group_IT_number 60
_symmetry_cell_setting 'orthorhombic'
loop_
_space_group_symop_operation_xyz
x,y,z
1/2-x,1/2-y,1/2+z
1/2+x,1/2-y,-z
-x,y,1/2-z
-x,-y,-z
1/2+x,1/2+y,1/2-z
1/2-x,1/2+y,z
x,-y,1/2+z
loop_
_atom_site_type_symbol
_atom_site_label
_atom_site_fract_x
_atom_site_fract_y
_atom_site_fract_z
Si Si1 0.801942 0.266598 0.905230
Si Si2 0.668278 0.661317 0.186946
Si Si3 0.561422 0.885408 0.035023
Si Si4 0.600504 0.372396 0.234440
Si Si5 0.000000 0.260581 0.250000
Si Si6 0.000000 0.488579 0.750000
Si Si7 0.600609 0.492344 0.514274
O O1 0.728375 0.315639 0.824813
O O2 0.853370 0.211961 0.780634
O O3 0.785451 0.200360 0.038844
O O4 0.858508 0.334048 0.990156
O O5 0.581227 0.707133 0.221605
O O6 0.638318 0.569954 0.141433
O O7 0.494649 0.819790 0.101799
O O8 0.568732 0.951905 0.171379
O O9 0.533055 0.932986 0.885685
O O10 0.500000 0.359304 0.250000
O O11 0.623233 0.442417 0.361010
O O12 0.622888 0.415287 0.072686
O O13 0.500000 0.500000 0.500000
#
# Coordination Sequence:
#
# PCOD9456799 Si02
#       7
#     8   8   8   8   4   4   8
#     4  10  22  40  57  90 127 154 209 258 317 377
#     4  10  22  40  60  90 127 165 209 266 320 381
#     4   9  19  37  60  87 117 154 206 252 308 383
#     4   9  19  36  59  89 122 160 204 255 312 379
#     4   9  20  38  64  85 114 164 210 255 316 378
#     4   9  18  36  62  87 116 158 202 251 308 382
#     4   9  19  36  59  87 124 162 213 254 308 380
#
# _framework density 21.103432999999999
#
# number of rings (size 3 to 8) (size 9 to 14) (size 15 to 20)
#    0.000    2.667    0.000    0.000    4.667    2.667 
#    6.000   10.000    0.000    0.000    0.000    0.000 
#    0.000    0.000    0.000    0.000    0.000    0.000 
#
# Total GULP energy -267249.855005 kJ/mol
# GULP energy per Si atom -5567.705313 kJ/mol
# Density = 2.105540 g / cm^3
# Si number density = 21.103433 Si / 1000 Ang^3
#
#
#
# Elastic Constant Matrix: (Units=GPa)
#
#
# Indices 1 2 3 4 5 6 
#
# 1 54.4578 35.8053 44.8282 0.0000 0.0000 0.0000
# 2 35.8053 85.4552 43.6221 0.0000 0.0000 0.0000
# 3 44.8282 43.6221 79.4078 0.0000 0.0000 0.0000
# 4 0.0000 0.0000 0.0000 38.3439 0.0000 0.0000
# 5 0.0000 0.0000 0.0000 0.0000 37.2121 0.0000
# 6 0.0000 0.0000 0.0000 0.0000 0.0000 24.7201
#
#
#
# Elastic Compliance Matrix: (Units=1/GPa)
#
#
# Indices 1 2 3 4 5 6 
#
# 1 0.036875 -0.006704 -0.017134 0.000000 0.000000 0.000000
# 2 -0.006704 0.017481 -0.005819 0.000000 0.000000 0.000000
# 3 -0.017134 -0.005819 0.025462 0.000000 0.000000 0.000000
# 4 0.000000 0.000000 0.000000 0.026080 0.000000 0.000000
# 5 0.000000 0.000000 0.000000 0.000000 0.026873 0.000000
# 6 0.000000 0.000000 0.000000 0.000000 0.000000 0.040453
#
#
# Mechanical properties :
#
#
# Convention : Reuss Voigt Hill
#
# Bulk Modulus (GPa) = 48.76858 51.98133 50.37496
# Shear Modulus (GPa) = 20.88788 26.39291 23.64039
#
# Velocity S-wave (km/s) = 3.14950 3.54028 3.35059
# Velocity P-wave (km/s) = 6.03202 6.43402 6.23626
#
# Compressibility (1/GPa) = 0.02050501
#
# Stress axis : x y z
#
# Youngs Moduli (GPa) = 27.11849 57.20454 39.27345
#
# Poissons Ratio (x) = 0.38350 0.67293
# Poissons Ratio (y) = 0.18180 0.22851
# Poissons Ratio (z) = 0.46466 0.33285
#
# Static dielectric constant tensor:
#      x y z
#    x 1.719760 0.000000 0.000000 
#    y 0.000000 1.810520 0.000000 
#    z 0.000000 0.000000 1.812460 
# 
# From -- ./inp_files/6760.got.cif
#   From: 2010.05.17/outbox.cif.g08.bks.cpg/sg60_4_cif.got.tgz:6760.got - 2010.06.03 14:59:27.
