data_PCOD9456731
_publ_section_title
;
Structure prediction by ZEFSAII (Michael W. Deem and Ramdas Pophale) SiO2 
 PCOD9456731
Probable space group: P B C N
;
_chemical_formula_sum "Si O2"
_cell_formula_units_Z 40
_cell_length_a 7.915177
_cell_length_b 18.016134
_cell_length_c 11.113445
_cell_angle_alpha 90.000000
_cell_angle_beta 90.000000
_cell_angle_gamma 90.000000
_cell_volume 1584.787142
_symmetry_space_group_name_H-M "P B C N"
_symmetry_group_IT_number 60
_symmetry_cell_setting 'orthorhombic'
loop_
_space_group_symop_operation_xyz
x,y,z
1/2-x,1/2-y,1/2+z
1/2+x,1/2-y,-z
-x,y,1/2-z
-x,-y,-z
1/2+x,1/2+y,1/2-z
1/2-x,1/2+y,z
x,-y,1/2+z
loop_
_atom_site_type_symbol
_atom_site_label
_atom_site_fract_x
_atom_site_fract_y
_atom_site_fract_z
Si Si1 0.767440 0.985414 0.633996
Si Si2 0.273550 0.644516 0.545052
Si Si3 0.159469 0.375584 0.670836
Si Si4 0.000000 0.904302 0.250000
Si Si5 0.548687 0.267240 0.888330
Si Si6 0.500000 0.000000 0.500000
O O1 0.739576 0.938661 0.508385
O O2 0.773734 0.924175 0.736917
O O3 0.917438 0.042042 0.649493
O O4 0.591428 0.026948 0.629323
O O5 0.357729 0.639491 0.676845
O O6 0.102697 0.691333 0.547641
O O7 0.407651 0.685499 0.458297
O O8 0.277335 0.313556 0.615294
O O9 0.095605 0.432296 0.572831
O O10 0.000000 0.347574 0.750000
O O11 0.500000 0.254859 0.750000
#
# Coordination Sequence:
#
# PCOD9456731 Si02
#       6
#     8   8   8   4   8   4
#     4  11  22  45  69 107 146 194 243 318 378 444
#     4  12  29  45  78 108 151 206 253 319 381 470
#     4  10  22  42  74 102 150 192 241 308 380 447
#     4  12  26  44  78 110 152 190 266 310 396 454
#     4  12  28  49  75 107 156 204 261 315 388 466
#     4  10  22  38  74 106 140 192 246 304 376 448
#
# _framework density 25.239985000000001
#
# number of rings (size 3 to 8) (size 9 to 14) (size 15 to 20)
#    0.000    0.800    2.000    4.200    9.800    1.600 
#    0.000    0.000    0.000    0.000    0.000    0.000 
#    0.000    0.000    0.000    0.000    0.000    0.000 
#
# Total GULP energy -223198.512178 kJ/mol
# GULP energy per Si atom -5579.962804 kJ/mol
# Density = 2.518254 g / cm^3
# Si number density = 25.239985 Si / 1000 Ang^3
#
#
#
# Elastic Constant Matrix: (Units=GPa)
#
#
# Indices 1 2 3 4 5 6 
#
# 1 87.0873 44.0727 19.0576 0.0000 0.0000 0.0000
# 2 44.0727 82.7222 35.7768 0.0000 0.0000 0.0000
# 3 19.0576 35.7768 93.6753 0.0000 0.0000 0.0000
# 4 0.0000 0.0000 0.0000 51.9173 0.0000 0.0000
# 5 0.0000 0.0000 0.0000 0.0000 51.4979 0.0000
# 6 0.0000 0.0000 0.0000 0.0000 0.0000 38.0807
#
#
#
# Elastic Compliance Matrix: (Units=1/GPa)
#
#
# Indices 1 2 3 4 5 6 
#
# 1 0.015722 -0.008377 0.000001 0.000000 0.000000 0.000000
# 2 -0.008377 0.018944 -0.005531 0.000000 0.000000 0.000000
# 3 0.000001 -0.005531 0.012787 0.000000 0.000000 0.000000
# 4 0.000000 0.000000 0.000000 0.019261 0.000000 0.000000
# 5 0.000000 0.000000 0.000000 0.000000 0.019418 0.000000
# 6 0.000000 0.000000 0.000000 0.000000 0.000000 0.026260
#
#
# Mechanical properties :
#
#
# Convention : Reuss Voigt Hill
#
# Bulk Modulus (GPa) = 50.91814 51.25543 51.08678
# Shear Modulus (GPa) = 34.07106 39.27102 36.67104
#
# Velocity S-wave (km/s) = 3.67806 3.94878 3.81582
# Velocity P-wave (km/s) = 6.18506 6.41418 6.30066
#
# Compressibility (1/GPa) = 0.01963937
#
# Stress axis : x y z
#
# Youngs Moduli (GPa) = 63.60623 52.78843 78.20209
#
# Poissons Ratio (x) = 0.44218 -0.00006
# Poissons Ratio (y) = 0.53280 0.43252
# Poissons Ratio (z) = -0.00005 0.29196
#
# Static dielectric constant tensor:
#      x y z
#    x 1.537630 0.000000 0.000000 
#    y 0.000000 1.667100 0.000000 
#    z 0.000000 0.000000 1.979010 
# 
# From -- ./inp_files/9797.got.cif
#   From: 2010.05.17/outbox.cif.g08.bks.cpg/sg60_5_cif.got.tgz:9797.got - 2010.06.03 14:59:27.
