data_PCOD9456509
_publ_section_title
;
Structure prediction by ZEFSAII (Michael W. Deem and Ramdas Pophale) SiO2 
 PCOD9456509
Probable space group: P B C N
;
_chemical_formula_sum "Si O2"
_cell_formula_units_Z 40
_cell_length_a 7.239617
_cell_length_b 24.991921
_cell_length_c 10.817841
_cell_angle_alpha 90.000000
_cell_angle_beta 90.000000
_cell_angle_gamma 90.000000
_cell_volume 1957.292917
_symmetry_space_group_name_H-M "P B C N"
_symmetry_group_IT_number 60
_symmetry_cell_setting 'orthorhombic'
loop_
_space_group_symop_operation_xyz
x,y,z
1/2-x,1/2-y,1/2+z
1/2+x,1/2-y,-z
-x,y,1/2-z
-x,-y,-z
1/2+x,1/2+y,1/2-z
1/2-x,1/2+y,z
x,-y,1/2+z
loop_
_atom_site_type_symbol
_atom_site_label
_atom_site_fract_x
_atom_site_fract_y
_atom_site_fract_z
Si Si1 0.136247 0.051323 0.869435
Si Si2 0.945042 0.784598 0.112226
Si Si3 0.781825 0.327086 0.553708
Si Si4 0.900426 0.067697 0.119304
Si Si5 0.905112 0.353327 0.127663
O O1 0.306959 0.090515 0.846269
O O2 0.000000 0.054841 0.750000
O O3 0.199215 0.990043 0.892048
O O4 0.027675 0.069540 0.994860
O O5 0.891488 0.722193 0.113723
O O6 0.758274 0.815784 0.078452
O O7 0.000000 0.802188 0.250000
O O8 0.111339 0.800551 0.021726
O O9 0.704801 0.376220 0.631722
O O10 0.927303 0.356216 0.465375
O O11 0.000000 0.062062 0.250000
O O12 0.000000 0.329466 0.250000
#
# Coordination Sequence:
#
# PCOD9456509 Si02
#       5
#     8   8   8   8   8
#     4  10  21  43  70  99 136 177 222 276 334 405
#     4  12  25  43  63  96 133 173 231 279 338 397
#     4  12  25  41  66  97 132 176 222 282 338 404
#     4  10  23  42  69  99 138 178 216 278 346 398
#     4  12  23  39  71  98 127 175 232 283 328 401
#
# _framework density 20.436388999999998
#
# number of rings (size 3 to 8) (size 9 to 14) (size 15 to 20)
#    0.000    0.800    6.000    1.800    0.000    4.800 
#    0.000    1.000    0.000    0.000    0.000    0.000 
#    0.000    0.000    0.000    0.000    0.000    0.000 
#
# Total GULP energy -223161.568456 kJ/mol
# GULP energy per Si atom -5579.039211 kJ/mol
# Density = 2.038987 g / cm^3
# Si number density = 20.436389 Si / 1000 Ang^3
#
#
#
# Elastic Constant Matrix: (Units=GPa)
#
#
# Indices 1 2 3 4 5 6 
#
# 1 92.2997 35.7643 13.8974 0.0000 0.0000 0.0000
# 2 35.7643 137.0506 -5.2357 0.0000 0.0000 0.0000
# 3 13.8974 -5.2357 65.4108 0.0000 0.0000 0.0000
# 4 0.0000 0.0000 0.0000 30.1199 0.0000 0.0000
# 5 0.0000 0.0000 0.0000 0.0000 23.0185 0.0000
# 6 0.0000 0.0000 0.0000 0.0000 0.0000 21.3403
#
#
#
# Elastic Compliance Matrix: (Units=1/GPa)
#
#
# Indices 1 2 3 4 5 6 
#
# 1 0.012595 -0.003399 -0.002948 0.000000 0.000000 0.000000
# 2 -0.003399 0.008236 0.001382 0.000000 0.000000 0.000000
# 3 -0.002948 0.001382 0.016025 0.000000 0.000000 0.000000
# 4 0.000000 0.000000 0.000000 0.033201 0.000000 0.000000
# 5 0.000000 0.000000 0.000000 0.000000 0.043443 0.000000
# 6 0.000000 0.000000 0.000000 0.000000 0.000000 0.046860
#
#
# Mechanical properties :
#
#
# Convention : Reuss Voigt Hill
#
# Bulk Modulus (GPa) = 37.14074 42.62367 39.88220
# Shear Modulus (GPa) = 27.89128 31.58476 29.73802
#
# Velocity S-wave (km/s) = 3.69831 3.93557 3.81878
# Velocity P-wave (km/s) = 6.03738 6.44621 6.24514
#
# Compressibility (1/GPa) = 0.02692461
#
# Stress axis : x y z
#
# Youngs Moduli (GPa) = 79.39403 121.41120 62.40265
#
# Poissons Ratio (x) = 0.41274 0.18397
# Poissons Ratio (y) = 0.26990 -0.08621
# Poissons Ratio (z) = 0.23407 -0.16773
#
# Static dielectric constant tensor:
#      x y z
#    x 1.853810 0.000000 0.000000 
#    y 0.000000 1.746730 0.000000 
#    z 0.000000 0.000000 1.837150 
# 
# From -- ./inp_files/9049.got.cif
#   From: 2010.05.17/outbox.cif.g08.bks.cpg/sg60_5_cif.got.tgz:9049.got - 2010.06.03 14:59:27.
