data_PCOD9456947
_publ_section_title
;
Structure prediction by ZEFSAII (Michael W. Deem and Ramdas Pophale) SiO2 
 PCOD9456947
Probable space group: P B C N
;
_chemical_formula_sum "Si O2"
_cell_formula_units_Z 32
_cell_length_a 17.942561
_cell_length_b 4.922727
_cell_length_c 15.904425
_cell_angle_alpha 90.000000
_cell_angle_beta 90.000000
_cell_angle_gamma 90.000000
_cell_volume 1404.779483
_symmetry_space_group_name_H-M "P B C N"
_symmetry_group_IT_number 60
_symmetry_cell_setting 'orthorhombic'
loop_
_space_group_symop_operation_xyz
x,y,z
1/2-x,1/2-y,1/2+z
1/2+x,1/2-y,-z
-x,y,1/2-z
-x,-y,-z
1/2+x,1/2+y,1/2-z
1/2-x,1/2+y,z
x,-y,1/2+z
loop_
_atom_site_type_symbol
_atom_site_label
_atom_site_fract_x
_atom_site_fract_y
_atom_site_fract_z
Si Si1 0.700992 0.107695 0.529623
Si Si2 0.443708 0.139216 0.674967
Si Si3 0.797442 0.377422 0.230187
Si Si4 0.443424 0.346774 0.062292
O O1 0.770435 0.306868 0.509071
O O2 0.687251 0.111271 0.630143
O O3 0.628025 0.218854 0.484087
O O4 0.500000 0.201537 0.750000
O O5 0.367973 0.032121 0.716729
O O6 0.424075 0.413913 0.626636
O O7 0.476890 0.908986 0.613456
O O8 0.728229 0.573085 0.248641
O O9 0.500000 0.500000 0.000000
#
# Coordination Sequence:
#
# PCOD9456947 Si02
#       4
#     8   8   8   8
#     4  10  22  41  66  95 129 167 208 260 323 386
#     4  12  26  43  66  94 129 171 217 268 320 384
#     4  10  22  41  65  93 127 165 206 258 319 380
#     4  12  26  43  66  94 130 171 216 268 321 384
#
# _framework density 22.779378000000001
#
# number of rings (size 3 to 8) (size 9 to 14) (size 15 to 20)
#    0.000    1.000    0.000    6.000    0.000   12.000 
#    0.000    0.000    0.000    0.000    0.000    0.000 
#    0.000    0.000    0.000    0.000    0.000    0.000 
#
# Total GULP energy -179156.976336 kJ/mol
# GULP energy per Si atom -5598.655511 kJ/mol
# Density = 2.272753 g / cm^3
# Si number density = 22.779378 Si / 1000 Ang^3
#
#
#
# Elastic Constant Matrix: (Units=GPa)
#
#
# Indices 1 2 3 4 5 6 
#
# 1 57.2429 -15.1181 47.0604 0.0000 0.0000 0.0000
# 2 -15.1181 97.8242 30.8593 0.0000 0.0000 0.0000
# 3 47.0604 30.8593 76.2799 0.0000 0.0000 0.0000
# 4 0.0000 0.0000 0.0000 -14.8324 0.0000 0.0000
# 5 0.0000 0.0000 0.0000 0.0000 29.7456 0.0000
# 6 0.0000 0.0000 0.0000 0.0000 0.0000 33.6793
#
#
#
# Elastic Compliance Matrix: (Units=1/GPa)
#
#
# Indices 1 2 3 4 5 6 
#
# 1 0.068783 0.027530 -0.053572 0.000000 0.000000 0.000000
# 2 0.027530 0.022736 -0.026182 0.000000 0.000000 0.000000
# 3 -0.053572 -0.026182 0.056753 0.000000 0.000000 0.000000
# 4 0.000000 0.000000 0.000000 -0.067420 0.000000 0.000000
# 5 0.000000 0.000000 0.000000 0.000000 0.033618 0.000000
# 6 0.000000 0.000000 0.000000 0.000000 0.000000 0.029692
#
#
# Mechanical properties :
#
#
# Convention : Reuss Voigt Hill
#
# Bulk Modulus (GPa) = 22.81954 39.66112 31.24033
# Shear Modulus (GPa) = 18.99551 20.95486 19.97519
#
# Velocity S-wave (km/s) = 2.89085 3.03628 2.96446
# Velocity P-wave (km/s) = 4.60240 5.45351 5.04593
#
# Compressibility (1/GPa) = 0.04382210
#
# Stress axis : x y z
#
# Youngs Moduli (GPa) = 14.53849 43.98246 17.62023
#
# Poissons Ratio (x) = -1.21082 0.94396
# Poissons Ratio (y) = -0.40024 0.46134
# Poissons Ratio (z) = 0.77886 1.15156
#
# Static dielectric constant tensor:
#      x y z
#    x 1.804440 0.000000 0.000000 
#    y 0.000000 1.806120 0.000000 
#    z 0.000000 0.000000 1.866650 
# 
# From -- ./inp_files/17110.got.cif
#   From: 2010.05.17/outbox.cif.g08.bks.cpg/sg60_9_cif.got.tgz:17110.got - 2010.06.03 14:59:27.
