data_PCOD9456089
_publ_section_title
;
Structure prediction by ZEFSAII (Michael W. Deem and Ramdas Pophale) SiO2 
 PCOD9456089
Probable space group: P B C N
;
_chemical_formula_sum "Si O2"
_cell_formula_units_Z 44
_cell_length_a 19.578874
_cell_length_b 10.412826
_cell_length_c 9.009848
_cell_angle_alpha 90.000000
_cell_angle_beta 90.000000
_cell_angle_gamma 90.000000
_cell_volume 1836.850400
_symmetry_space_group_name_H-M "P B C N"
_symmetry_group_IT_number 60
_symmetry_cell_setting 'orthorhombic'
loop_
_space_group_symop_operation_xyz
x,y,z
1/2-x,1/2-y,1/2+z
1/2+x,1/2-y,-z
-x,y,1/2-z
-x,-y,-z
1/2+x,1/2+y,1/2-z
1/2-x,1/2+y,z
x,-y,1/2+z
loop_
_atom_site_type_symbol
_atom_site_label
_atom_site_fract_x
_atom_site_fract_y
_atom_site_fract_z
Si Si1 0.500565 0.208526 0.923958
Si Si2 0.500000 0.457372 0.750000
Si Si3 0.636978 0.383665 0.308664
Si Si4 0.727600 0.509722 0.067466
Si Si5 0.439034 0.037817 0.363730
Si Si6 0.319013 0.896842 0.691004
O O1 0.500000 0.174333 0.750000
O O2 0.491993 0.361127 0.896064
O O3 0.449694 0.090270 0.963988
O O4 0.563847 0.162613 0.025417
O O5 0.433602 0.545216 0.728093
O O6 0.669611 0.435603 0.460206
O O7 0.637757 0.232004 0.326240
O O8 0.690699 0.412808 0.178306
O O9 0.782828 0.446569 0.956856
O O10 0.761480 0.612878 0.179207
O O11 0.500000 0.072138 0.250000
O O12 0.372769 0.007896 0.266245
#
# Coordination Sequence:
#
# PCOD9456089 Si02
#       6
#     8   4   8   8   8   8
#     4   8  20  40  61 104 140 182 223 289 357 413
#     4  10  24  44  76 104 146 188 222 310 360 430
#     4  11  25  48  72 107 145 186 240 284 376 428
#     4  10  26  49  69 103 142 196 233 300 351 431
#     4  10  21  38  66 103 139 183 239 296 344 410
#     4  11  25  45  74 103 140 187 249 293 356 428
#
# _framework density 23.954046999999999
#
# number of rings (size 3 to 8) (size 9 to 14) (size 15 to 20)
#    0.545    1.455    0.000    1.091   11.455    2.182 
#   13.091    0.000    0.000    0.000    0.000    0.000 
#    0.000    0.000    0.000    0.000    0.000    0.000 
#
# Total GULP energy -244997.546241 kJ/mol
# GULP energy per Si atom -5568.126051 kJ/mol
# Density = 2.389953 g / cm^3
# Si number density = 23.954047 Si / 1000 Ang^3
#
#
#
# Elastic Constant Matrix: (Units=GPa)
#
#
# Indices 1 2 3 4 5 6 
#
# 1 92.2896 45.1962 34.5692 0.0000 0.0000 0.0000
# 2 45.1962 142.8223 36.1084 0.0000 0.0000 0.0000
# 3 34.5692 36.1084 152.1263 0.0000 0.0000 0.0000
# 4 0.0000 0.0000 0.0000 16.0530 0.0000 0.0000
# 5 0.0000 0.0000 0.0000 0.0000 43.9424 0.0000
# 6 0.0000 0.0000 0.0000 0.0000 0.0000 17.8867
#
#
#
# Elastic Compliance Matrix: (Units=1/GPa)
#
#
# Indices 1 2 3 4 5 6 
#
# 1 0.013469 -0.003711 -0.002180 0.000000 0.000000 0.000000
# 2 -0.003711 0.008471 -0.001167 0.000000 0.000000 0.000000
# 3 -0.002180 -0.001167 0.007346 0.000000 0.000000 0.000000
# 4 0.000000 0.000000 0.000000 0.062294 0.000000 0.000000
# 5 0.000000 0.000000 0.000000 0.000000 0.022757 0.000000
# 6 0.000000 0.000000 0.000000 0.000000 0.000000 0.055907
#
#
# Mechanical properties :
#
#
# Convention : Reuss Voigt Hill
#
# Bulk Modulus (GPa) = 65.92149 68.77619 67.34884
# Shear Modulus (GPa) = 26.39659 33.66739 30.03199
#
# Velocity S-wave (km/s) = 3.32319 3.75307 3.54465
# Velocity P-wave (km/s) = 6.50419 6.89599 6.70296
#
# Compressibility (1/GPa) = 0.01516956
#
# Stress axis : x y z
#
# Youngs Moduli (GPa) = 74.24185 118.04582 136.12976
#
# Poissons Ratio (x) = 0.43810 0.29675
# Poissons Ratio (y) = 0.27553 0.15891
# Poissons Ratio (z) = 0.16184 0.13780
#
# Static dielectric constant tensor:
#      x y z
#    x 1.981310 0.000000 0.000000 
#    y 0.000000 2.015290 0.000000 
#    z 0.000000 0.000000 2.029840 
# 
# From -- ./inp_files/7821.got.cif
#   From: 2010.05.17/outbox.cif.g08.bks.cpg/sg60_4_cif.got.tgz:7821.got - 2010.06.03 14:59:27.
