data_PCOD9456594
_publ_section_title
;
Structure prediction by ZEFSAII (Michael W. Deem and Ramdas Pophale) SiO2 
 PCOD9456594
Probable space group: P B C N
;
_chemical_formula_sum "Si O2"
_cell_formula_units_Z 64
_cell_length_a 22.935858
_cell_length_b 14.457727
_cell_length_c 8.717942
_cell_angle_alpha 90.000000
_cell_angle_beta 90.000000
_cell_angle_gamma 90.000000
_cell_volume 2890.872823
_symmetry_space_group_name_H-M "P B C N"
_symmetry_group_IT_number 60
_symmetry_cell_setting 'orthorhombic'
loop_
_space_group_symop_operation_xyz
x,y,z
1/2-x,1/2-y,1/2+z
1/2+x,1/2-y,-z
-x,y,1/2-z
-x,-y,-z
1/2+x,1/2+y,1/2-z
1/2-x,1/2+y,z
x,-y,1/2+z
loop_
_atom_site_type_symbol
_atom_site_label
_atom_site_fract_x
_atom_site_fract_y
_atom_site_fract_z
Si Si1 0.386020 0.635521 0.863963
Si Si2 0.638750 0.518787 0.352278
Si Si3 0.544422 0.025452 0.635126
Si Si4 0.646897 0.111660 0.801579
Si Si5 0.248942 0.691018 0.899676
Si Si6 0.600255 0.168920 0.129606
Si Si7 0.212352 0.903995 0.913364
Si Si8 0.304011 0.080830 0.179133
O O1 0.396145 0.563440 0.728375
O O2 0.316595 0.666420 0.865108
O O3 0.422972 0.728349 0.850458
O O4 0.393037 0.580447 0.022292
O O5 0.662189 0.584267 0.215725
O O6 0.690329 0.462168 0.441885
O O7 0.500000 0.073396 0.750000
O O8 0.563682 0.921033 0.674469
O O9 0.500000 0.000000 0.500000
O O10 0.602537 0.087741 0.659948
O O11 0.703857 0.161775 0.734931
O O12 0.662904 0.011045 0.870678
O O13 0.619548 0.161468 0.950293
O O14 0.233132 0.798563 0.935357
O O15 0.232453 0.631552 0.049507
O O16 0.653176 0.155907 0.248278
O O17 0.265728 0.951523 0.824701
#
# Coordination Sequence:
#
# PCOD9456594 Si02
#       8
#     8   8   8   8   8   8   8   8
#     4  11  22  38  55  82 123 164 212 253 299 364
#     4  10  22  35  51  72 108 161 200 249 303 345
#     4  11  23  45  66  93 127 156 198 260 318 377
#     4  11  24  37  61  87 119 165 203 246 307 373
#     4  12  24  34  53  83 123 162 213 255 295 362
#     4  11  23  37  61  87 116 157 206 248 309 371
#     4  11  22  34  51  73 111 160 208 250 295 346
#     4  11  22  34  48  78 114 160 200 247 294 356
#
# _framework density 22.138643999999999
#
# number of rings (size 3 to 8) (size 9 to 14) (size 15 to 20)
#    0.000    1.000    3.750    4.500    5.250    0.000 
#    0.000    0.000    0.000    0.000    0.000    0.875 
#    0.000    0.000    0.000    0.000    0.000    0.000 
#
# Total GULP energy -357018.090427 kJ/mol
# GULP energy per Si atom -5578.407663 kJ/mol
# Density = 2.208826 g / cm^3
# Si number density = 22.138644 Si / 1000 Ang^3
#
#
#
# Elastic Constant Matrix: (Units=GPa)
#
#
# Indices 1 2 3 4 5 6 
#
# 1 16.9600 -6.0640 0.4127 0.0000 0.0000 0.0000
# 2 -6.0640 105.4136 7.1713 0.0000 0.0000 0.0000
# 3 0.4127 7.1713 64.4908 0.0000 0.0000 0.0000
# 4 0.0000 0.0000 0.0000 26.2104 0.0000 0.0000
# 5 0.0000 0.0000 0.0000 0.0000 19.3496 0.0000
# 6 0.0000 0.0000 0.0000 0.0000 0.0000 14.3156
#
#
#
# Elastic Compliance Matrix: (Units=1/GPa)
#
#
# Indices 1 2 3 4 5 6 
#
# 1 0.060239 0.003518 -0.000777 0.000000 0.000000 0.000000
# 2 0.003518 0.009764 -0.001108 0.000000 0.000000 0.000000
# 3 -0.000777 -0.001108 0.015634 0.000000 0.000000 0.000000
# 4 0.000000 0.000000 0.000000 0.038153 0.000000 0.000000
# 5 0.000000 0.000000 0.000000 0.000000 0.051681 0.000000
# 6 0.000000 0.000000 0.000000 0.000000 0.000000 0.069854
#
#
# Mechanical properties :
#
#
# Convention : Reuss Voigt Hill
#
# Bulk Modulus (GPa) = 11.24813 21.10050 16.17432
# Shear Modulus (GPa) = 18.40313 24.33142 21.36727
#
# Velocity S-wave (km/s) = 2.88630 3.31878 3.11007
# Velocity P-wave (km/s) = 4.02485 4.92316 4.49650
#
# Compressibility (1/GPa) = 0.08890369
#
# Stress axis : x y z
#
# Youngs Moduli (GPa) = 16.60057 102.41478 63.96198
#
# Poissons Ratio (x) = -0.36031 0.04968
# Poissons Ratio (y) = -0.05840 0.07089
# Poissons Ratio (z) = 0.01289 0.11350
#
# Static dielectric constant tensor:
#      x y z
#    x 1.883360 0.000000 0.000000 
#    y 0.000000 1.817080 0.000000 
#    z 0.000000 0.000000 1.882050 
# 
# From -- ./inp_files/7977.got.cif
#   From: 2010.05.17/outbox.cif.g08.bks.cpg/sg60_4_cif.got.tgz:7977.got - 2010.06.03 14:59:27.
