data_PCOD9456155
_publ_section_title
;
Structure prediction by ZEFSAII (Michael W. Deem and Ramdas Pophale) SiO2 
 PCOD9456155
Probable space group: P B C N
;
_chemical_formula_sum "Si O2"
_cell_formula_units_Z 48
_cell_length_a 29.463792
_cell_length_b 8.424978
_cell_length_c 8.059743
_cell_angle_alpha 90.000000
_cell_angle_beta 90.000000
_cell_angle_gamma 90.000000
_cell_volume 2000.684508
_symmetry_space_group_name_H-M "P B C N"
_symmetry_group_IT_number 60
_symmetry_cell_setting 'orthorhombic'
loop_
_space_group_symop_operation_xyz
x,y,z
1/2-x,1/2-y,1/2+z
1/2+x,1/2-y,-z
-x,y,1/2-z
-x,-y,-z
1/2+x,1/2+y,1/2-z
1/2-x,1/2+y,z
x,-y,1/2+z
loop_
_atom_site_type_symbol
_atom_site_label
_atom_site_fract_x
_atom_site_fract_y
_atom_site_fract_z
Si Si1 0.112431 0.615439 0.369373
Si Si2 0.138909 0.718149 0.002079
Si Si3 0.942935 0.121684 0.135779
Si Si4 0.778918 0.116452 0.131789
Si Si5 0.695747 0.720269 0.501362
Si Si6 0.968625 0.215591 0.507332
O O1 0.123972 0.675477 0.186567
O O2 0.127688 0.435450 0.392403
O O3 0.144079 0.722737 0.488685
O O4 0.059973 0.641874 0.415860
O O5 0.107494 0.857457 0.930007
O O6 0.190362 0.773925 0.987854
O O7 0.949605 0.178092 0.323189
O O8 0.977481 0.224038 0.020647
O O9 0.958181 0.940037 0.116755
O O10 0.789101 0.177172 0.316084
O O11 0.727231 0.141106 0.076790
O O12 0.794471 0.936052 0.109675
#
# Coordination Sequence:
#
# PCOD9456155 Si02
#       6
#     8   8   8   8   8   8
#     4  12  25  42  63  90 124 163 206 253 306 363
#     4  12  25  42  63  90 124 163 206 253 306 363
#     4  10  21  39  63  91 123 161 205 253 306 364
#     4  12  25  44  67  94 126 162 204 250 303 361
#     4  12  25  44  67  94 126 162 204 250 303 361
#     4  10  21  39  63  91 123 161 205 253 306 364
#
# _framework density 23.991786999999999
#
# number of rings (size 3 to 8) (size 9 to 14) (size 15 to 20)
#    0.000    0.667    0.000    9.000    0.000    2.667 
#    0.000    0.000    0.000    0.000    0.000    0.000 
#    0.000    0.000    0.000    0.000    0.000    0.000 
#
# Total GULP energy -269137.467077 kJ/mol
# GULP energy per Si atom -5607.030564 kJ/mol
# Density = 2.393718 g / cm^3
# Si number density = 23.991787 Si / 1000 Ang^3
#
#
#
# Elastic Constant Matrix: (Units=GPa)
#
#
# Indices 1 2 3 4 5 6 
#
# 1 74.4967 2.9317 -2.1576 0.0000 0.0000 0.0000
# 2 2.9317 61.8864 -18.2568 0.0000 0.0000 0.0000
# 3 -2.1576 -18.2568 99.1978 0.0000 0.0000 0.0000
# 4 0.0000 0.0000 0.0000 24.2350 0.0000 0.0000
# 5 0.0000 0.0000 0.0000 0.0000 31.3723 0.0000
# 6 0.0000 0.0000 0.0000 0.0000 0.0000 13.9481
#
#
#
# Elastic Compliance Matrix: (Units=1/GPa)
#
#
# Indices 1 2 3 4 5 6 
#
# 1 0.013452 -0.000583 0.000185 0.000000 0.000000 0.000000
# 2 -0.000583 0.017112 0.003137 0.000000 0.000000 0.000000
# 3 0.000185 0.003137 0.010662 0.000000 0.000000 0.000000
# 4 0.000000 0.000000 0.000000 0.041263 0.000000 0.000000
# 5 0.000000 0.000000 0.000000 0.000000 0.031875 0.000000
# 6 0.000000 0.000000 0.000000 0.000000 0.000000 0.071695
#
#
# Mechanical properties :
#
#
# Convention : Reuss Voigt Hill
#
# Bulk Modulus (GPa) = 21.41131 22.29061 21.85096
# Shear Modulus (GPa) = 25.49108 30.78199 28.13653
#
# Velocity S-wave (km/s) = 3.26312 3.58582 3.42827
# Velocity P-wave (km/s) = 4.81052 5.14346 4.97977
#
# Compressibility (1/GPa) = 0.04670429
#
# Stress axis : x y z
#
# Youngs Moduli (GPa) = 74.33999 58.44006 93.78950
#
# Poissons Ratio (x) = 0.03404 -0.01739
# Poissons Ratio (y) = 0.04331 -0.29418
# Poissons Ratio (z) = -0.01378 -0.18330
#
# Static dielectric constant tensor:
#      x y z
#    x 1.861140 0.000000 0.000000 
#    y 0.000000 1.873860 0.000000 
#    z 0.000000 0.000000 1.894860 
# 
# From -- ./inp_files/8396.got.cif
#   From: 2010.05.17/outbox.cif.g08.bks.cpg/sg60_5_cif.got.tgz:8396.got - 2010.06.03 14:59:27.
