data_PCOD9456189
_publ_section_title
;
Structure prediction by ZEFSAII (Michael W. Deem and Ramdas Pophale) SiO2 
 PCOD9456189
Probable space group: P B C N
;
_chemical_formula_sum "Si O2"
_cell_formula_units_Z 48
_cell_length_a 9.363517
_cell_length_b 10.521500
_cell_length_c 18.712080
_cell_angle_alpha 90.000000
_cell_angle_beta 90.000000
_cell_angle_gamma 90.000000
_cell_volume 1843.481265
_symmetry_space_group_name_H-M "P B C N"
_symmetry_group_IT_number 60
_symmetry_cell_setting 'orthorhombic'
loop_
_space_group_symop_operation_xyz
x,y,z
1/2-x,1/2-y,1/2+z
1/2+x,1/2-y,-z
-x,y,1/2-z
-x,-y,-z
1/2+x,1/2+y,1/2-z
1/2-x,1/2+y,z
x,-y,1/2+z
loop_
_atom_site_type_symbol
_atom_site_label
_atom_site_fract_x
_atom_site_fract_y
_atom_site_fract_z
Si Si1 0.500000 0.089022 0.750000
Si Si2 0.317038 0.842816 0.912013
Si Si3 0.235065 0.798907 0.754184
Si Si4 0.629442 0.877265 0.027184
Si Si5 0.851960 0.462936 0.398728
Si Si6 0.934217 0.818767 0.364473
Si Si7 0.000000 0.002935 0.250000
O O1 0.631483 0.180418 0.727306
O O2 0.569838 0.026464 0.821222
O O3 0.298526 0.849854 0.826871
O O4 0.198033 0.752629 0.946575
O O5 0.316012 0.988536 0.937606
O O6 0.959856 0.744609 0.083644
O O7 0.353066 0.760534 0.697359
O O8 0.129552 0.907823 0.726201
O O9 0.464711 0.881586 0.053674
O O10 0.664322 0.908730 0.944350
O O11 0.699327 0.395597 0.396502
O O12 0.032344 0.916193 0.318235
#
# Coordination Sequence:
#
# PCOD9456189 Si02
#       7
#     4   8   8   8   8   8   4
#     4   9  18  42  73  98 138 183 249 304 368 431
#     4  12  24  46  71 108 151 200 247 317 380 466
#     4  10  21  39  66 105 141 189 243 309 374 443
#     4  11  27  48  74 107 154 199 255 308 391 462
#     4  10  24  47  73 106 142 200 250 313 378 461
#     4  11  24  44  69 108 145 190 259 311 381 452
#     4  11  22  40  67 108 152 185 247 326 378 437
#
# _framework density 26.037693000000001
#
# number of rings (size 3 to 8) (size 9 to 14) (size 15 to 20)
#    0.000    1.333    3.333    1.000    2.333    3.333 
#    6.000    0.000    0.000    0.000    0.000    0.000 
#    0.000    0.000    0.000    0.000    0.000    0.000 
#
# Total GULP energy -268683.755499 kJ/mol
# GULP energy per Si atom -5597.578240 kJ/mol
# Density = 2.597843 g / cm^3
# Si number density = 26.037693 Si / 1000 Ang^3
#
#
#
# Elastic Constant Matrix: (Units=GPa)
#
#
# Indices 1 2 3 4 5 6 
#
# 1 74.3215 -4.9492 -23.3315 0.0000 0.0000 0.0000
# 2 -4.9492 46.1510 -25.1993 0.0000 0.0000 0.0000
# 3 -23.3315 -25.1993 89.0409 0.0000 0.0000 0.0000
# 4 0.0000 0.0000 0.0000 33.8606 0.0000 0.0000
# 5 0.0000 0.0000 0.0000 0.0000 34.6307 0.0000
# 6 0.0000 0.0000 0.0000 0.0000 0.0000 35.5767
#
#
#
# Elastic Compliance Matrix: (Units=1/GPa)
#
#
# Indices 1 2 3 4 5 6 
#
# 1 0.015435 0.004570 0.005338 0.000000 0.000000 0.000000
# 2 0.004570 0.026981 0.008833 0.000000 0.000000 0.000000
# 3 0.005338 0.008833 0.015129 0.000000 0.000000 0.000000
# 4 0.000000 0.000000 0.000000 0.029533 0.000000 0.000000
# 5 0.000000 0.000000 0.000000 0.000000 0.028876 0.000000
# 6 0.000000 0.000000 0.000000 0.000000 0.000000 0.028108
#
#
# Mechanical properties :
#
#
# Convention : Reuss Voigt Hill
#
# Bulk Modulus (GPa) = 10.52331 11.39483 10.95907
# Shear Modulus (GPa) = 36.16455 38.34650 37.25552
#
# Velocity S-wave (km/s) = 3.73088 3.84178 3.78674
# Velocity P-wave (km/s) = 4.75496 4.90559 4.83086
#
# Compressibility (1/GPa) = 0.09502709
#
# Stress axis : x y z
#
# Youngs Moduli (GPa) = 64.78774 37.06281 66.09674
#
# Poissons Ratio (x) = -0.16937 -0.35281
# Poissons Ratio (y) = -0.29606 -0.58385
# Poissons Ratio (z) = -0.34582 -0.32739
#
# Static dielectric constant tensor:
#      x y z
#    x 2.064000 0.000000 0.000000 
#    y 0.000000 2.080600 0.000000 
#    z 0.000000 0.000000 2.132240 
# 
# From -- ./inp_files/20051.got.cif
#   From: 2010.05.17/outbox.cif.g08.bks.cpg/sg60_11_cif.got.tgz:20051.got - 2010.06.03 14:59:27.
