data_PCOD9456803
_publ_section_title
;
Structure prediction by ZEFSAII (Michael W. Deem and Ramdas Pophale) SiO2 
 PCOD9456803
Probable space group: P B C N
;
_chemical_formula_sum "Si O2"
_cell_formula_units_Z 52
_cell_length_a 28.274705
_cell_length_b 10.538538
_cell_length_c 8.856696
_cell_angle_alpha 90.000000
_cell_angle_beta 90.000000
_cell_angle_gamma 90.000000
_cell_volume 2639.065604
_symmetry_space_group_name_H-M "P B C N"
_symmetry_group_IT_number 60
_symmetry_cell_setting 'orthorhombic'
loop_
_space_group_symop_operation_xyz
x,y,z
1/2-x,1/2-y,1/2+z
1/2+x,1/2-y,-z
-x,y,1/2-z
-x,-y,-z
1/2+x,1/2+y,1/2-z
1/2-x,1/2+y,z
x,-y,1/2+z
loop_
_atom_site_type_symbol
_atom_site_label
_atom_site_fract_x
_atom_site_fract_y
_atom_site_fract_z
Si Si1 0.141132 0.012632 0.393897
Si Si2 0.000000 0.441499 0.750000
Si Si3 0.313195 0.671363 0.644817
Si Si4 0.882115 0.173086 0.365785
Si Si5 0.296984 0.840148 0.179564
Si Si6 0.660433 0.927526 0.999889
Si Si7 0.565697 0.084769 0.988031
O O1 0.110161 0.935423 0.512200
O O2 0.179619 0.089133 0.492104
O O3 0.163574 0.912050 0.277506
O O4 0.111704 0.114640 0.298726
O O5 0.962088 0.374921 0.639806
O O6 0.030358 0.523781 0.632698
O O7 0.258175 0.689090 0.679923
O O8 0.337511 0.807485 0.613892
O O9 0.827217 0.218270 0.372425
O O10 0.911240 0.295574 0.407002
O O11 0.317045 0.880603 0.343202
O O12 0.309053 0.957260 0.069228
O O13 0.607804 0.984284 0.023306
#
# Coordination Sequence:
#
# PCOD9456803 Si02
#       7
#     8   4   8   8   8   8   8
#     4  10  23  39  56  86 115 179 200 257 291 363
#     4  10  22  40  72 100 120 148 192 274 336 398
#     4  11  24  37  58  84 125 169 223 250 300 353
#     4  10  22  40  60  86 127 160 214 250 307 379
#     4  11  24  36  57  88 125 168 216 266 301 349
#     4  11  24  39  62  90 126 171 205 270 307 373
#     4  10  22  42  67 101 121 154 204 261 340 378
#
# _framework density 19.703942999999999
#
# number of rings (size 3 to 8) (size 9 to 14) (size 15 to 20)
#    0.000    1.538    1.538    2.769   12.923    0.000 
#    0.000    0.000    0.000    2.769    0.000    0.000 
#    0.000    0.000    0.000    0.000    0.000    0.000 
#
# Total GULP energy -290426.291330 kJ/mol
# GULP energy per Si atom -5585.120987 kJ/mol
# Density = 1.965910 g / cm^3
# Si number density = 19.703943 Si / 1000 Ang^3
#
#
#
# Elastic Constant Matrix: (Units=GPa)
#
#
# Indices 1 2 3 4 5 6 
#
# 1 59.9717 5.7024 12.6743 0.0000 0.0000 0.0000
# 2 5.7024 69.5768 11.2682 0.0000 0.0000 0.0000
# 3 12.6743 11.2682 92.0767 0.0000 0.0000 0.0000
# 4 0.0000 0.0000 0.0000 31.1885 0.0000 0.0000
# 5 0.0000 0.0000 0.0000 0.0000 24.3530 0.0000
# 6 0.0000 0.0000 0.0000 0.0000 0.0000 -5.2399
#
#
#
# Elastic Compliance Matrix: (Units=1/GPa)
#
#
# Indices 1 2 3 4 5 6 
#
# 1 0.017249 -0.001050 -0.002246 0.000000 0.000000 0.000000
# 2 -0.001050 0.014727 -0.001658 0.000000 0.000000 0.000000
# 3 -0.002246 -0.001658 0.011373 0.000000 0.000000 0.000000
# 4 0.000000 0.000000 0.000000 0.032063 0.000000 0.000000
# 5 0.000000 0.000000 0.000000 0.000000 0.041063 0.000000
# 6 0.000000 0.000000 0.000000 0.000000 0.000000 -0.190844
#
#
# Mechanical properties :
#
#
# Convention : Reuss Voigt Hill
#
# Bulk Modulus (GPa) = 29.90292 31.21278 30.55785
# Shear Modulus (GPa) = -93.78233 22.85900 -35.46166
#
# Velocity S-wave (km/s) = -6.90645 3.40975 -4.24692
# Velocity P-wave (km/s) = 6.95627 5.60153 2.91655
#
# Compressibility (1/GPa) = 0.03344155
#
# Stress axis : x y z
#
# Youngs Moduli (GPa) = 57.97434 67.90182 87.93121
#
# Poissons Ratio (x) = 0.07130 0.19748
# Poissons Ratio (y) = 0.06087 0.14577
# Poissons Ratio (z) = 0.13020 0.11257
#
# Static dielectric constant tensor:
#      x y z
#    x 1.676900 0.000000 0.000000 
#    y 0.000000 1.689420 0.000000 
#    z 0.000000 0.000000 1.731260 
# 
# From -- ./inp_files/8144.got.cif
#   From: 2010.05.17/outbox.cif.g08.bks.cpg/sg60_5_cif.got.tgz:8144.got - 2010.06.03 14:59:27.
