data_PCOD9456634
_publ_section_title
;
Structure prediction by ZEFSAII (Michael W. Deem and Ramdas Pophale) SiO2 
 PCOD9456634
Probable space group: P B C N
;
_chemical_formula_sum "Si O2"
_cell_formula_units_Z 64
_cell_length_a 27.018223
_cell_length_b 5.350060
_cell_length_c 21.454845
_cell_angle_alpha 90.000000
_cell_angle_beta 90.000000
_cell_angle_gamma 90.000000
_cell_volume 3101.278839
_symmetry_space_group_name_H-M "P B C N"
_symmetry_group_IT_number 60
_symmetry_cell_setting 'orthorhombic'
loop_
_space_group_symop_operation_xyz
x,y,z
1/2-x,1/2-y,1/2+z
1/2+x,1/2-y,-z
-x,y,1/2-z
-x,-y,-z
1/2+x,1/2+y,1/2-z
1/2-x,1/2+y,z
x,-y,1/2+z
loop_
_atom_site_type_symbol
_atom_site_label
_atom_site_fract_x
_atom_site_fract_y
_atom_site_fract_z
Si Si1 0.433905 0.475755 0.933186
Si Si2 0.441130 0.983122 0.006426
Si Si3 0.729568 0.442468 0.833286
Si Si4 0.380419 0.386765 0.183742
Si Si5 0.883834 0.195945 0.187327
Si Si6 0.550346 0.992619 0.760988
Si Si7 0.229074 0.826764 0.813604
Si Si8 0.460245 0.310127 0.621450
O O1 0.426658 0.740051 0.966287
O O2 0.400952 0.459688 0.871671
O O3 0.491043 0.428256 0.910638
O O4 0.421178 0.242623 0.978917
O O5 0.436356 0.904233 0.078134
O O6 0.500000 0.000000 0.000000
O O7 0.765309 0.660703 0.859596
O O8 0.675540 0.568004 0.836603
O O9 0.739933 0.382104 0.759840
O O10 0.385827 0.543092 0.248181
O O11 0.402064 0.122315 0.204294
O O12 0.418266 0.486687 0.132700
O O13 0.924389 0.412059 0.197691
O O14 0.826865 0.271209 0.180479
O O15 0.500000 0.831512 0.750000
O O16 0.529545 0.197048 0.810004
O O17 0.263465 0.606227 0.839970
#
# Coordination Sequence:
#
# PCOD9456634 Si02
#       8
#     8   8   8   8   8   8   8   8
#     4  11  23  38  60  81 114 156 192 242 281 333
#     4  10  23  39  58  81 108 154 204 243 278 314
#     4   9  19  35  53  77 111 142 188 233 280 334
#     4  10  24  32  57  83 114 159 185 231 287 353
#     4  10  23  36  53  87 119 151 196 227 292 358
#     4  11  23  35  53  82 127 161 186 224 289 348
#     4   9  19  33  55  79 110 148 184 237 285 336
#     4  10  22  37  53  81 116 151 197 232 274 340
#
# _framework density 20.636648999999998
#
# number of rings (size 3 to 8) (size 9 to 14) (size 15 to 20)
#    0.000    2.000    1.250    1.500   19.250    0.000 
#    0.000    0.000    0.000    0.000    0.000    5.250 
#    0.000    0.000    0.000    0.000    0.000    0.000 
#
# Total GULP energy -356514.332047 kJ/mol
# GULP energy per Si atom -5570.536438 kJ/mol
# Density = 2.058968 g / cm^3
# Si number density = 20.636649 Si / 1000 Ang^3
#
#
#
# Elastic Constant Matrix: (Units=GPa)
#
#
# Indices 1 2 3 4 5 6 
#
# 1 71.8945 19.9963 2.5289 0.0000 0.0000 0.0000
# 2 19.9963 88.0538 4.2413 0.0000 0.0000 0.0000
# 3 2.5289 4.2413 50.1098 0.0000 0.0000 0.0000
# 4 0.0000 0.0000 0.0000 7.4572 0.0000 0.0000
# 5 0.0000 0.0000 0.0000 0.0000 4.3361 0.0000
# 6 0.0000 0.0000 0.0000 0.0000 0.0000 20.6018
#
#
#
# Elastic Compliance Matrix: (Units=1/GPa)
#
#
# Indices 1 2 3 4 5 6 
#
# 1 0.014858 -0.003352 -0.000466 0.000000 0.000000 0.000000
# 2 -0.003352 0.012159 -0.000860 0.000000 0.000000 0.000000
# 3 -0.000466 -0.000860 0.020053 0.000000 0.000000 0.000000
# 4 0.000000 0.000000 0.000000 0.134099 0.000000 0.000000
# 5 0.000000 0.000000 0.000000 0.000000 0.230623 0.000000
# 6 0.000000 0.000000 0.000000 0.000000 0.000000 0.048539
#
#
# Mechanical properties :
#
#
# Convention : Reuss Voigt Hill
#
# Bulk Modulus (GPa) = 26.51536 29.28790 27.90163
# Shear Modulus (GPa) = 10.36790 18.69844 14.53317
#
# Velocity S-wave (km/s) = 2.24386 3.01338 2.65663
# Velocity P-wave (km/s) = 4.42604 5.13130 4.79166
#
# Compressibility (1/GPa) = 0.03771400
#
# Stress axis : x y z
#
# Youngs Moduli (GPa) = 67.30433 82.24188 49.86908
#
# Poissons Ratio (x) = 0.27565 0.02325
# Poissons Ratio (y) = 0.22558 0.04289
# Poissons Ratio (z) = 0.03137 0.07073
#
# Static dielectric constant tensor:
#      x y z
#    x 1.743570 0.000000 0.000000 
#    y 0.000000 1.968640 0.000000 
#    z 0.000000 0.000000 1.681810 
# 
# From -- ./inp_files/23351.got.cif
#   From: 2010.05.17/outbox.cif.g08.bks.cpg/sg60_12_cif.got.tgz:23351.got - 2010.06.03 14:59:27.
