data_PCOD9456788
_publ_section_title
;
Structure prediction by ZEFSAII (Michael W. Deem and Ramdas Pophale) SiO2 
 PCOD9456788
Probable space group: P B C N
;
_chemical_formula_sum "Si O2"
_cell_formula_units_Z 56
_cell_length_a 15.238593
_cell_length_b 10.176670
_cell_length_c 16.372356
_cell_angle_alpha 90.000000
_cell_angle_beta 90.000000
_cell_angle_gamma 90.000000
_cell_volume 2538.994389
_symmetry_space_group_name_H-M "P B C N"
_symmetry_group_IT_number 60
_symmetry_cell_setting 'orthorhombic'
loop_
_space_group_symop_operation_xyz
x,y,z
1/2-x,1/2-y,1/2+z
1/2+x,1/2-y,-z
-x,y,1/2-z
-x,-y,-z
1/2+x,1/2+y,1/2-z
1/2-x,1/2+y,z
x,-y,1/2+z
loop_
_atom_site_type_symbol
_atom_site_label
_atom_site_fract_x
_atom_site_fract_y
_atom_site_fract_z
Si Si1 0.433693 0.110952 0.089297
Si Si2 0.256504 0.515507 0.576685
Si Si3 0.998704 0.666965 0.927861
Si Si4 0.500000 0.740208 0.750000
Si Si5 0.190823 0.926592 0.748473
Si Si6 0.309180 0.693476 0.809502
Si Si7 0.000000 0.801298 0.750000
Si Si8 0.314989 0.260308 0.495795
O O1 0.340796 0.038932 0.096009
O O2 0.462058 0.184630 0.170618
O O3 0.501841 0.990112 0.082512
O O4 0.434798 0.191491 0.003699
O O5 0.305902 0.497941 0.661096
O O6 0.297457 0.411847 0.514640
O O7 0.250486 0.661609 0.542466
O O8 0.001563 0.722544 0.836138
O O9 0.908720 0.719451 0.967717
O O10 0.410547 0.675769 0.782917
O O11 0.252018 0.796240 0.755670
O O12 0.090757 0.880627 0.757252
O O13 0.225387 0.043343 0.807365
O O14 0.308699 0.755186 0.899376
#
# Coordination Sequence:
#
# PCOD9456788 Si02
#       8
#     8   8   8   4   8   8   4   8
#     4  10  22  39  67 102 137 186 234 291 349 426
#     4  11  23  43  71  97 138 186 236 293 352 425
#     4  10  22  42  66  99 141 181 236 289 355 419
#     4  12  22  42  68 102 143 184 231 292 359 418
#     4  12  27  47  71 105 143 191 242 292 365 426
#     4  12  27  46  71 106 143 186 236 299 357 436
#     4  12  26  46  70 106 145 194 241 302 357 436
#     4  11  23  45  67 101 137 183 238 291 356 426
#
# _framework density 22.055975
#
# number of rings (size 3 to 8) (size 9 to 14) (size 15 to 20)
#    0.000    0.857    4.286    2.571    4.000    1.143 
#    0.000    0.714    0.000    0.000    0.000    0.000 
#    0.000    0.000    0.000    0.000    0.000    0.000 
#
# Total GULP energy -312418.912988 kJ/mol
# GULP energy per Si atom -5578.909161 kJ/mol
# Density = 2.200577 g / cm^3
# Si number density = 22.055975 Si / 1000 Ang^3
#
#
#
# Elastic Constant Matrix: (Units=GPa)
#
#
# Indices 1 2 3 4 5 6 
#
# 1 55.7375 16.7226 -13.0511 0.0000 0.0000 0.0000
# 2 16.7226 70.3598 35.9989 0.0000 0.0000 0.0000
# 3 -13.0511 35.9989 121.3127 0.0000 0.0000 0.0000
# 4 0.0000 0.0000 0.0000 29.5247 0.0000 0.0000
# 5 0.0000 0.0000 0.0000 0.0000 25.9378 0.0000
# 6 0.0000 0.0000 0.0000 0.0000 0.0000 29.8260
#
#
#
# Elastic Compliance Matrix: (Units=1/GPa)
#
#
# Indices 1 2 3 4 5 6 
#
# 1 0.021175 -0.007308 0.004447 0.000000 0.000000 0.000000
# 2 -0.007308 0.019279 -0.006507 0.000000 0.000000 0.000000
# 3 0.004447 -0.006507 0.010652 0.000000 0.000000 0.000000
# 4 0.000000 0.000000 0.000000 0.033870 0.000000 0.000000
# 5 0.000000 0.000000 0.000000 0.000000 0.038554 0.000000
# 6 0.000000 0.000000 0.000000 0.000000 0.000000 0.033528
#
#
# Mechanical properties :
#
#
# Convention : Reuss Voigt Hill
#
# Bulk Modulus (GPa) = 30.89307 36.30565 33.59936
# Shear Modulus (GPa) = 26.79755 30.90700 28.85228
#
# Velocity S-wave (km/s) = 3.48944 3.74745 3.62074
# Velocity P-wave (km/s) = 5.50200 5.93472 5.72245
#
# Compressibility (1/GPa) = 0.03236972
#
# Stress axis : x y z
#
# Youngs Moduli (GPa) = 47.22562 51.87039 93.87490
#
# Poissons Ratio (x) = 0.37906 -0.41742
# Poissons Ratio (y) = 0.34511 0.61085
# Poissons Ratio (z) = -0.20999 0.33752
#
# Static dielectric constant tensor:
#      x y z
#    x 1.837950 0.000000 0.000000 
#    y 0.000000 1.826930 0.000000 
#    z 0.000000 0.000000 1.817420 
# 
# From -- ./inp_files/16894.got.cif
#   From: 2010.05.17/outbox.cif.g08.bks.cpg/sg60_9_cif.got.tgz:16894.got - 2010.06.03 14:59:27.
