data_PCOD9456009
_publ_section_title
;
Structure prediction by ZEFSAII (Michael W. Deem and Ramdas Pophale) SiO2 
 PCOD9456009
Probable space group: P B C N
;
_chemical_formula_sum "Si O2"
_cell_formula_units_Z 52
_cell_length_a 17.826849
_cell_length_b 8.367921
_cell_length_c 14.240507
_cell_angle_alpha 90.000000
_cell_angle_beta 90.000000
_cell_angle_gamma 90.000000
_cell_volume 2124.308608
_symmetry_space_group_name_H-M "P B C N"
_symmetry_group_IT_number 60
_symmetry_cell_setting 'orthorhombic'
loop_
_space_group_symop_operation_xyz
x,y,z
1/2-x,1/2-y,1/2+z
1/2+x,1/2-y,-z
-x,y,1/2-z
-x,-y,-z
1/2+x,1/2+y,1/2-z
1/2-x,1/2+y,z
x,-y,1/2+z
loop_
_atom_site_type_symbol
_atom_site_label
_atom_site_fract_x
_atom_site_fract_y
_atom_site_fract_z
Si Si1 0.500000 0.328373 0.250000
Si Si2 0.113108 0.105886 0.282977
Si Si3 0.078246 0.324718 0.914791
Si Si4 0.208806 0.148184 0.596171
Si Si5 0.780278 0.159338 0.684965
Si Si6 0.873401 0.677183 0.565541
Si Si7 0.640658 0.707214 0.411696
O O1 0.568213 0.452648 0.254538
O O2 0.486410 0.223026 0.341887
O O3 0.081741 0.188326 0.375594
O O4 0.191534 0.025278 0.313275
O O5 0.115770 0.225739 0.195757
O O6 0.155832 0.262652 0.866450
O O7 0.083355 0.511490 0.935109
O O8 0.076437 0.227791 0.011865
O O9 0.217444 0.201881 0.704519
O O10 0.155031 0.259041 0.534108
O O11 0.294335 0.166792 0.561493
O O12 0.179332 0.967760 0.585338
O O13 0.701750 0.158670 0.630555
#
# Coordination Sequence:
#
# PCOD9456009 Si02
#       7
#     4   8   8   8   8   8   8
#     4  10  24  48  62  84 124 180 220 270 304 362
#     4  10  23  41  66  90 125 172 216 254 318 372
#     4  11  24  39  64  89 133 165 218 258 318 369
#     4  11  22  34  60  93 138 155 201 249 325 387
#     4  10  21  38  59  95 131 165 196 260 323 387
#     4  12  22  37  65  99 128 164 205 264 320 391
#     4  11  22  38  61  96 125 170 200 256 314 383
#
# _framework density 24.478553000000002
#
# number of rings (size 3 to 8) (size 9 to 14) (size 15 to 20)
#    0.000    1.231    3.077    3.692    2.154    2.462 
#    0.000    1.538    0.000   10.154    0.000    0.000 
#    0.000    0.000    0.000    0.000    0.000    0.000 
#
# Total GULP energy -290930.771449 kJ/mol
# GULP energy per Si atom -5594.822528 kJ/mol
# Density = 2.442284 g / cm^3
# Si number density = 24.478553 Si / 1000 Ang^3
#
#
#
# Elastic Constant Matrix: (Units=GPa)
#
#
# Indices 1 2 3 4 5 6 
#
# 1 54.7270 6.9428 19.8541 0.0000 0.0000 0.0000
# 2 6.9428 80.1730 30.3006 0.0000 0.0000 0.0000
# 3 19.8541 30.3006 128.0322 0.0000 0.0000 0.0000
# 4 0.0000 0.0000 0.0000 33.1336 0.0000 0.0000
# 5 0.0000 0.0000 0.0000 0.0000 41.4182 0.0000
# 6 0.0000 0.0000 0.0000 0.0000 0.0000 18.3074
#
#
#
# Elastic Compliance Matrix: (Units=1/GPa)
#
#
# Indices 1 2 3 4 5 6 
#
# 1 0.019388 -0.000596 -0.002865 0.000000 0.000000 0.000000
# 2 -0.000596 0.013717 -0.003154 0.000000 0.000000 0.000000
# 3 -0.002865 -0.003154 0.009001 0.000000 0.000000 0.000000
# 4 0.000000 0.000000 0.000000 0.030181 0.000000 0.000000
# 5 0.000000 0.000000 0.000000 0.000000 0.024144 0.000000
# 6 0.000000 0.000000 0.000000 0.000000 0.000000 0.054623
#
#
# Mechanical properties :
#
#
# Convention : Reuss Voigt Hill
#
# Bulk Modulus (GPa) = 34.63190 41.90304 38.26747
# Shear Modulus (GPa) = 28.75074 32.29414 30.52244
#
# Velocity S-wave (km/s) = 3.43086 3.63613 3.53499
# Velocity P-wave (km/s) = 5.46561 5.89780 5.68582
#
# Compressibility (1/GPa) = 0.02887511
#
# Stress axis : x y z
#
# Youngs Moduli (GPa) = 51.57920 72.90441 111.09544
#
# Poissons Ratio (x) = 0.04345 0.31834
# Poissons Ratio (y) = 0.03074 0.35037
# Poissons Ratio (z) = 0.14780 0.22993
#
# Static dielectric constant tensor:
#      x y z
#    x 2.088240 0.000000 0.000000 
#    y 0.000000 1.956070 0.000000 
#    z 0.000000 0.000000 1.976090 
# 
# From -- ./inp_files/17685.got.cif
#   From: 2010.05.17/outbox.cif.g08.bks.cpg/sg60_9_cif.got.tgz:17685.got - 2010.06.03 14:59:27.
