data_PCOD9456237
_publ_section_title
;
Structure prediction by ZEFSAII (Michael W. Deem and Ramdas Pophale) SiO2 
 PCOD9456237
Probable space group: P B C N
;
_chemical_formula_sum "Si O2"
_cell_formula_units_Z 40
_cell_length_a 22.099744
_cell_length_b 5.341794
_cell_length_c 13.348436
_cell_angle_alpha 90.000000
_cell_angle_beta 90.000000
_cell_angle_gamma 90.000000
_cell_volume 1575.813303
_symmetry_space_group_name_H-M "P B C N"
_symmetry_group_IT_number 60
_symmetry_cell_setting 'orthorhombic'
loop_
_space_group_symop_operation_xyz
x,y,z
1/2-x,1/2-y,1/2+z
1/2+x,1/2-y,-z
-x,y,1/2-z
-x,-y,-z
1/2+x,1/2+y,1/2-z
1/2-x,1/2+y,z
x,-y,1/2+z
loop_
_atom_site_type_symbol
_atom_site_label
_atom_site_fract_x
_atom_site_fract_y
_atom_site_fract_z
Si Si1 0.284344 0.363082 0.460704
Si Si2 0.442192 0.437743 0.201035
Si Si3 0.625088 0.929823 0.667714
Si Si4 0.064523 0.630544 0.015143
Si Si5 0.657649 0.812269 0.346187
O O1 0.264253 0.643864 0.438143
O O2 0.343509 0.278889 0.401031
O O3 0.295978 0.319733 0.579416
O O4 0.500000 0.566391 0.250000
O O5 0.429375 0.194728 0.269527
O O6 0.448713 0.371221 0.083750
O O7 0.382899 0.601769 0.204562
O O8 0.597578 0.135487 0.592014
O O9 0.673805 0.017971 0.751021
O O10 0.112634 0.475625 0.083356
O O11 0.000000 0.500000 0.000000
#
# Coordination Sequence:
#
# PCOD9456237 Si02
#       5
#     8   8   8   8   8
#     4  11  28  50  74 102 137 185 240 303 362 407
#     4  11  23  39  67 103 142 187 230 287 362 429
#     4  10  24  44  67  99 138 184 238 293 350 435
#     4  10  21  40  60  95 142 185 227 280 347 426
#     4  10  26  41  67 100 140 176 238 295 347 434
#
# _framework density 25.383717000000001
#
# number of rings (size 3 to 8) (size 9 to 14) (size 15 to 20)
#    0.000    1.600    2.000    0.000   14.000    4.000 
#    0.000    0.000    0.000    0.000    0.000    0.000 
#    0.000    0.000    0.000    0.000    0.000    0.000 
#
# Total GULP energy -223652.665276 kJ/mol
# GULP energy per Si atom -5591.316632 kJ/mol
# Density = 2.532594 g / cm^3
# Si number density = 25.383717 Si / 1000 Ang^3
#
#
#
# Elastic Constant Matrix: (Units=GPa)
#
#
# Indices 1 2 3 4 5 6 
#
# 1 40.5246 -0.7764 16.5562 0.0000 0.0000 0.0000
# 2 -0.7764 39.0479 19.8732 0.0000 0.0000 0.0000
# 3 16.5562 19.8732 150.6715 0.0000 0.0000 0.0000
# 4 0.0000 0.0000 0.0000 29.6659 0.0000 0.0000
# 5 0.0000 0.0000 0.0000 0.0000 40.1991 0.0000
# 6 0.0000 0.0000 0.0000 0.0000 0.0000 16.8850
#
#
#
# Elastic Compliance Matrix: (Units=1/GPa)
#
#
# Indices 1 2 3 4 5 6 
#
# 1 0.025998 0.002113 -0.003135 0.000000 0.000000 0.000000
# 2 0.002113 0.027624 -0.003876 0.000000 0.000000 0.000000
# 3 -0.003135 -0.003876 0.007493 0.000000 0.000000 0.000000
# 4 0.000000 0.000000 0.000000 0.033709 0.000000 0.000000
# 5 0.000000 0.000000 0.000000 0.000000 0.024876 0.000000
# 6 0.000000 0.000000 0.000000 0.000000 0.000000 0.059224
#
#
# Mechanical properties :
#
#
# Convention : Reuss Voigt Hill
#
# Bulk Modulus (GPa) = 19.48644 33.50553 26.49598
# Shear Modulus (GPa) = 24.29236 30.32277 27.30756
#
# Velocity S-wave (km/s) = 3.09691 3.46001 3.28348
# Velocity P-wave (km/s) = 4.52561 5.40283 4.98356
#
# Compressibility (1/GPa) = 0.05131774
#
# Stress axis : x y z
#
# Youngs Moduli (GPa) = 38.46483 36.20034 133.46379
#
# Poissons Ratio (x) = -0.07648 0.41846
# Poissons Ratio (y) = -0.08126 0.51726
# Poissons Ratio (z) = 0.12060 0.14030
#
# Static dielectric constant tensor:
#      x y z
#    x 2.054490 0.000000 0.000000 
#    y 0.000000 2.089320 0.000000 
#    z 0.000000 0.000000 1.979870 
# 
# From -- ./inp_files/13203.got.cif
#   From: 2010.05.17/outbox.cif.g08.bks.cpg/sg60_7_cif.got.tgz:13203.got - 2010.06.03 14:59:27.
