data_PCOD9456927
_publ_section_title
;
Structure prediction by ZEFSAII (Michael W. Deem and Ramdas Pophale) SiO2 
 PCOD9456927
Probable space group: P B C N
;
_chemical_formula_sum "Si O2"
_cell_formula_units_Z 56
_cell_length_a 21.410855
_cell_length_b 14.106302
_cell_length_c 8.775644
_cell_angle_alpha 90.000000
_cell_angle_beta 90.000000
_cell_angle_gamma 90.000000
_cell_volume 2650.490089
_symmetry_space_group_name_H-M "P B C N"
_symmetry_group_IT_number 60
_symmetry_cell_setting 'orthorhombic'
loop_
_space_group_symop_operation_xyz
x,y,z
1/2-x,1/2-y,1/2+z
1/2+x,1/2-y,-z
-x,y,1/2-z
-x,-y,-z
1/2+x,1/2+y,1/2-z
1/2-x,1/2+y,z
x,-y,1/2+z
loop_
_atom_site_type_symbol
_atom_site_label
_atom_site_fract_x
_atom_site_fract_y
_atom_site_fract_z
Si Si1 0.305381 0.713915 0.542507
Si Si2 0.323786 0.006130 0.365234
Si Si3 0.184101 0.188274 0.178389
Si Si4 0.000000 0.659399 0.250000
Si Si5 0.593588 0.827973 0.497083
Si Si6 0.000000 0.659425 0.750000
Si Si7 0.232020 0.993054 0.111261
Si Si8 0.911026 0.653844 0.496903
O O1 0.308962 0.707928 0.358439
O O2 0.246779 0.775189 0.596051
O O3 0.296087 0.611601 0.618179
O O4 0.367672 0.769856 0.584848
O O5 0.356594 0.102316 0.422183
O O6 0.255187 0.993851 0.438652
O O7 0.300581 0.003422 0.191909
O O8 0.369046 0.921389 0.413187
O O9 0.129036 0.245847 0.095440
O O10 0.184975 0.075557 0.156101
O O11 0.954017 0.606172 0.367076
O O12 0.046827 0.708522 0.370239
O O13 0.550429 0.882942 0.371075
O O14 0.045879 0.704807 0.875612
#
# Coordination Sequence:
#
# PCOD9456927 Si02
#       8
#     8   8   8   4   8   4   8   8
#     4  12  25  42  68  98 131 177 216 272 342 388
#     4  12  23  39  63  99 139 175 213 267 323 411
#     4  12  24  42  68  98 132 177 215 277 334 395
#     4  10  26  41  62  99 128 180 228 269 322 393
#     4  11  23  42  66  95 135 177 224 272 329 391
#     4  10  22  41  64  89 128 186 224 267 320 389
#     4  12  24  39  63 103 138 170 212 264 339 403
#     4  11  23  41  65  92 134 176 222 272 321 393
#
# _framework density 21.128167999999999
#
# number of rings (size 3 to 8) (size 9 to 14) (size 15 to 20)
#    0.000    0.571    5.714    2.571    2.000    3.429 
#    0.000    0.000    0.000    5.143    0.000    0.000 
#    0.000    0.000    0.000    0.000    0.000    0.000 
#
# Total GULP energy -312136.609112 kJ/mol
# GULP energy per Si atom -5573.868020 kJ/mol
# Density = 2.108008 g / cm^3
# Si number density = 21.128168 Si / 1000 Ang^3
#
#
#
# Elastic Constant Matrix: (Units=GPa)
#
#
# Indices 1 2 3 4 5 6 
#
# 1 96.3238 48.3819 44.7704 0.0000 0.0000 0.0000
# 2 48.3819 113.4574 33.9599 0.0000 0.0000 0.0000
# 3 44.7704 33.9599 97.5282 0.0000 0.0000 0.0000
# 4 0.0000 0.0000 0.0000 24.0868 0.0000 0.0000
# 5 0.0000 0.0000 0.0000 0.0000 57.5786 0.0000
# 6 0.0000 0.0000 0.0000 0.0000 0.0000 -11.1887
#
#
#
# Elastic Compliance Matrix: (Units=1/GPa)
#
#
# Indices 1 2 3 4 5 6 
#
# 1 0.015340 -0.004949 -0.005318 0.000000 0.000000 0.000000
# 2 -0.004949 0.011436 -0.001710 0.000000 0.000000 0.000000
# 3 -0.005318 -0.001710 0.013290 0.000000 0.000000 0.000000
# 4 0.000000 0.000000 0.000000 0.041517 0.000000 0.000000
# 5 0.000000 0.000000 0.000000 0.000000 0.017368 0.000000
# 6 0.000000 0.000000 0.000000 0.000000 0.000000 -0.089376
#
#
# Mechanical properties :
#
#
# Convention : Reuss Voigt Hill
#
# Bulk Modulus (GPa) = 62.07114 62.39264 62.23189
# Shear Modulus (GPa) = 128.53464 26.10849 77.32156
#
# Velocity S-wave (km/s) = 7.80818 3.51909 6.05606
# Velocity P-wave (km/s) = 10.52295 6.79019 8.85548
#
# Compressibility (1/GPa) = 0.01611055
#
# Stress axis : x y z
#
# Youngs Moduli (GPa) = 65.19112 87.44042 75.24310
#
# Poissons Ratio (x) = 0.43278 0.40016
# Poissons Ratio (y) = 0.32266 0.12868
# Poissons Ratio (z) = 0.34670 0.14954
#
# Static dielectric constant tensor:
#      x y z
#    x 1.793510 0.000000 0.000000 
#    y 0.000000 1.749220 0.000000 
#    z 0.000000 0.000000 1.799640 
# 
# From -- ./inp_files/7444.got.cif
#   From: 2010.05.17/outbox.cif.g08.bks.cpg/sg60_4_cif.got.tgz:7444.got - 2010.06.03 14:59:27.
