data_PCOD9456722
_publ_section_title
;
Structure prediction by ZEFSAII (Michael W. Deem and Ramdas Pophale) SiO2 
 PCOD9456722
Probable space group: P B C N
;
_chemical_formula_sum "Si O2"
_cell_formula_units_Z 48
_cell_length_a 14.207015
_cell_length_b 13.831895
_cell_length_c 11.933210
_cell_angle_alpha 90.000000
_cell_angle_beta 90.000000
_cell_angle_gamma 90.000000
_cell_volume 2344.994378
_symmetry_space_group_name_H-M "P B C N"
_symmetry_group_IT_number 60
_symmetry_cell_setting 'orthorhombic'
loop_
_space_group_symop_operation_xyz
x,y,z
1/2-x,1/2-y,1/2+z
1/2+x,1/2-y,-z
-x,y,1/2-z
-x,-y,-z
1/2+x,1/2+y,1/2-z
1/2-x,1/2+y,z
x,-y,1/2+z
loop_
_atom_site_type_symbol
_atom_site_label
_atom_site_fract_x
_atom_site_fract_y
_atom_site_fract_z
Si Si1 0.358988 0.135134 0.644916
Si Si2 0.669870 0.327117 0.001489
Si Si3 0.536398 0.659008 0.013489
Si Si4 0.131710 0.653302 0.899392
Si Si5 0.000000 0.500000 0.500000
Si Si6 0.000000 0.057781 0.250000
Si Si7 0.832571 0.977449 0.366643
O O1 0.334814 0.228783 0.570446
O O2 0.391525 0.164677 0.768843
O O3 0.436283 0.070922 0.581405
O O4 0.264160 0.073597 0.662255
O O5 0.564083 0.338466 0.049222
O O6 0.687474 0.418431 0.920880
O O7 0.756860 0.327806 0.085649
O O8 0.579983 0.764767 0.026715
O O9 0.513114 0.620092 0.137820
O O10 0.609115 0.587614 0.954631
O O11 0.096838 0.550812 0.947004
O O12 0.094496 0.995927 0.233743
#
# Coordination Sequence:
#
# PCOD9456722 Si02
#       7
#     8   8   8   8   4   4   8
#     4  12  26  45  73 103 141 192 239 298 364 440
#     4  11  23  45  67 103 139 181 235 294 350 430
#     4  11  23  43  69  98 135 182 226 290 353 421
#     4  12  25  45  72 102 142 190 234 299 363 432
#     4  12  26  48  70 100 144 190 244 300 354 440
#     4  10  22  38  68  96 134 180 222 286 352 422
#     4  11  24  41  68 103 136 174 234 289 354 424
#
# _framework density 20.469132999999999
#
# number of rings (size 3 to 8) (size 9 to 14) (size 15 to 20)
#    0.000    0.667    5.000    4.500    4.667    0.000 
#    3.000    0.000    3.667    0.000    0.000    0.000 
#    0.000    0.000    0.000    0.000    0.000    0.000 
#
# Total GULP energy -267254.651141 kJ/mol
# GULP energy per Si atom -5567.805232 kJ/mol
# Density = 2.042254 g / cm^3
# Si number density = 20.469133 Si / 1000 Ang^3
#
#
#
# Elastic Constant Matrix: (Units=GPa)
#
#
# Indices 1 2 3 4 5 6 
#
# 1 139.8149 20.6486 22.3689 0.0000 0.0000 0.0000
# 2 20.6486 58.2319 21.7485 0.0000 0.0000 0.0000
# 3 22.3689 21.7485 59.1344 0.0000 0.0000 0.0000
# 4 0.0000 0.0000 0.0000 18.9144 0.0000 0.0000
# 5 0.0000 0.0000 0.0000 0.0000 34.5282 0.0000
# 6 0.0000 0.0000 0.0000 0.0000 0.0000 39.9360
#
#
#
# Elastic Compliance Matrix: (Units=1/GPa)
#
#
# Indices 1 2 3 4 5 6 
#
# 1 0.007795 -0.001928 -0.002240 0.000000 0.000000 0.000000
# 2 -0.001928 0.020384 -0.006768 0.000000 0.000000 0.000000
# 3 -0.002240 -0.006768 0.020247 0.000000 0.000000 0.000000
# 4 0.000000 0.000000 0.000000 0.052870 0.000000 0.000000
# 5 0.000000 0.000000 0.000000 0.000000 0.028962 0.000000
# 6 0.000000 0.000000 0.000000 0.000000 0.000000 0.025040
#
#
# Mechanical properties :
#
#
# Convention : Reuss Voigt Hill
#
# Bulk Modulus (GPa) = 37.65638 42.96815 40.31226
# Shear Modulus (GPa) = 26.87884 31.50338 29.19111
#
# Velocity S-wave (km/s) = 3.62766 3.92735 3.78048
# Velocity P-wave (km/s) = 5.99860 6.45002 6.22840
#
# Compressibility (1/GPa) = 0.02655593
#
# Stress axis : x y z
#
# Youngs Moduli (GPa) = 128.28167 49.05853 49.39033
#
# Poissons Ratio (x) = 0.09457 0.11063
# Poissons Ratio (y) = 0.24728 0.33425
# Poissons Ratio (z) = 0.28733 0.33201
#
# Static dielectric constant tensor:
#      x y z
#    x 1.779330 0.000000 0.000000 
#    y 0.000000 1.730020 0.000000 
#    z 0.000000 0.000000 1.684240 
# 
# From -- ./inp_files/16811.got.cif
#   From: 2010.05.17/outbox.cif.g08.bks.cpg/sg60_9_cif.got.tgz:16811.got - 2010.06.03 14:59:27.
