data_PCOD9456760
_publ_section_title
;
Structure prediction by ZEFSAII (Michael W. Deem and Ramdas Pophale) SiO2 
 PCOD9456760
Probable space group: P B C N
;
_chemical_formula_sum "Si O2"
_cell_formula_units_Z 48
_cell_length_a 14.155542
_cell_length_b 19.958922
_cell_length_c 8.298794
_cell_angle_alpha 90.000000
_cell_angle_beta 90.000000
_cell_angle_gamma 90.000000
_cell_volume 2344.652946
_symmetry_space_group_name_H-M "P B C N"
_symmetry_group_IT_number 60
_symmetry_cell_setting 'orthorhombic'
loop_
_space_group_symop_operation_xyz
x,y,z
1/2-x,1/2-y,1/2+z
1/2+x,1/2-y,-z
-x,y,1/2-z
-x,-y,-z
1/2+x,1/2+y,1/2-z
1/2-x,1/2+y,z
x,-y,1/2+z
loop_
_atom_site_type_symbol
_atom_site_label
_atom_site_fract_x
_atom_site_fract_y
_atom_site_fract_z
Si Si1 0.826639 0.084184 0.041305
Si Si2 0.526978 0.390909 0.065876
Si Si3 0.228555 0.706450 0.629500
Si Si4 0.171323 0.671295 0.990741
Si Si5 0.282459 0.446206 0.591507
Si Si6 0.478066 0.242349 0.561847
O O1 0.795957 0.073237 0.223513
O O2 0.794859 0.154865 0.966054
O O3 0.939986 0.079915 0.035970
O O4 0.781314 0.025375 0.934358
O O5 0.500000 0.405540 0.250000
O O6 0.626789 0.419759 0.009436
O O7 0.526874 0.311109 0.036500
O O8 0.215098 0.686898 0.814984
O O9 0.271998 0.780415 0.612653
O O10 0.123639 0.707693 0.555511
O O11 0.063236 0.694769 0.992325
O O12 0.192157 0.594511 0.029059
O O13 0.500000 0.259866 0.750000
#
# Coordination Sequence:
#
# PCOD9456760 Si02
#       6
#     8   8   8   8   8   8
#     4  12  25  42  62  89 126 164 206 255 311 371
#     4  12  23  37  62  93 126 161 202 251 310 372
#     4  11  22  39  63  92 124 163 206 253 304 362
#     4  11  22  39  63  92 124 163 206 253 304 362
#     4  12  25  42  62  89 126 164 206 255 311 371
#     4  10  22  39  62  91 126 161 204 253 302 358
#
# _framework density 20.472111000000002
#
# number of rings (size 3 to 8) (size 9 to 14) (size 15 to 20)
#    0.000    0.667    3.333    6.000    0.000    1.333 
#    0.000    0.833    0.000    0.000    0.000    0.000 
#    0.000    0.000    0.000    0.000    0.000    0.000 
#
# Total GULP energy -268721.563072 kJ/mol
# GULP energy per Si atom -5598.365897 kJ/mol
# Density = 2.042552 g / cm^3
# Si number density = 20.472111 Si / 1000 Ang^3
#
#
#
# Elastic Constant Matrix: (Units=GPa)
#
#
# Indices 1 2 3 4 5 6 
#
# 1 61.3642 -6.4272 -13.5779 0.0000 0.0000 0.0000
# 2 -6.4272 64.9600 -10.2388 0.0000 0.0000 0.0000
# 3 -13.5779 -10.2388 42.2296 0.0000 0.0000 0.0000
# 4 0.0000 0.0000 0.0000 23.9981 0.0000 0.0000
# 5 0.0000 0.0000 0.0000 0.0000 18.4853 0.0000
# 6 0.0000 0.0000 0.0000 0.0000 0.0000 19.2939
#
#
#
# Elastic Compliance Matrix: (Units=1/GPa)
#
#
# Indices 1 2 3 4 5 6 
#
# 1 0.018022 0.002804 0.006474 0.000000 0.000000 0.000000
# 2 0.002804 0.016442 0.004888 0.000000 0.000000 0.000000
# 3 0.006474 0.004888 0.026947 0.000000 0.000000 0.000000
# 4 0.000000 0.000000 0.000000 0.041670 0.000000 0.000000
# 5 0.000000 0.000000 0.000000 0.000000 0.054097 0.000000
# 6 0.000000 0.000000 0.000000 0.000000 0.000000 0.051830
#
#
# Mechanical properties :
#
#
# Convention : Reuss Voigt Hill
#
# Bulk Modulus (GPa) = 11.14294 12.00734 11.57514
# Shear Modulus (GPa) = 23.74276 25.60863 24.67570
#
# Velocity S-wave (km/s) = 3.40922 3.54065 3.47556
# Velocity P-wave (km/s) = 4.57732 4.75320 4.66609
#
# Compressibility (1/GPa) = 0.08974289
#
# Stress axis : x y z
#
# Youngs Moduli (GPa) = 55.48657 60.82028 37.11008
#
# Poissons Ratio (x) = -0.17052 -0.24027
# Poissons Ratio (y) = -0.15556 -0.18139
# Poissons Ratio (z) = -0.35924 -0.29728
#
# Static dielectric constant tensor:
#      x y z
#    x 1.713700 0.000000 0.000000 
#    y 0.000000 1.708650 0.000000 
#    z 0.000000 0.000000 1.740630 
# 
# From -- ./inp_files/5093.got.cif
#   From: 2010.05.17/outbox.cif.g08.bks.cpg/sg60_3_cif.got.tgz:5093.got - 2010.06.03 14:59:27.
