data_PCOD9456245
_publ_section_title
;
Structure prediction by ZEFSAII (Michael W. Deem and Ramdas Pophale) SiO2 
 PCOD9456245
Probable space group: P B C N
;
_chemical_formula_sum "Si O2"
_cell_formula_units_Z 36
_cell_length_a 19.200221
_cell_length_b 16.313506
_cell_length_c 5.162543
_cell_angle_alpha 90.000000
_cell_angle_beta 90.000000
_cell_angle_gamma 90.000000
_cell_volume 1617.026796
_symmetry_space_group_name_H-M "P B C N"
_symmetry_group_IT_number 60
_symmetry_cell_setting 'orthorhombic'
loop_
_space_group_symop_operation_xyz
x,y,z
1/2-x,1/2-y,1/2+z
1/2+x,1/2-y,-z
-x,y,1/2-z
-x,-y,-z
1/2+x,1/2+y,1/2-z
1/2-x,1/2+y,z
x,-y,1/2+z
loop_
_atom_site_type_symbol
_atom_site_label
_atom_site_fract_x
_atom_site_fract_y
_atom_site_fract_z
Si Si1 0.871832 0.183356 0.236545
Si Si2 0.269267 0.549432 0.112094
Si Si3 0.000000 0.942580 0.750000
Si Si4 0.398544 0.048850 0.113115
Si Si5 0.579152 0.233335 0.235825
O O1 0.801944 0.136200 0.313478
O O2 0.932448 0.115227 0.253653
O O3 0.890685 0.251624 0.450676
O O4 0.874704 0.220474 0.950405
O O5 0.291667 0.484011 0.332048
O O6 0.185803 0.553550 0.115857
O O7 0.000000 0.000000 0.500000
O O8 0.423715 0.138742 0.185137
O O9 0.419827 0.984532 0.334183
O O10 0.500000 0.266783 0.250000
#
# Coordination Sequence:
#
# PCOD9456245 Si02
#       5
#     8   8   4   8   8
#     4  12  23  39  60  88 125 161 195 246 300 350
#     4  10  21  40  62  89 121 155 203 250 291 356
#     4  12  22  36  58  84 116 162 200 226 280 346
#     4  10  23  42  65  89 115 155 204 253 304 356
#     4  12  24  41  60  88 127 157 198 252 297 355
#
# _framework density 22.263083000000002
#
# number of rings (size 3 to 8) (size 9 to 14) (size 15 to 20)
#    0.000    0.889    2.222    5.333    0.000    2.667 
#    0.000    0.000    0.000    0.000    0.000    0.000 
#    0.000    0.000    0.000    0.000    0.000    0.000 
#
# Total GULP energy -201661.707617 kJ/mol
# GULP energy per Si atom -5601.714100 kJ/mol
# Density = 2.221241 g / cm^3
# Si number density = 22.263083 Si / 1000 Ang^3
#
#
#
# Elastic Constant Matrix: (Units=GPa)
#
#
# Indices 1 2 3 4 5 6 
#
# 1 49.2253 3.0914 6.6744 0.0000 0.0000 0.0000
# 2 3.0914 58.3634 -16.9432 0.0000 0.0000 0.0000
# 3 6.6744 -16.9432 66.4701 0.0000 0.0000 0.0000
# 4 0.0000 0.0000 0.0000 45.7474 0.0000 0.0000
# 5 0.0000 0.0000 0.0000 0.0000 18.9165 0.0000
# 6 0.0000 0.0000 0.0000 0.0000 0.0000 33.4915
#
#
#
# Elastic Compliance Matrix: (Units=1/GPa)
#
#
# Indices 1 2 3 4 5 6 
#
# 1 0.020777 -0.001843 -0.002556 0.000000 0.000000 0.000000
# 2 -0.001843 0.018667 0.004943 0.000000 0.000000 0.000000
# 3 -0.002556 0.004943 0.016561 0.000000 0.000000 0.000000
# 4 0.000000 0.000000 0.000000 0.021859 0.000000 0.000000
# 5 0.000000 0.000000 0.000000 0.000000 0.052864 0.000000
# 6 0.000000 0.000000 0.000000 0.000000 0.000000 0.029858
#
#
# Mechanical properties :
#
#
# Convention : Reuss Voigt Hill
#
# Bulk Modulus (GPa) = 17.51494 17.74487 17.62991
# Shear Modulus (GPa) = 28.00679 31.71349 29.86014
#
# Velocity S-wave (km/s) = 3.55067 3.77833 3.66627
# Velocity P-wave (km/s) = 4.96930 5.19829 5.08509
#
# Compressibility (1/GPa) = 0.05709411
#
# Stress axis : x y z
#
# Youngs Moduli (GPa) = 48.13007 53.57147 60.38282
#
# Poissons Ratio (x) = 0.09871 0.15433
# Poissons Ratio (y) = 0.08868 -0.29848
# Poissons Ratio (z) = 0.12302 -0.26481
#
# Static dielectric constant tensor:
#      x y z
#    x 1.845240 0.000000 0.000000 
#    y 0.000000 1.780560 0.000000 
#    z 0.000000 0.000000 1.746950 
# 
# From -- ./inp_files/1963.got.cif
#   From: 2010.05.17/outbox.cif.g08.bks.cpg/sg60_1_cif.got.tgz:1963.got - 2010.06.03 14:59:27.
