data_PCOD9456152
_publ_section_title
;
Structure prediction by ZEFSAII (Michael W. Deem and Ramdas Pophale) SiO2 
 PCOD9456152
Probable space group: P B C N
;
_chemical_formula_sum "Si O2"
_cell_formula_units_Z 60
_cell_length_a 16.091550
_cell_length_b 11.612244
_cell_length_c 15.129822
_cell_angle_alpha 90.000000
_cell_angle_beta 90.000000
_cell_angle_gamma 90.000000
_cell_volume 2827.143484
_symmetry_space_group_name_H-M "P B C N"
_symmetry_group_IT_number 60
_symmetry_cell_setting 'orthorhombic'
loop_
_space_group_symop_operation_xyz
x,y,z
1/2-x,1/2-y,1/2+z
1/2+x,1/2-y,-z
-x,y,1/2-z
-x,-y,-z
1/2+x,1/2+y,1/2-z
1/2-x,1/2+y,z
x,-y,1/2+z
loop_
_atom_site_type_symbol
_atom_site_label
_atom_site_fract_x
_atom_site_fract_y
_atom_site_fract_z
Si Si1 0.212398 0.292113 0.682282
Si Si2 0.140300 0.542556 0.041529
Si Si3 0.182091 0.937658 0.469137
Si Si4 0.837290 0.133892 0.174882
Si Si5 0.369706 0.770459 0.059688
Si Si6 0.000000 0.965830 0.750000
Si Si7 0.094792 0.101298 0.610712
Si Si8 0.552732 0.230507 0.548652
O O1 0.160268 0.395013 0.635369
O O2 0.253483 0.331351 0.774276
O O3 0.293921 0.264196 0.623004
O O4 0.154891 0.177906 0.673916
O O5 0.136507 0.406213 0.044967
O O6 0.220694 0.574433 0.984315
O O7 0.064599 0.604812 0.992554
O O8 0.142228 0.811019 0.473739
O O9 0.170997 0.020541 0.385991
O O10 0.145502 0.005086 0.555535
O O11 0.872778 0.235100 0.113357
O O12 0.915097 0.104119 0.237592
O O13 0.463518 0.750567 0.092557
O O14 0.020764 0.044503 0.665336
O O15 0.060931 0.184653 0.534717
#
# Coordination Sequence:
#
# PCOD9456152 Si02
#       8
#     8   8   8   8   8   4   8   8
#     4  10  22  40  65  86 127 166 206 250 322 370
#     4  10  21  40  62  89 118 164 205 249 308 375
#     4  10  21  39  63  91 118 161 212 254 300 371
#     4  11  23  38  62  94 125 158 208 261 306 372
#     4  11  20  38  67  86 119 166 200 252 316 364
#     4  12  22  36  62  94 128 162 212 260 324 362
#     4  10  21  41  61  92 126 164 208 257 313 372
#     4  10  22  39  61  92 125 159 207 257 305 375
#
# _framework density 21.222835
#
# number of rings (size 3 to 8) (size 9 to 14) (size 15 to 20)
#    0.000    1.600    1.333    4.400    1.867    3.200 
#    2.400    0.000    0.000    0.000    0.000    0.000 
#    0.000    0.000    0.000    0.000    0.000    0.000 
#
# Total GULP energy -334962.910365 kJ/mol
# GULP energy per Si atom -5582.715173 kJ/mol
# Density = 2.117453 g / cm^3
# Si number density = 21.222835 Si / 1000 Ang^3
#
#
#
# Elastic Constant Matrix: (Units=GPa)
#
#
# Indices 1 2 3 4 5 6 
#
# 1 71.9972 12.1214 14.7130 0.0000 0.0000 0.0000
# 2 12.1214 126.5743 36.8543 0.0000 0.0000 0.0000
# 3 14.7130 36.8543 68.2026 0.0000 0.0000 0.0000
# 4 0.0000 0.0000 0.0000 12.2543 0.0000 0.0000
# 5 0.0000 0.0000 0.0000 0.0000 26.4320 0.0000
# 6 0.0000 0.0000 0.0000 0.0000 0.0000 20.6333
#
#
#
# Elastic Compliance Matrix: (Units=1/GPa)
#
#
# Indices 1 2 3 4 5 6 
#
# 1 0.014564 -0.000570 -0.002834 0.000000 0.000000 0.000000
# 2 -0.000570 0.009398 -0.004955 0.000000 0.000000 0.000000
# 3 -0.002834 -0.004955 0.017951 0.000000 0.000000 0.000000
# 4 0.000000 0.000000 0.000000 0.081604 0.000000 0.000000
# 5 0.000000 0.000000 0.000000 0.000000 0.037833 0.000000
# 6 0.000000 0.000000 0.000000 0.000000 0.000000 0.048465
#
#
# Mechanical properties :
#
#
# Convention : Reuss Voigt Hill
#
# Bulk Modulus (GPa) = 39.68973 43.79462 41.74217
# Shear Modulus (GPa) = 21.28268 25.40295 23.34282
#
# Velocity S-wave (km/s) = 3.17017 3.46347 3.32006
# Velocity P-wave (km/s) = 5.66939 6.05595 5.86586
#
# Compressibility (1/GPa) = 0.02519544
#
# Stress axis : x y z
#
# Youngs Moduli (GPa) = 68.66012 106.40678 55.70619
#
# Poissons Ratio (x) = 0.06060 0.15788
# Poissons Ratio (y) = 0.03911 0.27605
# Poissons Ratio (z) = 0.19459 0.52729
#
# Static dielectric constant tensor:
#      x y z
#    x 1.767880 0.000000 0.000000 
#    y 0.000000 1.801330 0.000000 
#    z 0.000000 0.000000 1.812520 
# 
# From -- ./inp_files/20628.got.cif
#   From: 2010.05.17/outbox.cif.g08.bks.cpg/sg60_11_cif.got.tgz:20628.got - 2010.06.03 14:59:27.
