data_PCOD9456923
_publ_section_title
;
Structure prediction by ZEFSAII (Michael W. Deem and Ramdas Pophale) SiO2 
 PCOD9456923
Probable space group: P B C N
;
_chemical_formula_sum "Si O2"
_cell_formula_units_Z 48
_cell_length_a 18.921446
_cell_length_b 12.607204
_cell_length_c 8.199507
_cell_angle_alpha 90.000000
_cell_angle_beta 90.000000
_cell_angle_gamma 90.000000
_cell_volume 1955.963940
_symmetry_space_group_name_H-M "P B C N"
_symmetry_group_IT_number 60
_symmetry_cell_setting 'orthorhombic'
loop_
_space_group_symop_operation_xyz
x,y,z
1/2-x,1/2-y,1/2+z
1/2+x,1/2-y,-z
-x,y,1/2-z
-x,-y,-z
1/2+x,1/2+y,1/2-z
1/2-x,1/2+y,z
x,-y,1/2+z
loop_
_atom_site_type_symbol
_atom_site_label
_atom_site_fract_x
_atom_site_fract_y
_atom_site_fract_z
Si Si1 0.849455 0.039649 0.719968
Si Si2 0.307999 0.035590 0.332396
Si Si3 0.935734 0.406786 0.877704
Si Si4 0.414463 0.361906 0.599334
Si Si5 0.124669 0.619410 0.635532
Si Si6 0.452050 0.324580 0.083779
O O1 0.770139 0.995047 0.719723
O O2 0.865164 0.098301 0.550400
O O3 0.879806 0.117884 0.861792
O O4 0.894741 0.934271 0.749587
O O5 0.358471 0.103561 0.212495
O O6 0.313162 0.093656 0.505183
O O7 0.349809 0.923025 0.311546
O O8 0.942977 0.296912 0.972875
O O9 0.000000 0.403028 0.750000
O O10 0.932414 0.531661 0.926520
O O11 0.399746 0.238386 0.628401
O O12 0.494214 0.377497 0.541481
O O13 0.500000 0.323515 0.250000
#
# Coordination Sequence:
#
# PCOD9456923 Si02
#       6
#     8   8   8   8   8   8
#     4  11  23  43  65  94 136 180 230 272 335 416
#     4  10  22  41  64 100 133 178 217 280 345 406
#     4   9  20  40  70  99 136 166 223 281 347 401
#     4  11  24  43  68  94 133 180 229 283 336 401
#     4  10  23  42  67 100 133 171 222 279 344 406
#     4   9  19  39  69  96 126 179 216 282 339 391
#
# _framework density 24.540330000000001
#
# number of rings (size 3 to 8) (size 9 to 14) (size 15 to 20)
#    1.000    1.000    0.000    4.500    0.000    5.333 
#    3.000    2.500    0.000    0.000    0.000    0.000 
#    0.000    0.000    0.000    0.000    0.000    0.000 
#
# Total GULP energy -267759.182183 kJ/mol
# GULP energy per Si atom -5578.316295 kJ/mol
# Density = 2.448448 g / cm^3
# Si number density = 24.540330 Si / 1000 Ang^3
#
#
#
# Elastic Constant Matrix: (Units=GPa)
#
#
# Indices 1 2 3 4 5 6 
#
# 1 118.6542 51.2024 13.7661 0.0000 0.0000 0.0000
# 2 51.2024 178.3230 20.1454 0.0000 0.0000 0.0000
# 3 13.7661 20.1454 49.3625 0.0000 0.0000 0.0000
# 4 0.0000 0.0000 0.0000 28.8689 0.0000 0.0000
# 5 0.0000 0.0000 0.0000 0.0000 21.8278 0.0000
# 6 0.0000 0.0000 0.0000 0.0000 0.0000 25.7853
#
#
#
# Elastic Compliance Matrix: (Units=1/GPa)
#
#
# Indices 1 2 3 4 5 6 
#
# 1 0.009747 -0.002612 -0.001652 0.000000 0.000000 0.000000
# 2 -0.002612 0.006579 -0.001956 0.000000 0.000000 0.000000
# 3 -0.001652 -0.001956 0.021517 0.000000 0.000000 0.000000
# 4 0.000000 0.000000 0.000000 0.034639 0.000000 0.000000
# 5 0.000000 0.000000 0.000000 0.000000 0.045813 0.000000
# 6 0.000000 0.000000 0.000000 0.000000 0.000000 0.038782
#
#
# Mechanical properties :
#
#
# Convention : Reuss Voigt Hill
#
# Bulk Modulus (GPa) = 39.36729 57.39641 48.38185
# Shear Modulus (GPa) = 28.09214 32.71144 30.40179
#
# Velocity S-wave (km/s) = 3.38706 3.65494 3.52355
# Velocity P-wave (km/s) = 5.60116 6.42268 6.02594
#
# Compressibility (1/GPa) = 0.02540180
#
# Stress axis : x y z
#
# Youngs Moduli (GPa) = 102.59935 152.00339 46.47380
#
# Poissons Ratio (x) = 0.39702 0.07678
# Poissons Ratio (y) = 0.26798 0.09092
# Poissons Ratio (z) = 0.16951 0.29739
#
# Static dielectric constant tensor:
#      x y z
#    x 1.980750 0.000000 0.000000 
#    y 0.000000 1.927560 0.000000 
#    z 0.000000 0.000000 2.076400 
# 
# From -- ./inp_files/12800.got.cif
#   From: 2010.05.17/outbox.cif.g08.bks.cpg/sg60_7_cif.got.tgz:12800.got - 2010.06.03 14:59:27.
