data_PCOD9456747
_publ_section_title
;
Structure prediction by ZEFSAII (Michael W. Deem and Ramdas Pophale) SiO2 
 PCOD9456747
Probable space group: P B C N
;
_chemical_formula_sum "Si O2"
_cell_formula_units_Z 40
_cell_length_a 20.662768
_cell_length_b 5.323943
_cell_length_c 15.581497
_cell_angle_alpha 90.000000
_cell_angle_beta 90.000000
_cell_angle_gamma 90.000000
_cell_volume 1714.079958
_symmetry_space_group_name_H-M "P B C N"
_symmetry_group_IT_number 60
_symmetry_cell_setting 'orthorhombic'
loop_
_space_group_symop_operation_xyz
x,y,z
1/2-x,1/2-y,1/2+z
1/2+x,1/2-y,-z
-x,y,1/2-z
-x,-y,-z
1/2+x,1/2+y,1/2-z
1/2-x,1/2+y,z
x,-y,1/2+z
loop_
_atom_site_type_symbol
_atom_site_label
_atom_site_fract_x
_atom_site_fract_y
_atom_site_fract_z
Si Si1 0.991410 0.089922 0.151018
Si Si2 0.790799 0.476348 0.220551
Si Si3 0.208818 0.539714 0.981332
Si Si4 0.018721 0.592422 0.405750
Si Si5 0.608250 0.921833 0.371540
O O1 0.951982 0.351414 0.140278
O O2 0.063003 0.174408 0.117923
O O3 0.000000 0.034480 0.250000
O O4 0.954368 0.869129 0.101690
O O5 0.761600 0.754206 0.235302
O O6 0.846220 0.421360 0.289560
O O7 0.808144 0.468819 0.119572
O O8 0.259405 0.311848 0.998305
O O9 0.149090 0.485625 0.044119
O O10 0.948797 0.625305 0.359243
O O11 0.000000 0.500000 0.500000
#
# Coordination Sequence:
#
# PCOD9456747 Si02
#       5
#     8   8   8   8   8
#     4  10  23  41  61  89 123 162 211 262 318 374
#     4  10  22  39  60  92 126 158 202 254 308 374
#     4  10  22  39  60  91 127 160 204 257 310 377
#     4  10  23  41  61  89 123 163 212 261 314 376
#     4  10  24  37  68  89 122 168 208 253 319 373
#
# _framework density 23.336133
#
# number of rings (size 3 to 8) (size 9 to 14) (size 15 to 20)
#    1.200    0.800    0.000    2.400    5.600    1.600 
#    0.000    0.000    0.000    0.000    0.000    0.000 
#    0.000    0.000    0.000    0.000    0.000    0.000 
#
# Total GULP energy -223118.287985 kJ/mol
# GULP energy per Si atom -5577.957200 kJ/mol
# Density = 2.328302 g / cm^3
# Si number density = 23.336133 Si / 1000 Ang^3
#
#
#
# Elastic Constant Matrix: (Units=GPa)
#
#
# Indices 1 2 3 4 5 6 
#
# 1 35.2190 18.4044 -6.8041 0.0000 0.0000 0.0000
# 2 18.4044 161.9015 46.1444 0.0000 0.0000 0.0000
# 3 -6.8041 46.1444 74.9382 0.0000 0.0000 0.0000
# 4 0.0000 0.0000 0.0000 25.9108 0.0000 0.0000
# 5 0.0000 0.0000 0.0000 0.0000 31.4918 0.0000
# 6 0.0000 0.0000 0.0000 0.0000 0.0000 7.2634
#
#
#
# Elastic Compliance Matrix: (Units=1/GPa)
#
#
# Indices 1 2 3 4 5 6 
#
# 1 0.032492 -0.005500 0.006337 0.000000 0.000000 0.000000
# 2 -0.005500 0.008422 -0.005685 0.000000 0.000000 0.000000
# 3 0.006337 -0.005685 0.017421 0.000000 0.000000 0.000000
# 4 0.000000 0.000000 0.000000 0.038594 0.000000 0.000000
# 5 0.000000 0.000000 0.000000 0.000000 0.031754 0.000000
# 6 0.000000 0.000000 0.000000 0.000000 0.000000 0.137677
#
#
# Mechanical properties :
#
#
# Convention : Reuss Voigt Hill
#
# Bulk Modulus (GPa) = 20.56017 43.06090 31.81053
# Shear Modulus (GPa) = 17.10752 27.22081 22.16416
#
# Velocity S-wave (km/s) = 2.71050 3.41906 3.08519
# Velocity P-wave (km/s) = 4.31571 5.83774 5.13344
#
# Compressibility (1/GPa) = 0.04863773
#
# Stress axis : x y z
#
# Youngs Moduli (GPa) = 30.77697 118.73378 57.40340
#
# Poissons Ratio (x) = 0.65298 -0.36374
# Poissons Ratio (y) = 0.16926 0.32636
# Poissons Ratio (z) = -0.19502 0.67505
#
# Static dielectric constant tensor:
#      x y z
#    x 1.909180 0.000000 0.000000 
#    y 0.000000 2.057560 0.000000 
#    z 0.000000 0.000000 1.893160 
# 
# From -- ./inp_files/18109.got.cif
#   From: 2010.05.17/outbox.cif.g08.bks.cpg/sg60_10_cif.got.tgz:18109.got - 2010.06.03 14:59:27.
