data_PCOD9456409
_publ_section_title
;
Structure prediction by ZEFSAII (Michael W. Deem and Ramdas Pophale) SiO2 
 PCOD9456409
Probable space group: P B C N
;
_chemical_formula_sum "Si O2"
_cell_formula_units_Z 60
_cell_length_a 12.133741
_cell_length_b 11.703642
_cell_length_c 17.350972
_cell_angle_alpha 90.000000
_cell_angle_beta 90.000000
_cell_angle_gamma 90.000000
_cell_volume 2463.993502
_symmetry_space_group_name_H-M "P B C N"
_symmetry_group_IT_number 60
_symmetry_cell_setting 'orthorhombic'
loop_
_space_group_symop_operation_xyz
x,y,z
1/2-x,1/2-y,1/2+z
1/2+x,1/2-y,-z
-x,y,1/2-z
-x,-y,-z
1/2+x,1/2+y,1/2-z
1/2-x,1/2+y,z
x,-y,1/2+z
loop_
_atom_site_type_symbol
_atom_site_label
_atom_site_fract_x
_atom_site_fract_y
_atom_site_fract_z
Si Si1 0.713840 0.431264 0.276922
Si Si2 0.500000 0.906735 0.750000
Si Si3 0.286354 0.895032 0.972823
Si Si4 0.201043 0.249635 0.609655
Si Si5 0.419274 0.646478 0.190553
Si Si6 0.933971 0.990943 0.079645
Si Si7 0.356883 0.730963 0.837101
Si Si8 0.093992 0.488673 0.609688
O O1 0.652224 0.348374 0.336425
O O2 0.642183 0.543740 0.262663
O O3 0.734135 0.349760 0.204477
O O4 0.815048 0.468248 0.329046
O O5 0.403593 0.815357 0.770302
O O6 0.495312 0.983240 0.828386
O O7 0.325618 0.818307 0.903076
O O8 0.193803 0.981934 0.942086
O O9 0.224577 0.808501 0.029257
O O10 0.382348 0.948943 0.028453
O O11 0.319246 0.289553 0.646975
O O12 0.122696 0.356414 0.597160
O O13 0.500000 0.711397 0.250000
O O14 0.501206 0.584983 0.130551
O O15 0.929780 0.868223 0.122338
O O16 0.000000 0.000000 0.000000
#
# Coordination Sequence:
#
# PCOD9456409 Si02
#       8
#     8   4   8   8   8   8   8   8
#     4  10  21  41  69  95 137 175 223 280 347 399
#     4  12  26  42  74  98 134 184 234 284 326 414
#     4  11  26  44  66  98 143 183 219 277 363 413
#     4  10  21  44  66  94 138 182 211 279 359 403
#     4  11  22  39  69 103 131 170 236 294 320 400
#     4  12  25  43  69 103 134 172 226 287 339 404
#     4  12  25  42  69 105 130 182 233 278 345 412
#     4  10  23  44  67  94 136 185 222 279 342 406
#
# _framework density 24.350714
#
# number of rings (size 3 to 8) (size 9 to 14) (size 15 to 20)
#    0.000    1.067    2.667    4.800    5.600    0.533 
#    4.800    1.333    0.000    0.000    0.000    0.000 
#    0.000    0.000    0.000    0.000    0.000    0.000 
#
# Total GULP energy -334535.945109 kJ/mol
# GULP energy per Si atom -5575.599085 kJ/mol
# Density = 2.429529 g / cm^3
# Si number density = 24.350714 Si / 1000 Ang^3
#
#
#
# Elastic Constant Matrix: (Units=GPa)
#
#
# Indices 1 2 3 4 5 6 
#
# 1 60.3068 11.2672 12.8703 0.0000 0.0000 0.0000
# 2 11.2672 73.0582 9.5421 0.0000 0.0000 0.0000
# 3 12.8703 9.5421 53.1693 0.0000 0.0000 0.0000
# 4 0.0000 0.0000 0.0000 63.0884 0.0000 0.0000
# 5 0.0000 0.0000 0.0000 0.0000 38.0840 0.0000
# 6 0.0000 0.0000 0.0000 0.0000 0.0000 21.2590
#
#
#
# Elastic Compliance Matrix: (Units=1/GPa)
#
#
# Indices 1 2 3 4 5 6 
#
# 1 0.017836 -0.002239 -0.003916 0.000000 0.000000 0.000000
# 2 -0.002239 0.014297 -0.002024 0.000000 0.000000 0.000000
# 3 -0.003916 -0.002024 0.020119 0.000000 0.000000 0.000000
# 4 0.000000 0.000000 0.000000 0.015851 0.000000 0.000000
# 5 0.000000 0.000000 0.000000 0.000000 0.026258 0.000000
# 6 0.000000 0.000000 0.000000 0.000000 0.000000 0.047039
#
#
# Mechanical properties :
#
#
# Convention : Reuss Voigt Hill
#
# Bulk Modulus (GPa) = 27.85916 28.21037 28.03476
# Shear Modulus (GPa) = 29.45999 34.67661 32.06830
#
# Velocity S-wave (km/s) = 3.48202 3.77775 3.63290
# Velocity P-wave (km/s) = 5.25658 5.53523 5.39770
#
# Compressibility (1/GPa) = 0.03589484
#
# Stress axis : x y z
#
# Youngs Moduli (GPa) = 56.06676 69.94284 49.70461
#
# Poissons Ratio (x) = 0.15662 0.19462
# Poissons Ratio (y) = 0.12555 0.10059
# Poissons Ratio (z) = 0.21953 0.14155
#
# Static dielectric constant tensor:
#      x y z
#    x 3.620710 0.000000 0.000000 
#    y 0.000000 1.957380 0.000000 
#    z 0.000000 0.000000 1.958840 
# 
# From -- ./inp_files/20634.got.cif
#   From: 2010.05.17/outbox.cif.g08.bks.cpg/sg60_11_cif.got.tgz:20634.got - 2010.06.03 14:59:27.
