data_PCOD9456370
_publ_section_title
;
Structure prediction by ZEFSAII (Michael W. Deem and Ramdas Pophale) SiO2 
 PCOD9456370
Probable space group: P B C N
;
_chemical_formula_sum "Si O2"
_cell_formula_units_Z 56
_cell_length_a 13.619682
_cell_length_b 14.061773
_cell_length_c 12.171793
_cell_angle_alpha 90.000000
_cell_angle_beta 90.000000
_cell_angle_gamma 90.000000
_cell_volume 2331.103778
_symmetry_space_group_name_H-M "P B C N"
_symmetry_group_IT_number 60
_symmetry_cell_setting 'orthorhombic'
loop_
_space_group_symop_operation_xyz
x,y,z
1/2-x,1/2-y,1/2+z
1/2+x,1/2-y,-z
-x,y,1/2-z
-x,-y,-z
1/2+x,1/2+y,1/2-z
1/2-x,1/2+y,z
x,-y,1/2+z
loop_
_atom_site_type_symbol
_atom_site_label
_atom_site_fract_x
_atom_site_fract_y
_atom_site_fract_z
Si Si1 0.566260 0.060869 0.847698
Si Si2 0.161090 0.114754 0.259076
Si Si3 0.373778 0.738370 0.924653
Si Si4 0.464227 0.864048 0.549615
Si Si5 0.999162 0.901160 0.933309
Si Si6 0.281768 0.739105 0.608291
Si Si7 0.769243 0.904957 0.241177
O O1 0.500000 0.024913 0.750000
O O2 0.658616 0.106369 0.786155
O O3 0.580180 0.968072 0.922344
O O4 0.506856 0.131773 0.926032
O O5 0.081693 0.093170 0.163941
O O6 0.230527 0.196799 0.206666
O O7 0.099065 0.130549 0.370788
O O8 0.217404 0.015741 0.279087
O O9 0.440931 0.825748 0.879965
O O10 0.311476 0.662236 0.853972
O O11 0.456439 0.676181 0.984367
O O12 0.297258 0.777724 0.013461
O O13 0.371340 0.798595 0.564005
O O14 0.000000 0.000000 0.000000
O O15 0.324485 0.640051 0.653972
#
# Coordination Sequence:
#
# PCOD9456370 Si02
#       7
#     8   8   8   8   8   8   8
#     4  11  25  47  73 100 146 201 242 302 373 448
#     4  10  23  42  66  99 138 188 237 300 368 437
#     4  11  25  43  71 109 141 188 245 309 363 438
#     4  11  25  46  71 107 148 190 251 304 371 445
#     4  10  21  41  65  95 137 178 232 294 365 432
#     4  11  25  45  67 105 148 190 249 303 368 443
#     4  12  24  45  72 101 145 186 247 300 371 437
#
# _framework density 24.022955
#
# number of rings (size 3 to 8) (size 9 to 14) (size 15 to 20)
#    0.000    1.143    4.286    0.857    4.000    2.286 
#    0.000    0.000    0.000    0.000    0.000    0.000 
#    0.000    0.000    0.000    0.000    0.000    0.000 
#
# Total GULP energy -312694.056298 kJ/mol
# GULP energy per Si atom -5583.822434 kJ/mol
# Density = 2.396828 g / cm^3
# Si number density = 24.022955 Si / 1000 Ang^3
#
#
#
# Elastic Constant Matrix: (Units=GPa)
#
#
# Indices 1 2 3 4 5 6 
#
# 1 85.0013 14.1367 61.9204 0.0000 0.0000 0.0000
# 2 14.1367 80.5653 32.0396 0.0000 0.0000 0.0000
# 3 61.9204 32.0396 75.8737 0.0000 0.0000 0.0000
# 4 0.0000 0.0000 0.0000 32.4708 0.0000 0.0000
# 5 0.0000 0.0000 0.0000 0.0000 42.4567 0.0000
# 6 0.0000 0.0000 0.0000 0.0000 0.0000 32.9677
#
#
#
# Elastic Compliance Matrix: (Units=1/GPa)
#
#
# Indices 1 2 3 4 5 6 
#
# 1 0.030944 0.005544 -0.027595 0.000000 0.000000 0.000000
# 2 0.005544 0.015911 -0.011243 0.000000 0.000000 0.000000
# 3 -0.027595 -0.011243 0.040448 0.000000 0.000000 0.000000
# 4 0.000000 0.000000 0.000000 0.030797 0.000000 0.000000
# 5 0.000000 0.000000 0.000000 0.000000 0.023553 0.000000
# 6 0.000000 0.000000 0.000000 0.000000 0.000000 0.030333
#
#
# Mechanical properties :
#
#
# Convention : Reuss Voigt Hill
#
# Bulk Modulus (GPa) = 48.27447 50.84821 49.56134
# Shear Modulus (GPa) = 20.36841 30.46861 25.41851
#
# Velocity S-wave (km/s) = 2.91498 3.56520 3.25636
# Velocity P-wave (km/s) = 5.60966 6.17738 5.90035
#
# Compressibility (1/GPa) = 0.02071488
#
# Stress axis : x y z
#
# Youngs Moduli (GPa) = 32.31623 62.85047 24.72336
#
# Poissons Ratio (x) = -0.34846 0.68223
# Poissons Ratio (y) = -0.17917 0.27797
# Poissons Ratio (z) = 0.89176 0.70665
#
# Static dielectric constant tensor:
#      x y z
#    x 1.936940 0.000000 0.000000 
#    y 0.000000 1.979770 0.000000 
#    z 0.000000 0.000000 1.970310 
# 
# From -- ./inp_files/16168.got.cif
#   From: 2010.05.17/outbox.cif.g08.bks.cpg/sg60_9_cif.got.tgz:16168.got - 2010.06.03 14:59:27.
