data_PCOD9456471
_publ_section_title
;
Structure prediction by ZEFSAII (Michael W. Deem and Ramdas Pophale) SiO2 
 PCOD9456471
Probable space group: P B C N
;
_chemical_formula_sum "Si O2"
_cell_formula_units_Z 56
_cell_length_a 12.913250
_cell_length_b 13.213552
_cell_length_c 13.461848
_cell_angle_alpha 90.000000
_cell_angle_beta 90.000000
_cell_angle_gamma 90.000000
_cell_volume 2296.993783
_symmetry_space_group_name_H-M "P B C N"
_symmetry_group_IT_number 60
_symmetry_cell_setting 'orthorhombic'
loop_
_space_group_symop_operation_xyz
x,y,z
1/2-x,1/2-y,1/2+z
1/2+x,1/2-y,-z
-x,y,1/2-z
-x,-y,-z
1/2+x,1/2+y,1/2-z
1/2-x,1/2+y,z
x,-y,1/2+z
loop_
_atom_site_type_symbol
_atom_site_label
_atom_site_fract_x
_atom_site_fract_y
_atom_site_fract_z
Si Si1 0.673316 0.272871 0.248430
Si Si2 0.804545 0.442411 0.220848
Si Si3 0.867350 0.321701 0.956878
Si Si4 0.948939 0.876676 0.524630
Si Si5 0.261869 0.021185 0.548525
Si Si6 0.414623 0.096169 0.391239
Si Si7 0.089856 0.952831 0.355834
O O1 0.782607 0.322463 0.217157
O O2 0.673891 0.238006 0.360854
O O3 0.630433 0.183880 0.179924
O O4 0.599838 0.371505 0.233314
O O5 0.788265 0.474041 0.334697
O O6 0.903247 0.491326 0.169475
O O7 0.708816 0.490800 0.157751
O O8 0.908905 0.237110 0.032376
O O9 0.782892 0.404879 0.984513
O O10 0.968759 0.381641 0.920645
O O11 0.044390 0.885900 0.447424
O O12 0.852836 0.937913 0.473536
O O13 0.969935 0.941681 0.624434
O O14 0.344676 0.088711 0.489186
#
# Coordination Sequence:
#
# PCOD9456471 Si02
#       7
#     8   8   8   8   8   8   8
#     4  10  21  42  70  94 128 187 236 281 358 434
#     4  10  22  42  66 102 136 170 237 299 343 418
#     4  12  24  42  71  99 136 195 236 282 374 446
#     4  11  21  42  68  99 139 175 241 289 348 433
#     4  12  25  39  66 104 137 176 238 302 341 427
#     4  12  24  44  66 100 142 184 235 290 364 437
#     4   9  21  41  64 102 128 176 228 299 342 412
#
# _framework density 24.379691000000001
#
# number of rings (size 3 to 8) (size 9 to 14) (size 15 to 20)
#    0.857    0.286    5.714    0.857    0.000    4.000 
#    0.000    0.000    0.000    0.000    0.000    0.000 
#    0.000    0.000    0.000    0.000    0.000    0.000 
#
# Total GULP energy -312353.684696 kJ/mol
# GULP energy per Si atom -5577.744370 kJ/mol
# Density = 2.432420 g / cm^3
# Si number density = 24.379691 Si / 1000 Ang^3
#
#
#
# Elastic Constant Matrix: (Units=GPa)
#
#
# Indices 1 2 3 4 5 6 
#
# 1 70.7391 46.5926 10.5393 0.0000 0.0000 0.0000
# 2 46.5926 73.5790 10.8497 0.0000 0.0000 0.0000
# 3 10.5393 10.8497 80.4354 0.0000 0.0000 0.0000
# 4 0.0000 0.0000 0.0000 21.5984 0.0000 0.0000
# 5 0.0000 0.0000 0.0000 0.0000 27.5820 0.0000
# 6 0.0000 0.0000 0.0000 0.0000 0.0000 32.8702
#
#
#
# Elastic Compliance Matrix: (Units=1/GPa)
#
#
# Indices 1 2 3 4 5 6 
#
# 1 0.024352 -0.015253 -0.001133 0.000000 0.000000 0.000000
# 2 -0.015253 0.023421 -0.001161 0.000000 0.000000 0.000000
# 3 -0.001133 -0.001161 0.012737 0.000000 0.000000 0.000000
# 4 0.000000 0.000000 0.000000 0.046300 0.000000 0.000000
# 5 0.000000 0.000000 0.000000 0.000000 0.036255 0.000000
# 6 0.000000 0.000000 0.000000 0.000000 0.000000 0.030423
#
#
# Mechanical properties :
#
#
# Convention : Reuss Voigt Hill
#
# Bulk Modulus (GPa) = 39.34559 40.07962 39.71261
# Shear Modulus (GPa) = 23.03568 26.86158 24.94863
#
# Velocity S-wave (km/s) = 3.07721 3.32294 3.20243
# Velocity P-wave (km/s) = 5.36650 5.58552 5.47711
#
# Compressibility (1/GPa) = 0.02541581
#
# Stress axis : x y z
#
# Youngs Moduli (GPa) = 41.06443 42.69699 78.50906
#
# Poissons Ratio (x) = 0.65127 0.08897
# Poissons Ratio (y) = 0.62637 0.09112
# Poissons Ratio (z) = 0.04654 0.04955
#
# Static dielectric constant tensor:
#      x y z
#    x 2.016870 0.000000 0.000000 
#    y 0.000000 1.984950 0.000000 
#    z 0.000000 0.000000 2.066460 
# 
# From -- ./inp_files/16951.got.cif
#   From: 2010.05.17/outbox.cif.g08.bks.cpg/sg60_9_cif.got.tgz:16951.got - 2010.06.03 14:59:27.
