data_PCOD9456831
_publ_section_title
;
Structure prediction by ZEFSAII (Michael W. Deem and Ramdas Pophale) SiO2 
 PCOD9456831
Probable space group: P B C N
;
_chemical_formula_sum "Si O2"
_cell_formula_units_Z 40
_cell_length_a 7.583376
_cell_length_b 23.489645
_cell_length_c 8.958622
_cell_angle_alpha 90.000000
_cell_angle_beta 90.000000
_cell_angle_gamma 90.000000
_cell_volume 1595.806595
_symmetry_space_group_name_H-M "P B C N"
_symmetry_group_IT_number 60
_symmetry_cell_setting 'orthorhombic'
loop_
_space_group_symop_operation_xyz
x,y,z
1/2-x,1/2-y,1/2+z
1/2+x,1/2-y,-z
-x,y,1/2-z
-x,-y,-z
1/2+x,1/2+y,1/2-z
1/2-x,1/2+y,z
x,-y,1/2+z
loop_
_atom_site_type_symbol
_atom_site_label
_atom_site_fract_x
_atom_site_fract_y
_atom_site_fract_z
Si Si1 0.829787 0.779544 0.926718
Si Si2 0.320748 0.577707 0.583349
Si Si3 0.374700 0.033543 0.109583
Si Si4 0.275368 0.620475 0.891070
Si Si5 0.232361 0.178899 0.390056
O O1 0.724814 0.799985 0.778276
O O2 0.027992 0.802081 0.906152
O O3 0.765725 0.813346 0.073853
O O4 0.826106 0.714506 0.978346
O O5 0.291811 0.510309 0.610104
O O6 0.218236 0.603969 0.725736
O O7 0.524577 0.596069 0.596626
O O8 0.258921 0.611738 0.433762
O O9 0.500000 0.040866 0.250000
O O10 0.322083 0.090566 0.027244
O O11 0.500000 0.000000 0.000000
#
# Coordination Sequence:
#
# PCOD9456831 Si02
#       5
#     8   8   8   8   8
#     4  10  22  40  63  93 122 162 208 256 312 375
#     4  10  22  42  65  89 124 171 212 258 314 386
#     4  12  25  42  61  94 130 162 209 265 320 372
#     4  10  22  42  65  88 126 169 215 255 315 390
#     4  10  22  40  63  92 125 161 207 257 311 376
#
# _framework density 25.065693
#
# number of rings (size 3 to 8) (size 9 to 14) (size 15 to 20)
#    0.000    1.600    2.000    1.800    2.800    4.000 
#    3.600    0.000    0.000    0.000    0.000    0.000 
#    0.000    0.000    0.000    0.000    0.000    0.000 
#
# Total GULP energy -223267.693617 kJ/mol
# GULP energy per Si atom -5581.692340 kJ/mol
# Density = 2.500864 g / cm^3
# Si number density = 25.065693 Si / 1000 Ang^3
#
#
#
# Elastic Constant Matrix: (Units=GPa)
#
#
# Indices 1 2 3 4 5 6 
#
# 1 63.1747 7.8021 20.4384 0.0000 0.0000 0.0000
# 2 7.8021 76.3633 -12.3645 0.0000 0.0000 0.0000
# 3 20.4384 -12.3645 95.2254 0.0000 0.0000 0.0000
# 4 0.0000 0.0000 0.0000 27.2195 0.0000 0.0000
# 5 0.0000 0.0000 0.0000 0.0000 32.1892 0.0000
# 6 0.0000 0.0000 0.0000 0.0000 0.0000 20.9750
#
#
#
# Elastic Compliance Matrix: (Units=1/GPa)
#
#
# Indices 1 2 3 4 5 6 
#
# 1 0.017444 -0.002440 -0.004061 0.000000 0.000000 0.000000
# 2 -0.002440 0.013718 0.002305 0.000000 0.000000 0.000000
# 3 -0.004061 0.002305 0.011672 0.000000 0.000000 0.000000
# 4 0.000000 0.000000 0.000000 0.036738 0.000000 0.000000
# 5 0.000000 0.000000 0.000000 0.000000 0.031066 0.000000
# 6 0.000000 0.000000 0.000000 0.000000 0.000000 0.047676
#
#
# Mechanical properties :
#
#
# Convention : Reuss Voigt Hill
#
# Bulk Modulus (GPa) = 29.03386 29.61282 29.32334
# Shear Modulus (GPa) = 28.06036 30.66924 29.36480
#
# Velocity S-wave (km/s) = 3.34948 3.50173 3.42645
# Velocity P-wave (km/s) = 5.15431 5.30935 5.23241
#
# Compressibility (1/GPa) = 0.03444255
#
# Stress axis : x y z
#
# Youngs Moduli (GPa) = 57.32554 72.89814 85.67313
#
# Poissons Ratio (x) = 0.17786 0.34791
# Poissons Ratio (y) = 0.13986 -0.19746
# Poissons Ratio (z) = 0.23279 -0.16802
#
# Static dielectric constant tensor:
#      x y z
#    x 1.409130 0.000000 0.000000 
#    y 0.000000 2.246340 0.000000 
#    z 0.000000 0.000000 1.939630 
# 
# From -- ./inp_files/3840.got.cif
#   From: 2010.05.17/outbox.cif.g08.bks.cpg/sg60_2_cif.got.tgz:3840.got - 2010.06.03 14:59:27.
