data_PCOD9456293
_publ_section_title
;
Structure prediction by ZEFSAII (Michael W. Deem and Ramdas Pophale) SiO2 
 PCOD9456293
Probable space group: P B C N
;
_chemical_formula_sum "Si O2"
_cell_formula_units_Z 64
_cell_length_a 9.834453
_cell_length_b 15.220476
_cell_length_c 16.623754
_cell_angle_alpha 90.000000
_cell_angle_beta 90.000000
_cell_angle_gamma 90.000000
_cell_volume 2488.327546
_symmetry_space_group_name_H-M "P B C N"
_symmetry_group_IT_number 60
_symmetry_cell_setting 'orthorhombic'
loop_
_space_group_symop_operation_xyz
x,y,z
1/2-x,1/2-y,1/2+z
1/2+x,1/2-y,-z
-x,y,1/2-z
-x,-y,-z
1/2+x,1/2+y,1/2-z
1/2-x,1/2+y,z
x,-y,1/2+z
loop_
_atom_site_type_symbol
_atom_site_label
_atom_site_fract_x
_atom_site_fract_y
_atom_site_fract_z
Si Si1 0.146335 0.850280 0.239209
Si Si2 0.690608 0.904746 0.589086
Si Si3 0.055309 0.353201 0.495983
Si Si4 0.944691 0.146799 0.004017
Si Si5 0.690608 0.404746 0.089086
Si Si6 0.146335 0.649720 0.239209
Si Si7 0.915894 0.142789 0.328115
Si Si8 0.415894 0.142789 0.671885
O O1 0.206239 0.849274 0.329608
O O2 0.121839 0.750000 0.210946
O O3 0.261227 0.889273 0.182222
O O4 0.000000 0.894509 0.250000
O O5 0.533713 0.902912 0.562147
O O6 0.706239 0.849274 0.670392
O O7 0.784688 0.868299 0.516765
O O8 0.750000 0.000000 0.606465
O O9 0.032252 0.250000 0.510295
O O10 0.990044 0.379498 0.410277
O O11 0.215312 0.368299 0.483235
O O12 0.009956 0.120501 0.089723
O O13 0.033713 0.097088 0.937853
O O14 0.261227 0.610727 0.182222
O O15 0.000000 0.605491 0.250000
O O16 0.910282 0.250000 0.325233
O O17 0.000000 0.113927 0.250000
O O18 0.500000 0.113927 0.750000
#
# Coordination Sequence:
#
# PCOD9456293 Si02
#       8
#     8   8   8   8   8   8   8   8
#     4  10  21  40  66  94 125 164 224 278 315 385
#     4  12  26  44  61  98 138 174 211 273 343 393
#     4  11  23  42  70  94 124 175 227 267 318 397
#     4  11  23  42  70  94 124 175 227 267 318 397
#     4  12  26  44  61  98 138 174 211 273 343 393
#     4  10  21  40  66  94 125 164 224 278 315 385
#     4   9  17  35  63  92 117 157 215 274 319 366
#     4   9  17  35  63  92 117 157 215 274 319 366
#
# _framework density 25.720088000000001
#
# number of rings (size 3 to 8) (size 9 to 14) (size 15 to 20)
#    0.000    1.500    2.500    3.000    3.500    0.000 
#    4.500    0.000    0.000    0.000    0.000    0.000 
#    0.000    0.000    0.000    0.000    0.000    0.000 
#
# Total GULP energy -358302.711779 kJ/mol
# GULP energy per Si atom -5598.479872 kJ/mol
# Density = 2.566155 g / cm^3
# Si number density = 25.720088 Si / 1000 Ang^3
#
#
#
# Elastic Constant Matrix: (Units=GPa)
#
#
# Indices 1 2 3 4 5 6 
#
# 1 129.1591 1.2155 -1.9501 0.0000 0.0000 0.0000
# 2 1.2155 87.5582 -4.7456 0.0000 0.0000 0.0000
# 3 -1.9501 -4.7456 84.3036 0.0000 0.0000 0.0000
# 4 0.0000 0.0000 0.0000 -6.4595 0.0000 0.0000
# 5 0.0000 0.0000 0.0000 0.0000 42.7126 0.0000
# 6 0.0000 0.0000 0.0000 0.0000 0.0000 20.1272
#
#
#
# Elastic Compliance Matrix: (Units=1/GPa)
#
#
# Indices 1 2 3 4 5 6 
#
# 1 0.007746 -0.000098 0.000174 0.000000 0.000000 0.000000
# 2 -0.000098 0.011457 0.000643 0.000000 0.000000 0.000000
# 3 0.000174 0.000643 0.011902 0.000000 0.000000 0.000000
# 4 0.000000 0.000000 0.000000 -0.154810 0.000000 0.000000
# 5 0.000000 0.000000 0.000000 0.000000 0.023412 0.000000
# 6 0.000000 0.000000 0.000000 0.000000 0.000000 0.049684
#
#
# Mechanical properties :
#
#
# Convention : Reuss Voigt Hill
#
# Bulk Modulus (GPa) = 30.72989 32.22895 31.47942
# Shear Modulus (GPa) = -121.36623 31.70945 -44.82839
#
# Velocity S-wave (km/s) = -6.87676 3.51503 -4.17937
# Velocity P-wave (km/s) = 7.14698 5.38811 3.32020
#
# Compressibility (1/GPa) = 0.03254161
#
# Stress axis : x y z
#
# Youngs Moduli (GPa) = 129.10003 87.28157 84.01889
#
# Poissons Ratio (x) = 0.00856 -0.01459
# Poissons Ratio (y) = 0.01267 -0.05400
# Poissons Ratio (z) = -0.02242 -0.05609
#
# Static dielectric constant tensor:
#      x y z
#    x 2.076210 0.000000 0.000000 
#    y 0.000000 1.978350 0.000000 
#    z 0.000000 0.000000 1.962750 
# 
# From -- ./inp_files/22362.got.cif
#   From: 2010.05.17/outbox.cif.g08.bks.cpg/sg60_12_cif.got.tgz:22362.got - 2010.06.03 14:59:27.
