data_PCOD9456025
_publ_section_title
;
Structure prediction by ZEFSAII (Michael W. Deem and Ramdas Pophale) SiO2 
 PCOD9456025
Probable space group: P B C N
;
_chemical_formula_sum "Si O2"
_cell_formula_units_Z 64
_cell_length_a 7.666966
_cell_length_b 13.885848
_cell_length_c 23.195692
_cell_angle_alpha 90.000000
_cell_angle_beta 90.000000
_cell_angle_gamma 90.000000
_cell_volume 2469.467289
_symmetry_space_group_name_H-M "P B C N"
_symmetry_group_IT_number 60
_symmetry_cell_setting 'orthorhombic'
loop_
_space_group_symop_operation_xyz
x,y,z
1/2-x,1/2-y,1/2+z
1/2+x,1/2-y,-z
-x,y,1/2-z
-x,-y,-z
1/2+x,1/2+y,1/2-z
1/2-x,1/2+y,z
x,-y,1/2+z
loop_
_atom_site_type_symbol
_atom_site_label
_atom_site_fract_x
_atom_site_fract_y
_atom_site_fract_z
Si Si1 0.720728 0.046699 0.174904
Si Si2 0.804355 0.317167 0.098989
Si Si3 0.323242 0.148651 0.557334
Si Si4 0.807183 0.934704 0.274382
Si Si5 0.197816 0.745337 0.773077
Si Si6 0.890890 0.376726 0.562429
Si Si7 0.424352 0.484522 0.110589
Si Si8 0.785180 0.136318 0.478090
O O1 0.752812 0.146141 0.209784
O O2 0.595137 0.064119 0.121277
O O3 0.677796 0.974162 0.226032
O O4 0.891094 0.008092 0.139605
O O5 0.762511 0.310132 0.166415
O O6 0.745876 0.208937 0.078719
O O7 0.004606 0.353893 0.096517
O O8 0.717455 0.379006 0.047040
O O9 0.328138 0.082422 0.499560
O O10 0.142319 0.119646 0.587161
O O11 0.350231 0.256004 0.533580
O O12 0.793827 0.818730 0.275490
O O13 0.794527 0.990090 0.334238
O O14 0.000000 0.956818 0.250000
O O15 0.000000 0.747674 0.750000
O O16 0.088586 0.353955 0.545424
O O17 0.388851 0.561586 0.060934
#
# Coordination Sequence:
#
# PCOD9456025 Si02
#       8
#     8   8   8   8   8   8   8   8
#     4  10  23  43  60  85 126 160 196 253 309 355
#     4   9  20  38  60  88 123 160 201 248 308 364
#     4  10  21  38  61  88 121 161 203 249 302 366
#     4  10  24  42  59  87 119 154 207 254 296 364
#     4  11  21  39  66  86 114 162 201 243 307 361
#     4   9  20  37  60  90 121 160 202 248 311 366
#     4  11  23  39  63  90 119 161 209 249 301 374
#     4  10  21  39  61  90 127 159 204 258 303 367
#
# _framework density 25.916519999999998
#
# number of rings (size 3 to 8) (size 9 to 14) (size 15 to 20)
#    0.000    2.000    0.000    3.375    0.000   11.500 
#    0.000    0.625    0.000    0.000    0.000    0.000 
#    0.000    0.000    0.000    0.000    0.000    0.000 
#
# Total GULP energy -356868.787670 kJ/mol
# GULP energy per Si atom -5576.074807 kJ/mol
# Density = 2.585753 g / cm^3
# Si number density = 25.916520 Si / 1000 Ang^3
#
#
#
# Elastic Constant Matrix: (Units=GPa)
#
#
# Indices 1 2 3 4 5 6 
#
# 1 83.8639 4.6674 -5.6112 0.0000 0.0000 0.0000
# 2 4.6674 91.3436 20.0228 0.0000 0.0000 0.0000
# 3 -5.6112 20.0228 50.8947 0.0000 0.0000 0.0000
# 4 0.0000 0.0000 0.0000 36.8823 0.0000 0.0000
# 5 0.0000 0.0000 0.0000 0.0000 32.8696 0.0000
# 6 0.0000 0.0000 0.0000 0.0000 0.0000 25.2325
#
#
#
# Elastic Compliance Matrix: (Units=1/GPa)
#
#
# Indices 1 2 3 4 5 6 
#
# 1 0.012095 -0.000996 0.001725 0.000000 0.000000 0.000000
# 2 -0.000996 0.012063 -0.004856 0.000000 0.000000 0.000000
# 3 0.001725 -0.004856 0.021749 0.000000 0.000000 0.000000
# 4 0.000000 0.000000 0.000000 0.027113 0.000000 0.000000
# 5 0.000000 0.000000 0.000000 0.000000 0.030423 0.000000
# 6 0.000000 0.000000 0.000000 0.000000 0.000000 0.039631
#
#
# Mechanical properties :
#
#
# Convention : Reuss Voigt Hill
#
# Bulk Modulus (GPa) = 26.55760 29.36225 27.95993
# Shear Modulus (GPa) = 30.51034 32.79843 31.65438
#
# Velocity S-wave (km/s) = 3.43484 3.56130 3.49864
# Velocity P-wave (km/s) = 5.09906 5.31645 5.20889
#
# Compressibility (1/GPa) = 0.03765400
#
# Stress axis : x y z
#
# Youngs Moduli (GPa) = 82.67903 82.89858 45.97932
#
# Poissons Ratio (x) = 0.08259 -0.07933
# Poissons Ratio (y) = 0.08237 0.22326
# Poissons Ratio (z) = -0.14266 0.40252
#
# Static dielectric constant tensor:
#      x y z
#    x 2.009020 0.000000 0.000000 
#    y 0.000000 2.124590 0.000000 
#    z 0.000000 0.000000 2.078620 
# 
# From -- ./inp_files/24083.got.cif
#   From: 2010.05.17/outbox.cif.g08.bks.cpg/sg60_13_cif.got.tgz:24083.got - 2010.06.03 14:59:27.
