data_PCOD9456112
_publ_section_title
;
Structure prediction by ZEFSAII (Michael W. Deem and Ramdas Pophale) SiO2 
 PCOD9456112
Probable space group: P B C N
;
_chemical_formula_sum "Si O2"
_cell_formula_units_Z 52
_cell_length_a 13.498997
_cell_length_b 22.816098
_cell_length_c 8.613557
_cell_angle_alpha 90.000000
_cell_angle_beta 90.000000
_cell_angle_gamma 90.000000
_cell_volume 2652.927651
_symmetry_space_group_name_H-M "P B C N"
_symmetry_group_IT_number 60
_symmetry_cell_setting 'orthorhombic'
loop_
_space_group_symop_operation_xyz
x,y,z
1/2-x,1/2-y,1/2+z
1/2+x,1/2-y,-z
-x,y,1/2-z
-x,-y,-z
1/2+x,1/2+y,1/2-z
1/2-x,1/2+y,z
x,-y,1/2+z
loop_
_atom_site_type_symbol
_atom_site_label
_atom_site_fract_x
_atom_site_fract_y
_atom_site_fract_z
Si Si1 0.000000 0.275468 0.750000
Si Si2 0.803733 0.080069 0.161812
Si Si3 0.000000 0.135194 0.250000
Si Si4 0.126812 0.580002 0.921561
Si Si5 0.892186 0.236628 0.438082
Si Si6 0.500000 0.164525 0.750000
Si Si7 0.796572 0.672964 0.367424
Si Si8 0.293150 0.984961 0.124881
O O1 0.940686 0.244108 0.608234
O O2 0.909356 0.309770 0.831724
O O3 0.918636 0.096515 0.162243
O O4 0.745832 0.138699 0.217234
O O5 0.780951 0.030129 0.290083
O O6 0.760892 0.054169 0.003268
O O7 0.941795 0.178420 0.365579
O O8 0.034083 0.620714 0.885465
O O9 0.160798 0.554250 0.758509
O O10 0.204705 0.625350 0.994970
O O11 0.124438 0.525840 0.040550
O O12 0.920902 0.291567 0.328101
O O13 0.774728 0.225261 0.422363
#
# Coordination Sequence:
#
# PCOD9456112 Si02
#       8
#     4   8   4   8   8   4   8   8
#     4  12  24  40  65  93 123 169 216 246 324 378
#     4   9  19  37  60  86 124 161 205 268 311 379
#     4   9  20  40  58  85 125 164 208 259 326 370
#     4  10  21  39  59  87 121 160 205 258 314 377
#     4  10  24  40  60  92 126 163 210 261 311 391
#     4  11  22  40  59  88 122 163 204 253 324 382
#     4  10  23  40  60  90 127 162 208 260 312 385
#     4   9  20  37  59  88 117 163 211 261 322 367
#
# _framework density 19.600988000000001
#
# number of rings (size 3 to 8) (size 9 to 14) (size 15 to 20)
#    0.000    2.154    1.538    0.000    4.308    3.692 
#    0.000    5.385    0.000    0.000    0.000    0.000 
#    0.000    0.000    0.000    0.000    0.000    0.000 
#
# Total GULP energy -289783.620321 kJ/mol
# GULP energy per Si atom -5572.761929 kJ/mol
# Density = 1.955638 g / cm^3
# Si number density = 19.600988 Si / 1000 Ang^3
#
#
#
# Elastic Constant Matrix: (Units=GPa)
#
#
# Indices 1 2 3 4 5 6 
#
# 1 100.3843 49.8298 26.8670 0.0000 0.0000 0.0000
# 2 49.8298 91.1102 43.3532 0.0000 0.0000 0.0000
# 3 26.8670 43.3532 108.8684 0.0000 0.0000 0.0000
# 4 0.0000 0.0000 0.0000 11.0287 0.0000 0.0000
# 5 0.0000 0.0000 0.0000 0.0000 16.0118 0.0000
# 6 0.0000 0.0000 0.0000 0.0000 0.0000 29.1996
#
#
#
# Elastic Compliance Matrix: (Units=1/GPa)
#
#
# Indices 1 2 3 4 5 6 
#
# 1 0.013695 -0.007257 -0.000490 0.000000 0.000000 0.000000
# 2 -0.007257 0.017387 -0.005133 0.000000 0.000000 0.000000
# 3 -0.000490 -0.005133 0.011350 0.000000 0.000000 0.000000
# 4 0.000000 0.000000 0.000000 0.090672 0.000000 0.000000
# 5 0.000000 0.000000 0.000000 0.000000 0.062454 0.000000
# 6 0.000000 0.000000 0.000000 0.000000 0.000000 0.034247
#
#
# Mechanical properties :
#
#
# Convention : Reuss Voigt Hill
#
# Bulk Modulus (GPa) = 59.97745 60.05144 60.01444
# Shear Modulus (GPa) = 19.14807 23.26889 21.20848
#
# Velocity S-wave (km/s) = 3.12892 3.44921 3.29296
# Velocity P-wave (km/s) = 6.61205 6.82394 6.71883
#
# Compressibility (1/GPa) = 0.01667293
#
# Stress axis : x y z
#
# Youngs Moduli (GPa) = 73.01855 57.51386 88.10335
#
# Poissons Ratio (x) = 0.41738 0.04316
# Poissons Ratio (y) = 0.52990 0.45223
# Poissons Ratio (z) = 0.03577 0.29521
#
# Static dielectric constant tensor:
#      x y z
#    x 1.752910 0.000000 0.000000 
#    y 0.000000 1.694610 0.000000 
#    z 0.000000 0.000000 1.703270 
# 
# From -- ./inp_files/6113.got.cif
#   From: 2010.05.17/outbox.cif.g08.bks.cpg/sg60_4_cif.got.tgz:6113.got - 2010.06.03 14:59:27.
