data_PCOD9456493
_publ_section_title
;
Structure prediction by ZEFSAII (Michael W. Deem and Ramdas Pophale) SiO2 
 PCOD9456493
Probable space group: P B C N
;
_chemical_formula_sum "Si O2"
_cell_formula_units_Z 40
_cell_length_a 20.880476
_cell_length_b 5.470128
_cell_length_c 14.800742
_cell_angle_alpha 90.000000
_cell_angle_beta 90.000000
_cell_angle_gamma 90.000000
_cell_volume 1690.524121
_symmetry_space_group_name_H-M "P B C N"
_symmetry_group_IT_number 60
_symmetry_cell_setting 'orthorhombic'
loop_
_space_group_symop_operation_xyz
x,y,z
1/2-x,1/2-y,1/2+z
1/2+x,1/2-y,-z
-x,y,1/2-z
-x,-y,-z
1/2+x,1/2+y,1/2-z
1/2-x,1/2+y,z
x,-y,1/2+z
loop_
_atom_site_type_symbol
_atom_site_label
_atom_site_fract_x
_atom_site_fract_y
_atom_site_fract_z
Si Si1 0.652312 0.902981 0.817554
Si Si2 0.560346 0.881259 0.447879
Si Si3 0.974834 0.939573 0.649199
Si Si4 0.103806 0.436144 0.873693
Si Si5 0.759390 0.876805 0.431011
O O1 0.583732 0.984725 0.857066
O O2 0.705278 0.095217 0.853025
O O3 0.651165 0.893934 0.709989
O O4 0.675573 0.666375 0.874082
O O5 0.534235 0.618834 0.417412
O O6 0.618096 0.910833 0.519445
O O7 0.500000 0.000000 0.500000
O O8 0.926311 0.708026 0.638656
O O9 0.000000 0.930508 0.750000
O O10 0.943447 0.201994 0.635474
O O11 0.744586 0.628824 0.483378
#
# Coordination Sequence:
#
# PCOD9456493 Si02
#       5
#     8   8   8   8   8
#     4  10  21  43  67  90 129 170 222 275 339 388
#     4  10  23  42  61 100 135 174 216 268 330 409
#     4  11  22  39  60  90 130 170 209 253 321 396
#     4  11  24  39  62  92 126 172 208 270 317 393
#     4   8  20  39  65  89 116 166 220 274 331 384
#
# _framework density 23.661297999999999
#
# number of rings (size 3 to 8) (size 9 to 14) (size 15 to 20)
#    1.200    0.800    2.000    1.200    5.600    0.000 
#    7.200    2.000    0.000    0.000    0.000    0.000 
#    0.000    0.000    0.000    0.000    0.000    0.000 
#
# Total GULP energy -222728.591438 kJ/mol
# GULP energy per Si atom -5568.214786 kJ/mol
# Density = 2.360744 g / cm^3
# Si number density = 23.661298 Si / 1000 Ang^3
#
#
#
# Elastic Constant Matrix: (Units=GPa)
#
#
# Indices 1 2 3 4 5 6 
#
# 1 63.1567 23.1910 -3.0041 0.0000 0.0000 0.0000
# 2 23.1910 133.4072 -5.9081 0.0000 0.0000 0.0000
# 3 -3.0041 -5.9081 86.6841 0.0000 0.0000 0.0000
# 4 0.0000 0.0000 0.0000 17.2266 0.0000 0.0000
# 5 0.0000 0.0000 0.0000 0.0000 20.0197 0.0000
# 6 0.0000 0.0000 0.0000 0.0000 0.0000 35.4621
#
#
#
# Elastic Compliance Matrix: (Units=1/GPa)
#
#
# Indices 1 2 3 4 5 6 
#
# 1 0.016926 -0.002925 0.000387 0.000000 0.000000 0.000000
# 2 -0.002925 0.008024 0.000446 0.000000 0.000000 0.000000
# 3 0.000387 0.000446 0.011580 0.000000 0.000000 0.000000
# 4 0.000000 0.000000 0.000000 0.058050 0.000000 0.000000
# 5 0.000000 0.000000 0.000000 0.000000 0.049951 0.000000
# 6 0.000000 0.000000 0.000000 0.000000 0.000000 0.028199
#
#
# Mechanical properties :
#
#
# Convention : Reuss Voigt Hill
#
# Bulk Modulus (GPa) = 30.91647 34.64505 32.78076
# Shear Modulus (GPa) = 26.63872 32.47295 29.55584
#
# Velocity S-wave (km/s) = 3.35899 3.70862 3.53813
# Velocity P-wave (km/s) = 5.30456 5.74564 5.52950
#
# Compressibility (1/GPa) = 0.03234522
#
# Stress axis : x y z
#
# Youngs Moduli (GPa) = 59.08007 124.62474 86.35630
#
# Poissons Ratio (x) = 0.36456 -0.03344
# Poissons Ratio (y) = 0.17282 -0.03847
# Poissons Ratio (z) = -0.02288 -0.05552
#
# Static dielectric constant tensor:
#      x y z
#    x 1.980760 0.000000 0.000000 
#    y 0.000000 1.957940 0.000000 
#    z 0.000000 0.000000 1.903750 
# 
# From -- ./inp_files/17825.got.cif
#   From: 2010.05.17/outbox.cif.g08.bks.cpg/sg60_9_cif.got.tgz:17825.got - 2010.06.03 14:59:27.
