data_PCOD9456865
_publ_section_title
;
Structure prediction by ZEFSAII (Michael W. Deem and Ramdas Pophale) SiO2 
 PCOD9456865
Probable space group: P B C N
;
_chemical_formula_sum "Si O2"
_cell_formula_units_Z 64
_cell_length_a 19.040744
_cell_length_b 9.349872
_cell_length_c 17.620084
_cell_angle_alpha 90.000000
_cell_angle_beta 90.000000
_cell_angle_gamma 90.000000
_cell_volume 3136.877462
_symmetry_space_group_name_H-M "P B C N"
_symmetry_group_IT_number 60
_symmetry_cell_setting 'orthorhombic'
loop_
_space_group_symop_operation_xyz
x,y,z
1/2-x,1/2-y,1/2+z
1/2+x,1/2-y,-z
-x,y,1/2-z
-x,-y,-z
1/2+x,1/2+y,1/2-z
1/2-x,1/2+y,z
x,-y,1/2+z
loop_
_atom_site_type_symbol
_atom_site_label
_atom_site_fract_x
_atom_site_fract_y
_atom_site_fract_z
Si Si1 0.006429 0.618317 0.164852
Si Si2 0.482325 0.181662 0.615265
Si Si3 0.145516 0.942314 0.477828
Si Si4 0.635636 0.314224 0.636242
Si Si5 0.592902 0.877996 0.533587
Si Si6 0.198270 0.363756 0.494809
Si Si7 0.386522 0.658859 0.599894
Si Si8 0.579495 0.423471 0.786607
O O1 0.035242 0.456687 0.166245
O O2 0.052619 0.727555 0.116361
O O3 0.000000 0.672103 0.250000
O O4 0.934946 0.599579 0.118231
O O5 0.561772 0.236141 0.619534
O O6 0.466918 0.132438 0.530312
O O7 0.435613 0.310705 0.646333
O O8 0.124308 0.779782 0.469101
O O9 0.225579 0.931680 0.505934
O O10 0.139585 0.028150 0.399780
O O11 0.100141 0.040639 0.534766
O O12 0.691270 0.222624 0.585918
O O13 0.630011 0.345593 0.725693
O O14 0.644635 0.004230 0.509882
O O15 0.175723 0.254259 0.562116
O O16 0.384626 0.563676 0.676685
O O17 0.500000 0.450111 0.750000
#
# Coordination Sequence:
#
# PCOD9456865 Si02
#       8
#     8   8   8   8   8   8   8   8
#     4  12  25  38  65 100 133 164 204 272 342 398
#     4  11  21  41  66  98 127 169 204 264 334 390
#     4  11  25  41  66  89 123 174 223 266 308 371
#     4  10  22  41  66  94 130 163 208 270 325 384
#     4  12  22  39  66  92 126 168 222 263 320 389
#     4  11  23  45  65  87 127 176 226 262 305 378
#     4  11  23  42  65  95 128 164 217 266 320 385
#     4  10  22  40  66  99 136 158 198 269 347 391
#
# _framework density 20.402453999999999
#
# number of rings (size 3 to 8) (size 9 to 14) (size 15 to 20)
#    0.000    1.000    3.750    4.875    5.250    1.000 
#    0.000    1.250    2.750    0.000    0.000    0.000 
#    0.000    0.000    0.000    0.000    0.000    0.000 
#
# Total GULP energy -356830.869425 kJ/mol
# GULP energy per Si atom -5575.482335 kJ/mol
# Density = 2.035602 g / cm^3
# Si number density = 20.402454 Si / 1000 Ang^3
#
#
#
# Elastic Constant Matrix: (Units=GPa)
#
#
# Indices 1 2 3 4 5 6 
#
# 1 24.3824 28.6213 16.4463 0.0000 0.0000 0.0000
# 2 28.6213 141.6545 28.3020 0.0000 0.0000 0.0000
# 3 16.4463 28.3020 82.6212 0.0000 0.0000 0.0000
# 4 0.0000 0.0000 0.0000 0.3208 0.0000 0.0000
# 5 0.0000 0.0000 0.0000 0.0000 4.0504 0.0000
# 6 0.0000 0.0000 0.0000 0.0000 0.0000 28.8971
#
#
#
# Elastic Compliance Matrix: (Units=1/GPa)
#
#
# Indices 1 2 3 4 5 6 
#
# 1 0.058465 -0.010185 -0.008149 0.000000 0.000000 0.000000
# 2 -0.010185 0.009352 -0.001176 0.000000 0.000000 0.000000
# 3 -0.008149 -0.001176 0.014129 0.000000 0.000000 0.000000
# 4 0.000000 0.000000 0.000000 3.117260 0.000000 0.000000
# 5 0.000000 0.000000 0.000000 0.000000 0.246889 0.000000
# 6 0.000000 0.000000 0.000000 0.000000 0.000000 0.034606
#
#
# Mechanical properties :
#
#
# Convention : Reuss Voigt Hill
#
# Bulk Modulus (GPa) = 23.29608 43.93305 33.61457
# Shear Modulus (GPa) = 1.41482 18.33956 9.87719
#
# Velocity S-wave (km/s) = 0.83364 3.00140 2.20265
# Velocity P-wave (km/s) = 3.51705 5.79579 4.79379
#
# Compressibility (1/GPa) = 0.04292567
#
# Stress axis : x y z
#
# Youngs Moduli (GPa) = 17.10422 106.92592 70.77889
#
# Poissons Ratio (x) = 1.08901 0.57678
# Poissons Ratio (y) = 0.17420 0.08326
# Poissons Ratio (z) = 0.13938 0.12578
#
# Static dielectric constant tensor:
#      x y z
#    x 1.736850 0.000000 0.000000 
#    y 0.000000 1.771320 0.000000 
#    z 0.000000 0.000000 1.727370 
# 
# From -- ./inp_files/21056.got.cif
#   From: 2010.05.17/outbox.cif.g08.bks.cpg/sg60_11_cif.got.tgz:21056.got - 2010.06.03 14:59:27.
