data_PCOD9456516
_publ_section_title
;
Structure prediction by ZEFSAII (Michael W. Deem and Ramdas Pophale) SiO2 
 PCOD9456516
Probable space group: P B C N
;
_chemical_formula_sum "Si O2"
_cell_formula_units_Z 36
_cell_length_a 5.060919
_cell_length_b 22.715293
_cell_length_c 12.575563
_cell_angle_alpha 90.000000
_cell_angle_beta 90.000000
_cell_angle_gamma 90.000000
_cell_volume 1445.689966
_symmetry_space_group_name_H-M "P B C N"
_symmetry_group_IT_number 60
_symmetry_cell_setting 'orthorhombic'
loop_
_space_group_symop_operation_xyz
x,y,z
1/2-x,1/2-y,1/2+z
1/2+x,1/2-y,-z
-x,y,1/2-z
-x,-y,-z
1/2+x,1/2+y,1/2-z
1/2-x,1/2+y,z
x,-y,1/2+z
loop_
_atom_site_type_symbol
_atom_site_label
_atom_site_fract_x
_atom_site_fract_y
_atom_site_fract_z
Si Si1 0.246431 0.466569 0.175988
Si Si2 0.500000 0.745100 0.750000
Si Si3 0.644314 0.836357 0.591343
Si Si4 0.370552 0.410801 0.632570
Si Si5 0.861938 0.665233 0.864791
O O1 0.500000 0.453115 0.250000
O O2 0.321139 0.521323 0.101362
O O3 0.161888 0.405207 0.124544
O O4 0.000000 0.486007 0.250000
O O5 0.690746 0.788911 0.684287
O O6 0.601416 0.702183 0.841477
O O7 0.409471 0.878794 0.630026
O O8 0.539439 0.812106 0.478255
O O9 0.913968 0.872133 0.571108
O O10 0.500000 0.414506 0.750000
O O11 0.000000 0.673707 0.750000
#
# Coordination Sequence:
#
# PCOD9456516 Si02
#       5
#     8   4   8   8   8
#     4  10  21  43  74 106 151 189 235 301 372 440
#     4  12  28  50  70 106 146 200 248 312 346 448
#     4  12  28  45  79 107 144 193 247 299 371 425
#     4  11  22  46  73 112 144 186 237 309 364 442
#     4  11  29  48  73 107 150 197 246 302 368 438
#
# _framework density 24.901606000000001
#
# number of rings (size 3 to 8) (size 9 to 14) (size 15 to 20)
#    0.000    0.889    3.333    2.667    9.333    1.778 
#    0.000    0.000    0.000    0.000    0.000    0.000 
#    0.000    0.000    0.000    0.000    0.000    0.000 
#
# Total GULP energy -201110.118070 kJ/mol
# GULP energy per Si atom -5586.392169 kJ/mol
# Density = 2.484493 g / cm^3
# Si number density = 24.901606 Si / 1000 Ang^3
#
#
#
# Elastic Constant Matrix: (Units=GPa)
#
#
# Indices 1 2 3 4 5 6 
#
# 1 92.5310 17.2812 -6.8776 0.0000 0.0000 0.0000
# 2 17.2812 117.4095 24.8444 0.0000 0.0000 0.0000
# 3 -6.8776 24.8444 109.2759 0.0000 0.0000 0.0000
# 4 0.0000 0.0000 0.0000 158.8359 0.0000 0.0000
# 5 0.0000 0.0000 0.0000 0.0000 35.0086 0.0000
# 6 0.0000 0.0000 0.0000 0.0000 0.0000 17.8590
#
#
#
# Elastic Compliance Matrix: (Units=1/GPa)
#
#
# Indices 1 2 3 4 5 6 
#
# 1 0.011246 -0.001896 0.001139 0.000000 0.000000 0.000000
# 2 -0.001896 0.009267 -0.002226 0.000000 0.000000 0.000000
# 3 0.001139 -0.002226 0.009729 0.000000 0.000000 0.000000
# 4 0.000000 0.000000 0.000000 0.006296 0.000000 0.000000
# 5 0.000000 0.000000 0.000000 0.000000 0.028564 0.000000
# 6 0.000000 0.000000 0.000000 0.000000 0.000000 0.055994
#
#
# Mechanical properties :
#
#
# Convention : Reuss Voigt Hill
#
# Bulk Modulus (GPa) = 41.19462 43.30141 42.24802
# Shear Modulus (GPa) = 36.99434 61.27193 49.13313
#
# Velocity S-wave (km/s) = 3.85856 4.96579 4.44677
# Velocity P-wave (km/s) = 6.03574 7.09263 6.58542
#
# Compressibility (1/GPa) = 0.02427501
#
# Stress axis : x y z
#
# Youngs Moduli (GPa) = 88.92058 107.90500 102.78553
#
# Poissons Ratio (x) = 0.20462 -0.11706
# Poissons Ratio (y) = 0.16862 0.22884
# Poissons Ratio (z) = -0.10127 0.24023
#
# Static dielectric constant tensor:
#      x y z
#    x 2.052100 0.000000 0.000000 
#    y 0.000000 1.949510 0.000000 
#    z 0.000000 0.000000 1.977280 
# 
# From -- ./inp_files/13732.got.cif
#   From: 2010.05.17/outbox.cif.g08.bks.cpg/sg60_7_cif.got.tgz:13732.got - 2010.06.03 14:59:27.
