data_PCOD9456706
_publ_section_title
;
Structure prediction by ZEFSAII (Michael W. Deem and Ramdas Pophale) SiO2 
 PCOD9456706
Probable space group: P B C N
;
_chemical_formula_sum "Si O2"
_cell_formula_units_Z 40
_cell_length_a 17.384861
_cell_length_b 17.283130
_cell_length_c 5.655404
_cell_angle_alpha 90.000000
_cell_angle_beta 90.000000
_cell_angle_gamma 90.000000
_cell_volume 1699.249904
_symmetry_space_group_name_H-M "P B C N"
_symmetry_group_IT_number 60
_symmetry_cell_setting 'orthorhombic'
loop_
_space_group_symop_operation_xyz
x,y,z
1/2-x,1/2-y,1/2+z
1/2+x,1/2-y,-z
-x,y,1/2-z
-x,-y,-z
1/2+x,1/2+y,1/2-z
1/2-x,1/2+y,z
x,-y,1/2+z
loop_
_atom_site_type_symbol
_atom_site_label
_atom_site_fract_x
_atom_site_fract_y
_atom_site_fract_z
Si Si1 0.247304 0.459637 0.283917
Si Si2 0.292482 0.671022 0.487479
Si Si3 0.860305 0.693723 0.253335
Si Si4 0.420471 0.104836 0.851459
Si Si5 0.580911 0.718550 0.347781
O O1 0.264204 0.488082 0.550550
O O2 0.297070 0.384235 0.213720
O O3 0.155582 0.442590 0.290754
O O4 0.305220 0.759264 0.566473
O O5 0.205651 0.656384 0.405245
O O6 0.353677 0.666856 0.275579
O O7 0.912903 0.629057 0.372850
O O8 0.908130 0.761399 0.123280
O O9 0.500000 0.071390 0.750000
O O10 0.415517 0.191623 0.741534
O O11 0.500000 0.689032 0.250000
#
# Coordination Sequence:
#
# PCOD9456706 Si02
#       5
#     8   8   8   8   8
#     4  12  27  44  64  94 133 189 241 271 315 392
#     4  11  21  38  65  96 128 170 219 277 332 400
#     4  11  19  38  70  96 132 170 211 283 357 403
#     4  10  23  40  60  96 134 173 215 276 335 399
#     4  10  22  38  65 105 129 160 205 279 366 407
#
# _framework density 23.539798000000001
#
# number of rings (size 3 to 8) (size 9 to 14) (size 15 to 20)
#    0.000    1.200    4.000    2.400    2.800    8.000 
#    0.000    0.000    0.000    1.200    0.000    0.000 
#    0.000    0.000    0.000    0.000    0.000    0.000 
#
# Total GULP energy -222947.046445 kJ/mol
# GULP energy per Si atom -5573.676161 kJ/mol
# Density = 2.348622 g / cm^3
# Si number density = 23.539798 Si / 1000 Ang^3
#
#
#
# Elastic Constant Matrix: (Units=GPa)
#
#
# Indices 1 2 3 4 5 6 
#
# 1 112.4232 13.1026 53.1394 0.0000 0.0000 0.0000
# 2 13.1026 44.0578 24.1653 0.0000 0.0000 0.0000
# 3 53.1394 24.1653 113.8959 0.0000 0.0000 0.0000
# 4 0.0000 0.0000 0.0000 42.0689 0.0000 0.0000
# 5 0.0000 0.0000 0.0000 0.0000 24.5645 0.0000
# 6 0.0000 0.0000 0.0000 0.0000 0.0000 26.1479
#
#
#
# Elastic Compliance Matrix: (Units=1/GPa)
#
#
# Indices 1 2 3 4 5 6 
#
# 1 0.011423 -0.000536 -0.005216 0.000000 0.000000 0.000000
# 2 -0.000536 0.025712 -0.005205 0.000000 0.000000 0.000000
# 3 -0.005216 -0.005205 0.012318 0.000000 0.000000 0.000000
# 4 0.000000 0.000000 0.000000 0.023771 0.000000 0.000000
# 5 0.000000 0.000000 0.000000 0.000000 0.040709 0.000000
# 6 0.000000 0.000000 0.000000 0.000000 0.000000 0.038244
#
#
# Mechanical properties :
#
#
# Convention : Reuss Voigt Hill
#
# Bulk Modulus (GPa) = 36.31306 50.13240 43.22273
# Shear Modulus (GPa) = 27.28221 30.55422 28.91821
#
# Velocity S-wave (km/s) = 3.40808 3.60666 3.50877
# Velocity P-wave (km/s) = 5.56295 6.21990 5.90057
#
# Compressibility (1/GPa) = 0.02753830
#
# Stress axis : x y z
#
# Youngs Moduli (GPa) = 87.54452 38.89246 81.18386
#
# Poissons Ratio (x) = 0.02086 0.42342
# Poissons Ratio (y) = 0.04696 0.42257
# Poissons Ratio (z) = 0.45660 0.20244
#
# Static dielectric constant tensor:
#      x y z
#    x 1.915540 0.000000 0.000000 
#    y 0.000000 1.903010 0.000000 
#    z 0.000000 0.000000 2.258820 
# 
# From -- ./inp_files/1634.got.cif
#   From: 2010.05.17/outbox.cif.g08.bks.cpg/sg60_1_cif.got.tgz:1634.got - 2010.06.03 14:59:27.
