data_PCOD9456965
_publ_section_title
;
Structure prediction by ZEFSAII (Michael W. Deem and Ramdas Pophale) SiO2 
 PCOD9456965
Probable space group: P B C N
;
_chemical_formula_sum "Si O2"
_cell_formula_units_Z 48
_cell_length_a 8.205129
_cell_length_b 29.551202
_cell_length_c 8.522994
_cell_angle_alpha 90.000000
_cell_angle_beta 90.000000
_cell_angle_gamma 90.000000
_cell_volume 2066.582496
_symmetry_space_group_name_H-M "P B C N"
_symmetry_group_IT_number 60
_symmetry_cell_setting 'orthorhombic'
loop_
_space_group_symop_operation_xyz
x,y,z
1/2-x,1/2-y,1/2+z
1/2+x,1/2-y,-z
-x,y,1/2-z
-x,-y,-z
1/2+x,1/2+y,1/2-z
1/2-x,1/2+y,z
x,-y,1/2+z
loop_
_atom_site_type_symbol
_atom_site_label
_atom_site_fract_x
_atom_site_fract_y
_atom_site_fract_z
Si Si1 0.763186 0.609226 0.625611
Si Si2 0.818737 0.016863 0.473835
Si Si3 0.760794 0.775064 0.368240
Si Si4 0.630707 0.864728 0.464973
Si Si5 0.824544 0.556185 0.169538
Si Si6 0.877179 0.802455 0.035229
O O1 0.720784 0.557987 0.590659
O O2 0.769800 0.619390 0.810616
O O3 0.639619 0.643633 0.540015
O O4 0.943771 0.620357 0.560269
O O5 0.795716 0.037228 0.301200
O O6 0.698171 0.975622 0.517521
O O7 0.000000 0.000000 0.500000
O O8 0.645389 0.810642 0.459804
O O9 0.769300 0.786903 0.185264
O O10 0.699807 0.724376 0.391628
O O11 0.940621 0.785569 0.433877
O O12 0.696101 0.892154 0.613959
O O13 0.000000 0.551644 0.250000
#
# Coordination Sequence:
#
# PCOD9456965 Si02
#       6
#     8   8   8   8   8   8
#     4  10  22  42  67  95 133 177 223 276 336 396
#     4  12  27  44  66  98 135 174 224 281 339 398
#     4  10  22  41  66  99 133 175 220 271 331 398
#     4  10  22  41  69  97 131 176 224 274 331 403
#     4  12  25  45  68  97 130 175 224 272 335 404
#     4  10  22  41  66  97 134 173 220 272 333 396
#
# _framework density 23.226752999999999
#
# number of rings (size 3 to 8) (size 9 to 14) (size 15 to 20)
#    0.000    1.333    1.667    3.000    4.667    3.333 
#    6.000    0.000    0.000    0.000    0.000    0.000 
#    0.000    0.000    0.000    0.000    0.000    0.000 
#
# Total GULP energy -268667.202956 kJ/mol
# GULP energy per Si atom -5597.233395 kJ/mol
# Density = 2.317389 g / cm^3
# Si number density = 23.226753 Si / 1000 Ang^3
#
#
#
# Elastic Constant Matrix: (Units=GPa)
#
#
# Indices 1 2 3 4 5 6 
#
# 1 69.2945 22.1928 11.3267 0.0000 0.0000 0.0000
# 2 22.1928 67.2410 -6.1677 0.0000 0.0000 0.0000
# 3 11.3267 -6.1677 54.3787 0.0000 0.0000 0.0000
# 4 0.0000 0.0000 0.0000 40.3574 0.0000 0.0000
# 5 0.0000 0.0000 0.0000 0.0000 26.8949 0.0000
# 6 0.0000 0.0000 0.0000 0.0000 0.0000 32.7893
#
#
#
# Elastic Compliance Matrix: (Units=1/GPa)
#
#
# Indices 1 2 3 4 5 6 
#
# 1 0.017050 -0.006016 -0.004234 0.000000 0.000000 0.000000
# 2 -0.006016 0.017151 0.003198 0.000000 0.000000 0.000000
# 3 -0.004234 0.003198 0.019634 0.000000 0.000000 0.000000
# 4 0.000000 0.000000 0.000000 0.024779 0.000000 0.000000
# 5 0.000000 0.000000 0.000000 0.000000 0.037182 0.000000
# 6 0.000000 0.000000 0.000000 0.000000 0.000000 0.030498
#
#
# Mechanical properties :
#
#
# Convention : Reuss Voigt Hill
#
# Bulk Modulus (GPa) = 25.16825 27.29090 26.22958
# Shear Modulus (GPa) = 28.79538 30.91247 29.85393
#
# Velocity S-wave (km/s) = 3.52483 3.65211 3.58903
# Velocity P-wave (km/s) = 5.23692 5.43683 5.33781
#
# Compressibility (1/GPa) = 0.03973259
#
# Stress axis : x y z
#
# Youngs Moduli (GPa) = 58.65177 58.30677 50.93169
#
# Poissons Ratio (x) = 0.35075 0.21563
# Poissons Ratio (y) = 0.35283 -0.16289
# Poissons Ratio (z) = 0.24831 -0.18648
#
# Static dielectric constant tensor:
#      x y z
#    x 1.862040 0.000000 0.000000 
#    y 0.000000 1.853060 0.000000 
#    z 0.000000 0.000000 1.901650 
# 
# From -- ./inp_files/4250.got.cif
#   From: 2010.05.17/outbox.cif.g08.bks.cpg/sg60_3_cif.got.tgz:4250.got - 2010.06.03 14:59:27.
