data_PCOD9456632
_publ_section_title
;
Structure prediction by ZEFSAII (Michael W. Deem and Ramdas Pophale) SiO2 
 PCOD9456632
Probable space group: P B C N
;
_chemical_formula_sum "Si O2"
_cell_formula_units_Z 48
_cell_length_a 16.390429
_cell_length_b 12.983094
_cell_length_c 9.632404
_cell_angle_alpha 90.000000
_cell_angle_beta 90.000000
_cell_angle_gamma 90.000000
_cell_volume 2049.760934
_symmetry_space_group_name_H-M "P B C N"
_symmetry_group_IT_number 60
_symmetry_cell_setting 'orthorhombic'
loop_
_space_group_symop_operation_xyz
x,y,z
1/2-x,1/2-y,1/2+z
1/2+x,1/2-y,-z
-x,y,1/2-z
-x,-y,-z
1/2+x,1/2+y,1/2-z
1/2-x,1/2+y,z
x,-y,1/2+z
loop_
_atom_site_type_symbol
_atom_site_label
_atom_site_fract_x
_atom_site_fract_y
_atom_site_fract_z
Si Si1 0.500000 0.389823 0.750000
Si Si2 0.937757 0.616163 0.049383
Si Si3 0.146399 0.745089 0.655746
Si Si4 0.877560 0.944937 0.180521
Si Si5 0.885150 0.467212 0.291493
Si Si6 0.272029 0.437188 0.595293
Si Si7 0.500000 0.266021 0.250000
O O1 0.566263 0.315749 0.821199
O O2 0.552489 0.467471 0.653245
O O3 0.903819 0.544271 0.169596
O O4 0.005502 0.689729 0.117532
O O5 0.865502 0.691196 0.993331
O O6 0.956988 0.561345 0.901686
O O7 0.145776 0.646000 0.755982
O O8 0.220956 0.822563 0.659137
O O9 0.815865 0.934586 0.052990
O O10 0.924254 0.841179 0.222272
O O11 0.827050 0.988325 0.309699
O O12 0.817778 0.519179 0.390537
#
# Coordination Sequence:
#
# PCOD9456632 Si02
#       7
#     4   8   8   8   8   8   4
#     4   9  20  39  64  98 130 165 222 259 326 384
#     4  10  23  44  64  91 126 173 210 270 321 386
#     4   9  22  42  65  89 131 168 213 266 320 382
#     4  10  22  36  70  97 128 168 209 278 320 374
#     4  10  23  43  62  93 126 172 215 259 320 390
#     4  11  21  42  65  96 129 167 216 265 322 388
#     4  11  22  41  62  96 130 161 216 261 330 376
#
# _framework density 23.417366000000001
#
# number of rings (size 3 to 8) (size 9 to 14) (size 15 to 20)
#    1.000    1.000    1.667    1.000    2.333    4.667 
#    6.000    0.000    0.000    0.000    0.000    0.000 
#    0.000    0.000    0.000    0.000    0.000    0.000 
#
# Total GULP energy -267861.382256 kJ/mol
# GULP energy per Si atom -5580.445464 kJ/mol
# Density = 2.336407 g / cm^3
# Si number density = 23.417366 Si / 1000 Ang^3
#
#
#
# Elastic Constant Matrix: (Units=GPa)
#
#
# Indices 1 2 3 4 5 6 
#
# 1 51.2825 43.4978 6.6517 0.0000 0.0000 0.0000
# 2 43.4978 158.3579 52.0486 0.0000 0.0000 0.0000
# 3 6.6517 52.0486 95.5802 0.0000 0.0000 0.0000
# 4 0.0000 0.0000 0.0000 41.0437 0.0000 0.0000
# 5 0.0000 0.0000 0.0000 0.0000 30.5795 0.0000
# 6 0.0000 0.0000 0.0000 0.0000 0.0000 20.4631
#
#
#
# Elastic Compliance Matrix: (Units=1/GPa)
#
#
# Indices 1 2 3 4 5 6 
#
# 1 0.025914 -0.007948 0.002525 0.000000 0.000000 0.000000
# 2 -0.007948 0.010129 -0.004963 0.000000 0.000000 0.000000
# 3 0.002525 -0.004963 0.012989 0.000000 0.000000 0.000000
# 4 0.000000 0.000000 0.000000 0.024364 0.000000 0.000000
# 5 0.000000 0.000000 0.000000 0.000000 0.032702 0.000000
# 6 0.000000 0.000000 0.000000 0.000000 0.000000 0.048868
#
#
# Mechanical properties :
#
#
# Convention : Reuss Voigt Hill
#
# Bulk Modulus (GPa) = 35.38557 56.62410 46.00484
# Shear Modulus (GPa) = 27.00398 31.95210 29.47804
#
# Velocity S-wave (km/s) = 3.39951 3.69787 3.55182
# Velocity P-wave (km/s) = 5.52743 6.51653 6.04225
#
# Compressibility (1/GPa) = 0.02826011
#
# Stress axis : x y z
#
# Youngs Moduli (GPa) = 38.58975 98.72626 76.98713
#
# Poissons Ratio (x) = 0.78465 -0.19436
# Poissons Ratio (y) = 0.30670 0.38206
# Poissons Ratio (z) = -0.09742 0.48995
#
# Static dielectric constant tensor:
#      x y z
#    x 1.950970 0.000000 0.000000 
#    y 0.000000 1.949530 0.000000 
#    z 0.000000 0.000000 1.888980 
# 
# From -- ./inp_files/12434.got.cif
#   From: 2010.05.17/outbox.cif.g08.bks.cpg/sg60_7_cif.got.tgz:12434.got - 2010.06.03 14:59:27.
