data_PCOD9456215
_publ_section_title
;
Structure prediction by ZEFSAII (Michael W. Deem and Ramdas Pophale) SiO2 
 PCOD9456215
Probable space group: P B C N
;
_chemical_formula_sum "Si O2"
_cell_formula_units_Z 56
_cell_length_a 19.416156
_cell_length_b 8.816747
_cell_length_c 13.903119
_cell_angle_alpha 90.000000
_cell_angle_beta 90.000000
_cell_angle_gamma 90.000000
_cell_volume 2380.037892
_symmetry_space_group_name_H-M "P B C N"
_symmetry_group_IT_number 60
_symmetry_cell_setting 'orthorhombic'
loop_
_space_group_symop_operation_xyz
x,y,z
1/2-x,1/2-y,1/2+z
1/2+x,1/2-y,-z
-x,y,1/2-z
-x,-y,-z
1/2+x,1/2+y,1/2-z
1/2-x,1/2+y,z
x,-y,1/2+z
loop_
_atom_site_type_symbol
_atom_site_label
_atom_site_fract_x
_atom_site_fract_y
_atom_site_fract_z
Si Si1 0.515516 0.336112 0.113092
Si Si2 0.401692 0.586436 0.062295
Si Si3 0.550867 0.113397 0.633121
Si Si4 0.336930 0.921330 0.512265
Si Si5 0.212591 0.905830 0.947309
Si Si6 0.609394 0.420789 0.715018
Si Si7 0.576888 0.947776 0.820829
O O1 0.456956 0.451486 0.076817
O O2 0.565629 0.427579 0.187778
O O3 0.471500 0.196932 0.155380
O O4 0.562870 0.305862 0.018452
O O5 0.384616 0.622059 0.173267
O O6 0.334263 0.516380 0.012612
O O7 0.587022 0.083726 0.533093
O O8 0.568171 0.283775 0.664196
O O9 0.584137 0.995547 0.710056
O O10 0.470387 0.084643 0.639684
O O11 0.302351 0.764046 0.481595
O O12 0.351201 0.934613 0.625020
O O13 0.290870 0.051488 0.466514
O O14 0.182496 0.927027 0.839946
#
# Coordination Sequence:
#
# PCOD9456215 Si02
#       7
#     8   8   8   8   8   8   8
#     4  10  22  38  66  98 132 163 214 261 320 390
#     4  10  21  39  70  96 125 171 213 263 320 377
#     4  10  26  42  64 100 134 168 211 269 344 382
#     4  11  24  48  63  89 132 171 219 272 318 390
#     4  10  24  45  66  93 125 174 224 265 318 386
#     4  10  23  42  66  96 133 168 220 265 317 401
#     4  11  24  42  65  99 134 165 211 273 334 390
#
# _framework density 23.529039000000001
#
# number of rings (size 3 to 8) (size 9 to 14) (size 15 to 20)
#    0.000    1.714    1.429    0.857   10.000    5.714 
#    0.000    2.857    0.000    0.000    0.000    0.000 
#    0.000    0.000    0.000    0.000    0.000    0.000 
#
# Total GULP energy -313043.858437 kJ/mol
# GULP energy per Si atom -5590.068901 kJ/mol
# Density = 2.347549 g / cm^3
# Si number density = 23.529039 Si / 1000 Ang^3
#
#
#
# Elastic Constant Matrix: (Units=GPa)
#
#
# Indices 1 2 3 4 5 6 
#
# 1 38.4876 -7.1854 18.8367 0.0000 0.0000 0.0000
# 2 -7.1854 58.3365 33.5449 0.0000 0.0000 0.0000
# 3 18.8367 33.5449 131.1205 0.0000 0.0000 0.0000
# 4 0.0000 0.0000 0.0000 34.3817 0.0000 0.0000
# 5 0.0000 0.0000 0.0000 0.0000 24.7693 0.0000
# 6 0.0000 0.0000 0.0000 0.0000 0.0000 17.6732
#
#
#
# Elastic Compliance Matrix: (Units=1/GPa)
#
#
# Indices 1 2 3 4 5 6 
#
# 1 0.030409 0.007337 -0.006246 0.000000 0.000000 0.000000
# 2 0.007337 0.021869 -0.006649 0.000000 0.000000 0.000000
# 3 -0.006246 -0.006649 0.010225 0.000000 0.000000 0.000000
# 4 0.000000 0.000000 0.000000 0.029085 0.000000 0.000000
# 5 0.000000 0.000000 0.000000 0.000000 0.040373 0.000000
# 6 0.000000 0.000000 0.000000 0.000000 0.000000 0.056583
#
#
# Mechanical properties :
#
#
# Convention : Reuss Voigt Hill
#
# Bulk Modulus (GPa) = 19.45996 35.37076 27.41536
# Shear Modulus (GPa) = 23.06411 27.54808 25.30609
#
# Velocity S-wave (km/s) = 3.13428 3.42543 3.28308
# Velocity P-wave (km/s) = 4.62459 5.54167 5.10377
#
# Compressibility (1/GPa) = 0.05138757
#
# Stress axis : x y z
#
# Youngs Moduli (GPa) = 32.88515 45.72725 97.80172
#
# Poissons Ratio (x) = -0.33549 0.61082
# Poissons Ratio (y) = -0.24127 0.65026
# Poissons Ratio (z) = 0.20538 0.30403
#
# Static dielectric constant tensor:
#      x y z
#    x 1.869620 0.000000 0.000000 
#    y 0.000000 1.933870 0.000000 
#    z 0.000000 0.000000 1.932310 
# 
# From -- ./inp_files/17710.got.cif
#   From: 2010.05.17/outbox.cif.g08.bks.cpg/sg60_9_cif.got.tgz:17710.got - 2010.06.03 14:59:27.
