data_PCOD9456219
_publ_section_title
;
Structure prediction by ZEFSAII (Michael W. Deem and Ramdas Pophale) SiO2 
 PCOD9456219
Probable space group: P B C N
;
_chemical_formula_sum "Si O2"
_cell_formula_units_Z 56
_cell_length_a 5.902974
_cell_length_b 15.595091
_cell_length_c 29.068901
_cell_angle_alpha 90.000000
_cell_angle_beta 90.000000
_cell_angle_gamma 90.000000
_cell_volume 2676.007932
_symmetry_space_group_name_H-M "P B C N"
_symmetry_group_IT_number 60
_symmetry_cell_setting 'orthorhombic'
loop_
_space_group_symop_operation_xyz
x,y,z
1/2-x,1/2-y,1/2+z
1/2+x,1/2-y,-z
-x,y,1/2-z
-x,-y,-z
1/2+x,1/2+y,1/2-z
1/2-x,1/2+y,z
x,-y,1/2+z
loop_
_atom_site_type_symbol
_atom_site_label
_atom_site_fract_x
_atom_site_fract_y
_atom_site_fract_z
Si Si1 0.087579 0.736619 0.802734
Si Si2 0.693640 0.881083 0.522708
Si Si3 0.412153 0.582117 0.802082
Si Si4 0.612841 0.940890 0.063220
Si Si5 0.212656 0.365506 0.131619
Si Si6 0.493076 0.698795 0.950960
Si Si7 0.253167 0.909887 0.776195
O O1 0.275056 0.666555 0.812807
O O2 0.207339 0.827939 0.807706
O O3 0.000000 0.728661 0.750000
O O4 0.885545 0.709018 0.835778
O O5 0.549839 0.918268 0.479833
O O6 0.569299 0.798479 0.544316
O O7 0.916786 0.839617 0.499519
O O8 0.718588 0.964517 0.555236
O O9 0.500000 0.592537 0.750000
O O10 0.615277 0.578503 0.837993
O O11 0.249426 0.500228 0.801632
O O12 0.469353 0.929634 0.109387
O O13 0.790514 0.863634 0.063255
O O14 0.323905 0.317321 0.088496
O O15 0.500000 0.900635 0.750000
O O16 0.000000 0.913073 0.750000
#
# Coordination Sequence:
#
# PCOD9456219 Si02
#       7
#     8   8   8   8   8   8   8
#     4  11  22  42  69  95 136 183 239 291 361 417
#     4  10  21  39  73  93 130 179 214 278 349 427
#     4  11  22  42  69  92 134 183 236 287 358 423
#     4  10  22  42  62 102 135 170 226 278 344 428
#     4  11  25  40  63 102 138 184 227 296 346 425
#     4  11  21  42  66 100 136 171 236 275 356 430
#     4  10  24  41  69 104 129 176 247 304 355 429
#
# _framework density 20.926693
#
# number of rings (size 3 to 8) (size 9 to 14) (size 15 to 20)
#    0.000    1.429    2.857    2.143    4.000    1.143 
#    0.000    5.714    0.000    0.000    0.000    0.000 
#    0.000    0.000    0.000    0.000    0.000    0.000 
#
# Total GULP energy -312272.888844 kJ/mol
# GULP energy per Si atom -5576.301586 kJ/mol
# Density = 2.087906 g / cm^3
# Si number density = 20.926693 Si / 1000 Ang^3
#
#
#
# Elastic Constant Matrix: (Units=GPa)
#
#
# Indices 1 2 3 4 5 6 
#
# 1 52.4826 -1.6608 13.0182 0.0000 0.0000 0.0000
# 2 -1.6608 106.1046 1.7892 0.0000 0.0000 0.0000
# 3 13.0182 1.7892 71.1538 0.0000 0.0000 0.0000
# 4 0.0000 0.0000 0.0000 3.0096 0.0000 0.0000
# 5 0.0000 0.0000 0.0000 0.0000 32.6535 0.0000
# 6 0.0000 0.0000 0.0000 0.0000 0.0000 658.5255
#
#
#
# Elastic Compliance Matrix: (Units=1/GPa)
#
#
# Indices 1 2 3 4 5 6 
#
# 1 0.019975 0.000374 -0.003664 0.000000 0.000000 0.000000
# 2 0.000374 0.009436 -0.000306 0.000000 0.000000 0.000000
# 3 -0.003664 -0.000306 0.014732 0.000000 0.000000 0.000000
# 4 0.000000 0.000000 0.000000 0.332272 0.000000 0.000000
# 5 0.000000 0.000000 0.000000 0.000000 0.030625 0.000000
# 6 0.000000 0.000000 0.000000 0.000000 0.000000 0.001519
#
#
# Mechanical properties :
#
#
# Convention : Reuss Voigt Hill
#
# Bulk Modulus (GPa) = 27.06226 28.44824 27.75525
# Shear Modulus (GPa) = 11.68045 153.27733 82.47889
#
# Velocity S-wave (km/s) = 2.36510 8.56761 6.28481
# Velocity P-wave (km/s) = 4.51866 10.55915 8.12139
#
# Compressibility (1/GPa) = 0.03695183
#
# Stress axis : x y z
#
# Youngs Moduli (GPa) = 50.06357 105.98068 67.87897
#
# Poissons Ratio (x) = -0.03968 0.24871
# Poissons Ratio (y) = -0.01875 0.02076
# Poissons Ratio (z) = 0.18343 0.03241
#
# Static dielectric constant tensor:
#      x y z
#    x 1.771310 0.000000 0.000000 
#    y 0.000000 1.750160 0.000000 
#    z 0.000000 0.000000 1.831970 
# 
# From -- ./inp_files/25684.got.cif
#   From: 2010.05.17/outbox.cif.g08.bks.cpg/sg60_13_cif.got.tgz:25684.got - 2010.06.03 14:59:27.
