data_PCOD9456582
_publ_section_title
;
Structure prediction by ZEFSAII (Michael W. Deem and Ramdas Pophale) SiO2 
 PCOD9456582
Probable space group: P B C N
;
_chemical_formula_sum "Si O2"
_cell_formula_units_Z 60
_cell_length_a 20.855485
_cell_length_b 15.623915
_cell_length_c 8.545810
_cell_angle_alpha 90.000000
_cell_angle_beta 90.000000
_cell_angle_gamma 90.000000
_cell_volume 2784.603690
_symmetry_space_group_name_H-M "P B C N"
_symmetry_group_IT_number 60
_symmetry_cell_setting 'orthorhombic'
loop_
_space_group_symop_operation_xyz
x,y,z
1/2-x,1/2-y,1/2+z
1/2+x,1/2-y,-z
-x,y,1/2-z
-x,-y,-z
1/2+x,1/2+y,1/2-z
1/2-x,1/2+y,z
x,-y,1/2+z
loop_
_atom_site_type_symbol
_atom_site_label
_atom_site_fract_x
_atom_site_fract_y
_atom_site_fract_z
Si Si1 0.324372 0.004482 0.573379
Si Si2 0.898491 0.922324 0.688591
Si Si3 0.793732 0.800893 0.198211
Si Si4 0.652211 0.875055 0.185046
Si Si5 0.089966 0.890581 0.456896
Si Si6 0.000000 0.771527 0.250000
Si Si7 0.248235 0.606250 0.330934
Si Si8 0.105469 0.771060 0.026985
O O1 0.358981 0.946206 0.447145
O O2 0.294581 0.939868 0.699276
O O3 0.366179 0.078862 0.654042
O O4 0.266894 0.053087 0.486234
O O5 0.822494 0.903880 0.706154
O O6 0.919507 0.858471 0.550480
O O7 0.908581 0.018592 0.631238
O O8 0.925762 0.904400 0.860973
O O9 0.728386 0.855250 0.201861
O O10 0.841144 0.844690 0.073011
O O11 0.773567 0.704309 0.154870
O O12 0.833300 0.793355 0.362099
O O13 0.621859 0.789205 0.119127
O O14 0.041174 0.829723 0.366798
O O15 0.946843 0.727398 0.359232
#
# Coordination Sequence:
#
# PCOD9456582 Si02
#       8
#     8   8   8   8   8   4   8   8
#     4  10  22  33  56  87 132 172 200 252 320 398
#     4  12  23  38  64  94 128 170 221 263 327 373
#     4  11  22  36  61  92 135 170 212 261 332 383
#     4  11  21  38  59  92 126 164 210 259 326 388
#     4  11  25  41  64  95 128 178 222 268 318 385
#     4  10  26  50  64  90 128 176 226 270 314 378
#     4  11  20  36  56  94 140 170 207 259 325 397
#     4  11  24  41  66  91 128 179 213 275 320 388
#
# _framework density 21.547052000000001
#
# number of rings (size 3 to 8) (size 9 to 14) (size 15 to 20)
#    0.000    1.067    2.667    5.600    1.867    2.667 
#    0.000    0.000    0.000    0.800    0.000    0.000 
#    0.000    0.000    0.000    0.000    0.000    0.000 
#
# Total GULP energy -335372.047424 kJ/mol
# GULP energy per Si atom -5589.534124 kJ/mol
# Density = 2.149801 g / cm^3
# Si number density = 21.547052 Si / 1000 Ang^3
#
#
#
# Elastic Constant Matrix: (Units=GPa)
#
#
# Indices 1 2 3 4 5 6 
#
# 1 32.3068 -8.5169 -0.6033 0.0000 0.0000 0.0000
# 2 -8.5169 64.2826 17.0231 0.0000 0.0000 0.0000
# 3 -0.6033 17.0231 57.2104 0.0000 0.0000 0.0000
# 4 0.0000 0.0000 0.0000 -3.3334 0.0000 0.0000
# 5 0.0000 0.0000 0.0000 0.0000 26.4059 0.0000
# 6 0.0000 0.0000 0.0000 0.0000 0.0000 8.1896
#
#
#
# Elastic Compliance Matrix: (Units=1/GPa)
#
#
# Indices 1 2 3 4 5 6 
#
# 1 0.032127 0.004523 -0.001007 0.000000 0.000000 0.000000
# 2 0.004523 0.017524 -0.005167 0.000000 0.000000 0.000000
# 3 -0.001007 -0.005167 0.019006 0.000000 0.000000 0.000000
# 4 0.000000 0.000000 0.000000 -0.299991 0.000000 0.000000
# 5 0.000000 0.000000 0.000000 0.000000 0.037870 0.000000
# 6 0.000000 0.000000 0.000000 0.000000 0.000000 0.122107
#
#
# Mechanical properties :
#
#
# Convention : Reuss Voigt Hill
#
# Bulk Modulus (GPa) = 15.30086 18.84508 17.07297
# Shear Modulus (GPa) = -108.05932 15.97886 -46.04023
#
# Velocity S-wave (km/s) = -7.08938 2.72615 -4.62749
# Velocity P-wave (km/s) = 7.73924 4.32136 4.53991
#
# Compressibility (1/GPa) = 0.06535581
#
# Stress axis : x y z
#
# Youngs Moduli (GPa) = 31.12660 57.06524 52.61484
#
# Poissons Ratio (x) = -0.25812 0.05299
# Poissons Ratio (y) = -0.14079 0.27184
# Poissons Ratio (z) = 0.03135 0.29483
#
# Static dielectric constant tensor:
#      x y z
#    x 1.784650 0.000000 0.000000 
#    y 0.000000 1.780570 0.000000 
#    z 0.000000 0.000000 1.828100 
# 
# From -- ./inp_files/7941.got.cif
#   From: 2010.05.17/outbox.cif.g08.bks.cpg/sg60_4_cif.got.tgz:7941.got - 2010.06.03 14:59:27.
