data_PCOD9456635
_publ_section_title
;
Structure prediction by ZEFSAII (Michael W. Deem and Ramdas Pophale) SiO2 
 PCOD9456635
Probable space group: P B C N
;
_chemical_formula_sum "Si O2"
_cell_formula_units_Z 48
_cell_length_a 29.177122
_cell_length_b 8.218219
_cell_length_c 7.765791
_cell_angle_alpha 90.000000
_cell_angle_beta 90.000000
_cell_angle_gamma 90.000000
_cell_volume 1862.112261
_symmetry_space_group_name_H-M "P B C N"
_symmetry_group_IT_number 60
_symmetry_cell_setting 'orthorhombic'
loop_
_space_group_symop_operation_xyz
x,y,z
1/2-x,1/2-y,1/2+z
1/2+x,1/2-y,-z
-x,y,1/2-z
-x,-y,-z
1/2+x,1/2+y,1/2-z
1/2-x,1/2+y,z
x,-y,1/2+z
loop_
_atom_site_type_symbol
_atom_site_label
_atom_site_fract_x
_atom_site_fract_y
_atom_site_fract_z
Si Si1 0.644902 0.222325 0.774694
Si Si2 0.472877 0.276461 0.022850
Si Si3 0.723851 0.386692 0.603292
Si Si4 0.057256 0.129271 0.137772
Si Si5 0.307004 0.273755 0.272048
Si Si6 0.886783 0.377901 0.894431
O O1 0.696113 0.282625 0.746400
O O2 0.611784 0.354190 0.863857
O O3 0.627936 0.190631 0.579531
O O4 0.633892 0.056147 0.871977
O O5 0.457340 0.304178 0.824833
O O6 0.527823 0.271033 0.004675
O O7 0.458225 0.443670 0.115778
O O8 0.441910 0.136043 0.106226
O O9 0.777294 0.373261 0.648938
O O10 0.712583 0.313998 0.417604
O O11 0.704246 0.567528 0.617574
O O12 0.359969 0.229477 0.246633
#
# Coordination Sequence:
#
# PCOD9456635 Si02
#       6
#     8   8   8   8   8   8
#     4  10  22  37  54  79 110 143 179 221 267 317
#     4   9  18  34  55  79 107 139 177 220 266 317
#     4  11  23  39  59  83 111 143 181 224 271 322
#     4   9  18  34  55  79 107 139 177 220 266 317
#     4  11  23  39  59  83 111 143 181 224 271 322
#     4  10  22  37  54  79 110 143 179 221 267 317
#
# _framework density 25.777179
#
# number of rings (size 3 to 8) (size 9 to 14) (size 15 to 20)
#    0.000    2.000    0.000    3.000    0.000    7.333 
#    0.000    0.000    0.000    0.000    0.000    0.000 
#    0.000    0.000    0.000    0.000    0.000    0.000 
#
# Total GULP energy -268642.588985 kJ/mol
# GULP energy per Si atom -5596.720604 kJ/mol
# Density = 2.571851 g / cm^3
# Si number density = 25.777179 Si / 1000 Ang^3
#
#
#
# Elastic Constant Matrix: (Units=GPa)
#
#
# Indices 1 2 3 4 5 6 
#
# 1 49.6193 -19.2613 20.5913 0.0000 0.0000 0.0000
# 2 -19.2613 49.4779 1.6654 0.0000 0.0000 0.0000
# 3 20.5913 1.6654 94.6097 0.0000 0.0000 0.0000
# 4 0.0000 0.0000 0.0000 21.9614 0.0000 0.0000
# 5 0.0000 0.0000 0.0000 0.0000 19.1778 0.0000
# 6 0.0000 0.0000 0.0000 0.0000 0.0000 34.9221
#
#
#
# Elastic Compliance Matrix: (Units=1/GPa)
#
#
# Indices 1 2 3 4 5 6 
#
# 1 0.026774 0.010625 -0.006014 0.000000 0.000000 0.000000
# 2 0.010625 0.024440 -0.002743 0.000000 0.000000 0.000000
# 3 -0.006014 -0.002743 0.011927 0.000000 0.000000 0.000000
# 4 0.000000 0.000000 0.000000 0.045534 0.000000 0.000000
# 5 0.000000 0.000000 0.000000 0.000000 0.052144 0.000000
# 6 0.000000 0.000000 0.000000 0.000000 0.000000 0.028635
#
#
# Mechanical properties :
#
#
# Convention : Reuss Voigt Hill
#
# Bulk Modulus (GPa) = 14.95283 22.18864 18.57073
# Shear Modulus (GPa) = 24.03736 27.92635 25.98185
#
# Velocity S-wave (km/s) = 3.05701 3.29504 3.17825
# Velocity P-wave (km/s) = 4.27479 4.80655 4.54844
#
# Compressibility (1/GPa) = 0.06687699
#
# Stress axis : x y z
#
# Youngs Moduli (GPa) = 37.34997 40.91710 83.84354
#
# Poissons Ratio (x) = -0.43475 0.50425
# Poissons Ratio (y) = -0.39685 0.22996
# Poissons Ratio (z) = 0.22463 0.11222
#
# Static dielectric constant tensor:
#      x y z
#    x 2.039760 0.000000 0.000000 
#    y 0.000000 2.006360 0.000000 
#    z 0.000000 0.000000 2.003960 
# 
# From -- ./inp_files/8397.got.cif
#   From: 2010.05.17/outbox.cif.g08.bks.cpg/sg60_5_cif.got.tgz:8397.got - 2010.06.03 14:59:27.
