data_PCOD9456972
_publ_section_title
;
Structure prediction by ZEFSAII (Michael W. Deem and Ramdas Pophale) SiO2 
 PCOD9456972
Probable space group: P B C N
;
_chemical_formula_sum "Si O2"
_cell_formula_units_Z 40
_cell_length_a 6.511641
_cell_length_b 24.233395
_cell_length_c 10.780889
_cell_angle_alpha 90.000000
_cell_angle_beta 90.000000
_cell_angle_gamma 90.000000
_cell_volume 1701.215319
_symmetry_space_group_name_H-M "P B C N"
_symmetry_group_IT_number 60
_symmetry_cell_setting 'orthorhombic'
loop_
_space_group_symop_operation_xyz
x,y,z
1/2-x,1/2-y,1/2+z
1/2+x,1/2-y,-z
-x,y,1/2-z
-x,-y,-z
1/2+x,1/2+y,1/2-z
1/2-x,1/2+y,z
x,-y,1/2+z
loop_
_atom_site_type_symbol
_atom_site_label
_atom_site_fract_x
_atom_site_fract_y
_atom_site_fract_z
Si Si1 0.000000 0.951882 0.250000
Si Si2 0.804676 0.540080 0.333767
Si Si3 0.875749 0.692179 0.872864
Si Si4 0.000000 0.865525 0.750000
Si Si5 0.333548 0.104465 0.923714
Si Si6 0.972108 0.197911 0.502419
O O1 0.830538 0.918750 0.173069
O O2 0.864716 0.992247 0.336769
O O3 0.691915 0.593880 0.275256
O O4 0.863593 0.559414 0.470433
O O5 0.000000 0.524437 0.250000
O O6 0.000000 0.710071 0.750000
O O7 0.946946 0.628957 0.887788
O O8 0.925858 0.738335 0.976513
O O9 0.630718 0.691965 0.884646
O O10 0.952418 0.829330 0.627775
O O11 0.226418 0.161203 0.969700
#
# Coordination Sequence:
#
# PCOD9456972 Si02
#       6
#     4   8   8   4   8   8
#     4  11  24  42  64  96 132 170 222 285 338 402
#     4  10  22  41  67  93 123 170 221 279 339 395
#     4  12  24  40  64  96 133 176 219 269 336 406
#     4   9  20  40  62  92 126 164 218 267 326 398
#     4  11  24  43  64  96 132 175 220 274 343 404
#     4  11  22  40  62  92 132 172 216 268 329 404
#
# _framework density 23.512601
#
# number of rings (size 3 to 8) (size 9 to 14) (size 15 to 20)
#    0.000    1.200    3.000    3.000    0.000    3.200 
#    0.000    2.000    0.000    0.000    0.000    0.000 
#    0.000    0.000    0.000    0.000    0.000    0.000 
#
# Total GULP energy -223485.380851 kJ/mol
# GULP energy per Si atom -5587.134521 kJ/mol
# Density = 2.345909 g / cm^3
# Si number density = 23.512601 Si / 1000 Ang^3
#
#
#
# Elastic Constant Matrix: (Units=GPa)
#
#
# Indices 1 2 3 4 5 6 
#
# 1 69.4287 19.8326 18.7145 0.0000 0.0000 0.0000
# 2 19.8326 107.7586 21.6629 0.0000 0.0000 0.0000
# 3 18.7145 21.6629 65.5338 0.0000 0.0000 0.0000
# 4 0.0000 0.0000 0.0000 24.5808 0.0000 0.0000
# 5 0.0000 0.0000 0.0000 0.0000 33.7133 0.0000
# 6 0.0000 0.0000 0.0000 0.0000 0.0000 38.1146
#
#
#
# Elastic Compliance Matrix: (Units=1/GPa)
#
#
# Indices 1 2 3 4 5 6 
#
# 1 0.016069 -0.002180 -0.003868 0.000000 0.000000 0.000000
# 2 -0.002180 0.010236 -0.002761 0.000000 0.000000 0.000000
# 3 -0.003868 -0.002761 0.017277 0.000000 0.000000 0.000000
# 4 0.000000 0.000000 0.000000 0.040682 0.000000 0.000000
# 5 0.000000 0.000000 0.000000 0.000000 0.029662 0.000000
# 6 0.000000 0.000000 0.000000 0.000000 0.000000 0.026237
#
#
# Mechanical properties :
#
#
# Convention : Reuss Voigt Hill
#
# Bulk Modulus (GPa) = 38.51602 40.34904 39.43253
# Shear Modulus (GPa) = 30.04175 31.44913 30.74544
#
# Velocity S-wave (km/s) = 3.57835 3.66121 3.62002
# Velocity P-wave (km/s) = 5.78700 5.92203 5.85491
#
# Compressibility (1/GPa) = 0.02596322
#
# Stress axis : x y z
#
# Youngs Moduli (GPa) = 62.23317 97.69182 57.88146
#
# Poissons Ratio (x) = 0.21294 0.22390
# Poissons Ratio (y) = 0.13565 0.15982
# Poissons Ratio (z) = 0.24073 0.26975
#
# Static dielectric constant tensor:
#      x y z
#    x 1.926280 0.000000 0.000000 
#    y 0.000000 1.860020 0.000000 
#    z 0.000000 0.000000 1.928190 
# 
# From -- ./inp_files/9113.got.cif
#   From: 2010.05.17/outbox.cif.g08.bks.cpg/sg60_5_cif.got.tgz:9113.got - 2010.06.03 14:59:27.
