data_PCOD9456781
_publ_section_title
;
Structure prediction by ZEFSAII (Michael W. Deem and Ramdas Pophale) SiO2 
 PCOD9456781
Probable space group: P B C N
;
_chemical_formula_sum "Si O2"
_cell_formula_units_Z 64
_cell_length_a 6.200060
_cell_length_b 18.544692
_cell_length_c 26.449523
_cell_angle_alpha 90.000000
_cell_angle_beta 90.000000
_cell_angle_gamma 90.000000
_cell_volume 3041.118627
_symmetry_space_group_name_H-M "P B C N"
_symmetry_group_IT_number 60
_symmetry_cell_setting 'orthorhombic'
loop_
_space_group_symop_operation_xyz
x,y,z
1/2-x,1/2-y,1/2+z
1/2+x,1/2-y,-z
-x,y,1/2-z
-x,-y,-z
1/2+x,1/2+y,1/2-z
1/2-x,1/2+y,z
x,-y,1/2+z
loop_
_atom_site_type_symbol
_atom_site_label
_atom_site_fract_x
_atom_site_fract_y
_atom_site_fract_z
Si Si1 0.032914 0.895414 0.807433
Si Si2 0.565449 0.465481 0.552369
Si Si3 0.177023 0.025649 0.647130
Si Si4 0.036879 0.830104 0.385942
Si Si5 0.558588 0.794567 0.060183
Si Si6 0.429864 0.058654 0.375993
Si Si7 0.778324 0.306808 0.880736
Si Si8 0.184655 0.168117 0.505357
O O1 0.264364 0.904659 0.835442
O O2 0.000000 0.871830 0.750000
O O3 0.881993 0.842700 0.840419
O O4 0.937706 0.976308 0.811501
O O5 0.500000 0.500000 0.500000
O O6 0.395049 0.490081 0.593659
O O7 0.792190 0.479508 0.579986
O O8 0.589288 0.382377 0.537837
O O9 0.079086 0.105386 0.644176
O O10 0.426967 0.003879 0.649750
O O11 0.293785 0.826389 0.395354
O O12 0.950959 0.754265 0.364564
O O13 0.957609 0.838148 0.444313
O O14 0.376360 0.741088 0.083225
O O15 0.423031 0.850654 0.026278
O O16 0.693836 0.746031 0.020969
O O17 0.574972 0.124878 0.397570
#
# Coordination Sequence:
#
# PCOD9456781 Si02
#       8
#     8   8   8   8   8   8   8   8
#     4  10  22  43  73  96 124 160 212 270 340 408
#     4  11  22  37  55  87 126 171 222 263 306 379
#     4  10  23  42  60  93 129 172 215 266 337 388
#     4  11  22  39  58  86 132 168 215 269 319 383
#     4  11  22  36  58  86 124 176 214 269 312 375
#     4  10  22  41  67  90 129 165 213 274 317 396
#     4  10  22  39  65  93 123 167 215 268 332 383
#     4  11  21  33  54  85 118 170 226 257 312 369
#
# _framework density 21.044886999999999
#
# number of rings (size 3 to 8) (size 9 to 14) (size 15 to 20)
#    0.000    1.500    2.500    3.750    1.750    7.500 
#    0.000    0.000    8.250    0.000    0.000    0.000 
#    0.000    0.000    0.000    0.000    0.000    0.000 
#
# Total GULP energy -356465.664148 kJ/mol
# GULP energy per Si atom -5569.776002 kJ/mol
# Density = 2.099699 g / cm^3
# Si number density = 21.044887 Si / 1000 Ang^3
#
#
#
# Elastic Constant Matrix: (Units=GPa)
#
#
# Indices 1 2 3 4 5 6 
#
# 1 97.8288 21.6685 18.6425 0.0000 0.0000 0.0000
# 2 21.6685 74.8155 -1.2412 0.0000 0.0000 0.0000
# 3 18.6425 -1.2412 64.1605 0.0000 0.0000 0.0000
# 4 0.0000 0.0000 0.0000 20.7901 0.0000 0.0000
# 5 0.0000 0.0000 0.0000 0.0000 5.7509 0.0000
# 6 0.0000 0.0000 0.0000 0.0000 0.0000 17.5823
#
#
#
# Elastic Compliance Matrix: (Units=1/GPa)
#
#
# Indices 1 2 3 4 5 6 
#
# 1 0.011638 -0.003428 -0.003448 0.000000 0.000000 0.000000
# 2 -0.003428 0.014380 0.001274 0.000000 0.000000 0.000000
# 3 -0.003448 0.001274 0.016612 0.000000 0.000000 0.000000
# 4 0.000000 0.000000 0.000000 0.048100 0.000000 0.000000
# 5 0.000000 0.000000 0.000000 0.000000 0.173886 0.000000
# 6 0.000000 0.000000 0.000000 0.000000 0.000000 0.056875
#
#
# Mechanical properties :
#
#
# Convention : Reuss Voigt Hill
#
# Bulk Modulus (GPa) = 31.81925 34.99382 33.40653
# Shear Modulus (GPa) = 14.56999 22.00698 18.28848
#
# Velocity S-wave (km/s) = 2.63407 3.23726 2.95112
# Velocity P-wave (km/s) = 4.94000 5.53511 5.24600
#
# Compressibility (1/GPa) = 0.03142752
#
# Stress axis : x y z
#
# Youngs Moduli (GPa) = 85.92358 69.54020 60.19595
#
# Poissons Ratio (x) = 0.23838 0.20755
# Poissons Ratio (y) = 0.29454 -0.07670
# Poissons Ratio (z) = 0.29626 -0.08861
#
# Static dielectric constant tensor:
#      x y z
#    x 1.878580 0.000000 0.000000 
#    y 0.000000 1.838220 0.000000 
#    z 0.000000 0.000000 1.794560 
# 
# From -- ./inp_files/25798.got.cif
#   From: 2010.05.17/outbox.cif.g08.bks.cpg/sg60_13_cif.got.tgz:25798.got - 2010.06.03 14:59:27.
