data_PCOD9456525
_publ_section_title
;
Structure prediction by ZEFSAII (Michael W. Deem and Ramdas Pophale) SiO2 
 PCOD9456525
Probable space group: P B C N
;
_chemical_formula_sum "Si O2"
_cell_formula_units_Z 48
_cell_length_a 10.159604
_cell_length_b 10.214938
_cell_length_c 17.112076
_cell_angle_alpha 90.000000
_cell_angle_beta 90.000000
_cell_angle_gamma 90.000000
_cell_volume 1775.886541
_symmetry_space_group_name_H-M "P B C N"
_symmetry_group_IT_number 60
_symmetry_cell_setting 'orthorhombic'
loop_
_space_group_symop_operation_xyz
x,y,z
1/2-x,1/2-y,1/2+z
1/2+x,1/2-y,-z
-x,y,1/2-z
-x,-y,-z
1/2+x,1/2+y,1/2-z
1/2-x,1/2+y,z
x,-y,1/2+z
loop_
_atom_site_type_symbol
_atom_site_label
_atom_site_fract_x
_atom_site_fract_y
_atom_site_fract_z
Si Si1 0.148104 0.680610 0.250433
Si Si2 0.099987 0.274820 0.457141
Si Si3 0.357826 0.240192 0.628889
Si Si4 0.494837 0.595177 0.923752
Si Si5 0.237076 0.487485 0.618159
Si Si6 0.767217 0.536789 0.094419
O O1 0.500000 0.240116 0.250000
O O2 0.276852 0.755811 0.211370
O O3 0.152061 0.558139 0.191232
O O4 0.173670 0.613320 0.332592
O O5 0.019028 0.237095 0.536679
O O6 0.141751 0.425161 0.444928
O O7 0.010959 0.233955 0.380331
O O8 0.209225 0.159922 0.453884
O O9 0.279771 0.351401 0.580576
O O10 0.346468 0.103438 0.585862
O O11 0.619357 0.554749 0.870815
O O12 0.358397 0.557885 0.883448
O O13 0.500000 0.500000 0.000000
#
# Coordination Sequence:
#
# PCOD9456525 Si02
#       6
#     8   8   8   8   8   8
#     4  10  23  43  65 102 137 174 241 288 350 437
#     4  11  25  45  69 102 142 181 243 289 359 418
#     4  10  23  43  66  98 138 183 221 301 349 414
#     4  10  21  44  66 100 141 185 237 288 352 430
#     4  10  22  40  70  93 139 182 226 287 360 404
#     4  11  24  42  72  99 138 190 232 294 352 431
#
# _framework density 27.028752999999998
#
# number of rings (size 3 to 8) (size 9 to 14) (size 15 to 20)
#    1.000    0.667    3.333    1.000    4.667    4.000 
#    0.000    0.833    0.000    0.000    0.000    0.000 
#    0.000    0.000    0.000    0.000    0.000    0.000 
#
# Total GULP energy -267268.874086 kJ/mol
# GULP energy per Si atom -5568.101543 kJ/mol
# Density = 2.696723 g / cm^3
# Si number density = 27.028753 Si / 1000 Ang^3
#
#
#
# Elastic Constant Matrix: (Units=GPa)
#
#
# Indices 1 2 3 4 5 6 
#
# 1 115.4941 22.9460 37.5014 0.0000 0.0000 0.0000
# 2 22.9460 176.2652 30.7278 0.0000 0.0000 0.0000
# 3 37.5014 30.7278 83.9297 0.0000 0.0000 0.0000
# 4 0.0000 0.0000 0.0000 29.1699 0.0000 0.0000
# 5 0.0000 0.0000 0.0000 0.0000 41.4248 0.0000
# 6 0.0000 0.0000 0.0000 0.0000 0.0000 40.8996
#
#
#
# Elastic Compliance Matrix: (Units=1/GPa)
#
#
# Indices 1 2 3 4 5 6 
#
# 1 0.010181 -0.000569 -0.004341 0.000000 0.000000 0.000000
# 2 -0.000569 0.006092 -0.001976 0.000000 0.000000 0.000000
# 3 -0.004341 -0.001976 0.014578 0.000000 0.000000 0.000000
# 4 0.000000 0.000000 0.000000 0.034282 0.000000 0.000000
# 5 0.000000 0.000000 0.000000 0.000000 0.024140 0.000000
# 6 0.000000 0.000000 0.000000 0.000000 0.000000 0.024450
#
#
# Mechanical properties :
#
#
# Convention : Reuss Voigt Hill
#
# Bulk Modulus (GPa) = 58.55086 62.00439 60.27763
# Shear Modulus (GPa) = 37.54114 41.26643 39.40379
#
# Velocity S-wave (km/s) = 3.73088 3.91162 3.82232
# Velocity P-wave (km/s) = 6.34577 6.58718 6.46760
#
# Compressibility (1/GPa) = 0.01707917
#
# Stress axis : x y z
#
# Youngs Moduli (GPa) = 98.22300 164.15511 68.59729
#
# Poissons Ratio (x) = 0.09334 0.29777
# Poissons Ratio (y) = 0.05585 0.13556
# Poissons Ratio (z) = 0.42637 0.32441
#
# Static dielectric constant tensor:
#      x y z
#    x 2.257440 0.000000 0.000000 
#    y 0.000000 2.145630 0.000000 
#    z 0.000000 0.000000 2.139100 
# 
# From -- ./inp_files/22589.got.cif
#   From: 2010.05.17/outbox.cif.g08.bks.cpg/sg60_12_cif.got.tgz:22589.got - 2010.06.03 14:59:27.
