data_PCOD9456172
_publ_section_title
;
Structure prediction by ZEFSAII (Michael W. Deem and Ramdas Pophale) SiO2 
 PCOD9456172
Probable space group: P B C N
;
_chemical_formula_sum "Si O2"
_cell_formula_units_Z 32
_cell_length_a 4.991482
_cell_length_b 20.667437
_cell_length_c 13.482333
_cell_angle_alpha 90.000000
_cell_angle_beta 90.000000
_cell_angle_gamma 90.000000
_cell_volume 1390.852839
_symmetry_space_group_name_H-M "P B C N"
_symmetry_group_IT_number 60
_symmetry_cell_setting 'orthorhombic'
loop_
_space_group_symop_operation_xyz
x,y,z
1/2-x,1/2-y,1/2+z
1/2+x,1/2-y,-z
-x,y,1/2-z
-x,-y,-z
1/2+x,1/2+y,1/2-z
1/2-x,1/2+y,z
x,-y,1/2+z
loop_
_atom_site_type_symbol
_atom_site_label
_atom_site_fract_x
_atom_site_fract_y
_atom_site_fract_z
Si Si1 0.543744 0.707425 0.508227
Si Si2 0.501760 0.586522 0.130007
Si Si3 0.750945 0.379501 0.181370
Si Si4 0.998810 0.492009 0.630627
O O1 0.242840 0.733534 0.514070
O O2 0.568377 0.652781 0.424026
O O3 0.635319 0.675484 0.611190
O O4 0.500000 0.594209 0.250000
O O5 0.207574 0.562415 0.403597
O O6 0.294318 0.529403 0.102251
O O7 0.500000 0.402996 0.250000
O O8 0.876028 0.437265 0.114592
O O9 0.000000 0.358076 0.250000
O O10 0.000000 0.489570 0.750000
#
# Coordination Sequence:
#
# PCOD9456172 Si02
#       4
#     8   8   8   8
#     4  12  27  43  61  92 128 172 226 256 296 381
#     4  10  21  39  64  92 124 158 199 261 319 368
#     4  11  23  42  67  93 127 165 205 265 325 375
#     4   9  18  36  64  95 121 152 200 254 323 386
#
# _framework density 23.007466000000001
#
# number of rings (size 3 to 8) (size 9 to 14) (size 15 to 20)
#    0.000    1.500    0.000    6.750    0.000    5.000 
#    0.000    0.000    0.000    4.500    0.000    0.000 
#    0.000    0.000    0.000    0.000    0.000    0.000 
#
# Total GULP energy -179025.411875 kJ/mol
# GULP energy per Si atom -5594.544121 kJ/mol
# Density = 2.295510 g / cm^3
# Si number density = 23.007466 Si / 1000 Ang^3
#
#
#
# Elastic Constant Matrix: (Units=GPa)
#
#
# Indices 1 2 3 4 5 6 
#
# 1 92.4928 -9.5928 12.0743 0.0000 0.0000 0.0000
# 2 -9.5928 60.8484 16.3124 0.0000 0.0000 0.0000
# 3 12.0743 16.3124 101.6312 0.0000 0.0000 0.0000
# 4 0.0000 0.0000 0.0000 31.5872 0.0000 0.0000
# 5 0.0000 0.0000 0.0000 0.0000 -155.0251 0.0000
# 6 0.0000 0.0000 0.0000 0.0000 0.0000 7.9924
#
#
#
# Elastic Compliance Matrix: (Units=1/GPa)
#
#
# Indices 1 2 3 4 5 6 
#
# 1 0.011264 0.002231 -0.001696 0.000000 0.000000 0.000000
# 2 0.002231 0.017615 -0.003092 0.000000 0.000000 0.000000
# 3 -0.001696 -0.003092 0.010537 0.000000 0.000000 0.000000
# 4 0.000000 0.000000 0.000000 0.031658 0.000000 0.000000
# 5 0.000000 0.000000 0.000000 0.000000 -0.006451 0.000000
# 6 0.000000 0.000000 0.000000 0.000000 0.000000 0.125119
#
#
# Mechanical properties :
#
#
# Convention : Reuss Voigt Hill
#
# Bulk Modulus (GPa) = 29.15391 32.50668 30.83029
# Shear Modulus (GPa) = 24.23734 -7.34386 8.44674
#
# Velocity S-wave (km/s) = 3.24922 -1.78854 1.91814
# Velocity P-wave (km/s) = 5.17451 3.14551 4.28193
#
# Compressibility (1/GPa) = 0.03430072
#
# Stress axis : x y z
#
# Youngs Moduli (GPa) = 88.77493 56.77004 94.90042
#
# Poissons Ratio (x) = -0.12663 0.16098
# Poissons Ratio (y) = -0.19802 0.29346
# Poissons Ratio (z) = 0.15059 0.17555
#
# Static dielectric constant tensor:
#      x y z
#    x 1.822080 0.000000 0.000000 
#    y 0.000000 1.827090 0.000000 
#    z 0.000000 0.000000 1.894760 
# 
# From -- ./inp_files/13642.got.cif
#   From: 2010.05.17/outbox.cif.g08.bks.cpg/sg60_7_cif.got.tgz:13642.got - 2010.06.03 14:59:27.
