data_PCOD9456235
_publ_section_title
;
Structure prediction by ZEFSAII (Michael W. Deem and Ramdas Pophale) SiO2 
 PCOD9456235
Probable space group: P B C N
;
_chemical_formula_sum "Si O2"
_cell_formula_units_Z 48
_cell_length_a 7.851709
_cell_length_b 21.931346
_cell_length_c 12.427663
_cell_angle_alpha 90.000000
_cell_angle_beta 90.000000
_cell_angle_gamma 90.000000
_cell_volume 2140.025508
_symmetry_space_group_name_H-M "P B C N"
_symmetry_group_IT_number 60
_symmetry_cell_setting 'orthorhombic'
loop_
_space_group_symop_operation_xyz
x,y,z
1/2-x,1/2-y,1/2+z
1/2+x,1/2-y,-z
-x,y,1/2-z
-x,-y,-z
1/2+x,1/2+y,1/2-z
1/2-x,1/2+y,z
x,-y,1/2+z
loop_
_atom_site_type_symbol
_atom_site_label
_atom_site_fract_x
_atom_site_fract_y
_atom_site_fract_z
Si Si1 0.737049 0.089445 0.180093
Si Si2 0.628141 0.532010 0.580009
Si Si3 0.000000 0.189628 0.250000
Si Si4 0.117155 0.395342 0.574936
Si Si5 0.235865 0.240365 0.064690
Si Si6 0.000000 0.877312 0.250000
Si Si7 0.936461 0.233527 0.648656
O O1 0.586409 0.100414 0.092665
O O2 0.679406 0.088295 0.304748
O O3 0.876241 0.143921 0.183419
O O4 0.805533 0.022324 0.155017
O O5 0.500000 0.500000 0.500000
O O6 0.783769 0.563868 0.513838
O O7 0.513088 0.578472 0.648988
O O8 0.103074 0.230176 0.162485
O O9 0.176491 0.326168 0.552557
O O10 0.387537 0.285787 0.092542
O O11 0.169198 0.257946 0.948152
O O12 0.862949 0.826163 0.206948
O O13 0.000000 0.274657 0.750000
#
# Coordination Sequence:
#
# PCOD9456235 Si02
#       7
#     8   8   4   8   8   4   8
#     4  10  22  35  63  94 126 163 216 263 325 393
#     4  12  21  39  65  94 133 178 215 267 333 411
#     4  10  23  40  66 100 124 172 229 278 332 426
#     4  10  21  40  60  94 126 167 213 271 322 395
#     4  11  23  42  68  91 132 168 229 275 346 400
#     4  10  23  42  62  94 140 166 227 274 340 404
#     4  10  25  42  66  94 130 178 218 288 343 406
#
# _framework density 22.429639000000002
#
# number of rings (size 3 to 8) (size 9 to 14) (size 15 to 20)
#    0.500    1.000    1.667    4.000    7.000    0.000 
#    0.000    0.000    0.000    2.000    0.000    0.000 
#    0.000    0.000    0.000    0.000    0.000    0.000 
#
# Total GULP energy -267220.108619 kJ/mol
# GULP energy per Si atom -5567.085596 kJ/mol
# Density = 2.237859 g / cm^3
# Si number density = 22.429639 Si / 1000 Ang^3
#
#
#
# Elastic Constant Matrix: (Units=GPa)
#
#
# Indices 1 2 3 4 5 6 
#
# 1 85.4143 24.1560 36.7889 0.0000 0.0000 0.0000
# 2 24.1560 89.6079 43.5507 0.0000 0.0000 0.0000
# 3 36.7889 43.5507 119.4352 0.0000 0.0000 0.0000
# 4 0.0000 0.0000 0.0000 21.8047 0.0000 0.0000
# 5 0.0000 0.0000 0.0000 0.0000 40.2779 0.0000
# 6 0.0000 0.0000 0.0000 0.0000 0.0000 18.0442
#
#
#
# Elastic Compliance Matrix: (Units=1/GPa)
#
#
# Indices 1 2 3 4 5 6 
#
# 1 0.013790 -0.002009 -0.003515 0.000000 0.000000 0.000000
# 2 -0.002009 0.013856 -0.004434 0.000000 0.000000 0.000000
# 3 -0.003515 -0.004434 0.011072 0.000000 0.000000 0.000000
# 4 0.000000 0.000000 0.000000 0.045862 0.000000 0.000000
# 5 0.000000 0.000000 0.000000 0.000000 0.024828 0.000000
# 6 0.000000 0.000000 0.000000 0.000000 0.000000 0.055419
#
#
# Mechanical properties :
#
#
# Convention : Reuss Voigt Hill
#
# Bulk Modulus (GPa) = 53.18397 55.93871 54.56134
# Shear Modulus (GPa) = 26.17671 28.68949 27.43310
#
# Velocity S-wave (km/s) = 3.41993 3.58031 3.50104
# Velocity P-wave (km/s) = 6.27356 6.48732 6.38133
#
# Compressibility (1/GPa) = 0.01880266
#
# Stress axis : x y z
#
# Youngs Moduli (GPa) = 72.51758 72.17028 90.31689
#
# Poissons Ratio (x) = 0.14499 0.31746
# Poissons Ratio (y) = 0.14569 0.40043
# Poissons Ratio (z) = 0.25490 0.31998
#
# Static dielectric constant tensor:
#      x y z
#    x 1.538490 0.000000 0.000000 
#    y 0.000000 1.816950 0.000000 
#    z 0.000000 0.000000 1.869520 
# 
# From -- ./inp_files/10148.got.cif
#   From: 2010.05.17/outbox.cif.g08.bks.cpg/sg60_6_cif.got.tgz:10148.got - 2010.06.03 14:59:27.
