data_PCOD9456298
_publ_section_title
;
Structure prediction by ZEFSAII (Michael W. Deem and Ramdas Pophale) SiO2 
 PCOD9456298
Probable space group: P B C N
;
_chemical_formula_sum "Si O2"
_cell_formula_units_Z 52
_cell_length_a 6.965211
_cell_length_b 16.242512
_cell_length_c 20.459170
_cell_angle_alpha 90.000000
_cell_angle_beta 90.000000
_cell_angle_gamma 90.000000
_cell_volume 2314.597526
_symmetry_space_group_name_H-M "P B C N"
_symmetry_group_IT_number 60
_symmetry_cell_setting 'orthorhombic'
loop_
_space_group_symop_operation_xyz
x,y,z
1/2-x,1/2-y,1/2+z
1/2+x,1/2-y,-z
-x,y,1/2-z
-x,-y,-z
1/2+x,1/2+y,1/2-z
1/2-x,1/2+y,z
x,-y,1/2+z
loop_
_atom_site_type_symbol
_atom_site_label
_atom_site_fract_x
_atom_site_fract_y
_atom_site_fract_z
Si Si1 0.358342 0.016691 0.333496
Si Si2 0.296000 0.219419 0.578470
Si Si3 0.804833 0.765965 0.567749
Si Si4 0.241345 0.057178 0.637246
Si Si5 0.548876 0.545893 0.066656
Si Si6 0.500000 0.458869 0.250000
Si Si7 0.509396 0.796440 0.826184
O O1 0.239104 0.006813 0.400473
O O2 0.450364 0.107155 0.327190
O O3 0.545031 0.958427 0.335982
O O4 0.185558 0.006812 0.280293
O O5 0.261768 0.253955 0.505786
O O6 0.520984 0.209772 0.588158
O O7 0.225143 0.125727 0.581819
O O8 0.205957 0.273776 0.636368
O O9 0.896957 0.858024 0.565468
O O10 0.643143 0.758841 0.622345
O O11 0.101129 0.091367 0.693300
O O12 0.135253 0.974358 0.612736
O O13 0.500000 0.500000 0.000000
O O14 0.500000 0.771650 0.750000
#
# Coordination Sequence:
#
# PCOD9456298 Si02
#       7
#     8   8   8   8   8   4   8
#     4  10  23  43  71  98 132 178 227 284 342 398
#     4  12  25  42  67  98 142 180 223 279 353 413
#     4  11  24  44  67  99 137 181 224 284 344 408
#     4  11  23  40  66  98 131 176 220 280 340 406
#     4  10  21  40  66  99 131 170 227 277 331 405
#     4  10  22  42  66  96 138 166 224 286 336 398
#     4  11  25  46  70  98 135 180 232 282 341 414
#
# _framework density 22.46611
#
# number of rings (size 3 to 8) (size 9 to 14) (size 15 to 20)
#    0.000    1.231    3.077    2.308    1.077    7.385 
#    2.769    0.000    0.000    0.000    0.000    0.000 
#    0.000    0.000    0.000    0.000    0.000    0.000 
#
# Total GULP energy -290027.776675 kJ/mol
# GULP energy per Si atom -5577.457244 kJ/mol
# Density = 2.241498 g / cm^3
# Si number density = 22.466110 Si / 1000 Ang^3
#
#
#
# Elastic Constant Matrix: (Units=GPa)
#
#
# Indices 1 2 3 4 5 6 
#
# 1 106.2869 14.5059 45.4940 0.0000 0.0000 0.0000
# 2 14.5059 34.2930 13.1424 0.0000 0.0000 0.0000
# 3 45.4940 13.1424 148.2376 0.0000 0.0000 0.0000
# 4 0.0000 0.0000 0.0000 3.2778 0.0000 0.0000
# 5 0.0000 0.0000 0.0000 0.0000 42.8541 0.0000
# 6 0.0000 0.0000 0.0000 0.0000 0.0000 22.8745
#
#
#
# Elastic Compliance Matrix: (Units=1/GPa)
#
#
# Indices 1 2 3 4 5 6 
#
# 1 0.011234 -0.003551 -0.003133 0.000000 0.000000 0.000000
# 2 -0.003551 0.031309 -0.001686 0.000000 0.000000 0.000000
# 3 -0.003133 -0.001686 0.007857 0.000000 0.000000 0.000000
# 4 0.000000 0.000000 0.000000 0.305087 0.000000 0.000000
# 5 0.000000 0.000000 0.000000 0.000000 0.023335 0.000000
# 6 0.000000 0.000000 0.000000 0.000000 0.000000 0.043717
#
#
# Mechanical properties :
#
#
# Convention : Reuss Voigt Hill
#
# Bulk Modulus (GPa) = 29.70926 48.34469 39.02698
# Shear Modulus (GPa) = 11.09880 28.17961 19.63921
#
# Velocity S-wave (km/s) = 2.22508 3.54548 2.95984
# Velocity P-wave (km/s) = 4.45579 6.19081 5.39352
#
# Compressibility (1/GPa) = 0.03365954
#
# Stress axis : x y z
#
# Youngs Moduli (GPa) = 89.01417 31.93993 127.27702
#
# Poissons Ratio (x) = 0.11343 0.39875
# Poissons Ratio (y) = 0.31612 0.21457
# Poissons Ratio (z) = 0.27887 0.05385
#
# Static dielectric constant tensor:
#      x y z
#    x 2.004350 0.000000 0.000000 
#    y 0.000000 1.833010 0.000000 
#    z 0.000000 0.000000 1.882290 
# 
# From -- ./inp_files/21648.got.cif
#   From: 2010.05.17/outbox.cif.g08.bks.cpg/sg60_11_cif.got.tgz:21648.got - 2010.06.03 14:59:27.
