data_PCOD9456735
_publ_section_title
;
Structure prediction by ZEFSAII (Michael W. Deem and Ramdas Pophale) SiO2 
 PCOD9456735
Probable space group: P B C N
;
_chemical_formula_sum "Si O2"
_cell_formula_units_Z 48
_cell_length_a 14.933545
_cell_length_b 27.037942
_cell_length_c 6.015557
_cell_angle_alpha 90.000000
_cell_angle_beta 90.000000
_cell_angle_gamma 90.000000
_cell_volume 2428.915427
_symmetry_space_group_name_H-M "P B C N"
_symmetry_group_IT_number 60
_symmetry_cell_setting 'orthorhombic'
loop_
_space_group_symop_operation_xyz
x,y,z
1/2-x,1/2-y,1/2+z
1/2+x,1/2-y,-z
-x,y,1/2-z
-x,-y,-z
1/2+x,1/2+y,1/2-z
1/2-x,1/2+y,z
x,-y,1/2+z
loop_
_atom_site_type_symbol
_atom_site_label
_atom_site_fract_x
_atom_site_fract_y
_atom_site_fract_z
Si Si1 0.000000 0.574706 0.250000
Si Si2 0.000000 0.259705 0.750000
Si Si3 0.764941 0.126541 0.257450
Si Si4 0.406734 0.154596 0.984994
Si Si5 0.190619 0.475331 0.829972
Si Si6 0.208978 0.695845 0.639965
Si Si7 0.640407 0.299340 0.000457
O O1 0.087369 0.543782 0.316194
O O2 0.976106 0.611783 0.453864
O O3 0.069047 0.296954 0.629958
O O4 0.047513 0.224203 0.926515
O O5 0.687922 0.130557 0.444525
O O6 0.759165 0.071045 0.172949
O O7 0.854493 0.151422 0.353236
O O8 0.728041 0.164208 0.075129
O O9 0.383530 0.174399 0.742578
O O10 0.201847 0.500570 0.580084
O O11 0.298589 0.690371 0.784709
O O12 0.192594 0.754010 0.615464
#
# Coordination Sequence:
#
# PCOD9456735 Si02
#       7
#     4   4   8   8   8   8   8
#     4   9  20  40  56  86 120 160 204 254 317 344
#     4  11  20  36  48  90 124 154 198 244 303 362
#     4  10  22  39  57  81 114 163 206 244 307 367
#     4   9  20  35  53  83 121 164 200 236 290 371
#     4  11  25  43  62  88 118 160 215 270 313 362
#     4  11  19  37  58  77 117 168 203 232 295 377
#     4  11  21  34  56  84 117 158 198 249 301 374
#
# _framework density 19.761904999999999
#
# number of rings (size 3 to 8) (size 9 to 14) (size 15 to 20)
#    0.000    1.667    3.333    1.500    7.000    0.667 
#    3.000    0.000    0.000    0.000    0.000    1.167 
#    0.000    0.000    0.000    0.000    0.000    0.000 
#
# Total GULP energy -267310.470758 kJ/mol
# GULP energy per Si atom -5568.968141 kJ/mol
# Density = 1.971693 g / cm^3
# Si number density = 19.761905 Si / 1000 Ang^3
#
#
#
# Elastic Constant Matrix: (Units=GPa)
#
#
# Indices 1 2 3 4 5 6 
#
# 1 17.5397 16.0184 6.3786 0.0000 0.0000 0.0000
# 2 16.0184 96.9841 39.7452 0.0000 0.0000 0.0000
# 3 6.3786 39.7452 69.0570 0.0000 0.0000 0.0000
# 4 0.0000 0.0000 0.0000 -94.6642 0.0000 0.0000
# 5 0.0000 0.0000 0.0000 0.0000 11.3558 0.0000
# 6 0.0000 0.0000 0.0000 0.0000 0.0000 36.8956
#
#
#
# Elastic Compliance Matrix: (Units=1/GPa)
#
#
# Indices 1 2 3 4 5 6 
#
# 1 0.067144 -0.011187 0.000237 0.000000 0.000000 0.000000
# 2 -0.011187 0.015357 -0.007806 0.000000 0.000000 0.000000
# 3 0.000237 -0.007806 0.018951 0.000000 0.000000 0.000000
# 4 0.000000 0.000000 0.000000 -0.010564 0.000000 0.000000
# 5 0.000000 0.000000 0.000000 0.000000 0.088061 0.000000
# 6 0.000000 0.000000 0.000000 0.000000 0.000000 0.027103
#
#
# Mechanical properties :
#
#
# Convention : Reuss Voigt Hill
#
# Bulk Modulus (GPa) = 15.63934 34.20722 24.92328
# Shear Modulus (GPa) = 18.87656 -1.18664 8.84496
#
# Velocity S-wave (km/s) = 3.09398 -0.77574 2.11790
# Velocity P-wave (km/s) = 4.54914 4.06754 4.31507
#
# Compressibility (1/GPa) = 0.06394134
#
# Stress axis : x y z
#
# Youngs Moduli (GPa) = 14.89334 65.11497 52.76668
#
# Poissons Ratio (x) = 0.72843 -0.01249
# Poissons Ratio (y) = 0.16661 0.41187
# Poissons Ratio (z) = -0.00352 0.50826
#
# Static dielectric constant tensor:
#      x y z
#    x 1.731470 0.000000 0.000000 
#    y 0.000000 1.727290 0.000000 
#    z 0.000000 0.000000 1.809460 
# 
# From -- ./inp_files/1774.got.cif
#   From: 2010.05.17/outbox.cif.g08.bks.cpg/sg60_1_cif.got.tgz:1774.got - 2010.06.03 14:59:27.
