data_PCOD9456869
_publ_section_title
;
Structure prediction by ZEFSAII (Michael W. Deem and Ramdas Pophale) SiO2 
 PCOD9456869
Probable space group: P B C N
;
_chemical_formula_sum "Si O2"
_cell_formula_units_Z 48
_cell_length_a 9.511571
_cell_length_b 16.550956
_cell_length_c 13.888390
_cell_angle_alpha 90.000000
_cell_angle_beta 90.000000
_cell_angle_gamma 90.000000
_cell_volume 2186.388033
_symmetry_space_group_name_H-M "P B C N"
_symmetry_group_IT_number 60
_symmetry_cell_setting 'orthorhombic'
loop_
_space_group_symop_operation_xyz
x,y,z
1/2-x,1/2-y,1/2+z
1/2+x,1/2-y,-z
-x,y,1/2-z
-x,-y,-z
1/2+x,1/2+y,1/2-z
1/2-x,1/2+y,z
x,-y,1/2+z
loop_
_atom_site_type_symbol
_atom_site_label
_atom_site_fract_x
_atom_site_fract_y
_atom_site_fract_z
Si Si1 0.145936 0.540812 0.203012
Si Si2 0.510721 0.754868 0.001881
Si Si3 0.689442 0.487988 0.105182
Si Si4 0.958759 0.124269 0.857764
Si Si5 0.673505 0.094423 0.947954
Si Si6 0.224491 0.845189 0.547235
O O1 0.242178 0.501829 0.288921
O O2 0.108607 0.476072 0.118461
O O3 0.218473 0.613040 0.144035
O O4 0.000000 0.567416 0.250000
O O5 0.476705 0.704110 0.906224
O O6 0.675233 0.773902 0.993538
O O7 0.438725 0.840675 0.018441
O O8 0.429906 0.691592 0.071288
O O9 0.524429 0.463179 0.111207
O O10 0.740221 0.562216 0.040266
O O11 0.734935 0.411959 0.037974
O O12 0.000000 0.129505 0.750000
O O13 0.795218 0.127435 0.878732
#
# Coordination Sequence:
#
# PCOD9456869 Si02
#       6
#     8   8   8   8   8   8
#     4  11  22  40  66  98 127 167 225 270 317 389
#     4  11  22  42  63  93 132 170 212 264 330 387
#     4  10  22  40  67  95 127 172 217 273 321 384
#     4  11  22  41  66  92 129 174 215 265 333 392
#     4  11  22  41  65  94 133 169 217 270 326 389
#     4  10  23  41  67  95 132 174 218 267 331 388
#
# _framework density 21.954018000000001
#
# number of rings (size 3 to 8) (size 9 to 14) (size 15 to 20)
#    0.000    1.333    3.333    2.500    0.000    4.667 
#    0.000    0.000    3.667    0.000    0.000    0.000 
#    0.000    0.000    0.000    0.000    0.000    0.000 
#
# Total GULP energy -267269.117060 kJ/mol
# GULP energy per Si atom -5568.106605 kJ/mol
# Density = 2.190405 g / cm^3
# Si number density = 21.954018 Si / 1000 Ang^3
#
#
#
# Elastic Constant Matrix: (Units=GPa)
#
#
# Indices 1 2 3 4 5 6 
#
# 1 45.4244 -11.8576 -1.1264 0.0000 0.0000 0.0000
# 2 -11.8576 34.2359 0.0267 0.0000 0.0000 0.0000
# 3 -1.1264 0.0267 63.5455 0.0000 0.0000 0.0000
# 4 0.0000 0.0000 0.0000 6.3699 0.0000 0.0000
# 5 0.0000 0.0000 0.0000 0.0000 26.6546 0.0000
# 6 0.0000 0.0000 0.0000 0.0000 0.0000 11.3848
#
#
#
# Elastic Compliance Matrix: (Units=1/GPa)
#
#
# Indices 1 2 3 4 5 6 
#
# 1 0.024214 0.008386 0.000426 0.000000 0.000000 0.000000
# 2 0.008386 0.032114 0.000135 0.000000 0.000000 0.000000
# 3 0.000426 0.000135 0.015744 0.000000 0.000000 0.000000
# 4 0.000000 0.000000 0.000000 0.156988 0.000000 0.000000
# 5 0.000000 0.000000 0.000000 0.000000 0.037517 0.000000
# 6 0.000000 0.000000 0.000000 0.000000 0.000000 0.087837
#
#
# Mechanical properties :
#
#
# Convention : Reuss Voigt Hill
#
# Bulk Modulus (GPa) = 11.11524 13.03234 12.07379
# Shear Modulus (GPa) = 13.64225 19.29272 16.46749
#
# Velocity S-wave (km/s) = 2.49550 2.96764 2.74175
# Velocity P-wave (km/s) = 3.65750 4.20614 3.94137
#
# Compressibility (1/GPa) = 0.08996660
#
# Stress axis : x y z
#
# Youngs Moduli (GPa) = 41.29786 31.13943 63.51525
#
# Poissons Ratio (x) = -0.26115 -0.02704
# Poissons Ratio (y) = -0.34634 -0.00859
# Poissons Ratio (z) = -0.01758 -0.00421
#
# Static dielectric constant tensor:
#      x y z
#    x 1.922390 0.000000 0.000000 
#    y 0.000000 1.857340 0.000000 
#    z 0.000000 0.000000 1.810080 
# 
# From -- ./inp_files/11038.got.cif
#   From: 2010.05.17/outbox.cif.g08.bks.cpg/sg60_6_cif.got.tgz:11038.got - 2010.06.03 14:59:27.
