data_PCOD9456495
_publ_section_title
;
Structure prediction by ZEFSAII (Michael W. Deem and Ramdas Pophale) SiO2 
 PCOD9456495
Probable space group: P B C N
;
_chemical_formula_sum "Si O2"
_cell_formula_units_Z 56
_cell_length_a 17.623012
_cell_length_b 11.272502
_cell_length_c 11.948236
_cell_angle_alpha 90.000000
_cell_angle_beta 90.000000
_cell_angle_gamma 90.000000
_cell_volume 2373.582056
_symmetry_space_group_name_H-M "P B C N"
_symmetry_group_IT_number 60
_symmetry_cell_setting 'orthorhombic'
loop_
_space_group_symop_operation_xyz
x,y,z
1/2-x,1/2-y,1/2+z
1/2+x,1/2-y,-z
-x,y,1/2-z
-x,-y,-z
1/2+x,1/2+y,1/2-z
1/2-x,1/2+y,z
x,-y,1/2+z
loop_
_atom_site_type_symbol
_atom_site_label
_atom_site_fract_x
_atom_site_fract_y
_atom_site_fract_z
Si Si1 0.000000 0.339970 0.250000
Si Si2 0.207669 0.375872 0.471814
Si Si3 0.500000 0.776362 0.750000
Si Si4 0.934646 0.525593 0.406940
Si Si5 0.423845 0.447793 0.309176
Si Si6 0.242262 0.044750 0.730620
Si Si7 0.292622 0.701416 0.160178
Si Si8 0.104631 0.816001 0.873142
O O1 0.061232 0.426209 0.190632
O O2 0.030763 0.262716 0.353407
O O3 0.145483 0.459626 0.531320
O O4 0.227803 0.430628 0.354040
O O5 0.286564 0.343614 0.533373
O O6 0.162849 0.252739 0.451074
O O7 0.545563 0.855884 0.837538
O O8 0.552737 0.688360 0.675878
O O9 0.000000 0.500000 0.500000
O O10 0.500000 0.497330 0.250000
O O11 0.349261 0.446697 0.232661
O O12 0.407238 0.546982 0.402623
O O13 0.267614 0.161808 0.663231
O O14 0.261204 0.906071 0.708049
O O15 0.361895 0.690775 0.245728
#
# Coordination Sequence:
#
# PCOD9456495 Si02
#       8
#     4   8   4   8   8   8   8   8
#     4  11  21  42  64  92 135 167 222 280 338 401
#     4  11  24  41  65 101 133 177 228 278 346 422
#     4   9  21  40  66  94 129 175 220 282 340 411
#     4  11  23  38  65  98 131 173 221 281 343 404
#     4   9  19  41  68  88 125 172 216 272 335 391
#     4  10  23  43  66  97 132 177 224 282 340 410
#     4  10  24  42  67  92 137 178 222 279 341 405
#     4  10  21  43  67  95 129 173 218 285 334 409
#
# _framework density 23.593032000000001
#
# number of rings (size 3 to 8) (size 9 to 14) (size 15 to 20)
#    0.429    1.429    2.143    0.857    4.000    4.571 
#    2.571    0.714    0.000    0.000    0.000    0.000 
#    0.000    0.000    0.000    0.000    0.000    0.000 
#
# Total GULP energy -311755.241661 kJ/mol
# GULP energy per Si atom -5567.057887 kJ/mol
# Density = 2.353933 g / cm^3
# Si number density = 23.593032 Si / 1000 Ang^3
#
#
#
# Elastic Constant Matrix: (Units=GPa)
#
#
# Indices 1 2 3 4 5 6 
#
# 1 69.4633 7.9782 5.6240 0.0000 0.0000 0.0000
# 2 7.9782 162.4181 16.0069 0.0000 0.0000 0.0000
# 3 5.6240 16.0069 52.4961 0.0000 0.0000 0.0000
# 4 0.0000 0.0000 0.0000 11.5113 0.0000 0.0000
# 5 0.0000 0.0000 0.0000 0.0000 24.5631 0.0000
# 6 0.0000 0.0000 0.0000 0.0000 0.0000 22.2565
#
#
#
# Elastic Compliance Matrix: (Units=1/GPa)
#
#
# Indices 1 2 3 4 5 6 
#
# 1 0.014575 -0.000579 -0.001385 0.000000 0.000000 0.000000
# 2 -0.000579 0.006371 -0.001880 0.000000 0.000000 0.000000
# 3 -0.001385 -0.001880 0.019771 0.000000 0.000000 0.000000
# 4 0.000000 0.000000 0.000000 0.086871 0.000000 0.000000
# 5 0.000000 0.000000 0.000000 0.000000 0.040711 0.000000
# 6 0.000000 0.000000 0.000000 0.000000 0.000000 0.044931
#
#
# Mechanical properties :
#
#
# Convention : Reuss Voigt Hill
#
# Bulk Modulus (GPa) = 30.27828 38.17728 34.22778
# Shear Modulus (GPa) = 21.55841 28.65074 25.10457
#
# Velocity S-wave (km/s) = 3.02613 3.48857 3.26554
# Velocity P-wave (km/s) = 5.00713 5.69592 5.36260
#
# Compressibility (1/GPa) = 0.03302697
#
# Stress axis : x y z
#
# Youngs Moduli (GPa) = 68.61176 156.96766 50.57970
#
# Poissons Ratio (x) = 0.09096 0.07004
# Poissons Ratio (y) = 0.03976 0.09511
# Poissons Ratio (z) = 0.09501 0.29517
#
# Static dielectric constant tensor:
#      x y z
#    x 1.963990 0.000000 0.000000 
#    y 0.000000 1.950260 0.000000 
#    z 0.000000 0.000000 1.967580 
# 
# From -- ./inp_files/12844.got.cif
#   From: 2010.05.17/outbox.cif.g08.bks.cpg/sg60_7_cif.got.tgz:12844.got - 2010.06.03 14:59:27.
