data_PCOD9456767
_publ_section_title
;
Structure prediction by ZEFSAII (Michael W. Deem and Ramdas Pophale) SiO2 
 PCOD9456767
Probable space group: P B C N
;
_chemical_formula_sum "Si O2"
_cell_formula_units_Z 52
_cell_length_a 13.212207
_cell_length_b 8.694753
_cell_length_c 20.131857
_cell_angle_alpha 90.000000
_cell_angle_beta 90.000000
_cell_angle_gamma 90.000000
_cell_volume 2312.684849
_symmetry_space_group_name_H-M "P B C N"
_symmetry_group_IT_number 60
_symmetry_cell_setting 'orthorhombic'
loop_
_space_group_symop_operation_xyz
x,y,z
1/2-x,1/2-y,1/2+z
1/2+x,1/2-y,-z
-x,y,1/2-z
-x,-y,-z
1/2+x,1/2+y,1/2-z
1/2-x,1/2+y,z
x,-y,1/2+z
loop_
_atom_site_type_symbol
_atom_site_label
_atom_site_fract_x
_atom_site_fract_y
_atom_site_fract_z
Si Si1 0.000000 0.116065 0.250000
Si Si2 0.123192 0.624886 0.972991
Si Si3 0.794710 0.666759 0.095286
Si Si4 0.255005 0.602849 0.672213
Si Si5 0.377743 0.849071 0.630484
Si Si6 0.682001 0.426518 0.190577
Si Si7 0.455258 0.152985 0.631615
O O1 0.014556 0.227690 0.187385
O O2 0.093544 0.008864 0.269408
O O3 0.213578 0.732281 0.945577
O O4 0.144809 0.448071 0.952376
O O5 0.022736 0.672941 0.933083
O O6 0.116369 0.640550 0.051461
O O7 0.737567 0.552046 0.145623
O O8 0.852291 0.789675 0.141812
O O9 0.362145 0.672643 0.650111
O O10 0.225554 0.424622 0.661510
O O11 0.243918 0.634582 0.750862
O O12 0.165627 0.667394 0.624453
O O13 0.461520 0.972239 0.655168
#
# Coordination Sequence:
#
# PCOD9456767 Si02
#       7
#     4   8   8   8   8   8   8
#     4  12  22  40  60  90 126 156 202 266 318 368
#     4  11  21  43  63  91 125 168 211 252 318 373
#     4  10  23  38  64  89 121 164 207 255 314 373
#     4  10  22  39  63  92 121 163 209 259 312 365
#     4  10  22  39  64  90 124 165 210 253 309 383
#     4  11  22  41  60  91 124 157 208 260 314 371
#     4  10  24  37  64  91 124 163 208 261 316 366
#
# _framework density 22.484688999999999
#
# number of rings (size 3 to 8) (size 9 to 14) (size 15 to 20)
#    0.923    0.615    1.538    4.154    2.154    1.231 
#    0.000    0.000    0.000    3.692    0.000    0.000 
#    0.000    0.000    0.000    0.000    0.000    0.000 
#
# Total GULP energy -289850.232965 kJ/mol
# GULP energy per Si atom -5574.042942 kJ/mol
# Density = 2.243351 g / cm^3
# Si number density = 22.484689 Si / 1000 Ang^3
#
#
#
# Elastic Constant Matrix: (Units=GPa)
#
#
# Indices 1 2 3 4 5 6 
#
# 1 26.6703 15.1942 6.8290 0.0000 0.0000 0.0000
# 2 15.1942 84.4633 41.8229 0.0000 0.0000 0.0000
# 3 6.8290 41.8229 101.0385 0.0000 0.0000 0.0000
# 4 0.0000 0.0000 0.0000 34.6249 0.0000 0.0000
# 5 0.0000 0.0000 0.0000 0.0000 13.5354 0.0000
# 6 0.0000 0.0000 0.0000 0.0000 0.0000 -30.9929
#
#
#
# Elastic Compliance Matrix: (Units=1/GPa)
#
#
# Indices 1 2 3 4 5 6 
#
# 1 0.041787 -0.007696 0.000361 0.000000 0.000000 0.000000
# 2 -0.007696 0.016309 -0.006231 0.000000 0.000000 0.000000
# 3 0.000361 -0.006231 0.012452 0.000000 0.000000 0.000000
# 4 0.000000 0.000000 0.000000 0.028881 0.000000 0.000000
# 5 0.000000 0.000000 0.000000 0.000000 0.073880 0.000000
# 6 0.000000 0.000000 0.000000 0.000000 0.000000 -0.032265
#
#
# Mechanical properties :
#
#
# Convention : Reuss Voigt Hill
#
# Bulk Modulus (GPa) = 23.03239 37.76273 30.39756
# Shear Modulus (GPa) = 27.37525 13.32188 20.34857
#
# Velocity S-wave (km/s) = 3.49306 2.43675 3.01158
# Velocity P-wave (km/s) = 5.15116 4.97477 5.06373
#
# Compressibility (1/GPa) = 0.04341711
#
# Stress axis : x y z
#
# Youngs Moduli (GPa) = 23.93093 61.31549 80.30929
#
# Poissons Ratio (x) = 0.47189 -0.02902
# Poissons Ratio (y) = 0.18417 0.50038
# Poissons Ratio (z) = -0.00865 0.38204
#
# Static dielectric constant tensor:
#      x y z
#    x 1.879310 0.000000 0.000000 
#    y 0.000000 1.891990 0.000000 
#    z 0.000000 0.000000 1.785530 
# 
# From -- ./inp_files/22861.got.cif
#   From: 2010.05.17/outbox.cif.g08.bks.cpg/sg60_12_cif.got.tgz:22861.got - 2010.06.03 14:59:27.
