data_PCOD9456921
_publ_section_title
;
Structure prediction by ZEFSAII (Michael W. Deem and Ramdas Pophale) SiO2 
 PCOD9456921
Probable space group: P B C N
;
_chemical_formula_sum "Si O2"
_cell_formula_units_Z 64
_cell_length_a 13.407877
_cell_length_b 16.805369
_cell_length_c 14.186021
_cell_angle_alpha 90.000000
_cell_angle_beta 90.000000
_cell_angle_gamma 90.000000
_cell_volume 3196.455542
_symmetry_space_group_name_H-M "P B C N"
_symmetry_group_IT_number 60
_symmetry_cell_setting 'orthorhombic'
loop_
_space_group_symop_operation_xyz
x,y,z
1/2-x,1/2-y,1/2+z
1/2+x,1/2-y,-z
-x,y,1/2-z
-x,-y,-z
1/2+x,1/2+y,1/2-z
1/2-x,1/2+y,z
x,-y,1/2+z
loop_
_atom_site_type_symbol
_atom_site_label
_atom_site_fract_x
_atom_site_fract_y
_atom_site_fract_z
Si Si1 0.850964 0.328252 0.381347
Si Si2 0.916376 0.630928 0.325137
Si Si3 0.800433 0.825983 0.547313
Si Si4 0.738718 0.406360 0.121042
Si Si5 0.066921 0.669874 0.962477
Si Si6 0.883565 0.005069 0.979320
Si Si7 0.255598 0.992969 0.189438
Si Si8 0.775549 0.254503 0.728951
O O1 0.790279 0.308033 0.476066
O O2 0.815058 0.415920 0.350068
O O3 0.813031 0.269310 0.299901
O O4 0.967379 0.327427 0.401453
O O5 0.955667 0.641730 0.431107
O O6 0.825898 0.568390 0.326079
O O7 0.868216 0.713111 0.287893
O O8 0.000000 0.605844 0.250000
O O9 0.881843 0.756535 0.534621
O O10 0.843979 0.911109 0.520118
O O11 0.760055 0.819242 0.653350
O O12 0.737969 0.473407 0.201483
O O13 0.700827 0.325183 0.169889
O O14 0.849989 0.387412 0.084140
O O15 0.672282 0.434749 0.034771
O O16 0.845617 0.000802 0.871398
O O17 0.000000 0.000000 0.000000
#
# Coordination Sequence:
#
# PCOD9456921 Si02
#       8
#     8   8   8   8   8   8   8   8
#     4  10  22  42  65  93 134 172 219 277 337 400
#     4  12  24  39  64 102 133 176 225 278 343 407
#     4  10  22  41  63  95 129 168 221 277 324 405
#     4  10  23  44  66  97 132 173 225 280 336 403
#     4  11  23  40  70  97 132 180 223 277 349 397
#     4  11  24  44  68  95 131 181 223 279 340 396
#     4  10  24  43  65  96 139 170 225 281 330 415
#     4  10  22  42  64  90 135 168 215 283 328 400
#
# _framework density 20.022176999999999
#
# number of rings (size 3 to 8) (size 9 to 14) (size 15 to 20)
#    0.000    1.500    2.500    1.500    1.750   10.000 
#    0.000    1.250    0.000    0.000    0.000    0.000 
#    0.000    0.000    0.000    0.000    0.000    0.000 
#
# Total GULP energy -357741.131379 kJ/mol
# GULP energy per Si atom -5589.705178 kJ/mol
# Density = 1.997661 g / cm^3
# Si number density = 20.022177 Si / 1000 Ang^3
#
#
#
# Elastic Constant Matrix: (Units=GPa)
#
#
# Indices 1 2 3 4 5 6 
#
# 1 96.4127 12.9168 25.6509 0.0000 0.0000 0.0000
# 2 12.9168 34.2761 18.4257 0.0000 0.0000 0.0000
# 3 25.6509 18.4257 111.6389 0.0000 0.0000 0.0000
# 4 0.0000 0.0000 0.0000 24.2378 0.0000 0.0000
# 5 0.0000 0.0000 0.0000 0.0000 27.6140 0.0000
# 6 0.0000 0.0000 0.0000 0.0000 0.0000 23.8019
#
#
#
# Elastic Compliance Matrix: (Units=1/GPa)
#
#
# Indices 1 2 3 4 5 6 
#
# 1 0.011350 -0.003155 -0.002087 0.000000 0.000000 0.000000
# 2 -0.003155 0.032893 -0.004704 0.000000 0.000000 0.000000
# 3 -0.002087 -0.004704 0.010213 0.000000 0.000000 0.000000
# 4 0.000000 0.000000 0.000000 0.041258 0.000000 0.000000
# 5 0.000000 0.000000 0.000000 0.000000 0.036213 0.000000
# 6 0.000000 0.000000 0.000000 0.000000 0.000000 0.042013
#
#
# Mechanical properties :
#
#
# Convention : Reuss Voigt Hill
#
# Bulk Modulus (GPa) = 28.93225 39.59052 34.26139
# Shear Modulus (GPa) = 24.34816 27.48637 25.91726
#
# Velocity S-wave (km/s) = 3.49099 3.70915 3.60172
# Velocity P-wave (km/s) = 5.54354 6.17737 5.86902
#
# Compressibility (1/GPa) = 0.03456351
#
# Stress axis : x y z
#
# Youngs Moduli (GPa) = 88.10506 30.40205 97.91105
#
# Poissons Ratio (x) = 0.09593 0.20435
# Poissons Ratio (y) = 0.27800 0.46056
# Poissons Ratio (z) = 0.18388 0.14301
#
# Static dielectric constant tensor:
#      x y z
#    x 1.661510 0.000000 0.000000 
#    y 0.000000 1.707590 0.000000 
#    z 0.000000 0.000000 1.723480 
# 
# From -- ./inp_files/16366.got.cif
#   From: 2010.05.17/outbox.cif.g08.bks.cpg/sg60_9_cif.got.tgz:16366.got - 2010.06.03 14:59:27.
