data_PCOD9456935
_publ_section_title
;
Structure prediction by ZEFSAII (Michael W. Deem and Ramdas Pophale) SiO2 
 PCOD9456935
Probable space group: P B C N
;
_chemical_formula_sum "Si O2"
_cell_formula_units_Z 48
_cell_length_a 7.944726
_cell_length_b 9.125081
_cell_length_c 30.576606
_cell_angle_alpha 90.000000
_cell_angle_beta 90.000000
_cell_angle_gamma 90.000000
_cell_volume 2216.689831
_symmetry_space_group_name_H-M "P B C N"
_symmetry_group_IT_number 60
_symmetry_cell_setting 'orthorhombic'
loop_
_space_group_symop_operation_xyz
x,y,z
1/2-x,1/2-y,1/2+z
1/2+x,1/2-y,-z
-x,y,1/2-z
-x,-y,-z
1/2+x,1/2+y,1/2-z
1/2-x,1/2+y,z
x,-y,1/2+z
loop_
_atom_site_type_symbol
_atom_site_label
_atom_site_fract_x
_atom_site_fract_y
_atom_site_fract_z
Si Si1 0.471117 0.925710 0.198733
Si Si2 0.576380 0.522631 0.883514
Si Si3 0.303500 0.206312 0.166473
Si Si4 0.362309 0.400661 0.023688
Si Si5 0.299835 0.911011 0.386906
Si Si6 0.384218 0.163623 0.445528
O O1 0.500000 0.906505 0.250000
O O2 0.308318 0.823695 0.191884
O O3 0.607267 0.885377 0.159970
O O4 0.428402 0.097145 0.191104
O O5 0.670821 0.402526 0.855558
O O6 0.598684 0.688531 0.866454
O O7 0.663871 0.518110 0.930590
O O8 0.376555 0.501614 0.881548
O O9 0.451714 0.249716 0.038174
O O10 0.500000 0.500000 0.000000
O O11 0.213627 0.379257 0.989810
O O12 0.236503 0.775070 0.417213
O O13 0.413973 0.019658 0.416160
#
# Coordination Sequence:
#
# PCOD9456935 Si02
#       6
#     8   8   8   8   8   8
#     4  11  25  44  69  97 123 164 209 264 324 387
#     4  10  22  41  64  92 132 171 212 260 311 377
#     4  10  24  42  65  95 128 167 205 262 327 371
#     4  11  23  38  58  93 125 165 219 257 302 368
#     4  11  23  42  64  89 127 169 215 258 329 372
#     4  11  23  40  62  90 126 170 211 265 310 371
#
# _framework density 21.653908999999999
#
# number of rings (size 3 to 8) (size 9 to 14) (size 15 to 20)
#    0.000    1.333    3.333    3.000    2.333    6.000 
#    0.000    3.333    0.000    0.000    0.000    0.000 
#    0.000    0.000    0.000    0.000    0.000    0.000 
#
# Total GULP energy -267885.320223 kJ/mol
# GULP energy per Si atom -5580.944171 kJ/mol
# Density = 2.160462 g / cm^3
# Si number density = 21.653909 Si / 1000 Ang^3
#
#
#
# Elastic Constant Matrix: (Units=GPa)
#
#
# Indices 1 2 3 4 5 6 
#
# 1 49.4606 -15.4592 15.3587 0.0000 0.0000 0.0000
# 2 -15.4592 53.2549 0.4405 0.0000 0.0000 0.0000
# 3 15.3587 0.4405 128.1277 0.0000 0.0000 0.0000
# 4 0.0000 0.0000 0.0000 16.8583 0.0000 0.0000
# 5 0.0000 0.0000 0.0000 0.0000 25.0496 0.0000
# 6 0.0000 0.0000 0.0000 0.0000 0.0000 31.4307
#
#
#
# Elastic Compliance Matrix: (Units=1/GPa)
#
#
# Indices 1 2 3 4 5 6 
#
# 1 0.023201 0.006758 -0.002804 0.000000 0.000000 0.000000
# 2 0.006758 0.020747 -0.000881 0.000000 0.000000 0.000000
# 3 -0.002804 -0.000881 0.008144 0.000000 0.000000 0.000000
# 4 0.000000 0.000000 0.000000 0.059318 0.000000 0.000000
# 5 0.000000 0.000000 0.000000 0.000000 0.039921 0.000000
# 6 0.000000 0.000000 0.000000 0.000000 0.000000 0.031816
#
#
# Mechanical properties :
#
#
# Convention : Reuss Voigt Hill
#
# Bulk Modulus (GPa) = 17.17129 25.72481 21.44805
# Shear Modulus (GPa) = 25.45641 30.03460 27.74550
#
# Velocity S-wave (km/s) = 3.43243 3.72832 3.58343
# Velocity P-wave (km/s) = 4.86373 5.51721 5.20074
#
# Compressibility (1/GPa) = 0.05823674
#
# Stress axis : x y z
#
# Youngs Moduli (GPa) = 43.10107 48.20033 122.79121
#
# Poissons Ratio (x) = -0.32575 0.34435
# Poissons Ratio (y) = -0.29129 0.10823
# Poissons Ratio (z) = 0.12087 0.04249
#
# Static dielectric constant tensor:
#      x y z
#    x 1.687840 0.000000 0.000000 
#    y 0.000000 1.806290 0.000000 
#    z 0.000000 0.000000 1.742950 
# 
# From -- ./inp_files/25915.got.cif
#   From: 2010.05.17/outbox.cif.g08.bks.cpg/sg60_13_cif.got.tgz:25915.got - 2010.06.03 14:59:27.
