data_PCOD9456465
_publ_section_title
;
Structure prediction by ZEFSAII (Michael W. Deem and Ramdas Pophale) SiO2 
 PCOD9456465
Probable space group: P B C N
;
_chemical_formula_sum "Si O2"
_cell_formula_units_Z 32
_cell_length_a 4.935297
_cell_length_b 20.370739
_cell_length_c 13.929810
_cell_angle_alpha 90.000000
_cell_angle_beta 90.000000
_cell_angle_gamma 90.000000
_cell_volume 1400.442462
_symmetry_space_group_name_H-M "P B C N"
_symmetry_group_IT_number 60
_symmetry_cell_setting 'orthorhombic'
loop_
_space_group_symop_operation_xyz
x,y,z
1/2-x,1/2-y,1/2+z
1/2+x,1/2-y,-z
-x,y,1/2-z
-x,-y,-z
1/2+x,1/2+y,1/2-z
1/2-x,1/2+y,z
x,-y,1/2+z
loop_
_atom_site_type_symbol
_atom_site_label
_atom_site_fract_x
_atom_site_fract_y
_atom_site_fract_z
Si Si1 0.510681 0.411928 0.077439
Si Si2 0.500000 0.262201 0.750000
Si Si3 0.162736 0.122594 0.379299
Si Si4 0.819776 0.538006 0.400674
Si Si5 0.000000 0.823294 0.250000
O O1 0.294670 0.465471 0.115641
O O2 0.610969 0.368546 0.164172
O O3 0.368200 0.368825 0.994439
O O4 0.745648 0.448823 0.014603
O O5 0.342080 0.308904 0.825516
O O6 0.254317 0.218205 0.710515
O O7 0.395886 0.067999 0.370389
O O8 0.886834 0.087136 0.348859
#
# Coordination Sequence:
#
# PCOD9456465 Si02
#       5
#     8   4   8   8   4
#     4   9  23  41  69  99 130 165 220 288 344 403
#     4  12  28  43  60  99 136 192 236 256 332 420
#     4  10  21  42  68  91 133 167 226 276 327 409
#     4   9  20  40  72  97 122 161 220 280 363 384
#     4  12  28  41  64  95 144 180 230 270 334 412
#
# _framework density 22.849920000000001
#
# number of rings (size 3 to 8) (size 9 to 14) (size 15 to 20)
#    1.500    0.500    0.000    2.250    3.500    3.000 
#    0.000    0.000    0.000    0.000    0.000    0.000 
#    0.000    0.000    0.000    0.000    0.000    0.000 
#
# Total GULP energy -178305.729660 kJ/mol
# GULP energy per Si atom -5572.054052 kJ/mol
# Density = 2.279791 g / cm^3
# Si number density = 22.849920 Si / 1000 Ang^3
#
#
#
# Elastic Constant Matrix: (Units=GPa)
#
#
# Indices 1 2 3 4 5 6 
#
# 1 72.4566 6.5043 -24.5652 0.0000 0.0000 0.0000
# 2 6.5043 81.4291 30.2191 0.0000 0.0000 0.0000
# 3 -24.5652 30.2191 53.9632 0.0000 0.0000 0.0000
# 4 0.0000 0.0000 0.0000 26.0091 0.0000 0.0000
# 5 0.0000 0.0000 0.0000 0.0000 23.3750 0.0000
# 6 0.0000 0.0000 0.0000 0.0000 0.0000 18.1797
#
#
#
# Elastic Compliance Matrix: (Units=1/GPa)
#
#
# Indices 1 2 3 4 5 6 
#
# 1 0.018211 -0.005720 0.011493 0.000000 0.000000 0.000000
# 2 -0.005720 0.017299 -0.012291 0.000000 0.000000 0.000000
# 3 0.011493 -0.012291 0.030646 0.000000 0.000000 0.000000
# 4 0.000000 0.000000 0.000000 0.038448 0.000000 0.000000
# 5 0.000000 0.000000 0.000000 0.000000 0.042781 0.000000
# 6 0.000000 0.000000 0.000000 0.000000 0.000000 0.055006
#
#
# Mechanical properties :
#
#
# Convention : Reuss Voigt Hill
#
# Bulk Modulus (GPa) = 18.82491 25.79614 22.31053
# Shear Modulus (GPa) = 21.44688 26.55881 24.00284
#
# Velocity S-wave (km/s) = 3.06698 3.41297 3.24459
# Velocity P-wave (km/s) = 4.56050 5.18122 4.88074
#
# Compressibility (1/GPa) = 0.05312111
#
# Stress axis : x y z
#
# Youngs Moduli (GPa) = 54.91040 57.80731 32.63055
#
# Poissons Ratio (x) = 0.33066 -0.37504
# Poissons Ratio (y) = 0.31409 0.40107
# Poissons Ratio (z) = -0.63111 0.71052
#
# Static dielectric constant tensor:
#      x y z
#    x 1.923140 0.000000 0.000000 
#    y 0.000000 1.832490 0.000000 
#    z 0.000000 0.000000 1.920960 
# 
# From -- ./inp_files/18496.got.cif
#   From: 2010.05.17/outbox.cif.g08.bks.cpg/sg60_10_cif.got.tgz:18496.got - 2010.06.03 14:59:27.
