data_PCOD9456620
_publ_section_title
;
Structure prediction by ZEFSAII (Michael W. Deem and Ramdas Pophale) SiO2 
 PCOD9456620
Probable space group: P B C N
;
_chemical_formula_sum "Si O2"
_cell_formula_units_Z 64
_cell_length_a 8.263913
_cell_length_b 33.506828
_cell_length_c 12.159437
_cell_angle_alpha 90.000000
_cell_angle_beta 90.000000
_cell_angle_gamma 90.000000
_cell_volume 3366.917847
_symmetry_space_group_name_H-M "P B C N"
_symmetry_group_IT_number 60
_symmetry_cell_setting 'orthorhombic'
loop_
_space_group_symop_operation_xyz
x,y,z
1/2-x,1/2-y,1/2+z
1/2+x,1/2-y,-z
-x,y,1/2-z
-x,-y,-z
1/2+x,1/2+y,1/2-z
1/2-x,1/2+y,z
x,-y,1/2+z
loop_
_atom_site_type_symbol
_atom_site_label
_atom_site_fract_x
_atom_site_fract_y
_atom_site_fract_z
Si Si1 0.126538 0.938902 0.481674
Si Si2 0.695143 0.158022 0.738577
Si Si3 0.812044 0.429208 0.237291
Si Si4 0.699681 0.233674 0.889361
Si Si5 0.323511 0.812793 0.704386
Si Si6 0.649158 0.652351 0.497943
Si Si7 0.609137 0.286904 0.594202
Si Si8 0.883030 0.995561 0.350744
O O1 0.263520 0.936052 0.388834
O O2 0.085764 0.892991 0.503783
O O3 0.983284 0.964993 0.428035
O O4 0.174532 0.965276 0.586184
O O5 0.500000 0.156856 0.750000
O O6 0.760132 0.113945 0.773358
O O7 0.737900 0.194804 0.816901
O O8 0.759910 0.162181 0.613142
O O9 0.753954 0.467350 0.303082
O O10 0.000000 0.425675 0.250000
O O11 0.817306 0.268730 0.848344
O O12 0.515118 0.250467 0.877978
O O13 0.744200 0.226454 0.016169
O O14 0.500000 0.822384 0.750000
O O15 0.268792 0.841637 0.605884
O O16 0.188042 0.808595 0.800436
O O17 0.504156 0.682903 0.473995
O O18 0.000000 0.007131 0.250000
#
# Coordination Sequence:
#
# PCOD9456620 Si02
#       8
#     8   8   8   8   8   8   8   8
#     4   9  19  37  59  85 117 152 193 234 287 347
#     4  10  22  36  62  86 118 157 195 251 300 354
#     4   9  19  36  55  88 119 146 189 241 288 340
#     4  11  24  38  62  83 119 152 204 241 309 350
#     4  11  25  42  60  81 117 155 198 252 295 360
#     4  10  23  41  60  88 120 156 201 248 299 351
#     4  11  25  41  60  88 116 158 197 255 295 360
#     4   9  18  34  60  86 115 153 189 234 284 350
#
# _framework density 19.008482999999998
#
# number of rings (size 3 to 8) (size 9 to 14) (size 15 to 20)
#    0.000    2.000    0.000    3.000   12.250    1.500 
#    0.000    0.625    0.000    0.000    0.000    0.000 
#    0.000    0.000    0.000    0.000    0.000    0.000 
#
# Total GULP energy -356889.766170 kJ/mol
# GULP energy per Si atom -5576.402596 kJ/mol
# Density = 1.896522 g / cm^3
# Si number density = 19.008483 Si / 1000 Ang^3
#
#
#
# Elastic Constant Matrix: (Units=GPa)
#
#
# Indices 1 2 3 4 5 6 
#
# 1 57.2652 12.5825 20.4207 0.0000 0.0000 0.0000
# 2 12.5825 114.6524 49.6888 0.0000 0.0000 0.0000
# 3 20.4207 49.6888 86.5169 0.0000 0.0000 0.0000
# 4 0.0000 0.0000 0.0000 37.5263 0.0000 0.0000
# 5 0.0000 0.0000 0.0000 0.0000 22.4002 0.0000
# 6 0.0000 0.0000 0.0000 0.0000 0.0000 15.3174
#
#
#
# Elastic Compliance Matrix: (Units=1/GPa)
#
#
# Indices 1 2 3 4 5 6 
#
# 1 0.019071 -0.000189 -0.004393 0.000000 0.000000 0.000000
# 2 -0.000189 0.011614 -0.006626 0.000000 0.000000 0.000000
# 3 -0.004393 -0.006626 0.016401 0.000000 0.000000 0.000000
# 4 0.000000 0.000000 0.000000 0.026648 0.000000 0.000000
# 5 0.000000 0.000000 0.000000 0.000000 0.044643 0.000000
# 6 0.000000 0.000000 0.000000 0.000000 0.000000 0.065285
#
#
# Mechanical properties :
#
#
# Convention : Reuss Voigt Hill
#
# Bulk Modulus (GPa) = 40.53445 47.09095 43.81270
# Shear Modulus (GPa) = 23.33181 26.76493 25.04837
#
# Velocity S-wave (km/s) = 3.50729 3.75647 3.63402
# Velocity P-wave (km/s) = 6.14590 6.60623 6.38022
#
# Compressibility (1/GPa) = 0.02467037
#
# Stress axis : x y z
#
# Youngs Moduli (GPa) = 52.43680 86.10101 60.97365
#
# Poissons Ratio (x) = 0.01629 0.26783
# Poissons Ratio (y) = 0.00992 0.40399
# Poissons Ratio (z) = 0.23033 0.57048
#
# Static dielectric constant tensor:
#      x y z
#    x 1.658640 0.000000 0.000000 
#    y 0.000000 1.672080 0.000000 
#    z 0.000000 0.000000 1.704480 
# 
# From -- ./inp_files/10394.got.cif
#   From: 2010.05.17/outbox.cif.g08.bks.cpg/sg60_6_cif.got.tgz:10394.got - 2010.06.03 14:59:27.
