data_PCOD9456741
_publ_section_title
;
Structure prediction by ZEFSAII (Michael W. Deem and Ramdas Pophale) SiO2 
 PCOD9456741
Probable space group: P B C N
;
_chemical_formula_sum "Si O2"
_cell_formula_units_Z 24
_cell_length_a 7.823189
_cell_length_b 27.821036
_cell_length_c 5.043077
_cell_angle_alpha 90.000000
_cell_angle_beta 90.000000
_cell_angle_gamma 90.000000
_cell_volume 1097.621790
_symmetry_space_group_name_H-M "P B C N"
_symmetry_group_IT_number 60
_symmetry_cell_setting 'orthorhombic'
loop_
_space_group_symop_operation_xyz
x,y,z
1/2-x,1/2-y,1/2+z
1/2+x,1/2-y,-z
-x,y,1/2-z
-x,-y,-z
1/2+x,1/2+y,1/2-z
1/2-x,1/2+y,z
x,-y,1/2+z
loop_
_atom_site_type_symbol
_atom_site_label
_atom_site_fract_x
_atom_site_fract_y
_atom_site_fract_z
Si Si1 0.203506 0.525348 0.198109
Si Si2 0.375068 0.619072 0.000417
Si Si3 0.684895 0.275102 0.889171
O O1 0.272136 0.514926 0.492521
O O2 0.000000 0.522349 0.250000
O O3 0.248027 0.575201 0.057053
O O4 0.500000 0.614617 0.750000
O O5 0.500000 0.618755 0.250000
O O6 0.283933 0.670948 0.004733
O O7 0.804774 0.258721 0.646667
O O8 0.500000 0.273336 0.750000
#
# Coordination Sequence:
#
# PCOD9456741 Si02
#       3
#     8   8   8
#     4  10  22  39  59  87 122 157 198 247 298 357
#     4  11  23  40  61  88 120 155 201 250 298 359
#     4  11  23  41  62  89 122 158 202 252 305 364
#
# _framework density 21.865455999999998
#
# number of rings (size 3 to 8) (size 9 to 14) (size 15 to 20)
#    0.000    1.333    0.000    7.000    0.000    6.667 
#    0.000    3.333    0.000    0.000    0.000    0.000 
#    0.000    0.000    0.000    0.000    0.000    0.000 
#
# Total GULP energy -133972.710053 kJ/mol
# GULP energy per Si atom -5582.196252 kJ/mol
# Density = 2.181569 g / cm^3
# Si number density = 21.865456 Si / 1000 Ang^3
#
#
#
# Elastic Constant Matrix: (Units=GPa)
#
#
# Indices 1 2 3 4 5 6 
#
# 1 25.8898 34.3397 41.0188 0.0000 0.0000 0.0000
# 2 34.3397 142.8965 68.4515 0.0000 0.0000 0.0000
# 3 41.0188 68.4515 197.6689 0.0000 0.0000 0.0000
# 4 0.0000 0.0000 0.0000 39.2073 0.0000 0.0000
# 5 0.0000 0.0000 0.0000 0.0000 36.4351 0.0000
# 6 0.0000 0.0000 0.0000 0.0000 0.0000 30.5553
#
#
#
# Elastic Compliance Matrix: (Units=1/GPa)
#
#
# Indices 1 2 3 4 5 6 
#
# 1 0.071549 -0.012087 -0.010662 0.000000 0.000000 0.000000
# 2 -0.012087 0.010432 -0.001104 0.000000 0.000000 0.000000
# 3 -0.010662 -0.001104 0.007654 0.000000 0.000000 0.000000
# 4 0.000000 0.000000 0.000000 0.025505 0.000000 0.000000
# 5 0.000000 0.000000 0.000000 0.000000 0.027446 0.000000
# 6 0.000000 0.000000 0.000000 0.000000 0.000000 0.032728
#
#
# Mechanical properties :
#
#
# Convention : Reuss Voigt Hill
#
# Bulk Modulus (GPa) = 23.84998 72.67503 48.26250
# Shear Modulus (GPa) = 21.09750 36.08256 28.59003
#
# Velocity S-wave (km/s) = 3.10962 4.06668 3.61992
# Velocity P-wave (km/s) = 4.88101 7.44043 6.29223
#
# Compressibility (1/GPa) = 0.04192876
#
# Stress axis : x y z
#
# Youngs Moduli (GPa) = 13.97649 95.86235 130.65395
#
# Poissons Ratio (x) = 1.15866 1.39300
# Poissons Ratio (y) = 0.16893 0.14428
# Poissons Ratio (z) = 0.14901 0.10586
#
# Static dielectric constant tensor:
#      x y z
#    x 1.819060 0.000000 0.000000 
#    y 0.000000 1.889160 0.000000 
#    z 0.000000 0.000000 1.771910 
# 
# From -- ./inp_files/225.got.cif
#   From: 2010.05.17/outbox.cif.g08.bks.cpg/sg60_1_cif.got.tgz:225.got - 2010.06.03 14:59:27.
