data_PCOD9456661
_publ_section_title
;
Structure prediction by ZEFSAII (Michael W. Deem and Ramdas Pophale) SiO2 
 PCOD9456661
Probable space group: P B C N
;
_chemical_formula_sum "Si O2"
_cell_formula_units_Z 48
_cell_length_a 28.506208
_cell_length_b 8.544876
_cell_length_c 8.439534
_cell_angle_alpha 90.000000
_cell_angle_beta 90.000000
_cell_angle_gamma 90.000000
_cell_volume 2055.718677
_symmetry_space_group_name_H-M "P B C N"
_symmetry_group_IT_number 60
_symmetry_cell_setting 'orthorhombic'
loop_
_space_group_symop_operation_xyz
x,y,z
1/2-x,1/2-y,1/2+z
1/2+x,1/2-y,-z
-x,y,1/2-z
-x,-y,-z
1/2+x,1/2+y,1/2-z
1/2-x,1/2+y,z
x,-y,1/2+z
loop_
_atom_site_type_symbol
_atom_site_label
_atom_site_fract_x
_atom_site_fract_y
_atom_site_fract_z
Si Si1 0.704642 0.575026 0.115806
Si Si2 0.556500 0.269657 0.238859
Si Si3 0.212745 0.758863 0.223130
Si Si4 0.445751 0.465244 0.965273
Si Si5 0.613735 0.238590 0.695077
Si Si6 0.625239 0.951868 0.873673
O O1 0.741883 0.658870 0.231388
O O2 0.706936 0.389326 0.140117
O O3 0.653256 0.632083 0.165769
O O4 0.715000 0.641528 0.940157
O O5 0.500000 0.259106 0.250000
O O6 0.574172 0.383972 0.379665
O O7 0.572066 0.365035 0.085307
O O8 0.579758 0.107057 0.276625
O O9 0.170089 0.636711 0.200463
O O10 0.434809 0.333774 0.830941
O O11 0.500000 0.500000 0.000000
O O12 0.620189 0.113611 0.550992
O O13 0.625037 0.137064 0.849524
#
# Coordination Sequence:
#
# PCOD9456661 Si02
#       6
#     8   8   8   8   8   8
#     4  11  23  39  60  87 118 158 202 247 298 353
#     4   9  18  35  56  80 110 143 185 235 285 342
#     4  11  23  39  60  86 119 156 197 246 295 352
#     4   9  18  35  57  81 108 143 187 234 285 345
#     4  10  22  38  57  84 117 154 196 241 294 351
#     4  10  22  38  56  82 117 152 190 239 290 345
#
# _framework density 23.349498000000001
#
# number of rings (size 3 to 8) (size 9 to 14) (size 15 to 20)
#    0.000    2.000    0.000    3.000    0.000    6.667 
#    0.000   10.000    0.000    0.000    0.000    0.000 
#    0.000    0.000    0.000    0.000    0.000    0.000 
#
# Total GULP energy -268071.044432 kJ/mol
# GULP energy per Si atom -5584.813426 kJ/mol
# Density = 2.329635 g / cm^3
# Si number density = 23.349498 Si / 1000 Ang^3
#
#
#
# Elastic Constant Matrix: (Units=GPa)
#
#
# Indices 1 2 3 4 5 6 
#
# 1 77.0921 35.8739 22.7673 0.0000 0.0000 0.0000
# 2 35.8739 79.6007 22.6284 0.0000 0.0000 0.0000
# 3 22.7673 22.6284 33.9849 0.0000 0.0000 0.0000
# 4 0.0000 0.0000 0.0000 52.6921 0.0000 0.0000
# 5 0.0000 0.0000 0.0000 0.0000 20.7494 0.0000
# 6 0.0000 0.0000 0.0000 0.0000 0.0000 43.2629
#
#
#
# Elastic Compliance Matrix: (Units=1/GPa)
#
#
# Indices 1 2 3 4 5 6 
#
# 1 0.018119 -0.005816 -0.008266 0.000000 0.000000 0.000000
# 2 -0.005816 0.017363 -0.007664 0.000000 0.000000 0.000000
# 3 -0.008266 -0.007664 0.040066 0.000000 0.000000 0.000000
# 4 0.000000 0.000000 0.000000 0.018978 0.000000 0.000000
# 5 0.000000 0.000000 0.000000 0.000000 0.048194 0.000000
# 6 0.000000 0.000000 0.000000 0.000000 0.000000 0.023114
#
#
# Mechanical properties :
#
#
# Convention : Reuss Voigt Hill
#
# Bulk Modulus (GPa) = 31.19668 39.24633 35.22151
# Shear Modulus (GPa) = 22.72608 30.63477 26.68042
#
# Velocity S-wave (km/s) = 3.12316 3.62610 3.38399
# Velocity P-wave (km/s) = 5.13763 5.86312 5.51232
#
# Compressibility (1/GPa) = 0.03205469
#
# Stress axis : x y z
#
# Youngs Moduli (GPa) = 55.19056 57.59505 24.95904
#
# Poissons Ratio (x) = 0.33497 0.20631
# Poissons Ratio (y) = 0.32099 0.19130
# Poissons Ratio (z) = 0.45620 0.44143
#
# Static dielectric constant tensor:
#      x y z
#    x 1.875510 0.000000 0.000000 
#    y 0.000000 1.884480 0.000000 
#    z 0.000000 0.000000 1.986550 
# 
# From -- ./inp_files/8392.got.cif
#   From: 2010.05.17/outbox.cif.g08.bks.cpg/sg60_5_cif.got.tgz:8392.got - 2010.06.03 14:59:27.
