data_PCOD9456126
_publ_section_title
;
Structure prediction by ZEFSAII (Michael W. Deem and Ramdas Pophale) SiO2 
 PCOD9456126
Probable space group: P B C N
;
_chemical_formula_sum "Si O2"
_cell_formula_units_Z 60
_cell_length_a 24.068904
_cell_length_b 5.093561
_cell_length_c 25.756365
_cell_angle_alpha 90.000000
_cell_angle_beta 90.000000
_cell_angle_gamma 90.000000
_cell_volume 3157.638418
_symmetry_space_group_name_H-M "P B C N"
_symmetry_group_IT_number 60
_symmetry_cell_setting 'orthorhombic'
loop_
_space_group_symop_operation_xyz
x,y,z
1/2-x,1/2-y,1/2+z
1/2+x,1/2-y,-z
-x,y,1/2-z
-x,-y,-z
1/2+x,1/2+y,1/2-z
1/2-x,1/2+y,z
x,-y,1/2+z
loop_
_atom_site_type_symbol
_atom_site_label
_atom_site_fract_x
_atom_site_fract_y
_atom_site_fract_z
Si Si1 0.449284 0.730599 0.154909
Si Si2 0.212342 0.138129 0.765566
Si Si3 0.216229 0.911802 0.142734
Si Si4 0.000000 0.517150 0.250000
Si Si5 0.601829 0.226218 0.389764
Si Si6 0.570901 0.268356 0.611884
Si Si7 0.597403 0.776903 0.677652
Si Si8 0.540121 0.750461 0.998907
O O1 0.464993 0.827441 0.212063
O O2 0.430186 0.432350 0.147991
O O3 0.505124 0.775507 0.121631
O O4 0.404431 0.934001 0.132540
O O5 0.257839 0.362723 0.777870
O O6 0.201565 0.130366 0.703552
O O7 0.154108 0.201449 0.793066
O O8 0.266504 0.710047 0.133573
O O9 0.164566 0.820807 0.109338
O O10 0.044865 0.682585 0.283332
O O11 0.574274 0.246295 0.445883
O O12 0.583896 0.548642 0.636757
O O13 0.578267 0.252645 0.550327
O O14 0.601897 0.047074 0.645364
O O15 0.500000 0.500000 0.000000
O O16 0.500000 0.000000 0.000000
#
# Coordination Sequence:
#
# PCOD9456126 Si02
#       8
#     8   8   8   4   8   8   8   8
#     4  11  22  35  55  87 120 159 190 230 291 373
#     4  10  21  39  61  85 113 159 209 248 290 355
#     4  10  22  38  59  85 115 148 200 253 300 352
#     4  10  24  36  56  88 132 162 188 236 320 382
#     4  12  22  38  62  84 117 159 199 247 299 358
#     4  11  22  37  56  87 124 152 195 244 297 349
#     4  11  23  38  59  86 123 162 197 250 300 369
#     4  12  22  39  62  88 120 161 202 247 297 373
#
# _framework density 19.001541
#
# number of rings (size 3 to 8) (size 9 to 14) (size 15 to 20)
#    0.000    1.067    2.667    4.800    0.000    9.067 
#    0.000    0.000    0.000    4.800    0.000    0.000 
#    0.000    0.000    0.000    0.000    0.000    0.000 
#
# Total GULP energy -335485.935010 kJ/mol
# GULP energy per Si atom -5591.432250 kJ/mol
# Density = 1.895829 g / cm^3
# Si number density = 19.001541 Si / 1000 Ang^3
#
#
#
# Elastic Constant Matrix: (Units=GPa)
#
#
# Indices 1 2 3 4 5 6 
#
# 1 64.7318 -2.7580 30.2140 0.0000 0.0000 0.0000
# 2 -2.7580 77.4426 13.6147 0.0000 0.0000 0.0000
# 3 30.2140 13.6147 70.5230 0.0000 0.0000 0.0000
# 4 0.0000 0.0000 0.0000 22.0385 0.0000 0.0000
# 5 0.0000 0.0000 0.0000 0.0000 28.1013 0.0000
# 6 0.0000 0.0000 0.0000 0.0000 0.0000 18.9479
#
#
#
# Elastic Compliance Matrix: (Units=1/GPa)
#
#
# Indices 1 2 3 4 5 6 
#
# 1 0.019685 0.002260 -0.008870 0.000000 0.000000 0.000000
# 2 0.002260 0.013626 -0.003599 0.000000 0.000000 0.000000
# 3 -0.008870 -0.003599 0.018675 0.000000 0.000000 0.000000
# 4 0.000000 0.000000 0.000000 0.045375 0.000000 0.000000
# 5 0.000000 0.000000 0.000000 0.000000 0.035585 0.000000
# 6 0.000000 0.000000 0.000000 0.000000 0.000000 0.052776
#
#
# Mechanical properties :
#
#
# Convention : Reuss Voigt Hill
#
# Bulk Modulus (GPa) = 31.67711 32.75987 32.21849
# Shear Modulus (GPa) = 23.07743 25.25934 24.16838
#
# Velocity S-wave (km/s) = 3.48875 3.64995 3.57026
# Velocity P-wave (km/s) = 5.73895 5.91954 5.82994
#
# Compressibility (1/GPa) = 0.03156854
#
# Stress axis : x y z
#
# Youngs Moduli (GPa) = 50.80081 73.38909 53.54854
#
# Poissons Ratio (x) = -0.16589 0.47497
# Poissons Ratio (y) = -0.11483 0.19272
# Poissons Ratio (z) = 0.45060 0.26412
#
# Static dielectric constant tensor:
#      x y z
#    x 1.647590 0.000000 0.000000 
#    y 0.000000 1.679920 0.000000 
#    z 0.000000 0.000000 1.673840 
# 
# From -- ./inp_files/24611.got.cif
#   From: 2010.05.17/outbox.cif.g08.bks.cpg/sg60_13_cif.got.tgz:24611.got - 2010.06.03 14:59:27.
