data_PCOD9456671
_publ_section_title
;
Structure prediction by ZEFSAII (Michael W. Deem and Ramdas Pophale) SiO2 
 PCOD9456671
Probable space group: P B C N
;
_chemical_formula_sum "Si O2"
_cell_formula_units_Z 48
_cell_length_a 8.476157
_cell_length_b 28.588967
_cell_length_c 8.783178
_cell_angle_alpha 90.000000
_cell_angle_beta 90.000000
_cell_angle_gamma 90.000000
_cell_volume 2128.379856
_symmetry_space_group_name_H-M "P B C N"
_symmetry_group_IT_number 60
_symmetry_cell_setting 'orthorhombic'
loop_
_space_group_symop_operation_xyz
x,y,z
1/2-x,1/2-y,1/2+z
1/2+x,1/2-y,-z
-x,y,1/2-z
-x,-y,-z
1/2+x,1/2+y,1/2-z
1/2-x,1/2+y,z
x,-y,1/2+z
loop_
_atom_site_type_symbol
_atom_site_label
_atom_site_fract_x
_atom_site_fract_y
_atom_site_fract_z
Si Si1 0.929458 0.647381 0.042415
Si Si2 0.750000 0.696877 0.430317
Si Si3 0.562720 0.546590 0.920979
Si Si4 0.750000 0.199109 0.796511
Si Si5 0.937280 0.453410 0.420979
Si Si6 0.070542 0.147381 0.457585
O O1 0.893705 0.672079 0.879576
O O2 0.973690 0.593390 0.016013
O O3 0.750000 0.650091 0.111441
O O4 0.083545 0.672259 0.108259
O O5 0.750000 0.699148 0.615519
O O6 0.750000 0.748041 0.357196
O O7 0.583545 0.672259 0.391741
O O8 0.500000 0.551156 0.750000
O O9 0.750000 0.543719 0.912586
O O10 0.526310 0.593390 0.016013
O O11 0.500000 0.500000 0.000000
O O12 0.893705 0.172079 0.879576
O O13 0.000000 0.448844 0.250000
O O14 0.000000 0.500000 0.500000
#
# Coordination Sequence:
#
# PCOD9456671 Si02
#       6
#     8   8   8   8   8   8
#     4   9  23  38  63  90 118 160 206 243 298 370
#     4  12  20  40  61  86 122 160 199 252 297 354
#     4  11  23  41  65  94 125 161 208 259 311 373
#     4  10  22  38  59  88 120 156 203 246 295 356
#     4  11  23  41  65  94 125 161 208 259 311 373
#     4   9  23  38  63  90 118 160 206 243 298 370
#
# _framework density 22.552365999999999
#
# number of rings (size 3 to 8) (size 9 to 14) (size 15 to 20)
#    1.000    0.667    0.000    5.000    4.667    0.000 
#    0.000    3.333    0.000    0.000    0.000    0.000 
#    0.000    0.000    0.000    0.000    0.000    0.000 
#
# Total GULP energy -268115.875016 kJ/mol
# GULP energy per Si atom -5585.747396 kJ/mol
# Density = 2.250104 g / cm^3
# Si number density = 22.552366 Si / 1000 Ang^3
#
#
#
# Elastic Constant Matrix: (Units=GPa)
#
#
# Indices 1 2 3 4 5 6 
#
# 1 79.7949 72.0659 47.1380 0.0000 0.0000 0.0000
# 2 72.0659 182.4542 25.8639 0.0000 0.0000 0.0000
# 3 47.1380 25.8639 88.8779 0.0000 0.0000 0.0000
# 4 0.0000 0.0000 0.0000 370.5165 0.0000 0.0000
# 5 0.0000 0.0000 0.0000 0.0000 48.3069 0.0000
# 6 0.0000 0.0000 0.0000 0.0000 0.0000 66.4826
#
#
#
# Elastic Compliance Matrix: (Units=1/GPa)
#
#
# Indices 1 2 3 4 5 6 
#
# 1 0.028303 -0.009441 -0.012264 0.000000 0.000000 0.000000
# 2 -0.009441 0.008866 0.002427 0.000000 0.000000 0.000000
# 3 -0.012264 0.002427 0.017049 0.000000 0.000000 0.000000
# 4 0.000000 0.000000 0.000000 0.002699 0.000000 0.000000
# 5 0.000000 0.000000 0.000000 0.000000 0.020701 0.000000
# 6 0.000000 0.000000 0.000000 0.000000 0.000000 0.015042
#
#
# Mechanical properties :
#
#
# Convention : Reuss Voigt Hill
#
# Bulk Modulus (GPa) = 63.84308 71.25142 67.54725
# Shear Modulus (GPa) = 36.64730 110.79847 73.72288
#
# Velocity S-wave (km/s) = 4.03549 7.01684 5.72369
# Velocity P-wave (km/s) = 7.07699 9.86461 8.58470
#
# Compressibility (1/GPa) = 0.01566341
#
# Stress axis : x y z
#
# Youngs Moduli (GPa) = 35.33176 112.79446 58.65297
#
# Poissons Ratio (x) = 1.06486 0.71931
# Poissons Ratio (y) = 0.33356 -0.14236
# Poissons Ratio (z) = 0.43330 -0.27376
#
# Static dielectric constant tensor:
#      x y z
#    x 1.847140 0.000000 0.000000 
#    y 0.000000 1.817640 0.000000 
#    z 0.000000 0.000000 1.837400 
# 
# From -- ./inp_files/4217.got.cif
#   From: 2010.05.17/outbox.cif.g08.bks.cpg/sg60_3_cif.got.tgz:4217.got - 2010.06.03 14:59:27.
