data_PCOD9456600
_publ_section_title
;
Structure prediction by ZEFSAII (Michael W. Deem and Ramdas Pophale) SiO2 
 PCOD9456600
Probable space group: P B C N
;
_chemical_formula_sum "Si O2"
_cell_formula_units_Z 48
_cell_length_a 5.377911
_cell_length_b 21.324223
_cell_length_c 18.557127
_cell_angle_alpha 90.000000
_cell_angle_beta 90.000000
_cell_angle_gamma 90.000000
_cell_volume 2128.127120
_symmetry_space_group_name_H-M "P B C N"
_symmetry_group_IT_number 60
_symmetry_cell_setting 'orthorhombic'
loop_
_space_group_symop_operation_xyz
x,y,z
1/2-x,1/2-y,1/2+z
1/2+x,1/2-y,-z
-x,y,1/2-z
-x,-y,-z
1/2+x,1/2+y,1/2-z
1/2-x,1/2+y,z
x,-y,1/2+z
loop_
_atom_site_type_symbol
_atom_site_label
_atom_site_fract_x
_atom_site_fract_y
_atom_site_fract_z
Si Si1 0.048792 0.397506 0.468092
Si Si2 0.213513 0.028162 0.449561
Si Si3 0.744485 0.504951 0.705793
Si Si4 0.398252 0.687639 0.055050
Si Si5 0.157284 0.348454 0.320995
Si Si6 0.404865 0.757975 0.900603
O O1 0.807393 0.407529 0.515760
O O2 0.093713 0.469195 0.444886
O O3 0.274315 0.374445 0.518315
O O4 0.009601 0.355240 0.397753
O O5 0.187558 0.036045 0.365002
O O6 0.000000 0.000000 0.500000
O O7 0.500000 0.493574 0.750000
O O8 0.744435 0.580502 0.689732
O O9 0.000000 0.492379 0.750000
O O10 0.655470 0.699528 0.097191
O O11 0.170645 0.709286 0.106488
O O12 0.419932 0.729337 0.981850
O O13 0.361277 0.297140 0.342511
O O14 0.000000 0.332813 0.250000
#
# Coordination Sequence:
#
# PCOD9456600 Si02
#       6
#     8   8   8   8   8   8
#     4   9  20  36  54  87 117 153 198 247 300 349
#     4  10  22  35  61  89 120 155 207 259 294 356
#     4  10  23  39  59  86 123 160 196 245 315 374
#     4   9  18  33  53  75 106 139 182 226 276 337
#     4   9  19  35  57  84 119 150 187 242 310 364
#     4   9  18  32  51  79 103 140 180 223 274 342
#
# _framework density 22.555040999999999
#
# number of rings (size 3 to 8) (size 9 to 14) (size 15 to 20)
#    0.000    2.667    0.000    0.000   11.667    2.667 
#    6.000    0.000    0.000    3.000    0.000    0.000 
#    0.000    0.000    0.000    0.000    0.000    0.000 
#
# Total GULP energy -267217.601793 kJ/mol
# GULP energy per Si atom -5567.033371 kJ/mol
# Density = 2.250371 g / cm^3
# Si number density = 22.555041 Si / 1000 Ang^3
#
#
#
# Elastic Constant Matrix: (Units=GPa)
#
#
# Indices 1 2 3 4 5 6 
#
# 1 79.4720 2.9824 19.9716 0.0000 0.0000 0.0000
# 2 2.9824 29.9976 7.7224 0.0000 0.0000 0.0000
# 3 19.9716 7.7224 107.6806 0.0000 0.0000 0.0000
# 4 0.0000 0.0000 0.0000 30.5318 0.0000 0.0000
# 5 0.0000 0.0000 0.0000 0.0000 25.7324 0.0000
# 6 0.0000 0.0000 0.0000 0.0000 0.0000 21.6311
#
#
#
# Elastic Compliance Matrix: (Units=1/GPa)
#
#
# Indices 1 2 3 4 5 6 
#
# 1 0.013212 -0.000696 -0.002401 0.000000 0.000000 0.000000
# 2 -0.000696 0.034000 -0.002309 0.000000 0.000000 0.000000
# 3 -0.002401 -0.002309 0.009898 0.000000 0.000000 0.000000
# 4 0.000000 0.000000 0.000000 0.032753 0.000000 0.000000
# 5 0.000000 0.000000 0.000000 0.000000 0.038861 0.000000
# 6 0.000000 0.000000 0.000000 0.000000 0.000000 0.046230
#
#
# Mechanical properties :
#
#
# Convention : Reuss Voigt Hill
#
# Bulk Modulus (GPa) = 21.59892 30.94476 26.27184
# Shear Modulus (GPa) = 24.85119 28.01064 26.43092
#
# Velocity S-wave (km/s) = 3.32294 3.52785 3.42693
# Velocity P-wave (km/s) = 4.93148 5.50852 5.22797
#
# Compressibility (1/GPa) = 0.04629862
#
# Stress axis : x y z
#
# Youngs Moduli (GPa) = 75.68621 29.41211 101.03477
#
# Poissons Ratio (x) = 0.02046 0.24255
# Poissons Ratio (y) = 0.05265 0.23332
# Poissons Ratio (z) = 0.18170 0.06792
#
# Static dielectric constant tensor:
#      x y z
#    x 1.918170 0.000000 0.000000 
#    y 0.000000 1.919710 0.000000 
#    z 0.000000 0.000000 1.847200 
# 
# From -- ./inp_files/18688.got.cif
#   From: 2010.05.17/outbox.cif.g08.bks.cpg/sg60_10_cif.got.tgz:18688.got - 2010.06.03 14:59:27.
