data_PCOD9456552
_publ_section_title
;
Structure prediction by ZEFSAII (Michael W. Deem and Ramdas Pophale) SiO2 
 PCOD9456552
Probable space group: P B C N
;
_chemical_formula_sum "Si O2"
_cell_formula_units_Z 48
_cell_length_a 15.188403
_cell_length_b 21.237362
_cell_length_c 6.248049
_cell_angle_alpha 90.000000
_cell_angle_beta 90.000000
_cell_angle_gamma 90.000000
_cell_volume 2015.380762
_symmetry_space_group_name_H-M "P B C N"
_symmetry_group_IT_number 60
_symmetry_cell_setting 'orthorhombic'
loop_
_space_group_symop_operation_xyz
x,y,z
1/2-x,1/2-y,1/2+z
1/2+x,1/2-y,-z
-x,y,1/2-z
-x,-y,-z
1/2+x,1/2+y,1/2-z
1/2-x,1/2+y,z
x,-y,1/2+z
loop_
_atom_site_type_symbol
_atom_site_label
_atom_site_fract_x
_atom_site_fract_y
_atom_site_fract_z
Si Si1 0.375160 0.347551 0.094149
Si Si2 0.595600 0.895758 0.274439
Si Si3 0.722108 0.573661 0.566612
Si Si4 0.071286 0.977671 0.889558
Si Si5 0.793645 0.643288 0.164972
Si Si6 0.574087 0.788109 0.920549
O O1 0.344719 0.374090 0.326580
O O2 0.418224 0.406345 0.971680
O O3 0.434655 0.286640 0.058678
O O4 0.282010 0.332631 0.987986
O O5 0.500000 0.928195 0.250000
O O6 0.628272 0.883780 0.515965
O O7 0.681973 0.928839 0.177509
O O8 0.580699 0.831368 0.132555
O O9 0.668932 0.510401 0.612748
O O10 0.748306 0.595486 0.330188
O O11 0.047199 0.016086 0.124525
O O12 0.834024 0.699134 0.302818
O O13 0.500000 0.808610 0.750000
#
# Coordination Sequence:
#
# PCOD9456552 Si02
#       6
#     8   8   8   8   8   8
#     4  11  26  41  67  99 139 196 237 290 359 436
#     4  10  21  44  72 104 137 181 232 296 373 434
#     4  10  24  43  69  99 138 187 245 296 361 423
#     4  12  24  45  70  99 147 191 243 298 355 425
#     4  10  23  43  68  98 141 182 237 297 363 430
#     4  11  24  40  66 102 143 180 232 290 357 438
#
# _framework density 23.816838000000001
#
# number of rings (size 3 to 8) (size 9 to 14) (size 15 to 20)
#    0.000    1.333    3.333    1.000    9.333    0.667 
#    0.000    0.000    0.000    5.000    0.000    0.000 
#    0.000    0.000    0.000    0.000    0.000    0.000 
#
# Total GULP energy -267742.435620 kJ/mol
# GULP energy per Si atom -5577.967409 kJ/mol
# Density = 2.376263 g / cm^3
# Si number density = 23.816838 Si / 1000 Ang^3
#
#
#
# Elastic Constant Matrix: (Units=GPa)
#
#
# Indices 1 2 3 4 5 6 
#
# 1 150.4882 58.2810 56.2583 0.0000 0.0000 0.0000
# 2 58.2810 109.5167 46.2490 0.0000 0.0000 0.0000
# 3 56.2583 46.2490 147.4076 0.0000 0.0000 0.0000
# 4 0.0000 0.0000 0.0000 12.1144 0.0000 0.0000
# 5 0.0000 0.0000 0.0000 0.0000 61.3008 0.0000
# 6 0.0000 0.0000 0.0000 0.0000 0.0000 25.3733
#
#
#
# Elastic Compliance Matrix: (Units=1/GPa)
#
#
# Indices 1 2 3 4 5 6 
#
# 1 0.008957 -0.003831 -0.002217 0.000000 0.000000 0.000000
# 2 -0.003831 0.012164 -0.002354 0.000000 0.000000 0.000000
# 3 -0.002217 -0.002354 0.008369 0.000000 0.000000 0.000000
# 4 0.000000 0.000000 0.000000 0.082546 0.000000 0.000000
# 5 0.000000 0.000000 0.000000 0.000000 0.016313 0.000000
# 6 0.000000 0.000000 0.000000 0.000000 0.000000 0.039411
#
#
# Mechanical properties :
#
#
# Convention : Reuss Voigt Hill
#
# Bulk Modulus (GPa) = 78.82577 80.99876 79.91226
# Shear Modulus (GPa) = 26.48405 36.19932 31.34168
#
# Velocity S-wave (km/s) = 3.33827 3.90282 3.63153
# Velocity P-wave (km/s) = 6.93017 7.37511 7.15610
#
# Compressibility (1/GPa) = 0.01268621
#
# Stress axis : x y z
#
# Youngs Moduli (GPa) = 111.64144 82.21095 119.49411
#
# Poissons Ratio (x) = 0.31492 0.26488
# Poissons Ratio (y) = 0.42766 0.28134
# Poissons Ratio (z) = 0.24747 0.19356
#
# Static dielectric constant tensor:
#      x y z
#    x 1.937130 0.000000 0.000000 
#    y 0.000000 1.900470 0.000000 
#    z 0.000000 0.000000 1.991310 
# 
# From -- ./inp_files/1744.got.cif
#   From: 2010.05.17/outbox.cif.g08.bks.cpg/sg60_1_cif.got.tgz:1744.got - 2010.06.03 14:59:27.
