data_PCOD9456531
_publ_section_title
;
Structure prediction by ZEFSAII (Michael W. Deem and Ramdas Pophale) SiO2 
 PCOD9456531
Probable space group: P B C N
;
_chemical_formula_sum "Si O2"
_cell_formula_units_Z 64
_cell_length_a 6.576533
_cell_length_b 16.381385
_cell_length_c 26.490127
_cell_angle_alpha 90.000000
_cell_angle_beta 90.000000
_cell_angle_gamma 90.000000
_cell_volume 2853.853409
_symmetry_space_group_name_H-M "P B C N"
_symmetry_group_IT_number 60
_symmetry_cell_setting 'orthorhombic'
loop_
_space_group_symop_operation_xyz
x,y,z
1/2-x,1/2-y,1/2+z
1/2+x,1/2-y,-z
-x,y,1/2-z
-x,-y,-z
1/2+x,1/2+y,1/2-z
1/2-x,1/2+y,z
x,-y,1/2+z
loop_
_atom_site_type_symbol
_atom_site_label
_atom_site_fract_x
_atom_site_fract_y
_atom_site_fract_z
Si Si1 0.039721 0.135543 0.810366
Si Si2 0.033648 0.405002 0.004250
Si Si3 0.795534 0.105376 0.379780
Si Si4 0.947947 0.320329 0.690131
Si Si5 0.206725 0.923580 0.097094
Si Si6 0.381075 0.461958 0.803000
Si Si7 0.633934 0.690035 0.052885
Si Si8 0.129642 0.836472 0.461830
O O1 0.000000 0.136109 0.750000
O O2 0.116023 0.226874 0.821347
O O3 0.845071 0.114586 0.847414
O O4 0.181054 0.055049 0.816539
O O5 0.130195 0.382267 0.059367
O O6 0.806720 0.371341 0.003346
O O7 0.192634 0.375966 0.961608
O O8 0.000000 0.500000 0.000000
O O9 0.624248 0.155967 0.349981
O O10 0.942198 0.066248 0.338908
O O11 0.951086 0.159064 0.412759
O O12 0.727726 0.018747 0.403960
O O13 0.000000 0.318839 0.750000
O O14 0.790494 0.394895 0.688962
O O15 0.991959 0.905739 0.068267
O O16 0.500000 0.461422 0.750000
O O17 0.758601 0.768194 0.071155
O O18 0.528697 0.708036 0.998785
#
# Coordination Sequence:
#
# PCOD9456531 Si02
#       8
#     8   8   8   8   8   8   8   8
#     4   9  22  43  68  97 141 179 230 300 350 422
#     4  11  23  42  68  94 138 180 228 288 358 432
#     4  11  24  40  67  97 133 175 236 288 348 426
#     4  11  23  42  69 100 133 184 235 292 360 423
#     4  10  24  43  64 100 135 182 235 296 359 429
#     4  10  21  44  67  93 138 179 224 289 351 419
#     4  11  24  41  65 101 132 184 225 289 352 421
#     4  11  23  41  64  94 140 176 230 285 351 430
#
# _framework density 22.425819000000001
#
# number of rings (size 3 to 8) (size 9 to 14) (size 15 to 20)
#    0.000    1.500    2.500    1.500    3.500    6.000 
#    0.000    3.125    0.000    0.000    0.000    0.000 
#    0.000    0.000    0.000    0.000    0.000    0.000 
#
# Total GULP energy -356493.679738 kJ/mol
# GULP energy per Si atom -5570.213746 kJ/mol
# Density = 2.237478 g / cm^3
# Si number density = 22.425819 Si / 1000 Ang^3
#
#
#
# Elastic Constant Matrix: (Units=GPa)
#
#
# Indices 1 2 3 4 5 6 
#
# 1 81.9993 48.3027 26.2972 0.0000 0.0000 0.0000
# 2 48.3027 176.5541 14.8425 0.0000 0.0000 0.0000
# 3 26.2972 14.8425 99.9254 0.0000 0.0000 0.0000
# 4 0.0000 0.0000 0.0000 -24.8430 0.0000 0.0000
# 5 0.0000 0.0000 0.0000 0.0000 37.3913 0.0000
# 6 0.0000 0.0000 0.0000 0.0000 0.0000 24.1709
#
#
#
# Elastic Compliance Matrix: (Units=1/GPa)
#
#
# Indices 1 2 3 4 5 6 
#
# 1 0.015680 -0.003993 -0.003534 0.000000 0.000000 0.000000
# 2 -0.003993 0.006752 0.000048 0.000000 0.000000 0.000000
# 3 -0.003534 0.000048 0.010930 0.000000 0.000000 0.000000
# 4 0.000000 0.000000 0.000000 -0.040253 0.000000 0.000000
# 5 0.000000 0.000000 0.000000 0.000000 0.026744 0.000000
# 6 0.000000 0.000000 0.000000 0.000000 0.000000 0.041372
#
#
# Mechanical properties :
#
#
# Convention : Reuss Voigt Hill
#
# Bulk Modulus (GPa) = 54.33024 59.70707 57.01866
# Shear Modulus (GPa) = 60.73930 25.27961 43.00946
#
# Velocity S-wave (km/s) = 5.20993 3.36110 4.38408
# Velocity P-wave (km/s) = 7.77627 6.46102 7.14895
#
# Compressibility (1/GPa) = 0.01840595
#
# Stress axis : x y z
#
# Youngs Moduli (GPa) = 63.77354 148.09626 91.48908
#
# Poissons Ratio (x) = 0.59133 0.32328
# Poissons Ratio (y) = 0.25464 -0.00438
# Poissons Ratio (z) = 0.22534 -0.00708
#
# Static dielectric constant tensor:
#      x y z
#    x 1.756580 0.000000 0.000000 
#    y 0.000000 1.945630 0.000000 
#    z 0.000000 0.000000 1.913150 
# 
# From -- ./inp_files/25800.got.cif
#   From: 2010.05.17/outbox.cif.g08.bks.cpg/sg60_13_cif.got.tgz:25800.got - 2010.06.03 14:59:27.
