data_PCOD9456550
_publ_section_title
;
Structure prediction by ZEFSAII (Michael W. Deem and Ramdas Pophale) SiO2 
 PCOD9456550
Probable space group: P B C N
;
_chemical_formula_sum "Si O2"
_cell_formula_units_Z 56
_cell_length_a 11.181952
_cell_length_b 14.523487
_cell_length_c 14.988272
_cell_angle_alpha 90.000000
_cell_angle_beta 90.000000
_cell_angle_gamma 90.000000
_cell_volume 2434.109379
_symmetry_space_group_name_H-M "P B C N"
_symmetry_group_IT_number 60
_symmetry_cell_setting 'orthorhombic'
loop_
_space_group_symop_operation_xyz
x,y,z
1/2-x,1/2-y,1/2+z
1/2+x,1/2-y,-z
-x,y,1/2-z
-x,-y,-z
1/2+x,1/2+y,1/2-z
1/2-x,1/2+y,z
x,-y,1/2+z
loop_
_atom_site_type_symbol
_atom_site_label
_atom_site_fract_x
_atom_site_fract_y
_atom_site_fract_z
Si Si1 0.253788 0.298239 0.949425
Si Si2 0.692605 0.889515 0.864305
Si Si3 0.976939 0.737906 0.442275
Si Si4 0.451431 0.402066 0.334839
Si Si5 0.866934 0.461220 0.227348
Si Si6 0.263027 0.490186 0.456090
Si Si7 0.257975 0.227736 0.756211
O O1 0.257887 0.403298 0.979474
O O2 0.273090 0.291292 0.843129
O O3 0.117097 0.264585 0.969670
O O4 0.368237 0.243707 0.987715
O O5 0.556845 0.852681 0.884462
O O6 0.750439 0.795443 0.827173
O O7 0.706263 0.967919 0.789261
O O8 0.742924 0.930630 0.955804
O O9 0.963193 0.832133 0.386434
O O10 0.500000 0.456965 0.250000
O O11 0.386143 0.463515 0.407455
O O12 0.358456 0.331462 0.286915
O O13 0.831969 0.469822 0.123503
O O14 0.849973 0.355140 0.255598
O O15 0.000000 0.487854 0.250000
#
# Coordination Sequence:
#
# PCOD9456550 Si02
#       7
#     8   8   8   8   8   8   8
#     4  11  25  48  76 107 157 195 251 319 384 450
#     4  12  24  43  76 108 145 204 253 306 391 451
#     4  11  24  44  78 107 146 201 247 308 384 458
#     4  10  21  44  71  98 147 201 252 295 384 460
#     4  11  25  46  74 108 148 191 253 316 381 451
#     4  11  26  46  71 116 150 195 261 323 372 470
#     4  10  23  46  68 101 150 198 241 311 384 446
#
# _framework density 23.006361999999999
#
# number of rings (size 3 to 8) (size 9 to 14) (size 15 to 20)
#    0.000    1.143    2.857    3.429    4.000    4.000 
#    5.143    3.571    0.000    0.000    0.000    0.000 
#    0.000    0.000    0.000    0.000    0.000    0.000 
#
# Total GULP energy -312573.647435 kJ/mol
# GULP energy per Si atom -5581.672276 kJ/mol
# Density = 2.295400 g / cm^3
# Si number density = 23.006362 Si / 1000 Ang^3
#
#
#
# Elastic Constant Matrix: (Units=GPa)
#
#
# Indices 1 2 3 4 5 6 
#
# 1 69.6033 35.1159 53.0799 0.0000 0.0000 0.0000
# 2 35.1159 108.3175 29.6703 0.0000 0.0000 0.0000
# 3 53.0799 29.6703 111.4401 0.0000 0.0000 0.0000
# 4 0.0000 0.0000 0.0000 37.4035 0.0000 0.0000
# 5 0.0000 0.0000 0.0000 0.0000 0.8891 0.0000
# 6 0.0000 0.0000 0.0000 0.0000 0.0000 25.8258
#
#
#
# Elastic Compliance Matrix: (Units=1/GPa)
#
#
# Indices 1 2 3 4 5 6 
#
# 1 0.025040 -0.005232 -0.010534 0.000000 0.000000 0.000000
# 2 -0.005232 0.011052 -0.000450 0.000000 0.000000 0.000000
# 3 -0.010534 -0.000450 0.014111 0.000000 0.000000 0.000000
# 4 0.000000 0.000000 0.000000 0.026735 0.000000 0.000000
# 5 0.000000 0.000000 0.000000 0.000000 1.124766 0.000000
# 6 0.000000 0.000000 0.000000 0.000000 0.000000 0.038721
#
#
# Mechanical properties :
#
#
# Convention : Reuss Voigt Hill
#
# Bulk Modulus (GPa) = 56.27555 58.34369 57.30962
# Shear Modulus (GPa) = 3.90998 24.25666 14.08332
#
# Velocity S-wave (km/s) = 1.30507 3.25059 2.47685
# Velocity P-wave (km/s) = 5.17541 6.28517 5.75709
#
# Compressibility (1/GPa) = 0.01776971
#
# Stress axis : x y z
#
# Youngs Moduli (GPa) = 39.93605 90.48330 70.86883
#
# Poissons Ratio (x) = 0.47345 0.74651
# Poissons Ratio (y) = 0.20896 0.03191
# Poissons Ratio (z) = 0.42067 0.04074
#
# Static dielectric constant tensor:
#      x y z
#    x 1.967260 0.000000 0.000000 
#    y 0.000000 1.848400 0.000000 
#    z 0.000000 0.000000 1.910150 
# 
# From -- ./inp_files/16146.got.cif
#   From: 2010.05.17/outbox.cif.g08.bks.cpg/sg60_9_cif.got.tgz:16146.got - 2010.06.03 14:59:27.
