data_PCOD9456008
_publ_section_title
;
Structure prediction by ZEFSAII (Michael W. Deem and Ramdas Pophale) SiO2 
 PCOD9456008
Probable space group: P B C N
;
_chemical_formula_sum "Si O2"
_cell_formula_units_Z 64
_cell_length_a 18.127149
_cell_length_b 13.760369
_cell_length_c 12.594541
_cell_angle_alpha 90.000000
_cell_angle_beta 90.000000
_cell_angle_gamma 90.000000
_cell_volume 3141.535193
_symmetry_space_group_name_H-M "P B C N"
_symmetry_group_IT_number 60
_symmetry_cell_setting 'orthorhombic'
loop_
_space_group_symop_operation_xyz
x,y,z
1/2-x,1/2-y,1/2+z
1/2+x,1/2-y,-z
-x,y,1/2-z
-x,-y,-z
1/2+x,1/2+y,1/2-z
1/2-x,1/2+y,z
x,-y,1/2+z
loop_
_atom_site_type_symbol
_atom_site_label
_atom_site_fract_x
_atom_site_fract_y
_atom_site_fract_z
Si Si1 0.669590 0.983986 0.185654
Si Si2 0.577690 0.823845 0.953730
Si Si3 0.593187 0.167962 0.078381
Si Si4 0.182278 0.742810 0.622547
Si Si5 0.228579 0.582208 0.021166
Si Si6 0.915201 0.172706 0.761696
Si Si7 0.080318 0.702183 0.797815
Si Si8 0.283838 0.561576 0.663176
O O1 0.606234 0.909878 0.223491
O O2 0.728926 0.010643 0.274051
O O3 0.635238 0.076069 0.127896
O O4 0.717754 0.919007 0.104724
O O5 0.493624 0.857342 0.933925
O O6 0.642231 0.904482 0.943161
O O7 0.591476 0.741369 0.865885
O O8 0.581999 0.785134 0.075066
O O9 0.601354 0.258612 0.160020
O O10 0.627480 0.196188 0.964994
O O11 0.225080 0.829275 0.566490
O O12 0.136365 0.766866 0.728491
O O13 0.242178 0.663677 0.657199
O O14 0.276160 0.486601 0.048456
O O15 0.861011 0.082873 0.782570
O O16 0.000000 0.141807 0.750000
O O17 0.000000 0.716894 0.750000
#
# Coordination Sequence:
#
# PCOD9456008 Si02
#       8
#     8   8   8   8   8   8   8   8
#     4  10  23  35  60  96 126 165 203 262 321 391
#     4  10  21  39  65  96 129 164 215 260 325 391
#     4  11  21  39  67  95 129 165 209 266 331 383
#     4  11  22  39  65  91 129 170 209 267 317 385
#     4  11  22  40  60  93 124 164 217 258 317 375
#     4  10  22  40  65  91 123 173 217 264 314 378
#     4  10  21  38  59  93 130 168 204 259 325 381
#     4  11  22  42  61  90 130 162 216 259 317 379
#
# _framework density 20.372205999999998
#
# number of rings (size 3 to 8) (size 9 to 14) (size 15 to 20)
#    0.000    1.500    3.750    1.500    0.000    5.500 
#    2.250    0.625    0.000    2.250    0.000    0.000 
#    0.000    0.000    0.000    0.000    0.000    0.000 
#
# Total GULP energy -356993.654240 kJ/mol
# GULP energy per Si atom -5578.025847 kJ/mol
# Density = 2.032584 g / cm^3
# Si number density = 20.372206 Si / 1000 Ang^3
#
#
#
# Elastic Constant Matrix: (Units=GPa)
#
#
# Indices 1 2 3 4 5 6 
#
# 1 102.5326 27.4970 36.5915 0.0000 0.0000 0.0000
# 2 27.4970 22.8955 5.2366 0.0000 0.0000 0.0000
# 3 36.5915 5.2366 90.6830 0.0000 0.0000 0.0000
# 4 0.0000 0.0000 0.0000 17.4965 0.0000 0.0000
# 5 0.0000 0.0000 0.0000 0.0000 32.4808 0.0000
# 6 0.0000 0.0000 0.0000 0.0000 0.0000 29.7934
#
#
#
# Elastic Compliance Matrix: (Units=1/GPa)
#
#
# Indices 1 2 3 4 5 6 
#
# 1 0.016878 -0.018963 -0.005715 0.000000 0.000000 0.000000
# 2 -0.018963 0.065567 0.003866 0.000000 0.000000 0.000000
# 3 -0.005715 0.003866 0.013110 0.000000 0.000000 0.000000
# 4 0.000000 0.000000 0.000000 0.057154 0.000000 0.000000
# 5 0.000000 0.000000 0.000000 0.000000 0.030787 0.000000
# 6 0.000000 0.000000 0.000000 0.000000 0.000000 0.033564
#
#
# Mechanical properties :
#
#
# Convention : Reuss Voigt Hill
#
# Bulk Modulus (GPa) = 18.54273 39.41791 28.98032
# Shear Modulus (GPa) = 18.07245 25.73988 21.90617
#
# Velocity S-wave (km/s) = 2.98168 3.55840 3.28273
# Velocity P-wave (km/s) = 4.57991 6.02278 5.35021
#
# Compressibility (1/GPa) = 0.05392950
#
# Stress axis : x y z
#
# Youngs Moduli (GPa) = 59.24800 15.25159 76.27502
#
# Poissons Ratio (x) = 0.28922 0.43595
# Poissons Ratio (y) = 1.12353 -0.29485
# Poissons Ratio (z) = 0.33863 -0.05896
#
# Static dielectric constant tensor:
#      x y z
#    x 1.733250 0.000000 0.000000 
#    y 0.000000 1.713280 0.000000 
#    z 0.000000 0.000000 1.780120 
# 
# From -- ./inp_files/12566.got.cif
#   From: 2010.05.17/outbox.cif.g08.bks.cpg/sg60_7_cif.got.tgz:12566.got - 2010.06.03 14:59:27.
