data_PCOD9456659
_publ_section_title
;
Structure prediction by ZEFSAII (Michael W. Deem and Ramdas Pophale) SiO2 
 PCOD9456659
Probable space group: P B C N
;
_chemical_formula_sum "Si O2"
_cell_formula_units_Z 32
_cell_length_a 15.568577
_cell_length_b 9.086242
_cell_length_c 10.422718
_cell_angle_alpha 90.000000
_cell_angle_beta 90.000000
_cell_angle_gamma 90.000000
_cell_volume 1474.396211
_symmetry_space_group_name_H-M "P B C N"
_symmetry_group_IT_number 60
_symmetry_cell_setting 'orthorhombic'
loop_
_space_group_symop_operation_xyz
x,y,z
1/2-x,1/2-y,1/2+z
1/2+x,1/2-y,-z
-x,y,1/2-z
-x,-y,-z
1/2+x,1/2+y,1/2-z
1/2-x,1/2+y,z
x,-y,1/2+z
loop_
_atom_site_type_symbol
_atom_site_label
_atom_site_fract_x
_atom_site_fract_y
_atom_site_fract_z
Si Si1 0.787816 0.596297 0.967092
Si Si2 0.854141 0.099703 0.567297
Si Si3 0.049579 0.566186 0.120015
Si Si4 0.609164 0.387088 0.352810
O O1 0.736909 0.488495 0.064245
O O2 0.833876 0.730795 0.038309
O O3 0.856333 0.505169 0.886021
O O4 0.710273 0.653131 0.877207
O O5 0.899144 0.077774 0.703234
O O6 0.903448 0.024106 0.448122
O O7 0.057338 0.742207 0.109918
O O8 0.000000 0.529930 0.250000
O O9 0.000000 0.500000 0.000000
#
# Coordination Sequence:
#
# PCOD9456659 Si02
#       4
#     8   8   8   8
#     4  10  22  41  69 102 134 187 242 283 346 423
#     4  10  22  37  75  97 139 168 259 282 337 405
#     4  12  27  45  69 105 152 184 230 302 376 417
#     4  10  23  43  67 105 132 189 238 289 339 436
#
# _framework density 21.703799
#
# number of rings (size 3 to 8) (size 9 to 14) (size 15 to 20)
#    1.500    0.000    2.500    1.500   10.500    2.000 
#    0.000    6.250    0.000    0.000    0.000    0.000 
#    0.000    0.000    0.000    0.000    0.000    0.000 
#
# Total GULP energy -178783.088304 kJ/mol
# GULP energy per Si atom -5586.971510 kJ/mol
# Density = 2.165440 g / cm^3
# Si number density = 21.703799 Si / 1000 Ang^3
#
#
#
# Elastic Constant Matrix: (Units=GPa)
#
#
# Indices 1 2 3 4 5 6 
#
# 1 76.5296 20.4081 14.7094 0.0000 0.0000 0.0000
# 2 20.4081 108.7923 42.4895 0.0000 0.0000 0.0000
# 3 14.7094 42.4895 103.6620 0.0000 0.0000 0.0000
# 4 0.0000 0.0000 0.0000 31.1975 0.0000 0.0000
# 5 0.0000 0.0000 0.0000 0.0000 39.7339 0.0000
# 6 0.0000 0.0000 0.0000 0.0000 0.0000 43.2741
#
#
#
# Elastic Compliance Matrix: (Units=1/GPa)
#
#
# Indices 1 2 3 4 5 6 
#
# 1 0.013854 -0.002180 -0.001072 0.000000 0.000000 0.000000
# 2 -0.002180 0.011287 -0.004317 0.000000 0.000000 0.000000
# 3 -0.001072 -0.004317 0.011568 0.000000 0.000000 0.000000
# 4 0.000000 0.000000 0.000000 0.032054 0.000000 0.000000
# 5 0.000000 0.000000 0.000000 0.000000 0.025167 0.000000
# 6 0.000000 0.000000 0.000000 0.000000 0.000000 0.023109
#
#
# Mechanical properties :
#
#
# Convention : Reuss Voigt Hill
#
# Bulk Modulus (GPa) = 46.35906 49.35532 47.85719
# Shear Modulus (GPa) = 35.87620 36.93289 36.40454
#
# Velocity S-wave (km/s) = 4.07011 4.12962 4.09997
# Velocity P-wave (km/s) = 6.59500 6.74745 6.67166
#
# Compressibility (1/GPa) = 0.02157076
#
# Stress axis : x y z
#
# Youngs Moduli (GPa) = 72.17975 88.59909 86.44278
#
# Poissons Ratio (x) = 0.19316 0.09269
# Poissons Ratio (y) = 0.15736 0.37317
# Poissons Ratio (z) = 0.07740 0.38248
#
# Static dielectric constant tensor:
#      x y z
#    x 1.873310 0.000000 0.000000 
#    y 0.000000 1.743680 0.000000 
#    z 0.000000 0.000000 1.739300 
# 
# From -- ./inp_files/11534.got.cif
#   From: 2010.05.17/outbox.cif.g08.bks.cpg/sg60_6_cif.got.tgz:11534.got - 2010.06.03 14:59:27.
