data_PCOD9456486
_publ_section_title
;
Structure prediction by ZEFSAII (Michael W. Deem and Ramdas Pophale) SiO2 
 PCOD9456486
Probable space group: P B C N
;
_chemical_formula_sum "Si O2"
_cell_formula_units_Z 64
_cell_length_a 13.602600
_cell_length_b 26.076529
_cell_length_c 9.008872
_cell_angle_alpha 90.000000
_cell_angle_beta 90.000000
_cell_angle_gamma 90.000000
_cell_volume 3195.524315
_symmetry_space_group_name_H-M "P B C N"
_symmetry_group_IT_number 60
_symmetry_cell_setting 'orthorhombic'
loop_
_space_group_symop_operation_xyz
x,y,z
1/2-x,1/2-y,1/2+z
1/2+x,1/2-y,-z
-x,y,1/2-z
-x,-y,-z
1/2+x,1/2+y,1/2-z
1/2-x,1/2+y,z
x,-y,1/2+z
loop_
_atom_site_type_symbol
_atom_site_label
_atom_site_fract_x
_atom_site_fract_y
_atom_site_fract_z
Si Si1 0.550929 0.261748 0.093545
Si Si2 0.234851 0.308142 0.402741
Si Si3 0.100959 0.942286 0.174428
Si Si4 0.100938 0.053768 0.319470
Si Si5 0.721274 0.353951 0.804377
Si Si6 0.771065 0.365911 0.385908
Si Si7 0.918188 0.646449 0.133022
Si Si8 0.624575 0.707279 0.073471
O O1 0.500000 0.271636 0.250000
O O2 0.662592 0.278332 0.113902
O O3 0.545690 0.200631 0.066880
O O4 0.487682 0.293987 0.975996
O O5 0.262906 0.351709 0.520981
O O6 0.194606 0.331426 0.251096
O O7 0.161073 0.264626 0.458700
O O8 0.200790 0.909524 0.183332
O O9 0.000000 0.920485 0.250000
O O10 0.115271 0.997153 0.253133
O O11 0.088155 0.948480 0.996675
O O12 0.184419 0.092438 0.263114
O O13 0.000000 0.074439 0.250000
O O14 0.827316 0.340799 0.739393
O O15 0.648774 0.310121 0.740591
O O16 0.861505 0.381555 0.494829
O O17 0.693413 0.331203 0.479074
O O18 0.000000 0.624896 0.250000
#
# Coordination Sequence:
#
# PCOD9456486 Si02
#       8
#     8   8   8   8   8   8   8   8
#     4  11  21  34  59  82 119 176 209 258 312 366
#     4  12  23  36  59  88 132 163 218 265 303 382
#     4  11  24  42  66  96 130 162 209 265 331 404
#     4  11  24  42  65  95 132 162 208 262 333 402
#     4  11  24  39  60  94 126 170 212 266 321 385
#     4  11  23  39  63  91 122 170 221 262 325 398
#     4  10  21  43  63  83 122 169 218 261 322 373
#     4  11  22  40  54  89 129 171 219 256 311 386
#
# _framework density 20.028012
#
# number of rings (size 3 to 8) (size 9 to 14) (size 15 to 20)
#    0.000    1.000    6.250    3.750    7.000    0.000 
#    0.000    1.875    0.000    0.750    0.000    0.000 
#    0.000    0.000    0.000    0.000    0.000    0.000 
#
# Total GULP energy -356950.446465 kJ/mol
# GULP energy per Si atom -5577.350726 kJ/mol
# Density = 1.998243 g / cm^3
# Si number density = 20.028012 Si / 1000 Ang^3
#
#
#
# Elastic Constant Matrix: (Units=GPa)
#
#
# Indices 1 2 3 4 5 6 
#
# 1 93.0091 25.6985 25.3532 0.0000 0.0000 0.0000
# 2 25.6985 50.8815 21.6334 0.0000 0.0000 0.0000
# 3 25.3532 21.6334 93.2999 0.0000 0.0000 0.0000
# 4 0.0000 0.0000 0.0000 25.2111 0.0000 0.0000
# 5 0.0000 0.0000 0.0000 0.0000 37.9608 0.0000
# 6 0.0000 0.0000 0.0000 0.0000 0.0000 28.0751
#
#
#
# Elastic Compliance Matrix: (Units=1/GPa)
#
#
# Indices 1 2 3 4 5 6 
#
# 1 0.012894 -0.005572 -0.002212 0.000000 0.000000 0.000000
# 2 -0.005572 0.024211 -0.004100 0.000000 0.000000 0.000000
# 3 -0.002212 -0.004100 0.012270 0.000000 0.000000 0.000000
# 4 0.000000 0.000000 0.000000 0.039665 0.000000 0.000000
# 5 0.000000 0.000000 0.000000 0.000000 0.026343 0.000000
# 6 0.000000 0.000000 0.000000 0.000000 0.000000 0.035619
#
#
# Mechanical properties :
#
#
# Convention : Reuss Voigt Hill
#
# Bulk Modulus (GPa) = 39.05068 42.50674 40.77871
# Shear Modulus (GPa) = 27.27704 29.21641 28.24673
#
# Velocity S-wave (km/s) = 3.69446 3.82354 3.75955
# Velocity P-wave (km/s) = 6.14321 6.38454 6.26504
#
# Compressibility (1/GPa) = 0.02560775
#
# Stress axis : x y z
#
# Youngs Moduli (GPa) = 77.55484 41.30390 81.50120
#
# Poissons Ratio (x) = 0.23014 0.18027
# Poissons Ratio (y) = 0.43213 0.33413
# Poissons Ratio (z) = 0.17154 0.16933
#
# Static dielectric constant tensor:
#      x y z
#    x 1.757630 0.000000 0.000000 
#    y 0.000000 1.707800 0.000000 
#    z 0.000000 0.000000 1.763400 
# 
# From -- ./inp_files/6303.got.cif
#   From: 2010.05.17/outbox.cif.g08.bks.cpg/sg60_4_cif.got.tgz:6303.got - 2010.06.03 14:59:27.
