data_PCOD9456823
_publ_section_title
;
Structure prediction by ZEFSAII (Michael W. Deem and Ramdas Pophale) SiO2 
 PCOD9456823
Probable space group: P B C N
;
_chemical_formula_sum "Si O2"
_cell_formula_units_Z 32
_cell_length_a 12.344774
_cell_length_b 25.101016
_cell_length_c 4.953114
_cell_angle_alpha 90.000000
_cell_angle_beta 90.000000
_cell_angle_gamma 90.000000
_cell_volume 1534.803454
_symmetry_space_group_name_H-M "P B C N"
_symmetry_group_IT_number 60
_symmetry_cell_setting 'orthorhombic'
loop_
_space_group_symop_operation_xyz
x,y,z
1/2-x,1/2-y,1/2+z
1/2+x,1/2-y,-z
-x,y,1/2-z
-x,-y,-z
1/2+x,1/2+y,1/2-z
1/2-x,1/2+y,z
x,-y,1/2+z
loop_
_atom_site_type_symbol
_atom_site_label
_atom_site_fract_x
_atom_site_fract_y
_atom_site_fract_z
Si Si1 0.236341 0.367011 0.443233
Si Si2 0.373219 0.464840 0.222134
Si Si3 0.394349 0.845030 0.929507
Si Si4 0.422645 0.719344 0.985983
O O1 0.302074 0.416324 0.325493
O O2 0.197399 0.372854 0.749405
O O3 0.315083 0.315889 0.466498
O O4 0.134030 0.358399 0.240187
O O5 0.500000 0.450656 0.250000
O O6 0.353611 0.515168 0.419760
O O7 0.500000 0.858840 0.750000
O O8 0.391114 0.780642 0.929080
O O9 0.500000 0.717118 0.250000
O O10 0.500000 0.699473 0.750000
#
# Coordination Sequence:
#
# PCOD9456823 Si02
#       4
#     8   8   8   8
#     4  12  22  38  64  87 117 162 206 243 302 368
#     4  10  22  40  62  90 121 150 191 253 319 374
#     4  11  23  39  58  86 124 163 204 248 292 351
#     4  11  22  37  58  90 126 155 195 246 301 364
#
# _framework density 20.849574
#
# number of rings (size 3 to 8) (size 9 to 14) (size 15 to 20)
#    0.000    1.000    0.000    9.000    0.000    3.000 
#    0.000    0.000    0.000   15.000    0.000    0.000 
#    0.000    0.000    0.000    0.000    0.000    0.000 
#
# Total GULP energy -178567.601146 kJ/mol
# GULP energy per Si atom -5580.237536 kJ/mol
# Density = 2.080212 g / cm^3
# Si number density = 20.849574 Si / 1000 Ang^3
#
#
#
# Elastic Constant Matrix: (Units=GPa)
#
#
# Indices 1 2 3 4 5 6 
#
# 1 65.9009 35.9724 33.7381 0.0000 0.0000 0.0000
# 2 35.9724 49.0984 -3.2072 0.0000 0.0000 0.0000
# 3 33.7381 -3.2072 122.9110 0.0000 0.0000 0.0000
# 4 0.0000 0.0000 0.0000 18.9947 0.0000 0.0000
# 5 0.0000 0.0000 0.0000 0.0000 40.2107 0.0000
# 6 0.0000 0.0000 0.0000 0.0000 0.0000 106.4812
#
#
#
# Elastic Compliance Matrix: (Units=1/GPa)
#
#
# Indices 1 2 3 4 5 6 
#
# 1 0.034564 -0.025988 -0.010166 0.000000 0.000000 0.000000
# 2 -0.025988 0.039942 0.008176 0.000000 0.000000 0.000000
# 3 -0.010166 0.008176 0.011140 0.000000 0.000000 0.000000
# 4 0.000000 0.000000 0.000000 0.052646 0.000000 0.000000
# 5 0.000000 0.000000 0.000000 0.000000 0.024869 0.000000
# 6 0.000000 0.000000 0.000000 0.000000 0.000000 0.009391
#
#
# Mechanical properties :
#
#
# Convention : Reuss Voigt Hill
#
# Bulk Modulus (GPa) = 33.68173 41.21301 37.44737
# Shear Modulus (GPa) = 20.97274 44.56446 32.76860
#
# Velocity S-wave (km/s) = 3.17504 4.62825 3.96873
# Velocity P-wave (km/s) = 5.44343 6.95490 6.24506
#
# Compressibility (1/GPa) = 0.02968968
#
# Stress axis : x y z
#
# Youngs Moduli (GPa) = 28.93153 25.03656 89.76880
#
# Poissons Ratio (x) = 0.65065 0.91257
# Poissons Ratio (y) = 0.75187 -0.73392
# Poissons Ratio (z) = 0.29411 -0.20469
#
# Static dielectric constant tensor:
#      x y z
#    x 1.731860 0.000000 0.000000 
#    y 0.000000 1.694640 0.000000 
#    z 0.000000 0.000000 1.722510 
# 
# From -- ./inp_files/633.got.cif
#   From: 2010.05.17/outbox.cif.g08.bks.cpg/sg60_1_cif.got.tgz:633.got - 2010.06.03 14:59:27.
