data_PCOD9456074
_publ_section_title
;
Structure prediction by ZEFSAII (Michael W. Deem and Ramdas Pophale) SiO2 
 PCOD9456074
Probable space group: P B C N
;
_chemical_formula_sum "Si O2"
_cell_formula_units_Z 24
_cell_length_a 8.299685
_cell_length_b 22.085738
_cell_length_c 5.192480
_cell_angle_alpha 90.000000
_cell_angle_beta 90.000000
_cell_angle_gamma 90.000000
_cell_volume 951.805825
_symmetry_space_group_name_H-M "P B C N"
_symmetry_group_IT_number 60
_symmetry_cell_setting 'orthorhombic'
loop_
_space_group_symop_operation_xyz
x,y,z
1/2-x,1/2-y,1/2+z
1/2+x,1/2-y,-z
-x,y,1/2-z
-x,-y,-z
1/2+x,1/2+y,1/2-z
1/2-x,1/2+y,z
x,-y,1/2+z
loop_
_atom_site_type_symbol
_atom_site_label
_atom_site_fract_x
_atom_site_fract_y
_atom_site_fract_z
Si Si1 0.807983 0.034146 0.771269
Si Si2 0.670200 0.636854 0.133694
Si Si3 0.500000 0.162551 0.250000
Si Si4 0.000000 0.743819 0.750000
O O1 0.797846 0.104340 0.861350
O O2 0.000000 0.974605 0.250000
O O3 0.742757 0.994840 0.010802
O O4 0.500000 0.611664 0.250000
O O5 0.834189 0.626707 0.289399
O O6 0.635673 0.708553 0.153810
O O7 0.468707 0.202611 0.503618
#
# Coordination Sequence:
#
# PCOD9456074 Si02
#       4
#     8   8   4   4
#     4  10  21  38  64  96 127 163 213 264 318 380
#     4  10  24  40  68  92 125 170 212 255 323 379
#     4  12  24  46  58  96 130 166 210 272 304 382
#     4  10  26  40  66  90 130 166 214 258 320 374
#
# _framework density 25.215228
#
# number of rings (size 3 to 8) (size 9 to 14) (size 15 to 20)
#    1.000    0.667    0.000    5.000    2.333    5.333 
#    0.000    1.667    0.000    0.000    0.000    2.333 
#    0.000    0.000    0.000    0.000    0.000    0.000 
#
# Total GULP energy -133809.905389 kJ/mol
# GULP energy per Si atom -5575.412725 kJ/mol
# Density = 2.515784 g / cm^3
# Si number density = 25.215228 Si / 1000 Ang^3
#
#
#
# Elastic Constant Matrix: (Units=GPa)
#
#
# Indices 1 2 3 4 5 6 
#
# 1 149.3866 30.9301 24.7425 0.0000 0.0000 0.0000
# 2 30.9301 104.1793 70.0387 0.0000 0.0000 0.0000
# 3 24.7425 70.0387 196.2010 0.0000 0.0000 0.0000
# 4 0.0000 0.0000 0.0000 50.0611 0.0000 0.0000
# 5 0.0000 0.0000 0.0000 0.0000 13.7797 0.0000
# 6 0.0000 0.0000 0.0000 0.0000 0.0000 -7.7902
#
#
#
# Elastic Compliance Matrix: (Units=1/GPa)
#
#
# Indices 1 2 3 4 5 6 
#
# 1 0.007138 -0.001992 -0.000189 0.000000 0.000000 0.000000
# 2 -0.001992 0.013186 -0.004456 0.000000 0.000000 0.000000
# 3 -0.000189 -0.004456 0.006711 0.000000 0.000000 0.000000
# 4 0.000000 0.000000 0.000000 0.019976 0.000000 0.000000
# 5 0.000000 0.000000 0.000000 0.000000 0.072571 0.000000
# 6 0.000000 0.000000 0.000000 0.000000 0.000000 -0.128366
#
#
# Mechanical properties :
#
#
# Convention : Reuss Voigt Hill
#
# Bulk Modulus (GPa) = 72.66849 77.90996 75.28922
# Shear Modulus (GPa) = 550.92433 32.81382 291.86907
#
# Velocity S-wave (km/s) = 14.79740 3.61134 10.77044
# Velocity P-wave (km/s) = 17.91180 6.95371 13.58651
#
# Compressibility (1/GPa) = 0.01376112
#
# Stress axis : x y z
#
# Youngs Moduli (GPa) = 140.09912 75.83882 149.00348
#
# Poissons Ratio (x) = 0.15108 0.02816
# Poissons Ratio (y) = 0.27909 0.66393
# Poissons Ratio (z) = 0.02648 0.33792
#
# Static dielectric constant tensor:
#      x y z
#    x 1.915140 0.000000 0.000000 
#    y 0.000000 1.999110 0.000000 
#    z 0.000000 0.000000 2.051860 
# 
# From -- ./inp_files/255.got.cif
#   From: 2010.05.17/outbox.cif.g08.bks.cpg/sg60_1_cif.got.tgz:255.got - 2010.06.03 14:59:27.
