data_PCOD9456011
_publ_section_title
;
Structure prediction by ZEFSAII (Michael W. Deem and Ramdas Pophale) SiO2 
 PCOD9456011
Probable space group: P B C N
;
_chemical_formula_sum "Si O2"
_cell_formula_units_Z 56
_cell_length_a 5.547005
_cell_length_b 28.247855
_cell_length_c 14.438802
_cell_angle_alpha 90.000000
_cell_angle_beta 90.000000
_cell_angle_gamma 90.000000
_cell_volume 2262.430222
_symmetry_space_group_name_H-M "P B C N"
_symmetry_group_IT_number 60
_symmetry_cell_setting 'orthorhombic'
loop_
_space_group_symop_operation_xyz
x,y,z
1/2-x,1/2-y,1/2+z
1/2+x,1/2-y,-z
-x,y,1/2-z
-x,-y,-z
1/2+x,1/2+y,1/2-z
1/2-x,1/2+y,z
x,-y,1/2+z
loop_
_atom_site_type_symbol
_atom_site_label
_atom_site_fract_x
_atom_site_fract_y
_atom_site_fract_z
Si Si1 0.124343 0.544907 0.108846
Si Si2 0.840850 0.265533 0.126191
Si Si3 0.984613 0.560027 0.895992
Si Si4 0.620470 0.598502 0.156503
Si Si5 0.647613 0.643712 0.967953
Si Si6 0.668716 0.752643 0.910305
Si Si7 0.709029 0.633327 0.674914
O O1 0.391547 0.565204 0.128891
O O2 0.122494 0.489698 0.135512
O O3 0.881431 0.570356 0.153878
O O4 0.093232 0.548855 0.997726
O O5 0.583189 0.240644 0.141089
O O6 0.837827 0.315902 0.176893
O O7 0.084809 0.236553 0.142126
O O8 0.836686 0.274157 0.013417
O O9 0.163067 0.583200 0.821897
O O10 0.807782 0.603946 0.918379
O O11 0.500000 0.618916 0.250000
O O12 0.661293 0.637220 0.076719
O O13 0.691804 0.696152 0.930571
O O14 0.384105 0.632615 0.930663
O O15 0.500000 0.635804 0.750000
#
# Coordination Sequence:
#
# PCOD9456011 Si02
#       7
#     8   8   8   8   8   8   8
#     4  10  23  39  63  84 121 161 206 261 313 372
#     4   9  18  34  55  86 115 150 203 236 296 363
#     4  10  21  38  60  85 121 163 210 251 313 374
#     4  11  23  41  62  89 118 157 208 263 315 367
#     4  10  21  38  62  86 123 157 208 254 313 371
#     4   9  17  33  61  83 111 154 193 246 295 362
#     4  11  22  37  58  90 128 169 205 262 311 381
#
# _framework density 24.752146
#
# number of rings (size 3 to 8) (size 9 to 14) (size 15 to 20)
#    0.000    2.000    2.857    0.429    2.000    2.857 
#    2.571    0.000    0.000   17.143    0.000    0.000 
#    0.000    0.000    0.000    0.000    0.000    0.000 
#
# Total GULP energy -312422.361283 kJ/mol
# GULP energy per Si atom -5578.970737 kJ/mol
# Density = 2.469581 g / cm^3
# Si number density = 24.752146 Si / 1000 Ang^3
#
#
#
# Elastic Constant Matrix: (Units=GPa)
#
#
# Indices 1 2 3 4 5 6 
#
# 1 163.7197 31.2381 22.3074 0.0000 0.0000 0.0000
# 2 31.2381 94.7269 13.6402 0.0000 0.0000 0.0000
# 3 22.3074 13.6402 76.6297 0.0000 0.0000 0.0000
# 4 0.0000 0.0000 0.0000 -23.8245 0.0000 0.0000
# 5 0.0000 0.0000 0.0000 0.0000 49.7832 0.0000
# 6 0.0000 0.0000 0.0000 0.0000 0.0000 28.1441
#
#
#
# Elastic Compliance Matrix: (Units=1/GPa)
#
#
# Indices 1 2 3 4 5 6 
#
# 1 0.006704 -0.001980 -0.001599 0.000000 0.000000 0.000000
# 2 -0.001980 0.011419 -0.001456 0.000000 0.000000 0.000000
# 3 -0.001599 -0.001456 0.013774 0.000000 0.000000 0.000000
# 4 0.000000 0.000000 0.000000 -0.041974 0.000000 0.000000
# 5 0.000000 0.000000 0.000000 0.000000 0.020087 0.000000
# 6 0.000000 0.000000 0.000000 0.000000 0.000000 0.035531
#
#
# Mechanical properties :
#
#
# Convention : Reuss Voigt Hill
#
# Bulk Modulus (GPa) = 45.81594 52.16082 48.98838
# Shear Modulus (GPa) = 79.50479 28.67992 54.09236
#
# Velocity S-wave (km/s) = 5.67363 3.40764 4.67986
# Velocity P-wave (km/s) = 7.84029 6.04993 7.00257
#
# Compressibility (1/GPa) = 0.02182647
#
# Stress axis : x y z
#
# Youngs Moduli (GPa) = 149.17040 87.56998 72.59823
#
# Poissons Ratio (x) = 0.17343 0.11608
# Poissons Ratio (y) = 0.29542 0.10571
# Poissons Ratio (z) = 0.23852 0.12751
#
# Static dielectric constant tensor:
#      x y z
#    x 2.138820 0.000000 0.000000 
#    y 0.000000 1.939650 0.000000 
#    z 0.000000 0.000000 2.006310 
# 
# From -- ./inp_files/14079.got.cif
#   From: 2010.05.17/outbox.cif.g08.bks.cpg/sg60_8_cif.got.tgz:14079.got - 2010.06.03 14:59:27.
