data_PCOD9456212
_publ_section_title
;
Structure prediction by ZEFSAII (Michael W. Deem and Ramdas Pophale) SiO2 
 PCOD9456212
Probable space group: P B C N
;
_chemical_formula_sum "Si O2"
_cell_formula_units_Z 64
_cell_length_a 15.146055
_cell_length_b 12.047226
_cell_length_c 16.869381
_cell_angle_alpha 90.000000
_cell_angle_beta 90.000000
_cell_angle_gamma 90.000000
_cell_volume 3078.121328
_symmetry_space_group_name_H-M "P B C N"
_symmetry_group_IT_number 60
_symmetry_cell_setting 'orthorhombic'
loop_
_space_group_symop_operation_xyz
x,y,z
1/2-x,1/2-y,1/2+z
1/2+x,1/2-y,-z
-x,y,1/2-z
-x,-y,-z
1/2+x,1/2+y,1/2-z
1/2-x,1/2+y,z
x,-y,1/2+z
loop_
_atom_site_type_symbol
_atom_site_label
_atom_site_fract_x
_atom_site_fract_y
_atom_site_fract_z
Si Si1 0.856279 0.075006 0.105972
Si Si2 0.837861 0.370353 0.626877
Si Si3 0.412913 0.664022 0.947333
Si Si4 0.009942 0.504556 0.653505
Si Si5 0.514145 0.739479 0.391525
Si Si6 0.873033 0.080317 0.295612
Si Si7 0.177737 0.633346 0.183752
Si Si8 0.437399 0.661971 0.673002
O O1 0.752613 0.087587 0.087993
O O2 0.863472 0.061532 0.201456
O O3 0.920089 0.180073 0.091074
O O4 0.891273 0.965160 0.062646
O O5 0.846790 0.242434 0.601433
O O6 0.929462 0.436383 0.612955
O O7 0.827888 0.381467 0.721296
O O8 0.505339 0.684956 0.903737
O O9 0.422776 0.707634 0.035455
O O10 0.000000 0.505373 0.750000
O O11 0.007750 0.630057 0.622868
O O12 0.103856 0.443003 0.642068
O O13 0.561814 0.679994 0.317443
O O14 0.778158 0.104487 0.334708
O O15 0.913538 0.966368 0.326625
O O16 0.147647 0.760058 0.172020
O O17 0.500000 0.687419 0.750000
#
# Coordination Sequence:
#
# PCOD9456212 Si02
#       8
#     8   8   8   8   8   8   8   8
#     4  11  23  42  68  93 123 170 220 266 311 379
#     4  10  22  41  68  95 123 164 220 264 313 380
#     4  12  24  44  65  91 129 174 213 260 325 388
#     4  10  21  42  65  93 129 164 206 266 317 375
#     4  12  26  42  60  97 136 168 205 264 334 380
#     4  11  23  39  66  98 126 165 218 270 314 372
#     4  10  21  39  68  99 122 162 220 267 310 367
#     4  12  19  41  70  88 123 170 219 261 309 376
#
# _framework density 20.791902
#
# number of rings (size 3 to 8) (size 9 to 14) (size 15 to 20)
#    0.000    1.000    5.000    1.875    3.500    0.500 
#    4.500    0.000    0.000    0.000    0.000    0.000 
#    0.000    0.000    0.000    0.000    0.000    0.000 
#
# Total GULP energy -357487.822115 kJ/mol
# GULP energy per Si atom -5585.747221 kJ/mol
# Density = 2.074458 g / cm^3
# Si number density = 20.791902 Si / 1000 Ang^3
#
#
#
# Elastic Constant Matrix: (Units=GPa)
#
#
# Indices 1 2 3 4 5 6 
#
# 1 106.3735 22.7383 6.7464 0.0000 0.0000 0.0000
# 2 22.7383 81.1203 -17.7629 0.0000 0.0000 0.0000
# 3 6.7464 -17.7629 23.5373 0.0000 0.0000 0.0000
# 4 0.0000 0.0000 0.0000 1.7205 0.0000 0.0000
# 5 0.0000 0.0000 0.0000 0.0000 9.2495 0.0000
# 6 0.0000 0.0000 0.0000 0.0000 0.0000 -9.0490
#
#
#
# Elastic Compliance Matrix: (Units=1/GPa)
#
#
# Indices 1 2 3 4 5 6 
#
# 1 0.010752 -0.004419 -0.006417 0.000000 0.000000 0.000000
# 2 -0.004419 0.016584 0.013782 0.000000 0.000000 0.000000
# 3 -0.006417 0.013782 0.054726 0.000000 0.000000 0.000000
# 4 0.000000 0.000000 0.000000 0.581238 0.000000 0.000000
# 5 0.000000 0.000000 0.000000 0.000000 0.108114 0.000000
# 6 0.000000 0.000000 0.000000 0.000000 0.000000 -0.110509
#
#
# Mechanical properties :
#
#
# Convention : Reuss Voigt Hill
#
# Bulk Modulus (GPa) = 11.36953 26.05274 18.71114
# Shear Modulus (GPa) = 7.30641 13.67148 10.48894
#
# Velocity S-wave (km/s) = 1.87662 2.56703 2.24848
# Velocity P-wave (km/s) = 3.18994 4.61992 3.96985
#
# Compressibility (1/GPa) = 0.08795437
#
# Stress axis : x y z
#
# Youngs Moduli (GPa) = 93.00236 60.29957 18.27288
#
# Poissons Ratio (x) = 0.26647 0.11725
# Poissons Ratio (y) = 0.41098 -0.25184
# Poissons Ratio (z) = 0.59678 -0.83105
#
# Static dielectric constant tensor:
#      x y z
#    x 1.760650 0.000000 0.000000 
#    y 0.000000 1.715970 0.000000 
#    z 0.000000 0.000000 1.789770 
# 
# From -- ./inp_files/20674.got.cif
#   From: 2010.05.17/outbox.cif.g08.bks.cpg/sg60_11_cif.got.tgz:20674.got - 2010.06.03 14:59:27.
