data_PCOD9456979
_publ_section_title
;
Structure prediction by ZEFSAII (Michael W. Deem and Ramdas Pophale) SiO2 
 PCOD9456979
Probable space group: P B C N
;
_chemical_formula_sum "Si O2"
_cell_formula_units_Z 48
_cell_length_a 8.932189
_cell_length_b 11.798220
_cell_length_c 17.139394
_cell_angle_alpha 90.000000
_cell_angle_beta 90.000000
_cell_angle_gamma 90.000000
_cell_volume 1806.216713
_symmetry_space_group_name_H-M "P B C N"
_symmetry_group_IT_number 60
_symmetry_cell_setting 'orthorhombic'
loop_
_space_group_symop_operation_xyz
x,y,z
1/2-x,1/2-y,1/2+z
1/2+x,1/2-y,-z
-x,y,1/2-z
-x,-y,-z
1/2+x,1/2+y,1/2-z
1/2-x,1/2+y,z
x,-y,1/2+z
loop_
_atom_site_type_symbol
_atom_site_label
_atom_site_fract_x
_atom_site_fract_y
_atom_site_fract_z
Si Si1 0.647265 0.393980 0.797243
Si Si2 0.311075 0.791295 0.838289
Si Si3 0.816060 0.044229 0.455304
Si Si4 0.531771 0.010479 0.833147
Si Si5 0.921293 0.318714 0.040601
Si Si6 0.004246 0.140831 0.919370
O O1 0.500000 0.438318 0.750000
O O2 0.712654 0.299222 0.739712
O O3 0.604572 0.378123 0.887875
O O4 0.801430 0.462060 0.817892
O O5 0.408286 0.908056 0.844119
O O6 0.433886 0.690929 0.840309
O O7 0.199815 0.754152 0.908815
O O8 0.491673 0.102057 0.600207
O O9 0.889089 0.046608 0.542431
O O10 0.844468 0.917203 0.424689
O O11 0.500000 0.067425 0.750000
O O12 0.659567 0.902176 0.977878
O O13 0.011485 0.240409 0.981917
#
# Coordination Sequence:
#
# PCOD9456979 Si02
#       6
#     8   8   8   8   8   8
#     4  11  24  45  69  98 148 198 245 306 372 457
#     4  10  23  44  69 101 142 187 243 310 377 454
#     4  10  23  42  66 103 145 190 248 311 382 458
#     4  10  24  45  69 104 144 186 241 308 377 454
#     4  11  22  41  75 107 143 192 249 317 389 465
#     4  10  22  41  68 102 140 184 236 306 384 451
#
# _framework density 26.574884000000001
#
# number of rings (size 3 to 8) (size 9 to 14) (size 15 to 20)
#    0.000    1.667    0.000    3.000    0.000   14.000 
#    0.000   17.500    0.000    0.000    0.000    0.000 
#    0.000    0.000    0.000    0.667    0.000    0.000 
#
# Total GULP energy -267658.326385 kJ/mol
# GULP energy per Si atom -5576.215133 kJ/mol
# Density = 2.651440 g / cm^3
# Si number density = 26.574884 Si / 1000 Ang^3
#
#
#
# Elastic Constant Matrix: (Units=GPa)
#
#
# Indices 1 2 3 4 5 6 
#
# 1 143.2946 54.9757 69.1870 0.0000 0.0000 0.0000
# 2 54.9757 96.5884 56.3942 0.0000 0.0000 0.0000
# 3 69.1870 56.3942 163.1928 0.0000 0.0000 0.0000
# 4 0.0000 0.0000 0.0000 41.7026 0.0000 0.0000
# 5 0.0000 0.0000 0.0000 0.0000 59.5149 0.0000
# 6 0.0000 0.0000 0.0000 0.0000 0.0000 20.3121
#
#
#
# Elastic Compliance Matrix: (Units=1/GPa)
#
#
# Indices 1 2 3 4 5 6 
#
# 1 0.009858 -0.003972 -0.002807 0.000000 0.000000 0.000000
# 2 -0.003972 0.014571 -0.003351 0.000000 0.000000 0.000000
# 3 -0.002807 -0.003351 0.008476 0.000000 0.000000 0.000000
# 4 0.000000 0.000000 0.000000 0.023979 0.000000 0.000000
# 5 0.000000 0.000000 0.000000 0.000000 0.016803 0.000000
# 6 0.000000 0.000000 0.000000 0.000000 0.000000 0.049232
#
#
# Mechanical properties :
#
#
# Convention : Reuss Voigt Hill
#
# Bulk Modulus (GPa) = 79.08715 84.90993 81.99854
# Shear Modulus (GPa) = 33.92319 39.14052 36.53186
#
# Velocity S-wave (km/s) = 3.57671 3.84192 3.71168
# Velocity P-wave (km/s) = 6.84703 7.19034 7.02079
#
# Compressibility (1/GPa) = 0.01264428
#
# Stress axis : x y z
#
# Youngs Moduli (GPa) = 101.44407 68.63129 117.98487
#
# Poissons Ratio (x) = 0.27261 0.33114
# Poissons Ratio (y) = 0.40294 0.39539
# Poissons Ratio (z) = 0.28471 0.22999
#
# Static dielectric constant tensor:
#      x y z
#    x 2.418990 0.000000 0.000000 
#    y 0.000000 2.134400 0.000000 
#    z 0.000000 0.000000 2.371320 
# 
# From -- ./inp_files/20076.got.cif
#   From: 2010.05.17/outbox.cif.g08.bks.cpg/sg60_11_cif.got.tgz:20076.got - 2010.06.03 14:59:27.
