data_PCOD9456304
_publ_section_title
;
Structure prediction by ZEFSAII (Michael W. Deem and Ramdas Pophale) SiO2 
 PCOD9456304
Probable space group: P B C N
;
_chemical_formula_sum "Si O2"
_cell_formula_units_Z 40
_cell_length_a 8.868162
_cell_length_b 22.475549
_cell_length_c 9.842228
_cell_angle_alpha 90.000000
_cell_angle_beta 90.000000
_cell_angle_gamma 90.000000
_cell_volume 1961.721484
_symmetry_space_group_name_H-M "P B C N"
_symmetry_group_IT_number 60
_symmetry_cell_setting 'orthorhombic'
loop_
_space_group_symop_operation_xyz
x,y,z
1/2-x,1/2-y,1/2+z
1/2+x,1/2-y,-z
-x,y,1/2-z
-x,-y,-z
1/2+x,1/2+y,1/2-z
1/2-x,1/2+y,z
x,-y,1/2+z
loop_
_atom_site_type_symbol
_atom_site_label
_atom_site_fract_x
_atom_site_fract_y
_atom_site_fract_z
Si Si1 0.751532 0.505884 0.001579
Si Si2 0.931256 0.687598 0.400505
Si Si3 0.483136 0.411243 0.592913
Si Si4 0.468677 0.919769 0.393582
Si Si5 0.080533 0.218272 0.101417
O O1 0.656504 0.455930 0.922872
O O2 0.885979 0.540561 0.929061
O O3 0.630365 0.554696 0.043570
O O4 0.831576 0.466792 0.118559
O O5 0.933772 0.625635 0.484640
O O6 0.761499 0.713012 0.384109
O O7 0.000000 0.680076 0.250000
O O8 0.028380 0.731561 0.495977
O O9 0.500000 0.399254 0.750000
O O10 0.464160 0.345527 0.533975
O O11 0.500000 0.888618 0.250000
O O12 0.000000 0.226772 0.250000
#
# Coordination Sequence:
#
# PCOD9456304 Si02
#       5
#     8   8   8   8   8
#     4  10  22  40  64  99 134 180 218 274 324 404
#     4  12  27  46  72 100 134 179 229 283 343 404
#     4  10  21  40  67  95 134 172 222 269 340 395
#     4  11  24  41  67 100 140 176 226 269 335 397
#     4  11  25  47  72 100 134 176 228 283 341 404
#
# _framework density 20.390255
#
# number of rings (size 3 to 8) (size 9 to 14) (size 15 to 20)
#    0.000    1.200    2.000    3.000    8.400    3.200 
#    0.000    1.000    0.000    0.000    0.000    0.000 
#    0.000    0.000    0.000    0.000    0.000    0.000 
#
# Total GULP energy -223168.942219 kJ/mol
# GULP energy per Si atom -5579.223555 kJ/mol
# Density = 2.034385 g / cm^3
# Si number density = 20.390255 Si / 1000 Ang^3
#
#
#
# Elastic Constant Matrix: (Units=GPa)
#
#
# Indices 1 2 3 4 5 6 
#
# 1 130.4486 24.9010 36.9235 0.0000 0.0000 0.0000
# 2 24.9010 84.3538 26.7501 0.0000 0.0000 0.0000
# 3 36.9235 26.7501 111.9704 0.0000 0.0000 0.0000
# 4 0.0000 0.0000 0.0000 31.8032 0.0000 0.0000
# 5 0.0000 0.0000 0.0000 0.0000 14.8721 0.0000
# 6 0.0000 0.0000 0.0000 0.0000 0.0000 33.7911
#
#
#
# Elastic Compliance Matrix: (Units=1/GPa)
#
#
# Indices 1 2 3 4 5 6 
#
# 1 0.008699 -0.001794 -0.002440 0.000000 0.000000 0.000000
# 2 -0.001794 0.013197 -0.002561 0.000000 0.000000 0.000000
# 3 -0.002440 -0.002561 0.010347 0.000000 0.000000 0.000000
# 4 0.000000 0.000000 0.000000 0.031443 0.000000 0.000000
# 5 0.000000 0.000000 0.000000 0.000000 0.067240 0.000000
# 6 0.000000 0.000000 0.000000 0.000000 0.000000 0.029594
#
#
# Mechanical properties :
#
#
# Convention : Reuss Voigt Hill
#
# Bulk Modulus (GPa) = 53.61184 55.99136 54.80160
# Shear Modulus (GPa) = 27.72727 31.97317 29.85022
#
# Velocity S-wave (km/s) = 3.69159 3.96417 3.83030
# Velocity P-wave (km/s) = 6.67236 6.96221 6.81882
#
# Compressibility (1/GPa) = 0.01865260
#
# Stress axis : x y z
#
# Youngs Moduli (GPa) = 114.95621 75.77701 96.64283
#
# Poissons Ratio (x) = 0.13596 0.23580
# Poissons Ratio (y) = 0.20625 0.24751
# Poissons Ratio (z) = 0.28049 0.19407
#
# Static dielectric constant tensor:
#      x y z
#    x 1.752380 0.000000 0.000000 
#    y 0.000000 1.731180 0.000000 
#    z 0.000000 0.000000 1.715740 
# 
# From -- ./inp_files/3853.got.cif
#   From: 2010.05.17/outbox.cif.g08.bks.cpg/sg60_2_cif.got.tgz:3853.got - 2010.06.03 14:59:27.
