data_PCOD9456613
_publ_section_title
;
Structure prediction by ZEFSAII (Michael W. Deem and Ramdas Pophale) SiO2 
 PCOD9456613
Probable space group: P B C N
;
_chemical_formula_sum "Si O2"
_cell_formula_units_Z 48
_cell_length_a 12.597967
_cell_length_b 9.206249
_cell_length_c 17.699798
_cell_angle_alpha 90.000000
_cell_angle_beta 90.000000
_cell_angle_gamma 90.000000
_cell_volume 2052.822945
_symmetry_space_group_name_H-M "P B C N"
_symmetry_group_IT_number 60
_symmetry_cell_setting 'orthorhombic'
loop_
_space_group_symop_operation_xyz
x,y,z
1/2-x,1/2-y,1/2+z
1/2+x,1/2-y,-z
-x,y,1/2-z
-x,-y,-z
1/2+x,1/2+y,1/2-z
1/2-x,1/2+y,z
x,-y,1/2+z
loop_
_atom_site_type_symbol
_atom_site_label
_atom_site_fract_x
_atom_site_fract_y
_atom_site_fract_z
Si Si1 0.148088 1.000000 0.285144
Si Si2 0.749999 0.750000 0.990699
Si Si3 0.000000 0.754943 0.250000
Si Si4 0.802311 0.000000 0.894077
Si Si5 0.500000 0.254943 0.750000
Si Si6 0.426928 0.000000 0.155539
Si Si7 0.663752 0.000000 0.095237
O O1 0.166778 1.000000 0.193962
O O2 0.074431 0.140520 0.299733
O O3 0.254497 0.999999 0.333757
O O4 0.074431 0.859480 0.299733
O O5 0.826761 0.851784 0.938924
O O6 0.673238 0.648216 0.938923
O O7 0.688471 0.859082 0.045480
O O8 0.811528 0.640919 0.045481
O O9 0.924015 0.645791 0.294770
O O10 0.674173 0.000000 0.896189
O O11 0.575985 0.145792 0.794771
O O12 0.542270 0.000001 0.119225
#
# Coordination Sequence:
#
# PCOD9456613 Si02
#       7
#     8   8   4   8   4   8   8
#     4  11  22  41  66  88 124 165 208 251 302 366
#     4  10  24  40  60  88 124 160 200 248 312 360
#     4  10  22  36  60 100 124 152 204 264 306 348
#     4  11  23  42  64  91 124 164 205 253 306 367
#     4  10  22  36  60 100 124 152 204 264 306 348
#     4  11  22  37  62  92 124 158 206 256 304 360
#     4  11  23  42  64  91 124 164 205 253 306 367
#
# _framework density 23.382435000000001
#
# number of rings (size 3 to 8) (size 9 to 14) (size 15 to 20)
#    0.000    1.333    0.000    6.000    0.000    6.667 
#    0.000    6.667    0.000   16.000    0.000    0.000 
#    0.000    0.000    0.000    0.000    0.000    0.000 
#
# Total GULP energy -268554.553547 kJ/mol
# GULP energy per Si atom -5594.886532 kJ/mol
# Density = 2.332922 g / cm^3
# Si number density = 23.382435 Si / 1000 Ang^3
#
#
#
# Elastic Constant Matrix: (Units=GPa)
#
#
# Indices 1 2 3 4 5 6 
#
# 1 86.8857 17.7396 14.1380 0.0000 0.0000 0.0000
# 2 17.7396 171.7273 45.4829 0.0000 0.0000 0.0000
# 3 14.1380 45.4829 95.2608 0.0000 0.0000 0.0000
# 4 0.0000 0.0000 0.0000 31.7232 0.0000 0.0000
# 5 0.0000 0.0000 0.0000 0.0000 32.4073 0.0000
# 6 0.0000 0.0000 0.0000 0.0000 0.0000 8.7521
#
#
#
# Elastic Compliance Matrix: (Units=1/GPa)
#
#
# Indices 1 2 3 4 5 6 
#
# 1 0.011907 -0.000872 -0.001351 0.000000 0.000000 0.000000
# 2 -0.000872 0.006730 -0.003084 0.000000 0.000000 0.000000
# 3 -0.001351 -0.003084 0.012170 0.000000 0.000000 0.000000
# 4 0.000000 0.000000 0.000000 0.031523 0.000000 0.000000
# 5 0.000000 0.000000 0.000000 0.000000 0.030857 0.000000
# 6 0.000000 0.000000 0.000000 0.000000 0.000000 0.114258
#
#
# Mechanical properties :
#
#
# Convention : Reuss Voigt Hill
#
# Bulk Modulus (GPa) = 49.51974 56.51055 53.01515
# Shear Modulus (GPa) = 22.24295 33.01074 27.62684
#
# Velocity S-wave (km/s) = 3.08761 3.76144 3.44106
# Velocity P-wave (km/s) = 5.82540 6.56391 6.20565
#
# Compressibility (1/GPa) = 0.02019397
#
# Stress axis : x y z
#
# Youngs Moduli (GPa) = 83.98241 148.58681 82.16670
#
# Poissons Ratio (x) = 0.12961 0.11098
# Poissons Ratio (y) = 0.07326 0.25339
# Poissons Ratio (z) = 0.11344 0.45822
#
# Static dielectric constant tensor:
#      x y z
#    x 1.819240 0.000000 0.000000 
#    y 0.000000 1.897660 0.000000 
#    z 0.000000 0.000000 1.939740 
# 
# From -- ./inp_files/20557.got.cif
#   From: 2010.05.17/outbox.cif.g08.bks.cpg/sg60_11_cif.got.tgz:20557.got - 2010.06.03 14:59:27.
