data_PCOD9456262
_publ_section_title
;
Structure prediction by ZEFSAII (Michael W. Deem and Ramdas Pophale) SiO2 
 PCOD9456262
Probable space group: P B C N
;
_chemical_formula_sum "Si O2"
_cell_formula_units_Z 48
_cell_length_a 9.823860
_cell_length_b 22.647160
_cell_length_c 9.161704
_cell_angle_alpha 90.000000
_cell_angle_beta 90.000000
_cell_angle_gamma 90.000000
_cell_volume 2038.319078
_symmetry_space_group_name_H-M "P B C N"
_symmetry_group_IT_number 60
_symmetry_cell_setting 'orthorhombic'
loop_
_space_group_symop_operation_xyz
x,y,z
1/2-x,1/2-y,1/2+z
1/2+x,1/2-y,-z
-x,y,1/2-z
-x,-y,-z
1/2+x,1/2+y,1/2-z
1/2-x,1/2+y,z
x,-y,1/2+z
loop_
_atom_site_type_symbol
_atom_site_label
_atom_site_fract_x
_atom_site_fract_y
_atom_site_fract_z
Si Si1 0.500000 0.568430 0.750000
Si Si2 0.814813 0.335930 0.278448
Si Si3 0.303847 0.923103 0.860904
Si Si4 0.946136 0.729800 0.549894
Si Si5 0.000000 0.322783 0.750000
Si Si6 0.567967 0.359688 0.502275
Si Si7 0.702251 0.035553 0.816461
O O1 0.535951 0.606574 0.604330
O O2 0.366710 0.533878 0.701210
O O3 0.814150 0.292957 0.139097
O O4 0.683719 0.341213 0.381802
O O5 0.842411 0.404246 0.233918
O O6 0.932691 0.308918 0.380581
O O7 0.386755 0.865118 0.820084
O O8 0.146804 0.902078 0.884649
O O9 0.339252 0.972967 0.744336
O O10 0.338480 0.951654 0.017723
O O11 0.937887 0.715655 0.379838
O O12 0.976885 0.798572 0.571368
#
# Coordination Sequence:
#
# PCOD9456262 Si02
#       7
#     4   8   8   8   4   8   8
#     4   8  19  40  64  84 124 171 198 264 336 356
#     4   9  22  41  56  95 126 167 208 268 322 372
#     4  10  24  40  62  95 125 166 221 259 315 395
#     4  11  22  38  65  85 133 164 207 272 318 386
#     4  12  23  40  62  94 122 175 212 252 342 384
#     4  10  21  40  63  95 123 167 222 260 327 398
#     4  10  21  43  62  90 129 161 218 267 308 391
#
# _framework density 23.548815999999999
#
# number of rings (size 3 to 8) (size 9 to 14) (size 15 to 20)
#    0.000    2.333    3.333    0.500    4.667    7.333 
#    0.000    5.000    0.000    0.000    0.000    0.000 
#    0.000    0.000    0.000    0.000    0.000    0.000 
#
# Total GULP energy -267989.142214 kJ/mol
# GULP energy per Si atom -5583.107129 kJ/mol
# Density = 2.349522 g / cm^3
# Si number density = 23.548816 Si / 1000 Ang^3
#
#
#
# Elastic Constant Matrix: (Units=GPa)
#
#
# Indices 1 2 3 4 5 6 
#
# 1 45.4332 -13.0334 3.4504 0.0000 0.0000 0.0000
# 2 -13.0334 111.3695 23.5000 0.0000 0.0000 0.0000
# 3 3.4504 23.5000 96.2208 0.0000 0.0000 0.0000
# 4 0.0000 0.0000 0.0000 15.1344 0.0000 0.0000
# 5 0.0000 0.0000 0.0000 0.0000 26.3344 0.0000
# 6 0.0000 0.0000 0.0000 0.0000 0.0000 15.7876
#
#
#
# Elastic Compliance Matrix: (Units=1/GPa)
#
#
# Indices 1 2 3 4 5 6 
#
# 1 0.022996 0.003021 -0.001562 0.000000 0.000000 0.000000
# 2 0.003021 0.009864 -0.002517 0.000000 0.000000 0.000000
# 3 -0.001562 -0.002517 0.011064 0.000000 0.000000 0.000000
# 4 0.000000 0.000000 0.000000 0.066074 0.000000 0.000000
# 5 0.000000 0.000000 0.000000 0.000000 0.037973 0.000000
# 6 0.000000 0.000000 0.000000 0.000000 0.000000 0.063341
#
#
# Mechanical properties :
#
#
# Convention : Reuss Voigt Hill
#
# Bulk Modulus (GPa) = 23.92050 31.20639 27.56344
# Shear Modulus (GPa) = 21.99111 27.39171 24.69141
#
# Velocity S-wave (km/s) = 3.05921 3.41425 3.24160
# Velocity P-wave (km/s) = 4.76007 5.36874 5.07354
#
# Compressibility (1/GPa) = 0.04180515
#
# Stress axis : x y z
#
# Youngs Moduli (GPa) = 43.48666 101.38044 90.38644
#
# Poissons Ratio (x) = -0.30625 0.14122
# Poissons Ratio (y) = -0.13137 0.22754
# Poissons Ratio (z) = 0.06794 0.25521
#
# Static dielectric constant tensor:
#      x y z
#    x 1.973100 0.000000 0.000000 
#    y 0.000000 1.899290 0.000000 
#    z 0.000000 0.000000 1.917990 
# 
# From -- ./inp_files/5178.got.cif
#   From: 2010.05.17/outbox.cif.g08.bks.cpg/sg60_3_cif.got.tgz:5178.got - 2010.06.03 14:59:27.
