data_PCOD9456884
_publ_section_title
;
Structure prediction by ZEFSAII (Michael W. Deem and Ramdas Pophale) SiO2 
 PCOD9456884
Probable space group: P B C N
;
_chemical_formula_sum "Si O2"
_cell_formula_units_Z 32
_cell_length_a 5.586253
_cell_length_b 37.000897
_cell_length_c 7.337001
_cell_angle_alpha 90.000000
_cell_angle_beta 90.000000
_cell_angle_gamma 90.000000
_cell_volume 1516.531487
_symmetry_space_group_name_H-M "P B C N"
_symmetry_group_IT_number 60
_symmetry_cell_setting 'orthorhombic'
loop_
_space_group_symop_operation_xyz
x,y,z
1/2-x,1/2-y,1/2+z
1/2+x,1/2-y,-z
-x,y,1/2-z
-x,-y,-z
1/2+x,1/2+y,1/2-z
1/2-x,1/2+y,z
x,-y,1/2+z
loop_
_atom_site_type_symbol
_atom_site_label
_atom_site_fract_x
_atom_site_fract_y
_atom_site_fract_z
Si Si1 0.506193 0.080372 0.528689
Si Si2 0.502664 0.542706 0.965699
Si Si3 0.000000 0.772100 0.250000
Si Si4 0.500000 0.856048 0.750000
Si Si5 0.800408 0.208904 0.105732
O O1 0.500000 0.083934 0.750000
O O2 0.252778 0.061397 0.471651
O O3 0.535167 0.118068 0.423091
O O4 0.745675 0.058319 0.472180
O O5 0.500000 0.548527 0.750000
O O6 0.500000 0.500000 0.000000
O O7 0.127033 0.743499 0.384367
O O8 0.860133 0.796371 0.394164
O O9 0.295480 0.828047 0.808151
O O10 0.000000 0.220112 0.250000
#
# Coordination Sequence:
#
# PCOD9456884 Si02
#       5
#     8   8   4   4   8
#     4  10  24  44  64  97 142 176 230 285 339 415
#     4  10  22  40  68  98 129 177 231 287 346 400
#     4  11  22  44  70  98 136 170 224 296 322 416
#     4  11  28  42  68  98 136 192 218 270 360 424
#     4  11  24  42  69 102 133 173 229 273 354 405
#
# _framework density 21.100783
#
# number of rings (size 3 to 8) (size 9 to 14) (size 15 to 20)
#    0.000    1.500    2.500    0.750    7.000    2.000 
#    2.250    0.000    0.000    0.000    0.000    0.000 
#    0.000    0.000    0.000    0.000    0.000    0.000 
#
# Total GULP energy -178295.990645 kJ/mol
# GULP energy per Si atom -5571.749708 kJ/mol
# Density = 2.105276 g / cm^3
# Si number density = 21.100783 Si / 1000 Ang^3
#
#
#
# Elastic Constant Matrix: (Units=GPa)
#
#
# Indices 1 2 3 4 5 6 
#
# 1 117.8657 46.2513 36.9787 0.0000 0.0000 0.0000
# 2 46.2513 98.0061 24.6300 0.0000 0.0000 0.0000
# 3 36.9787 24.6300 126.3300 0.0000 0.0000 0.0000
# 4 0.0000 0.0000 0.0000 71.7032 0.0000 0.0000
# 5 0.0000 0.0000 0.0000 0.0000 15.9776 0.0000
# 6 0.0000 0.0000 0.0000 0.0000 0.0000 -12.8507
#
#
#
# Elastic Compliance Matrix: (Units=1/GPa)
#
#
# Indices 1 2 3 4 5 6 
#
# 1 0.011027 -0.004619 -0.002327 0.000000 0.000000 0.000000
# 2 -0.004619 0.012664 -0.001117 0.000000 0.000000 0.000000
# 3 -0.002327 -0.001117 0.008815 0.000000 0.000000 0.000000
# 4 0.000000 0.000000 0.000000 0.013946 0.000000 0.000000
# 5 0.000000 0.000000 0.000000 0.000000 0.062588 0.000000
# 6 0.000000 0.000000 0.000000 0.000000 0.000000 -0.077817
#
#
# Mechanical properties :
#
#
# Convention : Reuss Voigt Hill
#
# Bulk Modulus (GPa) = 61.05282 61.99132 61.52207
# Shear Modulus (GPa) = 94.68141 30.58881 62.63511
#
# Velocity S-wave (km/s) = 6.70585 3.81156 5.45419
# Velocity P-wave (km/s) = 9.43158 6.98664 8.29963
#
# Compressibility (1/GPa) = 0.01637926
#
# Stress axis : x y z
#
# Youngs Moduli (GPa) = 90.68751 78.96419 113.44616
#
# Poissons Ratio (x) = 0.36473 0.26401
# Poissons Ratio (y) = 0.41888 0.12672
# Poissons Ratio (z) = 0.21105 0.08820
#
# Static dielectric constant tensor:
#      x y z
#    x 1.560200 0.000000 0.000000 
#    y 0.000000 1.774460 0.000000 
#    z 0.000000 0.000000 1.823960 
# 
# From -- ./inp_files/3139.got.cif
#   From: 2010.05.17/outbox.cif.g08.bks.cpg/sg60_2_cif.got.tgz:3139.got - 2010.06.03 14:59:27.
