data_PCOD9456128
_publ_section_title
;
Structure prediction by ZEFSAII (Michael W. Deem and Ramdas Pophale) SiO2 
 PCOD9456128
Probable space group: P B C N
;
_chemical_formula_sum "Si O2"
_cell_formula_units_Z 64
_cell_length_a 11.274394
_cell_length_b 34.248485
_cell_length_c 8.201648
_cell_angle_alpha 90.000000
_cell_angle_beta 90.000000
_cell_angle_gamma 90.000000
_cell_volume 3166.909837
_symmetry_space_group_name_H-M "P B C N"
_symmetry_group_IT_number 60
_symmetry_cell_setting 'orthorhombic'
loop_
_space_group_symop_operation_xyz
x,y,z
1/2-x,1/2-y,1/2+z
1/2+x,1/2-y,-z
-x,y,1/2-z
-x,-y,-z
1/2+x,1/2+y,1/2-z
1/2-x,1/2+y,z
x,-y,1/2+z
loop_
_atom_site_type_symbol
_atom_site_label
_atom_site_fract_x
_atom_site_fract_y
_atom_site_fract_z
Si Si1 0.394026 0.049478 0.530991
Si Si2 0.156720 0.530444 0.908647
Si Si3 0.817484 0.326681 0.863905
Si Si4 0.697754 0.602606 0.543940
Si Si5 0.919659 0.778186 0.910691
Si Si6 0.973363 0.143288 0.055908
Si Si7 0.778433 0.628883 0.903326
Si Si8 0.067650 0.691770 0.481518
O O1 0.534394 0.043758 0.502901
O O2 0.366530 0.039088 0.719207
O O3 0.351599 0.093632 0.513176
O O4 0.328568 0.015717 0.430573
O O5 0.260588 0.558124 0.973350
O O6 0.709538 0.295842 0.870892
O O7 0.874625 0.324380 0.685459
O O8 0.927526 0.315817 0.980090
O O9 0.764550 0.368313 0.918349
O O10 0.559034 0.610976 0.521398
O O11 0.736502 0.615774 0.724621
O O12 0.984928 0.813812 0.003261
O O13 0.000000 0.770779 0.750000
O O14 0.910341 0.737697 0.004140
O O15 0.000000 0.143015 0.250000
O O16 0.838152 0.137322 0.009523
O O17 0.862069 0.666521 0.886308
#
# Coordination Sequence:
#
# PCOD9456128 Si02
#       8
#     8   8   8   8   8   8   8   8
#     4   9  19  34  56  90 119 155 192 241 299 362
#     4   9  18  35  58  86 125 152 192 241 297 357
#     4  10  24  41  55  87 118 152 202 249 302 360
#     4  10  21  39  61  87 120 158 201 248 301 369
#     4  10  23  39  61  81 115 155 199 250 309 355
#     4  10  22  42  61  84 119 159 202 253 303 367
#     4  11  22  37  63  89 118 157 205 247 307 366
#     4  11  24  38  60  84 116 154 199 255 300 362
#
# _framework density 20.208974000000001
#
# number of rings (size 3 to 8) (size 9 to 14) (size 15 to 20)
#    0.000    2.000    0.000    3.375    5.250    4.000 
#    4.500    3.125    0.000    0.000    0.000    0.000 
#    0.000    0.000    0.000    0.000    0.000    0.000 
#
# Total GULP energy -357382.467482 kJ/mol
# GULP energy per Si atom -5584.101054 kJ/mol
# Density = 2.016298 g / cm^3
# Si number density = 20.208974 Si / 1000 Ang^3
#
#
#
# Elastic Constant Matrix: (Units=GPa)
#
#
# Indices 1 2 3 4 5 6 
#
# 1 91.4116 20.9825 9.1415 0.0000 0.0000 0.0000
# 2 20.9825 86.0806 5.3432 0.0000 0.0000 0.0000
# 3 9.1415 5.3432 38.1586 0.0000 0.0000 0.0000
# 4 0.0000 0.0000 0.0000 20.1538 0.0000 0.0000
# 5 0.0000 0.0000 0.0000 0.0000 26.4896 0.0000
# 6 0.0000 0.0000 0.0000 0.0000 0.0000 26.7528
#
#
#
# Elastic Compliance Matrix: (Units=1/GPa)
#
#
# Indices 1 2 3 4 5 6 
#
# 1 0.011810 -0.002727 -0.002448 0.000000 0.000000 0.000000
# 2 -0.002727 0.012348 -0.001076 0.000000 0.000000 0.000000
# 3 -0.002448 -0.001076 0.026943 0.000000 0.000000 0.000000
# 4 0.000000 0.000000 0.000000 0.049618 0.000000 0.000000
# 5 0.000000 0.000000 0.000000 0.000000 0.037751 0.000000
# 6 0.000000 0.000000 0.000000 0.000000 0.000000 0.037379
#
#
# Mechanical properties :
#
#
# Convention : Reuss Voigt Hill
#
# Bulk Modulus (GPa) = 25.90560 31.84280 28.87420
# Shear Modulus (GPa) = 24.84867 26.69149 25.77008
#
# Velocity S-wave (km/s) = 3.51035 3.63819 3.57484
# Velocity P-wave (km/s) = 5.41080 5.78269 5.59983
#
# Compressibility (1/GPa) = 0.03860169
#
# Stress axis : x y z
#
# Youngs Moduli (GPa) = 84.67250 80.98166 37.11482
#
# Poissons Ratio (x) = 0.22083 0.09084
# Poissons Ratio (y) = 0.23089 0.03993
# Poissons Ratio (z) = 0.20724 0.08712
#
# Static dielectric constant tensor:
#      x y z
#    x 1.707920 0.000000 0.000000 
#    y 0.000000 1.712800 0.000000 
#    z 0.000000 0.000000 1.767710 
# 
# From -- ./inp_files/5326.got.cif
#   From: 2010.05.17/outbox.cif.g08.bks.cpg/sg60_3_cif.got.tgz:5326.got - 2010.06.03 14:59:27.
