data_PCOD9456716
_publ_section_title
;
Structure prediction by ZEFSAII (Michael W. Deem and Ramdas Pophale) SiO2 
 PCOD9456716
Probable space group: P B C N
;
_chemical_formula_sum "Si O2"
_cell_formula_units_Z 48
_cell_length_a 5.259999
_cell_length_b 23.759543
_cell_length_c 16.920579
_cell_angle_alpha 90.000000
_cell_angle_beta 90.000000
_cell_angle_gamma 90.000000
_cell_volume 2114.652278
_symmetry_space_group_name_H-M "P B C N"
_symmetry_group_IT_number 60
_symmetry_cell_setting 'orthorhombic'
loop_
_space_group_symop_operation_xyz
x,y,z
1/2-x,1/2-y,1/2+z
1/2+x,1/2-y,-z
-x,y,1/2-z
-x,-y,-z
1/2+x,1/2+y,1/2-z
1/2-x,1/2+y,z
x,-y,1/2+z
loop_
_atom_site_type_symbol
_atom_site_label
_atom_site_fract_x
_atom_site_fract_y
_atom_site_fract_z
Si Si1 0.359882 0.053543 0.037459
Si Si2 0.204439 0.131622 0.682376
Si Si3 0.263045 0.995619 0.200656
Si Si4 0.831197 0.763203 0.547073
Si Si5 0.866315 0.880203 0.499391
Si Si6 0.762014 0.251729 0.225318
O O1 0.260993 0.032613 0.122160
O O2 0.592053 0.097733 0.028779
O O3 0.101066 0.076204 0.997776
O O4 0.500000 0.000000 0.000000
O O5 0.337493 0.070008 0.678774
O O6 0.143702 0.141327 0.591177
O O7 0.282396 0.192450 0.718134
O O8 0.000000 0.117972 0.750000
O O9 0.500000 0.017288 0.250000
O O10 0.000000 0.998845 0.250000
O O11 0.565002 0.765369 0.499239
O O12 0.928214 0.827237 0.554636
O O13 0.773783 0.736424 0.632317
O O14 0.500000 0.224586 0.250000
O O15 0.000000 0.214949 0.250000
#
# Coordination Sequence:
#
# PCOD9456716 Si02
#       6
#     8   8   8   8   8   8
#     4  12  26  46  70 104 151 190 246 299 367 439
#     4  10  22  38  67 102 139 175 236 296 373 421
#     4  11  24  41  67  98 138 186 237 295 358 427
#     4  12  25  46  72 105 149 190 247 300 370 445
#     4  12  26  44  73 106 142 200 239 300 372 443
#     4  11  23  42  66  99 139 181 233 302 363 428
#
# _framework density 22.69877
#
# number of rings (size 3 to 8) (size 9 to 14) (size 15 to 20)
#    0.000    0.667    1.667    7.000    4.667    2.667 
#    0.000    5.000    0.000    0.000    0.000    0.000 
#    0.000    0.000    0.000    0.000    0.000    0.000 
#
# Total GULP energy -267393.607404 kJ/mol
# GULP energy per Si atom -5570.700154 kJ/mol
# Density = 2.264711 g / cm^3
# Si number density = 22.698770 Si / 1000 Ang^3
#
#
#
# Elastic Constant Matrix: (Units=GPa)
#
#
# Indices 1 2 3 4 5 6 
#
# 1 160.3935 6.9101 55.3738 0.0000 0.0000 0.0000
# 2 6.9101 55.1376 40.7579 0.0000 0.0000 0.0000
# 3 55.3738 40.7579 154.0784 0.0000 0.0000 0.0000
# 4 0.0000 0.0000 0.0000 43.7264 0.0000 0.0000
# 5 0.0000 0.0000 0.0000 0.0000 37.4561 0.0000
# 6 0.0000 0.0000 0.0000 0.0000 0.0000 26.5292
#
#
#
# Elastic Compliance Matrix: (Units=1/GPa)
#
#
# Indices 1 2 3 4 5 6 
#
# 1 0.007187 0.001254 -0.002915 0.000000 0.000000 0.000000
# 2 0.001254 0.022764 -0.006472 0.000000 0.000000 0.000000
# 3 -0.002915 -0.006472 0.009250 0.000000 0.000000 0.000000
# 4 0.000000 0.000000 0.000000 0.022869 0.000000 0.000000
# 5 0.000000 0.000000 0.000000 0.000000 0.026698 0.000000
# 6 0.000000 0.000000 0.000000 0.000000 0.000000 0.037694
#
#
# Mechanical properties :
#
#
# Convention : Reuss Voigt Hill
#
# Bulk Modulus (GPa) = 43.60290 63.96588 53.78439
# Shear Modulus (GPa) = 33.25077 39.31351 36.28214
#
# Velocity S-wave (km/s) = 3.83152 4.16621 4.00236
# Velocity P-wave (km/s) = 6.23098 7.16830 6.71601
#
# Compressibility (1/GPa) = 0.02293425
#
# Stress axis : x y z
#
# Youngs Moduli (GPa) = 139.14302 43.92984 108.11164
#
# Poissons Ratio (x) = -0.05508 0.31509
# Poissons Ratio (y) = -0.17445 0.69971
# Poissons Ratio (z) = 0.40553 0.28432
#
# Static dielectric constant tensor:
#      x y z
#    x 2.078190 0.000000 0.000000 
#    y 0.000000 1.967520 0.000000 
#    z 0.000000 0.000000 1.821110 
# 
# From -- ./inp_files/18733.got.cif
#   From: 2010.05.17/outbox.cif.g08.bks.cpg/sg60_10_cif.got.tgz:18733.got - 2010.06.03 14:59:27.
