data_PCOD9456108
_publ_section_title
;
Structure prediction by ZEFSAII (Michael W. Deem and Ramdas Pophale) SiO2 
 PCOD9456108
Probable space group: P B C N
;
_chemical_formula_sum "Si O2"
_cell_formula_units_Z 48
_cell_length_a 22.252196
_cell_length_b 9.599049
_cell_length_c 8.438103
_cell_angle_alpha 90.000000
_cell_angle_beta 90.000000
_cell_angle_gamma 90.000000
_cell_volume 1802.378124
_symmetry_space_group_name_H-M "P B C N"
_symmetry_group_IT_number 60
_symmetry_cell_setting 'orthorhombic'
loop_
_space_group_symop_operation_xyz
x,y,z
1/2-x,1/2-y,1/2+z
1/2+x,1/2-y,-z
-x,y,1/2-z
-x,-y,-z
1/2+x,1/2+y,1/2-z
1/2-x,1/2+y,z
x,-y,1/2+z
loop_
_atom_site_type_symbol
_atom_site_label
_atom_site_fract_x
_atom_site_fract_y
_atom_site_fract_z
Si Si1 0.573523 0.789852 0.240687
Si Si2 0.777486 0.300120 0.688069
Si Si3 0.602748 0.529909 0.060174
Si Si4 0.241977 0.044330 0.997738
Si Si5 0.933337 0.469277 0.944838
Si Si6 0.411935 0.289464 0.240217
O O1 0.500000 0.781147 0.250000
O O2 0.598317 0.636442 0.209219
O O3 0.593346 0.884006 0.388738
O O4 0.594240 0.880887 0.087731
O O5 0.741920 0.165876 0.627196
O O6 0.779632 0.407348 0.541761
O O7 0.841213 0.241365 0.743490
O O8 0.750591 0.388500 0.831290
O O9 0.672318 0.498140 0.024511
O O10 0.571208 0.385244 0.110258
O O11 0.575990 0.614709 0.913400
O O12 0.936493 0.362905 0.796607
O O13 0.000000 0.500000 0.000000
#
# Coordination Sequence:
#
# PCOD9456108 Si02
#       6
#     8   8   8   8   8   8
#     4   9  19  38  60  84 115 150 188 235 284 338
#     4  11  23  38  60  87 118 156 197 241 292 347
#     4  10  21  39  59  83 116 150 192 237 284 341
#     4  11  22  40  61  86 118 155 197 243 291 348
#     4   9  19  37  59  86 116 147 188 235 284 339
#     4  10  22  38  59  86 115 152 192 235 288 343
#
# _framework density 26.631481999999998
#
# number of rings (size 3 to 8) (size 9 to 14) (size 15 to 20)
#    0.000    2.000    0.000    4.000    0.000    5.333 
#    0.000   11.667    0.000    0.000    0.000    0.000 
#    0.000    0.000    0.000    0.000    0.000    0.000 
#
# Total GULP energy -268917.237213 kJ/mol
# GULP energy per Si atom -5602.442442 kJ/mol
# Density = 2.657087 g / cm^3
# Si number density = 26.631482 Si / 1000 Ang^3
#
#
#
# Elastic Constant Matrix: (Units=GPa)
#
#
# Indices 1 2 3 4 5 6 
#
# 1 90.5523 19.7320 24.7012 0.0000 0.0000 0.0000
# 2 19.7320 161.8430 28.0196 0.0000 0.0000 0.0000
# 3 24.7012 28.0196 52.4138 0.0000 0.0000 0.0000
# 4 0.0000 0.0000 0.0000 63.8748 0.0000 0.0000
# 5 0.0000 0.0000 0.0000 0.0000 28.2078 0.0000
# 6 0.0000 0.0000 0.0000 0.0000 0.0000 141.3675
#
#
#
# Elastic Compliance Matrix: (Units=1/GPa)
#
#
# Indices 1 2 3 4 5 6 
#
# 1 0.012719 -0.000565 -0.005692 0.000000 0.000000 0.000000
# 2 -0.000565 0.006834 -0.003387 0.000000 0.000000 0.000000
# 3 -0.005692 -0.003387 0.023572 0.000000 0.000000 0.000000
# 4 0.000000 0.000000 0.000000 0.015656 0.000000 0.000000
# 5 0.000000 0.000000 0.000000 0.000000 0.035451 0.000000
# 6 0.000000 0.000000 0.000000 0.000000 0.000000 0.007074
#
#
# Mechanical properties :
#
#
# Convention : Reuss Voigt Hill
#
# Bulk Modulus (GPa) = 41.95199 49.96831 45.96015
# Shear Modulus (GPa) = 38.89832 62.18043 50.53937
#
# Velocity S-wave (km/s) = 3.82594 4.83727 4.36102
# Velocity P-wave (km/s) = 5.94173 7.07124 6.53095
#
# Compressibility (1/GPa) = 0.02383677
#
# Stress axis : x y z
#
# Youngs Moduli (GPa) = 78.62115 146.32433 42.42305
#
# Poissons Ratio (x) = 0.08271 0.24147
# Poissons Ratio (y) = 0.04444 0.14369
# Poissons Ratio (z) = 0.44751 0.49560
#
# Static dielectric constant tensor:
#      x y z
#    x 2.026460 0.000000 0.000000 
#    y 0.000000 2.061770 0.000000 
#    z 0.000000 0.000000 2.149420 
# 
# From -- ./inp_files/8408.got.cif
#   From: 2010.05.17/outbox.cif.g08.bks.cpg/sg60_5_cif.got.tgz:8408.got - 2010.06.03 14:59:27.
