data_PCOD9456944
_publ_section_title
;
Structure prediction by ZEFSAII (Michael W. Deem and Ramdas Pophale) SiO2 
 PCOD9456944
Probable space group: P B C N
;
_chemical_formula_sum "Si O2"
_cell_formula_units_Z 48
_cell_length_a 14.479434
_cell_length_b 8.096316
_cell_length_c 16.491439
_cell_angle_alpha 90.000000
_cell_angle_beta 90.000000
_cell_angle_gamma 90.000000
_cell_volume 1933.292601
_symmetry_space_group_name_H-M "P B C N"
_symmetry_group_IT_number 60
_symmetry_cell_setting 'orthorhombic'
loop_
_space_group_symop_operation_xyz
x,y,z
1/2-x,1/2-y,1/2+z
1/2+x,1/2-y,-z
-x,y,1/2-z
-x,-y,-z
1/2+x,1/2+y,1/2-z
1/2-x,1/2+y,z
x,-y,1/2+z
loop_
_atom_site_type_symbol
_atom_site_label
_atom_site_fract_x
_atom_site_fract_y
_atom_site_fract_z
Si Si1 0.940234 0.677531 0.404553
Si Si2 0.941527 0.660624 0.594585
Si Si3 0.712771 0.377857 0.336224
Si Si4 0.729848 0.006449 0.165765
Si Si5 0.872750 0.185861 0.594580
Si Si6 0.877594 0.188546 0.407501
O O1 0.913387 0.682715 0.499979
O O2 0.854892 0.719525 0.346596
O O3 0.994240 0.504169 0.396347
O O4 0.019929 0.811223 0.384403
O O5 0.851482 0.626186 0.647398
O O6 0.015153 0.801230 0.617024
O O7 0.722647 0.470667 0.251207
O O8 0.813584 0.315579 0.359675
O O9 0.667486 0.510093 0.396730
O O10 0.813607 0.979002 0.102947
O O11 0.680277 0.179533 0.149407
O O12 0.871897 0.240986 0.501324
#
# Coordination Sequence:
#
# PCOD9456944 Si02
#       6
#     8   8   8   8   8   8
#     4   9  20  40  66  96 127 167 217 266 320 389
#     4   9  20  41  67  91 125 172 218 264 319 387
#     4  12  24  39  62  97 135 167 213 273 335 389
#     4  11  23  40  62  93 132 170 211 267 332 392
#     4  10  22  41  65  91 126 173 217 259 316 388
#     4  11  23  40  66  95 127 172 220 268 318 388
#
# _framework density 24.828111
#
# number of rings (size 3 to 8) (size 9 to 14) (size 15 to 20)
#    0.000    1.667    0.000    5.000    0.000    5.333 
#    0.000    5.000    0.000    0.000    0.000    0.000 
#    0.000    0.000    0.000    0.000    0.000    0.000 
#
# Total GULP energy -268583.188208 kJ/mol
# GULP energy per Si atom -5595.483088 kJ/mol
# Density = 2.477160 g / cm^3
# Si number density = 24.828111 Si / 1000 Ang^3
#
#
#
# Elastic Constant Matrix: (Units=GPa)
#
#
# Indices 1 2 3 4 5 6 
#
# 1 125.4436 15.6268 41.0601 0.0000 0.0000 0.0000
# 2 15.6268 84.8243 14.3677 0.0000 0.0000 0.0000
# 3 41.0601 14.3677 75.4378 0.0000 0.0000 0.0000
# 4 0.0000 0.0000 0.0000 32.8538 0.0000 0.0000
# 5 0.0000 0.0000 0.0000 0.0000 -65.4494 0.0000
# 6 0.0000 0.0000 0.0000 0.0000 0.0000 45.0122
#
#
#
# Elastic Compliance Matrix: (Units=1/GPa)
#
#
# Indices 1 2 3 4 5 6 
#
# 1 0.009770 -0.000929 -0.005141 0.000000 0.000000 0.000000
# 2 -0.000929 0.012270 -0.001831 0.000000 0.000000 0.000000
# 3 -0.005141 -0.001831 0.016403 0.000000 0.000000 0.000000
# 4 0.000000 0.000000 0.000000 0.030438 0.000000 0.000000
# 5 0.000000 0.000000 0.000000 0.000000 -0.015279 0.000000
# 6 0.000000 0.000000 0.000000 0.000000 0.000000 0.022216
#
#
# Mechanical properties :
#
#
# Convention : Reuss Voigt Hill
#
# Bulk Modulus (GPa) = 44.16783 47.53498 45.85141
# Shear Modulus (GPa) = 50.41952 16.79341 33.60647
#
# Velocity S-wave (km/s) = 4.51127 2.60357 3.68307
# Velocity P-wave (km/s) = 6.70548 5.31275 6.04933
#
# Compressibility (1/GPa) = 0.02264091
#
# Stress axis : x y z
#
# Youngs Moduli (GPa) = 102.35257 81.49676 60.96510
#
# Poissons Ratio (x) = 0.07572 0.31341
# Poissons Ratio (y) = 0.09510 0.11164
# Poissons Ratio (z) = 0.52618 0.14924
#
# Static dielectric constant tensor:
#      x y z
#    x 1.947820 0.000000 0.000000 
#    y 0.000000 2.091560 0.000000 
#    z 0.000000 0.000000 1.911330 
# 
# From -- ./inp_files/20475.got.cif
#   From: 2010.05.17/outbox.cif.g08.bks.cpg/sg60_11_cif.got.tgz:20475.got - 2010.06.03 14:59:27.
