data_PCOD9456283
_publ_section_title
;
Structure prediction by ZEFSAII (Michael W. Deem and Ramdas Pophale) SiO2 
 PCOD9456283
Probable space group: P B C N
;
_chemical_formula_sum "Si O2"
_cell_formula_units_Z 48
_cell_length_a 12.766237
_cell_length_b 17.115134
_cell_length_c 9.384577
_cell_angle_alpha 90.000000
_cell_angle_beta 90.000000
_cell_angle_gamma 90.000000
_cell_volume 2050.491194
_symmetry_space_group_name_H-M "P B C N"
_symmetry_group_IT_number 60
_symmetry_cell_setting 'orthorhombic'
loop_
_space_group_symop_operation_xyz
x,y,z
1/2-x,1/2-y,1/2+z
1/2+x,1/2-y,-z
-x,y,1/2-z
-x,-y,-z
1/2+x,1/2+y,1/2-z
1/2-x,1/2+y,z
x,-y,1/2+z
loop_
_atom_site_type_symbol
_atom_site_label
_atom_site_fract_x
_atom_site_fract_y
_atom_site_fract_z
Si Si1 0.736785 0.405564 0.556377
Si Si2 0.251223 0.680383 0.715775
Si Si3 0.952244 0.191453 0.607905
Si Si4 0.980184 0.632460 0.087896
Si Si5 0.663981 0.656927 0.347583
Si Si6 0.177112 0.423737 0.453295
O O1 0.694435 0.355654 0.423833
O O2 0.857391 0.377201 0.564269
O O3 0.670934 0.387901 0.698296
O O4 0.756176 0.497205 0.532605
O O5 0.336498 0.711266 0.828371
O O6 0.173270 0.750827 0.682359
O O7 0.193890 0.609932 0.796069
O O8 0.005964 0.274795 0.576651
O O9 0.929460 0.145407 0.461943
O O10 0.000000 0.152076 0.750000
O O11 0.000000 0.608044 0.250000
O O12 0.054803 0.580914 0.988588
O O13 0.769892 0.633017 0.430346
#
# Coordination Sequence:
#
# PCOD9456283 Si02
#       6
#     8   8   8   8   8   8
#     4  12  22  39  62  95 133 174 216 272 332 403
#     4  11  22  40  63  90 128 177 228 269 326 407
#     4  10  21  40  65  93 125 171 225 280 327 383
#     4  11  20  37  61  92 141 172 205 257 331 412
#     4  11  20  41  63  86 125 179 224 265 326 399
#     4  11  24  38  62  95 134 175 214 267 342 406
#
# _framework density 23.409025
#
# number of rings (size 3 to 8) (size 9 to 14) (size 15 to 20)
#    0.000    1.000    5.000    3.500    0.000    0.667 
#    0.000    2.500    0.000   16.000    0.000    0.000 
#    0.000    0.000    0.000    0.000    0.000    0.000 
#
# Total GULP energy -268069.681858 kJ/mol
# GULP energy per Si atom -5584.785039 kJ/mol
# Density = 2.335575 g / cm^3
# Si number density = 23.409025 Si / 1000 Ang^3
#
#
#
# Elastic Constant Matrix: (Units=GPa)
#
#
# Indices 1 2 3 4 5 6 
#
# 1 31.4793 0.2087 12.6939 0.0000 0.0000 0.0000
# 2 0.2087 74.2117 16.0181 0.0000 0.0000 0.0000
# 3 12.6939 16.0181 112.6791 0.0000 0.0000 0.0000
# 4 0.0000 0.0000 0.0000 13.2185 0.0000 0.0000
# 5 0.0000 0.0000 0.0000 0.0000 38.8817 0.0000
# 6 0.0000 0.0000 0.0000 0.0000 0.0000 18.7936
#
#
#
# Elastic Compliance Matrix: (Units=1/GPa)
#
#
# Indices 1 2 3 4 5 6 
#
# 1 0.033318 0.000739 -0.003859 0.000000 0.000000 0.000000
# 2 0.000739 0.013918 -0.002062 0.000000 0.000000 0.000000
# 3 -0.003859 -0.002062 0.009603 0.000000 0.000000 0.000000
# 4 0.000000 0.000000 0.000000 0.075651 0.000000 0.000000
# 5 0.000000 0.000000 0.000000 0.000000 0.025719 0.000000
# 6 0.000000 0.000000 0.000000 0.000000 0.000000 0.053210
#
#
# Mechanical properties :
#
#
# Convention : Reuss Voigt Hill
#
# Bulk Modulus (GPa) = 21.51647 30.69017 26.10332
# Shear Modulus (GPa) = 21.07279 26.80873 23.94076
#
# Velocity S-wave (km/s) = 3.00359 3.38780 3.20146
# Velocity P-wave (km/s) = 4.60871 5.33308 4.98407
#
# Compressibility (1/GPa) = 0.04647603
#
# Stress axis : x y z
#
# Youngs Moduli (GPa) = 30.01390 71.84988 104.13914
#
# Poissons Ratio (x) = -0.05311 0.40182
# Poissons Ratio (y) = -0.02218 0.21471
# Poissons Ratio (z) = 0.11581 0.14814
#
# Static dielectric constant tensor:
#      x y z
#    x 1.982970 0.000000 0.000000 
#    y 0.000000 1.882550 0.000000 
#    z 0.000000 0.000000 1.923610 
# 
# From -- ./inp_files/5904.got.cif
#   From: 2010.05.17/outbox.cif.g08.bks.cpg/sg60_3_cif.got.tgz:5904.got - 2010.06.03 14:59:27.
