data_PCOD9456690
_publ_section_title
;
Structure prediction by ZEFSAII (Michael W. Deem and Ramdas Pophale) SiO2 
 PCOD9456690
Probable space group: P B C N
;
_chemical_formula_sum "Si O2"
_cell_formula_units_Z 60
_cell_length_a 21.148404
_cell_length_b 27.389074
_cell_length_c 5.228809
_cell_angle_alpha 90.000000
_cell_angle_beta 90.000000
_cell_angle_gamma 90.000000
_cell_volume 3028.710238
_symmetry_space_group_name_H-M "P B C N"
_symmetry_group_IT_number 60
_symmetry_cell_setting 'orthorhombic'
loop_
_space_group_symop_operation_xyz
x,y,z
1/2-x,1/2-y,1/2+z
1/2+x,1/2-y,-z
-x,y,1/2-z
-x,-y,-z
1/2+x,1/2+y,1/2-z
1/2-x,1/2+y,z
x,-y,1/2+z
loop_
_atom_site_type_symbol
_atom_site_label
_atom_site_fract_x
_atom_site_fract_y
_atom_site_fract_z
Si Si1 0.713589 0.234628 0.282922
Si Si2 0.073847 0.670851 0.686592
Si Si3 0.706199 0.968716 0.822528
Si Si4 0.929589 0.868215 0.872042
Si Si5 0.098372 0.772467 0.897056
Si Si6 0.142487 0.969073 0.684037
Si Si7 0.500000 0.310112 0.250000
Si Si8 0.856472 0.636399 0.306741
O O1 0.763656 0.245666 0.509565
O O2 0.650184 0.259984 0.390398
O O3 0.698103 0.177202 0.269312
O O4 0.095362 0.727574 0.701352
O O5 0.093184 0.648090 0.416328
O O6 0.000000 0.667200 0.750000
O O7 0.112473 0.645482 0.916787
O O8 0.782030 0.960335 0.820758
O O9 0.671069 0.917600 0.790048
O O10 0.690773 0.004903 0.589120
O O11 0.892148 0.825053 0.729062
O O12 0.893835 0.918804 0.862704
O O13 0.000000 0.873486 0.750000
O O14 0.945047 0.845445 0.148097
O O15 0.030180 0.776811 0.033340
O O16 0.126752 0.006797 0.456541
#
# Coordination Sequence:
#
# PCOD9456690 Si02
#       8
#     8   8   8   8   8   8   4   8
#     4  11  25  40  59  96 132 168 207 260 321 375
#     4  11  23  40  66  95 133 166 211 253 306 383
#     4  10  22  44  69  91 120 164 214 259 314 380
#     4  10  23  40  59  91 119 169 213 264 314 373
#     4  10  24  38  62  88 130 175 212 250 306 386
#     4  10  24  42  63  90 118 161 213 268 325 369
#     4  10  22  38  62  88 122 174 222 244 322 360
#     4  11  24  41  65  97 127 168 213 257 321 374
#
# _framework density 19.810414000000002
#
# number of rings (size 3 to 8) (size 9 to 14) (size 15 to 20)
#    0.000    1.600    0.000    4.000   14.933    0.533 
#    2.400    0.000    0.000    8.000    0.000    0.000 
#    0.000    0.000    0.000    0.000    0.000    0.000 
#
# Total GULP energy -335439.768386 kJ/mol
# GULP energy per Si atom -5590.662806 kJ/mol
# Density = 1.976533 g / cm^3
# Si number density = 19.810414 Si / 1000 Ang^3
#
#
#
# Elastic Constant Matrix: (Units=GPa)
#
#
# Indices 1 2 3 4 5 6 
#
# 1 54.9093 51.1776 12.5721 0.0000 0.0000 0.0000
# 2 51.1776 133.3161 22.6407 0.0000 0.0000 0.0000
# 3 12.5721 22.6407 77.1076 0.0000 0.0000 0.0000
# 4 0.0000 0.0000 0.0000 21.6023 0.0000 0.0000
# 5 0.0000 0.0000 0.0000 0.0000 30.6529 0.0000
# 6 0.0000 0.0000 0.0000 0.0000 0.0000 30.2746
#
#
#
# Elastic Compliance Matrix: (Units=1/GPa)
#
#
# Indices 1 2 3 4 5 6 
#
# 1 0.028525 -0.010693 -0.001511 0.000000 0.000000 0.000000
# 2 -0.010693 0.011903 -0.001752 0.000000 0.000000 0.000000
# 3 -0.001511 -0.001752 0.013730 0.000000 0.000000 0.000000
# 4 0.000000 0.000000 0.000000 0.046291 0.000000 0.000000
# 5 0.000000 0.000000 0.000000 0.000000 0.032623 0.000000
# 6 0.000000 0.000000 0.000000 0.000000 0.000000 0.033031
#
#
# Mechanical properties :
#
#
# Convention : Reuss Voigt Hill
#
# Bulk Modulus (GPa) = 38.10177 48.67931 43.39054
# Shear Modulus (GPa) = 24.65922 28.43544 26.54733
#
# Velocity S-wave (km/s) = 3.53194 3.79275 3.66467
# Velocity P-wave (km/s) = 5.99231 6.61860 6.31323
#
# Compressibility (1/GPa) = 0.02624550
#
# Stress axis : x y z
#
# Youngs Moduli (GPa) = 35.05758 84.00929 72.83547
#
# Poissons Ratio (x) = 0.89835 0.11005
# Poissons Ratio (y) = 0.37489 0.12758
# Poissons Ratio (z) = 0.05297 0.14715
#
# Static dielectric constant tensor:
#      x y z
#    x 1.712170 0.000000 0.000000 
#    y 0.000000 1.646460 0.000000 
#    z 0.000000 0.000000 1.727790 
# 
# From -- ./inp_files/2180.got.cif
#   From: 2010.05.17/outbox.cif.g08.bks.cpg/sg60_2_cif.got.tgz:2180.got - 2010.06.03 14:59:27.
