data_PCOD9456430
_publ_section_title
;
Structure prediction by ZEFSAII (Michael W. Deem and Ramdas Pophale) SiO2 
 PCOD9456430
Probable space group: P B C N
;
_chemical_formula_sum "Si O2"
_cell_formula_units_Z 56
_cell_length_a 19.552580
_cell_length_b 14.421077
_cell_length_c 8.041519
_cell_angle_alpha 90.000000
_cell_angle_beta 90.000000
_cell_angle_gamma 90.000000
_cell_volume 2267.461176
_symmetry_space_group_name_H-M "P B C N"
_symmetry_group_IT_number 60
_symmetry_cell_setting 'orthorhombic'
loop_
_space_group_symop_operation_xyz
x,y,z
1/2-x,1/2-y,1/2+z
1/2+x,1/2-y,-z
-x,y,1/2-z
-x,-y,-z
1/2+x,1/2+y,1/2-z
1/2-x,1/2+y,z
x,-y,1/2+z
loop_
_atom_site_type_symbol
_atom_site_label
_atom_site_fract_x
_atom_site_fract_y
_atom_site_fract_z
Si Si1 0.831036 0.924154 0.919837
Si Si2 0.839380 0.720530 0.529240
Si Si3 0.933541 0.804819 0.073751
Si Si4 0.877395 0.632823 0.199305
Si Si5 0.233236 0.487736 0.296948
Si Si6 0.288199 0.818121 0.104946
Si Si7 0.417712 0.611475 0.570919
O O1 0.786852 0.932000 0.753015
O O2 0.885558 0.009461 0.938565
O O3 0.878061 0.833579 0.936458
O O4 0.772776 0.929582 0.062673
O O5 0.877318 0.653432 0.396282
O O6 0.825782 0.688223 0.716233
O O7 0.772880 0.747696 0.421321
O O8 0.880432 0.815538 0.544393
O O9 0.940983 0.694419 0.118435
O O10 0.904601 0.851135 0.242408
O O11 0.002574 0.863706 0.041888
O O12 0.844095 0.528478 0.184856
O O13 0.824226 0.681077 0.073262
O O14 0.237706 0.423597 0.131528
#
# Coordination Sequence:
#
# PCOD9456430 Si02
#       7
#     8   8   8   8   8   8   8
#     4  12  21  38  60  95 127 167 213 265 328 396
#     4  11  22  39  64  94 130 168 214 269 338 399
#     4  10  23  41  63  90 129 180 219 259 328 400
#     4  11  24  40  62  92 130 173 219 272 328 404
#     4  12  23  39  61  92 134 164 211 273 336 394
#     4  12  23  39  62  96 134 168 213 278 344 394
#     4  10  21  42  62  90 131 174 218 264 319 405
#
# _framework density 24.697225
#
# number of rings (size 3 to 8) (size 9 to 14) (size 15 to 20)
#    0.000    0.857    5.714    2.143    2.000    0.000 
#    0.000    2.143    0.000    0.857    3.714    0.000 
#    0.000    0.000    0.000    0.000    0.000    0.000 
#
# Total GULP energy -311791.394412 kJ/mol
# GULP energy per Si atom -5567.703472 kJ/mol
# Density = 2.464101 g / cm^3
# Si number density = 24.697225 Si / 1000 Ang^3
#
#
#
# Elastic Constant Matrix: (Units=GPa)
#
#
# Indices 1 2 3 4 5 6 
#
# 1 58.6301 33.3489 23.6123 0.0000 0.0000 0.0000
# 2 33.3489 97.6606 14.6638 0.0000 0.0000 0.0000
# 3 23.6123 14.6638 106.3453 0.0000 0.0000 0.0000
# 4 0.0000 0.0000 0.0000 46.2611 0.0000 0.0000
# 5 0.0000 0.0000 0.0000 0.0000 27.2953 0.0000
# 6 0.0000 0.0000 0.0000 0.0000 0.0000 25.5581
#
#
#
# Elastic Compliance Matrix: (Units=1/GPa)
#
#
# Indices 1 2 3 4 5 6 
#
# 1 0.022769 -0.007164 -0.004068 0.000000 0.000000 0.000000
# 2 -0.007164 0.012710 -0.000162 0.000000 0.000000 0.000000
# 3 -0.004068 -0.000162 0.010329 0.000000 0.000000 0.000000
# 4 0.000000 0.000000 0.000000 0.021616 0.000000 0.000000
# 5 0.000000 0.000000 0.000000 0.000000 0.036636 0.000000
# 6 0.000000 0.000000 0.000000 0.000000 0.000000 0.039127
#
#
# Mechanical properties :
#
#
# Convention : Reuss Voigt Hill
#
# Bulk Modulus (GPa) = 43.43943 45.09844 44.26894
# Shear Modulus (GPa) = 28.79362 32.55696 30.67529
#
# Velocity S-wave (km/s) = 3.41818 3.63470 3.52810
# Velocity P-wave (km/s) = 5.76243 5.99291 5.87880
#
# Compressibility (1/GPa) = 0.02302056
#
# Stress axis : x y z
#
# Youngs Moduli (GPa) = 43.91845 78.67600 96.81652
#
# Poissons Ratio (x) = 0.56367 0.39382
# Poissons Ratio (y) = 0.31465 0.01567
# Poissons Ratio (z) = 0.17865 0.01273
#
# Static dielectric constant tensor:
#      x y z
#    x 2.079220 0.000000 0.000000 
#    y 0.000000 2.160230 0.000000 
#    z 0.000000 0.000000 1.995980 
# 
# From -- ./inp_files/7418.got.cif
#   From: 2010.05.17/outbox.cif.g08.bks.cpg/sg60_4_cif.got.tgz:7418.got - 2010.06.03 14:59:27.
