data_PCOD9456250
_publ_section_title
;
Structure prediction by ZEFSAII (Michael W. Deem and Ramdas Pophale) SiO2 
 PCOD9456250
Probable space group: P B C N
;
_chemical_formula_sum "Si O2"
_cell_formula_units_Z 48
_cell_length_a 16.614623
_cell_length_b 10.051159
_cell_length_c 14.710457
_cell_angle_alpha 90.000000
_cell_angle_beta 90.000000
_cell_angle_gamma 90.000000
_cell_volume 2456.590677
_symmetry_space_group_name_H-M "P B C N"
_symmetry_group_IT_number 60
_symmetry_cell_setting 'orthorhombic'
loop_
_space_group_symop_operation_xyz
x,y,z
1/2-x,1/2-y,1/2+z
1/2+x,1/2-y,-z
-x,y,1/2-z
-x,-y,-z
1/2+x,1/2+y,1/2-z
1/2-x,1/2+y,z
x,-y,1/2+z
loop_
_atom_site_type_symbol
_atom_site_label
_atom_site_fract_x
_atom_site_fract_y
_atom_site_fract_z
Si Si1 0.581173 0.917274 0.491778
Si Si2 0.337134 0.379433 0.335029
Si Si3 0.791593 0.553130 0.367145
Si Si4 0.011936 0.854333 0.459319
Si Si5 0.837481 0.156314 0.879941
Si Si6 0.789115 0.592177 0.150357
O O1 0.633078 0.976217 0.409795
O O2 0.552783 0.763594 0.481873
O O3 0.637004 0.937121 0.582070
O O4 0.500000 0.000000 0.500000
O O5 0.424372 0.366719 0.378157
O O6 0.349131 0.370145 0.227214
O O7 0.291128 0.509535 0.370243
O O8 0.281783 0.251260 0.357439
O O9 0.714681 0.472723 0.404963
O O10 0.787904 0.707806 0.393935
O O11 0.801950 0.554882 0.257117
O O12 0.922853 0.817693 0.425935
O O13 0.000000 0.000000 0.500000
#
# Coordination Sequence:
#
# PCOD9456250 Si02
#       6
#     8   8   8   8   8   8
#     4  11  23  40  61  89 121 161 205 248 308 361
#     4   9  20  40  62  87 117 161 201 246 303 360
#     4  10  22  39  64  89 119 159 203 251 303 364
#     4  11  24  38  59  91 123 159 201 253 307 362
#     4  10  21  40  63  85 120 160 203 247 303 366
#     4   9  21  38  62  89 119 157 202 248 300 364
#
# _framework density 19.539275
#
# number of rings (size 3 to 8) (size 9 to 14) (size 15 to 20)
#    0.000    2.000    1.667    0.500    4.667    3.333 
#    0.000    0.000    3.667    0.000    0.000    0.000 
#    0.000    0.000    0.000    0.000    0.000    0.000 
#
# Total GULP energy -267587.646002 kJ/mol
# GULP energy per Si atom -5574.742625 kJ/mol
# Density = 1.949480 g / cm^3
# Si number density = 19.539275 Si / 1000 Ang^3
#
#
#
# Elastic Constant Matrix: (Units=GPa)
#
#
# Indices 1 2 3 4 5 6 
#
# 1 61.0984 17.1769 1.9389 0.0000 0.0000 0.0000
# 2 17.1769 95.0213 17.8666 0.0000 0.0000 0.0000
# 3 1.9389 17.8666 37.5783 0.0000 0.0000 0.0000
# 4 0.0000 0.0000 0.0000 22.9568 0.0000 0.0000
# 5 0.0000 0.0000 0.0000 0.0000 30.0258 0.0000
# 6 0.0000 0.0000 0.0000 0.0000 0.0000 44.8789
#
#
#
# Elastic Compliance Matrix: (Units=1/GPa)
#
#
# Indices 1 2 3 4 5 6 
#
# 1 0.017258 -0.003242 0.000651 0.000000 0.000000 0.000000
# 2 -0.003242 0.012166 -0.005617 0.000000 0.000000 0.000000
# 3 0.000651 -0.005617 0.029248 0.000000 0.000000 0.000000
# 4 0.000000 0.000000 0.000000 0.043560 0.000000 0.000000
# 5 0.000000 0.000000 0.000000 0.000000 0.033305 0.000000
# 6 0.000000 0.000000 0.000000 0.000000 0.000000 0.022282
#
#
# Mechanical properties :
#
#
# Convention : Reuss Voigt Hill
#
# Bulk Modulus (GPa) = 23.66540 29.74032 26.70286
# Shear Modulus (GPa) = 26.55044 30.02002 28.28523
#
# Velocity S-wave (km/s) = 3.69022 3.92394 3.80887
# Velocity P-wave (km/s) = 5.50409 5.98194 5.74798
#
# Compressibility (1/GPa) = 0.04225579
#
# Stress axis : x y z
#
# Youngs Moduli (GPa) = 57.94465 82.19486 34.19016
#
# Poissons Ratio (x) = 0.26648 -0.02226
# Poissons Ratio (y) = 0.18786 0.19205
# Poissons Ratio (z) = -0.03772 0.46170
#
# Static dielectric constant tensor:
#      x y z
#    x 1.667860 0.000000 0.000000 
#    y 0.000000 1.709320 0.000000 
#    z 0.000000 0.000000 1.711430 
# 
# From -- ./inp_files/17343.got.cif
#   From: 2010.05.17/outbox.cif.g08.bks.cpg/sg60_9_cif.got.tgz:17343.got - 2010.06.03 14:59:27.
