data_PCOD9456802
_publ_section_title
;
Structure prediction by ZEFSAII (Michael W. Deem and Ramdas Pophale) SiO2 
 PCOD9456802
Probable space group: P B C N
;
_chemical_formula_sum "Si O2"
_cell_formula_units_Z 52
_cell_length_a 8.322122
_cell_length_b 16.395198
_cell_length_c 16.936133
_cell_angle_alpha 90.000000
_cell_angle_beta 90.000000
_cell_angle_gamma 90.000000
_cell_volume 2310.814051
_symmetry_space_group_name_H-M "P B C N"
_symmetry_group_IT_number 60
_symmetry_cell_setting 'orthorhombic'
loop_
_space_group_symop_operation_xyz
x,y,z
1/2-x,1/2-y,1/2+z
1/2+x,1/2-y,-z
-x,y,1/2-z
-x,-y,-z
1/2+x,1/2+y,1/2-z
1/2-x,1/2+y,z
x,-y,1/2+z
loop_
_atom_site_type_symbol
_atom_site_label
_atom_site_fract_x
_atom_site_fract_y
_atom_site_fract_z
Si Si1 0.628742 0.477975 0.906666
Si Si2 0.319546 0.395971 0.224086
Si Si3 0.308465 0.735826 0.239679
Si Si4 0.899189 0.385672 0.864764
Si Si5 0.063226 0.861725 0.991696
Si Si6 0.000000 0.476558 0.250000
Si Si7 0.836031 0.742333 0.085382
O O1 0.646419 0.520561 0.822881
O O2 0.785544 0.426903 0.929342
O O3 0.612249 0.558174 0.959505
O O4 0.494703 0.408215 0.912201
O O5 0.500000 0.372501 0.250000
O O6 0.246954 0.313314 0.185496
O O7 0.157639 0.423171 0.270017
O O8 0.500000 0.726527 0.250000
O O9 0.215042 0.660435 0.199501
O O10 0.237030 0.756711 0.326875
O O11 0.979243 0.462367 0.822603
O O12 0.026386 0.324368 0.899547
O O13 0.923371 0.817372 0.041835
O O14 0.198920 0.797379 0.969289
#
# Coordination Sequence:
#
# PCOD9456802 Si02
#       7
#     8   8   8   8   8   4   8
#     4  10  24  43  66  96 139 176 232 282 345 423
#     4  11  23  41  70 101 141 177 223 301 354 407
#     4  12  24  43  73 109 136 182 234 296 364 415
#     4  11  22  42  68  99 135 173 222 300 350 402
#     4  11  25  44  64  98 132 193 229 270 344 416
#     4  10  22  40  60 106 134 166 222 270 376 402
#     4  12  25  45  69  97 139 183 234 285 337 437
#
# _framework density 22.502891000000002
#
# number of rings (size 3 to 8) (size 9 to 14) (size 15 to 20)
#    0.000    0.923    2.308    4.615    2.154    4.308 
#    0.000    0.000    0.000    0.000    0.000    0.000 
#    0.000    0.000    0.000    0.000    0.000    0.000 
#
# Total GULP energy -289750.393495 kJ/mol
# GULP energy per Si atom -5572.122952 kJ/mol
# Density = 2.245167 g / cm^3
# Si number density = 22.502891 Si / 1000 Ang^3
#
#
#
# Elastic Constant Matrix: (Units=GPa)
#
#
# Indices 1 2 3 4 5 6 
#
# 1 141.4641 60.2774 37.3649 0.0000 0.0000 0.0000
# 2 60.2774 119.2996 37.8520 0.0000 0.0000 0.0000
# 3 37.3649 37.8520 36.7704 0.0000 0.0000 0.0000
# 4 0.0000 0.0000 0.0000 20.8780 0.0000 0.0000
# 5 0.0000 0.0000 0.0000 0.0000 22.8044 0.0000
# 6 0.0000 0.0000 0.0000 0.0000 0.0000 45.0670
#
#
#
# Elastic Compliance Matrix: (Units=1/GPa)
#
#
# Indices 1 2 3 4 5 6 
#
# 1 0.010249 -0.002783 -0.007550 0.000000 0.000000 0.000000
# 2 -0.002783 0.013204 -0.010764 0.000000 0.000000 0.000000
# 3 -0.007550 -0.010764 0.045948 0.000000 0.000000 0.000000
# 4 0.000000 0.000000 0.000000 0.047897 0.000000 0.000000
# 5 0.000000 0.000000 0.000000 0.000000 0.043851 0.000000
# 6 0.000000 0.000000 0.000000 0.000000 0.000000 0.022189
#
#
# Mechanical properties :
#
#
# Convention : Reuss Voigt Hill
#
# Bulk Modulus (GPa) = 36.75495 63.16918 49.96206
# Shear Modulus (GPa) = 21.31276 28.55254 24.93265
#
# Velocity S-wave (km/s) = 3.08086 3.56594 3.33224
# Velocity P-wave (km/s) = 5.38744 6.71469 6.08735
#
# Compressibility (1/GPa) = 0.02720722
#
# Stress axis : x y z
#
# Youngs Moduli (GPa) = 97.57208 75.73653 21.76356
#
# Poissons Ratio (x) = 0.21077 0.16431
# Poissons Ratio (y) = 0.27153 0.23427
# Poissons Ratio (z) = 0.73665 0.81524
#
# Static dielectric constant tensor:
#      x y z
#    x 1.947350 0.000000 0.000000 
#    y 0.000000 1.798000 0.000000 
#    z 0.000000 0.000000 1.989400 
# 
# From -- ./inp_files/22133.got.cif
#   From: 2010.05.17/outbox.cif.g08.bks.cpg/sg60_12_cif.got.tgz:22133.got - 2010.06.03 14:59:27.
