data_PCOD9456951
_publ_section_title
;
Structure prediction by ZEFSAII (Michael W. Deem and Ramdas Pophale) SiO2 
 PCOD9456951
Probable space group: P B C N
;
_chemical_formula_sum "Si O2"
_cell_formula_units_Z 32
_cell_length_a 5.179219
_cell_length_b 28.076893
_cell_length_c 8.739759
_cell_angle_alpha 90.000000
_cell_angle_beta 90.000000
_cell_angle_gamma 90.000000
_cell_volume 1270.904096
_symmetry_space_group_name_H-M "P B C N"
_symmetry_group_IT_number 60
_symmetry_cell_setting 'orthorhombic'
loop_
_space_group_symop_operation_xyz
x,y,z
1/2-x,1/2-y,1/2+z
1/2+x,1/2-y,-z
-x,y,1/2-z
-x,-y,-z
1/2+x,1/2+y,1/2-z
1/2-x,1/2+y,z
x,-y,1/2+z
loop_
_atom_site_type_symbol
_atom_site_label
_atom_site_fract_x
_atom_site_fract_y
_atom_site_fract_z
Si Si1 0.745345 0.575170 0.356798
Si Si2 0.549714 0.128496 0.928985
Si Si3 0.247197 0.030762 0.644508
Si Si4 0.919291 0.726853 0.071396
O O1 0.500000 0.581261 0.250000
O O2 0.735811 0.521788 0.428892
O O3 0.000000 0.578149 0.250000
O O4 0.783899 0.613904 0.487621
O O5 0.500000 0.138176 0.750000
O O6 0.717378 0.080036 0.944288
O O7 0.655700 0.173660 0.018249
O O8 0.500000 0.029086 0.750000
O O9 0.000000 0.034843 0.750000
O O10 0.000000 0.729252 0.250000
O O11 0.171600 0.741294 0.971884
#
# Coordination Sequence:
#
# PCOD9456951 Si02
#       4
#     8   8   8   8
#     4  10  22  41  65  97 141 189 238 287 340 409
#     4  11  24  43  70 103 139 184 236 292 358 427
#     4   9  20  38  62  97 140 186 234 285 340 410
#     4  12  28  52  78 107 141 183 237 304 370 436
#
# _framework density 25.178926000000001
#
# number of rings (size 3 to 8) (size 9 to 14) (size 15 to 20)
#    0.000    1.500    0.000    3.750    0.000   13.000 
#    0.000   16.250    0.000    0.000    0.000    0.000 
#    0.000    0.000    0.000    0.000    0.000    0.000 
#
# Total GULP energy -179391.118333 kJ/mol
# GULP energy per Si atom -5605.972448 kJ/mol
# Density = 2.512162 g / cm^3
# Si number density = 25.178926 Si / 1000 Ang^3
#
#
#
# Elastic Constant Matrix: (Units=GPa)
#
#
# Indices 1 2 3 4 5 6 
#
# 1 147.8370 13.6612 48.7074 0.0000 0.0000 0.0000
# 2 13.6612 123.8853 39.4483 0.0000 0.0000 0.0000
# 3 48.7074 39.4483 159.8562 0.0000 0.0000 0.0000
# 4 0.0000 0.0000 0.0000 35.7184 0.0000 0.0000
# 5 0.0000 0.0000 0.0000 0.0000 35.0983 0.0000
# 6 0.0000 0.0000 0.0000 0.0000 0.0000 26.3631
#
#
#
# Elastic Compliance Matrix: (Units=1/GPa)
#
#
# Indices 1 2 3 4 5 6 
#
# 1 0.007520 -0.000108 -0.002265 0.000000 0.000000 0.000000
# 2 -0.000108 0.008762 -0.002129 0.000000 0.000000 0.000000
# 3 -0.002265 -0.002129 0.007471 0.000000 0.000000 0.000000
# 4 0.000000 0.000000 0.000000 0.027997 0.000000 0.000000
# 5 0.000000 0.000000 0.000000 0.000000 0.028491 0.000000
# 6 0.000000 0.000000 0.000000 0.000000 0.000000 0.037932
#
#
# Mechanical properties :
#
#
# Convention : Reuss Voigt Hill
#
# Bulk Modulus (GPa) = 67.80061 70.57914 69.18987
# Shear Modulus (GPa) = 37.85181 41.42006 39.63593
#
# Velocity S-wave (km/s) = 3.88146 4.06030 3.97189
# Velocity P-wave (km/s) = 6.86103 7.07624 6.96947
#
# Compressibility (1/GPa) = 0.01474913
#
# Stress axis : x y z
#
# Youngs Moduli (GPa) = 132.97253 114.13024 133.84877
#
# Poissons Ratio (x) = 0.01234 0.30313
# Poissons Ratio (y) = 0.01438 0.28500
# Poissons Ratio (z) = 0.30115 0.24301
#
# Static dielectric constant tensor:
#      x y z
#    x 2.019450 0.000000 0.000000 
#    y 0.000000 1.998390 0.000000 
#    z 0.000000 0.000000 2.006890 
# 
# From -- ./inp_files/3124.got.cif
#   From: 2010.05.17/outbox.cif.g08.bks.cpg/sg60_2_cif.got.tgz:3124.got - 2010.06.03 14:59:27.
