data_PCOD9456723
_publ_section_title
;
Structure prediction by ZEFSAII (Michael W. Deem and Ramdas Pophale) SiO2 
 PCOD9456723
Probable space group: P B C N
;
_chemical_formula_sum "Si O2"
_cell_formula_units_Z 48
_cell_length_a 10.828412
_cell_length_b 8.568517
_cell_length_c 22.414508
_cell_angle_alpha 90.000000
_cell_angle_beta 90.000000
_cell_angle_gamma 90.000000
_cell_volume 2079.694986
_symmetry_space_group_name_H-M "P B C N"
_symmetry_group_IT_number 60
_symmetry_cell_setting 'orthorhombic'
loop_
_space_group_symop_operation_xyz
x,y,z
1/2-x,1/2-y,1/2+z
1/2+x,1/2-y,-z
-x,y,1/2-z
-x,-y,-z
1/2+x,1/2+y,1/2-z
1/2-x,1/2+y,z
x,-y,1/2+z
loop_
_atom_site_type_symbol
_atom_site_label
_atom_site_fract_x
_atom_site_fract_y
_atom_site_fract_z
Si Si1 0.882400 0.382369 0.998039
Si Si2 0.783331 0.185284 0.265752
Si Si3 0.635477 0.571372 0.683529
Si Si4 0.225495 0.110254 0.434280
Si Si5 0.420819 0.945222 0.191266
Si Si6 0.488290 0.191673 0.387083
O O1 0.127753 0.760190 0.955273
O O2 0.900864 0.301602 0.933845
O O3 0.764781 0.491043 0.012852
O O4 0.000000 0.500000 0.000000
O O5 0.726857 0.303581 0.215852
O O6 0.675417 0.081745 0.293387
O O7 0.848142 0.285971 0.317022
O O8 0.871855 0.066490 0.231243
O O9 0.684940 0.485149 0.624102
O O10 0.518225 0.674041 0.662987
O O11 0.354219 0.197132 0.418123
O O12 0.500000 0.917830 0.250000
O O13 0.505417 0.018924 0.141160
#
# Coordination Sequence:
#
# PCOD9456723 Si02
#       6
#     8   8   8   8   8   8
#     4  10  24  40  66 101 135 175 226 296 337 406
#     4  10  22  38  68  99 134 174 226 290 340 408
#     4  11  18  39  68  97 126 182 224 278 338 418
#     4  11  20  42  68  96 137 176 237 279 342 412
#     4  11  22  43  65  96 137 177 228 282 340 414
#     4  11  22  39  69  94 138 182 227 276 347 415
#
# _framework density 23.080307000000001
#
# number of rings (size 3 to 8) (size 9 to 14) (size 15 to 20)
#    0.000    1.333    5.000    1.000    0.000    3.333 
#    6.000    0.000    0.000    0.000    0.000    0.000 
#    0.000    0.000    0.000    0.000    0.000    0.000 
#
# Total GULP energy -267922.255304 kJ/mol
# GULP energy per Si atom -5581.713652 kJ/mol
# Density = 2.302778 g / cm^3
# Si number density = 23.080307 Si / 1000 Ang^3
#
#
#
# Elastic Constant Matrix: (Units=GPa)
#
#
# Indices 1 2 3 4 5 6 
#
# 1 60.3019 39.1370 14.8877 0.0000 0.0000 0.0000
# 2 39.1370 142.2795 26.0521 0.0000 0.0000 0.0000
# 3 14.8877 26.0521 42.9107 0.0000 0.0000 0.0000
# 4 0.0000 0.0000 0.0000 26.2112 0.0000 0.0000
# 5 0.0000 0.0000 0.0000 0.0000 35.6950 0.0000
# 6 0.0000 0.0000 0.0000 0.0000 0.0000 34.0936
#
#
#
# Elastic Compliance Matrix: (Units=1/GPa)
#
#
# Indices 1 2 3 4 5 6 
#
# 1 0.020845 -0.004961 -0.004220 0.000000 0.000000 0.000000
# 2 -0.004961 0.009088 -0.003796 0.000000 0.000000 0.000000
# 3 -0.004220 -0.003796 0.027073 0.000000 0.000000 0.000000
# 4 0.000000 0.000000 0.000000 0.038152 0.000000 0.000000
# 5 0.000000 0.000000 0.000000 0.000000 0.028015 0.000000
# 6 0.000000 0.000000 0.000000 0.000000 0.000000 0.029331
#
#
# Mechanical properties :
#
#
# Convention : Reuss Voigt Hill
#
# Bulk Modulus (GPa) = 32.20488 45.07174 38.63831
# Shear Modulus (GPa) = 26.48166 30.22764 28.35465
#
# Velocity S-wave (km/s) = 3.39096 3.62287 3.50883
# Velocity P-wave (km/s) = 5.41435 6.08858 5.76134
#
# Compressibility (1/GPa) = 0.03105119
#
# Stress axis : x y z
#
# Youngs Moduli (GPa) = 47.97322 110.03244 36.93679
#
# Poissons Ratio (x) = 0.54589 0.15588
# Poissons Ratio (y) = 0.23800 0.14023
# Poissons Ratio (z) = 0.20245 0.41773
#
# Static dielectric constant tensor:
#      x y z
#    x 1.894680 0.000000 0.000000 
#    y 0.000000 1.914180 0.000000 
#    z 0.000000 0.000000 1.943830 
# 
# From -- ./inp_files/24235.got.cif
#   From: 2010.05.17/outbox.cif.g08.bks.cpg/sg60_13_cif.got.tgz:24235.got - 2010.06.03 14:59:27.
