data_PCOD9456313
_publ_section_title
;
Structure prediction by ZEFSAII (Michael W. Deem and Ramdas Pophale) SiO2 
 PCOD9456313
Probable space group: P B C N
;
_chemical_formula_sum "Si O2"
_cell_formula_units_Z 60
_cell_length_a 10.786763
_cell_length_b 14.090511
_cell_length_c 17.015428
_cell_angle_alpha 90.000000
_cell_angle_beta 90.000000
_cell_angle_gamma 90.000000
_cell_volume 2586.191963
_symmetry_space_group_name_H-M "P B C N"
_symmetry_group_IT_number 60
_symmetry_cell_setting 'orthorhombic'
loop_
_space_group_symop_operation_xyz
x,y,z
1/2-x,1/2-y,1/2+z
1/2+x,1/2-y,-z
-x,y,1/2-z
-x,-y,-z
1/2+x,1/2+y,1/2-z
1/2-x,1/2+y,z
x,-y,1/2+z
loop_
_atom_site_type_symbol
_atom_site_label
_atom_site_fract_x
_atom_site_fract_y
_atom_site_fract_z
Si Si1 0.739638 0.806285 0.752388
Si Si2 0.696503 0.173681 0.079831
Si Si3 0.643993 0.390048 0.282037
Si Si4 0.578542 0.573651 0.353873
Si Si5 0.463589 0.064485 0.075317
Si Si6 0.712164 0.346915 0.986710
Si Si7 0.813659 0.015992 0.628552
Si Si8 0.000000 0.557161 0.250000
O O1 0.750906 0.782337 0.660180
O O2 0.701362 0.711821 0.798719
O O3 0.856658 0.859787 0.789045
O O4 0.622456 0.877097 0.750821
O O5 0.548254 0.159991 0.078831
O O6 0.735949 0.064176 0.084564
O O7 0.736855 0.238160 0.007751
O O8 0.500000 0.376960 0.250000
O O9 0.643689 0.469660 0.349192
O O10 0.723251 0.438195 0.211483
O O11 0.595520 0.633222 0.432109
O O12 0.438289 0.540147 0.349145
O O13 0.325172 0.102078 0.058475
O O14 0.487248 0.013930 0.161010
O O15 0.500000 0.000000 0.000000
O O16 0.678570 0.398632 0.067906
#
# Coordination Sequence:
#
# PCOD9456313 Si02
#       8
#     8   8   8   8   8   8   8   4
#     4  11  20  41  68 102 134 188 239 295 366 440
#     4  11  25  41  72  97 145 189 237 307 365 447
#     4  10  21  40  68  98 134 186 240 291 368 445
#     4  11  25  40  67 104 141 175 244 305 361 446
#     4  11  24  46  73 101 141 195 249 306 375 445
#     4  12  25  45  66 103 141 190 241 294 385 446
#     4  11  23  45  68 100 144 186 232 302 373 442
#     4  10  22  42  72 100 142 184 254 300 358 446
#
# _framework density 23.200133000000001
#
# number of rings (size 3 to 8) (size 9 to 14) (size 15 to 20)
#    0.000    1.067    6.000    0.400    1.867    1.067 
#    0.000    0.000    0.000    0.000    0.000    0.000 
#    0.000    0.000    0.000    0.000    0.000    0.000 
#
# Total GULP energy -334647.965677 kJ/mol
# GULP energy per Si atom -5577.466095 kJ/mol
# Density = 2.314733 g / cm^3
# Si number density = 23.200133 Si / 1000 Ang^3
#
#
#
# Elastic Constant Matrix: (Units=GPa)
#
#
# Indices 1 2 3 4 5 6 
#
# 1 65.0266 19.6076 0.1829 0.0000 0.0000 0.0000
# 2 19.6076 80.5453 23.4208 0.0000 0.0000 0.0000
# 3 0.1829 23.4208 107.2362 0.0000 0.0000 0.0000
# 4 0.0000 0.0000 0.0000 33.9473 0.0000 0.0000
# 5 0.0000 0.0000 0.0000 0.0000 24.3796 0.0000
# 6 0.0000 0.0000 0.0000 0.0000 0.0000 22.3310
#
#
#
# Elastic Compliance Matrix: (Units=1/GPa)
#
#
# Indices 1 2 3 4 5 6 
#
# 1 0.016681 -0.004327 0.000917 0.000000 0.000000 0.000000
# 2 -0.004327 0.014380 -0.003133 0.000000 0.000000 0.000000
# 3 0.000917 -0.003133 0.010008 0.000000 0.000000 0.000000
# 4 0.000000 0.000000 0.000000 0.029457 0.000000 0.000000
# 5 0.000000 0.000000 0.000000 0.000000 0.041018 0.000000
# 6 0.000000 0.000000 0.000000 0.000000 0.000000 0.044781
#
#
# Mechanical properties :
#
#
# Convention : Reuss Voigt Hill
#
# Bulk Modulus (GPa) = 35.73884 37.69229 36.71557
# Shear Modulus (GPa) = 27.97376 30.10470 29.03923
#
# Velocity S-wave (km/s) = 3.47617 3.60614 3.54175
# Velocity P-wave (km/s) = 5.61691 5.79835 5.70835
#
# Compressibility (1/GPa) = 0.02798076
#
# Stress axis : x y z
#
# Youngs Moduli (GPa) = 59.95020 69.54180 99.92046
#
# Poissons Ratio (x) = 0.30092 -0.09159
# Poissons Ratio (y) = 0.25941 0.31307
# Poissons Ratio (z) = -0.05495 0.21789
#
# Static dielectric constant tensor:
#      x y z
#    x 1.950750 0.000000 0.000000 
#    y 0.000000 1.850630 0.000000 
#    z 0.000000 0.000000 1.959140 
# 
# From -- ./inp_files/20171.got.cif
#   From: 2010.05.17/outbox.cif.g08.bks.cpg/sg60_11_cif.got.tgz:20171.got - 2010.06.03 14:59:27.
