data_PCOD9456368
_publ_section_title
;
Structure prediction by ZEFSAII (Michael W. Deem and Ramdas Pophale) SiO2 
 PCOD9456368
Probable space group: P B C N
;
_chemical_formula_sum "Si O2"
_cell_formula_units_Z 48
_cell_length_a 7.523875
_cell_length_b 24.341621
_cell_length_c 11.390373
_cell_angle_alpha 90.000000
_cell_angle_beta 90.000000
_cell_angle_gamma 90.000000
_cell_volume 2086.070656
_symmetry_space_group_name_H-M "P B C N"
_symmetry_group_IT_number 60
_symmetry_cell_setting 'orthorhombic'
loop_
_space_group_symop_operation_xyz
x,y,z
1/2-x,1/2-y,1/2+z
1/2+x,1/2-y,-z
-x,y,1/2-z
-x,-y,-z
1/2+x,1/2+y,1/2-z
1/2-x,1/2+y,z
x,-y,1/2+z
loop_
_atom_site_type_symbol
_atom_site_label
_atom_site_fract_x
_atom_site_fract_y
_atom_site_fract_z
Si Si1 0.699855 0.308203 0.703188
Si Si2 0.200939 0.905971 0.447300
Si Si3 0.213908 0.818966 0.267900
Si Si4 0.217367 0.124349 0.532460
Si Si5 0.309953 0.916913 0.708954
Si Si6 0.329330 0.520491 0.419864
O O1 0.500000 0.315954 0.750000
O O2 0.743334 0.244712 0.718230
O O3 0.732315 0.331431 0.572178
O O4 0.810076 0.350856 0.780652
O O5 0.277037 0.853360 0.380818
O O6 0.270163 0.924833 0.573607
O O7 0.993888 0.889039 0.460630
O O8 0.230247 0.961120 0.372606
O O9 0.000000 0.822962 0.250000
O O10 0.285719 0.848556 0.151066
O O11 0.285860 0.062879 0.500347
O O12 0.500000 0.938570 0.750000
O O13 0.169017 0.942043 0.801847
O O14 0.500000 0.500000 0.500000
#
# Coordination Sequence:
#
# PCOD9456368 Si02
#       6
#     8   8   8   8   8   8
#     4  11  22  41  65  91 129 178 230 280 336 409
#     4  10  21  41  65  93 136 171 223 275 336 405
#     4  10  23  39  61  95 129 175 220 286 338 399
#     4   9  20  39  63  95 128 169 230 271 337 396
#     4  11  24  42  66 100 134 178 224 282 347 400
#     4   9  21  39  69  97 128 176 222 277 330 416
#
# _framework density 23.009767
#
# number of rings (size 3 to 8) (size 9 to 14) (size 15 to 20)
#    0.000    2.000    1.667    0.500    4.667    0.667 
#    9.000    0.833    0.000    0.000    0.000    0.000 
#    0.000    0.000    0.000    0.000    0.000    0.000 
#
# Total GULP energy -267353.157450 kJ/mol
# GULP energy per Si atom -5569.857447 kJ/mol
# Density = 2.295740 g / cm^3
# Si number density = 23.009767 Si / 1000 Ang^3
#
#
#
# Elastic Constant Matrix: (Units=GPa)
#
#
# Indices 1 2 3 4 5 6 
#
# 1 61.0396 8.5858 9.7780 0.0000 0.0000 0.0000
# 2 8.5858 139.6706 21.7273 0.0000 0.0000 0.0000
# 3 9.7780 21.7273 81.7368 0.0000 0.0000 0.0000
# 4 0.0000 0.0000 0.0000 17.7488 0.0000 0.0000
# 5 0.0000 0.0000 0.0000 0.0000 14.6308 0.0000
# 6 0.0000 0.0000 0.0000 0.0000 0.0000 21.5418
#
#
#
# Elastic Compliance Matrix: (Units=1/GPa)
#
#
# Indices 1 2 3 4 5 6 
#
# 1 0.016778 -0.000750 -0.001808 0.000000 0.000000 0.000000
# 2 -0.000750 0.007502 -0.001904 0.000000 0.000000 0.000000
# 3 -0.001808 -0.001904 0.012957 0.000000 0.000000 0.000000
# 4 0.000000 0.000000 0.000000 0.056342 0.000000 0.000000
# 5 0.000000 0.000000 0.000000 0.000000 0.068349 0.000000
# 6 0.000000 0.000000 0.000000 0.000000 0.000000 0.046421
#
#
# Mechanical properties :
#
#
# Convention : Reuss Voigt Hill
#
# Bulk Modulus (GPa) = 35.32045 40.29215 37.80630
# Shear Modulus (GPa) = 22.05447 26.94132 24.49789
#
# Velocity S-wave (km/s) = 3.09930 3.42550 3.26647
# Velocity P-wave (km/s) = 5.30952 5.76145 5.54010
#
# Compressibility (1/GPa) = 0.02831221
#
# Stress axis : x y z
#
# Youngs Moduli (GPa) = 59.60222 133.29643 77.17898
#
# Poissons Ratio (x) = 0.09999 0.13952
# Poissons Ratio (y) = 0.04471 0.14698
# Poissons Ratio (z) = 0.10774 0.25386
#
# Static dielectric constant tensor:
#      x y z
#    x 2.034760 0.000000 0.000000 
#    y 0.000000 1.887590 0.000000 
#    z 0.000000 0.000000 1.942400 
# 
# From -- ./inp_files/10130.got.cif
#   From: 2010.05.17/outbox.cif.g08.bks.cpg/sg60_6_cif.got.tgz:10130.got - 2010.06.03 14:59:27.
