data_PCOD9456294
_publ_section_title
;
Structure prediction by ZEFSAII (Michael W. Deem and Ramdas Pophale) SiO2 
 PCOD9456294
Probable space group: P B C N
;
_chemical_formula_sum "Si O2"
_cell_formula_units_Z 32
_cell_length_a 11.618989
_cell_length_b 12.355864
_cell_length_c 9.312338
_cell_angle_alpha 90.000000
_cell_angle_beta 90.000000
_cell_angle_gamma 90.000000
_cell_volume 1336.903901
_symmetry_space_group_name_H-M "P B C N"
_symmetry_group_IT_number 60
_symmetry_cell_setting 'orthorhombic'
loop_
_space_group_symop_operation_xyz
x,y,z
1/2-x,1/2-y,1/2+z
1/2+x,1/2-y,-z
-x,y,1/2-z
-x,-y,-z
1/2+x,1/2+y,1/2-z
1/2-x,1/2+y,z
x,-y,1/2+z
loop_
_atom_site_type_symbol
_atom_site_label
_atom_site_fract_x
_atom_site_fract_y
_atom_site_fract_z
Si Si1 0.453725 0.255786 0.402456
Si Si2 0.327539 0.923489 0.756670
Si Si3 0.761023 0.919738 0.043271
Si Si4 0.092459 0.116385 0.373298
O O1 0.500000 0.302182 0.250000
O O2 0.420165 0.133814 0.358484
O O3 0.335294 0.313206 0.445583
O O4 0.542751 0.289793 0.525669
O O5 0.328648 0.921707 0.586282
O O6 0.209084 0.857530 0.788321
O O7 0.303847 0.044108 0.812561
O O8 0.860280 0.014822 0.031582
O O9 0.000000 0.087568 0.250000
#
# Coordination Sequence:
#
# PCOD9456294 Si02
#       4
#     8   8   8   8
#     4  12  23  38  68  96 126 166 215 260 323 377
#     4  10  25  38  65  97 127 165 211 266 319 373
#     4  10  21  42  64  96 126 165 213 270 309 372
#     4  10  21  40  66  95 124 164 215 267 316 367
#
# _framework density 23.935901999999999
#
# number of rings (size 3 to 8) (size 9 to 14) (size 15 to 20)
#    1.500    0.000    2.500    3.000    3.500    0.000 
#    0.000    1.250    0.000    0.000    0.000    0.000 
#    0.000    0.000    0.000    0.000    0.000    0.000 
#
# Total GULP energy -178283.482997 kJ/mol
# GULP energy per Si atom -5571.358844 kJ/mol
# Density = 2.388142 g / cm^3
# Si number density = 23.935902 Si / 1000 Ang^3
#
#
#
# Elastic Constant Matrix: (Units=GPa)
#
#
# Indices 1 2 3 4 5 6 
#
# 1 77.0272 8.8228 16.8104 0.0000 0.0000 0.0000
# 2 8.8228 20.5060 2.7900 0.0000 0.0000 0.0000
# 3 16.8104 2.7900 90.9044 0.0000 0.0000 0.0000
# 4 0.0000 0.0000 0.0000 28.9496 0.0000 0.0000
# 5 0.0000 0.0000 0.0000 0.0000 44.7614 0.0000
# 6 0.0000 0.0000 0.0000 0.0000 0.0000 24.1674
#
#
#
# Elastic Compliance Matrix: (Units=1/GPa)
#
#
# Indices 1 2 3 4 5 6 
#
# 1 0.014176 -0.005767 -0.002445 0.000000 0.000000 0.000000
# 2 -0.005767 0.051317 -0.000509 0.000000 0.000000 0.000000
# 3 -0.002445 -0.000509 0.011468 0.000000 0.000000 0.000000
# 4 0.000000 0.000000 0.000000 0.034543 0.000000 0.000000
# 5 0.000000 0.000000 0.000000 0.000000 0.022341 0.000000
# 6 0.000000 0.000000 0.000000 0.000000 0.000000 0.041378
#
#
# Mechanical properties :
#
#
# Convention : Reuss Voigt Hill
#
# Bulk Modulus (GPa) = 16.80069 27.25378 22.02724
# Shear Modulus (GPa) = 23.52900 30.24329 26.88615
#
# Velocity S-wave (km/s) = 3.13869 3.55845 3.35514
# Velocity P-wave (km/s) = 4.49104 5.31924 4.92258
#
# Compressibility (1/GPa) = 0.05952136
#
# Stress axis : x y z
#
# Youngs Moduli (GPa) = 70.53935 19.48681 87.19733
#
# Poissons Ratio (x) = 0.11238 0.21316
# Poissons Ratio (y) = 0.40679 0.04435
# Poissons Ratio (z) = 0.17244 0.00991
#
# Static dielectric constant tensor:
#      x y z
#    x 2.052080 0.000000 0.000000 
#    y 0.000000 1.968350 0.000000 
#    z 0.000000 0.000000 1.881660 
# 
# From -- ./inp_files/4630.got.cif
#   From: 2010.05.17/outbox.cif.g08.bks.cpg/sg60_3_cif.got.tgz:4630.got - 2010.06.03 14:59:27.
