data_PCOD9456689
_publ_section_title
;
Structure prediction by ZEFSAII (Michael W. Deem and Ramdas Pophale) SiO2 
 PCOD9456689
Probable space group: P B C N
;
_chemical_formula_sum "Si O2"
_cell_formula_units_Z 56
_cell_length_a 11.039017
_cell_length_b 20.603171
_cell_length_c 12.170648
_cell_angle_alpha 90.000000
_cell_angle_beta 90.000000
_cell_angle_gamma 90.000000
_cell_volume 2768.077028
_symmetry_space_group_name_H-M "P B C N"
_symmetry_group_IT_number 60
_symmetry_cell_setting 'orthorhombic'
loop_
_space_group_symop_operation_xyz
x,y,z
1/2-x,1/2-y,1/2+z
1/2+x,1/2-y,-z
-x,y,1/2-z
-x,-y,-z
1/2+x,1/2+y,1/2-z
1/2-x,1/2+y,z
x,-y,1/2+z
loop_
_atom_site_type_symbol
_atom_site_label
_atom_site_fract_x
_atom_site_fract_y
_atom_site_fract_z
Si Si1 0.095468 0.548568 0.895362
Si Si2 0.252600 0.720434 0.810295
Si Si3 0.828944 0.598781 0.825154
Si Si4 0.804653 0.586699 0.058566
Si Si5 0.141284 0.143919 0.259586
Si Si6 0.468707 0.806065 0.858565
Si Si7 0.702894 0.845164 0.960026
O O1 0.180084 0.558906 0.787833
O O2 0.103874 0.472550 0.918415
O O3 0.967722 0.582530 0.863779
O O4 0.147412 0.586671 0.999974
O O5 0.206769 0.670897 0.716343
O O6 0.166141 0.783257 0.805176
O O7 0.388942 0.748573 0.806989
O O8 0.250408 0.685731 0.928021
O O9 0.755085 0.580501 0.934534
O O10 0.706986 0.595507 0.154965
O O11 0.879761 0.653773 0.063714
O O12 0.206202 0.144486 0.140476
O O13 0.000000 0.130964 0.250000
O O14 0.500000 0.848731 0.750000
O O15 0.594055 0.798190 0.920363
#
# Coordination Sequence:
#
# PCOD9456689 Si02
#       7
#     8   8   8   8   8   8   8
#     4  10  23  37  68  99 132 167 213 283 326 395
#     4  10  25  40  61  95 135 178 213 274 339 400
#     4  10  22  38  62 103 131 168 213 271 342 394
#     4  11  23  39  67  98 128 175 218 279 339 384
#     4  11  27  42  65  91 133 179 223 275 338 414
#     4  11  22  38  61  98 130 168 216 271 326 405
#     4  11  23  41  63  94 128 170 222 270 336 394
#
# _framework density 20.230650000000001
#
# number of rings (size 3 to 8) (size 9 to 14) (size 15 to 20)
#    0.000    1.429    4.286    0.429   14.000    0.000 
#    0.000    0.714    0.000    0.000    0.000    0.000 
#    0.000    0.000    0.000    0.000    0.000    0.000 
#
# Total GULP energy -311951.960069 kJ/mol
# GULP energy per Si atom -5570.570716 kJ/mol
# Density = 2.018460 g / cm^3
# Si number density = 20.230650 Si / 1000 Ang^3
#
#
#
# Elastic Constant Matrix: (Units=GPa)
#
#
# Indices 1 2 3 4 5 6 
#
# 1 127.8030 35.6264 51.8833 0.0000 0.0000 0.0000
# 2 35.6264 90.4435 38.3940 0.0000 0.0000 0.0000
# 3 51.8833 38.3940 144.8252 0.0000 0.0000 0.0000
# 4 0.0000 0.0000 0.0000 21.8155 0.0000 0.0000
# 5 0.0000 0.0000 0.0000 0.0000 18.3299 0.0000
# 6 0.0000 0.0000 0.0000 0.0000 0.0000 23.9736
#
#
#
# Elastic Compliance Matrix: (Units=1/GPa)
#
#
# Indices 1 2 3 4 5 6 
#
# 1 0.009685 -0.002639 -0.002770 0.000000 0.000000 0.000000
# 2 -0.002639 0.013178 -0.002548 0.000000 0.000000 0.000000
# 3 -0.002770 -0.002548 0.008573 0.000000 0.000000 0.000000
# 4 0.000000 0.000000 0.000000 0.045839 0.000000 0.000000
# 5 0.000000 0.000000 0.000000 0.000000 0.054556 0.000000
# 6 0.000000 0.000000 0.000000 0.000000 0.000000 0.041713
#
#
# Mechanical properties :
#
#
# Convention : Reuss Voigt Hill
#
# Bulk Modulus (GPa) = 64.42806 68.31990 66.37398
# Shear Modulus (GPa) = 25.68972 28.63498 27.16235
#
# Velocity S-wave (km/s) = 3.56735 3.76630 3.66817
# Velocity P-wave (km/s) = 6.99170 7.26341 7.12885
#
# Compressibility (1/GPa) = 0.01552119
#
# Stress axis : x y z
#
# Youngs Moduli (GPa) = 103.25592 75.88493 116.64935
#
# Poissons Ratio (x) = 0.20026 0.32311
# Poissons Ratio (y) = 0.27250 0.29723
# Poissons Ratio (z) = 0.28601 0.19336
#
# Static dielectric constant tensor:
#      x y z
#    x 1.753680 0.000000 0.000000 
#    y 0.000000 1.749060 0.000000 
#    z 0.000000 0.000000 1.808260 
# 
# From -- ./inp_files/11186.got.cif
#   From: 2010.05.17/outbox.cif.g08.bks.cpg/sg60_6_cif.got.tgz:11186.got - 2010.06.03 14:59:27.
