data_PCOD9456631
_publ_section_title
;
Structure prediction by ZEFSAII (Michael W. Deem and Ramdas Pophale) SiO2 
 PCOD9456631
Probable space group: P B C N
;
_chemical_formula_sum "Si O2"
_cell_formula_units_Z 52
_cell_length_a 13.712128
_cell_length_b 8.997908
_cell_length_c 18.132803
_cell_angle_alpha 90.000000
_cell_angle_beta 90.000000
_cell_angle_gamma 90.000000
_cell_volume 2237.233688
_symmetry_space_group_name_H-M "P B C N"
_symmetry_group_IT_number 60
_symmetry_cell_setting 'orthorhombic'
loop_
_space_group_symop_operation_xyz
x,y,z
1/2-x,1/2-y,1/2+z
1/2+x,1/2-y,-z
-x,y,1/2-z
-x,-y,-z
1/2+x,1/2+y,1/2-z
1/2-x,1/2+y,z
x,-y,1/2+z
loop_
_atom_site_type_symbol
_atom_site_label
_atom_site_fract_x
_atom_site_fract_y
_atom_site_fract_z
Si Si1 0.617353 0.076168 0.455214
Si Si2 0.170429 0.075473 0.102216
Si Si3 0.668929 0.816233 0.107064
Si Si4 0.845929 0.978181 0.072648
Si Si5 0.046648 0.650250 0.649790
Si Si6 0.469099 0.331412 0.124279
Si Si7 0.000000 0.399845 0.750000
O O1 0.713215 0.089079 0.403122
O O2 0.649499 0.072246 0.538805
O O3 0.555166 0.223942 0.443494
O O4 0.562286 0.931884 0.428156
O O5 0.116694 0.208645 0.145153
O O6 0.130337 0.923073 0.138434
O O7 0.147280 0.071811 0.013467
O O8 0.774955 0.881021 0.126232
O O9 0.682977 0.650015 0.077442
O O10 0.569568 0.815103 0.154450
O O11 0.953474 0.955828 0.104308
O O12 0.069865 0.521068 0.709561
O O13 0.513763 0.217601 0.183823
#
# Coordination Sequence:
#
# PCOD9456631 Si02
#       7
#     8   8   8   8   8   8   4
#     4  10  22  36  66 101 133 162 198 266 337 403
#     4  11  21  39  68 102 128 163 210 270 335 405
#     4  11  23  39  64 102 134 164 207 267 334 407
#     4  11  24  38  67 105 132 164 211 266 348 401
#     4  11  23  43  64  89 134 175 219 266 318 375
#     4  11  21  45  63  87 135 168 218 267 317 377
#     4  10  28  44  64  90 122 186 232 262 308 380
#
# _framework density 23.242989999999999
#
# number of rings (size 3 to 8) (size 9 to 14) (size 15 to 20)
#    0.000    1.231    3.077    2.769   10.769    0.615 
#    0.000    6.154    0.000    0.000    0.000    0.000 
#    0.000    0.000    0.000    0.000    0.000    0.000 
#
# Total GULP energy -289650.284130 kJ/mol
# GULP energy per Si atom -5570.197772 kJ/mol
# Density = 2.319009 g / cm^3
# Si number density = 23.242990 Si / 1000 Ang^3
#
#
#
# Elastic Constant Matrix: (Units=GPa)
#
#
# Indices 1 2 3 4 5 6 
#
# 1 107.6501 20.8813 8.3828 0.0000 0.0000 0.0000
# 2 20.8813 110.5175 18.2127 0.0000 0.0000 0.0000
# 3 8.3828 18.2127 25.9635 0.0000 0.0000 0.0000
# 4 0.0000 0.0000 0.0000 24.6445 0.0000 0.0000
# 5 0.0000 0.0000 0.0000 0.0000 9.1920 0.0000
# 6 0.0000 0.0000 0.0000 0.0000 0.0000 35.5348
#
#
#
# Elastic Compliance Matrix: (Units=1/GPa)
#
#
# Indices 1 2 3 4 5 6 
#
# 1 0.009743 -0.001495 -0.002097 0.000000 0.000000 0.000000
# 2 -0.001495 0.010461 -0.006855 0.000000 0.000000 0.000000
# 3 -0.002097 -0.006855 0.044001 0.000000 0.000000 0.000000
# 4 0.000000 0.000000 0.000000 0.040577 0.000000 0.000000
# 5 0.000000 0.000000 0.000000 0.000000 0.108790 0.000000
# 6 0.000000 0.000000 0.000000 0.000000 0.000000 0.028141
#
#
# Mechanical properties :
#
#
# Convention : Reuss Voigt Hill
#
# Bulk Modulus (GPa) = 23.08912 37.67606 30.38259
# Shear Modulus (GPa) = 18.04770 26.98454 22.51612
#
# Velocity S-wave (km/s) = 2.78956 3.41101 3.11582
# Velocity P-wave (km/s) = 4.50898 5.63543 5.10338
#
# Compressibility (1/GPa) = 0.04331045
#
# Stress axis : x y z
#
# Youngs Moduli (GPa) = 102.64131 95.59745 22.72664
#
# Poissons Ratio (x) = 0.14294 0.04765
# Poissons Ratio (y) = 0.15348 0.15579
# Poissons Ratio (z) = 0.21521 0.65532
#
# Static dielectric constant tensor:
#      x y z
#    x 2.012320 0.000000 0.000000 
#    y 0.000000 1.815530 0.000000 
#    z 0.000000 0.000000 1.910970 
# 
# From -- ./inp_files/22840.got.cif
#   From: 2010.05.17/outbox.cif.g08.bks.cpg/sg60_12_cif.got.tgz:22840.got - 2010.06.03 14:59:27.
