data_PCOD9456566
_publ_section_title
;
Structure prediction by ZEFSAII (Michael W. Deem and Ramdas Pophale) SiO2 
 PCOD9456566
Probable space group: P B C N
;
_chemical_formula_sum "Si O2"
_cell_formula_units_Z 64
_cell_length_a 11.060636
_cell_length_b 9.425813
_cell_length_c 27.514058
_cell_angle_alpha 90.000000
_cell_angle_beta 90.000000
_cell_angle_gamma 90.000000
_cell_volume 2868.491505
_symmetry_space_group_name_H-M "P B C N"
_symmetry_group_IT_number 60
_symmetry_cell_setting 'orthorhombic'
loop_
_space_group_symop_operation_xyz
x,y,z
1/2-x,1/2-y,1/2+z
1/2+x,1/2-y,-z
-x,y,1/2-z
-x,-y,-z
1/2+x,1/2+y,1/2-z
1/2-x,1/2+y,z
x,-y,1/2+z
loop_
_atom_site_type_symbol
_atom_site_label
_atom_site_fract_x
_atom_site_fract_y
_atom_site_fract_z
Si Si1 0.974308 0.112145 0.687622
Si Si2 0.239607 0.830309 0.421225
Si Si3 0.283725 0.475192 0.673209
Si Si4 0.127019 0.384359 0.763520
Si Si5 0.786916 0.277915 0.399306
Si Si6 0.986563 0.717592 0.412073
Si Si7 0.507885 0.084235 0.550311
Si Si8 0.220577 0.080660 0.353733
O O1 0.901385 0.221467 0.721361
O O2 0.000460 0.210389 0.640516
O O3 0.899332 0.975165 0.671458
O O4 0.102330 0.044018 0.700116
O O5 0.107534 0.777797 0.439643
O O6 0.267369 0.740227 0.372235
O O7 0.365628 0.830148 0.450082
O O8 0.227518 0.991143 0.403204
O O9 0.206106 0.400499 0.715228
O O10 0.317367 0.362616 0.631324
O O11 0.221884 0.599770 0.641824
O O12 0.182013 0.449579 0.812128
O O13 0.000000 0.453087 0.750000
O O14 0.653671 0.255334 0.424337
O O15 0.892750 0.319596 0.436559
O O16 0.003565 0.548160 0.411661
O O17 0.500000 0.000000 0.500000
#
# Coordination Sequence:
#
# PCOD9456566 Si02
#       8
#     8   8   8   8   8   8   8   8
#     4  10  23  44  67  95 136 185 235 291 342 409
#     4  11  22  43  75  96 137 186 228 286 358 417
#     4  11  25  42  74 100 138 199 232 285 356 424
#     4  12  25  39  64  99 142 180 231 289 333 395
#     4  11  24  47  73  99 144 190 233 287 372 431
#     4  10  21  46  68  99 140 181 225 289 361 426
#     4  12  26  45  74 109 138 176 240 304 361 443
#     4  11  22  41  68  96 134 181 231 280 342 409
#
# _framework density 22.311378999999999
#
# number of rings (size 3 to 8) (size 9 to 14) (size 15 to 20)
#    0.000    1.000    5.000    2.250    5.250    1.000 
#    0.000    0.625    0.000    0.000    0.000    0.000 
#    0.000    0.000    0.000    0.000    0.000    0.000 
#
# Total GULP energy -356819.867285 kJ/mol
# GULP energy per Si atom -5575.310426 kJ/mol
# Density = 2.226060 g / cm^3
# Si number density = 22.311379 Si / 1000 Ang^3
#
#
#
# Elastic Constant Matrix: (Units=GPa)
#
#
# Indices 1 2 3 4 5 6 
#
# 1 158.5576 21.9468 24.5618 0.0000 0.0000 0.0000
# 2 21.9468 68.4496 6.1990 0.0000 0.0000 0.0000
# 3 24.5618 6.1990 38.1940 0.0000 0.0000 0.0000
# 4 0.0000 0.0000 0.0000 24.6222 0.0000 0.0000
# 5 0.0000 0.0000 0.0000 0.0000 10.1078 0.0000
# 6 0.0000 0.0000 0.0000 0.0000 0.0000 31.4714
#
#
#
# Elastic Compliance Matrix: (Units=1/GPa)
#
#
# Indices 1 2 3 4 5 6 
#
# 1 0.007247 -0.001930 -0.004347 0.000000 0.000000 0.000000
# 2 -0.001930 0.015341 -0.001249 0.000000 0.000000 0.000000
# 3 -0.004347 -0.001249 0.029181 0.000000 0.000000 0.000000
# 4 0.000000 0.000000 0.000000 0.040614 0.000000 0.000000
# 5 0.000000 0.000000 0.000000 0.000000 0.098933 0.000000
# 6 0.000000 0.000000 0.000000 0.000000 0.000000 0.031775
#
#
# Mechanical properties :
#
#
# Convention : Reuss Voigt Hill
#
# Bulk Modulus (GPa) = 27.23552 41.17961 34.20757
# Shear Modulus (GPa) = 19.96946 27.40654 23.68800
#
# Velocity S-wave (km/s) = 2.99496 3.50861 3.26191
# Velocity P-wave (km/s) = 4.91866 5.90852 5.43617
#
# Compressibility (1/GPa) = 0.03671675
#
# Stress axis : x y z
#
# Youngs Moduli (GPa) = 137.97952 65.18396 34.26943
#
# Poissons Ratio (x) = 0.12581 0.14898
# Poissons Ratio (y) = 0.26630 0.04279
# Poissons Ratio (z) = 0.59986 0.08140
#
# Static dielectric constant tensor:
#      x y z
#    x 1.903800 0.000000 0.000000 
#    y 0.000000 1.796570 0.000000 
#    z 0.000000 0.000000 1.896960 
# 
# From -- ./inp_files/26126.got.cif
#   From: 2010.05.17/outbox.cif.g08.bks.cpg/sg60_14_cif.got.tgz:26126.got - 2010.06.03 14:59:27.
