data_PCOD9456945
_publ_section_title
;
Structure prediction by ZEFSAII (Michael W. Deem and Ramdas Pophale) SiO2 
 PCOD9456945
Probable space group: P B C N
;
_chemical_formula_sum "Si O2"
_cell_formula_units_Z 56
_cell_length_a 19.497791
_cell_length_b 14.498866
_cell_length_c 8.657347
_cell_angle_alpha 90.000000
_cell_angle_beta 90.000000
_cell_angle_gamma 90.000000
_cell_volume 2447.396147
_symmetry_space_group_name_H-M "P B C N"
_symmetry_group_IT_number 60
_symmetry_cell_setting 'orthorhombic'
loop_
_space_group_symop_operation_xyz
x,y,z
1/2-x,1/2-y,1/2+z
1/2+x,1/2-y,-z
-x,y,1/2-z
-x,-y,-z
1/2+x,1/2+y,1/2-z
1/2-x,1/2+y,z
x,-y,1/2+z
loop_
_atom_site_type_symbol
_atom_site_label
_atom_site_fract_x
_atom_site_fract_y
_atom_site_fract_z
Si Si1 0.606739 0.433534 0.961239
Si Si2 0.461156 0.093274 0.964997
Si Si3 0.629252 0.200886 0.292103
Si Si4 0.413944 0.772004 0.063794
Si Si5 0.575079 0.388135 0.300759
Si Si6 0.331751 0.093929 0.756305
Si Si7 0.264372 0.925714 0.581259
O O1 0.575224 0.336210 0.907546
O O2 0.568221 0.525784 0.912740
O O3 0.684035 0.438329 0.898904
O O4 0.609272 0.426284 0.145595
O O5 0.516491 0.170189 0.917421
O O6 0.403947 0.068698 0.837948
O O7 0.421626 0.134029 0.113678
O O8 0.500000 0.000000 0.000000
O O9 0.618849 0.302764 0.362939
O O10 0.703364 0.156713 0.317807
O O11 0.609396 0.211673 0.113730
O O12 0.352936 0.812817 0.168914
O O13 0.500000 0.352523 0.250000
O O14 0.303792 0.018259 0.636637
O O15 0.280839 0.097984 0.902326
#
# Coordination Sequence:
#
# PCOD9456945 Si02
#       7
#     8   8   8   8   8   8   8
#     4  11  26  43  67  93 127 173 219 274 321 390
#     4  11  22  39  64  96 129 167 212 261 324 390
#     4  10  22  41  65  91 130 174 211 268 329 392
#     4  11  23  39  61  95 127 166 217 270 332 389
#     4  11  24  44  69  97 129 171 220 272 330 382
#     4  11  24  38  61  91 127 166 207 266 319 388
#     4  11  23  42  62  93 129 171 220 259 329 395
#
# _framework density 22.881460000000001
#
# number of rings (size 3 to 8) (size 9 to 14) (size 15 to 20)
#    0.000    1.143    0.000    7.286    0.000    9.143 
#    0.000    0.000    0.000    0.000    0.000    0.000 
#    0.000    0.000    0.000    0.000    0.000    0.000 
#
# Total GULP energy -313404.468990 kJ/mol
# GULP energy per Si atom -5596.508375 kJ/mol
# Density = 2.282938 g / cm^3
# Si number density = 22.881460 Si / 1000 Ang^3
#
#
#
# Elastic Constant Matrix: (Units=GPa)
#
#
# Indices 1 2 3 4 5 6 
#
# 1 52.5345 -13.2713 -4.1041 0.0000 0.0000 0.0000
# 2 -13.2713 90.4348 8.3910 0.0000 0.0000 0.0000
# 3 -4.1041 8.3910 62.4659 0.0000 0.0000 0.0000
# 4 0.0000 0.0000 0.0000 36.9195 0.0000 0.0000
# 5 0.0000 0.0000 0.0000 0.0000 26.6557 0.0000
# 6 0.0000 0.0000 0.0000 0.0000 0.0000 24.4153
#
#
#
# Elastic Compliance Matrix: (Units=1/GPa)
#
#
# Indices 1 2 3 4 5 6 
#
# 1 0.019820 0.002823 0.000923 0.000000 0.000000 0.000000
# 2 0.002823 0.011599 -0.001373 0.000000 0.000000 0.000000
# 3 0.000923 -0.001373 0.016254 0.000000 0.000000 0.000000
# 4 0.000000 0.000000 0.000000 0.027086 0.000000 0.000000
# 5 0.000000 0.000000 0.000000 0.000000 0.037515 0.000000
# 6 0.000000 0.000000 0.000000 0.000000 0.000000 0.040958
#
#
# Mechanical properties :
#
#
# Convention : Reuss Voigt Hill
#
# Bulk Modulus (GPa) = 19.07662 20.82960 19.95311
# Shear Modulus (GPa) = 30.12783 31.89273 31.01028
#
# Velocity S-wave (km/s) = 3.63256 3.73745 3.68538
# Velocity P-wave (km/s) = 5.09404 5.26761 5.18155
#
# Compressibility (1/GPa) = 0.05242019
#
# Stress axis : x y z
#
# Youngs Moduli (GPa) = 50.45313 86.21190 61.52422
#
# Poissons Ratio (x) = -0.24338 -0.05679
# Poissons Ratio (y) = -0.14243 0.08445
# Poissons Ratio (z) = -0.04657 0.11834
#
# Static dielectric constant tensor:
#      x y z
#    x 1.860980 0.000000 0.000000 
#    y 0.000000 1.839440 0.000000 
#    z 0.000000 0.000000 1.860420 
# 
# From -- ./inp_files/7404.got.cif
#   From: 2010.05.17/outbox.cif.g08.bks.cpg/sg60_4_cif.got.tgz:7404.got - 2010.06.03 14:59:27.
