data_PCOD9456474
_publ_section_title
;
Structure prediction by ZEFSAII (Michael W. Deem and Ramdas Pophale) SiO2 
 PCOD9456474
Probable space group: P B C N
;
_chemical_formula_sum "Si O2"
_cell_formula_units_Z 52
_cell_length_a 8.519684
_cell_length_b 10.783764
_cell_length_c 24.230701
_cell_angle_alpha 90.000000
_cell_angle_beta 90.000000
_cell_angle_gamma 90.000000
_cell_volume 2226.177763
_symmetry_space_group_name_H-M "P B C N"
_symmetry_group_IT_number 60
_symmetry_cell_setting 'orthorhombic'
loop_
_space_group_symop_operation_xyz
x,y,z
1/2-x,1/2-y,1/2+z
1/2+x,1/2-y,-z
-x,y,1/2-z
-x,-y,-z
1/2+x,1/2+y,1/2-z
1/2-x,1/2+y,z
x,-y,1/2+z
loop_
_atom_site_type_symbol
_atom_site_label
_atom_site_fract_x
_atom_site_fract_y
_atom_site_fract_z
Si Si1 0.500000 0.162887 0.250000
Si Si2 0.359898 0.863042 0.922765
Si Si3 0.274331 0.683122 0.821340
Si Si4 0.640371 0.448265 0.083901
Si Si5 0.970369 0.453266 0.339765
Si Si6 0.172963 0.645724 0.017461
Si Si7 0.775487 0.105633 0.923538
O O1 0.639721 0.253267 0.229565
O O2 0.446235 0.066487 0.202575
O O3 0.331482 0.768924 0.872566
O O4 0.486569 0.837517 0.970647
O O5 0.188675 0.915320 0.937758
O O6 0.440124 0.981799 0.891400
O O7 0.337962 0.555589 0.849016
O O8 0.090134 0.651662 0.816727
O O9 0.461051 0.415835 0.076179
O O10 0.751288 0.362702 0.043415
O O11 0.809824 0.399528 0.364122
O O12 0.212580 0.513316 0.043811
O O13 0.249342 0.758783 0.050921
#
# Coordination Sequence:
#
# PCOD9456474 Si02
#       7
#     4   8   8   8   8   8   8
#     4  10  22  46  74 104 138 186 248 318 390 446
#     4   9  20  41  63  95 142 191 238 297 354 437
#     4  10  21  42  71 100 141 188 238 307 370 443
#     4  11  23  38  68 101 144 187 243 293 374 434
#     4   9  22  42  66 101 139 186 240 309 371 445
#     4  11  24  42  65 105 146 198 244 302 365 442
#     4  11  25  43  66 107 145 197 244 306 363 455
#
# _framework density 23.358422999999998
#
# number of rings (size 3 to 8) (size 9 to 14) (size 15 to 20)
#    0.000    1.846    1.538    0.923    4.308    4.923 
#    0.000    0.000    0.000    3.692    0.000    0.000 
#    0.000    0.000    0.000    0.000    0.000    0.000 
#
# Total GULP energy -289593.318164 kJ/mol
# GULP energy per Si atom -5569.102272 kJ/mol
# Density = 2.330526 g / cm^3
# Si number density = 23.358423 Si / 1000 Ang^3
#
#
#
# Elastic Constant Matrix: (Units=GPa)
#
#
# Indices 1 2 3 4 5 6 
#
# 1 128.7364 50.2945 68.5475 0.0000 0.0000 0.0000
# 2 50.2945 89.0234 35.0176 0.0000 0.0000 0.0000
# 3 68.5475 35.0176 96.7150 0.0000 0.0000 0.0000
# 4 0.0000 0.0000 0.0000 31.2651 0.0000 0.0000
# 5 0.0000 0.0000 0.0000 0.0000 35.7985 0.0000
# 6 0.0000 0.0000 0.0000 0.0000 0.0000 39.0989
#
#
#
# Elastic Compliance Matrix: (Units=1/GPa)
#
#
# Indices 1 2 3 4 5 6 
#
# 1 0.013956 -0.004657 -0.008205 0.000000 0.000000 0.000000
# 2 -0.004657 0.014653 -0.002004 0.000000 0.000000 0.000000
# 3 -0.008205 -0.002004 0.016881 0.000000 0.000000 0.000000
# 4 0.000000 0.000000 0.000000 0.031985 0.000000 0.000000
# 5 0.000000 0.000000 0.000000 0.000000 0.027934 0.000000
# 6 0.000000 0.000000 0.000000 0.000000 0.000000 0.025576
#
#
# Mechanical properties :
#
#
# Convention : Reuss Voigt Hill
#
# Bulk Modulus (GPa) = 63.46838 69.13266 66.30052
# Shear Modulus (GPa) = 30.12573 31.94016 31.03294
#
# Velocity S-wave (km/s) = 3.59516 3.70184 3.64889
# Velocity P-wave (km/s) = 6.66814 6.92331 6.79692
#
# Compressibility (1/GPa) = 0.01575588
#
# Stress axis : x y z
#
# Youngs Moduli (GPa) = 71.65184 68.24754 59.23771
#
# Poissons Ratio (x) = 0.31784 0.48607
# Poissons Ratio (y) = 0.33369 0.11874
# Poissons Ratio (z) = 0.58794 0.13680
#
# Static dielectric constant tensor:
#      x y z
#    x 1.958090 0.000000 0.000000 
#    y 0.000000 2.137210 0.000000 
#    z 0.000000 0.000000 1.941340 
# 
# From -- ./inp_files/25177.got.cif
#   From: 2010.05.17/outbox.cif.g08.bks.cpg/sg60_13_cif.got.tgz:25177.got - 2010.06.03 14:59:27.
