data_PCOD9456812
_publ_section_title
;
Structure prediction by ZEFSAII (Michael W. Deem and Ramdas Pophale) SiO2 
 PCOD9456812
Probable space group: P B C N
;
_chemical_formula_sum "Si O2"
_cell_formula_units_Z 36
_cell_length_a 4.843515
_cell_length_b 12.533356
_cell_length_c 25.469027
_cell_angle_alpha 90.000000
_cell_angle_beta 90.000000
_cell_angle_gamma 90.000000
_cell_volume 1546.109962
_symmetry_space_group_name_H-M "P B C N"
_symmetry_group_IT_number 60
_symmetry_cell_setting 'orthorhombic'
loop_
_space_group_symop_operation_xyz
x,y,z
1/2-x,1/2-y,1/2+z
1/2+x,1/2-y,-z
-x,y,1/2-z
-x,-y,-z
1/2+x,1/2+y,1/2-z
1/2-x,1/2+y,z
x,-y,1/2+z
loop_
_atom_site_type_symbol
_atom_site_label
_atom_site_fract_x
_atom_site_fract_y
_atom_site_fract_z
Si Si1 0.299622 0.126275 0.396548
Si Si2 0.368513 0.296180 0.474155
Si Si3 0.699833 0.402991 0.829634
Si Si4 0.000000 0.500000 0.000000
Si Si5 0.500000 0.225178 0.750000
Si Si6 0.500000 0.420024 0.250000
O O1 0.321965 0.248729 0.416446
O O2 0.482466 0.104654 0.345344
O O3 0.987217 0.098944 0.381943
O O4 0.430219 0.058074 0.443395
O O5 0.689465 0.285795 0.489020
O O6 0.243289 0.409691 0.486706
O O7 0.616074 0.300554 0.795619
O O8 0.625633 0.505470 0.795285
O O9 0.249459 0.152826 0.770031
#
# Coordination Sequence:
#
# PCOD9456812 Si02
#       6
#     8   8   8   4   4   4
#     4  11  23  41  65  95 133 175 218 270 327 383
#     4  10  22  40  61  90 128 172 217 261 314 371
#     4  11  25  43  66 100 132 163 219 275 324 400
#     4  10  24  42  64  92 136 178 222 272 314 380
#     4  11  24  45  68  92 130 169 206 271 336 394
#     4  11  24  45  72 100 128 169 216 267 340 404
#
# _framework density 23.284241000000002
#
# number of rings (size 3 to 8) (size 9 to 14) (size 15 to 20)
#    0.000    1.333    0.000    5.333    0.000   16.889 
#    0.000    4.444    0.000    0.000    0.000    0.000 
#    0.000    0.000    0.000    0.000    0.000    0.000 
#
# Total GULP energy -200514.097904 kJ/mol
# GULP energy per Si atom -5569.836053 kJ/mol
# Density = 2.323124 g / cm^3
# Si number density = 23.284241 Si / 1000 Ang^3
#
#
#
# Elastic Constant Matrix: (Units=GPa)
#
#
# Indices 1 2 3 4 5 6 
#
# 1 78.5025 14.8460 -6.9181 0.0000 0.0000 0.0000
# 2 14.8460 70.6778 29.5239 0.0000 0.0000 0.0000
# 3 -6.9181 29.5239 52.9795 0.0000 0.0000 0.0000
# 4 0.0000 0.0000 0.0000 0.1932 0.0000 0.0000
# 5 0.0000 0.0000 0.0000 0.0000 38.8435 0.0000
# 6 0.0000 0.0000 0.0000 0.0000 0.0000 -4.5101
#
#
#
# Elastic Compliance Matrix: (Units=1/GPa)
#
#
# Indices 1 2 3 4 5 6 
#
# 1 0.014055 -0.004847 0.004537 0.000000 0.000000 0.000000
# 2 -0.004847 0.020113 -0.011842 0.000000 0.000000 0.000000
# 3 0.004537 -0.011842 0.026067 0.000000 0.000000 0.000000
# 4 0.000000 0.000000 0.000000 5.176309 0.000000 0.000000
# 5 0.000000 0.000000 0.000000 0.000000 0.025744 0.000000
# 6 0.000000 0.000000 0.000000 0.000000 0.000000 -0.221724
#
#
# Mechanical properties :
#
#
# Convention : Reuss Voigt Hill
#
# Bulk Modulus (GPa) = 27.83165 30.78481 29.30823
# Shear Modulus (GPa) = 0.98486 17.88586 9.43536
#
# Velocity S-wave (km/s) = 0.65107 2.77456 2.01520
# Velocity P-wave (km/s) = 3.54177 4.84915 4.24608
#
# Compressibility (1/GPa) = 0.03593032
#
# Stress axis : x y z
#
# Youngs Moduli (GPa) = 71.14940 49.71808 38.36330
#
# Poissons Ratio (x) = 0.24100 -0.17404
# Poissons Ratio (y) = 0.34488 0.45428
# Poissons Ratio (z) = -0.32277 0.58874
#
# Static dielectric constant tensor:
#      x y z
#    x 1.801800 0.000000 0.000000 
#    y 0.000000 1.926080 0.000000 
#    z 0.000000 0.000000 1.752150 
# 
# From -- ./inp_files/23494.got.cif
#   From: 2010.05.17/outbox.cif.g08.bks.cpg/sg60_12_cif.got.tgz:23494.got - 2010.06.03 14:59:27.
