data_PCOD9456508
_publ_section_title
;
Structure prediction by ZEFSAII (Michael W. Deem and Ramdas Pophale) SiO2 
 PCOD9456508
Probable space group: P B C N
;
_chemical_formula_sum "Si O2"
_cell_formula_units_Z 36
_cell_length_a 4.940029
_cell_length_b 12.678602
_cell_length_c 22.257994
_cell_angle_alpha 90.000000
_cell_angle_beta 90.000000
_cell_angle_gamma 90.000000
_cell_volume 1394.077405
_symmetry_space_group_name_H-M "P B C N"
_symmetry_group_IT_number 60
_symmetry_cell_setting 'orthorhombic'
loop_
_space_group_symop_operation_xyz
x,y,z
1/2-x,1/2-y,1/2+z
1/2+x,1/2-y,-z
-x,y,1/2-z
-x,-y,-z
1/2+x,1/2+y,1/2-z
1/2-x,1/2+y,z
x,-y,1/2+z
loop_
_atom_site_type_symbol
_atom_site_label
_atom_site_fract_x
_atom_site_fract_y
_atom_site_fract_z
Si Si1 0.500000 0.926030 0.250000
Si Si2 0.907566 0.580009 0.352192
Si Si3 0.863908 0.198141 0.657821
Si Si4 0.799707 0.302473 0.029420
Si Si5 0.443192 0.488910 0.415008
O O1 0.295819 0.852453 0.287258
O O2 0.350479 0.006623 0.205054
O O3 0.676687 0.572696 0.402599
O O4 0.970871 0.697201 0.330197
O O5 0.178146 0.534821 0.382999
O O6 0.664369 0.218383 0.600705
O O7 0.048043 0.110318 0.625341
O O8 0.671487 0.421429 0.028444
O O9 0.576120 0.220223 0.004964
#
# Coordination Sequence:
#
# PCOD9456508 Si02
#       5
#     4   8   8   8   8
#     4  10  24  44  72  98 144 176 232 298 346 434
#     4  11  22  43  65 102 135 183 228 287 352 421
#     4   9  24  42  72 103 141 184 236 287 365 413
#     4  10  21  43  70  98 142 190 230 296 356 413
#     4   9  23  40  65  95 143 173 235 284 337 419
#
# _framework density 25.823526999999999
#
# number of rings (size 3 to 8) (size 9 to 14) (size 15 to 20)
#    1.333    0.889    0.000    1.333    0.000   12.444 
#    0.000    6.667    0.000    0.000    0.000    0.000 
#    0.000    0.000    0.000    0.000    0.000    0.000 
#
# Total GULP energy -201078.623294 kJ/mol
# GULP energy per Si atom -5585.517314 kJ/mol
# Density = 2.576475 g / cm^3
# Si number density = 25.823527 Si / 1000 Ang^3
#
#
#
# Elastic Constant Matrix: (Units=GPa)
#
#
# Indices 1 2 3 4 5 6 
#
# 1 76.0505 -5.6309 14.5134 0.0000 0.0000 0.0000
# 2 -5.6309 92.1105 5.5989 0.0000 0.0000 0.0000
# 3 14.5134 5.5989 120.6776 0.0000 0.0000 0.0000
# 4 0.0000 0.0000 0.0000 24.0488 0.0000 0.0000
# 5 0.0000 0.0000 0.0000 0.0000 31.1082 0.0000
# 6 0.0000 0.0000 0.0000 0.0000 0.0000 -37.9161
#
#
#
# Elastic Compliance Matrix: (Units=1/GPa)
#
#
# Indices 1 2 3 4 5 6 
#
# 1 0.013537 0.000929 -0.001671 0.000000 0.000000 0.000000
# 2 0.000929 0.010951 -0.000620 0.000000 0.000000 0.000000
# 3 -0.001671 -0.000620 0.008516 0.000000 0.000000 0.000000
# 4 0.000000 0.000000 0.000000 0.041582 0.000000 0.000000
# 5 0.000000 0.000000 0.000000 0.000000 0.032146 0.000000
# 6 0.000000 0.000000 0.000000 0.000000 0.000000 -0.026374
#
#
# Mechanical properties :
#
#
# Convention : Reuss Voigt Hill
#
# Bulk Modulus (GPa) = 33.02457 35.31127 34.16792
# Shear Modulus (GPa) = 53.66238 21.73869 37.70054
#
# Velocity S-wave (km/s) = 4.56350 2.90456 3.82505
# Velocity P-wave (km/s) = 6.37053 4.99523 5.72434
#
# Compressibility (1/GPa) = 0.03028049
#
# Stress axis : x y z
#
# Youngs Moduli (GPa) = 73.87233 91.31584 117.42220
#
# Poissons Ratio (x) = -0.08484 0.19623
# Poissons Ratio (y) = -0.06864 0.07278
# Poissons Ratio (z) = 0.12345 0.05660
#
# Static dielectric constant tensor:
#      x y z
#    x 2.014370 0.000000 0.000000 
#    y 0.000000 2.111700 0.000000 
#    z 0.000000 0.000000 2.118360 
# 
# From -- ./inp_files/23471.got.cif
#   From: 2010.05.17/outbox.cif.g08.bks.cpg/sg60_12_cif.got.tgz:23471.got - 2010.06.03 14:59:27.
