data_PCOD9456971
_publ_section_title
;
Structure prediction by ZEFSAII (Michael W. Deem and Ramdas Pophale) SiO2 
 PCOD9456971
Probable space group: P B C N
;
_chemical_formula_sum "Si O2"
_cell_formula_units_Z 36
_cell_length_a 9.280931
_cell_length_b 11.428213
_cell_length_c 18.569731
_cell_angle_alpha 90.000000
_cell_angle_beta 90.000000
_cell_angle_gamma 90.000000
_cell_volume 1969.588422
_symmetry_space_group_name_H-M "P B C N"
_symmetry_group_IT_number 60
_symmetry_cell_setting 'orthorhombic'
loop_
_space_group_symop_operation_xyz
x,y,z
1/2-x,1/2-y,1/2+z
1/2+x,1/2-y,-z
-x,y,1/2-z
-x,-y,-z
1/2+x,1/2+y,1/2-z
1/2-x,1/2+y,z
x,-y,1/2+z
loop_
_atom_site_type_symbol
_atom_site_label
_atom_site_fract_x
_atom_site_fract_y
_atom_site_fract_z
Si Si1 0.668977 0.342303 0.682542
Si Si2 0.500000 0.132891 0.750000
Si Si3 0.983311 0.248799 0.666360
Si Si4 0.713023 0.949462 0.825062
Si Si5 0.521139 0.510375 0.915322
O O1 0.591371 0.219294 0.699087
O O2 0.832709 0.316577 0.659619
O O3 0.685087 0.410862 0.758372
O O4 0.581494 0.418320 0.625764
O O5 0.608350 0.050966 0.795155
O O6 0.000000 0.208786 0.750000
O O7 0.113758 0.339009 0.655033
O O8 0.985684 0.139073 0.614313
O O9 0.815530 0.986150 0.889783
O O10 0.500000 0.500000 0.000000
#
# Coordination Sequence:
#
# PCOD9456971 Si02
#       5
#     8   4   8   8   8
#     4  11  21  40  66  94 123 163 216 269 318 364
#     4  12  20  36  74  98 120 156 228 278 316 358
#     4  10  22  41  67  92 123 157 221 273 311 364
#     4  11  21  42  69  98 117 166 217 276 316 364
#     4  12  26  41  60  92 138 173 203 250 328 402
#
# _framework density 18.277930000000001
#
# number of rings (size 3 to 8) (size 9 to 14) (size 15 to 20)
#    0.000    0.889    5.556    5.333    0.000    1.778 
#    0.000    1.111    0.000    0.000    0.000    0.000 
#    0.000    0.000    0.000    0.000    0.000    0.000 
#
# Total GULP energy -201261.531451 kJ/mol
# GULP energy per Si atom -5590.598096 kJ/mol
# Density = 1.823633 g / cm^3
# Si number density = 18.277930 Si / 1000 Ang^3
#
#
#
# Elastic Constant Matrix: (Units=GPa)
#
#
# Indices 1 2 3 4 5 6 
#
# 1 110.3118 41.3994 75.7160 0.0000 0.0000 0.0000
# 2 41.3994 100.0913 66.0544 0.0000 0.0000 0.0000
# 3 75.7160 66.0544 124.0874 0.0000 0.0000 0.0000
# 4 0.0000 0.0000 0.0000 13.3276 0.0000 0.0000
# 5 0.0000 0.0000 0.0000 0.0000 18.5775 0.0000
# 6 0.0000 0.0000 0.0000 0.0000 0.0000 34.4879
#
#
#
# Elastic Compliance Matrix: (Units=1/GPa)
#
#
# Indices 1 2 3 4 5 6 
#
# 1 0.015602 -0.000263 -0.009380 0.000000 0.000000 0.000000
# 2 -0.000263 0.015406 -0.008040 0.000000 0.000000 0.000000
# 3 -0.009380 -0.008040 0.018063 0.000000 0.000000 0.000000
# 4 0.000000 0.000000 0.000000 0.075032 0.000000 0.000000
# 5 0.000000 0.000000 0.000000 0.000000 0.053829 0.000000
# 6 0.000000 0.000000 0.000000 0.000000 0.000000 0.028996
#
#
# Mechanical properties :
#
#
# Convention : Reuss Voigt Hill
#
# Bulk Modulus (GPa) = 72.97413 77.87002 75.42208
# Shear Modulus (GPa) = 20.25416 23.36664 21.81040
#
# Velocity S-wave (km/s) = 3.33246 3.57936 3.45811
# Velocity P-wave (km/s) = 7.40395 7.73164 7.56957
#
# Compressibility (1/GPa) = 0.01370349
#
# Stress axis : x y z
#
# Youngs Moduli (GPa) = 64.09271 64.91038 55.36278
#
# Poissons Ratio (x) = 0.01707 0.51932
# Poissons Ratio (y) = 0.01685 0.44514
# Poissons Ratio (z) = 0.60121 0.52191
#
# Static dielectric constant tensor:
#      x y z
#    x 1.652100 0.000000 0.000000 
#    y 0.000000 1.628130 0.000000 
#    z 0.000000 0.000000 1.595060 
# 
# From -- ./inp_files/19001.got.cif
#   From: 2010.05.17/outbox.cif.g08.bks.cpg/sg60_10_cif.got.tgz:19001.got - 2010.06.03 14:59:27.
