data_PCOD9456164
_publ_section_title
;
Structure prediction by ZEFSAII (Michael W. Deem and Ramdas Pophale) SiO2 
 PCOD9456164
Probable space group: P B C N
;
_chemical_formula_sum "Si O2"
_cell_formula_units_Z 40
_cell_length_a 5.598362
_cell_length_b 18.684514
_cell_length_c 17.246456
_cell_angle_alpha 90.000000
_cell_angle_beta 90.000000
_cell_angle_gamma 90.000000
_cell_volume 1804.025400
_symmetry_space_group_name_H-M "P B C N"
_symmetry_group_IT_number 60
_symmetry_cell_setting 'orthorhombic'
loop_
_space_group_symop_operation_xyz
x,y,z
1/2-x,1/2-y,1/2+z
1/2+x,1/2-y,-z
-x,y,1/2-z
-x,-y,-z
1/2+x,1/2+y,1/2-z
1/2-x,1/2+y,z
x,-y,1/2+z
loop_
_atom_site_type_symbol
_atom_site_label
_atom_site_fract_x
_atom_site_fract_y
_atom_site_fract_z
Si Si1 0.207304 0.944079 0.429063
Si Si2 0.675603 0.498787 0.821323
Si Si3 0.463112 0.142807 0.669727
Si Si4 0.692400 0.208865 0.990221
Si Si5 0.962592 0.415372 0.921384
O O1 0.288764 0.884089 0.367804
O O2 0.257112 0.910571 0.512563
O O3 0.963057 0.977721 0.400141
O O4 0.391809 0.010311 0.426286
O O5 0.500000 0.486709 0.750000
O O6 0.825566 0.570248 0.806125
O O7 0.828842 0.428107 0.840375
O O8 0.500000 0.184797 0.750000
O O9 0.325357 0.178211 0.597676
O O10 0.954580 0.241841 0.001875
O O11 0.642090 0.147145 0.054455
#
# Coordination Sequence:
#
# PCOD9456164 Si02
#       5
#     8   8   8   8   8
#     4   9  18  35  59  94 121 157 197 261 344 390
#     4  11  20  32  66 100 131 159 198 268 354 406
#     4  10  21  39  63  95 126 161 217 279 330 389
#     4  11  27  45  67  91 124 183 239 267 307 381
#     4   9  21  36  59  89 128 163 206 270 317 388
#
# _framework density 22.172637000000002
#
# number of rings (size 3 to 8) (size 9 to 14) (size 15 to 20)
#    0.000    2.000    2.000    1.800    8.400    0.000 
#    0.000    1.000    4.400    0.000    0.000    0.000 
#    0.000    0.000    0.000    0.000    0.000    0.000 
#
# Total GULP energy -222979.284361 kJ/mol
# GULP energy per Si atom -5574.482109 kJ/mol
# Density = 2.212217 g / cm^3
# Si number density = 22.172637 Si / 1000 Ang^3
#
#
#
# Elastic Constant Matrix: (Units=GPa)
#
#
# Indices 1 2 3 4 5 6 
#
# 1 74.0496 16.6201 31.7026 0.0000 0.0000 0.0000
# 2 16.6201 47.9286 35.5451 0.0000 0.0000 0.0000
# 3 31.7026 35.5451 87.9568 0.0000 0.0000 0.0000
# 4 0.0000 0.0000 0.0000 17.9721 0.0000 0.0000
# 5 0.0000 0.0000 0.0000 0.0000 36.2746 0.0000
# 6 0.0000 0.0000 0.0000 0.0000 0.0000 37.1204
#
#
#
# Elastic Compliance Matrix: (Units=1/GPa)
#
#
# Indices 1 2 3 4 5 6 
#
# 1 0.016080 -0.001824 -0.005058 0.000000 0.000000 0.000000
# 2 -0.001824 0.030001 -0.011466 0.000000 0.000000 0.000000
# 3 -0.005058 -0.011466 0.017826 0.000000 0.000000 0.000000
# 4 0.000000 0.000000 0.000000 0.055642 0.000000 0.000000
# 5 0.000000 0.000000 0.000000 0.000000 0.027568 0.000000
# 6 0.000000 0.000000 0.000000 0.000000 0.000000 0.026939
#
#
# Mechanical properties :
#
#
# Convention : Reuss Voigt Hill
#
# Bulk Modulus (GPa) = 36.75353 41.96340 39.35847
# Shear Modulus (GPa) = 22.74560 26.67789 24.71174
#
# Velocity S-wave (km/s) = 3.20635 3.47247 3.34206
# Velocity P-wave (km/s) = 5.50633 5.91981 5.71681
#
# Compressibility (1/GPa) = 0.02720827
#
# Stress axis : x y z
#
# Youngs Moduli (GPa) = 62.19079 33.33253 56.09731
#
# Poissons Ratio (x) = 0.06081 0.28376
# Poissons Ratio (y) = 0.11347 0.64323
# Poissons Ratio (z) = 0.31458 0.38220
#
# Static dielectric constant tensor:
#      x y z
#    x 1.876130 0.000000 0.000000 
#    y 0.000000 1.831800 0.000000 
#    z 0.000000 0.000000 1.897050 
# 
# From -- ./inp_files/18517.got.cif
#   From: 2010.05.17/outbox.cif.g08.bks.cpg/sg60_10_cif.got.tgz:18517.got - 2010.06.03 14:59:27.
