data_PCOD9456856
_publ_section_title
;
Structure prediction by ZEFSAII (Michael W. Deem and Ramdas Pophale) SiO2 
 PCOD9456856
Probable space group: P B C N
;
_chemical_formula_sum "Si O2"
_cell_formula_units_Z 40
_cell_length_a 12.590178
_cell_length_b 10.698410
_cell_length_c 13.976350
_cell_angle_alpha 90.000000
_cell_angle_beta 90.000000
_cell_angle_gamma 90.000000
_cell_volume 1882.542873
_symmetry_space_group_name_H-M "P B C N"
_symmetry_group_IT_number 60
_symmetry_cell_setting 'orthorhombic'
loop_
_space_group_symop_operation_xyz
x,y,z
1/2-x,1/2-y,1/2+z
1/2+x,1/2-y,-z
-x,y,1/2-z
-x,-y,-z
1/2+x,1/2+y,1/2-z
1/2-x,1/2+y,z
x,-y,1/2+z
loop_
_atom_site_type_symbol
_atom_site_label
_atom_site_fract_x
_atom_site_fract_y
_atom_site_fract_z
Si Si1 0.060308 0.881853 0.044242
Si Si2 0.201381 0.434721 0.095565
Si Si3 0.146602 0.355589 0.452297
Si Si4 0.608973 0.979461 0.711803
Si Si5 0.645121 0.760760 0.583740
O O1 0.170073 0.923733 0.094199
O O2 0.969814 0.800943 0.097797
O O3 0.102246 0.781768 0.966913
O O4 0.000000 0.000000 0.000000
O O5 0.163745 0.441806 0.204585
O O6 0.159775 0.564526 0.048635
O O7 0.157211 0.328189 0.021571
O O8 0.078970 0.430916 0.376332
O O9 0.265820 0.344833 0.412499
O O10 0.500000 0.924550 0.750000
O O11 0.671184 0.866405 0.662006
#
# Coordination Sequence:
#
# PCOD9456856 Si02
#       5
#     8   8   8   8   8
#     4  11  21  40  70  93 126 176 214 259 328 378
#     4  10  22  42  68  93 126 170 214 261 326 385
#     4  10  22  41  63  92 128 162 212 268 312 378
#     4  11  23  40  63  93 123 166 214 260 323 384
#     4  10  22  40  66  90 129 163 210 270 311 375
#
# _framework density 21.247858000000001
#
# number of rings (size 3 to 8) (size 9 to 14) (size 15 to 20)
#    0.000    1.600    2.000    2.400    0.000    8.000 
#    3.600    0.000    0.000    0.000    0.000    0.000 
#    0.000    0.000    0.000    0.000    0.000    0.000 
#
# Total GULP energy -223108.636727 kJ/mol
# GULP energy per Si atom -5577.715918 kJ/mol
# Density = 2.119950 g / cm^3
# Si number density = 21.247858 Si / 1000 Ang^3
#
#
#
# Elastic Constant Matrix: (Units=GPa)
#
#
# Indices 1 2 3 4 5 6 
#
# 1 89.8419 14.2228 14.0447 0.0000 0.0000 0.0000
# 2 14.2228 70.5592 0.7710 0.0000 0.0000 0.0000
# 3 14.0447 0.7710 41.9452 0.0000 0.0000 0.0000
# 4 0.0000 0.0000 0.0000 13.5909 0.0000 0.0000
# 5 0.0000 0.0000 0.0000 0.0000 15.5123 0.0000
# 6 0.0000 0.0000 0.0000 0.0000 0.0000 43.8920
#
#
#
# Elastic Compliance Matrix: (Units=1/GPa)
#
#
# Indices 1 2 3 4 5 6 
#
# 1 0.012140 -0.002403 -0.004021 0.000000 0.000000 0.000000
# 2 -0.002403 0.014651 0.000535 0.000000 0.000000 0.000000
# 3 -0.004021 0.000535 0.025177 0.000000 0.000000 0.000000
# 4 0.000000 0.000000 0.000000 0.073578 0.000000 0.000000
# 5 0.000000 0.000000 0.000000 0.000000 0.064465 0.000000
# 6 0.000000 0.000000 0.000000 0.000000 0.000000 0.022783
#
#
# Mechanical properties :
#
#
# Convention : Reuss Voigt Hill
#
# Bulk Modulus (GPa) = 24.88122 28.93595 26.90858
# Shear Modulus (GPa) = 21.01124 26.15291 23.58208
#
# Velocity S-wave (km/s) = 3.14803 3.51215 3.33507
# Velocity P-wave (km/s) = 4.99489 5.48587 5.24613
#
# Compressibility (1/GPa) = 0.04019096
#
# Stress axis : x y z
#
# Youngs Moduli (GPa) = 82.37497 68.25456 39.71881
#
# Poissons Ratio (x) = 0.16402 0.15969
# Poissons Ratio (y) = 0.19795 -0.02126
# Poissons Ratio (z) = 0.33119 -0.03654
#
# Static dielectric constant tensor:
#      x y z
#    x 1.831450 0.000000 0.000000 
#    y 0.000000 1.749300 0.000000 
#    z 0.000000 0.000000 1.752360 
# 
# From -- ./inp_files/11700.got.cif
#   From: 2010.05.17/outbox.cif.g08.bks.cpg/sg60_6_cif.got.tgz:11700.got - 2010.06.03 14:59:27.
