data_PCOD9456042
_publ_section_title
;
Structure prediction by ZEFSAII (Michael W. Deem and Ramdas Pophale) SiO2 
 PCOD9456042
Probable space group: P B C N
;
_chemical_formula_sum "Si O2"
_cell_formula_units_Z 52
_cell_length_a 14.610404
_cell_length_b 8.864285
_cell_length_c 21.153689
_cell_angle_alpha 90.000000
_cell_angle_beta 90.000000
_cell_angle_gamma 90.000000
_cell_volume 2739.630868
_symmetry_space_group_name_H-M "P B C N"
_symmetry_group_IT_number 60
_symmetry_cell_setting 'orthorhombic'
loop_
_space_group_symop_operation_xyz
x,y,z
1/2-x,1/2-y,1/2+z
1/2+x,1/2-y,-z
-x,y,1/2-z
-x,-y,-z
1/2+x,1/2+y,1/2-z
1/2-x,1/2+y,z
x,-y,1/2+z
loop_
_atom_site_type_symbol
_atom_site_label
_atom_site_fract_x
_atom_site_fract_y
_atom_site_fract_z
Si Si1 0.530531 0.488804 0.118505
Si Si2 0.000000 0.126761 0.250000
Si Si3 0.321410 0.182797 0.734603
Si Si4 0.234087 0.059260 0.861272
Si Si5 0.335473 0.291542 0.926551
Si Si6 0.215140 0.421093 0.647459
Si Si7 0.650483 0.641767 0.929899
O O1 0.491863 0.522997 0.188096
O O2 0.627300 0.400114 0.124588
O O3 0.563133 0.650198 0.090146
O O4 0.454199 0.410754 0.076734
O O5 0.912023 0.233041 0.242068
O O6 0.265575 0.106939 0.791966
O O7 0.264327 0.311303 0.698043
O O8 0.341521 0.047874 0.685198
O O9 0.305944 0.123782 0.911828
O O10 0.227282 0.881307 0.875374
O O11 0.318656 0.342680 0.997740
O O12 0.288506 0.517487 0.606830
O O13 0.161921 0.304533 0.602986
#
# Coordination Sequence:
#
# PCOD9456042 Si02
#       7
#     8   4   8   8   8   8   8
#     4  10  23  37  64  91 118 166 207 257 300 377
#     4  12  20  40  62  88 126 158 208 256 316 362
#     4  11  20  41  58  89 123 158 204 255 313 365
#     4  10  21  38  62  90 117 162 200 255 313 364
#     4  10  21  39  63  87 123 162 200 252 306 373
#     4  10  23  36  62  85 122 162 200 256 308 365
#     4  11  21  42  60  91 124 162 214 245 313 374
#
# _framework density 18.980658999999999
#
# number of rings (size 3 to 8) (size 9 to 14) (size 15 to 20)
#    0.923    0.615    3.077    3.231    2.154    0.000 
#    5.538    0.000    0.000    2.769    0.000    0.000 
#    0.000    0.000    0.000    0.000    0.000    0.000 
#
# Total GULP energy -289615.377294 kJ/mol
# GULP energy per Si atom -5569.526486 kJ/mol
# Density = 1.893746 g / cm^3
# Si number density = 18.980659 Si / 1000 Ang^3
#
#
#
# Elastic Constant Matrix: (Units=GPa)
#
#
# Indices 1 2 3 4 5 6 
#
# 1 49.3158 0.3229 1.6601 0.0000 0.0000 0.0000
# 2 0.3229 56.9408 12.1418 0.0000 0.0000 0.0000
# 3 1.6601 12.1418 80.1533 0.0000 0.0000 0.0000
# 4 0.0000 0.0000 0.0000 21.9549 0.0000 0.0000
# 5 0.0000 0.0000 0.0000 0.0000 22.8354 0.0000
# 6 0.0000 0.0000 0.0000 0.0000 0.0000 27.1048
#
#
#
# Elastic Compliance Matrix: (Units=1/GPa)
#
#
# Indices 1 2 3 4 5 6 
#
# 1 0.020292 -0.000026 -0.000416 0.000000 0.000000 0.000000
# 2 -0.000026 0.018148 -0.002749 0.000000 0.000000 0.000000
# 3 -0.000416 -0.002749 0.012901 0.000000 0.000000 0.000000
# 4 0.000000 0.000000 0.000000 0.045548 0.000000 0.000000
# 5 0.000000 0.000000 0.000000 0.000000 0.043792 0.000000
# 6 0.000000 0.000000 0.000000 0.000000 0.000000 0.036894
#
#
# Mechanical properties :
#
#
# Convention : Reuss Voigt Hill
#
# Bulk Modulus (GPa) = 22.24264 23.85106 23.04685
# Shear Modulus (GPa) = 25.13280 25.86468 25.49874
#
# Velocity S-wave (km/s) = 3.64280 3.69546 3.66923
# Velocity P-wave (km/s) = 5.42562 5.54994 5.48813
#
# Compressibility (1/GPa) = 0.04495869
#
# Stress axis : x y z
#
# Youngs Moduli (GPa) = 49.28134 55.10141 77.51289
#
# Poissons Ratio (x) = 0.00145 0.03227
# Poissons Ratio (y) = 0.00130 0.21305
# Poissons Ratio (z) = 0.02051 0.15145
#
# Static dielectric constant tensor:
#      x y z
#    x 1.653390 0.000000 0.000000 
#    y 0.000000 1.648690 0.000000 
#    z 0.000000 0.000000 1.685560 
# 
# From -- ./inp_files/22856.got.cif
#   From: 2010.05.17/outbox.cif.g08.bks.cpg/sg60_12_cif.got.tgz:22856.got - 2010.06.03 14:59:27.
