data_PCOD9456340
_publ_section_title
;
Structure prediction by ZEFSAII (Michael W. Deem and Ramdas Pophale) SiO2 
 PCOD9456340
Probable space group: P B C N
;
_chemical_formula_sum "Si O2"
_cell_formula_units_Z 48
_cell_length_a 7.215284
_cell_length_b 30.270197
_cell_length_c 9.421876
_cell_angle_alpha 90.000000
_cell_angle_beta 90.000000
_cell_angle_gamma 90.000000
_cell_volume 2057.813735
_symmetry_space_group_name_H-M "P B C N"
_symmetry_group_IT_number 60
_symmetry_cell_setting 'orthorhombic'
loop_
_space_group_symop_operation_xyz
x,y,z
1/2-x,1/2-y,1/2+z
1/2+x,1/2-y,-z
-x,y,1/2-z
-x,-y,-z
1/2+x,1/2+y,1/2-z
1/2-x,1/2+y,z
x,-y,1/2+z
loop_
_atom_site_type_symbol
_atom_site_label
_atom_site_fract_x
_atom_site_fract_y
_atom_site_fract_z
Si Si1 0.684837 0.451857 0.560202
Si Si2 0.115212 0.694631 0.117388
Si Si3 0.670944 0.112979 0.561853
Si Si4 0.152170 0.280198 0.129605
Si Si5 0.755926 0.030183 0.374175
Si Si6 0.737577 0.626789 0.868172
O O1 0.787930 0.459570 0.710058
O O2 0.477561 0.466488 0.600554
O O3 0.781383 0.481703 0.438312
O O4 0.658427 0.403432 0.492848
O O5 0.253866 0.733586 0.158119
O O6 0.000000 0.676023 0.250000
O O7 0.218493 0.655265 0.034965
O O8 0.962576 0.717474 0.015694
O O9 0.676771 0.068312 0.473726
O O10 0.458060 0.122071 0.602510
O O11 0.789439 0.110668 0.706428
O O12 0.296932 0.320858 0.126678
O O13 0.000000 0.289301 0.250000
#
# Coordination Sequence:
#
# PCOD9456340 Si02
#       6
#     8   8   8   8   8   8
#     4  10  22  40  63  91 125 163 201 258 304 371
#     4  11  24  39  67  92 127 169 211 266 319 373
#     4  10  22  40  60  89 122 162 205 253 307 371
#     4  11  22  45  62  92 129 166 214 263 314 386
#     4  10  22  40  62  93 125 159 208 250 310 368
#     4  10  21  41  63  84 124 164 204 254 308 365
#
# _framework density 23.325726
#
# number of rings (size 3 to 8) (size 9 to 14) (size 15 to 20)
#    0.000    1.667    3.333    2.000    4.667    4.000 
#    3.000    0.000    0.000    0.000    0.000    0.000 
#    0.000    0.000    0.000    0.000    0.000    0.000 
#
# Total GULP energy -268258.898833 kJ/mol
# GULP energy per Si atom -5588.727059 kJ/mol
# Density = 2.327264 g / cm^3
# Si number density = 23.325726 Si / 1000 Ang^3
#
#
#
# Elastic Constant Matrix: (Units=GPa)
#
#
# Indices 1 2 3 4 5 6 
#
# 1 28.0870 9.0329 16.0483 0.0000 0.0000 0.0000
# 2 9.0329 128.4468 40.4970 0.0000 0.0000 0.0000
# 3 16.0483 40.4970 132.9685 0.0000 0.0000 0.0000
# 4 0.0000 0.0000 0.0000 34.6211 0.0000 0.0000
# 5 0.0000 0.0000 0.0000 0.0000 25.7116 0.0000
# 6 0.0000 0.0000 0.0000 0.0000 0.0000 28.6605
#
#
#
# Elastic Compliance Matrix: (Units=1/GPa)
#
#
# Indices 1 2 3 4 5 6 
#
# 1 0.038458 -0.001373 -0.004224 0.000000 0.000000 0.000000
# 2 -0.001373 0.008661 -0.002472 0.000000 0.000000 0.000000
# 3 -0.004224 -0.002472 0.008783 0.000000 0.000000 0.000000
# 4 0.000000 0.000000 0.000000 0.028884 0.000000 0.000000
# 5 0.000000 0.000000 0.000000 0.000000 0.038893 0.000000
# 6 0.000000 0.000000 0.000000 0.000000 0.000000 0.034891
#
#
# Mechanical properties :
#
#
# Convention : Reuss Voigt Hill
#
# Bulk Modulus (GPa) = 25.14729 46.73986 35.94358
# Shear Modulus (GPa) = 26.60086 32.72690 29.66388
#
# Velocity S-wave (km/s) = 3.38066 3.74978 3.56999
# Velocity P-wave (km/s) = 5.10321 6.23131 5.69526
#
# Compressibility (1/GPa) = 0.03976571
#
# Stress axis : x y z
#
# Youngs Moduli (GPa) = 26.00210 115.45588 113.85290
#
# Poissons Ratio (x) = 0.15851 0.48086
# Poissons Ratio (y) = 0.03570 0.28147
# Poissons Ratio (z) = 0.10982 0.28543
#
# Static dielectric constant tensor:
#      x y z
#    x 1.941820 0.000000 0.000000 
#    y 0.000000 1.877580 0.000000 
#    z 0.000000 0.000000 2.017770 
# 
# From -- ./inp_files/4230.got.cif
#   From: 2010.05.17/outbox.cif.g08.bks.cpg/sg60_3_cif.got.tgz:4230.got - 2010.06.03 14:59:27.
