data_PCOD9456086
_publ_section_title
;
Structure prediction by ZEFSAII (Michael W. Deem and Ramdas Pophale) SiO2 
 PCOD9456086
Probable space group: P B C N
;
_chemical_formula_sum "Si O2"
_cell_formula_units_Z 52
_cell_length_a 5.172130
_cell_length_b 22.825424
_cell_length_c 20.133614
_cell_angle_alpha 90.000000
_cell_angle_beta 90.000000
_cell_angle_gamma 90.000000
_cell_volume 2376.895147
_symmetry_space_group_name_H-M "P B C N"
_symmetry_group_IT_number 60
_symmetry_cell_setting 'orthorhombic'
loop_
_space_group_symop_operation_xyz
x,y,z
1/2-x,1/2-y,1/2+z
1/2+x,1/2-y,-z
-x,y,1/2-z
-x,-y,-z
1/2+x,1/2+y,1/2-z
1/2-x,1/2+y,z
x,-y,1/2+z
loop_
_atom_site_type_symbol
_atom_site_label
_atom_site_fract_x
_atom_site_fract_y
_atom_site_fract_z
Si Si1 0.500000 0.793768 0.250000
Si Si2 0.431076 0.955058 0.692760
Si Si3 0.082808 0.440343 0.462454
Si Si4 0.404917 0.548212 0.623920
Si Si5 0.507107 0.146018 0.081068
Si Si6 0.500000 0.608530 0.250000
Si Si7 0.986391 0.199821 0.366975
Si Si8 0.500000 0.625764 0.750000
O O1 0.520765 0.754677 0.182349
O O2 0.247736 0.832811 0.246195
O O3 0.500000 0.007109 0.750000
O O4 0.191219 0.985646 0.651758
O O5 0.514719 0.907684 0.635436
O O6 0.269402 0.925207 0.755656
O O7 0.360001 0.452778 0.428701
O O8 0.071101 0.386889 0.513790
O O9 0.000000 0.500000 0.500000
O O10 0.859155 0.428285 0.408721
O O11 0.503257 0.586399 0.684568
O O12 0.777119 0.181034 0.085849
O O13 0.287644 0.193985 0.097431
O O14 0.470405 0.647457 0.186244
#
# Coordination Sequence:
#
# PCOD9456086 Si02
#       8
#     4   8   8   8   8   4   8   4
#     4  11  24  46  75 100 135 160 238 301 372 396
#     4  11  22  34  59  94 140 175 219 274 332 411
#     4  12  26  44  63  98 144 197 226 263 317 421
#     4  12  28  42  67  94 140 183 243 263 336 409
#     4  11  22  38  65  95 141 174 212 268 349 398
#     4   9  19  30  52  90 132 154 199 261 348 392
#     4  10  21  38  65  99 124 165 209 289 350 414
#     4  12  27  48  73  98 131 186 223 306 346 396
#
# _framework density 21.877281
#
# number of rings (size 3 to 8) (size 9 to 14) (size 15 to 20)
#    0.000    0.923    3.077    3.692    9.692    0.000 
#    0.000    0.000    0.000   18.462    0.000    0.000 
#    0.000    0.000    0.000    0.000    0.000    0.000 
#
# Total GULP energy -289566.630189 kJ/mol
# GULP energy per Si atom -5568.589042 kJ/mol
# Density = 2.182749 g / cm^3
# Si number density = 21.877281 Si / 1000 Ang^3
#
#
#
# Elastic Constant Matrix: (Units=GPa)
#
#
# Indices 1 2 3 4 5 6 
#
# 1 111.4734 2.4413 8.9242 0.0000 0.0000 0.0000
# 2 2.4413 50.5299 1.7894 0.0000 0.0000 0.0000
# 3 8.9242 1.7894 60.0301 0.0000 0.0000 0.0000
# 4 0.0000 0.0000 0.0000 13.6816 0.0000 0.0000
# 5 0.0000 0.0000 0.0000 0.0000 44.4903 0.0000
# 6 0.0000 0.0000 0.0000 0.0000 0.0000 27.9237
#
#
#
# Elastic Compliance Matrix: (Units=1/GPa)
#
#
# Indices 1 2 3 4 5 6 
#
# 1 0.009087 -0.000392 -0.001339 0.000000 0.000000 0.000000
# 2 -0.000392 0.019828 -0.000533 0.000000 0.000000 0.000000
# 3 -0.001339 -0.000533 0.016873 0.000000 0.000000 0.000000
# 4 0.000000 0.000000 0.000000 0.073091 0.000000 0.000000
# 5 0.000000 0.000000 0.000000 0.000000 0.022477 0.000000
# 6 0.000000 0.000000 0.000000 0.000000 0.000000 0.035812
#
#
# Mechanical properties :
#
#
# Convention : Reuss Voigt Hill
#
# Bulk Modulus (GPa) = 24.23609 27.59366 25.91488
# Shear Modulus (GPa) = 25.58226 31.14436 28.36331
#
# Velocity S-wave (km/s) = 3.42329 3.77715 3.60456
# Velocity P-wave (km/s) = 5.16986 5.62697 5.40325
#
# Compressibility (1/GPa) = 0.04126077
#
# Stress axis : x y z
#
# Youngs Moduli (GPa) = 110.05293 50.43364 59.26532
#
# Poissons Ratio (x) = 0.01975 0.07936
# Poissons Ratio (y) = 0.04309 0.03158
# Poissons Ratio (z) = 0.14738 0.02687
#
# Static dielectric constant tensor:
#      x y z
#    x 1.366540 0.000000 0.000000 
#    y 0.000000 1.813520 0.000000 
#    z 0.000000 0.000000 1.893170 
# 
# From -- ./inp_files/21688.got.cif
#   From: 2010.05.17/outbox.cif.g08.bks.cpg/sg60_11_cif.got.tgz:21688.got - 2010.06.03 14:59:27.
