data_PCOD9456503
_publ_section_title
;
Structure prediction by ZEFSAII (Michael W. Deem and Ramdas Pophale) SiO2 
 PCOD9456503
Probable space group: P B C N
;
_chemical_formula_sum "Si O2"
_cell_formula_units_Z 40
_cell_length_a 15.422376
_cell_length_b 8.732315
_cell_length_c 12.722822
_cell_angle_alpha 90.000000
_cell_angle_beta 90.000000
_cell_angle_gamma 90.000000
_cell_volume 1713.421183
_symmetry_space_group_name_H-M "P B C N"
_symmetry_group_IT_number 60
_symmetry_cell_setting 'orthorhombic'
loop_
_space_group_symop_operation_xyz
x,y,z
1/2-x,1/2-y,1/2+z
1/2+x,1/2-y,-z
-x,y,1/2-z
-x,-y,-z
1/2+x,1/2+y,1/2-z
1/2-x,1/2+y,z
x,-y,1/2+z
loop_
_atom_site_type_symbol
_atom_site_label
_atom_site_fract_x
_atom_site_fract_y
_atom_site_fract_z
Si Si1 0.703067 0.848449 0.222604
Si Si2 0.633576 0.813587 0.669946
Si Si3 0.428718 0.372449 0.679101
Si Si4 0.489033 0.180273 0.999436
Si Si5 0.847320 0.832342 0.386120
O O1 0.780045 0.787430 0.147862
O O2 0.636799 0.711872 0.243039
O O3 0.749929 0.857942 0.339843
O O4 0.661511 0.007188 0.183041
O O5 0.557976 0.773704 0.589835
O O6 0.611683 0.759586 0.787427
O O7 0.500000 0.454462 0.750000
O O8 0.475354 0.247125 0.608583
O O9 0.383359 0.496868 0.606908
O O10 0.390621 0.238211 0.019233
O O11 0.500000 0.000000 0.000000
#
# Coordination Sequence:
#
# PCOD9456503 Si02
#       5
#     8   8   8   8   8
#     4  10  21  44  67  94 129 174 216 277 337 396
#     4  10  21  43  69  92 133 168 226 272 345 386
#     4  12  24  43  68  98 136 181 226 273 342 399
#     4  12  25  41  66 104 134 179 224 282 332 411
#     4  10  22  44  69  97 135 175 226 283 337 395
#
# _framework density 23.345106999999999
#
# number of rings (size 3 to 8) (size 9 to 14) (size 15 to 20)
#    1.200    0.000    2.000    4.800    0.000    0.000 
#   10.800    0.000    0.000    0.000    0.000    0.000 
#    0.000    0.000    0.000    0.000    0.000    0.000 
#
# Total GULP energy -223003.217437 kJ/mol
# GULP energy per Si atom -5575.080436 kJ/mol
# Density = 2.329197 g / cm^3
# Si number density = 23.345107 Si / 1000 Ang^3
#
#
#
# Elastic Constant Matrix: (Units=GPa)
#
#
# Indices 1 2 3 4 5 6 
#
# 1 82.0694 -0.8334 8.6650 0.0000 0.0000 0.0000
# 2 -0.8334 98.6640 -20.6351 0.0000 0.0000 0.0000
# 3 8.6650 -20.6351 24.7980 0.0000 0.0000 0.0000
# 4 0.0000 0.0000 0.0000 25.3473 0.0000 0.0000
# 5 0.0000 0.0000 0.0000 0.0000 37.4016 0.0000
# 6 0.0000 0.0000 0.0000 0.0000 0.0000 -1.2415
#
#
#
# Elastic Compliance Matrix: (Units=1/GPa)
#
#
# Indices 1 2 3 4 5 6 
#
# 1 0.012732 -0.000996 -0.005278 0.000000 0.000000 0.000000
# 2 -0.000996 0.012349 0.010624 0.000000 0.000000 0.000000
# 3 -0.005278 0.010624 0.051011 0.000000 0.000000 0.000000
# 4 0.000000 0.000000 0.000000 0.039452 0.000000 0.000000
# 5 0.000000 0.000000 0.000000 0.000000 0.026737 0.000000
# 6 0.000000 0.000000 0.000000 0.000000 0.000000 -0.805480
#
#
# Mechanical properties :
#
#
# Convention : Reuss Voigt Hill
#
# Bulk Modulus (GPa) = 11.79367 19.99162 15.89264
# Shear Modulus (GPa) = -7.76837 26.85714 9.54439
#
# Velocity S-wave (km/s) = -1.82616 3.39549 2.02417
# Velocity P-wave (km/s) = 0.78510 4.89434 3.50507
#
# Compressibility (1/GPa) = 0.08479122
#
# Stress axis : x y z
#
# Youngs Moduli (GPa) = 78.54260 80.97848 19.60375
#
# Poissons Ratio (x) = 0.08068 0.10347
# Poissons Ratio (y) = 0.07825 -0.20827
# Poissons Ratio (z) = 0.41454 -0.86032
#
# Static dielectric constant tensor:
#      x y z
#    x 1.963260 0.000000 0.000000 
#    y 0.000000 1.846210 0.000000 
#    z 0.000000 0.000000 1.914300 
# 
# From -- ./inp_files/17216.got.cif
#   From: 2010.05.17/outbox.cif.g08.bks.cpg/sg60_9_cif.got.tgz:17216.got - 2010.06.03 14:59:27.
