data_PCOD9456120
_publ_section_title
;
Structure prediction by ZEFSAII (Michael W. Deem and Ramdas Pophale) SiO2 
 PCOD9456120
Probable space group: P B C N
;
_chemical_formula_sum "Si O2"
_cell_formula_units_Z 48
_cell_length_a 5.275502
_cell_length_b 13.637508
_cell_length_c 24.560562
_cell_angle_alpha 90.000000
_cell_angle_beta 90.000000
_cell_angle_gamma 90.000000
_cell_volume 1767.002283
_symmetry_space_group_name_H-M "P B C N"
_symmetry_group_IT_number 60
_symmetry_cell_setting 'orthorhombic'
loop_
_space_group_symop_operation_xyz
x,y,z
1/2-x,1/2-y,1/2+z
1/2+x,1/2-y,-z
-x,y,1/2-z
-x,-y,-z
1/2+x,1/2+y,1/2-z
1/2-x,1/2+y,z
x,-y,1/2+z
loop_
_atom_site_type_symbol
_atom_site_label
_atom_site_fract_x
_atom_site_fract_y
_atom_site_fract_z
Si Si1 0.021092 0.852422 0.884569
Si Si2 0.121051 0.848395 0.306054
Si Si3 0.640682 0.202064 0.024362
Si Si4 0.882434 0.530037 0.424409
Si Si5 0.909281 0.388637 0.691170
Si Si6 0.138467 0.645969 0.635107
O O1 0.243247 0.789341 0.914653
O O2 0.122011 0.904457 0.830388
O O3 0.902316 0.928138 0.927367
O O4 0.842310 0.762112 0.871130
O O5 0.411595 0.870679 0.321335
O O6 0.000000 0.885462 0.250000
O O7 0.920094 0.886348 0.349809
O O8 0.097869 0.729822 0.303400
O O9 0.546976 0.089726 0.032605
O O10 0.386292 0.264398 0.010999
O O11 0.927100 0.415124 0.418696
O O12 0.944133 0.566562 0.361314
O O13 0.000000 0.425846 0.750000
#
# Coordination Sequence:
#
# PCOD9456120 Si02
#       6
#     8   8   8   8   8   8
#     4  10  22  43  66  96 133 174 210 269 330 380
#     4  10  21  39  60  89 131 177 218 264 314 370
#     4  11  23  43  73  94 123 167 210 270 338 396
#     4  11  23  41  67  95 129 172 218 265 325 382
#     4   9  20  37  62  94 130 176 219 261 315 380
#     4  11  24  39  64  94 130 171 218 267 318 384
#
# _framework density 27.164653000000001
#
# number of rings (size 3 to 8) (size 9 to 14) (size 15 to 20)
#    0.000    1.667    3.333    0.500    4.667    2.000 
#    0.000    1.667    0.000    0.000    0.000    0.000 
#    0.000    0.000    0.000    0.000    0.000    0.000 
#
# Total GULP energy -267743.697222 kJ/mol
# GULP energy per Si atom -5577.993692 kJ/mol
# Density = 2.710282 g / cm^3
# Si number density = 27.164653 Si / 1000 Ang^3
#
#
#
# Elastic Constant Matrix: (Units=GPa)
#
#
# Indices 1 2 3 4 5 6 
#
# 1 118.4936 33.3473 1.0401 0.0000 0.0000 0.0000
# 2 33.3473 85.0433 -21.7938 0.0000 0.0000 0.0000
# 3 1.0401 -21.7938 73.9301 0.0000 0.0000 0.0000
# 4 0.0000 0.0000 0.0000 29.5034 0.0000 0.0000
# 5 0.0000 0.0000 0.0000 0.0000 7.8792 0.0000
# 6 0.0000 0.0000 0.0000 0.0000 0.0000 13.5342
#
#
#
# Elastic Compliance Matrix: (Units=1/GPa)
#
#
# Indices 1 2 3 4 5 6 
#
# 1 0.009609 -0.004113 -0.001348 0.000000 0.000000 0.000000
# 2 -0.004113 0.014480 0.004326 0.000000 0.000000 0.000000
# 3 -0.001348 0.004326 0.014821 0.000000 0.000000 0.000000
# 4 0.000000 0.000000 0.000000 0.033894 0.000000 0.000000
# 5 0.000000 0.000000 0.000000 0.000000 0.126917 0.000000
# 6 0.000000 0.000000 0.000000 0.000000 0.000000 0.073887
#
#
# Mechanical properties :
#
#
# Convention : Reuss Voigt Hill
#
# Bulk Modulus (GPa) = 27.29184 33.62824 30.46004
# Shear Modulus (GPa) = 17.35566 27.84157 22.59861
#
# Velocity S-wave (km/s) = 2.53040 3.20491 2.88742
# Velocity P-wave (km/s) = 4.31345 5.10897 4.72797
#
# Compressibility (1/GPa) = 0.03664098
#
# Stress axis : x y z
#
# Youngs Moduli (GPa) = 104.07293 69.05935 67.47341
#
# Poissons Ratio (x) = 0.28405 0.09093
# Poissons Ratio (y) = 0.42806 -0.29192
# Poissons Ratio (z) = 0.14026 -0.29878
#
# Static dielectric constant tensor:
#      x y z
#    x 2.341020 0.000000 0.000000 
#    y 0.000000 2.175290 0.000000 
#    z 0.000000 0.000000 2.203730 
# 
# From -- ./inp_files/24865.got.cif
#   From: 2010.05.17/outbox.cif.g08.bks.cpg/sg60_13_cif.got.tgz:24865.got - 2010.06.03 14:59:27.
