data_PCOD9456499
_publ_section_title
;
Structure prediction by ZEFSAII (Michael W. Deem and Ramdas Pophale) SiO2 
 PCOD9456499
Probable space group: P B C N
;
_chemical_formula_sum "Si O2"
_cell_formula_units_Z 48
_cell_length_a 22.974842
_cell_length_b 7.989358
_cell_length_c 11.509874
_cell_angle_alpha 90.000000
_cell_angle_beta 90.000000
_cell_angle_gamma 90.000000
_cell_volume 2112.686148
_symmetry_space_group_name_H-M "P B C N"
_symmetry_group_IT_number 60
_symmetry_cell_setting 'orthorhombic'
loop_
_space_group_symop_operation_xyz
x,y,z
1/2-x,1/2-y,1/2+z
1/2+x,1/2-y,-z
-x,y,1/2-z
-x,-y,-z
1/2+x,1/2+y,1/2-z
1/2-x,1/2+y,z
x,-y,1/2+z
loop_
_atom_site_type_symbol
_atom_site_label
_atom_site_fract_x
_atom_site_fract_y
_atom_site_fract_z
Si Si1 0.067074 0.231510 0.755097
Si Si2 0.131976 0.346444 0.535581
Si Si3 0.335370 0.362764 0.414759
Si Si4 0.339681 0.206877 0.649346
Si Si5 0.226688 0.799471 0.859366
Si Si6 0.440038 0.127610 0.810505
O O1 0.107177 0.230042 0.639249
O O2 0.102280 0.141440 0.856598
O O3 0.064907 0.429038 0.786817
O O4 0.000000 0.174436 0.750000
O O5 0.148125 0.527740 0.589184
O O6 0.188577 0.288619 0.461973
O O7 0.077551 0.354660 0.445075
O O8 0.338906 0.349292 0.552653
O O9 0.298315 0.515185 0.366475
O O10 0.295358 0.203710 0.381372
O O11 0.284544 0.218269 0.733497
O O12 0.391640 0.228368 0.740113
O O13 0.500000 0.179274 0.750000
#
# Coordination Sequence:
#
# PCOD9456499 Si02
#       6
#     8   8   8   8   8   8
#     4  10  23  39  67 100 136 181 227 275 343 399
#     4  10  21  43  68  99 136 173 226 282 329 405
#     4  12  26  44  68  96 137 177 228 282 344 407
#     4  10  23  42  67  95 136 168 227 273 336 402
#     4  11  28  43  68 100 130 180 225 281 346 402
#     4   9  19  37  69 102 131 174 225 275 326 398
#
# _framework density 22.719891000000001
#
# number of rings (size 3 to 8) (size 9 to 14) (size 15 to 20)
#    0.000    1.667    1.667    1.000   11.667    2.000 
#    0.000    4.167    0.000    0.000    0.000    0.000 
#    0.000    0.000    0.000    0.000    0.000    0.000 
#
# Total GULP energy -268092.526393 kJ/mol
# GULP energy per Si atom -5585.260967 kJ/mol
# Density = 2.266818 g / cm^3
# Si number density = 22.719891 Si / 1000 Ang^3
#
#
#
# Elastic Constant Matrix: (Units=GPa)
#
#
# Indices 1 2 3 4 5 6 
#
# 1 52.5616 20.7293 5.3199 0.0000 0.0000 0.0000
# 2 20.7293 38.6721 18.0111 0.0000 0.0000 0.0000
# 3 5.3199 18.0111 124.5656 0.0000 0.0000 0.0000
# 4 0.0000 0.0000 0.0000 19.4230 0.0000 0.0000
# 5 0.0000 0.0000 0.0000 0.0000 18.2356 0.0000
# 6 0.0000 0.0000 0.0000 0.0000 0.0000 21.5288
#
#
#
# Elastic Compliance Matrix: (Units=1/GPa)
#
#
# Indices 1 2 3 4 5 6 
#
# 1 0.024220 -0.013403 0.000904 0.000000 0.000000 0.000000
# 2 -0.013403 0.035143 -0.004509 0.000000 0.000000 0.000000
# 3 0.000904 -0.004509 0.008641 0.000000 0.000000 0.000000
# 4 0.000000 0.000000 0.000000 0.051485 0.000000 0.000000
# 5 0.000000 0.000000 0.000000 0.000000 0.054838 0.000000
# 6 0.000000 0.000000 0.000000 0.000000 0.000000 0.046449
#
#
# Mechanical properties :
#
#
# Convention : Reuss Voigt Hill
#
# Bulk Modulus (GPa) = 29.42320 33.76887 31.59603
# Shear Modulus (GPa) = 18.78831 23.28674 21.03753
#
# Velocity S-wave (km/s) = 2.87880 3.20496 3.04625
# Velocity P-wave (km/s) = 4.90189 5.34706 5.12931
#
# Compressibility (1/GPa) = 0.03398679
#
# Stress axis : x y z
#
# Youngs Moduli (GPa) = 41.28838 28.45516 115.72383
#
# Poissons Ratio (x) = 0.38140 -0.10457
# Poissons Ratio (y) = 0.55340 0.52179
# Poissons Ratio (z) = -0.03731 0.12830
#
# Static dielectric constant tensor:
#      x y z
#    x 1.871010 0.000000 0.000000 
#    y 0.000000 1.896360 0.000000 
#    z 0.000000 0.000000 1.893640 
# 
# From -- ./inp_files/13054.got.cif
#   From: 2010.05.17/outbox.cif.g08.bks.cpg/sg60_7_cif.got.tgz:13054.got - 2010.06.03 14:59:27.
