data_PCOD9456617
_publ_section_title
;
Structure prediction by ZEFSAII (Michael W. Deem and Ramdas Pophale) SiO2 
 PCOD9456617
Probable space group: P B C N
;
_chemical_formula_sum "Si O2"
_cell_formula_units_Z 48
_cell_length_a 5.074116
_cell_length_b 20.417902
_cell_length_c 26.209875
_cell_angle_alpha 90.000000
_cell_angle_beta 90.000000
_cell_angle_gamma 90.000000
_cell_volume 2715.416522
_symmetry_space_group_name_H-M "P B C N"
_symmetry_group_IT_number 60
_symmetry_cell_setting 'orthorhombic'
loop_
_space_group_symop_operation_xyz
x,y,z
1/2-x,1/2-y,1/2+z
1/2+x,1/2-y,-z
-x,y,1/2-z
-x,-y,-z
1/2+x,1/2+y,1/2-z
1/2-x,1/2+y,z
x,-y,1/2+z
loop_
_atom_site_type_symbol
_atom_site_label
_atom_site_fract_x
_atom_site_fract_y
_atom_site_fract_z
Si Si1 0.194826 0.873336 0.598243
Si Si2 0.576517 0.575353 0.002292
Si Si3 0.499778 0.008697 0.363918
Si Si4 0.854465 0.253701 0.463685
Si Si5 0.927813 0.609676 0.559064
Si Si6 0.519326 0.441693 0.809685
O O1 0.979226 0.900716 0.558996
O O2 0.249142 0.802525 0.574686
O O3 0.088259 0.877493 0.656095
O O4 0.419311 0.929640 0.599778
O O5 0.873247 0.584517 0.984612
O O6 0.367080 0.609263 0.963435
O O7 0.500000 0.500000 0.000000
O O8 0.456579 0.942413 0.395416
O O9 0.246287 0.028489 0.332048
O O10 0.747729 0.008127 0.325383
O O11 0.611716 0.267237 0.502589
O O12 0.960927 0.317106 0.433174
O O13 0.500000 0.429553 0.750000
#
# Coordination Sequence:
#
# PCOD9456617 Si02
#       6
#     8   8   8   8   8   8
#     4  10  23  34  58  83 115 155 200 226 288 349
#     4  12  21  32  55  82 118 152 189 231 274 348
#     4  10  22  36  61  86 109 146 196 242 295 346
#     4  12  24  36  52  83 127 165 189 224 279 353
#     4  12  22  36  53  84 124 156 186 227 290 344
#     4  10  22  40  62  84 109 139 198 263 300 332
#
# _framework density 17.676848
#
# number of rings (size 3 to 8) (size 9 to 14) (size 15 to 20)
#    1.000    0.000    5.000    3.000    4.667    0.000 
#    0.000    0.000    0.000    2.000    0.000    0.000 
#    0.000    0.000    0.000    0.000    0.000    0.000 
#
# Total GULP energy -267475.043975 kJ/mol
# GULP energy per Si atom -5572.396749 kJ/mol
# Density = 1.763661 g / cm^3
# Si number density = 17.676848 Si / 1000 Ang^3
#
#
#
# Elastic Constant Matrix: (Units=GPa)
#
#
# Indices 1 2 3 4 5 6 
#
# 1 82.2669 2.5891 22.1454 0.0000 0.0000 0.0000
# 2 2.5891 109.8813 43.5483 0.0000 0.0000 0.0000
# 3 22.1454 43.5483 119.1184 0.0000 0.0000 0.0000
# 4 0.0000 0.0000 0.0000 14.4680 0.0000 0.0000
# 5 0.0000 0.0000 0.0000 0.0000 1.8480 0.0000
# 6 0.0000 0.0000 0.0000 0.0000 0.0000 15.9027
#
#
#
# Elastic Compliance Matrix: (Units=1/GPa)
#
#
# Indices 1 2 3 4 5 6 
#
# 1 0.012849 0.000753 -0.002664 0.000000 0.000000 0.000000
# 2 0.000753 0.010687 -0.004047 0.000000 0.000000 0.000000
# 3 -0.002664 -0.004047 0.010370 0.000000 0.000000 0.000000
# 4 0.000000 0.000000 0.000000 0.069118 0.000000 0.000000
# 5 0.000000 0.000000 0.000000 0.000000 0.541111 0.000000
# 6 0.000000 0.000000 0.000000 0.000000 0.000000 0.062882
#
#
# Mechanical properties :
#
#
# Convention : Reuss Voigt Hill
#
# Bulk Modulus (GPa) = 45.47583 49.75911 47.61747
# Shear Modulus (GPa) = 6.88456 22.64267 14.76362
#
# Velocity S-wave (km/s) = 1.97563 3.58288 2.89311
# Velocity P-wave (km/s) = 5.56653 6.73249 6.17708
#
# Compressibility (1/GPa) = 0.02198970
#
# Stress axis : x y z
#
# Youngs Moduli (GPa) = 77.82708 93.57248 96.43360
#
# Poissons Ratio (x) = -0.07047 0.25691
# Poissons Ratio (y) = -0.05861 0.39027
# Poissons Ratio (z) = 0.20734 0.37869
#
# Static dielectric constant tensor:
#      x y z
#    x 1.643700 0.000000 0.000000 
#    y 0.000000 1.670590 0.000000 
#    z 0.000000 0.000000 1.591070 
# 
# From -- ./inp_files/25011.got.cif
#   From: 2010.05.17/outbox.cif.g08.bks.cpg/sg60_13_cif.got.tgz:25011.got - 2010.06.03 14:59:27.
