data_PCOD9456438
_publ_section_title
;
Structure prediction by ZEFSAII (Michael W. Deem and Ramdas Pophale) SiO2 
 PCOD9456438
Probable space group: P B C N
;
_chemical_formula_sum "Si O2"
_cell_formula_units_Z 40
_cell_length_a 11.167730
_cell_length_b 14.268485
_cell_length_c 13.070127
_cell_angle_alpha 90.000000
_cell_angle_beta 90.000000
_cell_angle_gamma 90.000000
_cell_volume 2082.680142
_symmetry_space_group_name_H-M "P B C N"
_symmetry_group_IT_number 60
_symmetry_cell_setting 'orthorhombic'
loop_
_space_group_symop_operation_xyz
x,y,z
1/2-x,1/2-y,1/2+z
1/2+x,1/2-y,-z
-x,y,1/2-z
-x,-y,-z
1/2+x,1/2+y,1/2-z
1/2-x,1/2+y,z
x,-y,1/2+z
loop_
_atom_site_type_symbol
_atom_site_label
_atom_site_fract_x
_atom_site_fract_y
_atom_site_fract_z
Si Si1 0.801747 0.875643 0.380854
Si Si2 0.477702 0.600007 0.448425
Si Si3 0.737415 0.666796 0.379709
Si Si4 0.711857 0.476196 0.708704
Si Si5 0.360072 0.978915 0.488237
O O1 0.908046 0.849643 0.459657
O O2 0.747498 0.775497 0.354138
O O3 0.832864 0.938829 0.281762
O O4 0.712593 0.942801 0.445748
O O5 0.500000 0.500000 0.500000
O O6 0.601612 0.644894 0.414672
O O7 0.393672 0.575816 0.352686
O O8 0.766257 0.602626 0.282084
O O9 0.822152 0.622535 0.467481
O O10 0.807936 0.512186 0.626220
O O11 0.500000 0.000000 0.500000
#
# Coordination Sequence:
#
# PCOD9456438 Si02
#       5
#     8   8   8   8   8
#     4  10  24  39  62  98 121 163 212 256 311 370
#     4  11  20  42  66  87 125 167 203 260 316 371
#     4  11  23  39  64  97 122 161 215 253 312 375
#     4  10  21  42  64  88 128 159 209 258 308 369
#     4  10  23  43  63  83 132 167 196 254 319 365
#
# _framework density 19.206021
#
# number of rings (size 3 to 8) (size 9 to 14) (size 15 to 20)
#    0.000    1.600    6.000    0.600    2.800    6.400 
#    3.600    2.000    0.000    0.000    0.000    0.000 
#    0.000    0.000    0.000    0.000    0.000    0.000 
#
# Total GULP energy -223103.004292 kJ/mol
# GULP energy per Si atom -5577.575107 kJ/mol
# Density = 1.916231 g / cm^3
# Si number density = 19.206021 Si / 1000 Ang^3
#
#
#
# Elastic Constant Matrix: (Units=GPa)
#
#
# Indices 1 2 3 4 5 6 
#
# 1 89.7538 -7.4849 27.7398 0.0000 0.0000 0.0000
# 2 -7.4849 102.1019 21.4969 0.0000 0.0000 0.0000
# 3 27.7398 21.4969 114.3789 0.0000 0.0000 0.0000
# 4 0.0000 0.0000 0.0000 11.3702 0.0000 0.0000
# 5 0.0000 0.0000 0.0000 0.0000 11.9265 0.0000
# 6 0.0000 0.0000 0.0000 0.0000 0.0000 17.2578
#
#
#
# Elastic Compliance Matrix: (Units=1/GPa)
#
#
# Indices 1 2 3 4 5 6 
#
# 1 0.012288 0.001591 -0.003279 0.000000 0.000000 0.000000
# 2 0.001591 0.010404 -0.002341 0.000000 0.000000 0.000000
# 3 -0.003279 -0.002341 0.009978 0.000000 0.000000 0.000000
# 4 0.000000 0.000000 0.000000 0.087949 0.000000 0.000000
# 5 0.000000 0.000000 0.000000 0.000000 0.083847 0.000000
# 6 0.000000 0.000000 0.000000 0.000000 0.000000 0.057945
#
#
# Mechanical properties :
#
#
# Convention : Reuss Voigt Hill
#
# Bulk Modulus (GPa) = 40.63177 43.30424 41.96801
# Shear Modulus (GPa) = 17.94224 25.74310 21.84267
#
# Velocity S-wave (km/s) = 3.05978 3.66507 3.37602
# Velocity P-wave (km/s) = 5.80385 6.36447 6.09062
#
# Compressibility (1/GPa) = 0.02461128
#
# Stress axis : x y z
#
# Youngs Moduli (GPa) = 81.38177 96.11948 100.21872
#
# Poissons Ratio (x) = -0.15295 0.32863
# Poissons Ratio (y) = -0.12949 0.23464
# Poissons Ratio (z) = 0.26686 0.22504
#
# Static dielectric constant tensor:
#      x y z
#    x 1.746720 0.000000 0.000000 
#    y 0.000000 1.695980 0.000000 
#    z 0.000000 0.000000 1.581200 
# 
# From -- ./inp_files/10854.got.cif
#   From: 2010.05.17/outbox.cif.g08.bks.cpg/sg60_6_cif.got.tgz:10854.got - 2010.06.03 14:59:27.
