data_PCOD9456623
_publ_section_title
;
Structure prediction by ZEFSAII (Michael W. Deem and Ramdas Pophale) SiO2 
 PCOD9456623
Probable space group: P B C N
;
_chemical_formula_sum "Si O2"
_cell_formula_units_Z 36
_cell_length_a 5.442016
_cell_length_b 17.372335
_cell_length_c 19.559681
_cell_angle_alpha 90.000000
_cell_angle_beta 90.000000
_cell_angle_gamma 90.000000
_cell_volume 1849.182511
_symmetry_space_group_name_H-M "P B C N"
_symmetry_group_IT_number 60
_symmetry_cell_setting 'orthorhombic'
loop_
_space_group_symop_operation_xyz
x,y,z
1/2-x,1/2-y,1/2+z
1/2+x,1/2-y,-z
-x,y,1/2-z
-x,-y,-z
1/2+x,1/2+y,1/2-z
1/2-x,1/2+y,z
x,-y,1/2+z
loop_
_atom_site_type_symbol
_atom_site_label
_atom_site_fract_x
_atom_site_fract_y
_atom_site_fract_z
Si Si1 0.000000 0.793784 0.750000
Si Si2 0.500000 0.010542 0.750000
Si Si3 0.874286 0.075575 0.346780
Si Si4 0.824808 0.081853 0.641934
Si Si5 0.248503 0.550517 0.004586
Si Si6 0.500000 0.696151 0.750000
O O1 0.999751 0.849177 0.816392
O O2 0.749054 0.745441 0.750669
O O3 0.309038 0.955045 0.711847
O O4 0.593971 0.066772 0.690574
O O5 0.751915 0.089123 0.420715
O O6 0.053296 0.002902 0.357002
O O7 0.759858 0.101674 0.564145
O O8 0.990855 0.141850 0.682863
O O9 0.500000 0.500000 0.000000
O O10 0.000000 0.500000 0.000000
#
# Coordination Sequence:
#
# PCOD9456623 Si02
#       6
#     4   4   8   8   8   4
#     4  12  26  40  61  93 130 170 214 260 322 398
#     4  12  16  34  72  88 128 152 222 262 330 368
#     4  11  22  39  64  94 123 166 215 274 326 384
#     4  11  22  39  64  94 123 166 215 274 326 384
#     4  10  22  36  62  96 124 154 211 276 327 378
#     4  12  26  40  61  93 130 170 214 260 322 398
#
# _framework density 19.468064999999999
#
# number of rings (size 3 to 8) (size 9 to 14) (size 15 to 20)
#    0.000    0.889    6.667    1.333    0.000    0.000 
#    0.000    2.222    0.000    0.000    0.000    0.000 
#    0.000    0.000    0.000    0.000    0.000    0.000 
#
# Total GULP energy -200796.077373 kJ/mol
# GULP energy per Si atom -5577.668816 kJ/mol
# Density = 1.942375 g / cm^3
# Si number density = 19.468065 Si / 1000 Ang^3
#
#
#
# Elastic Constant Matrix: (Units=GPa)
#
#
# Indices 1 2 3 4 5 6 
#
# 1 99.1250 39.0423 24.7732 0.0000 0.0000 0.0000
# 2 39.0423 88.1359 44.3667 0.0000 0.0000 0.0000
# 3 24.7732 44.3667 175.7221 0.0000 0.0000 0.0000
# 4 0.0000 0.0000 0.0000 -0.4788 0.0000 0.0000
# 5 0.0000 0.0000 0.0000 0.0000 27.2110 0.0000
# 6 0.0000 0.0000 0.0000 0.0000 0.0000 44.3159
#
#
#
# Elastic Compliance Matrix: (Units=1/GPa)
#
#
# Indices 1 2 3 4 5 6 
#
# 1 0.012246 -0.005219 -0.000409 0.000000 0.000000 0.000000
# 2 -0.005219 0.015222 -0.003108 0.000000 0.000000 0.000000
# 3 -0.000409 -0.003108 0.006533 0.000000 0.000000 0.000000
# 4 0.000000 0.000000 0.000000 -2.088398 0.000000 0.000000
# 5 0.000000 0.000000 0.000000 0.000000 0.036750 0.000000
# 6 0.000000 0.000000 0.000000 0.000000 0.000000 0.022565
#
#
# Mechanical properties :
#
#
# Convention : Reuss Voigt Hill
#
# Bulk Modulus (GPa) = 60.49322 64.37194 62.43258
# Shear Modulus (GPa) = -2.53537 31.19633 14.33048
#
# Velocity S-wave (km/s) = -1.14243 4.00739 2.71606
# Velocity P-wave (km/s) = 5.42221 7.38576 6.47880
#
# Compressibility (1/GPa) = 0.01653078
#
# Stress axis : x y z
#
# Youngs Moduli (GPa) = 81.65928 65.69299 153.06803
#
# Poissons Ratio (x) = 0.34285 0.06257
# Poissons Ratio (y) = 0.42618 0.47567
# Poissons Ratio (z) = 0.03338 0.20415
#
# Static dielectric constant tensor:
#      x y z
#    x 1.566940 0.000000 0.000000 
#    y 0.000000 2.768160 0.000000 
#    z 0.000000 0.000000 1.742030 
# 
# From -- ./inp_files/18606.got.cif
#   From: 2010.05.17/outbox.cif.g08.bks.cpg/sg60_10_cif.got.tgz:18606.got - 2010.06.03 14:59:27.
