data_PCOD9456529
_publ_section_title
;
Structure prediction by ZEFSAII (Michael W. Deem and Ramdas Pophale) SiO2 
 PCOD9456529
Probable space group: P B C N
;
_chemical_formula_sum "Si O2"
_cell_formula_units_Z 52
_cell_length_a 8.067298
_cell_length_b 15.243183
_cell_length_c 20.455523
_cell_angle_alpha 90.000000
_cell_angle_beta 90.000000
_cell_angle_gamma 90.000000
_cell_volume 2515.442250
_symmetry_space_group_name_H-M "P B C N"
_symmetry_group_IT_number 60
_symmetry_cell_setting 'orthorhombic'
loop_
_space_group_symop_operation_xyz
x,y,z
1/2-x,1/2-y,1/2+z
1/2+x,1/2-y,-z
-x,y,1/2-z
-x,-y,-z
1/2+x,1/2+y,1/2-z
1/2-x,1/2+y,z
x,-y,1/2+z
loop_
_atom_site_type_symbol
_atom_site_label
_atom_site_fract_x
_atom_site_fract_y
_atom_site_fract_z
Si Si1 0.811008 0.898345 0.097665
Si Si2 0.844949 0.942818 0.699667
Si Si3 0.303286 0.707148 0.404441
Si Si4 0.000000 0.374629 0.750000
Si Si5 0.649144 0.666067 0.951641
Si Si6 0.823671 0.513118 0.468042
Si Si7 0.080520 0.671849 0.111163
O O1 0.695114 0.812247 0.108193
O O2 0.991623 0.857506 0.091570
O O3 0.818492 0.973219 0.152452
O O4 0.779783 0.943195 0.026982
O O5 0.866119 0.856158 0.653332
O O6 0.665451 0.928851 0.733312
O O7 0.000000 0.951123 0.750000
O O8 0.391209 0.684971 0.472682
O O9 0.108172 0.679958 0.416894
O O10 0.051530 0.317714 0.687626
O O11 0.761542 0.581619 0.948073
O O12 0.703192 0.758069 0.921182
O O13 0.846185 0.577695 0.407235
O O14 0.000000 0.500000 0.500000
#
# Coordination Sequence:
#
# PCOD9456529 Si02
#       7
#     8   8   8   4   8   8   8
#     4  11  24  42  65 100 142 168 232 294 343 425
#     4  11  25  48  71  99 140 192 234 289 352 419
#     4  10  21  44  66  99 139 173 224 297 344 415
#     4  10  24  50  68  90 146 188 232 284 346 428
#     4  11  22  39  68 100 132 173 219 284 359 403
#     4  12  21  37  66 100 130 174 219 284 357 407
#     4  10  22  41  66  94 136 183 220 286 353 417
#
# _framework density 20.67231
#
# number of rings (size 3 to 8) (size 9 to 14) (size 15 to 20)
#    0.000    1.231    4.615    1.385    2.154    0.000 
#   16.615    0.000    0.000    0.000    0.000    0.000 
#    0.000    0.000    0.000    0.000    0.000    0.000 
#
# Total GULP energy -290134.758424 kJ/mol
# GULP energy per Si atom -5579.514585 kJ/mol
# Density = 2.062526 g / cm^3
# Si number density = 20.672310 Si / 1000 Ang^3
#
#
#
# Elastic Constant Matrix: (Units=GPa)
#
#
# Indices 1 2 3 4 5 6 
#
# 1 35.7135 28.1894 16.2936 0.0000 0.0000 0.0000
# 2 28.1894 121.3915 53.5863 0.0000 0.0000 0.0000
# 3 16.2936 53.5863 105.4884 0.0000 0.0000 0.0000
# 4 0.0000 0.0000 0.0000 30.3943 0.0000 0.0000
# 5 0.0000 0.0000 0.0000 0.0000 33.7996 0.0000
# 6 0.0000 0.0000 0.0000 0.0000 0.0000 24.5598
#
#
#
# Elastic Compliance Matrix: (Units=1/GPa)
#
#
# Indices 1 2 3 4 5 6 
#
# 1 0.034499 -0.007295 -0.001623 0.000000 0.000000 0.000000
# 2 -0.007295 0.012162 -0.005051 0.000000 0.000000 0.000000
# 3 -0.001623 -0.005051 0.012296 0.000000 0.000000 0.000000
# 4 0.000000 0.000000 0.000000 0.032901 0.000000 0.000000
# 5 0.000000 0.000000 0.000000 0.000000 0.029586 0.000000
# 6 0.000000 0.000000 0.000000 0.000000 0.000000 0.040717
#
#
# Mechanical properties :
#
#
# Convention : Reuss Voigt Hill
#
# Bulk Modulus (GPa) = 32.23841 50.97024 41.60432
# Shear Modulus (GPa) = 24.94531 28.71902 26.83217
#
# Velocity S-wave (km/s) = 3.47753 3.73131 3.60665
# Velocity P-wave (km/s) = 5.63499 6.57825 6.12481
#
# Compressibility (1/GPa) = 0.03101890
#
# Stress axis : x y z
#
# Youngs Moduli (GPa) = 28.98629 82.22635 81.32548
#
# Poissons Ratio (x) = 0.59983 0.13199
# Poissons Ratio (y) = 0.21145 0.41078
# Poissons Ratio (z) = 0.04704 0.41533
#
# Static dielectric constant tensor:
#      x y z
#    x 1.752410 0.000000 0.000000 
#    y 0.000000 1.873580 0.000000 
#    z 0.000000 0.000000 1.718080 
# 
# From -- ./inp_files/22127.got.cif
#   From: 2010.05.17/outbox.cif.g08.bks.cpg/sg60_12_cif.got.tgz:22127.got - 2010.06.03 14:59:27.
