data_PCOD9456839
_publ_section_title
;
Structure prediction by ZEFSAII (Michael W. Deem and Ramdas Pophale) SiO2 
 PCOD9456839
Probable space group: P B C N
;
_chemical_formula_sum "Si O2"
_cell_formula_units_Z 64
_cell_length_a 14.267219
_cell_length_b 14.664026
_cell_length_c 13.941274
_cell_angle_alpha 90.000000
_cell_angle_beta 90.000000
_cell_angle_gamma 90.000000
_cell_volume 2916.721833
_symmetry_space_group_name_H-M "P B C N"
_symmetry_group_IT_number 60
_symmetry_cell_setting 'orthorhombic'
loop_
_space_group_symop_operation_xyz
x,y,z
1/2-x,1/2-y,1/2+z
1/2+x,1/2-y,-z
-x,y,1/2-z
-x,-y,-z
1/2+x,1/2+y,1/2-z
1/2-x,1/2+y,z
x,-y,1/2+z
loop_
_atom_site_type_symbol
_atom_site_label
_atom_site_fract_x
_atom_site_fract_y
_atom_site_fract_z
Si Si1 0.364898 0.328552 0.885695
Si Si2 0.719062 0.495029 0.507586
Si Si3 0.088561 0.437537 0.491307
Si Si4 0.259737 0.767174 0.729256
Si Si5 0.963482 0.290727 0.407116
Si Si6 0.299166 0.088853 0.688182
Si Si7 0.291317 0.287919 0.506168
Si Si8 0.103790 0.411332 0.715867
O O1 0.325922 0.319416 0.778380
O O2 0.474191 0.298682 0.883070
O O3 0.346257 0.427523 0.932264
O O4 0.287892 0.261888 0.941410
O O5 0.825247 0.504280 0.546348
O O6 0.739468 0.446090 0.404022
O O7 0.693313 0.602950 0.505028
O O8 0.108536 0.405917 0.599932
O O9 0.000000 0.500000 0.500000
O O10 0.051142 0.355670 0.429074
O O11 0.258677 0.660152 0.751005
O O12 0.244687 0.773739 0.615274
O O13 0.352994 0.819572 0.757380
O O14 0.893795 0.352617 0.340636
O O15 0.892063 0.263202 0.492765
O O16 0.333075 0.998263 0.739058
O O17 0.000000 0.427285 0.750000
#
# Coordination Sequence:
#
# PCOD9456839 Si02
#       8
#     8   8   8   8   8   8   8   8
#     4  12  25  39  68  98 129 171 220 271 321 402
#     4  11  21  41  65  90 128 174 206 263 334 382
#     4  11  19  37  64  92 123 165 213 266 322 385
#     4  11  24  41  61  98 134 169 214 271 336 378
#     4  11  22  38  66  92 126 170 219 264 322 384
#     4  10  22  40  64  90 129 177 205 268 326 388
#     4  11  23  45  62  91 137 170 213 276 329 384
#     4  11  24  36  64  99 127 162 214 276 322 386
#
# _framework density 21.942442
#
# number of rings (size 3 to 8) (size 9 to 14) (size 15 to 20)
#    0.000    1.000    8.750    0.000    5.250    3.000 
#    0.000    0.000    0.000    0.000    0.000    0.000 
#    0.000    0.000    0.000    0.000    0.000    0.000 
#
# Total GULP energy -356649.874392 kJ/mol
# GULP energy per Si atom -5572.654287 kJ/mol
# Density = 2.189250 g / cm^3
# Si number density = 21.942442 Si / 1000 Ang^3
#
#
#
# Elastic Constant Matrix: (Units=GPa)
#
#
# Indices 1 2 3 4 5 6 
#
# 1 44.7995 19.6663 -2.5844 0.0000 0.0000 0.0000
# 2 19.6663 102.9813 -3.0552 0.0000 0.0000 0.0000
# 3 -2.5844 -3.0552 49.9074 0.0000 0.0000 0.0000
# 4 0.0000 0.0000 0.0000 10.1627 0.0000 0.0000
# 5 0.0000 0.0000 0.0000 0.0000 18.4164 0.0000
# 6 0.0000 0.0000 0.0000 0.0000 0.0000 57.4790
#
#
#
# Elastic Compliance Matrix: (Units=1/GPa)
#
#
# Indices 1 2 3 4 5 6 
#
# 1 0.024412 -0.004633 0.000981 0.000000 0.000000 0.000000
# 2 -0.004633 0.010607 0.000409 0.000000 0.000000 0.000000
# 3 0.000981 0.000409 0.020113 0.000000 0.000000 0.000000
# 4 0.000000 0.000000 0.000000 0.098399 0.000000 0.000000
# 5 0.000000 0.000000 0.000000 0.000000 0.054299 0.000000
# 6 0.000000 0.000000 0.000000 0.000000 0.000000 0.017398
#
#
# Mechanical properties :
#
#
# Convention : Reuss Voigt Hill
#
# Bulk Modulus (GPa) = 20.55643 25.08239 22.81941
# Shear Modulus (GPa) = 20.16704 29.45574 24.81139
#
# Velocity S-wave (km/s) = 3.03494 3.66787 3.36631
# Velocity P-wave (km/s) = 4.65508 5.42157 5.05288
#
# Compressibility (1/GPa) = 0.04864658
#
# Stress axis : x y z
#
# Youngs Moduli (GPa) = 40.96347 94.27394 49.71923
#
# Poissons Ratio (x) = 0.43676 -0.04875
# Poissons Ratio (y) = 0.18978 -0.02036
# Poissons Ratio (z) = -0.04017 -0.03860
#
# Static dielectric constant tensor:
#      x y z
#    x 1.900390 0.000000 0.000000 
#    y 0.000000 1.888340 0.000000 
#    z 0.000000 0.000000 1.898430 
# 
# From -- ./inp_files/20705.got.cif
#   From: 2010.05.17/outbox.cif.g08.bks.cpg/sg60_11_cif.got.tgz:20705.got - 2010.06.03 14:59:27.
