data_PCOD9456675
_publ_section_title
;
Structure prediction by ZEFSAII (Michael W. Deem and Ramdas Pophale) SiO2 
 PCOD9456675
Probable space group: P B C N
;
_chemical_formula_sum "Si O2"
_cell_formula_units_Z 40
_cell_length_a 12.097814
_cell_length_b 24.684806
_cell_length_c 5.352654
_cell_angle_alpha 90.000000
_cell_angle_beta 90.000000
_cell_angle_gamma 90.000000
_cell_volume 1598.474795
_symmetry_space_group_name_H-M "P B C N"
_symmetry_group_IT_number 60
_symmetry_cell_setting 'orthorhombic'
loop_
_space_group_symop_operation_xyz
x,y,z
1/2-x,1/2-y,1/2+z
1/2+x,1/2-y,-z
-x,y,1/2-z
-x,-y,-z
1/2+x,1/2+y,1/2-z
1/2-x,1/2+y,z
x,-y,1/2+z
loop_
_atom_site_type_symbol
_atom_site_label
_atom_site_fract_x
_atom_site_fract_y
_atom_site_fract_z
Si Si1 0.834644 0.029282 0.919569
Si Si2 0.720704 0.617229 0.272357
Si Si3 0.828051 0.691467 0.896389
Si Si4 0.624282 0.925776 0.186840
Si Si5 0.607664 0.299047 0.090282
O O1 0.847922 0.087370 0.053478
O O2 0.873132 0.988713 0.142650
O O3 0.703257 0.038260 0.863237
O O4 0.793899 0.665717 0.161620
O O5 0.806907 0.578644 0.423774
O O6 0.633036 0.645448 0.449392
O O7 0.899520 0.744903 0.924685
O O8 0.874322 0.638197 0.760133
O O9 0.715796 0.708748 0.760724
O O10 0.500000 0.944178 0.250000
O O11 0.500000 0.303799 0.250000
#
# Coordination Sequence:
#
# PCOD9456675 Si02
#       5
#     8   8   8   8   8
#     4  11  22  42  68  95 132 184 230 293 356 406
#     4  10  22  43  59  93 136 172 230 278 338 411
#     4  10  22  38  59  92 134 176 226 271 334 413
#     4  10  23  38  61  94 135 179 225 284 341 419
#     4  11  23  39  65  95 134 184 226 279 340 411
#
# _framework density 25.023855000000001
#
# number of rings (size 3 to 8) (size 9 to 14) (size 15 to 20)
#    0.000    1.600    4.000    0.000    2.800    4.000 
#    0.000    0.000    0.000    1.200    0.000    0.000 
#    0.000    0.000    0.000    0.000    0.000    0.000 
#
# Total GULP energy -223129.186832 kJ/mol
# GULP energy per Si atom -5578.229671 kJ/mol
# Density = 2.496690 g / cm^3
# Si number density = 25.023855 Si / 1000 Ang^3
#
#
#
# Elastic Constant Matrix: (Units=GPa)
#
#
# Indices 1 2 3 4 5 6 
#
# 1 43.5922 4.1349 20.6976 0.0000 0.0000 0.0000
# 2 4.1349 105.8973 33.0976 0.0000 0.0000 0.0000
# 3 20.6976 33.0976 126.3161 0.0000 0.0000 0.0000
# 4 0.0000 0.0000 0.0000 17.4089 0.0000 0.0000
# 5 0.0000 0.0000 0.0000 0.0000 18.8094 0.0000
# 6 0.0000 0.0000 0.0000 0.0000 0.0000 27.5367
#
#
#
# Elastic Compliance Matrix: (Units=1/GPa)
#
#
# Indices 1 2 3 4 5 6 
#
# 1 0.024886 0.000330 -0.004164 0.000000 0.000000 0.000000
# 2 0.000330 0.010290 -0.002750 0.000000 0.000000 0.000000
# 3 -0.004164 -0.002750 0.009320 0.000000 0.000000 0.000000
# 4 0.000000 0.000000 0.000000 0.057442 0.000000 0.000000
# 5 0.000000 0.000000 0.000000 0.000000 0.053165 0.000000
# 6 0.000000 0.000000 0.000000 0.000000 0.000000 0.036315
#
#
# Mechanical properties :
#
#
# Convention : Reuss Voigt Hill
#
# Bulk Modulus (GPa) = 31.92230 43.51842 37.72036
# Shear Modulus (GPa) = 23.25279 27.27604 25.26441
#
# Velocity S-wave (km/s) = 3.05163 3.30510 3.18089
# Velocity P-wave (km/s) = 5.02006 5.65627 5.34764
#
# Compressibility (1/GPa) = 0.03132606
#
# Stress axis : x y z
#
# Youngs Moduli (GPa) = 40.18373 97.18374 107.30118
#
# Poissons Ratio (x) = -0.03205 0.44681
# Poissons Ratio (y) = -0.01325 0.29510
# Poissons Ratio (z) = 0.16733 0.26727
#
# Static dielectric constant tensor:
#      x y z
#    x 1.951880 0.000000 0.000000 
#    y 0.000000 2.044250 0.000000 
#    z 0.000000 0.000000 2.010070 
# 
# From -- ./inp_files/823.got.cif
#   From: 2010.05.17/outbox.cif.g08.bks.cpg/sg60_1_cif.got.tgz:823.got - 2010.06.03 14:59:27.
