data_PCOD9456441
_publ_section_title
;
Structure prediction by ZEFSAII (Michael W. Deem and Ramdas Pophale) SiO2 
 PCOD9456441
Probable space group: P B C N
;
_chemical_formula_sum "Si O2"
_cell_formula_units_Z 64
_cell_length_a 14.596125
_cell_length_b 22.804556
_cell_length_c 9.017352
_cell_angle_alpha 90.000000
_cell_angle_beta 90.000000
_cell_angle_gamma 90.000000
_cell_volume 3001.499104
_symmetry_space_group_name_H-M "P B C N"
_symmetry_group_IT_number 60
_symmetry_cell_setting 'orthorhombic'
loop_
_space_group_symop_operation_xyz
x,y,z
1/2-x,1/2-y,1/2+z
1/2+x,1/2-y,-z
-x,y,1/2-z
-x,-y,-z
1/2+x,1/2+y,1/2-z
1/2-x,1/2+y,z
x,-y,1/2+z
loop_
_atom_site_type_symbol
_atom_site_label
_atom_site_fract_x
_atom_site_fract_y
_atom_site_fract_z
Si Si1 0.262896 0.000876 0.805043
Si Si2 0.135967 0.691947 0.037784
Si Si3 0.955213 0.643990 0.895435
Si Si4 0.638583 0.483712 0.940359
Si Si5 0.283468 0.865402 0.269553
Si Si6 0.492999 0.594383 0.572405
Si Si7 0.336628 0.671274 0.517356
Si Si8 0.835824 0.620669 0.167388
O O1 0.297098 0.064662 0.756515
O O2 0.165093 0.985122 0.730866
O O3 0.323632 0.944849 0.772206
O O4 0.234962 0.006194 0.976846
O O5 0.165213 0.758964 0.021844
O O6 0.136933 0.666065 0.203769
O O7 0.205926 0.653680 0.938122
O O8 0.035730 0.683372 0.963587
O O9 0.863316 0.669742 0.819449
O O10 0.000000 0.612705 0.750000
O O11 0.911554 0.613952 0.038609
O O12 0.573747 0.539432 0.959569
O O13 0.589125 0.425970 0.001813
O O14 0.191924 0.850768 0.182035
O O15 0.500000 0.601795 0.750000
O O16 0.439889 0.648118 0.496147
O O17 0.260166 0.643194 0.407494
#
# Coordination Sequence:
#
# PCOD9456441 Si02
#       8
#     8   8   8   8   8   8   8   8
#     4  12  21  41  65  92 130 163 212 261 322 386
#     4  11  23  40  66  92 128 165 219 270 317 374
#     4   9  21  43  63  85 124 167 204 263 327 371
#     4  11  21  36  58  89 130 166 199 257 306 381
#     4  10  21  42  64  91 125 172 208 260 331 380
#     4  11  21  36  58  89 126 172 207 240 315 379
#     4  11  22  42  63  93 127 173 213 255 320 395
#     4  11  23  40  65  99 123 163 216 274 316 381
#
# _framework density 21.322678
#
# number of rings (size 3 to 8) (size 9 to 14) (size 15 to 20)
#    0.000    1.250    3.750    2.625    0.000    1.000 
#    0.000   15.625    0.000    0.000    0.000    0.000 
#    0.000    0.000    0.000    0.000    0.000    0.000 
#
# Total GULP energy -356684.314749 kJ/mol
# GULP energy per Si atom -5573.192418 kJ/mol
# Density = 2.127415 g / cm^3
# Si number density = 21.322678 Si / 1000 Ang^3
#
#
#
# Elastic Constant Matrix: (Units=GPa)
#
#
# Indices 1 2 3 4 5 6 
#
# 1 51.1698 29.0940 13.0563 0.0000 0.0000 0.0000
# 2 29.0940 129.8754 33.5446 0.0000 0.0000 0.0000
# 3 13.0563 33.5446 92.4099 0.0000 0.0000 0.0000
# 4 0.0000 0.0000 0.0000 18.0422 0.0000 0.0000
# 5 0.0000 0.0000 0.0000 0.0000 35.3019 0.0000
# 6 0.0000 0.0000 0.0000 0.0000 0.0000 22.0772
#
#
#
# Elastic Compliance Matrix: (Units=1/GPa)
#
#
# Indices 1 2 3 4 5 6 
#
# 1 0.022581 -0.004672 -0.001494 0.000000 0.000000 0.000000
# 2 -0.004672 0.009463 -0.002775 0.000000 0.000000 0.000000
# 3 -0.001494 -0.002775 0.012040 0.000000 0.000000 0.000000
# 4 0.000000 0.000000 0.000000 0.055425 0.000000 0.000000
# 5 0.000000 0.000000 0.000000 0.000000 0.028327 0.000000
# 6 0.000000 0.000000 0.000000 0.000000 0.000000 0.045296
#
#
# Mechanical properties :
#
#
# Convention : Reuss Voigt Hill
#
# Bulk Modulus (GPa) = 38.16756 47.20501 42.68628
# Shear Modulus (GPa) = 25.03149 28.26829 26.64989
#
# Velocity S-wave (km/s) = 3.42999 3.64502 3.53914
# Velocity P-wave (km/s) = 5.79873 6.31675 6.06328
#
# Compressibility (1/GPa) = 0.02620026
#
# Stress axis : x y z
#
# Youngs Moduli (GPa) = 44.28558 105.67353 83.05807
#
# Poissons Ratio (x) = 0.49376 0.12411
# Poissons Ratio (y) = 0.20692 0.23048
# Poissons Ratio (z) = 0.06617 0.29324
#
# Static dielectric constant tensor:
#      x y z
#    x 1.860390 0.000000 0.000000 
#    y 0.000000 1.735530 0.000000 
#    z 0.000000 0.000000 1.788600 
# 
# From -- ./inp_files/6295.got.cif
#   From: 2010.05.17/outbox.cif.g08.bks.cpg/sg60_4_cif.got.tgz:6295.got - 2010.06.03 14:59:27.
