data_PCOD9456070
_publ_section_title
;
Structure prediction by ZEFSAII (Michael W. Deem and Ramdas Pophale) SiO2 
 PCOD9456070
Probable space group: P B C N
;
_chemical_formula_sum "Si O2"
_cell_formula_units_Z 64
_cell_length_a 12.179449
_cell_length_b 29.872610
_cell_length_c 9.108603
_cell_angle_alpha 90.000000
_cell_angle_beta 90.000000
_cell_angle_gamma 90.000000
_cell_volume 3314.000609
_symmetry_space_group_name_H-M "P B C N"
_symmetry_group_IT_number 60
_symmetry_cell_setting 'orthorhombic'
loop_
_space_group_symop_operation_xyz
x,y,z
1/2-x,1/2-y,1/2+z
1/2+x,1/2-y,-z
-x,y,1/2-z
-x,-y,-z
1/2+x,1/2+y,1/2-z
1/2-x,1/2+y,z
x,-y,1/2+z
loop_
_atom_site_type_symbol
_atom_site_label
_atom_site_fract_x
_atom_site_fract_y
_atom_site_fract_z
Si Si1 0.129058 0.445920 0.732095
Si Si2 0.247598 0.483990 0.450187
Si Si3 0.738571 0.144886 0.176560
Si Si4 0.926223 0.129277 0.944162
Si Si5 0.105310 0.034650 0.686993
Si Si6 0.588706 0.689905 0.377645
Si Si7 0.878210 0.782994 0.304067
Si Si8 0.786182 0.736793 0.041430
O O1 0.170341 0.458039 0.566834
O O2 0.185455 0.478754 0.852107
O O3 0.163153 0.395368 0.772273
O O4 0.000000 0.451782 0.750000
O O5 0.312444 0.456674 0.323752
O O6 0.333885 0.507772 0.559346
O O7 0.802598 0.167304 0.312124
O O8 0.834882 0.126317 0.071421
O O9 0.684369 0.186175 0.088124
O O10 0.940515 0.080260 0.882361
O O11 0.881267 0.163625 0.821944
O O12 0.030704 0.155642 0.009706
O O13 0.000000 0.008452 0.750000
O O14 0.500000 0.696322 0.250000
O O15 0.624727 0.736984 0.445145
O O16 0.831625 0.765609 0.460163
O O17 0.000000 0.768435 0.250000
O O18 0.789115 0.765984 0.188643
#
# Coordination Sequence:
#
# PCOD9456070 Si02
#       8
#     8   8   8   8   8   8   8   8
#     4  11  23  45  69  92 123 170 220 261 324 374
#     4  10  24  43  66  95 129 167 209 265 317 388
#     4  10  22  40  60  93 129 158 207 280 312 369
#     4  10  21  38  64  89 126 167 209 254 310 389
#     4  11  22  39  64  98 134 163 202 255 323 385
#     4  10  21  39  62  89 125 176 212 252 328 380
#     4  11  22  37  60  89 121 166 213 253 312 366
#     4  11  22  38  61  88 125 166 212 263 308 371
#
# _framework density 19.312007000000001
#
# number of rings (size 3 to 8) (size 9 to 14) (size 15 to 20)
#    0.000    1.500    3.750    1.125    1.750    0.500 
#    0.000    0.000    5.500    0.000    0.000    0.000 
#    0.000    0.000    0.000    0.000    0.000    0.000 
#
# Total GULP energy -356946.593228 kJ/mol
# GULP energy per Si atom -5577.290519 kJ/mol
# Density = 1.926805 g / cm^3
# Si number density = 19.312007 Si / 1000 Ang^3
#
#
#
# Elastic Constant Matrix: (Units=GPa)
#
#
# Indices 1 2 3 4 5 6 
#
# 1 73.0182 37.3789 25.6931 0.0000 0.0000 0.0000
# 2 37.3789 88.5174 33.5930 0.0000 0.0000 0.0000
# 3 25.6931 33.5930 97.4184 0.0000 0.0000 0.0000
# 4 0.0000 0.0000 0.0000 -1.5755 0.0000 0.0000
# 5 0.0000 0.0000 0.0000 0.0000 32.8156 0.0000
# 6 0.0000 0.0000 0.0000 0.0000 0.0000 147.0759
#
#
#
# Elastic Compliance Matrix: (Units=1/GPa)
#
#
# Indices 1 2 3 4 5 6 
#
# 1 0.017963 -0.006659 -0.002441 0.000000 0.000000 0.000000
# 2 -0.006659 0.015467 -0.003577 0.000000 0.000000 0.000000
# 3 -0.002441 -0.003577 0.012142 0.000000 0.000000 0.000000
# 4 0.000000 0.000000 0.000000 -0.634734 0.000000 0.000000
# 5 0.000000 0.000000 0.000000 0.000000 0.030473 0.000000
# 6 0.000000 0.000000 0.000000 0.000000 0.000000 0.006799
#
#
# Mechanical properties :
#
#
# Convention : Reuss Voigt Hill
#
# Bulk Modulus (GPa) = 49.46273 50.25379 49.85826
# Shear Modulus (GPa) = -9.61916 46.48248 18.43166
#
# Velocity S-wave (km/s) = -2.23422 4.91136 3.09271
# Velocity P-wave (km/s) = 4.36032 7.63155 6.21502
#
# Compressibility (1/GPa) = 0.02021724
#
# Stress axis : x y z
#
# Youngs Moduli (GPa) = 55.66995 64.65507 82.35593
#
# Poissons Ratio (x) = 0.43053 0.20106
# Poissons Ratio (y) = 0.37070 0.29460
# Poissons Ratio (z) = 0.13591 0.23128
#
# Static dielectric constant tensor:
#      x y z
#    x 1.691130 0.000000 0.000000 
#    y 0.000000 1.660510 0.000000 
#    z 0.000000 0.000000 1.754950 
# 
# From -- ./inp_files/5334.got.cif
#   From: 2010.05.17/outbox.cif.g08.bks.cpg/sg60_3_cif.got.tgz:5334.got - 2010.06.03 14:59:27.
