data_PCOD9456686
_publ_section_title
;
Structure prediction by ZEFSAII (Michael W. Deem and Ramdas Pophale) SiO2 
 PCOD9456686
Probable space group: P B C N
;
_chemical_formula_sum "Si O2"
_cell_formula_units_Z 40
_cell_length_a 15.450104
_cell_length_b 18.242217
_cell_length_c 5.432886
_cell_angle_alpha 90.000000
_cell_angle_beta 90.000000
_cell_angle_gamma 90.000000
_cell_volume 1531.227136
_symmetry_space_group_name_H-M "P B C N"
_symmetry_group_IT_number 60
_symmetry_cell_setting 'orthorhombic'
loop_
_space_group_symop_operation_xyz
x,y,z
1/2-x,1/2-y,1/2+z
1/2+x,1/2-y,-z
-x,y,1/2-z
-x,-y,-z
1/2+x,1/2+y,1/2-z
1/2-x,1/2+y,z
x,-y,1/2+z
loop_
_atom_site_type_symbol
_atom_site_label
_atom_site_fract_x
_atom_site_fract_y
_atom_site_fract_z
Si Si1 0.120656 0.794151 0.789622
Si Si2 0.048894 0.670316 0.504786
Si Si3 0.186682 0.324777 0.645519
Si Si4 0.177269 0.520848 0.911094
Si Si5 0.124325 0.962681 0.889799
O O1 0.062240 0.756243 0.580153
O O2 0.217505 0.796258 0.681680
O O3 0.103214 0.877085 0.867744
O O4 0.128902 0.737876 0.017199
O O5 0.145691 0.651576 0.407524
O O6 0.000000 0.640050 0.750000
O O7 0.000000 0.653981 0.250000
O O8 0.191736 0.393657 0.462626
O O9 0.130581 0.493038 0.155517
O O10 0.270697 0.478880 0.892111
O O11 0.092960 0.002827 0.643796
#
# Coordination Sequence:
#
# PCOD9456686 Si02
#       5
#     8   8   8   8   8
#     4  12  25  40  77 110 137 181 255 302 343 422
#     4  12  28  48  66 104 150 194 228 298 368 426
#     4  12  25  40  77 110 137 181 255 302 343 422
#     4  10  22  38  61 102 148 176 216 299 372 401
#     4  10  22  38  61 102 148 176 216 299 372 401
#
# _framework density 26.12284
#
# number of rings (size 3 to 8) (size 9 to 14) (size 15 to 20)
#    0.000    0.800    8.000    0.000   11.200    0.000 
#    0.000    0.000    0.000    7.200    0.000    0.000 
#    0.000    0.000    0.000    0.000    0.000    0.000 
#
# Total GULP energy -223742.074030 kJ/mol
# GULP energy per Si atom -5593.551851 kJ/mol
# Density = 2.606338 g / cm^3
# Si number density = 26.122840 Si / 1000 Ang^3
#
#
#
# Elastic Constant Matrix: (Units=GPa)
#
#
# Indices 1 2 3 4 5 6 
#
# 1 83.3336 7.2766 28.2518 0.0000 0.0000 0.0000
# 2 7.2766 130.7350 54.0766 0.0000 0.0000 0.0000
# 3 28.2518 54.0766 235.8123 0.0000 0.0000 0.0000
# 4 0.0000 0.0000 0.0000 47.5838 0.0000 0.0000
# 5 0.0000 0.0000 0.0000 0.0000 45.2018 0.0000
# 6 0.0000 0.0000 0.0000 0.0000 0.0000 13.2697
#
#
#
# Elastic Compliance Matrix: (Units=1/GPa)
#
#
# Indices 1 2 3 4 5 6 
#
# 1 0.012509 -0.000084 -0.001479 0.000000 0.000000 0.000000
# 2 -0.000084 0.008451 -0.001928 0.000000 0.000000 0.000000
# 3 -0.001479 -0.001928 0.004860 0.000000 0.000000 0.000000
# 4 0.000000 0.000000 0.000000 0.021016 0.000000 0.000000
# 5 0.000000 0.000000 0.000000 0.000000 0.022123 0.000000
# 6 0.000000 0.000000 0.000000 0.000000 0.000000 0.075360
#
#
# Mechanical properties :
#
#
# Convention : Reuss Voigt Hill
#
# Bulk Modulus (GPa) = 53.08722 69.89898 61.49310
# Shear Modulus (GPa) = 31.72980 45.22944 38.47962
#
# Velocity S-wave (km/s) = 3.48895 4.16554 3.84217
# Velocity P-wave (km/s) = 6.04951 7.06764 6.57830
#
# Compressibility (1/GPa) = 0.01883692
#
# Stress axis : x y z
#
# Youngs Moduli (GPa) = 79.94343 118.32616 205.76113
#
# Poissons Ratio (x) = 0.00998 0.30438
# Poissons Ratio (y) = 0.00674 0.39669
# Poissons Ratio (z) = 0.11826 0.22812
#
# Static dielectric constant tensor:
#      x y z
#    x 2.205960 0.000000 0.000000 
#    y 0.000000 2.053090 0.000000 
#    z 0.000000 0.000000 2.107400 
# 
# From -- ./inp_files/1635.got.cif
#   From: 2010.05.17/outbox.cif.g08.bks.cpg/sg60_1_cif.got.tgz:1635.got - 2010.06.03 14:59:27.
