data_PCOD9456970
_publ_section_title
;
Structure prediction by ZEFSAII (Michael W. Deem and Ramdas Pophale) SiO2 
 PCOD9456970
Probable space group: P B C N
;
_chemical_formula_sum "Si O2"
_cell_formula_units_Z 32
_cell_length_a 4.774957
_cell_length_b 26.141153
_cell_length_c 9.561501
_cell_angle_alpha 90.000000
_cell_angle_beta 90.000000
_cell_angle_gamma 90.000000
_cell_volume 1193.494106
_symmetry_space_group_name_H-M "P B C N"
_symmetry_group_IT_number 60
_symmetry_cell_setting 'orthorhombic'
loop_
_space_group_symop_operation_xyz
x,y,z
1/2-x,1/2-y,1/2+z
1/2+x,1/2-y,-z
-x,y,1/2-z
-x,-y,-z
1/2+x,1/2+y,1/2-z
1/2-x,1/2+y,z
x,-y,1/2+z
loop_
_atom_site_type_symbol
_atom_site_label
_atom_site_fract_x
_atom_site_fract_y
_atom_site_fract_z
Si Si1 0.526313 0.228799 0.917860
Si Si2 0.707098 0.483171 0.380560
Si Si3 0.269882 0.907871 0.650770
Si Si4 0.624602 0.627332 0.903364
O O1 0.500000 0.239079 0.750000
O O2 0.673680 0.174069 0.937664
O O3 0.232107 0.232989 0.997848
O O4 0.500000 0.477980 0.250000
O O5 0.500000 0.500000 0.500000
O O6 0.891420 0.534381 0.375648
O O7 0.806233 0.425206 0.398617
O O8 0.500000 0.880420 0.750000
O O9 0.000000 0.914399 0.750000
O O10 0.124805 0.883294 0.514303
O O11 0.500000 0.637463 0.750000
#
# Coordination Sequence:
#
# PCOD9456970 Si02
#       4
#     8   8   8   8
#     4  12  28  53  82 113 149 195 252 323 397 461
#     4   8  16  35  63 100 146 195 243 296 357 434
#     4  10  22  41  67 107 156 202 245 297 366 445
#     4  10  22  45  75 108 147 198 256 312 377 454
#
# _framework density 26.81203
#
# number of rings (size 3 to 8) (size 9 to 14) (size 15 to 20)
#    0.000    2.000    0.000    2.250    0.000    6.000 
#    0.000   48.750    0.000    0.000    0.000    3.500 
#    0.000    0.000    0.000    1.500    0.000    0.000 
#
# Total GULP energy -179047.113368 kJ/mol
# GULP energy per Si atom -5595.222293 kJ/mol
# Density = 2.675100 g / cm^3
# Si number density = 26.812030 Si / 1000 Ang^3
#
#
#
# Elastic Constant Matrix: (Units=GPa)
#
#
# Indices 1 2 3 4 5 6 
#
# 1 123.4009 22.8492 57.8398 0.0000 0.0000 0.0000
# 2 22.8492 128.9864 60.0496 0.0000 0.0000 0.0000
# 3 57.8398 60.0496 189.3265 0.0000 0.0000 0.0000
# 4 0.0000 0.0000 0.0000 22.9165 0.0000 0.0000
# 5 0.0000 0.0000 0.0000 0.0000 62.8327 0.0000
# 6 0.0000 0.0000 0.0000 0.0000 0.0000 9.0433
#
#
#
# Elastic Compliance Matrix: (Units=1/GPa)
#
#
# Indices 1 2 3 4 5 6 
#
# 1 0.009475 -0.000388 -0.002771 0.000000 0.000000 0.000000
# 2 -0.000388 0.009112 -0.002771 0.000000 0.000000 0.000000
# 3 -0.002771 -0.002771 0.007008 0.000000 0.000000 0.000000
# 4 0.000000 0.000000 0.000000 0.043637 0.000000 0.000000
# 5 0.000000 0.000000 0.000000 0.000000 0.015915 0.000000
# 6 0.000000 0.000000 0.000000 0.000000 0.000000 0.110579
#
#
# Mechanical properties :
#
#
# Convention : Reuss Voigt Hill
#
# Bulk Modulus (GPa) = 72.82301 80.35457 76.58879
# Shear Modulus (GPa) = 23.56666 39.02352 31.29509
#
# Velocity S-wave (km/s) = 2.96794 3.81917 3.42014
# Velocity P-wave (km/s) = 6.24215 7.03440 6.65008
#
# Compressibility (1/GPa) = 0.01373192
#
# Stress axis : x y z
#
# Youngs Moduli (GPa) = 105.54615 109.74830 142.70261
#
# Poissons Ratio (x) = 0.04260 0.39548
# Poissons Ratio (y) = 0.04097 0.39549
# Poissons Ratio (z) = 0.29251 0.30416
#
# Static dielectric constant tensor:
#      x y z
#    x 2.086840 0.000000 0.000000 
#    y 0.000000 2.182960 0.000000 
#    z 0.000000 0.000000 2.179300 
# 
# From -- ./inp_files/3048.got.cif
#   From: 2010.05.17/outbox.cif.g08.bks.cpg/sg60_2_cif.got.tgz:3048.got - 2010.06.03 14:59:27.
