data_PCOD9456132
_publ_section_title
;
Structure prediction by ZEFSAII (Michael W. Deem and Ramdas Pophale) SiO2 
 PCOD9456132
Probable space group: P B C N
;
_chemical_formula_sum "Si O2"
_cell_formula_units_Z 60
_cell_length_a 17.162164
_cell_length_b 17.923616
_cell_length_c 7.745998
_cell_angle_alpha 90.000000
_cell_angle_beta 90.000000
_cell_angle_gamma 90.000000
_cell_volume 2382.731241
_symmetry_space_group_name_H-M "P B C N"
_symmetry_group_IT_number 60
_symmetry_cell_setting 'orthorhombic'
loop_
_space_group_symop_operation_xyz
x,y,z
1/2-x,1/2-y,1/2+z
1/2+x,1/2-y,-z
-x,y,1/2-z
-x,-y,-z
1/2+x,1/2+y,1/2-z
1/2-x,1/2+y,z
x,-y,1/2+z
loop_
_atom_site_type_symbol
_atom_site_label
_atom_site_fract_x
_atom_site_fract_y
_atom_site_fract_z
Si Si1 0.916541 0.619317 0.188321
Si Si2 0.326254 0.154002 0.859461
Si Si3 0.914797 0.467681 0.328487
Si Si4 0.395435 0.708623 0.441198
Si Si5 0.000000 0.094777 0.250000
Si Si6 0.745605 0.847535 0.769991
Si Si7 0.827183 0.877973 0.288671
Si Si8 0.652260 0.466579 0.927349
O O1 0.897318 0.555653 0.331906
O O2 0.835964 0.663364 0.172467
O O3 0.000000 0.651869 0.250000
O O4 0.920385 0.574628 0.009075
O O5 0.355887 0.073063 0.800828
O O6 0.402867 0.205544 0.884813
O O7 0.256743 0.161111 0.720703
O O8 0.279573 0.172367 0.035115
O O9 0.000000 0.463518 0.250000
O O10 0.461181 0.652020 0.382582
O O11 0.317116 0.690927 0.328078
O O12 0.382645 0.686756 0.640040
O O13 0.932233 0.047195 0.340654
O O14 0.781281 0.930171 0.806376
O O15 0.831470 0.945376 0.428068
O O16 0.845414 0.920877 0.108425
#
# Coordination Sequence:
#
# PCOD9456132 Si02
#       8
#     8   8   8   8   4   8   8   8
#     4  11  21  37  60  93 126 158 209 271 341 390
#     4  11  23  40  64  91 129 176 226 268 330 415
#     4  11  22  36  60  88 124 164 206 271 329 391
#     4  11  24  42  65  92 133 183 226 271 330 416
#     4  10  24  44  68 102 140 180 224 292 346 404
#     4  10  21  39  61  88 128 162 215 269 329 392
#     4  11  23  41  69 102 131 177 226 288 353 405
#     4  10  22  40  68 102 132 167 222 285 350 398
#
# _framework density 25.181184999999999
#
# number of rings (size 3 to 8) (size 9 to 14) (size 15 to 20)
#    0.000    1.333    0.000    7.200    0.933    5.867 
#    0.000    1.333    2.933    0.000    0.000    0.000 
#    0.000    0.000    0.000    0.000    0.000    0.000 
#
# Total GULP energy -334819.903074 kJ/mol
# GULP energy per Si atom -5580.331718 kJ/mol
# Density = 2.512387 g / cm^3
# Si number density = 25.181185 Si / 1000 Ang^3
#
#
#
# Elastic Constant Matrix: (Units=GPa)
#
#
# Indices 1 2 3 4 5 6 
#
# 1 88.7090 2.3829 22.5828 0.0000 0.0000 0.0000
# 2 2.3829 74.2365 -1.8932 0.0000 0.0000 0.0000
# 3 22.5828 -1.8932 98.8285 0.0000 0.0000 0.0000
# 4 0.0000 0.0000 0.0000 27.0348 0.0000 0.0000
# 5 0.0000 0.0000 0.0000 0.0000 30.2742 0.0000
# 6 0.0000 0.0000 0.0000 0.0000 0.0000 30.2719
#
#
#
# Elastic Compliance Matrix: (Units=1/GPa)
#
#
# Indices 1 2 3 4 5 6 
#
# 1 0.011984 -0.000455 -0.002747 0.000000 0.000000 0.000000
# 2 -0.000455 0.013494 0.000362 0.000000 0.000000 0.000000
# 3 -0.002747 0.000362 0.010753 0.000000 0.000000 0.000000
# 4 0.000000 0.000000 0.000000 0.036989 0.000000 0.000000
# 5 0.000000 0.000000 0.000000 0.000000 0.033031 0.000000
# 6 0.000000 0.000000 0.000000 0.000000 0.000000 0.033034
#
#
# Mechanical properties :
#
#
# Convention : Reuss Voigt Hill
#
# Bulk Modulus (GPa) = 32.73019 34.21324 33.47171
# Shear Modulus (GPa) = 32.22688 33.42960 32.82824
#
# Velocity S-wave (km/s) = 3.58131 3.64753 3.61457
# Velocity P-wave (km/s) = 5.48882 5.59961 5.54449
#
# Compressibility (1/GPa) = 0.03055284
#
# Stress axis : x y z
#
# Youngs Moduli (GPa) = 83.44185 74.10531 92.99528
#
# Poissons Ratio (x) = 0.03370 0.25548
# Poissons Ratio (y) = 0.03795 -0.03370
# Poissons Ratio (z) = 0.22923 -0.02686
#
# Static dielectric constant tensor:
#      x y z
#    x 2.007070 0.000000 0.000000 
#    y 0.000000 2.154400 0.000000 
#    z 0.000000 0.000000 2.072730 
# 
# From -- ./inp_files/6924.got.cif
#   From: 2010.05.17/outbox.cif.g08.bks.cpg/sg60_4_cif.got.tgz:6924.got - 2010.06.03 14:59:27.
