data_PCOD9456496
_publ_section_title
;
Structure prediction by ZEFSAII (Michael W. Deem and Ramdas Pophale) SiO2 
 PCOD9456496
Probable space group: P B C N
;
_chemical_formula_sum "Si O2"
_cell_formula_units_Z 48
_cell_length_a 25.651012
_cell_length_b 14.227071
_cell_length_c 5.422137
_cell_angle_alpha 90.000000
_cell_angle_beta 90.000000
_cell_angle_gamma 90.000000
_cell_volume 1978.748002
_symmetry_space_group_name_H-M "P B C N"
_symmetry_group_IT_number 60
_symmetry_cell_setting 'orthorhombic'
loop_
_space_group_symop_operation_xyz
x,y,z
1/2-x,1/2-y,1/2+z
1/2+x,1/2-y,-z
-x,y,1/2-z
-x,-y,-z
1/2+x,1/2+y,1/2-z
1/2-x,1/2+y,z
x,-y,1/2+z
loop_
_atom_site_type_symbol
_atom_site_label
_atom_site_fract_x
_atom_site_fract_y
_atom_site_fract_z
Si Si1 0.500000 0.218610 0.750000
Si Si2 0.000000 0.840972 0.250000
Si Si3 0.188363 0.528816 0.310869
Si Si4 0.112945 0.103723 0.827774
Si Si5 0.758592 0.696525 0.303254
Si Si6 0.928868 0.546589 0.665387
Si Si7 0.846931 0.891128 0.672709
O O1 0.500035 0.279063 0.499548
O O2 0.449995 0.148901 0.766388
O O3 0.947512 0.901463 0.240280
O O4 0.214511 0.519460 0.576344
O O5 0.188402 0.638851 0.245045
O O6 0.133304 0.474249 0.339516
O O7 0.141138 0.152303 0.595293
O O8 0.136846 0.999729 0.855423
O O9 0.120821 0.149761 0.095608
O O10 0.750940 0.729231 0.583708
O O11 0.712149 0.623158 0.248502
O O12 0.947300 0.519088 0.391925
#
# Coordination Sequence:
#
# PCOD9456496 Si02
#       7
#     4   4   8   8   8   8   8
#     4  12  24  43  71 104 142 176 226 296 348 392
#     4  12  26  45  67 108 142 172 226 296 352 394
#     4  10  23  43  70 100 134 191 234 275 333 435
#     4  10  23  45  70 102 133 187 225 281 337 424
#     4  12  26  46  70 108 144 178 232 300 352 392
#     4  10  21  43  67  97 130 189 234 271 335 419
#     4  10  23  43  72  98 137 183 237 273 337 422
#
# _framework density 24.257762
#
# number of rings (size 3 to 8) (size 9 to 14) (size 15 to 20)
#    0.000    1.333    0.000    4.500    4.667    2.667 
#   36.000    0.000    0.000    0.000    0.000    0.000 
#    0.000    0.000    0.000    0.000    0.000    0.000 
#
# Total GULP energy -268052.394839 kJ/mol
# GULP energy per Si atom -5584.424892 kJ/mol
# Density = 2.420255 g / cm^3
# Si number density = 24.257762 Si / 1000 Ang^3
#
#
#
# Elastic Constant Matrix: (Units=GPa)
#
#
# Indices 1 2 3 4 5 6 
#
# 1 70.1927 33.9726 -4.6275 0.0000 0.0000 0.0000
# 2 33.9726 73.9037 21.7150 0.0000 0.0000 0.0000
# 3 -4.6275 21.7150 202.7446 0.0000 0.0000 0.0000
# 4 0.0000 0.0000 0.0000 29.1314 0.0000 0.0000
# 5 0.0000 0.0000 0.0000 0.0000 29.6818 0.0000
# 6 0.0000 0.0000 0.0000 0.0000 0.0000 31.6894
#
#
#
# Elastic Compliance Matrix: (Units=1/GPa)
#
#
# Indices 1 2 3 4 5 6 
#
# 1 0.018695 -0.009003 0.001391 0.000000 0.000000 0.000000
# 2 -0.009003 0.018306 -0.002166 0.000000 0.000000 0.000000
# 3 0.001391 -0.002166 0.005196 0.000000 0.000000 0.000000
# 4 0.000000 0.000000 0.000000 0.034327 0.000000 0.000000
# 5 0.000000 0.000000 0.000000 0.000000 0.033691 0.000000
# 6 0.000000 0.000000 0.000000 0.000000 0.000000 0.031556
#
#
# Mechanical properties :
#
#
# Convention : Reuss Voigt Hill
#
# Bulk Modulus (GPa) = 44.16643 49.88460 47.02552
# Shear Modulus (GPa) = 29.60771 37.81925 33.71348
#
# Velocity S-wave (km/s) = 3.49742 3.95277 3.73205
# Velocity P-wave (km/s) = 5.87843 6.43751 6.16431
#
# Compressibility (1/GPa) = 0.02264163
#
# Stress axis : x y z
#
# Youngs Moduli (GPa) = 53.48893 54.62668 192.45323
#
# Poissons Ratio (x) = 0.49179 -0.26769
# Poissons Ratio (y) = 0.48155 0.41688
# Poissons Ratio (z) = -0.07440 0.11833
#
# Static dielectric constant tensor:
#      x y z
#    x 2.097650 0.000000 0.000000 
#    y 0.000000 2.101970 0.000000 
#    z 0.000000 0.000000 2.030400 
# 
# From -- ./inp_files/2559.got.cif
#   From: 2010.05.17/outbox.cif.g08.bks.cpg/sg60_2_cif.got.tgz:2559.got - 2010.06.03 14:59:27.
