data_PCOD9456521
_publ_section_title
;
Structure prediction by ZEFSAII (Michael W. Deem and Ramdas Pophale) SiO2 
 PCOD9456521
Probable space group: P B C N
;
_chemical_formula_sum "Si O2"
_cell_formula_units_Z 56
_cell_length_a 19.589236
_cell_length_b 14.905127
_cell_length_c 8.565655
_cell_angle_alpha 90.000000
_cell_angle_beta 90.000000
_cell_angle_gamma 90.000000
_cell_volume 2501.000379
_symmetry_space_group_name_H-M "P B C N"
_symmetry_group_IT_number 60
_symmetry_cell_setting 'orthorhombic'
loop_
_space_group_symop_operation_xyz
x,y,z
1/2-x,1/2-y,1/2+z
1/2+x,1/2-y,-z
-x,y,1/2-z
-x,-y,-z
1/2+x,1/2+y,1/2-z
1/2-x,1/2+y,z
x,-y,1/2+z
loop_
_atom_site_type_symbol
_atom_site_label
_atom_site_fract_x
_atom_site_fract_y
_atom_site_fract_z
Si Si1 0.741869 0.569854 0.380284
Si Si2 0.317068 0.591217 0.776628
Si Si3 0.000000 0.221433 0.250000
Si Si4 0.716552 0.770472 0.340960
Si Si5 0.589271 0.710523 0.539022
Si Si6 0.104153 0.519073 0.098699
Si Si7 0.400566 0.130848 0.804803
Si Si8 0.500000 0.158637 0.250000
O O1 0.726012 0.577401 0.563623
O O2 0.685526 0.504499 0.306602
O O3 0.740089 0.669451 0.309360
O O4 0.816478 0.527950 0.354667
O O5 0.280836 0.662522 0.658225
O O6 0.386907 0.632716 0.842538
O O7 0.950456 0.178211 0.380881
O O8 0.951977 0.290554 0.156066
O O9 0.661029 0.757282 0.481226
O O10 0.670103 0.816621 0.209024
O O11 0.541415 0.778297 0.631506
O O12 0.081595 0.418854 0.141943
O O13 0.055928 0.593114 0.174537
O O14 0.100940 0.546983 0.919047
#
# Coordination Sequence:
#
# PCOD9456521 Si02
#       8
#     8   8   4   8   8   8   8   4
#     4  11  23  42  68 100 139 182 240 300 358 434
#     4  11  23  45  69 103 138 187 244 295 369 418
#     4  10  21  44  64  91 136 192 230 283 358 435
#     4  10  22  42  67  94 139 186 237 292 366 423
#     4  10  24  43  70  98 138 190 234 301 358 436
#     4  12  23  38  60  99 137 181 229 281 350 434
#     4  11  23  39  61  91 141 179 226 285 351 431
#     4  12  25  40  66 105 138 182 244 285 366 429
#
# _framework density 22.391041000000001
#
# number of rings (size 3 to 8) (size 9 to 14) (size 15 to 20)
#    0.000    1.143    4.286    1.286    4.000    4.571 
#    2.571    0.000    0.000   18.857    0.000    0.000 
#    0.000    0.000    0.000    0.000    0.000    0.000 
#
# Total GULP energy -312463.915234 kJ/mol
# GULP energy per Si atom -5579.712772 kJ/mol
# Density = 2.234008 g / cm^3
# Si number density = 22.391041 Si / 1000 Ang^3
#
#
#
# Elastic Constant Matrix: (Units=GPa)
#
#
# Indices 1 2 3 4 5 6 
#
# 1 65.7277 9.8232 16.9574 0.0000 0.0000 0.0000
# 2 9.8232 87.4762 25.3471 0.0000 0.0000 0.0000
# 3 16.9574 25.3471 62.5620 0.0000 0.0000 0.0000
# 4 0.0000 0.0000 0.0000 14.3920 0.0000 0.0000
# 5 0.0000 0.0000 0.0000 0.0000 34.6673 0.0000
# 6 0.0000 0.0000 0.0000 0.0000 0.0000 37.2173
#
#
#
# Elastic Compliance Matrix: (Units=1/GPa)
#
#
# Indices 1 2 3 4 5 6 
#
# 1 0.016388 -0.000627 -0.004188 0.000000 0.000000 0.000000
# 2 -0.000627 0.012976 -0.005087 0.000000 0.000000 0.000000
# 3 -0.004188 -0.005087 0.019181 0.000000 0.000000 0.000000
# 4 0.000000 0.000000 0.000000 0.069483 0.000000 0.000000
# 5 0.000000 0.000000 0.000000 0.000000 0.028846 0.000000
# 6 0.000000 0.000000 0.000000 0.000000 0.000000 0.026869
#
#
# Mechanical properties :
#
#
# Convention : Reuss Voigt Hill
#
# Bulk Modulus (GPa) = 34.79417 35.55793 35.17605
# Shear Modulus (GPa) = 24.61501 28.16451 26.38976
#
# Velocity S-wave (km/s) = 3.31920 3.55046 3.43678
# Velocity P-wave (km/s) = 5.50114 5.72037 5.61182
#
# Compressibility (1/GPa) = 0.02874044
#
# Stress axis : x y z
#
# Youngs Moduli (GPa) = 61.01852 77.06414 52.13619
#
# Poissons Ratio (x) = 0.04830 0.21835
# Poissons Ratio (y) = 0.03825 0.26524
# Poissons Ratio (z) = 0.25555 0.39206
#
# Static dielectric constant tensor:
#      x y z
#    x 1.884820 0.000000 0.000000 
#    y 0.000000 1.796750 0.000000 
#    z 0.000000 0.000000 2.003130 
# 
# From -- ./inp_files/7473.got.cif
#   From: 2010.05.17/outbox.cif.g08.bks.cpg/sg60_4_cif.got.tgz:7473.got - 2010.06.03 14:59:27.
