data_PCOD9456746
_publ_section_title
;
Structure prediction by ZEFSAII (Michael W. Deem and Ramdas Pophale) SiO2 
 PCOD9456746
Probable space group: P B C N
;
_chemical_formula_sum "Si O2"
_cell_formula_units_Z 32
_cell_length_a 7.397155
_cell_length_b 10.564625
_cell_length_c 16.881951
_cell_angle_alpha 90.000000
_cell_angle_beta 90.000000
_cell_angle_gamma 90.000000
_cell_volume 1319.293554
_symmetry_space_group_name_H-M "P B C N"
_symmetry_group_IT_number 60
_symmetry_cell_setting 'orthorhombic'
loop_
_space_group_symop_operation_xyz
x,y,z
1/2-x,1/2-y,1/2+z
1/2+x,1/2-y,-z
-x,y,1/2-z
-x,-y,-z
1/2+x,1/2+y,1/2-z
1/2-x,1/2+y,z
x,-y,1/2+z
loop_
_atom_site_type_symbol
_atom_site_label
_atom_site_fract_x
_atom_site_fract_y
_atom_site_fract_z
Si Si1 0.916050 0.667023 0.496033
Si Si2 0.093900 0.954600 0.665395
Si Si3 0.604836 0.831641 0.333368
Si Si4 0.787310 0.068503 0.033834
O O1 0.757594 0.563419 0.490132
O O2 0.863224 0.811896 0.484616
O O3 0.976698 0.658194 0.588952
O O4 0.087523 0.622316 0.444833
O O5 0.176433 0.812639 0.663975
O O6 0.000000 0.968787 0.750000
O O7 0.928194 0.958841 0.602822
O O8 0.243374 0.062497 0.661083
O O9 0.500000 0.846421 0.250000
#
# Coordination Sequence:
#
# PCOD9456746 Si02
#       4
#     8   8   8   8
#     4  10  23  40  61  90 125 162 210 261 319 384
#     4  10  22  40  62  89 124 164 209 261 315 375
#     4  10  22  39  60  90 123 162 212 259 312 375
#     4  10  23  40  61  89 122 163 206 259 319 376
#
# _framework density 24.255403999999999
#
# number of rings (size 3 to 8) (size 9 to 14) (size 15 to 20)
#    0.000    2.000    0.000    1.500    0.000   15.000 
#    0.000    0.000    0.000    0.000    0.000    0.000 
#    0.000    0.000    0.000    0.000    0.000    0.000 
#
# Total GULP energy -179183.687429 kJ/mol
# GULP energy per Si atom -5599.490232 kJ/mol
# Density = 2.420020 g / cm^3
# Si number density = 24.255404 Si / 1000 Ang^3
#
#
#
# Elastic Constant Matrix: (Units=GPa)
#
#
# Indices 1 2 3 4 5 6 
#
# 1 151.0602 117.7323 71.4433 0.0000 0.0000 0.0000
# 2 117.7323 245.2389 88.3217 0.0000 0.0000 0.0000
# 3 71.4433 88.3217 118.6654 0.0000 0.0000 0.0000
# 4 0.0000 0.0000 0.0000 32.1396 0.0000 0.0000
# 5 0.0000 0.0000 0.0000 0.0000 33.9393 0.0000
# 6 0.0000 0.0000 0.0000 0.0000 0.0000 61.7115
#
#
#
# Elastic Compliance Matrix: (Units=1/GPa)
#
#
# Indices 1 2 3 4 5 6 
#
# 1 0.011788 -0.004240 -0.003942 0.000000 0.000000 0.000000
# 2 -0.004240 0.007096 -0.002729 0.000000 0.000000 0.000000
# 3 -0.003942 -0.002729 0.012831 0.000000 0.000000 0.000000
# 4 0.000000 0.000000 0.000000 0.031114 0.000000 0.000000
# 5 0.000000 0.000000 0.000000 0.000000 0.029464 0.000000
# 6 0.000000 0.000000 0.000000 0.000000 0.000000 0.016204
#
#
# Mechanical properties :
#
#
# Convention : Reuss Voigt Hill
#
# Bulk Modulus (GPa) = 101.06130 118.88434 109.97282
# Shear Modulus (GPa) = 37.42034 41.38922 39.40478
#
# Velocity S-wave (km/s) = 3.93206 4.13533 4.03498
# Velocity P-wave (km/s) = 7.89752 8.48064 8.19427
#
# Compressibility (1/GPa) = 0.00989498
#
# Stress axis : x y z
#
# Youngs Moduli (GPa) = 84.82917 140.92890 77.93494
#
# Poissons Ratio (x) = 0.59749 0.30720
# Poissons Ratio (y) = 0.35965 0.21267
# Poissons Ratio (z) = 0.33437 0.38457
#
# Static dielectric constant tensor:
#      x y z
#    x 1.939480 0.000000 0.000000 
#    y 0.000000 1.916950 0.000000 
#    z 0.000000 0.000000 1.973350 
# 
# From -- ./inp_files/21389.got.cif
#   From: 2010.05.17/outbox.cif.g08.bks.cpg/sg60_11_cif.got.tgz:21389.got - 2010.06.03 14:59:27.
