data_PCOD9456300
_publ_section_title
;
Structure prediction by ZEFSAII (Michael W. Deem and Ramdas Pophale) SiO2 
 PCOD9456300
Probable space group: P B C N
;
_chemical_formula_sum "Si O2"
_cell_formula_units_Z 32
_cell_length_a 5.338417
_cell_length_b 11.829931
_cell_length_c 20.558603
_cell_angle_alpha 90.000000
_cell_angle_beta 90.000000
_cell_angle_gamma 90.000000
_cell_volume 1298.339609
_symmetry_space_group_name_H-M "P B C N"
_symmetry_group_IT_number 60
_symmetry_cell_setting 'orthorhombic'
loop_
_space_group_symop_operation_xyz
x,y,z
1/2-x,1/2-y,1/2+z
1/2+x,1/2-y,-z
-x,y,1/2-z
-x,-y,-z
1/2+x,1/2+y,1/2-z
1/2-x,1/2+y,z
x,-y,1/2+z
loop_
_atom_site_type_symbol
_atom_site_label
_atom_site_fract_x
_atom_site_fract_y
_atom_site_fract_z
Si Si1 0.388430 0.466122 0.070779
Si Si2 0.062873 0.678067 0.492746
Si Si3 0.595500 0.349167 0.816670
Si Si4 0.401848 0.754242 0.858758
O O1 0.120920 0.414719 0.047031
O O2 0.388054 0.565551 0.122844
O O3 0.530225 0.363565 0.106904
O O4 0.500000 0.500000 0.000000
O O5 0.288077 0.768613 0.503935
O O6 0.103059 0.652341 0.417084
O O7 0.500000 0.406813 0.750000
O O8 0.374162 0.258784 0.829578
O O9 0.864919 0.289433 0.814008
#
# Coordination Sequence:
#
# PCOD9456300 Si02
#       4
#     8   8   8   8
#     4  11  25  44  77 109 142 180 243 303 361 416
#     4  10  21  40  67 105 143 177 223 294 366 414
#     4  12  28  48  70 102 144 197 245 285 353 440
#     4  11  25  47  72 102 146 183 232 298 365 417
#
# _framework density 24.646867
#
# number of rings (size 3 to 8) (size 9 to 14) (size 15 to 20)
#    0.000    1.000    2.500    3.750    7.000    9.000 
#    0.000    0.000    0.000    0.000    0.000    0.000 
#    0.000    0.000    0.000    0.000    0.000    0.000 
#
# Total GULP energy -178809.336085 kJ/mol
# GULP energy per Si atom -5587.791753 kJ/mol
# Density = 2.459077 g / cm^3
# Si number density = 24.646867 Si / 1000 Ang^3
#
#
#
# Elastic Constant Matrix: (Units=GPa)
#
#
# Indices 1 2 3 4 5 6 
#
# 1 140.2596 49.3233 47.3739 0.0000 0.0000 0.0000
# 2 49.3233 90.8347 34.7557 0.0000 0.0000 0.0000
# 3 47.3739 34.7557 144.0055 0.0000 0.0000 0.0000
# 4 0.0000 0.0000 0.0000 17.3339 0.0000 0.0000
# 5 0.0000 0.0000 0.0000 0.0000 52.5206 0.0000
# 6 0.0000 0.0000 0.0000 0.0000 0.0000 31.8141
#
#
#
# Elastic Compliance Matrix: (Units=1/GPa)
#
#
# Indices 1 2 3 4 5 6 
#
# 1 0.009323 -0.004285 -0.002033 0.000000 0.000000 0.000000
# 2 -0.004285 0.014098 -0.001993 0.000000 0.000000 0.000000
# 3 -0.002033 -0.001993 0.008094 0.000000 0.000000 0.000000
# 4 0.000000 0.000000 0.000000 0.057691 0.000000 0.000000
# 5 0.000000 0.000000 0.000000 0.000000 0.019040 0.000000
# 6 0.000000 0.000000 0.000000 0.000000 0.000000 0.031433
#
#
# Mechanical properties :
#
#
# Convention : Reuss Voigt Hill
#
# Bulk Modulus (GPa) = 67.14122 70.88952 69.01537
# Shear Modulus (GPa) = 31.00502 36.57682 33.79092
#
# Velocity S-wave (km/s) = 3.55064 3.85650 3.70672
# Velocity P-wave (km/s) = 6.64152 6.97529 6.81045
#
# Compressibility (1/GPa) = 0.01489398
#
# Stress axis : x y z
#
# Youngs Moduli (GPa) = 107.26199 70.93143 123.54840
#
# Poissons Ratio (x) = 0.30391 0.25117
# Poissons Ratio (y) = 0.45957 0.24624
# Poissons Ratio (z) = 0.21806 0.14137
#
# Static dielectric constant tensor:
#      x y z
#    x 2.046030 0.000000 0.000000 
#    y 0.000000 2.060800 0.000000 
#    z 0.000000 0.000000 2.018740 
# 
# From -- ./inp_files/21385.got.cif
#   From: 2010.05.17/outbox.cif.g08.bks.cpg/sg60_11_cif.got.tgz:21385.got - 2010.06.03 14:59:27.
