data_PCOD9456810
_publ_section_title
;
Structure prediction by ZEFSAII (Michael W. Deem and Ramdas Pophale) SiO2 
 PCOD9456810
Probable space group: P B C N
;
_chemical_formula_sum "Si O2"
_cell_formula_units_Z 28
_cell_length_a 20.065097
_cell_length_b 10.725765
_cell_length_c 4.824053
_cell_angle_alpha 90.000000
_cell_angle_beta 90.000000
_cell_angle_gamma 90.000000
_cell_volume 1038.201403
_symmetry_space_group_name_H-M "P B C N"
_symmetry_group_IT_number 60
_symmetry_cell_setting 'orthorhombic'
loop_
_space_group_symop_operation_xyz
x,y,z
1/2-x,1/2-y,1/2+z
1/2+x,1/2-y,-z
-x,y,1/2-z
-x,-y,-z
1/2+x,1/2+y,1/2-z
1/2-x,1/2+y,z
x,-y,1/2+z
loop_
_atom_site_type_symbol
_atom_site_label
_atom_site_fract_x
_atom_site_fract_y
_atom_site_fract_z
Si Si1 0.500000 0.254914 0.250000
Si Si2 0.609378 0.414159 0.947778
Si Si3 0.603326 0.086210 0.564556
Si Si4 0.749685 0.086613 0.597058
O O1 0.451793 0.335149 0.445364
O O2 0.546881 0.174181 0.449909
O O3 0.607013 0.459166 0.632983
O O4 0.680867 0.350863 0.014365
O O5 0.677683 0.142340 0.529444
O O6 0.597906 0.039368 0.878392
O O7 0.750967 0.959017 0.412743
#
# Coordination Sequence:
#
# PCOD9456810 Si02
#       4
#     4   8   8   8
#     4  12  24  38  64  96 128 164 200 258 320 368
#     4  10  22  40  61  88 123 162 206 253 304 366
#     4  10  22  40  61  88 123 162 206 253 304 366
#     4   8  16  36  60  80 112 156 198 246 296 350
#
# _framework density 26.969719000000001
#
# number of rings (size 3 to 8) (size 9 to 14) (size 15 to 20)
#    0.000    2.286    0.000    1.714    0.000    4.571 
#    0.000   17.143    0.000    0.000    0.000    0.000 
#    0.000    0.000    0.000    0.000    0.000    0.000 
#
# Total GULP energy -157047.032236 kJ/mol
# GULP energy per Si atom -5608.822580 kJ/mol
# Density = 2.690833 g / cm^3
# Si number density = 26.969719 Si / 1000 Ang^3
#
#
#
# Elastic Constant Matrix: (Units=GPa)
#
#
# Indices 1 2 3 4 5 6 
#
# 1 271.8085 63.6707 17.8631 0.0000 0.0000 0.0000
# 2 63.6707 59.9133 14.6071 0.0000 0.0000 0.0000
# 3 17.8631 14.6071 95.5545 0.0000 0.0000 0.0000
# 4 0.0000 0.0000 0.0000 34.2311 0.0000 0.0000
# 5 0.0000 0.0000 0.0000 0.0000 43.1552 0.0000
# 6 0.0000 0.0000 0.0000 0.0000 0.0000 -420.5770
#
#
#
# Elastic Compliance Matrix: (Units=1/GPa)
#
#
# Indices 1 2 3 4 5 6 
#
# 1 0.004900 -0.005177 -0.000125 0.000000 0.000000 0.000000
# 2 -0.005177 0.022806 -0.002519 0.000000 0.000000 0.000000
# 3 -0.000125 -0.002519 0.010874 0.000000 0.000000 0.000000
# 4 0.000000 0.000000 0.000000 0.029213 0.000000 0.000000
# 5 0.000000 0.000000 0.000000 0.000000 0.023172 0.000000
# 6 0.000000 0.000000 0.000000 0.000000 0.000000 -0.002378
#
#
# Mechanical properties :
#
#
# Convention : Reuss Voigt Hill
#
# Bulk Modulus (GPa) = 43.59253 68.83980 56.21616
# Shear Modulus (GPa) = 44.69315 -46.56244 -0.93465
#
# Velocity S-wave (km/s) = 4.07524 -4.15959 -0.58933
# Velocity P-wave (km/s) = 6.19209 1.58451 4.51955
#
# Compressibility (1/GPa) = 0.02293971
#
# Stress axis : x y z
#
# Youngs Moduli (GPa) = 204.08523 43.84757 91.96646
#
# Poissons Ratio (x) = 0.22699 0.01146
# Poissons Ratio (y) = 1.05651 0.23162
# Poissons Ratio (z) = 0.02544 0.11043
#
# Static dielectric constant tensor:
#      x y z
#    x 2.108240 0.000000 0.000000 
#    y 0.000000 2.081370 0.000000 
#    z 0.000000 0.000000 1.995320 
# 
# From -- ./inp_files/1924.got.cif
#   From: 2010.05.17/outbox.cif.g08.bks.cpg/sg60_1_cif.got.tgz:1924.got - 2010.06.03 14:59:27.
