data_PCOD9456685
_publ_section_title
;
Structure prediction by ZEFSAII (Michael W. Deem and Ramdas Pophale) SiO2 
 PCOD9456685
Probable space group: P B C N
;
_chemical_formula_sum "Si O2"
_cell_formula_units_Z 60
_cell_length_a 18.769494
_cell_length_b 9.701035
_cell_length_c 17.698734
_cell_angle_alpha 90.000000
_cell_angle_beta 90.000000
_cell_angle_gamma 90.000000
_cell_volume 3222.647755
_symmetry_space_group_name_H-M "P B C N"
_symmetry_group_IT_number 60
_symmetry_cell_setting 'orthorhombic'
loop_
_space_group_symop_operation_xyz
x,y,z
1/2-x,1/2-y,1/2+z
1/2+x,1/2-y,-z
-x,y,1/2-z
-x,-y,-z
1/2+x,1/2+y,1/2-z
1/2-x,1/2+y,z
x,-y,1/2+z
loop_
_atom_site_type_symbol
_atom_site_label
_atom_site_fract_x
_atom_site_fract_y
_atom_site_fract_z
Si Si1 0.662682 0.137766 0.580866
Si Si2 0.418664 0.213765 0.767320
Si Si3 0.994485 0.857024 0.399575
Si Si4 0.251040 0.609493 0.477975
Si Si5 0.500000 0.480430 0.750000
Si Si6 0.357723 0.820149 0.106590
Si Si7 0.106952 0.942864 0.509852
Si Si8 0.942388 0.578769 0.450428
O O1 0.617467 0.155819 0.657303
O O2 0.720298 0.259732 0.569101
O O3 0.610459 0.151663 0.509297
O O4 0.696948 0.986305 0.569790
O O5 0.500000 0.156726 0.750000
O O6 0.437361 0.376094 0.775482
O O7 0.365009 0.199903 0.696394
O O8 0.980782 0.925308 0.319768
O O9 0.978319 0.695933 0.400660
O O10 0.072905 0.887735 0.432215
O O11 0.942379 0.936796 0.457062
O O12 0.213855 0.659741 0.556395
O O13 0.315957 0.508140 0.498461
O O14 0.393546 0.686316 0.067453
O O15 0.400436 0.961086 0.093199
O O16 0.000000 0.500000 0.500000
#
# Coordination Sequence:
#
# PCOD9456685 Si02
#       8
#     8   8   8   8   4   8   8   8
#     4  11  23  42  64  93 127 175 221 264 332 391
#     4  10  22  42  67  91 130 166 212 272 336 383
#     4  11  22  37  66  95 125 166 219 272 323 378
#     4  11  23  40  65  90 125 172 222 266 308 402
#     4  10  22  38  60  98 126 162 204 270 334 378
#     4  11  22  41  62  94 126 172 213 262 334 386
#     4  11  20  39  65  89 120 171 218 265 312 386
#     4  11  22  38  64  95 126 165 225 275 321 380
#
# _framework density 18.618230000000001
#
# number of rings (size 3 to 8) (size 9 to 14) (size 15 to 20)
#    0.400    0.800    5.333    1.600    1.867    0.000 
#    6.000    0.000    0.000    0.000    0.000    0.000 
#    0.000    0.000    0.000    0.000    0.000    0.000 
#
# Total GULP energy -334513.417305 kJ/mol
# GULP energy per Si atom -5575.223622 kJ/mol
# Density = 1.857585 g / cm^3
# Si number density = 18.618230 Si / 1000 Ang^3
#
#
#
# Elastic Constant Matrix: (Units=GPa)
#
#
# Indices 1 2 3 4 5 6 
#
# 1 58.0299 25.3167 1.2862 0.0000 0.0000 0.0000
# 2 25.3167 94.4392 19.6560 0.0000 0.0000 0.0000
# 3 1.2862 19.6560 22.3003 0.0000 0.0000 0.0000
# 4 0.0000 0.0000 0.0000 32.1050 0.0000 0.0000
# 5 0.0000 0.0000 0.0000 0.0000 23.6625 0.0000
# 6 0.0000 0.0000 0.0000 0.0000 0.0000 24.8050
#
#
#
# Elastic Compliance Matrix: (Units=1/GPa)
#
#
# Indices 1 2 3 4 5 6 
#
# 1 0.019852 -0.006226 0.004342 0.000000 0.000000 0.000000
# 2 -0.006226 0.014920 -0.012792 0.000000 0.000000 0.000000
# 3 0.004342 -0.012792 0.055867 0.000000 0.000000 0.000000
# 4 0.000000 0.000000 0.000000 0.031148 0.000000 0.000000
# 5 0.000000 0.000000 0.000000 0.000000 0.042261 0.000000
# 6 0.000000 0.000000 0.000000 0.000000 0.000000 0.040314
#
#
# Mechanical properties :
#
#
# Convention : Reuss Voigt Hill
#
# Bulk Modulus (GPa) = 16.31610 29.69861 23.00735
# Shear Modulus (GPa) = 19.67397 24.68186 22.17791
#
# Velocity S-wave (km/s) = 3.25423 3.64494 3.45511
# Velocity P-wave (km/s) = 4.78566 5.80518 5.31990
#
# Compressibility (1/GPa) = 0.06128916
#
# Stress axis : x y z
#
# Youngs Moduli (GPa) = 50.37187 67.02316 17.89965
#
# Poissons Ratio (x) = 0.41727 -0.07773
# Poissons Ratio (y) = 0.31360 0.22897
# Poissons Ratio (z) = -0.21874 0.85736
#
# Static dielectric constant tensor:
#      x y z
#    x 1.680270 0.000000 0.000000 
#    y 0.000000 1.660820 0.000000 
#    z 0.000000 0.000000 1.346270 
# 
# From -- ./inp_files/20904.got.cif
#   From: 2010.05.17/outbox.cif.g08.bks.cpg/sg60_11_cif.got.tgz:20904.got - 2010.06.03 14:59:27.
