data_PCOD9456526
_publ_section_title
;
Structure prediction by ZEFSAII (Michael W. Deem and Ramdas Pophale) SiO2 
 PCOD9456526
Probable space group: P B C N
;
_chemical_formula_sum "Si O2"
_cell_formula_units_Z 56
_cell_length_a 15.798918
_cell_length_b 14.653789
_cell_length_c 11.594217
_cell_angle_alpha 90.000000
_cell_angle_beta 90.000000
_cell_angle_gamma 90.000000
_cell_volume 2684.223680
_symmetry_space_group_name_H-M "P B C N"
_symmetry_group_IT_number 60
_symmetry_cell_setting 'orthorhombic'
loop_
_space_group_symop_operation_xyz
x,y,z
1/2-x,1/2-y,1/2+z
1/2+x,1/2-y,-z
-x,y,1/2-z
-x,-y,-z
1/2+x,1/2+y,1/2-z
1/2-x,1/2+y,z
x,-y,1/2+z
loop_
_atom_site_type_symbol
_atom_site_label
_atom_site_fract_x
_atom_site_fract_y
_atom_site_fract_z
Si Si1 0.506277 0.946757 0.121989
Si Si2 0.835121 0.828864 0.352435
Si Si3 0.361017 0.795549 0.112292
Si Si4 0.601153 0.487605 0.516605
Si Si5 0.633852 0.800953 0.047088
Si Si6 0.409437 0.644704 0.292391
Si Si7 0.831991 0.178272 0.588119
O O1 0.500000 0.993663 0.250000
O O2 0.431743 0.871097 0.134206
O O3 0.592761 0.892055 0.095969
O O4 0.500000 0.000000 0.000000
O O5 0.733332 0.832408 0.367406
O O6 0.870227 0.917773 0.417596
O O7 0.864432 0.734732 0.415526
O O8 0.859849 0.828662 0.219535
O O9 0.367584 0.704850 0.192304
O O10 0.372449 0.761314 0.981852
O O11 0.500000 0.500000 0.500000
O O12 0.628779 0.439504 0.637929
O O13 0.645008 0.585614 0.520900
O O14 0.581134 0.721134 0.109173
O O15 0.731588 0.802480 0.084551
O O16 0.500000 0.612784 0.250000
#
# Coordination Sequence:
#
# PCOD9456526 Si02
#       7
#     8   8   8   8   8   8   8
#     4  12  25  43  69  99 133 173 227 277 336 400
#     4  10  24  43  64  95 132 166 225 271 323 412
#     4  11  22  44  70  92 128 184 215 269 343 396
#     4  11  27  40  62 101 133 174 215 277 339 391
#     4  10  21  44  66  91 125 175 212 266 333 392
#     4  11  19  40  70  87 127 174 218 254 327 410
#     4  11  24  41  67  97 132 166 222 274 329 398
#
# _framework density 20.862642999999998
#
# number of rings (size 3 to 8) (size 9 to 14) (size 15 to 20)
#    0.000    1.143    4.286    0.857    8.000    1.143 
#    0.000    0.000    0.000    0.000    0.000    0.000 
#    0.000    0.000    0.000    0.000    0.000    0.000 
#
# Total GULP energy -312133.610941 kJ/mol
# GULP energy per Si atom -5573.814481 kJ/mol
# Density = 2.081516 g / cm^3
# Si number density = 20.862643 Si / 1000 Ang^3
#
#
#
# Elastic Constant Matrix: (Units=GPa)
#
#
# Indices 1 2 3 4 5 6 
#
# 1 37.6848 -1.3713 21.3862 0.0000 0.0000 0.0000
# 2 -1.3713 38.2574 40.0638 0.0000 0.0000 0.0000
# 3 21.3862 40.0638 151.7609 0.0000 0.0000 0.0000
# 4 0.0000 0.0000 0.0000 39.8323 0.0000 0.0000
# 5 0.0000 0.0000 0.0000 0.0000 23.1692 0.0000
# 6 0.0000 0.0000 0.0000 0.0000 0.0000 16.0163
#
#
#
# Elastic Compliance Matrix: (Units=1/GPa)
#
#
# Indices 1 2 3 4 5 6 
#
# 1 0.030402 0.007707 -0.006319 0.000000 0.000000 0.000000
# 2 0.007707 0.038080 -0.011139 0.000000 0.000000 0.000000
# 3 -0.006319 -0.011139 0.010420 0.000000 0.000000 0.000000
# 4 0.000000 0.000000 0.000000 0.025105 0.000000 0.000000
# 5 0.000000 0.000000 0.000000 0.000000 0.043161 0.000000
# 6 0.000000 0.000000 0.000000 0.000000 0.000000 0.062436
#
#
# Mechanical properties :
#
#
# Convention : Reuss Voigt Hill
#
# Bulk Modulus (GPa) = 16.83475 38.65119 27.74297
# Shear Modulus (GPa) = 20.08785 26.97853 23.53319
#
# Velocity S-wave (km/s) = 3.10637 3.59994 3.36222
# Velocity P-wave (km/s) = 4.57743 5.98717 5.32912
#
# Compressibility (1/GPa) = 0.05940094
#
# Stress axis : x y z
#
# Youngs Moduli (GPa) = 32.89223 26.26061 95.96591
#
# Poissons Ratio (x) = -0.20239 0.60640
# Poissons Ratio (y) = -0.25350 1.06895
# Poissons Ratio (z) = 0.20784 0.29251
#
# Static dielectric constant tensor:
#      x y z
#    x 2.378880 0.000000 0.000000 
#    y 0.000000 1.776690 0.000000 
#    z 0.000000 0.000000 1.836760 
# 
# From -- ./inp_files/11976.got.cif
#   From: 2010.05.17/outbox.cif.g08.bks.cpg/sg60_6_cif.got.tgz:11976.got - 2010.06.03 14:59:27.
