data_PCOD9456883
_publ_section_title
;
Structure prediction by ZEFSAII (Michael W. Deem and Ramdas Pophale) SiO2 
 PCOD9456883
Probable space group: P B C N
;
_chemical_formula_sum "Si O2"
_cell_formula_units_Z 40
_cell_length_a 8.543665
_cell_length_b 16.754764
_cell_length_c 11.765945
_cell_angle_alpha 90.000000
_cell_angle_beta 90.000000
_cell_angle_gamma 90.000000
_cell_volume 1684.260797
_symmetry_space_group_name_H-M "P B C N"
_symmetry_group_IT_number 60
_symmetry_cell_setting 'orthorhombic'
loop_
_space_group_symop_operation_xyz
x,y,z
1/2-x,1/2-y,1/2+z
1/2+x,1/2-y,-z
-x,y,1/2-z
-x,-y,-z
1/2+x,1/2+y,1/2-z
1/2-x,1/2+y,z
x,-y,1/2+z
loop_
_atom_site_type_symbol
_atom_site_label
_atom_site_fract_x
_atom_site_fract_y
_atom_site_fract_z
Si Si1 0.838767 0.093463 0.089656
Si Si2 0.997657 0.459326 0.874623
Si Si3 0.975296 0.079823 0.624685
Si Si4 0.982644 0.256981 0.371750
Si Si5 0.216918 0.337931 0.534883
O O1 0.658477 0.090545 0.121338
O O2 0.922690 0.172919 0.133075
O O3 0.922021 0.012434 0.132628
O O4 0.871559 0.088120 0.953899
O O5 0.000000 0.501752 0.750000
O O6 0.842822 0.405017 0.879412
O O7 0.000000 0.500000 0.000000
O O8 0.838758 0.124619 0.555038
O O9 0.000000 0.112499 0.750000
O O10 0.066319 0.307369 0.468210
O O11 0.000000 0.296756 0.250000
O O12 0.807197 0.233432 0.403829
#
# Coordination Sequence:
#
# PCOD9456883 Si02
#       5
#     8   8   8   8   8
#     4  10  22  41  65  99 134 180 227 284 348 409
#     4  12  26  43  70 103 142 179 233 290 354 411
#     4  10  22  40  68  96 138 176 236 287 348 408
#     4  11  24  43  70  93 141 184 229 281 347 412
#     4  11  25  44  63 106 130 186 231 284 347 413
#
# _framework density 23.749289999999998
#
# number of rings (size 3 to 8) (size 9 to 14) (size 15 to 20)
#    0.000    1.200    2.000    3.000    2.800    5.600 
#    0.000    2.000    0.000    0.000    0.000    0.000 
#    0.000    0.000    0.000    0.000    0.000    0.000 
#
# Total GULP energy -223748.467780 kJ/mol
# GULP energy per Si atom -5593.711694 kJ/mol
# Density = 2.369524 g / cm^3
# Si number density = 23.749290 Si / 1000 Ang^3
#
#
#
# Elastic Constant Matrix: (Units=GPa)
#
#
# Indices 1 2 3 4 5 6 
#
# 1 67.8637 0.6549 46.0163 0.0000 0.0000 0.0000
# 2 0.6549 53.4150 11.1721 0.0000 0.0000 0.0000
# 3 46.0163 11.1721 189.3061 0.0000 0.0000 0.0000
# 4 0.0000 0.0000 0.0000 -0.6151 0.0000 0.0000
# 5 0.0000 0.0000 0.0000 0.0000 14.5092 0.0000
# 6 0.0000 0.0000 0.0000 0.0000 0.0000 39.4787
#
#
#
# Elastic Compliance Matrix: (Units=1/GPa)
#
#
# Indices 1 2 3 4 5 6 
#
# 1 0.017669 0.000690 -0.004336 0.000000 0.000000 0.000000
# 2 0.000690 0.018982 -0.001288 0.000000 0.000000 0.000000
# 3 -0.004336 -0.001288 0.006412 0.000000 0.000000 0.000000
# 4 0.000000 0.000000 0.000000 -1.625657 0.000000 0.000000
# 5 0.000000 0.000000 0.000000 0.000000 0.068922 0.000000
# 6 0.000000 0.000000 0.000000 0.000000 0.000000 0.025330
#
#
# Mechanical properties :
#
#
# Convention : Reuss Voigt Hill
#
# Bulk Modulus (GPa) = 30.12382 47.36350 38.74366
# Shear Modulus (GPa) = -3.40736 27.52398 12.05831
#
# Velocity S-wave (km/s) = -1.19910 3.40801 2.25574
# Velocity P-wave (km/s) = 3.28550 5.95588 4.80973
#
# Compressibility (1/GPa) = 0.03319632
#
# Stress axis : x y z
#
# Youngs Moduli (GPa) = 56.59764 52.68077 155.94892
#
# Poissons Ratio (x) = -0.03636 0.67613
# Poissons Ratio (y) = -0.03906 0.20087
# Poissons Ratio (z) = 0.24538 0.06785
#
# Static dielectric constant tensor:
#      x y z
#    x 1.873770 0.000000 0.000000 
#    y 0.000000 1.920540 0.000000 
#    z 0.000000 0.000000 1.939820 
# 
# From -- ./inp_files/9735.got.cif
#   From: 2010.05.17/outbox.cif.g08.bks.cpg/sg60_5_cif.got.tgz:9735.got - 2010.06.03 14:59:27.
