data_PCOD9456852
_publ_section_title
;
Structure prediction by ZEFSAII (Michael W. Deem and Ramdas Pophale) SiO2 
 PCOD9456852
Probable space group: P B C N
;
_chemical_formula_sum "Si O2"
_cell_formula_units_Z 56
_cell_length_a 14.418800
_cell_length_b 12.164106
_cell_length_c 14.797972
_cell_angle_alpha 90.000000
_cell_angle_beta 90.000000
_cell_angle_gamma 90.000000
_cell_volume 2595.443117
_symmetry_space_group_name_H-M "P B C N"
_symmetry_group_IT_number 60
_symmetry_cell_setting 'orthorhombic'
loop_
_space_group_symop_operation_xyz
x,y,z
1/2-x,1/2-y,1/2+z
1/2+x,1/2-y,-z
-x,y,1/2-z
-x,-y,-z
1/2+x,1/2+y,1/2-z
1/2-x,1/2+y,z
x,-y,1/2+z
loop_
_atom_site_type_symbol
_atom_site_label
_atom_site_fract_x
_atom_site_fract_y
_atom_site_fract_z
Si Si1 0.385731 0.742141 0.846899
Si Si2 0.849676 0.059628 0.327637
Si Si3 0.378863 0.785207 0.479117
Si Si4 0.276770 0.383811 0.863954
Si Si5 0.406014 0.330832 0.157157
Si Si6 0.701234 0.985829 0.467172
Si Si7 0.402832 0.755053 0.046477
O O1 0.330895 0.857098 0.840936
O O2 0.497378 0.735790 0.842274
O O3 0.356369 0.683086 0.753982
O O4 0.368609 0.704032 0.950097
O O5 0.831381 0.073039 0.221877
O O6 0.756460 0.019935 0.377873
O O7 0.877010 0.174191 0.372964
O O8 0.921826 0.961450 0.350209
O O9 0.321267 0.730752 0.398084
O O10 0.353215 0.718431 0.571278
O O11 0.359390 0.911745 0.499237
O O12 0.486669 0.765963 0.458998
O O13 0.272869 0.461082 0.951118
O O14 0.642579 0.875540 0.449359
#
# Coordination Sequence:
#
# PCOD9456852 Si02
#       7
#     8   8   8   8   8   8   8
#     4   9  21  40  64  92 134 170 222 262 331 401
#     4  12  26  40  69  98 141 173 224 283 335 400
#     4  11  23  44  68  96 135 171 225 277 330 401
#     4  11  25  41  66  99 137 177 223 277 339 392
#     4  10  22  40  66 100 131 177 219 273 334 399
#     4  11  23  45  69  98 129 182 222 274 330 404
#     4  10  25  44  66  98 132 175 221 275 339 393
#
# _framework density 21.576277000000001
#
# number of rings (size 3 to 8) (size 9 to 14) (size 15 to 20)
#    0.000    1.429    1.429    3.000    6.000    5.143 
#    0.000    0.000    0.000    3.429    0.000    0.000 
#    0.000    0.000    0.000    0.000    0.000    0.000 
#
# Total GULP energy -312506.161895 kJ/mol
# GULP energy per Si atom -5580.467177 kJ/mol
# Density = 2.152717 g / cm^3
# Si number density = 21.576277 Si / 1000 Ang^3
#
#
#
# Elastic Constant Matrix: (Units=GPa)
#
#
# Indices 1 2 3 4 5 6 
#
# 1 71.3966 22.6291 9.6664 0.0000 0.0000 0.0000
# 2 22.6291 112.4259 29.8328 0.0000 0.0000 0.0000
# 3 9.6664 29.8328 103.6688 0.0000 0.0000 0.0000
# 4 0.0000 0.0000 0.0000 57.6949 0.0000 0.0000
# 5 0.0000 0.0000 0.0000 0.0000 18.7700 0.0000
# 6 0.0000 0.0000 0.0000 0.0000 0.0000 -13.0912
#
#
#
# Elastic Compliance Matrix: (Units=1/GPa)
#
#
# Indices 1 2 3 4 5 6 
#
# 1 0.014992 -0.002865 -0.000573 0.000000 0.000000 0.000000
# 2 -0.002865 0.010178 -0.002662 0.000000 0.000000 0.000000
# 3 -0.000573 -0.002662 0.010466 0.000000 0.000000 0.000000
# 4 0.000000 0.000000 0.000000 0.017333 0.000000 0.000000
# 5 0.000000 0.000000 0.000000 0.000000 0.053277 0.000000
# 6 0.000000 0.000000 0.000000 0.000000 0.000000 -0.076387
#
#
# Mechanical properties :
#
#
# Convention : Reuss Voigt Hill
#
# Bulk Modulus (GPa) = 42.67219 45.74977 44.21098
# Shear Modulus (GPa) = 100.26168 27.69895 63.98031
#
# Velocity S-wave (km/s) = 6.82417 3.58686 5.45137
# Velocity P-wave (km/s) = 9.05057 6.19708 7.75618
#
# Compressibility (1/GPa) = 0.02343447
#
# Stress axis : x y z
#
# Youngs Moduli (GPa) = 66.70182 98.25305 95.55191
#
# Poissons Ratio (x) = 0.28154 0.05478
# Poissons Ratio (y) = 0.19113 0.25433
# Poissons Ratio (z) = 0.03824 0.26152
#
# Static dielectric constant tensor:
#      x y z
#    x 1.818950 0.000000 0.000000 
#    y 0.000000 1.782200 0.000000 
#    z 0.000000 0.000000 1.822720 
# 
# From -- ./inp_files/16853.got.cif
#   From: 2010.05.17/outbox.cif.g08.bks.cpg/sg60_9_cif.got.tgz:16853.got - 2010.06.03 14:59:27.
